10001388
 OpenBabel06101807152D

 56 58  0  0  0  0  0  0  0  0999 V2000
    8.0901   -1.6305    0.0000 O   0  0  0  0  0  0  0  0  0  0  0  0
    6.3301    1.4042    0.0000 O   0  0  0  0  0  0  0  0  0  0  0  0
    4.5981   -1.5958    0.0000 O   0  0  0  0  0  0  0  0  0  0  0  0
    8.0785    1.4388    0.0000 O   0  0  0  0  0  0  0  0  0  0  0  0
   12.4525    1.9383    0.0000 O   0  0  0  0  0  0  0  0  0  0  0  0
    7.1962   -0.0958    0.0000 C   0  0  0  0  0  0  0  0  0  0  0  0
    5.4641   -0.0958    0.0000 C   0  0  0  0  0  0  0  0  0  0  0  0
    8.9962   -0.0750    0.0000 C   0  0  0  0  0  0  0  0  0  0  0  0
    6.3301    0.4042    0.0000 C   0  0  0  0  0  0  0  0  0  0  0  0
    7.1962   -1.0958    0.0000 C   0  0  0  0  0  0  0  0  0  0  0  0
    9.8602    0.4283    0.0000 C   0  0  0  0  0  0  0  0  0  0  0  0
    8.0901    0.4388    0.0000 C   0  0  0  0  0  0  0  0  0  0  0  0
    4.5981    0.4042    0.0000 C   0  0  0  0  0  0  0  0  0  0  0  0
    5.4641   -1.0958    0.0000 C   0  0  0  0  0  0  0  0  0  0  0  0
   11.5923    0.4350    0.0000 C   0  0  0  0  0  0  0  0  0  0  0  0
    6.3301   -1.5958    0.0000 C   0  0  0  0  0  0  0  0  0  0  0  0
   10.7282   -0.0683    0.0000 C   0  0  0  0  0  0  0  0  0  0  0  0
    8.9962   -1.1166    0.0000 C   0  0  0  0  0  0  0  0  0  0  0  0
   12.4602   -0.0617    0.0000 C   0  0  0  0  0  0  0  0  0  0  0  0
    9.8564    1.4283    0.0000 C   0  0  0  0  0  0  0  0  0  0  0  0
   11.5884    1.4350    0.0000 C   0  0  0  0  0  0  0  0  0  0  0  0
    3.7320   -0.0958    0.0000 C   0  0  0  0  0  0  0  0  0  0  0  0
   10.7205    1.9316    0.0000 C   0  0  0  0  0  0  0  0  0  0  0  0
   12.4641   -1.0617    0.0000 C   0  0  0  0  0  0  0  0  0  0  0  0
    2.8660    0.4042    0.0000 C   0  0  0  0  0  0  0  0  0  0  0  0
   13.3320   -1.5583    0.0000 C   0  0  0  0  0  0  0  0  0  0  0  0
    2.0000   -0.0958    0.0000 C   0  0  0  0  0  0  0  0  0  0  0  0
    2.8660    1.4042    0.0000 C   0  0  0  0  0  0  0  0  0  0  0  0
   13.3359   -2.5583    0.0000 C   0  0  0  0  0  0  0  0  0  0  0  0
   14.1961   -1.0550    0.0000 C   0  0  0  0  0  0  0  0  0  0  0  0
    4.9966    0.8791    0.0000 H   0  0  0  0  0  0  0  0  0  0  0  0
    4.1996    0.8791    0.0000 H   0  0  0  0  0  0  0  0  0  0  0  0
    6.3301   -2.2158    0.0000 H   0  0  0  0  0  0  0  0  0  0  0  0
   10.7306   -0.6883    0.0000 H   0  0  0  0  0  0  0  0  0  0  0  0
    9.5319   -1.4287    0.0000 H   0  0  0  0  0  0  0  0  0  0  0  0
   13.0712   -0.1670    0.0000 H   0  0  0  0  0  0  0  0  0  0  0  0
   12.6700    0.5218    0.0000 H   0  0  0  0  0  0  0  0  0  0  0  0
    9.3183    1.7362    0.0000 H   0  0  0  0  0  0  0  0  0  0  0  0
    3.7320   -0.7158    0.0000 H   0  0  0  0  0  0  0  0  0  0  0  0
   10.7181    2.5516    0.0000 H   0  0  0  0  0  0  0  0  0  0  0  0
   11.9284   -1.3737    0.0000 H   0  0  0  0  0  0  0  0  0  0  0  0
    5.7932    1.7142    0.0000 H   0  0  0  0  0  0  0  0  0  0  0  0
    4.5981   -2.2158    0.0000 H   0  0  0  0  0  0  0  0  0  0  0  0
    1.6900    0.4411    0.0000 H   0  0  0  0  0  0  0  0  0  0  0  0
    1.4631   -0.4058    0.0000 H   0  0  0  0  0  0  0  0  0  0  0  0
    2.3100   -0.6328    0.0000 H   0  0  0  0  0  0  0  0  0  0  0  0
    3.4860    1.4042    0.0000 H   0  0  0  0  0  0  0  0  0  0  0  0
    2.8660    2.0242    0.0000 H   0  0  0  0  0  0  0  0  0  0  0  0
    2.2460    1.4042    0.0000 H   0  0  0  0  0  0  0  0  0  0  0  0
   12.4501    2.5583    0.0000 H   0  0  0  0  0  0  0  0  0  0  0  0
   12.7159   -2.5607    0.0000 H   0  0  0  0  0  0  0  0  0  0  0  0
   14.5082   -1.5907    0.0000 H   0  0  0  0  0  0  0  0  0  0  0  0
   14.7319   -0.7429    0.0000 H   0  0  0  0  0  0  0  0  0  0  0  0
   13.8841   -0.5192    0.0000 H   0  0  0  0  0  0  0  0  0  0  0  0
   13.3383   -3.1783    0.0000 H   0  0  0  0  0  0  0  0  0  0  0  0
   13.9559   -2.5559    0.0000 H   0  0  0  0  0  0  0  0  0  0  0  0
  1 10  1  0  0  0  0
  1 18  1  0  0  0  0
  2  9  1  0  0  0  0
  2 42  1  0  0  0  0
  3 14  1  0  0  0  0
  3 43  1  0  0  0  0
  4 12  2  0  0  0  0
  5 21  1  0  0  0  0
  5 50  1  0  0  0  0
  6  9  1  0  0  0  0
  6 10  2  0  0  0  0
  6 12  1  0  0  0  0
  7  9  2  0  0  0  0
  7 13  1  0  0  0  0
  7 14  1  0  0  0  0
  8 11  1  0  0  0  0
  8 12  1  0  0  0  0
  8 18  2  0  0  0  0
 10 16  1  0  0  0  0
 11 17  2  0  0  0  0
 11 20  1  0  0  0  0
 13 22  1  0  0  0  0
 13 31  1  0  0  0  0
 13 32  1  0  0  0  0
 14 16  2  0  0  0  0
 15 17  1  0  0  0  0
 15 19  1  0  0  0  0
 15 21  2  0  0  0  0
 16 33  1  0  0  0  0
 17 34  1  0  0  0  0
 18 35  1  0  0  0  0
 19 24  1  0  0  0  0
 19 36  1  0  0  0  0
 19 37  1  0  0  0  0
 20 23  2  0  0  0  0
 20 38  1  0  0  0  0
 21 23  1  0  0  0  0
 22 25  2  0  0  0  0
 22 39  1  0  0  0  0
 23 40  1  0  0  0  0
 24 26  2  0  0  0  0
 24 41  1  0  0  0  0
 25 27  1  0  0  0  0
 25 28  1  0  0  0  0
 26 29  1  0  0  0  0
 26 30  1  0  0  0  0
 27 44  1  0  0  0  0
 27 45  1  0  0  0  0
 27 46  1  0  0  0  0
 28 47  1  0  0  0  0
 28 48  1  0  0  0  0
 28 49  1  0  0  0  0
 29 51  1  0  0  0  0
 29 55  1  0  0  0  0
 29 56  1  0  0  0  0
 30 52  1  0  0  0  0
 30 53  1  0  0  0  0
 30 54  1  0  0  0  0
M  END
>  <PUBCHEM_COMPOUND_CID>
10001388

>  <PUBCHEM_COMPOUND_CANONICALIZED>
1

>  <PUBCHEM_CACTVS_COMPLEXITY>
713

>  <PUBCHEM_CACTVS_HBOND_ACCEPTOR>
5

>  <PUBCHEM_CACTVS_HBOND_DONOR>
3

>  <PUBCHEM_CACTVS_ROTATABLE_BOND>
5

>  <PUBCHEM_CACTVS_SUBSKEYS>
AAADceB4OAAAAAAAAAAAAAAAAAAAAAAAAAAwYIAAAAAAAACBQAAAGgAACAAADASgmAIyBoAABgCIAqBSAAACCAAkIAAIiAEGCMgMJzaGNRqAcWAl4BUIuYeI7PzOIAACCAAIAABAAAQQABAAAAAAAAAAAA==

>  <PUBCHEM_IUPAC_OPENEYE_NAME>
5,7-dihydroxy-3-[4-hydroxy-3-(3-methylbut-2-enyl)phenyl]-6-(3-methylbut-2-enyl)chromen-4-one

>  <PUBCHEM_IUPAC_CAS_NAME>
5,7-dihydroxy-3-[4-hydroxy-3-(3-methylbut-2-enyl)phenyl]-6-(3-methylbut-2-enyl)-1-benzopyran-4-one

>  <PUBCHEM_IUPAC_NAME>
5,7-dihydroxy-3-[4-hydroxy-3-(3-methylbut-2-enyl)phenyl]-6-(3-methylbut-2-enyl)chromen-4-one

>  <PUBCHEM_IUPAC_SYSTEMATIC_NAME>
6-(3-methylbut-2-enyl)-3-[3-(3-methylbut-2-enyl)-4-oxidanyl-phenyl]-5,7-bis(oxidanyl)chromen-4-one

>  <PUBCHEM_IUPAC_TRADITIONAL_NAME>
5,7-dihydroxy-3-[4-hydroxy-3-(3-methylbut-2-enyl)phenyl]-6-(3-methylbut-2-enyl)chromone

>  <PUBCHEM_IUPAC_INCHI>
InChI=1S/C25H26O5/c1-14(2)5-7-17-11-16(8-10-20(17)26)19-13-30-22-12-21(27)18(9-6-15(3)4)24(28)23(22)25(19)29/h5-6,8,10-13,26-28H,7,9H2,1-4H3

>  <PUBCHEM_IUPAC_INCHIKEY>
HTAZIHDXIUPDQP-UHFFFAOYSA-N

>  <PUBCHEM_XLOGP3_AA>
6.5

>  <PUBCHEM_EXACT_MASS>
406.178

>  <PUBCHEM_MOLECULAR_FORMULA>
C25H26O5

>  <PUBCHEM_MOLECULAR_WEIGHT>
406.478

>  <PUBCHEM_OPENEYE_CAN_SMILES>
CC(=CCC1=C(C=CC(=C1)C2=COC3=CC(=C(C(=C3C2=O)O)CC=C(C)C)O)O)C

>  <PUBCHEM_OPENEYE_ISO_SMILES>
CC(=CCC1=C(C=CC(=C1)C2=COC3=CC(=C(C(=C3C2=O)O)CC=C(C)C)O)O)C

>  <PUBCHEM_CACTVS_TPSA>
87

>  <PUBCHEM_MONOISOTOPIC_WEIGHT>
406.178

>  <PUBCHEM_TOTAL_CHARGE>
0

>  <PUBCHEM_HEAVY_ATOM_COUNT>
30

>  <PUBCHEM_ATOM_DEF_STEREO_COUNT>
0

>  <PUBCHEM_ATOM_UDEF_STEREO_COUNT>
0

>  <PUBCHEM_BOND_DEF_STEREO_COUNT>
0

>  <PUBCHEM_BOND_UDEF_STEREO_COUNT>
0

>  <PUBCHEM_ISOTOPIC_ATOM_COUNT>
0

>  <PUBCHEM_COMPONENT_COUNT>
1

>  <PUBCHEM_CACTVS_TAUTO_COUNT>
36

>  <PUBCHEM_COORDINATE_TYPE>
1
5
255

>  <PUBCHEM_BONDANNOTATIONS>
1  10  8
1  18  8
10  16  8
11  17  8
11  20  8
14  16  8
15  17  8
15  21  8
20  23  8
21  23  8
6  10  8
6  12  8
6  9  8
7  14  8
7  9  8
8  12  8
8  18  8

$$$$
