10016895
 OpenBabel06101807152D

 34 36  0  0  0  0  0  0  0  0999 V2000
    6.4144    1.9377    0.0000 O   0  0  0  0  0  0  0  0  0  0  0  0
    4.6660   -2.0969    0.0000 O   0  0  0  0  0  0  0  0  0  0  0  0
    6.4144   -2.1315    0.0000 O   0  0  0  0  0  0  0  0  0  0  0  0
    2.9176    1.9377    0.0000 O   0  0  0  0  0  0  0  0  0  0  0  0
    8.1962    0.9273    0.0000 O   0  0  0  0  0  0  0  0  0  0  0  0
    4.6660    0.9031    0.0000 N   0  0  0  0  0  0  0  0  0  0  0  0
    5.5321    0.4031    0.0000 C   0  0  0  0  0  0  0  0  0  0  0  0
    3.8000    0.4031    0.0000 C   0  0  0  0  0  0  0  0  0  0  0  0
    5.5321   -0.5969    0.0000 C   0  0  0  0  0  0  0  0  0  0  0  0
    3.8000   -0.5969    0.0000 C   0  0  0  0  0  0  0  0  0  0  0  0
    4.6660   -1.0969    0.0000 C   0  0  0  0  0  0  0  0  0  0  0  0
    6.4260    0.9378    0.0000 C   0  0  0  0  0  0  0  0  0  0  0  0
    6.4260   -1.1316    0.0000 C   0  0  0  0  0  0  0  0  0  0  0  0
    2.9061    0.9378    0.0000 C   0  0  0  0  0  0  0  0  0  0  0  0
    4.6660    1.9031    0.0000 C   0  0  0  0  0  0  0  0  0  0  0  0
    2.9061   -1.1316    0.0000 C   0  0  0  0  0  0  0  0  0  0  0  0
    7.3321    0.4239    0.0000 C   0  0  0  0  0  0  0  0  0  0  0  0
    7.3321   -0.6177    0.0000 C   0  0  0  0  0  0  0  0  0  0  0  0
    2.0000    0.4239    0.0000 C   0  0  0  0  0  0  0  0  0  0  0  0
    2.0000   -0.6177    0.0000 C   0  0  0  0  0  0  0  0  0  0  0  0
    7.2746    2.4477    0.0000 C   0  0  0  0  0  0  0  0  0  0  0  0
    5.2860    1.9031    0.0000 H   0  0  0  0  0  0  0  0  0  0  0  0
    4.6660    2.5231    0.0000 H   0  0  0  0  0  0  0  0  0  0  0  0
    4.0460    1.9031    0.0000 H   0  0  0  0  0  0  0  0  0  0  0  0
    2.9132   -1.7515    0.0000 H   0  0  0  0  0  0  0  0  0  0  0  0
    7.8678   -0.9298    0.0000 H   0  0  0  0  0  0  0  0  0  0  0  0
    1.4643    0.7360    0.0000 H   0  0  0  0  0  0  0  0  0  0  0  0
    1.4643   -0.9298    0.0000 H   0  0  0  0  0  0  0  0  0  0  0  0
    6.9478   -2.4477    0.0000 H   0  0  0  0  0  0  0  0  0  0  0  0
    2.3843    2.2539    0.0000 H   0  0  0  0  0  0  0  0  0  0  0  0
    8.7343    0.6193    0.0000 H   0  0  0  0  0  0  0  0  0  0  0  0
    7.5908    1.9144    0.0000 H   0  0  0  0  0  0  0  0  0  0  0  0
    7.8079    2.7639    0.0000 H   0  0  0  0  0  0  0  0  0  0  0  0
    6.9584    2.9810    0.0000 H   0  0  0  0  0  0  0  0  0  0  0  0
  1 12  1  0  0  0  0
  1 21  1  0  0  0  0
  2 11  2  0  0  0  0
  3 13  1  0  0  0  0
  3 29  1  0  0  0  0
  4 14  1  0  0  0  0
  4 30  1  0  0  0  0
  5 17  1  0  0  0  0
  5 31  1  0  0  0  0
  6  7  1  0  0  0  0
  6  8  1  0  0  0  0
  6 15  1  0  0  0  0
  7  9  2  0  0  0  0
  7 12  1  0  0  0  0
  8 10  2  0  0  0  0
  8 14  1  0  0  0  0
  9 11  1  0  0  0  0
  9 13  1  0  0  0  0
 10 11  1  0  0  0  0
 10 16  1  0  0  0  0
 12 17  2  0  0  0  0
 13 18  2  0  0  0  0
 14 19  2  0  0  0  0
 15 22  1  0  0  0  0
 15 23  1  0  0  0  0
 15 24  1  0  0  0  0
 16 20  2  0  0  0  0
 16 25  1  0  0  0  0
 17 18  1  0  0  0  0
 18 26  1  0  0  0  0
 19 20  1  0  0  0  0
 19 27  1  0  0  0  0
 20 28  1  0  0  0  0
 21 32  1  0  0  0  0
 21 33  1  0  0  0  0
 21 34  1  0  0  0  0
M  END
>  <PUBCHEM_COMPOUND_CID>
10016895

>  <PUBCHEM_COMPOUND_CANONICALIZED>
1

>  <PUBCHEM_CACTVS_COMPLEXITY>
417

>  <PUBCHEM_CACTVS_HBOND_ACCEPTOR>
6

>  <PUBCHEM_CACTVS_HBOND_DONOR>
3

>  <PUBCHEM_CACTVS_ROTATABLE_BOND>
1

>  <PUBCHEM_CACTVS_SUBSKEYS>
AAADccByOAAAAAAAAAAAAAAAAAAAAAAAAAA8YIAAAAAAAACxQAAAHgAACAAADAyBmAYyxoMABgCIAqRSQACCCAAlIAAIiAEPzMgPJ37WtZuFcetn4B3b+cfa/PfOIQABCgAKUABCAAIUABSgAAAAAAAAAA==

>  <PUBCHEM_IUPAC_OPENEYE_NAME>
1,3,5-trihydroxy-4-methoxy-10-methyl-acridin-9-one

>  <PUBCHEM_IUPAC_CAS_NAME>
1,3,5-trihydroxy-4-methoxy-10-methyl-9-acridinone

>  <PUBCHEM_IUPAC_NAME>
1,3,5-trihydroxy-4-methoxy-10-methylacridin-9-one

>  <PUBCHEM_IUPAC_SYSTEMATIC_NAME>
4-methoxy-10-methyl-1,3,5-tris(oxidanyl)acridin-9-one

>  <PUBCHEM_IUPAC_TRADITIONAL_NAME>
1,3,5-trihydroxy-4-methoxy-10-methyl-acridin-9-one

>  <PUBCHEM_IUPAC_INCHI>
InChI=1S/C15H13NO5/c1-16-12-7(4-3-5-8(12)17)14(20)11-9(18)6-10(19)15(21-2)13(11)16/h3-6,17-19H,1-2H3

>  <PUBCHEM_IUPAC_INCHIKEY>
QEGXAAUCDUFHPJ-UHFFFAOYSA-N

>  <PUBCHEM_XLOGP3_AA>
2.6

>  <PUBCHEM_EXACT_MASS>
287.079

>  <PUBCHEM_MOLECULAR_FORMULA>
C15H13NO5

>  <PUBCHEM_MOLECULAR_WEIGHT>
287.271

>  <PUBCHEM_OPENEYE_CAN_SMILES>
CN1C2=C(C=CC=C2O)C(=O)C3=C1C(=C(C=C3O)O)OC

>  <PUBCHEM_OPENEYE_ISO_SMILES>
CN1C2=C(C=CC=C2O)C(=O)C3=C1C(=C(C=C3O)O)OC

>  <PUBCHEM_CACTVS_TPSA>
90.2

>  <PUBCHEM_MONOISOTOPIC_WEIGHT>
287.079

>  <PUBCHEM_TOTAL_CHARGE>
0

>  <PUBCHEM_HEAVY_ATOM_COUNT>
21

>  <PUBCHEM_ATOM_DEF_STEREO_COUNT>
0

>  <PUBCHEM_ATOM_UDEF_STEREO_COUNT>
0

>  <PUBCHEM_BOND_DEF_STEREO_COUNT>
0

>  <PUBCHEM_BOND_UDEF_STEREO_COUNT>
0

>  <PUBCHEM_ISOTOPIC_ATOM_COUNT>
0

>  <PUBCHEM_COMPONENT_COUNT>
1

>  <PUBCHEM_CACTVS_TAUTO_COUNT>
24

>  <PUBCHEM_COORDINATE_TYPE>
1
5
255

>  <PUBCHEM_BONDANNOTATIONS>
10  11  8
10  16  8
12  17  8
13  18  8
14  19  8
16  20  8
17  18  8
19  20  8
6  7  8
6  8  8
7  12  8
7  9  8
8  10  8
8  14  8
9  11  8
9  13  8

$$$$
