10021298
 OpenBabel06101807152D

 48 49  0  0  0  0  0  0  0  0999 V2000
    3.7320   -0.6550    0.0000 O   0  0  0  0  0  0  0  0  0  0  0  0
    7.1962   -0.6550    0.0000 O   0  0  0  0  0  0  0  0  0  0  0  0
    5.4641   -3.6550    0.0000 O   0  0  0  0  0  0  0  0  0  0  0  0
    7.1962    0.3450    0.0000 O   0  0  0  0  0  0  0  0  0  0  0  0
    8.0622    1.8450    0.0000 O   0  0  0  0  0  0  0  0  0  0  0  0
    6.3301    4.8450    0.0000 O   0  0  0  0  0  0  0  0  0  0  0  0
    5.4641   -0.6550    0.0000 C   0  0  0  0  0  0  0  0  0  0  0  0
    4.5981   -2.1550    0.0000 C   0  0  0  0  0  0  0  0  0  0  0  0
    4.5981   -1.1550    0.0000 C   0  0  0  0  0  0  0  0  0  0  0  0
    5.4641    0.3450    0.0000 C   0  0  0  0  0  0  0  0  0  0  0  0
    3.7320   -2.6550    0.0000 C   0  0  0  0  0  0  0  0  0  0  0  0
    6.3301   -1.1550    0.0000 C   0  0  0  0  0  0  0  0  0  0  0  0
    5.4641   -2.6550    0.0000 C   0  0  0  0  0  0  0  0  0  0  0  0
    6.3301   -2.1550    0.0000 C   0  0  0  0  0  0  0  0  0  0  0  0
    6.3301    0.8450    0.0000 C   0  0  0  0  0  0  0  0  0  0  0  0
    3.7320   -3.6550    0.0000 C   0  0  0  0  0  0  0  0  0  0  0  0
    6.3301    1.8450    0.0000 C   0  0  0  0  0  0  0  0  0  0  0  0
    2.8660   -4.1550    0.0000 C   0  0  0  0  0  0  0  0  0  0  0  0
    7.1962    2.3450    0.0000 C   0  0  0  0  0  0  0  0  0  0  0  0
    5.4641    2.3450    0.0000 C   0  0  0  0  0  0  0  0  0  0  0  0
    2.8660   -1.1550    0.0000 C   0  0  0  0  0  0  0  0  0  0  0  0
    2.8660   -5.1550    0.0000 C   0  0  0  0  0  0  0  0  0  0  0  0
    2.0000   -3.6550    0.0000 C   0  0  0  0  0  0  0  0  0  0  0  0
    7.1962    3.3450    0.0000 C   0  0  0  0  0  0  0  0  0  0  0  0
    5.4641    3.3450    0.0000 C   0  0  0  0  0  0  0  0  0  0  0  0
    6.3301    3.8450    0.0000 C   0  0  0  0  0  0  0  0  0  0  0  0
    5.2520    0.9276    0.0000 H   0  0  0  0  0  0  0  0  0  0  0  0
    4.8535    0.2373    0.0000 H   0  0  0  0  0  0  0  0  0  0  0  0
    3.5200   -2.0724    0.0000 H   0  0  0  0  0  0  0  0  0  0  0  0
    3.1215   -2.7627    0.0000 H   0  0  0  0  0  0  0  0  0  0  0  0
    6.8671   -2.4650    0.0000 H   0  0  0  0  0  0  0  0  0  0  0  0
    4.2690   -3.9650    0.0000 H   0  0  0  0  0  0  0  0  0  0  0  0
    4.9272    2.0350    0.0000 H   0  0  0  0  0  0  0  0  0  0  0  0
    7.7331   -0.9650    0.0000 H   0  0  0  0  0  0  0  0  0  0  0  0
    6.0010   -3.9650    0.0000 H   0  0  0  0  0  0  0  0  0  0  0  0
    2.2460   -5.1550    0.0000 H   0  0  0  0  0  0  0  0  0  0  0  0
    2.3100   -3.1181    0.0000 H   0  0  0  0  0  0  0  0  0  0  0  0
    1.4631   -3.3450    0.0000 H   0  0  0  0  0  0  0  0  0  0  0  0
    1.6900   -4.1919    0.0000 H   0  0  0  0  0  0  0  0  0  0  0  0
    2.8660   -5.7750    0.0000 H   0  0  0  0  0  0  0  0  0  0  0  0
    3.4860   -5.1550    0.0000 H   0  0  0  0  0  0  0  0  0  0  0  0
    2.5560   -0.6181    0.0000 H   0  0  0  0  0  0  0  0  0  0  0  0
    2.3291   -1.4650    0.0000 H   0  0  0  0  0  0  0  0  0  0  0  0
    3.1760   -1.6919    0.0000 H   0  0  0  0  0  0  0  0  0  0  0  0
    7.7331    3.6550    0.0000 H   0  0  0  0  0  0  0  0  0  0  0  0
    4.9272    3.6550    0.0000 H   0  0  0  0  0  0  0  0  0  0  0  0
    8.5991    2.1550    0.0000 H   0  0  0  0  0  0  0  0  0  0  0  0
    5.7932    5.1550    0.0000 H   0  0  0  0  0  0  0  0  0  0  0  0
  1  9  1  0  0  0  0
  1 21  1  0  0  0  0
  2 12  1  0  0  0  0
  2 34  1  0  0  0  0
  3 13  1  0  0  0  0
  3 35  1  0  0  0  0
  4 15  2  0  0  0  0
  5 19  1  0  0  0  0
  5 47  1  0  0  0  0
  6 26  1  0  0  0  0
  6 48  1  0  0  0  0
  7  9  1  0  0  0  0
  7 10  1  0  0  0  0
  7 12  2  0  0  0  0
  8  9  2  0  0  0  0
  8 11  1  0  0  0  0
  8 13  1  0  0  0  0
 10 15  1  0  0  0  0
 10 27  1  0  0  0  0
 10 28  1  0  0  0  0
 11 16  1  0  0  0  0
 11 29  1  0  0  0  0
 11 30  1  0  0  0  0
 12 14  1  0  0  0  0
 13 14  2  0  0  0  0
 14 31  1  0  0  0  0
 15 17  1  0  0  0  0
 16 18  2  0  0  0  0
 16 32  1  0  0  0  0
 17 19  2  0  0  0  0
 17 20  1  0  0  0  0
 18 22  1  0  0  0  0
 18 23  1  0  0  0  0
 19 24  1  0  0  0  0
 20 25  2  0  0  0  0
 20 33  1  0  0  0  0
 21 42  1  0  0  0  0
 21 43  1  0  0  0  0
 21 44  1  0  0  0  0
 22 36  1  0  0  0  0
 22 40  1  0  0  0  0
 22 41  1  0  0  0  0
 23 37  1  0  0  0  0
 23 38  1  0  0  0  0
 23 39  1  0  0  0  0
 24 26  2  0  0  0  0
 24 45  1  0  0  0  0
 25 26  1  0  0  0  0
 25 46  1  0  0  0  0
M  END
>  <PUBCHEM_COMPOUND_CID>
10021298

>  <PUBCHEM_COMPOUND_CANONICALIZED>
1

>  <PUBCHEM_CACTVS_COMPLEXITY>
501

>  <PUBCHEM_CACTVS_HBOND_ACCEPTOR>
6

>  <PUBCHEM_CACTVS_HBOND_DONOR>
4

>  <PUBCHEM_CACTVS_ROTATABLE_BOND>
6

>  <PUBCHEM_CACTVS_SUBSKEYS>
AAADceB4OAAAAAAAAAAAAAAAAAAAAAAAAAAwYAAAAAAAAAABQAAAGgAACAAADASAmAIyBoAABgCIAqBSAAACCAAkIAAIiAEGCMgMJzaGNRqAcWAl4BUIuYeK7PzOIAACCAAIAABAAAQQABAAAAAAAAAAAA==

>  <PUBCHEM_IUPAC_OPENEYE_NAME>
2-[4,6-dihydroxy-2-methoxy-3-(3-methylbut-2-enyl)phenyl]-1-(2,4-dihydroxyphenyl)ethanone

>  <PUBCHEM_IUPAC_CAS_NAME>
2-[4,6-dihydroxy-2-methoxy-3-(3-methylbut-2-enyl)phenyl]-1-(2,4-dihydroxyphenyl)ethanone

>  <PUBCHEM_IUPAC_NAME>
2-[4,6-dihydroxy-2-methoxy-3-(3-methylbut-2-enyl)phenyl]-1-(2,4-dihydroxyphenyl)ethanone

>  <PUBCHEM_IUPAC_SYSTEMATIC_NAME>
1-[2,4-bis(oxidanyl)phenyl]-2-[2-methoxy-3-(3-methylbut-2-enyl)-4,6-bis(oxidanyl)phenyl]ethanone

>  <PUBCHEM_IUPAC_TRADITIONAL_NAME>
2-[4,6-dihydroxy-2-methoxy-3-(3-methylbut-2-enyl)phenyl]-1-(2,4-dihydroxyphenyl)ethanone

>  <PUBCHEM_IUPAC_INCHI>
InChI=1S/C20H22O6/c1-11(2)4-6-14-18(24)10-19(25)15(20(14)26-3)9-17(23)13-7-5-12(21)8-16(13)22/h4-5,7-8,10,21-22,24-25H,6,9H2,1-3H3

>  <PUBCHEM_IUPAC_INCHIKEY>
JYRFVDHHGPHQBG-UHFFFAOYSA-N

>  <PUBCHEM_XLOGP3_AA>
4.2

>  <PUBCHEM_EXACT_MASS>
358.142

>  <PUBCHEM_MOLECULAR_FORMULA>
C20H22O6

>  <PUBCHEM_MOLECULAR_WEIGHT>
358.39

>  <PUBCHEM_OPENEYE_CAN_SMILES>
CC(=CCC1=C(C(=C(C=C1O)O)CC(=O)C2=C(C=C(C=C2)O)O)OC)C

>  <PUBCHEM_OPENEYE_ISO_SMILES>
CC(=CCC1=C(C(=C(C=C1O)O)CC(=O)C2=C(C=C(C=C2)O)O)OC)C

>  <PUBCHEM_CACTVS_TPSA>
107

>  <PUBCHEM_MONOISOTOPIC_WEIGHT>
358.142

>  <PUBCHEM_TOTAL_CHARGE>
0

>  <PUBCHEM_HEAVY_ATOM_COUNT>
26

>  <PUBCHEM_ATOM_DEF_STEREO_COUNT>
0

>  <PUBCHEM_ATOM_UDEF_STEREO_COUNT>
0

>  <PUBCHEM_BOND_DEF_STEREO_COUNT>
0

>  <PUBCHEM_BOND_UDEF_STEREO_COUNT>
0

>  <PUBCHEM_ISOTOPIC_ATOM_COUNT>
0

>  <PUBCHEM_COMPONENT_COUNT>
1

>  <PUBCHEM_CACTVS_TAUTO_COUNT>
771

>  <PUBCHEM_COORDINATE_TYPE>
1
5
255

>  <PUBCHEM_BONDANNOTATIONS>
12  14  8
13  14  8
17  19  8
17  20  8
19  24  8
20  25  8
24  26  8
25  26  8
7  12  8
7  9  8
8  13  8
8  9  8

$$$$
