10031891
 OpenBabel06101807152D

 71 75  0  0  1  0  0  0  0  0999 V2000
   10.6603   -1.2857    0.0000 O   0  0  0  0  0  0  0  0  0  0  0  0
   12.3923   -1.2857    0.0000 O   0  0  0  0  0  0  0  0  0  0  0  0
    8.9282   -3.2857    0.0000 O   0  0  0  0  0  0  0  0  0  0  0  0
   10.6603   -4.2857    0.0000 O   0  0  0  0  0  0  0  0  0  0  0  0
   12.3923   -3.2857    0.0000 O   0  0  0  0  0  0  0  0  0  0  0  0
    8.0622   -1.7857    0.0000 O   0  0  0  0  0  0  0  0  0  0  0  0
   13.2583    1.2143    0.0000 O   0  0  0  0  0  0  0  0  0  0  0  0
   10.6603   -0.2857    0.0000 O   0  0  0  0  0  0  0  0  0  0  0  0
    7.1962   -0.2857    0.0000 O   0  0  0  0  0  0  0  0  0  0  0  0
    9.7561    1.2112    0.0000 O   0  0  0  0  0  0  0  0  0  0  0  0
   11.5142    4.2836    0.0000 O   0  0  0  0  0  0  0  0  0  0  0  0
   16.7224    0.2143    0.0000 O   0  0  0  0  0  0  0  0  0  0  0  0
   16.7224   -1.7857    0.0000 O   0  0  0  0  0  0  0  0  0  0  0  0
    2.0000   -1.2857    0.0000 O   0  0  0  0  0  0  0  0  0  0  0  0
    2.0000   -3.2857    0.0000 O   0  0  0  0  0  0  0  0  0  0  0  0
    9.7942   -2.7857    0.0000 C   0  0  1  0  0  0  0  0  0  0  0  0
   10.6603   -3.2857    0.0000 C   0  0  1  0  0  0  0  0  0  0  0  0
    9.7942   -1.7857    0.0000 C   0  0  1  0  0  0  0  0  0  0  0  0
   11.5263   -2.7857    0.0000 C   0  0  2  0  0  0  0  0  0  0  0  0
   11.5263   -1.7857    0.0000 C   0  0  1  0  0  0  0  0  0  0  0  0
    8.9282   -1.2857    0.0000 C   0  0  0  0  0  0  0  0  0  0  0  0
   12.3923   -0.2857    0.0000 C   0  0  0  0  0  0  0  0  0  0  0  0
   13.2583    0.2143    0.0000 C   0  0  0  0  0  0  0  0  0  0  0  0
   11.5263    0.2143    0.0000 C   0  0  0  0  0  0  0  0  0  0  0  0
   11.5263    1.2143    0.0000 C   0  0  0  0  0  0  0  0  0  0  0  0
    7.1962   -1.2857    0.0000 C   0  0  0  0  0  0  0  0  0  0  0  0
   12.3923    1.7143    0.0000 C   0  0  0  0  0  0  0  0  0  0  0  0
   14.1244   -0.2857    0.0000 C   0  0  0  0  0  0  0  0  0  0  0  0
   10.6163    1.7212    0.0000 C   0  0  0  0  0  0  0  0  0  0  0  0
   12.4084    2.7558    0.0000 C   0  0  0  0  0  0  0  0  0  0  0  0
   14.9904    0.2143    0.0000 C   0  0  0  0  0  0  0  0  0  0  0  0
    6.3301   -1.7857    0.0000 C   0  0  0  0  0  0  0  0  0  0  0  0
   14.1244   -1.2857    0.0000 C   0  0  0  0  0  0  0  0  0  0  0  0
   10.6082    2.7628    0.0000 C   0  0  0  0  0  0  0  0  0  0  0  0
   11.5103    3.2836    0.0000 C   0  0  0  0  0  0  0  0  0  0  0  0
   15.8564   -0.2857    0.0000 C   0  0  0  0  0  0  0  0  0  0  0  0
   14.9904   -1.7857    0.0000 C   0  0  0  0  0  0  0  0  0  0  0  0
   15.8564   -1.2857    0.0000 C   0  0  0  0  0  0  0  0  0  0  0  0
    5.4641   -1.2857    0.0000 C   0  0  0  0  0  0  0  0  0  0  0  0
    4.5981   -1.7857    0.0000 C   0  0  0  0  0  0  0  0  0  0  0  0
    3.7320   -1.2857    0.0000 C   0  0  0  0  0  0  0  0  0  0  0  0
    4.5981   -2.7857    0.0000 C   0  0  0  0  0  0  0  0  0  0  0  0
    2.8660   -1.7857    0.0000 C   0  0  0  0  0  0  0  0  0  0  0  0
    3.7320   -3.2857    0.0000 C   0  0  0  0  0  0  0  0  0  0  0  0
    2.8660   -2.7857    0.0000 C   0  0  0  0  0  0  0  0  0  0  0  0
    9.2573   -2.4757    0.0000 H   0  0  0  0  0  0  0  0  0  0  0  0
   11.1972   -3.5957    0.0000 H   0  0  0  0  0  0  0  0  0  0  0  0
    9.7942   -1.1657    0.0000 H   0  0  0  0  0  0  0  0  0  0  0  0
   12.0632   -2.4757    0.0000 H   0  0  0  0  0  0  0  0  0  0  0  0
   11.5263   -1.1657    0.0000 H   0  0  0  0  0  0  0  0  0  0  0  0
    9.3267   -0.8107    0.0000 H   0  0  0  0  0  0  0  0  0  0  0  0
    8.5297   -0.8107    0.0000 H   0  0  0  0  0  0  0  0  0  0  0  0
    8.9282   -3.9057    0.0000 H   0  0  0  0  0  0  0  0  0  0  0  0
   10.1233   -4.5957    0.0000 H   0  0  0  0  0  0  0  0  0  0  0  0
   12.3923   -3.9057    0.0000 H   0  0  0  0  0  0  0  0  0  0  0  0
   12.9488    3.0596    0.0000 H   0  0  0  0  0  0  0  0  0  0  0  0
   14.9904    0.8343    0.0000 H   0  0  0  0  0  0  0  0  0  0  0  0
   13.5874   -1.5957    0.0000 H   0  0  0  0  0  0  0  0  0  0  0  0
    6.3301   -2.4057    0.0000 H   0  0  0  0  0  0  0  0  0  0  0  0
   10.0701    3.0707    0.0000 H   0  0  0  0  0  0  0  0  0  0  0  0
   14.9904   -2.4057    0.0000 H   0  0  0  0  0  0  0  0  0  0  0  0
    5.4641   -0.6657    0.0000 H   0  0  0  0  0  0  0  0  0  0  0  0
    9.2156    1.5150    0.0000 H   0  0  0  0  0  0  0  0  0  0  0  0
   10.9784    4.5957    0.0000 H   0  0  0  0  0  0  0  0  0  0  0  0
   16.7224    0.8343    0.0000 H   0  0  0  0  0  0  0  0  0  0  0  0
   16.7224   -2.4057    0.0000 H   0  0  0  0  0  0  0  0  0  0  0  0
    3.7320   -0.6657    0.0000 H   0  0  0  0  0  0  0  0  0  0  0  0
    5.1350   -3.0957    0.0000 H   0  0  0  0  0  0  0  0  0  0  0  0
    3.7320   -3.9057    0.0000 H   0  0  0  0  0  0  0  0  0  0  0  0
    2.0000   -0.6657    0.0000 H   0  0  0  0  0  0  0  0  0  0  0  0
    2.0000   -3.9057    0.0000 H   0  0  0  0  0  0  0  0  0  0  0  0
  1 18  1  0  0  0  0
  1 20  1  0  0  0  0
  2 22  1  0  0  0  0
  3 53  1  0  0  0  0
  4 54  1  0  0  0  0
  5 55  1  0  0  0  0
  6 21  1  0  0  0  0
  6 26  1  0  0  0  0
  7 23  1  0  0  0  0
  7 27  1  0  0  0  0
  8 24  2  0  0  0  0
  9 26  2  0  0  0  0
 10 29  1  0  0  0  0
 10 63  1  0  0  0  0
 11 35  1  0  0  0  0
 11 64  1  0  0  0  0
 12 36  1  0  0  0  0
 12 65  1  0  0  0  0
 13 38  1  0  0  0  0
 13 66  1  0  0  0  0
 14 43  1  0  0  0  0
 14 70  1  0  0  0  0
 15 45  1  0  0  0  0
 15 71  1  0  0  0  0
 16  3  1  0  0  0  0
 16 17  1  1  0  0  0
 16 46  1  0  0  0  0
 17  4  1  0  0  0  0
 17 19  1  1  0  0  0
 17 47  1  0  0  0  0
 18 16  1  6  0  0  0
 18 21  1  0  0  0  0
 18 48  1  0  0  0  0
 19  5  1  0  0  0  0
 19 20  1  6  0  0  0
 19 49  1  0  0  0  0
 20  2  1  0  0  0  0
 20 50  1  6  0  0  0
 21 51  1  0  0  0  0
 21 52  1  0  0  0  0
 22 23  2  0  0  0  0
 22 24  1  0  0  0  0
 23 28  1  0  0  0  0
 24 25  1  0  0  0  0
 25 27  1  0  0  0  0
 25 29  2  0  0  0  0
 26 32  1  0  0  0  0
 27 30  2  0  0  0  0
 28 31  2  0  0  0  0
 28 33  1  0  0  0  0
 29 34  1  0  0  0  0
 30 35  1  0  0  0  0
 30 56  1  0  0  0  0
 31 36  1  0  0  0  0
 31 57  1  0  0  0  0
 32 39  2  0  0  0  0
 32 59  1  0  0  0  0
 33 37  2  0  0  0  0
 33 58  1  0  0  0  0
 34 35  2  0  0  0  0
 34 60  1  0  0  0  0
 36 38  2  0  0  0  0
 37 38  1  0  0  0  0
 37 61  1  0  0  0  0
 39 40  1  0  0  0  0
 39 62  1  0  0  0  0
 40 41  2  0  0  0  0
 40 42  1  0  0  0  0
 41 43  1  0  0  0  0
 41 67  1  0  0  0  0
 42 44  2  0  0  0  0
 42 68  1  0  0  0  0
 43 45  2  0  0  0  0
 44 45  1  0  0  0  0
 44 69  1  0  0  0  0
M  END
>  <PUBCHEM_COMPOUND_CID>
10031891

>  <PUBCHEM_COMPOUND_CANONICALIZED>
1

>  <PUBCHEM_CACTVS_COMPLEXITY>
1130

>  <PUBCHEM_CACTVS_HBOND_ACCEPTOR>
15

>  <PUBCHEM_CACTVS_HBOND_DONOR>
9

>  <PUBCHEM_CACTVS_ROTATABLE_BOND>
8

>  <PUBCHEM_CACTVS_SUBSKEYS>
AAADceB4PAAAAAAAAAAAAAAAAAAAAAAAAAA0YMECAAAAAACBUAAAGgAACAAADBSwmAMwDoAABgCIAqDSCAICCAAkIAAIiAFGiMgdNzaGNR6ieWGl4BUPuYfI7LzOIAABCAAIQABAAAIQABCAAAAAAAAAAA==

>  <PUBCHEM_IUPAC_OPENEYE_NAME>
[(2R,3S,4S,5R,6S)-6-[2-(3,4-dihydroxyphenyl)-5,7-dihydroxy-4-oxo-chromen-3-yl]oxy-3,4,5-trihydroxy-tetrahydropyran-2-yl]methyl (E)-3-(3,4-dihydroxyphenyl)prop-2-enoate

>  <PUBCHEM_IUPAC_CAS_NAME>
(E)-3-(3,4-dihydroxyphenyl)-2-propenoic acid [(2R,3S,4S,5R,6S)-6-[[2-(3,4-dihydroxyphenyl)-5,7-dihydroxy-4-oxo-1-benzopyran-3-yl]oxy]-3,4,5-trihydroxy-2-oxanyl]methyl ester

>  <PUBCHEM_IUPAC_NAME>
[(2R,3S,4S,5R,6S)-6-[2-(3,4-dihydroxyphenyl)-5,7-dihydroxy-4-oxochromen-3-yl]oxy-3,4,5-trihydroxyoxan-2-yl]methyl (E)-3-(3,4-dihydroxyphenyl)prop-2-enoate

>  <PUBCHEM_IUPAC_SYSTEMATIC_NAME>
[(2R,3S,4S,5R,6S)-6-[2-[3,4-bis(oxidanyl)phenyl]-5,7-bis(oxidanyl)-4-oxidanylidene-chromen-3-yl]oxy-3,4,5-tris(oxidanyl)oxan-2-yl]methyl (E)-3-[3,4-bis(oxidanyl)phenyl]prop-2-enoate

>  <PUBCHEM_IUPAC_TRADITIONAL_NAME>
(E)-3-(3,4-dihydroxyphenyl)acrylic acid [(2R,3S,4S,5R,6S)-6-[2-(3,4-dihydroxyphenyl)-5,7-dihydroxy-4-keto-chromen-3-yl]oxy-3,4,5-trihydroxy-tetrahydropyran-2-yl]methyl ester

>  <PUBCHEM_IUPAC_INCHI>
InChI=1S/C30H26O15/c31-14-9-19(36)23-20(10-14)43-28(13-3-5-16(33)18(35)8-13)29(25(23)39)45-30-27(41)26(40)24(38)21(44-30)11-42-22(37)6-2-12-1-4-15(32)17(34)7-12/h1-10,21,24,26-27,30-36,38,40-41H,11H2/b6-2+/t21-,24-,26+,27-,30+/m1/s1

>  <PUBCHEM_IUPAC_INCHIKEY>
IHBVMUCQCZEAPW-PFNFWJRHSA-N

>  <PUBCHEM_XLOGP3_AA>
1.8

>  <PUBCHEM_EXACT_MASS>
626.127

>  <PUBCHEM_MOLECULAR_FORMULA>
C30H26O15

>  <PUBCHEM_MOLECULAR_WEIGHT>
626.523

>  <PUBCHEM_OPENEYE_CAN_SMILES>
C1=CC(=C(C=C1C=CC(=O)OCC2C(C(C(C(O2)OC3=C(OC4=CC(=CC(=C4C3=O)O)O)C5=CC(=C(C=C5)O)O)O)O)O)O)O

>  <PUBCHEM_OPENEYE_ISO_SMILES>
C1=CC(=C(C=C1/C=C/C(=O)OC[C@@H]2[C@H]([C@@H]([C@H]([C@@H](O2)OC3=C(OC4=CC(=CC(=C4C3=O)O)O)C5=CC(=C(C=C5)O)O)O)O)O)O)O

>  <PUBCHEM_CACTVS_TPSA>
253

>  <PUBCHEM_MONOISOTOPIC_WEIGHT>
626.127

>  <PUBCHEM_TOTAL_CHARGE>
0

>  <PUBCHEM_HEAVY_ATOM_COUNT>
45

>  <PUBCHEM_ATOM_DEF_STEREO_COUNT>
5

>  <PUBCHEM_ATOM_UDEF_STEREO_COUNT>
0

>  <PUBCHEM_BOND_DEF_STEREO_COUNT>
1

>  <PUBCHEM_BOND_UDEF_STEREO_COUNT>
0

>  <PUBCHEM_ISOTOPIC_ATOM_COUNT>
0

>  <PUBCHEM_COMPONENT_COUNT>
1

>  <PUBCHEM_CACTVS_TAUTO_COUNT>
994

>  <PUBCHEM_COORDINATE_TYPE>
1
5
255

>  <PUBCHEM_BONDANNOTATIONS>
18  21  5
20  2  5
22  23  8
22  24  8
24  25  8
25  27  8
25  29  8
27  30  8
28  31  8
28  33  8
29  34  8
16  3  6
30  35  8
31  36  8
33  37  8
34  35  8
36  38  8
37  38  8
17  4  5
40  41  8
40  42  8
41  43  8
42  44  8
43  45  8
44  45  8
19  5  6
7  23  8
7  27  8

$$$$
