10043694
 OpenBabel06101807152D

 48 50  0  0  0  0  0  0  0  0999 V2000
    7.3424    0.8047    0.0000 O   0  0  0  0  0  0  0  0  0  0  0  0
    5.5301   -2.0000    0.0000 O   0  0  0  0  0  0  0  0  0  0  0  0
    5.5301    2.0000    0.0000 O   0  0  0  0  0  0  0  0  0  0  0  0
    3.7702    1.0347    0.0000 O   0  0  0  0  0  0  0  0  0  0  0  0
    2.0000    1.0241    0.0000 O   0  0  0  0  0  0  0  0  0  0  0  0
    6.3961   -0.5000    0.0000 C   0  0  0  0  0  0  0  0  0  0  0  0
    4.6641   -0.5000    0.0000 C   0  0  0  0  0  0  0  0  0  0  0  0
    5.5301   -1.0000    0.0000 C   0  0  0  0  0  0  0  0  0  0  0  0
    6.3961    0.5000    0.0000 C   0  0  0  0  0  0  0  0  0  0  0  0
    5.5301    1.0000    0.0000 C   0  0  0  0  0  0  0  0  0  0  0  0
    4.6641    0.5000    0.0000 C   0  0  0  0  0  0  0  0  0  0  0  0
    7.3424   -0.8047    0.0000 C   0  0  0  0  0  0  0  0  0  0  0  0
    3.7702   -1.0347    0.0000 C   0  0  0  0  0  0  0  0  0  0  0  0
    7.9260    0.0000    0.0000 C   0  0  0  0  0  0  0  0  0  0  0  0
    6.3961   -2.5000    0.0000 C   0  0  0  0  0  0  0  0  0  0  0  0
    2.8641   -0.5208    0.0000 C   0  0  0  0  0  0  0  0  0  0  0  0
    6.3961    2.5000    0.0000 C   0  0  0  0  0  0  0  0  0  0  0  0
    2.8641    0.5208    0.0000 C   0  0  0  0  0  0  0  0  0  0  0  0
    6.3961   -3.5000    0.0000 C   0  0  0  0  0  0  0  0  0  0  0  0
    6.3961    3.5000    0.0000 C   0  0  0  0  0  0  0  0  0  0  0  0
    7.2622   -4.0000    0.0000 C   0  0  0  0  0  0  0  0  0  0  0  0
    7.2622    4.0000    0.0000 C   0  0  0  0  0  0  0  0  0  0  0  0
    7.2622   -5.0000    0.0000 C   0  0  0  0  0  0  0  0  0  0  0  0
    8.1282   -3.5000    0.0000 C   0  0  0  0  0  0  0  0  0  0  0  0
    7.2622    5.0000    0.0000 C   0  0  0  0  0  0  0  0  0  0  0  0
    8.1282    3.5000    0.0000 C   0  0  0  0  0  0  0  0  0  0  0  0
    7.5350   -1.3940    0.0000 H   0  0  0  0  0  0  0  0  0  0  0  0
    3.7773   -1.6546    0.0000 H   0  0  0  0  0  0  0  0  0  0  0  0
    8.5460    0.0000    0.0000 H   0  0  0  0  0  0  0  0  0  0  0  0
    7.0067   -2.6077    0.0000 H   0  0  0  0  0  0  0  0  0  0  0  0
    6.6082   -1.9174    0.0000 H   0  0  0  0  0  0  0  0  0  0  0  0
    2.3284   -0.8329    0.0000 H   0  0  0  0  0  0  0  0  0  0  0  0
    6.6082    1.9174    0.0000 H   0  0  0  0  0  0  0  0  0  0  0  0
    7.0067    2.6077    0.0000 H   0  0  0  0  0  0  0  0  0  0  0  0
    5.8592   -3.8100    0.0000 H   0  0  0  0  0  0  0  0  0  0  0  0
    5.8592    3.8100    0.0000 H   0  0  0  0  0  0  0  0  0  0  0  0
    8.4382   -4.0369    0.0000 H   0  0  0  0  0  0  0  0  0  0  0  0
    8.6651   -3.1900    0.0000 H   0  0  0  0  0  0  0  0  0  0  0  0
    7.8182   -2.9631    0.0000 H   0  0  0  0  0  0  0  0  0  0  0  0
    6.6422   -5.0000    0.0000 H   0  0  0  0  0  0  0  0  0  0  0  0
    7.2622   -5.6200    0.0000 H   0  0  0  0  0  0  0  0  0  0  0  0
    7.8822   -5.0000    0.0000 H   0  0  0  0  0  0  0  0  0  0  0  0
    7.8822    5.0000    0.0000 H   0  0  0  0  0  0  0  0  0  0  0  0
    7.2622    5.6200    0.0000 H   0  0  0  0  0  0  0  0  0  0  0  0
    6.6422    5.0000    0.0000 H   0  0  0  0  0  0  0  0  0  0  0  0
    7.8182    2.9631    0.0000 H   0  0  0  0  0  0  0  0  0  0  0  0
    8.6651    3.1900    0.0000 H   0  0  0  0  0  0  0  0  0  0  0  0
    8.4382    4.0369    0.0000 H   0  0  0  0  0  0  0  0  0  0  0  0
  1  9  1  0  0  0  0
  1 14  1  0  0  0  0
  2  8  1  0  0  0  0
  2 15  1  0  0  0  0
  3 10  1  0  0  0  0
  3 17  1  0  0  0  0
  4 11  1  0  0  0  0
  4 18  1  0  0  0  0
  5 18  2  0  0  0  0
  6  8  2  0  0  0  0
  6  9  1  0  0  0  0
  6 12  1  0  0  0  0
  7  8  1  0  0  0  0
  7 11  2  0  0  0  0
  7 13  1  0  0  0  0
  9 10  2  0  0  0  0
 10 11  1  0  0  0  0
 12 14  2  0  0  0  0
 12 27  1  0  0  0  0
 13 16  2  0  0  0  0
 13 28  1  0  0  0  0
 14 29  1  0  0  0  0
 15 19  1  0  0  0  0
 15 30  1  0  0  0  0
 15 31  1  0  0  0  0
 16 18  1  0  0  0  0
 16 32  1  0  0  0  0
 17 20  1  0  0  0  0
 17 33  1  0  0  0  0
 17 34  1  0  0  0  0
 19 21  2  0  0  0  0
 19 35  1  0  0  0  0
 20 22  2  0  0  0  0
 20 36  1  0  0  0  0
 21 23  1  0  0  0  0
 21 24  1  0  0  0  0
 22 25  1  0  0  0  0
 22 26  1  0  0  0  0
 23 40  1  0  0  0  0
 23 41  1  0  0  0  0
 23 42  1  0  0  0  0
 24 37  1  0  0  0  0
 24 38  1  0  0  0  0
 24 39  1  0  0  0  0
 25 43  1  0  0  0  0
 25 44  1  0  0  0  0
 25 45  1  0  0  0  0
 26 46  1  0  0  0  0
 26 47  1  0  0  0  0
 26 48  1  0  0  0  0
M  END
>  <PUBCHEM_COMPOUND_CID>
10043694

>  <PUBCHEM_COMPOUND_CANONICALIZED>
1

>  <PUBCHEM_CACTVS_COMPLEXITY>
598

>  <PUBCHEM_CACTVS_HBOND_ACCEPTOR>
5

>  <PUBCHEM_CACTVS_HBOND_DONOR>
0

>  <PUBCHEM_CACTVS_ROTATABLE_BOND>
6

>  <PUBCHEM_CACTVS_SUBSKEYS>
AAADceB4OAAAAAAAAAAAAAAAAAAAASAAAAAwQAAAAAAAAEiB8AAAGgAAAAAADASgmAIyDsAABECIAqjSiAICCAAkIAAIiAFGiMgNJzaENR6CO2Kl4BUKqYfK7PzOIQADCAAIQABCAAYQABCAAAAAAAAAAA==

>  <PUBCHEM_IUPAC_OPENEYE_NAME>
4,9-bis(3-methylbut-2-enoxy)furo[3,2-g]chromen-7-one

>  <PUBCHEM_IUPAC_CAS_NAME>
4,9-bis(3-methylbut-2-enoxy)-7-furo[3,2-g][1]benzopyranone

>  <PUBCHEM_IUPAC_NAME>
4,9-bis(3-methylbut-2-enoxy)furo[3,2-g]chromen-7-one

>  <PUBCHEM_IUPAC_SYSTEMATIC_NAME>
4,9-bis(3-methylbut-2-enoxy)furo[3,2-g]chromen-7-one

>  <PUBCHEM_IUPAC_TRADITIONAL_NAME>
4,9-bis(3-methylbut-2-enoxy)furo[3,2-g]chromen-7-one

>  <PUBCHEM_IUPAC_INCHI>
InChI=1S/C21H22O5/c1-13(2)7-10-23-18-15-5-6-17(22)26-20(15)21(25-11-8-14(3)4)19-16(18)9-12-24-19/h5-9,12H,10-11H2,1-4H3

>  <PUBCHEM_IUPAC_INCHIKEY>
HJMDOAWWVCOEDW-UHFFFAOYSA-N

>  <PUBCHEM_XLOGP3_AA>
5.3

>  <PUBCHEM_EXACT_MASS>
354.147

>  <PUBCHEM_MOLECULAR_FORMULA>
C21H22O5

>  <PUBCHEM_MOLECULAR_WEIGHT>
354.402

>  <PUBCHEM_OPENEYE_CAN_SMILES>
CC(=CCOC1=C2C=COC2=C(C3=C1C=CC(=O)O3)OCC=C(C)C)C

>  <PUBCHEM_OPENEYE_ISO_SMILES>
CC(=CCOC1=C2C=COC2=C(C3=C1C=CC(=O)O3)OCC=C(C)C)C

>  <PUBCHEM_CACTVS_TPSA>
57.9

>  <PUBCHEM_MONOISOTOPIC_WEIGHT>
354.147

>  <PUBCHEM_TOTAL_CHARGE>
0

>  <PUBCHEM_HEAVY_ATOM_COUNT>
26

>  <PUBCHEM_ATOM_DEF_STEREO_COUNT>
0

>  <PUBCHEM_ATOM_UDEF_STEREO_COUNT>
0

>  <PUBCHEM_BOND_DEF_STEREO_COUNT>
0

>  <PUBCHEM_BOND_UDEF_STEREO_COUNT>
0

>  <PUBCHEM_ISOTOPIC_ATOM_COUNT>
0

>  <PUBCHEM_COMPONENT_COUNT>
1

>  <PUBCHEM_CACTVS_TAUTO_COUNT>
1

>  <PUBCHEM_COORDINATE_TYPE>
1
5
255

>  <PUBCHEM_BONDANNOTATIONS>
1  14  8
1  9  8
10  11  8
12  14  8
13  16  8
16  18  8
4  11  8
4  18  8
6  12  8
6  8  8
6  9  8
7  11  8
7  13  8
7  8  8
9  10  8

$$$$
