10048103
 OpenBabel06101807152D

 57 60  0  0  1  0  0  0  0  0999 V2000
    9.9953   -2.2829    0.0000 O   0  0  0  0  0  0  0  0  0  0  0  0
   11.8031   -0.1593    0.0000 O   0  0  0  0  0  0  0  0  0  0  0  0
    6.3981   -2.2052    0.0000 O   0  0  0  0  0  0  0  0  0  0  0  0
    8.1465    0.8294    0.0000 O   0  0  0  0  0  0  0  0  0  0  0  0
    6.3981    0.7948    0.0000 O   0  0  0  0  0  0  0  0  0  0  0  0
    2.8680   -0.1810    0.0000 O   0  0  0  0  0  0  0  0  0  0  0  0
    2.8680   -2.2293    0.0000 O   0  0  0  0  0  0  0  0  0  0  0  0
   10.9391   -1.7477    0.0000 C   0  0  0  0  0  0  0  0  0  0  0  0
   10.9391   -0.6627    0.0000 C   0  0  3  0  0  0  0  0  0  0  0  0
    9.9953   -0.1274    0.0000 C   0  0  0  0  0  0  0  0  0  0  0  0
    9.0641   -0.6844    0.0000 C   0  0  0  0  0  0  0  0  0  0  0  0
    9.0641   -1.7260    0.0000 C   0  0  0  0  0  0  0  0  0  0  0  0
   11.9390   -1.7515    0.0000 C   0  0  0  0  0  0  0  0  0  0  0  0
   11.4357   -2.6156    0.0000 C   0  0  0  0  0  0  0  0  0  0  0  0
    8.1580   -0.1705    0.0000 C   0  0  0  0  0  0  0  0  0  0  0  0
    7.2641   -0.7052    0.0000 C   0  0  0  0  0  0  0  0  0  0  0  0
    8.1580   -2.2398    0.0000 C   0  0  0  0  0  0  0  0  0  0  0  0
    7.2641   -1.7052    0.0000 C   0  0  0  0  0  0  0  0  0  0  0  0
    6.3981   -0.2052    0.0000 C   0  0  0  0  0  0  0  0  0  0  0  0
    5.5320   -0.7052    0.0000 C   0  0  0  0  0  0  0  0  0  0  0  0
    5.5320   -1.7052    0.0000 C   0  0  0  0  0  0  0  0  0  0  0  0
    4.6381   -0.1705    0.0000 C   0  0  0  0  0  0  0  0  0  0  0  0
    4.6497    0.8294    0.0000 C   0  0  0  0  0  0  0  0  0  0  0  0
    3.7320   -0.6844    0.0000 C   0  0  0  0  0  0  0  0  0  0  0  0
    4.6381   -2.2398    0.0000 C   0  0  0  0  0  0  0  0  0  0  0  0
    3.7320   -1.7260    0.0000 C   0  0  0  0  0  0  0  0  0  0  0  0
    3.7895    1.3394    0.0000 C   0  0  0  0  0  0  0  0  0  0  0  0
    3.8010    2.3393    0.0000 C   0  0  0  0  0  0  0  0  0  0  0  0
    2.0000   -0.6777    0.0000 C   0  0  0  0  0  0  0  0  0  0  0  0
    2.9409    2.8493    0.0000 C   0  0  0  0  0  0  0  0  0  0  0  0
    4.6728    2.8293    0.0000 C   0  0  0  0  0  0  0  0  0  0  0  0
   11.4766   -0.9716    0.0000 H   0  0  0  0  0  0  0  0  0  0  0  0
   10.3889    0.3516    0.0000 H   0  0  0  0  0  0  0  0  0  0  0  0
    9.5907    0.3424    0.0000 H   0  0  0  0  0  0  0  0  0  0  0  0
   11.9367   -2.3715    0.0000 H   0  0  0  0  0  0  0  0  0  0  0  0
   12.5590   -1.7539    0.0000 H   0  0  0  0  0  0  0  0  0  0  0  0
   11.9414   -1.1315    0.0000 H   0  0  0  0  0  0  0  0  0  0  0  0
   10.8976   -2.9235    0.0000 H   0  0  0  0  0  0  0  0  0  0  0  0
   11.7436   -3.1537    0.0000 H   0  0  0  0  0  0  0  0  0  0  0  0
   11.9738   -2.3077    0.0000 H   0  0  0  0  0  0  0  0  0  0  0  0
    8.1509   -2.8598    0.0000 H   0  0  0  0  0  0  0  0  0  0  0  0
   11.8008    0.4607    0.0000 H   0  0  0  0  0  0  0  0  0  0  0  0
    8.6798    1.1456    0.0000 H   0  0  0  0  0  0  0  0  0  0  0  0
    5.2590    0.7147    0.0000 H   0  0  0  0  0  0  0  0  0  0  0  0
    4.8684    1.4095    0.0000 H   0  0  0  0  0  0  0  0  0  0  0  0
    4.6453   -2.8598    0.0000 H   0  0  0  0  0  0  0  0  0  0  0  0
    3.2490    1.0356    0.0000 H   0  0  0  0  0  0  0  0  0  0  0  0
    2.8703   -2.8493    0.0000 H   0  0  0  0  0  0  0  0  0  0  0  0
    1.6921   -0.1396    0.0000 H   0  0  0  0  0  0  0  0  0  0  0  0
    1.4619   -0.9856    0.0000 H   0  0  0  0  0  0  0  0  0  0  0  0
    2.3079   -1.2158    0.0000 H   0  0  0  0  0  0  0  0  0  0  0  0
    3.2570    3.3826    0.0000 H   0  0  0  0  0  0  0  0  0  0  0  0
    4.9766    2.2888    0.0000 H   0  0  0  0  0  0  0  0  0  0  0  0
    5.2133    3.1331    0.0000 H   0  0  0  0  0  0  0  0  0  0  0  0
    4.3690    3.3698    0.0000 H   0  0  0  0  0  0  0  0  0  0  0  0
    2.4075    3.1655    0.0000 H   0  0  0  0  0  0  0  0  0  0  0  0
    2.6247    2.3160    0.0000 H   0  0  0  0  0  0  0  0  0  0  0  0
  1  8  1  0  0  0  0
  1 12  1  0  0  0  0
  2  9  1  0  0  0  0
  2 42  1  0  0  0  0
  3 18  1  0  0  0  0
  3 21  1  0  0  0  0
  4 15  1  0  0  0  0
  4 43  1  0  0  0  0
  5 19  2  0  0  0  0
  6 24  1  0  0  0  0
  6 29  1  0  0  0  0
  7 26  1  0  0  0  0
  7 48  1  0  0  0  0
  8  9  1  0  0  0  0
  8 13  1  0  0  0  0
  8 14  1  0  0  0  0
  9 10  1  0  0  0  0
  9 32  1  0  0  0  0
 10 11  1  0  0  0  0
 10 33  1  0  0  0  0
 10 34  1  0  0  0  0
 11 12  2  0  0  0  0
 11 15  1  0  0  0  0
 12 17  1  0  0  0  0
 13 35  1  0  0  0  0
 13 36  1  0  0  0  0
 13 37  1  0  0  0  0
 14 38  1  0  0  0  0
 14 39  1  0  0  0  0
 14 40  1  0  0  0  0
 15 16  2  0  0  0  0
 16 18  1  0  0  0  0
 16 19  1  0  0  0  0
 17 18  2  0  0  0  0
 17 41  1  0  0  0  0
 19 20  1  0  0  0  0
 20 21  2  0  0  0  0
 20 22  1  0  0  0  0
 21 25  1  0  0  0  0
 22 23  1  0  0  0  0
 22 24  2  0  0  0  0
 23 27  1  0  0  0  0
 23 44  1  0  0  0  0
 23 45  1  0  0  0  0
 24 26  1  0  0  0  0
 25 26  2  0  0  0  0
 25 46  1  0  0  0  0
 27 28  2  0  0  0  0
 27 47  1  0  0  0  0
 28 30  1  0  0  0  0
 28 31  1  0  0  0  0
 29 49  1  0  0  0  0
 29 50  1  0  0  0  0
 29 51  1  0  0  0  0
 30 52  1  0  0  0  0
 30 56  1  0  0  0  0
 30 57  1  0  0  0  0
 31 53  1  0  0  0  0
 31 54  1  0  0  0  0
 31 55  1  0  0  0  0
M  END
>  <PUBCHEM_COMPOUND_CID>
10048103

>  <PUBCHEM_COMPOUND_CANONICALIZED>
1

>  <PUBCHEM_CACTVS_COMPLEXITY>
715

>  <PUBCHEM_CACTVS_HBOND_ACCEPTOR>
7

>  <PUBCHEM_CACTVS_HBOND_DONOR>
3

>  <PUBCHEM_CACTVS_ROTATABLE_BOND>
3

>  <PUBCHEM_CACTVS_SUBSKEYS>
AAADceB4OAAAAAAAAAAAAAAAAAAAAAAAAAA0aIEAAAAAAACRQAAAGgAACAAADFSgmAIyBoAABgCIAqBSAAACCAAkIAAAiAEGiMgNNzaGNRqCeWOl4BULuQfK7PzOoQADCAAYQABCAAYQADCAAAAAAAAAAA==

>  <PUBCHEM_IUPAC_OPENEYE_NAME>
3,5,9-trihydroxy-8-methoxy-2,2-dimethyl-7-(3-methylbut-2-enyl)-3,4-dihydropyrano[3,2-b]xanthen-6-one

>  <PUBCHEM_IUPAC_CAS_NAME>
3,5,9-trihydroxy-8-methoxy-2,2-dimethyl-7-(3-methylbut-2-enyl)-3,4-dihydropyrano[3,2-b]xanthen-6-one

>  <PUBCHEM_IUPAC_NAME>
3,5,9-trihydroxy-8-methoxy-2,2-dimethyl-7-(3-methylbut-2-enyl)-3,4-dihydropyrano[3,2-b]xanthen-6-one

>  <PUBCHEM_IUPAC_SYSTEMATIC_NAME>
8-methoxy-2,2-dimethyl-7-(3-methylbut-2-enyl)-3,5,9-tris(oxidanyl)-3,4-dihydropyrano[3,2-b]xanthen-6-one

>  <PUBCHEM_IUPAC_TRADITIONAL_NAME>
3,5,9-trihydroxy-8-methoxy-2,2-dimethyl-7-(3-methylbut-2-enyl)-3,4-dihydropyrano[3,2-b]xanthen-6-one

>  <PUBCHEM_IUPAC_INCHI>
InChI=1S/C24H26O7/c1-11(2)6-7-12-19-16(9-14(25)23(12)29-5)30-17-10-15-13(21(27)20(17)22(19)28)8-18(26)24(3,4)31-15/h6,9-10,18,25-27H,7-8H2,1-5H3

>  <PUBCHEM_IUPAC_INCHIKEY>
KCMPFWGUVNEDHW-UHFFFAOYSA-N

>  <PUBCHEM_XLOGP3_AA>
4.7

>  <PUBCHEM_EXACT_MASS>
426.168

>  <PUBCHEM_MOLECULAR_FORMULA>
C24H26O7

>  <PUBCHEM_MOLECULAR_WEIGHT>
426.465

>  <PUBCHEM_OPENEYE_CAN_SMILES>
CC(=CCC1=C2C(=CC(=C1OC)O)OC3=CC4=C(CC(C(O4)(C)C)O)C(=C3C2=O)O)C

>  <PUBCHEM_OPENEYE_ISO_SMILES>
CC(=CCC1=C2C(=CC(=C1OC)O)OC3=CC4=C(CC(C(O4)(C)C)O)C(=C3C2=O)O)C

>  <PUBCHEM_CACTVS_TPSA>
105

>  <PUBCHEM_MONOISOTOPIC_WEIGHT>
426.168

>  <PUBCHEM_TOTAL_CHARGE>
0

>  <PUBCHEM_HEAVY_ATOM_COUNT>
31

>  <PUBCHEM_ATOM_DEF_STEREO_COUNT>
0

>  <PUBCHEM_ATOM_UDEF_STEREO_COUNT>
1

>  <PUBCHEM_BOND_DEF_STEREO_COUNT>
0

>  <PUBCHEM_BOND_UDEF_STEREO_COUNT>
0

>  <PUBCHEM_ISOTOPIC_ATOM_COUNT>
0

>  <PUBCHEM_COMPONENT_COUNT>
1

>  <PUBCHEM_CACTVS_TAUTO_COUNT>
81

>  <PUBCHEM_COORDINATE_TYPE>
1
5
255

>  <PUBCHEM_BONDANNOTATIONS>
11  12  8
11  15  8
12  17  8
15  16  8
16  18  8
16  19  8
17  18  8
19  20  8
9  2  3
20  21  8
20  22  8
21  25  8
22  24  8
24  26  8
25  26  8
3  18  8
3  21  8

$$$$
