100464
 OpenBabel06101807152D

 26 27  0  0  0  0  0  0  0  0999 V2000
    3.8968    0.8184    0.0000 O   0  0  0  0  0  0  0  0  0  0  0  0
    2.0000    2.5784    0.0000 O   0  0  0  0  0  0  0  0  0  0  0  0
    3.5878    1.7694    0.0000 C   0  0  0  0  0  0  0  0  0  0  0  0
    2.5878    1.7694    0.0000 C   0  0  0  0  0  0  0  0  0  0  0  0
    3.0878    0.2306    0.0000 C   0  0  0  0  0  0  0  0  0  0  0  0
    3.5878    2.7694    0.0000 C   0  0  0  0  0  0  0  0  0  0  0  0
    4.5388    2.0784    0.0000 C   0  0  0  0  0  0  0  0  0  0  0  0
    2.2788    0.8184    0.0000 C   0  0  0  0  0  0  0  0  0  0  0  0
    3.0878   -0.7694    0.0000 C   0  0  0  0  0  0  0  0  0  0  0  0
    2.2218   -1.2694    0.0000 C   0  0  0  0  0  0  0  0  0  0  0  0
    3.9538   -1.2694    0.0000 C   0  0  0  0  0  0  0  0  0  0  0  0
    2.2218   -2.2694    0.0000 C   0  0  0  0  0  0  0  0  0  0  0  0
    3.9538   -2.2694    0.0000 C   0  0  0  0  0  0  0  0  0  0  0  0
    3.0878   -2.7694    0.0000 C   0  0  0  0  0  0  0  0  0  0  0  0
    4.2078    2.7694    0.0000 H   0  0  0  0  0  0  0  0  0  0  0  0
    3.5878    3.3894    0.0000 H   0  0  0  0  0  0  0  0  0  0  0  0
    2.9678    2.7694    0.0000 H   0  0  0  0  0  0  0  0  0  0  0  0
    4.7304    1.4888    0.0000 H   0  0  0  0  0  0  0  0  0  0  0  0
    5.1285    2.2700    0.0000 H   0  0  0  0  0  0  0  0  0  0  0  0
    4.3472    2.6681    0.0000 H   0  0  0  0  0  0  0  0  0  0  0  0
    1.6891    0.6268    0.0000 H   0  0  0  0  0  0  0  0  0  0  0  0
    1.6848   -0.9594    0.0000 H   0  0  0  0  0  0  0  0  0  0  0  0
    4.4908   -0.9594    0.0000 H   0  0  0  0  0  0  0  0  0  0  0  0
    1.6848   -2.5794    0.0000 H   0  0  0  0  0  0  0  0  0  0  0  0
    4.4908   -2.5794    0.0000 H   0  0  0  0  0  0  0  0  0  0  0  0
    3.0878   -3.3894    0.0000 H   0  0  0  0  0  0  0  0  0  0  0  0
  1  3  1  0  0  0  0
  1  5  1  0  0  0  0
  2  4  2  0  0  0  0
  3  4  1  0  0  0  0
  3  6  1  0  0  0  0
  3  7  1  0  0  0  0
  4  8  1  0  0  0  0
  5  8  2  0  0  0  0
  5  9  1  0  0  0  0
  6 15  1  0  0  0  0
  6 16  1  0  0  0  0
  6 17  1  0  0  0  0
  7 18  1  0  0  0  0
  7 19  1  0  0  0  0
  7 20  1  0  0  0  0
  8 21  1  0  0  0  0
  9 10  2  0  0  0  0
  9 11  1  0  0  0  0
 10 12  1  0  0  0  0
 10 22  1  0  0  0  0
 11 13  2  0  0  0  0
 11 23  1  0  0  0  0
 12 14  2  0  0  0  0
 12 24  1  0  0  0  0
 13 14  1  0  0  0  0
 13 25  1  0  0  0  0
 14 26  1  0  0  0  0
M  END
>  <PUBCHEM_COMPOUND_CID>
100464

>  <PUBCHEM_COMPOUND_CANONICALIZED>
1

>  <PUBCHEM_CACTVS_COMPLEXITY>
270

>  <PUBCHEM_CACTVS_HBOND_ACCEPTOR>
2

>  <PUBCHEM_CACTVS_HBOND_DONOR>
0

>  <PUBCHEM_CACTVS_ROTATABLE_BOND>
1

>  <PUBCHEM_CACTVS_SUBSKEYS>
AAADccBwMAAAAAAAAAAAAAAAAAAAAQAAAAAwAAAAAAAAAAABAAAAGgAAAAAADESAmAAyAIAABACIAqBSAAICCAAgIAAIiAFACMgIJiKAMRyCMAAkwAEIqQeAwCAOAAAAAAAAAAAAAAAAAAAAAAAAAAAAAA==

>  <PUBCHEM_IUPAC_OPENEYE_NAME>
2,2-dimethyl-5-phenyl-furan-3-one

>  <PUBCHEM_IUPAC_CAS_NAME>
2,2-dimethyl-5-phenyl-3-furanone

>  <PUBCHEM_IUPAC_NAME>
2,2-dimethyl-5-phenylfuran-3-one

>  <PUBCHEM_IUPAC_SYSTEMATIC_NAME>
2,2-dimethyl-5-phenyl-furan-3-one

>  <PUBCHEM_IUPAC_TRADITIONAL_NAME>
2,2-dimethyl-5-phenyl-furan-3-one

>  <PUBCHEM_IUPAC_INCHI>
InChI=1S/C12H12O2/c1-12(2)11(13)8-10(14-12)9-6-4-3-5-7-9/h3-8H,1-2H3

>  <PUBCHEM_IUPAC_INCHIKEY>
LTRTYBNTZIFLOT-UHFFFAOYSA-N

>  <PUBCHEM_XLOGP3_AA>
2.3

>  <PUBCHEM_EXACT_MASS>
188.084

>  <PUBCHEM_MOLECULAR_FORMULA>
C12H12O2

>  <PUBCHEM_MOLECULAR_WEIGHT>
188.226

>  <PUBCHEM_OPENEYE_CAN_SMILES>
CC1(C(=O)C=C(O1)C2=CC=CC=C2)C

>  <PUBCHEM_OPENEYE_ISO_SMILES>
CC1(C(=O)C=C(O1)C2=CC=CC=C2)C

>  <PUBCHEM_CACTVS_TPSA>
26.3

>  <PUBCHEM_MONOISOTOPIC_WEIGHT>
188.084

>  <PUBCHEM_TOTAL_CHARGE>
0

>  <PUBCHEM_HEAVY_ATOM_COUNT>
14

>  <PUBCHEM_ATOM_DEF_STEREO_COUNT>
0

>  <PUBCHEM_ATOM_UDEF_STEREO_COUNT>
0

>  <PUBCHEM_BOND_DEF_STEREO_COUNT>
0

>  <PUBCHEM_BOND_UDEF_STEREO_COUNT>
0

>  <PUBCHEM_ISOTOPIC_ATOM_COUNT>
0

>  <PUBCHEM_COMPONENT_COUNT>
1

>  <PUBCHEM_CACTVS_TAUTO_COUNT>
1

>  <PUBCHEM_COORDINATE_TYPE>
1
5
255

>  <PUBCHEM_BONDANNOTATIONS>
10  12  8
11  13  8
12  14  8
13  14  8
9  10  8
9  11  8

$$$$
