100418
 OpenBabel06101807152D

 58 62  0  0  0  0  0  0  0  0999 V2000
    4.6660    1.4365    0.0000 O   0  0  0  0  0  0  0  0  0  0  0  0
    6.4144   -1.5981    0.0000 O   0  0  0  0  0  0  0  0  0  0  0  0
    8.1962    1.4607    0.0000 O   0  0  0  0  0  0  0  0  0  0  0  0
    9.0641   -0.0910    0.0000 O   0  0  0  0  0  0  0  0  0  0  0  0
    6.3913    4.4710    0.0000 O   0  0  0  0  0  0  0  0  0  0  0  0
    5.5321   -0.0635    0.0000 C   0  0  0  0  0  0  0  0  0  0  0  0
    5.5321    0.9365    0.0000 C   0  0  0  0  0  0  0  0  0  0  0  0
    6.4260    1.4712    0.0000 C   0  0  0  0  0  0  0  0  0  0  0  0
    4.6660   -0.5635    0.0000 C   0  0  0  0  0  0  0  0  0  0  0  0
    7.3321   -0.0843    0.0000 C   0  0  0  0  0  0  0  0  0  0  0  0
    6.4260   -0.5981    0.0000 C   0  0  0  0  0  0  0  0  0  0  0  0
    3.8000   -0.0635    0.0000 C   0  0  0  0  0  0  0  0  0  0  0  0
    7.3321    0.9573    0.0000 C   0  0  0  0  0  0  0  0  0  0  0  0
    6.4144    2.4711    0.0000 C   0  0  0  0  0  0  0  0  0  0  0  0
    3.8000    0.9365    0.0000 C   0  0  0  0  0  0  0  0  0  0  0  0
    8.1962   -0.5876    0.0000 C   0  0  0  0  0  0  0  0  0  0  0  0
    8.1923   -1.5876    0.0000 C   0  0  0  0  0  0  0  0  0  0  0  0
    7.2746    2.9811    0.0000 C   0  0  0  0  0  0  0  0  0  0  0  0
    2.9061   -0.5981    0.0000 C   0  0  0  0  0  0  0  0  0  0  0  0
    9.0564   -2.0910    0.0000 C   0  0  0  0  0  0  0  0  0  0  0  0
    2.9061    1.4712    0.0000 C   0  0  0  0  0  0  0  0  0  0  0  0
    2.0000   -0.0843    0.0000 C   0  0  0  0  0  0  0  0  0  0  0  0
    2.0000    0.9573    0.0000 C   0  0  0  0  0  0  0  0  0  0  0  0
    7.2631    3.9810    0.0000 C   0  0  0  0  0  0  0  0  0  0  0  0
    8.1464    2.4911    0.0000 C   0  0  0  0  0  0  0  0  0  0  0  0
    9.0525   -3.0910    0.0000 C   0  0  0  0  0  0  0  0  0  0  0  0
    8.1232    4.4910    0.0000 C   0  0  0  0  0  0  0  0  0  0  0  0
    9.0066    3.0011    0.0000 C   0  0  0  0  0  0  0  0  0  0  0  0
    8.1846   -3.5876    0.0000 C   0  0  0  0  0  0  0  0  0  0  0  0
    9.9166   -3.5943    0.0000 C   0  0  0  0  0  0  0  0  0  0  0  0
    8.9950    4.0010    0.0000 C   0  0  0  0  0  0  0  0  0  0  0  0
    8.1807   -4.5876    0.0000 C   0  0  0  0  0  0  0  0  0  0  0  0
    9.9128   -4.5943    0.0000 C   0  0  0  0  0  0  0  0  0  0  0  0
    9.0448   -5.0909    0.0000 C   0  0  0  0  0  0  0  0  0  0  0  0
    4.2675   -1.0384    0.0000 H   0  0  0  0  0  0  0  0  0  0  0  0
    5.0646   -1.0384    0.0000 H   0  0  0  0  0  0  0  0  0  0  0  0
    6.1957    3.0512    0.0000 H   0  0  0  0  0  0  0  0  0  0  0  0
    5.8051    2.3564    0.0000 H   0  0  0  0  0  0  0  0  0  0  0  0
    7.5821   -1.4776    0.0000 H   0  0  0  0  0  0  0  0  0  0  0  0
    7.9780   -2.1694    0.0000 H   0  0  0  0  0  0  0  0  0  0  0  0
    2.9132   -1.2181    0.0000 H   0  0  0  0  0  0  0  0  0  0  0  0
    9.6666   -2.2010    0.0000 H   0  0  0  0  0  0  0  0  0  0  0  0
    9.2707   -1.5092    0.0000 H   0  0  0  0  0  0  0  0  0  0  0  0
    2.9132    2.0911    0.0000 H   0  0  0  0  0  0  0  0  0  0  0  0
    1.4643   -0.3964    0.0000 H   0  0  0  0  0  0  0  0  0  0  0  0
    1.4643    1.2694    0.0000 H   0  0  0  0  0  0  0  0  0  0  0  0
    5.8740   -1.9018    0.0000 H   0  0  0  0  0  0  0  0  0  0  0  0
    8.1535    1.8712    0.0000 H   0  0  0  0  0  0  0  0  0  0  0  0
    8.7343    1.1527    0.0000 H   0  0  0  0  0  0  0  0  0  0  0  0
    8.1161    5.1110    0.0000 H   0  0  0  0  0  0  0  0  0  0  0  0
    9.5470    2.6974    0.0000 H   0  0  0  0  0  0  0  0  0  0  0  0
    7.6489   -3.2755    0.0000 H   0  0  0  0  0  0  0  0  0  0  0  0
   10.4548   -3.2864    0.0000 H   0  0  0  0  0  0  0  0  0  0  0  0
    9.5283    4.3172    0.0000 H   0  0  0  0  0  0  0  0  0  0  0  0
    7.6426   -4.8955    0.0000 H   0  0  0  0  0  0  0  0  0  0  0  0
   10.4485   -4.9064    0.0000 H   0  0  0  0  0  0  0  0  0  0  0  0
    6.3841    5.0909    0.0000 H   0  0  0  0  0  0  0  0  0  0  0  0
    9.0424   -5.7109    0.0000 H   0  0  0  0  0  0  0  0  0  0  0  0
  1  7  1  0  0  0  0
  1 15  1  0  0  0  0
  2 11  1  0  0  0  0
  2 47  1  0  0  0  0
  3 13  1  0  0  0  0
  3 49  1  0  0  0  0
  4 16  2  0  0  0  0
  5 24  1  0  0  0  0
  5 57  1  0  0  0  0
  6  7  1  0  0  0  0
  6  9  1  0  0  0  0
  6 11  2  0  0  0  0
  7  8  2  0  0  0  0
  8 13  1  0  0  0  0
  8 14  1  0  0  0  0
  9 12  1  0  0  0  0
  9 35  1  0  0  0  0
  9 36  1  0  0  0  0
 10 11  1  0  0  0  0
 10 13  2  0  0  0  0
 10 16  1  0  0  0  0
 12 15  1  0  0  0  0
 12 19  2  0  0  0  0
 14 18  1  0  0  0  0
 14 37  1  0  0  0  0
 14 38  1  0  0  0  0
 15 21  2  0  0  0  0
 16 17  1  0  0  0  0
 17 20  1  0  0  0  0
 17 39  1  0  0  0  0
 17 40  1  0  0  0  0
 18 24  1  0  0  0  0
 18 25  2  0  0  0  0
 19 22  1  0  0  0  0
 19 41  1  0  0  0  0
 20 26  1  0  0  0  0
 20 42  1  0  0  0  0
 20 43  1  0  0  0  0
 21 23  1  0  0  0  0
 21 44  1  0  0  0  0
 22 23  2  0  0  0  0
 22 45  1  0  0  0  0
 23 46  1  0  0  0  0
 24 27  2  0  0  0  0
 25 28  1  0  0  0  0
 25 48  1  0  0  0  0
 26 29  2  0  0  0  0
 26 30  1  0  0  0  0
 27 31  1  0  0  0  0
 27 50  1  0  0  0  0
 28 31  2  0  0  0  0
 28 51  1  0  0  0  0
 29 32  1  0  0  0  0
 29 52  1  0  0  0  0
 30 33  2  0  0  0  0
 30 53  1  0  0  0  0
 31 54  1  0  0  0  0
 32 34  2  0  0  0  0
 32 55  1  0  0  0  0
 33 34  1  0  0  0  0
 33 56  1  0  0  0  0
 34 58  1  0  0  0  0
M  END
>  <PUBCHEM_COMPOUND_CID>
100418

>  <PUBCHEM_COMPOUND_CANONICALIZED>
1

>  <PUBCHEM_CACTVS_COMPLEXITY>
675

>  <PUBCHEM_CACTVS_HBOND_ACCEPTOR>
5

>  <PUBCHEM_CACTVS_HBOND_DONOR>
3

>  <PUBCHEM_CACTVS_ROTATABLE_BOND>
6

>  <PUBCHEM_CACTVS_SUBSKEYS>
AAADceB4OAAAAAAAAAAAAAAAAAAAAAAAAAA0YMGCAAAAAACRVAAAGgAACAAADASAmAAwBoAABgCIAqBSAAACCAAkIAAIiAEGCMgMJzaGNRqCeWCl4BUIuQeI7OzOIAACCAAIAABAAAQQABAAAAAAAAAAAA==

>  <PUBCHEM_IUPAC_OPENEYE_NAME>
1-[1,3-dihydroxy-4-[(2-hydroxyphenyl)methyl]-9H-xanthen-2-yl]-3-phenyl-propan-1-one

>  <PUBCHEM_IUPAC_CAS_NAME>
1-[1,3-dihydroxy-4-[(2-hydroxyphenyl)methyl]-9H-xanthen-2-yl]-3-phenyl-1-propanone

>  <PUBCHEM_IUPAC_NAME>
1-[1,3-dihydroxy-4-[(2-hydroxyphenyl)methyl]-9H-xanthen-2-yl]-3-phenylpropan-1-one

>  <PUBCHEM_IUPAC_SYSTEMATIC_NAME>
1-[4-[(2-hydroxyphenyl)methyl]-1,3-bis(oxidanyl)-9H-xanthen-2-yl]-3-phenyl-propan-1-one

>  <PUBCHEM_IUPAC_TRADITIONAL_NAME>
1-(1,3-dihydroxy-4-salicyl-9H-xanthen-2-yl)-3-phenyl-propan-1-one

>  <PUBCHEM_IUPAC_INCHI>
InChI=1S/C29H24O5/c30-23-12-6-4-10-19(23)16-21-27(32)26(24(31)15-14-18-8-2-1-3-9-18)28(33)22-17-20-11-5-7-13-25(20)34-29(21)22/h1-13,30,32-33H,14-17H2

>  <PUBCHEM_IUPAC_INCHIKEY>
IWPNHPPGEPHKBZ-UHFFFAOYSA-N

>  <PUBCHEM_XLOGP3_AA>
6.4

>  <PUBCHEM_EXACT_MASS>
452.162

>  <PUBCHEM_MOLECULAR_FORMULA>
C29H24O5

>  <PUBCHEM_MOLECULAR_WEIGHT>
452.506

>  <PUBCHEM_OPENEYE_CAN_SMILES>
C1C2=CC=CC=C2OC3=C1C(=C(C(=C3CC4=CC=CC=C4O)O)C(=O)CCC5=CC=CC=C5)O

>  <PUBCHEM_OPENEYE_ISO_SMILES>
C1C2=CC=CC=C2OC3=C1C(=C(C(=C3CC4=CC=CC=C4O)O)C(=O)CCC5=CC=CC=C5)O

>  <PUBCHEM_CACTVS_TPSA>
87

>  <PUBCHEM_MONOISOTOPIC_WEIGHT>
452.162

>  <PUBCHEM_TOTAL_CHARGE>
0

>  <PUBCHEM_HEAVY_ATOM_COUNT>
34

>  <PUBCHEM_ATOM_DEF_STEREO_COUNT>
0

>  <PUBCHEM_ATOM_UDEF_STEREO_COUNT>
0

>  <PUBCHEM_BOND_DEF_STEREO_COUNT>
0

>  <PUBCHEM_BOND_UDEF_STEREO_COUNT>
0

>  <PUBCHEM_ISOTOPIC_ATOM_COUNT>
0

>  <PUBCHEM_COMPONENT_COUNT>
1

>  <PUBCHEM_CACTVS_TAUTO_COUNT>
66

>  <PUBCHEM_COORDINATE_TYPE>
1
5
255

>  <PUBCHEM_BONDANNOTATIONS>
10  11  8
10  13  8
12  15  8
12  19  8
15  21  8
18  24  8
18  25  8
19  22  8
21  23  8
22  23  8
24  27  8
25  28  8
26  29  8
26  30  8
27  31  8
28  31  8
29  32  8
30  33  8
32  34  8
33  34  8
6  11  8
6  7  8
7  8  8
8  13  8

$$$$
