10069639
 OpenBabel06101807152D

 60 61  0  0  0  0  0  0  0  0999 V2000
    2.0000    0.6519    0.0000 O   0  0  0  0  0  0  0  0  0  0  0  0
    2.0000   -1.3481    0.0000 O   0  0  0  0  0  0  0  0  0  0  0  0
    6.3981   -0.8689    0.0000 N   0  0  0  0  0  0  0  0  0  0  0  0
    7.1777    4.7063    0.0000 N   0  0  0  0  0  0  0  0  0  0  0  0
    7.1893   -4.4026    0.0000 N   0  0  0  0  0  0  0  0  0  0  0  0
    8.0263    6.2162    0.0000 N   0  0  0  0  0  0  0  0  0  0  0  0
    8.9096    4.7264    0.0000 N   0  0  0  0  0  0  0  0  0  0  0  0
    8.0379   -5.9125    0.0000 N   0  0  0  0  0  0  0  0  0  0  0  0
    6.3060   -5.8925    0.0000 N   0  0  0  0  0  0  0  0  0  0  0  0
    5.4920    0.6866    0.0000 C   0  0  0  0  0  0  0  0  0  0  0  0
    5.4804    1.6865    0.0000 C   0  0  0  0  0  0  0  0  0  0  0  0
    4.5981    0.1519    0.0000 C   0  0  0  0  0  0  0  0  0  0  0  0
    4.5981   -0.8481    0.0000 C   0  0  0  0  0  0  0  0  0  0  0  0
    6.3406    2.1965    0.0000 C   0  0  0  0  0  0  0  0  0  0  0  0
    5.4920   -1.3827    0.0000 C   0  0  0  0  0  0  0  0  0  0  0  0
    5.4804   -2.3827    0.0000 C   0  0  0  0  0  0  0  0  0  0  0  0
    6.3291    3.1964    0.0000 C   0  0  0  0  0  0  0  0  0  0  0  0
    6.3981    0.1727    0.0000 C   0  0  0  0  0  0  0  0  0  0  0  0
    3.7320    0.6519    0.0000 C   0  0  0  0  0  0  0  0  0  0  0  0
    6.3406   -2.8927    0.0000 C   0  0  0  0  0  0  0  0  0  0  0  0
    3.7320   -1.3481    0.0000 C   0  0  0  0  0  0  0  0  0  0  0  0
    2.8660    0.1519    0.0000 C   0  0  0  0  0  0  0  0  0  0  0  0
    2.8660   -0.8481    0.0000 C   0  0  0  0  0  0  0  0  0  0  0  0
    7.1893    3.7064    0.0000 C   0  0  0  0  0  0  0  0  0  0  0  0
    6.3291   -3.8926    0.0000 C   0  0  0  0  0  0  0  0  0  0  0  0
    2.0000    1.6519    0.0000 C   0  0  0  0  0  0  0  0  0  0  0  0
    2.0000   -2.3481    0.0000 C   0  0  0  0  0  0  0  0  0  0  0  0
    8.0379    5.2163    0.0000 C   0  0  0  0  0  0  0  0  0  0  0  0
    7.1777   -5.4025    0.0000 C   0  0  0  0  0  0  0  0  0  0  0  0
    5.2617    2.2666    0.0000 H   0  0  0  0  0  0  0  0  0  0  0  0
    4.8712    1.5718    0.0000 H   0  0  0  0  0  0  0  0  0  0  0  0
    6.5594    1.6164    0.0000 H   0  0  0  0  0  0  0  0  0  0  0  0
    6.9499    2.3112    0.0000 H   0  0  0  0  0  0  0  0  0  0  0  0
    4.8712   -2.2680    0.0000 H   0  0  0  0  0  0  0  0  0  0  0  0
    5.2617   -2.9628    0.0000 H   0  0  0  0  0  0  0  0  0  0  0  0
    6.1103    3.7766    0.0000 H   0  0  0  0  0  0  0  0  0  0  0  0
    5.7198    3.0817    0.0000 H   0  0  0  0  0  0  0  0  0  0  0  0
    6.9338    0.4848    0.0000 H   0  0  0  0  0  0  0  0  0  0  0  0
    3.7320    1.2719    0.0000 H   0  0  0  0  0  0  0  0  0  0  0  0
    6.9499   -3.0074    0.0000 H   0  0  0  0  0  0  0  0  0  0  0  0
    6.5594   -2.3125    0.0000 H   0  0  0  0  0  0  0  0  0  0  0  0
    3.7320   -1.9681    0.0000 H   0  0  0  0  0  0  0  0  0  0  0  0
    7.4080    3.1263    0.0000 H   0  0  0  0  0  0  0  0  0  0  0  0
    7.7986    3.8211    0.0000 H   0  0  0  0  0  0  0  0  0  0  0  0
    5.7198   -3.7779    0.0000 H   0  0  0  0  0  0  0  0  0  0  0  0
    6.1103   -4.4727    0.0000 H   0  0  0  0  0  0  0  0  0  0  0  0
    2.6200    1.6519    0.0000 H   0  0  0  0  0  0  0  0  0  0  0  0
    2.0000    2.2719    0.0000 H   0  0  0  0  0  0  0  0  0  0  0  0
    1.3800    1.6519    0.0000 H   0  0  0  0  0  0  0  0  0  0  0  0
    1.3800   -2.3481    0.0000 H   0  0  0  0  0  0  0  0  0  0  0  0
    2.0000   -2.9681    0.0000 H   0  0  0  0  0  0  0  0  0  0  0  0
    2.6200   -2.3481    0.0000 H   0  0  0  0  0  0  0  0  0  0  0  0
    9.4430    5.0426    0.0000 H   0  0  0  0  0  0  0  0  0  0  0  0
    8.9168    4.1064    0.0000 H   0  0  0  0  0  0  0  0  0  0  0  0
    8.5596    6.5324    0.0000 H   0  0  0  0  0  0  0  0  0  0  0  0
    7.4858    6.5200    0.0000 H   0  0  0  0  0  0  0  0  0  0  0  0
    6.2988   -6.5124    0.0000 H   0  0  0  0  0  0  0  0  0  0  0  0
    5.7726   -5.5763    0.0000 H   0  0  0  0  0  0  0  0  0  0  0  0
    8.0307   -6.5324    0.0000 H   0  0  0  0  0  0  0  0  0  0  0  0
    8.5784   -5.6087    0.0000 H   0  0  0  0  0  0  0  0  0  0  0  0
  1 22  1  0  0  0  0
  1 26  1  0  0  0  0
  2 23  1  0  0  0  0
  2 27  1  0  0  0  0
  3 15  2  0  0  0  0
  3 18  1  0  0  0  0
  4 24  1  0  0  0  0
  4 28  2  0  0  0  0
  5 25  1  0  0  0  0
  5 29  2  0  0  0  0
  6 28  1  0  0  0  0
  6 55  1  0  0  0  0
  6 56  1  0  0  0  0
  7 28  1  0  0  0  0
  7 53  1  0  0  0  0
  7 54  1  0  0  0  0
  8 29  1  0  0  0  0
  8 59  1  0  0  0  0
  8 60  1  0  0  0  0
  9 29  1  0  0  0  0
  9 57  1  0  0  0  0
  9 58  1  0  0  0  0
 10 11  1  0  0  0  0
 10 12  1  0  0  0  0
 10 18  2  0  0  0  0
 11 14  1  0  0  0  0
 11 30  1  0  0  0  0
 11 31  1  0  0  0  0
 12 13  1  0  0  0  0
 12 19  2  0  0  0  0
 13 15  1  0  0  0  0
 13 21  2  0  0  0  0
 14 17  1  0  0  0  0
 14 32  1  0  0  0  0
 14 33  1  0  0  0  0
 15 16  1  0  0  0  0
 16 20  1  0  0  0  0
 16 34  1  0  0  0  0
 16 35  1  0  0  0  0
 17 24  1  0  0  0  0
 17 36  1  0  0  0  0
 17 37  1  0  0  0  0
 18 38  1  0  0  0  0
 19 22  1  0  0  0  0
 19 39  1  0  0  0  0
 20 25  1  0  0  0  0
 20 40  1  0  0  0  0
 20 41  1  0  0  0  0
 21 23  1  0  0  0  0
 21 42  1  0  0  0  0
 22 23  2  0  0  0  0
 24 43  1  0  0  0  0
 24 44  1  0  0  0  0
 25 45  1  0  0  0  0
 25 46  1  0  0  0  0
 26 47  1  0  0  0  0
 26 48  1  0  0  0  0
 26 49  1  0  0  0  0
 27 50  1  0  0  0  0
 27 51  1  0  0  0  0
 27 52  1  0  0  0  0
M  END
>  <PUBCHEM_COMPOUND_CID>
10069639

>  <PUBCHEM_COMPOUND_CANONICALIZED>
1

>  <PUBCHEM_CACTVS_COMPLEXITY>
535

>  <PUBCHEM_CACTVS_HBOND_ACCEPTOR>
5

>  <PUBCHEM_CACTVS_HBOND_DONOR>
4

>  <PUBCHEM_CACTVS_ROTATABLE_BOND>
11

>  <PUBCHEM_CACTVS_SUBSKEYS>
AAADceB7sAAAAAAAAAAAAAAAAAAAAAAAAAA8QAAAAAAAAACx8AAAHgAQAAAADAzBngY/htJIFACgAzRnZACCiCExICAA2CA+zJgNJuLEsZuEMCpkwBHK6Aew0PMOoAABAAAQQABAAAIAACCAAAAAAAAAAA==

>  <PUBCHEM_IUPAC_OPENEYE_NAME>
2-[3-[4-(4-guanidinobutyl)-6,7-dimethoxy-1-isoquinolyl]propyl]guanidine

>  <PUBCHEM_IUPAC_CAS_NAME>
2-[3-[4-[4-(diaminomethylideneamino)butyl]-6,7-dimethoxy-1-isoquinolinyl]propyl]guanidine

>  <PUBCHEM_IUPAC_NAME>
2-[3-[4-[4-(diaminomethylideneamino)butyl]-6,7-dimethoxyisoquinolin-1-yl]propyl]guanidine

>  <PUBCHEM_IUPAC_SYSTEMATIC_NAME>
2-[3-[4-[4-[bis(azanyl)methylideneamino]butyl]-6,7-dimethoxy-isoquinolin-1-yl]propyl]guanidine

>  <PUBCHEM_IUPAC_TRADITIONAL_NAME>
2-[3-[4-(4-guanidinobutyl)-6,7-dimethoxy-1-isoquinolyl]propyl]guanidine

>  <PUBCHEM_IUPAC_INCHI>
InChI=1S/C20H31N7O2/c1-28-17-10-14-13(6-3-4-8-25-19(21)22)12-27-16(7-5-9-26-20(23)24)15(14)11-18(17)29-2/h10-12H,3-9H2,1-2H3,(H4,21,22,25)(H4,23,24,26)

>  <PUBCHEM_IUPAC_INCHIKEY>
WKRLLRULODTOQU-UHFFFAOYSA-N

>  <PUBCHEM_XLOGP3_AA>
0.6

>  <PUBCHEM_EXACT_MASS>
401.254

>  <PUBCHEM_MOLECULAR_FORMULA>
C20H31N7O2

>  <PUBCHEM_MOLECULAR_WEIGHT>
401.515

>  <PUBCHEM_OPENEYE_CAN_SMILES>
COC1=C(C=C2C(=C1)C(=CN=C2CCCN=C(N)N)CCCCN=C(N)N)OC

>  <PUBCHEM_OPENEYE_ISO_SMILES>
COC1=C(C=C2C(=C1)C(=CN=C2CCCN=C(N)N)CCCCN=C(N)N)OC

>  <PUBCHEM_CACTVS_TPSA>
160

>  <PUBCHEM_MONOISOTOPIC_WEIGHT>
401.254

>  <PUBCHEM_TOTAL_CHARGE>
0

>  <PUBCHEM_HEAVY_ATOM_COUNT>
29

>  <PUBCHEM_ATOM_DEF_STEREO_COUNT>
0

>  <PUBCHEM_ATOM_UDEF_STEREO_COUNT>
0

>  <PUBCHEM_BOND_DEF_STEREO_COUNT>
0

>  <PUBCHEM_BOND_UDEF_STEREO_COUNT>
0

>  <PUBCHEM_ISOTOPIC_ATOM_COUNT>
0

>  <PUBCHEM_COMPONENT_COUNT>
1

>  <PUBCHEM_CACTVS_TAUTO_COUNT>
8

>  <PUBCHEM_COORDINATE_TYPE>
1
5
255

>  <PUBCHEM_BONDANNOTATIONS>
10  12  8
10  18  8
12  13  8
12  19  8
13  15  8
13  21  8
19  22  8
21  23  8
22  23  8
3  15  8
3  18  8

$$$$
