10071572
 OpenBabel06101807152D

 54 58  0  0  1  0  0  0  0  0999 V2000
    6.3821    0.6766    0.0000 O   0  0  0  0  0  0  0  0  0  0  0  0
    8.2356    3.7748    0.0000 O   0  0  0  0  0  0  0  0  0  0  0  0
    3.7578   -2.9743    0.0000 O   0  0  0  0  0  0  0  0  0  0  0  0
    3.7840    2.1766    0.0000 O   0  0  0  0  0  0  0  0  0  0  0  0
    7.3403   -0.8689    0.0000 O   0  0  0  0  0  0  0  0  0  0  0  0
    4.6283    3.7081    0.0000 O   0  0  0  0  0  0  0  0  0  0  0  0
    5.5692   -4.0201    0.0000 O   0  0  0  0  0  0  0  0  0  0  0  0
    3.7320   -0.8718    0.0000 C   0  0  3  0  0  0  0  0  0  0  0  0
    3.7401    0.1698    0.0000 C   0  0  0  0  0  0  0  0  0  0  0  0
    4.6341   -1.3926    0.0000 C   0  0  0  0  0  0  0  0  0  0  0  0
    4.6501    0.6766    0.0000 C   0  0  0  0  0  0  0  0  0  0  0  0
    5.5161    0.1766    0.0000 C   0  0  0  0  0  0  0  0  0  0  0  0
    5.5322   -0.8649    0.0000 C   0  0  0  0  0  0  0  0  0  0  0  0
    2.8641   -1.3685    0.0000 C   0  0  0  0  0  0  0  0  0  0  0  0
    4.6501    1.6766    0.0000 C   0  0  0  0  0  0  0  0  0  0  0  0
    6.3821    1.6766    0.0000 C   0  0  0  0  0  0  0  0  0  0  0  0
    5.5161    2.1766    0.0000 C   0  0  0  0  0  0  0  0  0  0  0  0
    4.6258   -2.4776    0.0000 C   0  0  0  0  0  0  0  0  0  0  0  0
    7.2921    2.1835    0.0000 C   0  0  0  0  0  0  0  0  0  0  0  0
    6.4841   -1.3855    0.0000 C   0  0  0  0  0  0  0  0  0  0  0  0
    9.1752    3.2323    0.0000 C   0  0  0  0  0  0  0  0  0  0  0  0
    7.3002    3.2251    0.0000 C   0  0  0  0  0  0  0  0  0  0  0  0
    5.5000    3.2181    0.0000 C   0  0  0  0  0  0  0  0  0  0  0  0
    5.5654   -3.0201    0.0000 C   0  0  0  0  0  0  0  0  0  0  0  0
    8.2190    1.6194    0.0000 C   0  0  0  0  0  0  0  0  0  0  0  0
    2.0000   -0.8652    0.0000 C   0  0  0  0  0  0  0  0  0  0  0  0
    6.5008   -2.4704    0.0000 C   0  0  0  0  0  0  0  0  0  0  0  0
    6.3981    3.7459    0.0000 C   0  0  0  0  0  0  0  0  0  0  0  0
    9.1668    2.1473    0.0000 C   0  0  0  0  0  0  0  0  0  0  0  0
   10.1752    3.2284    0.0000 C   0  0  0  0  0  0  0  0  0  0  0  0
    9.6785    4.0964    0.0000 C   0  0  0  0  0  0  0  0  0  0  0  0
    2.8602   -2.3685    0.0000 C   0  0  0  0  0  0  0  0  0  0  0  0
    3.7304   -1.7218    0.0000 H   0  0  0  0  0  0  0  0  0  0  0  0
    3.5355    0.7551    0.0000 H   0  0  0  0  0  0  0  0  0  0  0  0
    3.1284    0.0684    0.0000 H   0  0  0  0  0  0  0  0  0  0  0  0
    8.2070    0.9995    0.0000 H   0  0  0  0  0  0  0  0  0  0  0  0
    9.7002    1.8311    0.0000 H   0  0  0  0  0  0  0  0  0  0  0  0
    6.3957    4.3659    0.0000 H   0  0  0  0  0  0  0  0  0  0  0  0
    2.3121   -0.3294    0.0000 H   0  0  0  0  0  0  0  0  0  0  0  0
    1.4643   -0.5531    0.0000 H   0  0  0  0  0  0  0  0  0  0  0  0
    1.6879   -1.4009    0.0000 H   0  0  0  0  0  0  0  0  0  0  0  0
    7.0413   -2.7742    0.0000 H   0  0  0  0  0  0  0  0  0  0  0  0
   10.2143    3.7843    0.0000 H   0  0  0  0  0  0  0  0  0  0  0  0
    9.9906    4.6321    0.0000 H   0  0  0  0  0  0  0  0  0  0  0  0
    9.1428    4.4084    0.0000 H   0  0  0  0  0  0  0  0  0  0  0  0
   10.1728    2.6084    0.0000 H   0  0  0  0  0  0  0  0  0  0  0  0
   10.7952    3.2260    0.0000 H   0  0  0  0  0  0  0  0  0  0  0  0
   10.1776    3.8484    0.0000 H   0  0  0  0  0  0  0  0  0  0  0  0
    2.3221   -2.6764    0.0000 H   0  0  0  0  0  0  0  0  0  0  0  0
    3.3960   -2.6806    0.0000 H   0  0  0  0  0  0  0  0  0  0  0  0
    3.7554   -3.5943    0.0000 H   0  0  0  0  0  0  0  0  0  0  0  0
    7.8831   -1.1685    0.0000 H   0  0  0  0  0  0  0  0  0  0  0  0
    4.6211    4.3280    0.0000 H   0  0  0  0  0  0  0  0  0  0  0  0
    6.1074   -4.3280    0.0000 H   0  0  0  0  0  0  0  0  0  0  0  0
  1 12  1  0  0  0  0
  1 16  1  0  0  0  0
  2 21  1  0  0  0  0
  2 22  1  0  0  0  0
  3 18  1  0  0  0  0
  3 51  1  0  0  0  0
  4 15  2  0  0  0  0
  5 20  1  0  0  0  0
  5 52  1  0  0  0  0
  6 23  1  0  0  0  0
  6 53  1  0  0  0  0
  7 24  1  0  0  0  0
  7 54  1  0  0  0  0
  8  9  1  0  0  0  0
  8 10  1  0  0  0  0
  8 14  1  0  0  0  0
  8 33  1  0  0  0  0
  9 11  1  0  0  0  0
  9 34  1  0  0  0  0
  9 35  1  0  0  0  0
 10 13  2  0  0  0  0
 10 18  1  0  0  0  0
 11 12  2  0  0  0  0
 11 15  1  0  0  0  0
 12 13  1  0  0  0  0
 13 20  1  0  0  0  0
 14 26  1  0  0  0  0
 14 32  2  0  0  0  0
 15 17  1  0  0  0  0
 16 17  1  0  0  0  0
 16 19  2  0  0  0  0
 17 23  2  0  0  0  0
 18 24  2  0  0  0  0
 19 22  1  0  0  0  0
 19 25  1  0  0  0  0
 20 27  2  0  0  0  0
 21 29  1  0  0  0  0
 21 30  1  0  0  0  0
 21 31  1  0  0  0  0
 22 28  2  0  0  0  0
 23 28  1  0  0  0  0
 24 27  1  0  0  0  0
 25 29  2  0  0  0  0
 25 36  1  0  0  0  0
 26 39  1  0  0  0  0
 26 40  1  0  0  0  0
 26 41  1  0  0  0  0
 27 42  1  0  0  0  0
 28 38  1  0  0  0  0
 29 37  1  0  0  0  0
 30 46  1  0  0  0  0
 30 47  1  0  0  0  0
 30 48  1  0  0  0  0
 31 43  1  0  0  0  0
 31 44  1  0  0  0  0
 31 45  1  0  0  0  0
 32 49  1  0  0  0  0
 32 50  1  0  0  0  0
M  END
>  <PUBCHEM_COMPOUND_CID>
10071572

>  <PUBCHEM_COMPOUND_CANONICALIZED>
1

>  <PUBCHEM_CACTVS_COMPLEXITY>
889

>  <PUBCHEM_CACTVS_HBOND_ACCEPTOR>
7

>  <PUBCHEM_CACTVS_HBOND_DONOR>
4

>  <PUBCHEM_CACTVS_ROTATABLE_BOND>
1

>  <PUBCHEM_CACTVS_SUBSKEYS>
AAADceB4OAAAAAAAAAAAAAAAAAAAAAAAAAAwYIECAAAAAACRQAAAGgAACAAADUSAmAAyBoAABgCIAqBSAAACCAAkIAAIiAEGiMgNJzaGNRqCeWGl4BUJuQfI7PzOoQADCAAYQABCAAYQADCAAAAAAAAAAA==

>  <PUBCHEM_IUPAC_INCHI>
InChI=1S/C25H22O7/c1-10(2)12-7-13-21(29)20-15(27)9-17-11(5-6-25(3,4)32-17)23(20)31-24(13)19-14(26)8-16(28)22(30)18(12)19/h5-6,8-9,12,26-28,30H,1,7H2,2-4H3

>  <PUBCHEM_IUPAC_INCHIKEY>
ZIYAGIMFLYOZDS-UHFFFAOYSA-N

>  <PUBCHEM_XLOGP3_AA>
4.8

>  <PUBCHEM_EXACT_MASS>
434.137

>  <PUBCHEM_MOLECULAR_FORMULA>
C25H22O7

>  <PUBCHEM_MOLECULAR_WEIGHT>
434.444

>  <PUBCHEM_OPENEYE_CAN_SMILES>
CC(=C)C1CC2=C(C3=C1C(=C(C=C3O)O)O)OC4=C5C=CC(OC5=CC(=C4C2=O)O)(C)C

>  <PUBCHEM_OPENEYE_ISO_SMILES>
CC(=C)C1CC2=C(C3=C1C(=C(C=C3O)O)O)OC4=C5C=CC(OC5=CC(=C4C2=O)O)(C)C

>  <PUBCHEM_CACTVS_TPSA>
116

>  <PUBCHEM_MONOISOTOPIC_WEIGHT>
434.137

>  <PUBCHEM_TOTAL_CHARGE>
0

>  <PUBCHEM_HEAVY_ATOM_COUNT>
32

>  <PUBCHEM_ATOM_DEF_STEREO_COUNT>
0

>  <PUBCHEM_ATOM_UDEF_STEREO_COUNT>
1

>  <PUBCHEM_BOND_DEF_STEREO_COUNT>
0

>  <PUBCHEM_BOND_UDEF_STEREO_COUNT>
0

>  <PUBCHEM_ISOTOPIC_ATOM_COUNT>
0

>  <PUBCHEM_COMPONENT_COUNT>
1

>  <PUBCHEM_CACTVS_TAUTO_COUNT>
998

>  <PUBCHEM_COORDINATE_TYPE>
1
5
255

>  <PUBCHEM_BONDANNOTATIONS>
1  12  8
1  16  8
10  13  8
10  18  8
11  12  8
11  15  8
13  20  8
15  17  8
16  17  8
16  19  8
17  23  8
18  24  8
19  22  8
20  27  8
22  28  8
23  28  8
24  27  8
8  33  3

$$$$
