10074228
 OpenBabel06101807152D

 68 71  0  0  0  0  0  0  0  0999 V2000
    4.6342   -0.6117    0.0000 O   0  0  0  0  0  0  0  0  0  0  0  0
    8.1542   -0.6117    0.0000 O   0  0  0  0  0  0  0  0  0  0  0  0
    6.3942    2.4229    0.0000 O   0  0  0  0  0  0  0  0  0  0  0  0
    8.1426    2.4575    0.0000 O   0  0  0  0  0  0  0  0  0  0  0  0
   12.5243    0.9571    0.0000 O   0  0  0  0  0  0  0  0  0  0  0  0
   12.5166    2.9571    0.0000 O   0  0  0  0  0  0  0  0  0  0  0  0
    3.7282   -0.0979    0.0000 C   0  0  0  0  0  0  0  0  0  0  0  0
    3.7282    0.9437    0.0000 C   0  0  0  0  0  0  0  0  0  0  0  0
    2.8641    1.4471    0.0000 C   0  0  0  0  0  0  0  0  0  0  0  0
    4.6342    1.4576    0.0000 C   0  0  0  0  0  0  0  0  0  0  0  0
    5.5282    0.9229    0.0000 C   0  0  0  0  0  0  0  0  0  0  0  0
    5.5282   -0.0771    0.0000 C   0  0  0  0  0  0  0  0  0  0  0  0
    3.2315   -0.9658    0.0000 C   0  0  0  0  0  0  0  0  0  0  0  0
    2.7282   -0.1017    0.0000 C   0  0  0  0  0  0  0  0  0  0  0  0
    3.3674    2.3112    0.0000 C   0  0  0  0  0  0  0  0  0  0  0  0
    2.3608    0.5830    0.0000 C   0  0  0  0  0  0  0  0  0  0  0  0
    6.3942   -0.5771    0.0000 C   0  0  0  0  0  0  0  0  0  0  0  0
    2.0000    1.9504    0.0000 C   0  0  0  0  0  0  0  0  0  0  0  0
    6.3942    1.4229    0.0000 C   0  0  0  0  0  0  0  0  0  0  0  0
    7.2602   -0.0771    0.0000 C   0  0  0  0  0  0  0  0  0  0  0  0
    7.2602    0.9229    0.0000 C   0  0  0  0  0  0  0  0  0  0  0  0
    6.3942   -1.5771    0.0000 C   0  0  0  0  0  0  0  0  0  0  0  0
    8.1542    1.4576    0.0000 C   0  0  0  0  0  0  0  0  0  0  0  0
    2.0038    2.9504    0.0000 C   0  0  0  0  0  0  0  0  0  0  0  0
    9.0602    0.9437    0.0000 C   0  0  0  0  0  0  0  0  0  0  0  0
    7.2602   -2.0771    0.0000 C   0  0  0  0  0  0  0  0  0  0  0  0
    9.0602   -0.0979    0.0000 C   0  0  0  0  0  0  0  0  0  0  0  0
    9.9243    1.4471    0.0000 C   0  0  0  0  0  0  0  0  0  0  0  0
    7.2602   -3.0771    0.0000 C   0  0  0  0  0  0  0  0  0  0  0  0
   10.7923    0.9504    0.0000 C   0  0  0  0  0  0  0  0  0  0  0  0
    8.1263   -3.5771    0.0000 C   0  0  0  0  0  0  0  0  0  0  0  0
    6.3942   -3.5771    0.0000 C   0  0  0  0  0  0  0  0  0  0  0  0
    9.9205    2.4471    0.0000 C   0  0  0  0  0  0  0  0  0  0  0  0
   11.6564    1.4538    0.0000 C   0  0  0  0  0  0  0  0  0  0  0  0
   10.7846    2.9504    0.0000 C   0  0  0  0  0  0  0  0  0  0  0  0
   11.6525    2.4537    0.0000 C   0  0  0  0  0  0  0  0  0  0  0  0
    4.6414    2.0776    0.0000 H   0  0  0  0  0  0  0  0  0  0  0  0
    2.7258    0.5183    0.0000 H   0  0  0  0  0  0  0  0  0  0  0  0
    2.1082   -0.1041    0.0000 H   0  0  0  0  0  0  0  0  0  0  0  0
    2.7306   -0.7217    0.0000 H   0  0  0  0  0  0  0  0  0  0  0  0
    2.6934   -0.6579    0.0000 H   0  0  0  0  0  0  0  0  0  0  0  0
    2.9236   -1.5040    0.0000 H   0  0  0  0  0  0  0  0  0  0  0  0
    3.7696   -1.2738    0.0000 H   0  0  0  0  0  0  0  0  0  0  0  0
    1.8250    0.8951    0.0000 H   0  0  0  0  0  0  0  0  0  0  0  0
    2.0487    0.0472    0.0000 H   0  0  0  0  0  0  0  0  0  0  0  0
    2.8965    0.2709    0.0000 H   0  0  0  0  0  0  0  0  0  0  0  0
    3.9032    1.9991    0.0000 H   0  0  0  0  0  0  0  0  0  0  0  0
    3.6795    2.8469    0.0000 H   0  0  0  0  0  0  0  0  0  0  0  0
    2.8317    2.6232    0.0000 H   0  0  0  0  0  0  0  0  0  0  0  0
    1.4619    1.6425    0.0000 H   0  0  0  0  0  0  0  0  0  0  0  0
    5.7836   -1.4694    0.0000 H   0  0  0  0  0  0  0  0  0  0  0  0
    6.1822   -2.1597    0.0000 H   0  0  0  0  0  0  0  0  0  0  0  0
    2.5420    3.2583    0.0000 H   0  0  0  0  0  0  0  0  0  0  0  0
    1.4681    3.2625    0.0000 H   0  0  0  0  0  0  0  0  0  0  0  0
    7.7972   -1.7671    0.0000 H   0  0  0  0  0  0  0  0  0  0  0  0
    5.8573    2.7329    0.0000 H   0  0  0  0  0  0  0  0  0  0  0  0
    9.5960   -0.4100    0.0000 H   0  0  0  0  0  0  0  0  0  0  0  0
   10.7947    0.3304    0.0000 H   0  0  0  0  0  0  0  0  0  0  0  0
    7.8163   -4.1140    0.0000 H   0  0  0  0  0  0  0  0  0  0  0  0
    6.0842   -3.0401    0.0000 H   0  0  0  0  0  0  0  0  0  0  0  0
    5.8573   -3.8871    0.0000 H   0  0  0  0  0  0  0  0  0  0  0  0
    6.7042   -4.1140    0.0000 H   0  0  0  0  0  0  0  0  0  0  0  0
    8.6632   -3.8871    0.0000 H   0  0  0  0  0  0  0  0  0  0  0  0
    8.4363   -3.0401    0.0000 H   0  0  0  0  0  0  0  0  0  0  0  0
    9.3824    2.7550    0.0000 H   0  0  0  0  0  0  0  0  0  0  0  0
   10.7822    3.5704    0.0000 H   0  0  0  0  0  0  0  0  0  0  0  0
   12.5267    0.3371    0.0000 H   0  0  0  0  0  0  0  0  0  0  0  0
   12.5142    3.5771    0.0000 H   0  0  0  0  0  0  0  0  0  0  0  0
  1  7  1  0  0  0  0
  1 12  1  0  0  0  0
  2 20  1  0  0  0  0
  2 27  1  0  0  0  0
  3 19  1  0  0  0  0
  3 56  1  0  0  0  0
  4 23  2  0  0  0  0
  5 34  1  0  0  0  0
  5 67  1  0  0  0  0
  6 36  1  0  0  0  0
  6 68  1  0  0  0  0
  7  8  1  0  0  0  0
  7 13  1  0  0  0  0
  7 14  1  0  0  0  0
  8  9  1  0  0  0  0
  8 10  2  0  0  0  0
  9 15  1  0  0  0  0
  9 16  1  0  0  0  0
  9 18  1  0  0  0  0
 10 11  1  0  0  0  0
 10 37  1  0  0  0  0
 11 12  1  0  0  0  0
 11 19  2  0  0  0  0
 12 17  2  0  0  0  0
 13 41  1  0  0  0  0
 13 42  1  0  0  0  0
 13 43  1  0  0  0  0
 14 38  1  0  0  0  0
 14 39  1  0  0  0  0
 14 40  1  0  0  0  0
 15 47  1  0  0  0  0
 15 48  1  0  0  0  0
 15 49  1  0  0  0  0
 16 44  1  0  0  0  0
 16 45  1  0  0  0  0
 16 46  1  0  0  0  0
 17 20  1  0  0  0  0
 17 22  1  0  0  0  0
 18 24  2  0  0  0  0
 18 50  1  0  0  0  0
 19 21  1  0  0  0  0
 20 21  2  0  0  0  0
 21 23  1  0  0  0  0
 22 26  1  0  0  0  0
 22 51  1  0  0  0  0
 22 52  1  0  0  0  0
 23 25  1  0  0  0  0
 24 53  1  0  0  0  0
 24 54  1  0  0  0  0
 25 27  2  0  0  0  0
 25 28  1  0  0  0  0
 26 29  2  0  0  0  0
 26 55  1  0  0  0  0
 27 57  1  0  0  0  0
 28 30  2  0  0  0  0
 28 33  1  0  0  0  0
 29 31  1  0  0  0  0
 29 32  1  0  0  0  0
 30 34  1  0  0  0  0
 30 58  1  0  0  0  0
 31 59  1  0  0  0  0
 31 63  1  0  0  0  0
 31 64  1  0  0  0  0
 32 60  1  0  0  0  0
 32 61  1  0  0  0  0
 32 62  1  0  0  0  0
 33 35  2  0  0  0  0
 33 65  1  0  0  0  0
 34 36  2  0  0  0  0
 35 36  1  0  0  0  0
 35 66  1  0  0  0  0
M  END
>  <PUBCHEM_COMPOUND_CID>
10074228

>  <PUBCHEM_COMPOUND_CANONICALIZED>
1

>  <PUBCHEM_CACTVS_COMPLEXITY>
968

>  <PUBCHEM_CACTVS_HBOND_ACCEPTOR>
6

>  <PUBCHEM_CACTVS_HBOND_DONOR>
3

>  <PUBCHEM_CACTVS_ROTATABLE_BOND>
5

>  <PUBCHEM_CACTVS_SUBSKEYS>
AAADcfB4OAAAAAAAAAAAAAAAAAAAAAAAAAAwYIEAAAAAAACBQAAAGgAACAAADkSgmAIyBoAABgCIAqBSAAACCAAkIAAIiAEGiMgNJzaGNRqCeWGl4BUJuYeI7PzPIAADCAAIQABAAAYQABCAAAAAAAAAAA==

>  <PUBCHEM_IUPAC_OPENEYE_NAME>
7-(3,4-dihydroxyphenyl)-3-(1,1-dimethylallyl)-5-hydroxy-2,2-dimethyl-10-(3-methylbut-2-enyl)pyrano[3,2-g]chromen-6-one

>  <PUBCHEM_IUPAC_CAS_NAME>
7-(3,4-dihydroxyphenyl)-5-hydroxy-2,2-dimethyl-3-(2-methylbut-3-en-2-yl)-10-(3-methylbut-2-enyl)-6-pyrano[3,2-g][1]benzopyranone

>  <PUBCHEM_IUPAC_NAME>
7-(3,4-dihydroxyphenyl)-5-hydroxy-2,2-dimethyl-3-(2-methylbut-3-en-2-yl)-10-(3-methylbut-2-enyl)pyrano[3,2-g]chromen-6-one

>  <PUBCHEM_IUPAC_SYSTEMATIC_NAME>
7-[3,4-bis(oxidanyl)phenyl]-2,2-dimethyl-3-(2-methylbut-3-en-2-yl)-10-(3-methylbut-2-enyl)-5-oxidanyl-pyrano[3,2-g]chromen-6-one

>  <PUBCHEM_IUPAC_TRADITIONAL_NAME>
7-(3,4-dihydroxyphenyl)-3-(1,1-dimethylallyl)-5-hydroxy-2,2-dimethyl-10-(3-methylbut-2-enyl)pyrano[3,2-g]chromen-6-one

>  <PUBCHEM_IUPAC_INCHI>
InChI=1S/C30H32O6/c1-8-29(4,5)23-14-19-25(33)24-26(34)20(17-10-12-21(31)22(32)13-17)15-35-28(24)18(11-9-16(2)3)27(19)36-30(23,6)7/h8-10,12-15,31-33H,1,11H2,2-7H3

>  <PUBCHEM_IUPAC_INCHIKEY>
VBTMMYSERQFPPK-UHFFFAOYSA-N

>  <PUBCHEM_XLOGP3_AA>
7

>  <PUBCHEM_EXACT_MASS>
488.22

>  <PUBCHEM_MOLECULAR_FORMULA>
C30H32O6

>  <PUBCHEM_MOLECULAR_WEIGHT>
488.58

>  <PUBCHEM_OPENEYE_CAN_SMILES>
CC(=CCC1=C2C(=C(C3=C1OC=C(C3=O)C4=CC(=C(C=C4)O)O)O)C=C(C(O2)(C)C)C(C)(C)C=C)C

>  <PUBCHEM_OPENEYE_ISO_SMILES>
CC(=CCC1=C2C(=C(C3=C1OC=C(C3=O)C4=CC(=C(C=C4)O)O)O)C=C(C(O2)(C)C)C(C)(C)C=C)C

>  <PUBCHEM_CACTVS_TPSA>
96.2

>  <PUBCHEM_MONOISOTOPIC_WEIGHT>
488.22

>  <PUBCHEM_TOTAL_CHARGE>
0

>  <PUBCHEM_HEAVY_ATOM_COUNT>
36

>  <PUBCHEM_ATOM_DEF_STEREO_COUNT>
0

>  <PUBCHEM_ATOM_UDEF_STEREO_COUNT>
0

>  <PUBCHEM_BOND_DEF_STEREO_COUNT>
0

>  <PUBCHEM_BOND_UDEF_STEREO_COUNT>
0

>  <PUBCHEM_ISOTOPIC_ATOM_COUNT>
0

>  <PUBCHEM_COMPONENT_COUNT>
1

>  <PUBCHEM_CACTVS_TAUTO_COUNT>
50

>  <PUBCHEM_COORDINATE_TYPE>
1
5
255

>  <PUBCHEM_BONDANNOTATIONS>
11  12  8
11  19  8
12  17  8
17  20  8
19  21  8
2  20  8
2  27  8
20  21  8
21  23  8
23  25  8
25  27  8
28  30  8
28  33  8
30  34  8
33  35  8
34  36  8
35  36  8

$$$$
