10072454
 OpenBabel06101807152D

 59 62  0  0  1  0  0  0  0  0999 V2000
    7.2342    0.4818    0.0000 O   0  0  0  0  0  0  0  0  0  0  0  0
    4.5841   -1.0666    0.0000 O   0  0  0  0  0  0  0  0  0  0  0  0
    4.6361    1.9818    0.0000 O   0  0  0  0  0  0  0  0  0  0  0  0
    9.0201    3.5270    0.0000 O   0  0  0  0  0  0  0  0  0  0  0  0
    5.4803    3.5133    0.0000 O   0  0  0  0  0  0  0  0  0  0  0  0
    8.2246   -3.1551    0.0000 O   0  0  0  0  0  0  0  0  0  0  0  0
    6.4213   -4.2149    0.0000 O   0  0  0  0  0  0  0  0  0  0  0  0
    5.5021    0.4818    0.0000 C   0  0  0  0  0  0  0  0  0  0  0  0
    4.5921   -0.0250    0.0000 C   0  0  3  0  0  0  0  0  0  0  0  0
    6.3682   -0.0182    0.0000 C   0  0  0  0  0  0  0  0  0  0  0  0
    6.3682    1.9818    0.0000 C   0  0  0  0  0  0  0  0  0  0  0  0
    7.2342    1.4818    0.0000 C   0  0  0  0  0  0  0  0  0  0  0  0
    6.3842   -1.0597    0.0000 C   0  0  0  0  0  0  0  0  0  0  0  0
    5.5021    1.4818    0.0000 C   0  0  0  0  0  0  0  0  0  0  0  0
    8.1442    1.9887    0.0000 C   0  0  0  0  0  0  0  0  0  0  0  0
    5.4862   -1.5874    0.0000 C   0  0  0  0  0  0  0  0  0  0  0  0
    3.7319    0.4850    0.0000 C   0  0  0  0  0  0  0  0  0  0  0  0
    6.3521    3.0234    0.0000 C   0  0  0  0  0  0  0  0  0  0  0  0
    9.0044    1.4787    0.0000 C   0  0  0  0  0  0  0  0  0  0  0  0
    8.1522    3.0303    0.0000 C   0  0  0  0  0  0  0  0  0  0  0  0
    7.3361   -1.5803    0.0000 C   0  0  0  0  0  0  0  0  0  0  0  0
    7.2501    3.5511    0.0000 C   0  0  0  0  0  0  0  0  0  0  0  0
    5.4778   -2.6724    0.0000 C   0  0  0  0  0  0  0  0  0  0  0  0
    2.8602   -0.0050    0.0000 C   0  0  0  0  0  0  0  0  0  0  0  0
    7.3529   -2.6652    0.0000 C   0  0  0  0  0  0  0  0  0  0  0  0
    6.4174   -3.2149    0.0000 C   0  0  0  0  0  0  0  0  0  0  0  0
    9.8761    1.9687    0.0000 C   0  0  0  0  0  0  0  0  0  0  0  0
    2.0000    0.5050    0.0000 C   0  0  0  0  0  0  0  0  0  0  0  0
    2.8486   -1.0049    0.0000 C   0  0  0  0  0  0  0  0  0  0  0  0
   10.7363    1.4587    0.0000 C   0  0  0  0  0  0  0  0  0  0  0  0
    9.0240    4.5269    0.0000 C   0  0  0  0  0  0  0  0  0  0  0  0
   11.6080    1.9486    0.0000 C   0  0  0  0  0  0  0  0  0  0  0  0
   10.7247    0.4587    0.0000 C   0  0  0  0  0  0  0  0  0  0  0  0
    4.0522   -0.3298    0.0000 H   0  0  0  0  0  0  0  0  0  0  0  0
    3.7391    1.1049    0.0000 H   0  0  0  0  0  0  0  0  0  0  0  0
    8.6004    1.0084    0.0000 H   0  0  0  0  0  0  0  0  0  0  0  0
    9.3974    0.9992    0.0000 H   0  0  0  0  0  0  0  0  0  0  0  0
    7.8670   -1.2600    0.0000 H   0  0  0  0  0  0  0  0  0  0  0  0
    7.2477    4.1711    0.0000 H   0  0  0  0  0  0  0  0  0  0  0  0
    4.9397   -2.9803    0.0000 H   0  0  0  0  0  0  0  0  0  0  0  0
    9.8833    2.5886    0.0000 H   0  0  0  0  0  0  0  0  0  0  0  0
    2.3162    1.0383    0.0000 H   0  0  0  0  0  0  0  0  0  0  0  0
    1.4667    0.8212    0.0000 H   0  0  0  0  0  0  0  0  0  0  0  0
    1.6838   -0.0283    0.0000 H   0  0  0  0  0  0  0  0  0  0  0  0
    2.2287   -0.9977    0.0000 H   0  0  0  0  0  0  0  0  0  0  0  0
    2.8414   -1.6249    0.0000 H   0  0  0  0  0  0  0  0  0  0  0  0
    3.4686   -1.0121    0.0000 H   0  0  0  0  0  0  0  0  0  0  0  0
    5.4732    4.1333    0.0000 H   0  0  0  0  0  0  0  0  0  0  0  0
    9.6440    4.5245    0.0000 H   0  0  0  0  0  0  0  0  0  0  0  0
    9.0264    5.1469    0.0000 H   0  0  0  0  0  0  0  0  0  0  0  0
    8.4040    4.5293    0.0000 H   0  0  0  0  0  0  0  0  0  0  0  0
    8.2318   -3.7751    0.0000 H   0  0  0  0  0  0  0  0  0  0  0  0
    5.8856   -4.5269    0.0000 H   0  0  0  0  0  0  0  0  0  0  0  0
   11.9118    1.4082    0.0000 H   0  0  0  0  0  0  0  0  0  0  0  0
   12.1485    2.2524    0.0000 H   0  0  0  0  0  0  0  0  0  0  0  0
   11.3043    2.4891    0.0000 H   0  0  0  0  0  0  0  0  0  0  0  0
   10.1048    0.4659    0.0000 H   0  0  0  0  0  0  0  0  0  0  0  0
   10.7176   -0.1612    0.0000 H   0  0  0  0  0  0  0  0  0  0  0  0
   11.3447    0.4516    0.0000 H   0  0  0  0  0  0  0  0  0  0  0  0
  1 10  1  0  0  0  0
  1 12  1  0  0  0  0
  2  9  1  0  0  0  0
  2 16  1  0  0  0  0
  3 14  2  0  0  0  0
  4 20  1  0  0  0  0
  4 31  1  0  0  0  0
  5 18  1  0  0  0  0
  5 48  1  0  0  0  0
  6 25  1  0  0  0  0
  6 52  1  0  0  0  0
  7 26  1  0  0  0  0
  7 53  1  0  0  0  0
  8  9  1  0  0  0  0
  8 10  2  0  0  0  0
  8 14  1  0  0  0  0
  9 17  1  0  0  0  0
  9 34  1  0  0  0  0
 10 13  1  0  0  0  0
 11 12  2  0  0  0  0
 11 14  1  0  0  0  0
 11 18  1  0  0  0  0
 12 15  1  0  0  0  0
 13 16  1  0  0  0  0
 13 21  2  0  0  0  0
 15 19  1  0  0  0  0
 15 20  2  0  0  0  0
 16 23  2  0  0  0  0
 17 24  2  0  0  0  0
 17 35  1  0  0  0  0
 18 22  2  0  0  0  0
 19 27  1  0  0  0  0
 19 36  1  0  0  0  0
 19 37  1  0  0  0  0
 20 22  1  0  0  0  0
 21 25  1  0  0  0  0
 21 38  1  0  0  0  0
 22 39  1  0  0  0  0
 23 26  1  0  0  0  0
 23 40  1  0  0  0  0
 24 28  1  0  0  0  0
 24 29  1  0  0  0  0
 25 26  2  0  0  0  0
 27 30  2  0  0  0  0
 27 41  1  0  0  0  0
 28 42  1  0  0  0  0
 28 43  1  0  0  0  0
 28 44  1  0  0  0  0
 29 45  1  0  0  0  0
 29 46  1  0  0  0  0
 29 47  1  0  0  0  0
 30 32  1  0  0  0  0
 30 33  1  0  0  0  0
 31 49  1  0  0  0  0
 31 50  1  0  0  0  0
 31 51  1  0  0  0  0
 32 54  1  0  0  0  0
 32 55  1  0  0  0  0
 32 56  1  0  0  0  0
 33 57  1  0  0  0  0
 33 58  1  0  0  0  0
 33 59  1  0  0  0  0
M  END
>  <PUBCHEM_COMPOUND_CID>
10072454

>  <PUBCHEM_COMPOUND_CANONICALIZED>
1

>  <PUBCHEM_CACTVS_COMPLEXITY>
851

>  <PUBCHEM_CACTVS_HBOND_ACCEPTOR>
7

>  <PUBCHEM_CACTVS_HBOND_DONOR>
3

>  <PUBCHEM_CACTVS_ROTATABLE_BOND>
4

>  <PUBCHEM_CACTVS_SUBSKEYS>
AAADceB4OAAAAAAAAAAAAAAAAAAAAAAAAAAwYIEAAAAAAACRQAAAGgAACAAADBSgmAIyBoAABgCIAqBSAAACCAAkIAAAiAEGiMgNJzaGNRqCeWGl4BUJuQfI7PzOIQADCAAIQABCAAYQABCAAAAAAAAAAA==

>  <PUBCHEM_IUPAC_OPENEYE_NAME>
2,3,8-trihydroxy-10-methoxy-11-(3-methylbut-2-enyl)-6-(2-methylprop-1-enyl)-6H-chromeno[4,3-b]chromen-7-one

>  <PUBCHEM_IUPAC_CAS_NAME>
2,3,8-trihydroxy-10-methoxy-11-(3-methylbut-2-enyl)-6-(2-methylprop-1-enyl)-6H-[1]benzopyrano[4,3-b][1]benzopyran-7-one

>  <PUBCHEM_IUPAC_NAME>
2,3,8-trihydroxy-10-methoxy-11-(3-methylbut-2-enyl)-6-(2-methylprop-1-enyl)-6H-chromeno[4,3-b]chromen-7-one

>  <PUBCHEM_IUPAC_SYSTEMATIC_NAME>
10-methoxy-11-(3-methylbut-2-enyl)-6-(2-methylprop-1-enyl)-2,3,8-tris(oxidanyl)-6H-chromeno[4,3-b]chromen-7-one

>  <PUBCHEM_IUPAC_TRADITIONAL_NAME>
2,3,8-trihydroxy-10-methoxy-11-(3-methylbut-2-enyl)-6-(2-methylprop-1-enyl)-6H-chromeno[4,3-b]chromen-7-one

>  <PUBCHEM_IUPAC_INCHI>
InChI=1S/C26H26O7/c1-12(2)6-7-14-19(31-5)11-18(29)22-24(30)23-21(8-13(3)4)32-20-10-17(28)16(27)9-15(20)26(23)33-25(14)22/h6,8-11,21,27-29H,7H2,1-5H3

>  <PUBCHEM_IUPAC_INCHIKEY>
FIYIGIGIGDUJQB-UHFFFAOYSA-N

>  <PUBCHEM_XLOGP3_AA>
5.8

>  <PUBCHEM_EXACT_MASS>
450.168

>  <PUBCHEM_MOLECULAR_FORMULA>
C26H26O7

>  <PUBCHEM_MOLECULAR_WEIGHT>
450.487

>  <PUBCHEM_OPENEYE_CAN_SMILES>
CC(=CCC1=C(C=C(C2=C1OC3=C(C2=O)C(OC4=CC(=C(C=C43)O)O)C=C(C)C)O)OC)C

>  <PUBCHEM_OPENEYE_ISO_SMILES>
CC(=CCC1=C(C=C(C2=C1OC3=C(C2=O)C(OC4=CC(=C(C=C43)O)O)C=C(C)C)O)OC)C

>  <PUBCHEM_CACTVS_TPSA>
105

>  <PUBCHEM_MONOISOTOPIC_WEIGHT>
450.168

>  <PUBCHEM_TOTAL_CHARGE>
0

>  <PUBCHEM_HEAVY_ATOM_COUNT>
33

>  <PUBCHEM_ATOM_DEF_STEREO_COUNT>
0

>  <PUBCHEM_ATOM_UDEF_STEREO_COUNT>
1

>  <PUBCHEM_BOND_DEF_STEREO_COUNT>
0

>  <PUBCHEM_BOND_UDEF_STEREO_COUNT>
0

>  <PUBCHEM_ISOTOPIC_ATOM_COUNT>
0

>  <PUBCHEM_COMPONENT_COUNT>
1

>  <PUBCHEM_CACTVS_TAUTO_COUNT>
58

>  <PUBCHEM_COORDINATE_TYPE>
1
5
255

>  <PUBCHEM_BONDANNOTATIONS>
1  10  8
1  12  8
11  12  8
11  14  8
11  18  8
12  15  8
13  16  8
13  21  8
15  20  8
16  23  8
18  22  8
20  22  8
21  25  8
23  26  8
25  26  8
8  10  8
8  14  8
9  17  3

$$$$
