100751
 OpenBabel06101807152D

 37 41  0  0  0  0  0  0  0  0999 V2000
    7.0301   -2.2777    0.0000 O   0  0  0  0  0  0  0  0  0  0  0  0
    2.5805   -0.5133    0.0000 O   0  0  0  0  0  0  0  0  0  0  0  0
    2.5867    1.0961    0.0000 O   0  0  0  0  0  0  0  0  0  0  0  0
   10.6023   -2.0478    0.0000 O   0  0  0  0  0  0  0  0  0  0  0  0
    6.1317    1.2777    0.0000 O   0  0  0  0  0  0  0  0  0  0  0  0
    7.0416    0.7915    0.0000 O   0  0  0  0  0  0  0  0  0  0  0  0
    5.2599   -0.2189    0.0000 C   0  0  0  0  0  0  0  0  0  0  0  0
    6.1240   -0.7223    0.0000 C   0  0  0  0  0  0  0  0  0  0  0  0
    7.9240   -0.7431    0.0000 C   0  0  0  0  0  0  0  0  0  0  0  0
    7.9240   -1.7431    0.0000 C   0  0  0  0  0  0  0  0  0  0  0  0
    7.0301   -0.2084    0.0000 C   0  0  0  0  0  0  0  0  0  0  0  0
    5.2638    0.7811    0.0000 C   0  0  0  0  0  0  0  0  0  0  0  0
    9.6561   -0.7431    0.0000 C   0  0  0  0  0  0  0  0  0  0  0  0
    3.5279   -0.2122    0.0000 C   0  0  0  0  0  0  0  0  0  0  0  0
    4.3920   -0.7156    0.0000 C   0  0  0  0  0  0  0  0  0  0  0  0
    8.7901   -0.2431    0.0000 C   0  0  0  0  0  0  0  0  0  0  0  0
    3.5317    0.7878    0.0000 C   0  0  0  0  0  0  0  0  0  0  0  0
    9.6561   -1.7431    0.0000 C   0  0  0  0  0  0  0  0  0  0  0  0
    8.7901   -2.2431    0.0000 C   0  0  0  0  0  0  0  0  0  0  0  0
    4.3997    1.2844    0.0000 C   0  0  0  0  0  0  0  0  0  0  0  0
    6.1240   -1.7639    0.0000 C   0  0  0  0  0  0  0  0  0  0  0  0
   10.6023   -0.4383    0.0000 C   0  0  0  0  0  0  0  0  0  0  0  0
    2.0000    0.2937    0.0000 C   0  0  0  0  0  0  0  0  0  0  0  0
   11.1859   -1.2431    0.0000 C   0  0  0  0  0  0  0  0  0  0  0  0
    6.1356    2.2777    0.0000 C   0  0  0  0  0  0  0  0  0  0  0  0
    4.3896   -1.3356    0.0000 H   0  0  0  0  0  0  0  0  0  0  0  0
    8.7901    0.3769    0.0000 H   0  0  0  0  0  0  0  0  0  0  0  0
    8.7901   -2.8631    0.0000 H   0  0  0  0  0  0  0  0  0  0  0  0
    4.4021    1.9044    0.0000 H   0  0  0  0  0  0  0  0  0  0  0  0
    5.5883   -2.0760    0.0000 H   0  0  0  0  0  0  0  0  0  0  0  0
   10.7949    0.1510    0.0000 H   0  0  0  0  0  0  0  0  0  0  0  0
    1.5407    0.7102    0.0000 H   0  0  0  0  0  0  0  0  0  0  0  0
    1.5375   -0.1193    0.0000 H   0  0  0  0  0  0  0  0  0  0  0  0
   11.8059   -1.2431    0.0000 H   0  0  0  0  0  0  0  0  0  0  0  0
    6.7556    2.2753    0.0000 H   0  0  0  0  0  0  0  0  0  0  0  0
    6.1380    2.8977    0.0000 H   0  0  0  0  0  0  0  0  0  0  0  0
    5.5156    2.2801    0.0000 H   0  0  0  0  0  0  0  0  0  0  0  0
  1 10  1  0  0  0  0
  1 21  1  0  0  0  0
  2 14  1  0  0  0  0
  2 23  1  0  0  0  0
  3 17  1  0  0  0  0
  3 23  1  0  0  0  0
  4 18  1  0  0  0  0
  4 24  1  0  0  0  0
  5 12  1  0  0  0  0
  5 25  1  0  0  0  0
  6 11  2  0  0  0  0
  7  8  1  0  0  0  0
  7 12  1  0  0  0  0
  7 15  2  0  0  0  0
  8 11  1  0  0  0  0
  8 21  2  0  0  0  0
  9 10  2  0  0  0  0
  9 11  1  0  0  0  0
  9 16  1  0  0  0  0
 10 19  1  0  0  0  0
 12 20  2  0  0  0  0
 13 16  2  0  0  0  0
 13 18  1  0  0  0  0
 13 22  1  0  0  0  0
 14 15  1  0  0  0  0
 14 17  2  0  0  0  0
 15 26  1  0  0  0  0
 16 27  1  0  0  0  0
 17 20  1  0  0  0  0
 18 19  2  0  0  0  0
 19 28  1  0  0  0  0
 20 29  1  0  0  0  0
 21 30  1  0  0  0  0
 22 24  2  0  0  0  0
 22 31  1  0  0  0  0
 23 32  1  0  0  0  0
 23 33  1  0  0  0  0
 24 34  1  0  0  0  0
 25 35  1  0  0  0  0
 25 36  1  0  0  0  0
 25 37  1  0  0  0  0
M  END
>  <PUBCHEM_COMPOUND_CID>
100751

>  <PUBCHEM_COMPOUND_CANONICALIZED>
1

>  <PUBCHEM_CACTVS_COMPLEXITY>
574

>  <PUBCHEM_CACTVS_HBOND_ACCEPTOR>
6

>  <PUBCHEM_CACTVS_HBOND_DONOR>
0

>  <PUBCHEM_CACTVS_ROTATABLE_BOND>
2

>  <PUBCHEM_CACTVS_SUBSKEYS>
AAADccB4OAAAAAAAAAAAAAAAAAAAASJAAAAwYIAAAAAAAEiB9AAAGgAAAAAADASgmAMyDsAABECIAqhSgAACCAAkIAAIiAEGiMgdJzaENRqiOWKl4BUOqYfK7vzuIQADCAAIQABCAAYQABCAAAAAAAAAAA==

>  <PUBCHEM_IUPAC_OPENEYE_NAME>
6-(6-methoxy-1,3-benzodioxol-5-yl)furo[3,2-g]chromen-5-one

>  <PUBCHEM_IUPAC_CAS_NAME>
6-(6-methoxy-1,3-benzodioxol-5-yl)-5-furo[3,2-g][1]benzopyranone

>  <PUBCHEM_IUPAC_NAME>
6-(6-methoxy-1,3-benzodioxol-5-yl)furo[3,2-g]chromen-5-one

>  <PUBCHEM_IUPAC_SYSTEMATIC_NAME>
6-(6-methoxy-1,3-benzodioxol-5-yl)furo[3,2-g]chromen-5-one

>  <PUBCHEM_IUPAC_TRADITIONAL_NAME>
6-(6-methoxy-1,3-benzodioxol-5-yl)furo[3,2-g]chromen-5-one

>  <PUBCHEM_IUPAC_INCHI>
InChI=1S/C19H12O6/c1-21-15-7-18-17(24-9-25-18)5-11(15)13-8-23-16-6-14-10(2-3-22-14)4-12(16)19(13)20/h2-8H,9H2,1H3

>  <PUBCHEM_IUPAC_INCHIKEY>
HTTTWVGBBAOUEM-UHFFFAOYSA-N

>  <PUBCHEM_XLOGP3_AA>
3.4

>  <PUBCHEM_EXACT_MASS>
336.063

>  <PUBCHEM_MOLECULAR_FORMULA>
C19H12O6

>  <PUBCHEM_MOLECULAR_WEIGHT>
336.299

>  <PUBCHEM_OPENEYE_CAN_SMILES>
COC1=CC2=C(C=C1C3=COC4=C(C3=O)C=C5C=COC5=C4)OCO2

>  <PUBCHEM_OPENEYE_ISO_SMILES>
COC1=CC2=C(C=C1C3=COC4=C(C3=O)C=C5C=COC5=C4)OCO2

>  <PUBCHEM_CACTVS_TPSA>
67.1

>  <PUBCHEM_MONOISOTOPIC_WEIGHT>
336.063

>  <PUBCHEM_TOTAL_CHARGE>
0

>  <PUBCHEM_HEAVY_ATOM_COUNT>
25

>  <PUBCHEM_ATOM_DEF_STEREO_COUNT>
0

>  <PUBCHEM_ATOM_UDEF_STEREO_COUNT>
0

>  <PUBCHEM_BOND_DEF_STEREO_COUNT>
0

>  <PUBCHEM_BOND_UDEF_STEREO_COUNT>
0

>  <PUBCHEM_ISOTOPIC_ATOM_COUNT>
0

>  <PUBCHEM_COMPONENT_COUNT>
1

>  <PUBCHEM_CACTVS_TAUTO_COUNT>
1

>  <PUBCHEM_COORDINATE_TYPE>
1
5
255

>  <PUBCHEM_BONDANNOTATIONS>
1  10  8
1  21  8
10  19  8
12  20  8
13  16  8
13  18  8
13  22  8
14  15  8
14  17  8
17  20  8
18  19  8
22  24  8
4  18  8
4  24  8
7  12  8
7  15  8
8  11  8
8  21  8
9  10  8
9  11  8
9  16  8

$$$$
