10084612
 OpenBabel06101807152D

 36 38  0  0  0  0  0  0  0  0999 V2000
    5.2258   -1.3184    0.0000 O   0  0  0  0  0  0  0  0  0  0  0  0
    7.2145   -3.1535    0.0000 O   0  0  0  0  0  0  0  0  0  0  0  0
    5.0166    2.6535    0.0000 O   0  0  0  0  0  0  0  0  0  0  0  0
    2.0000    0.6535    0.0000 O   0  0  0  0  0  0  0  0  0  0  0  0
    6.7145   -2.2874    0.0000 C   0  0  0  0  0  0  0  0  0  0  0  0
    6.2145   -1.4214    0.0000 C   0  0  0  0  0  0  0  0  0  0  0  0
    5.8826    0.1535    0.0000 C   0  0  0  0  0  0  0  0  0  0  0  0
    5.0166   -0.3465    0.0000 C   0  0  0  0  0  0  0  0  0  0  0  0
    6.6196   -0.5136    0.0000 C   0  0  0  0  0  0  0  0  0  0  0  0
    4.1506    0.1535    0.0000 C   0  0  0  0  0  0  0  0  0  0  0  0
    7.5806   -1.7874    0.0000 C   0  0  0  0  0  0  0  0  0  0  0  0
    5.8485   -2.7874    0.0000 C   0  0  0  0  0  0  0  0  0  0  0  0
    4.1506    1.1535    0.0000 C   0  0  0  0  0  0  0  0  0  0  0  0
    5.8826    1.1535    0.0000 C   0  0  0  0  0  0  0  0  0  0  0  0
    5.0166    1.6535    0.0000 C   0  0  0  0  0  0  0  0  0  0  0  0
    3.3797   -0.4529    0.0000 C   0  0  0  0  0  0  0  0  0  0  0  0
    3.3797    1.7598    0.0000 C   0  0  0  0  0  0  0  0  0  0  0  0
    2.4244   -0.2308    0.0000 C   0  0  0  0  0  0  0  0  0  0  0  0
    2.4244    1.5377    0.0000 C   0  0  0  0  0  0  0  0  0  0  0  0
    5.8826    3.1535    0.0000 C   0  0  0  0  0  0  0  0  0  0  0  0
    7.2263   -0.3858    0.0000 H   0  0  0  0  0  0  0  0  0  0  0  0
    5.5385   -2.2505    0.0000 H   0  0  0  0  0  0  0  0  0  0  0  0
    5.3116   -3.0974    0.0000 H   0  0  0  0  0  0  0  0  0  0  0  0
    7.8906   -2.3244    0.0000 H   0  0  0  0  0  0  0  0  0  0  0  0
    8.1175   -1.4774    0.0000 H   0  0  0  0  0  0  0  0  0  0  0  0
    7.2706   -1.2505    0.0000 H   0  0  0  0  0  0  0  0  0  0  0  0
    6.1585   -3.3244    0.0000 H   0  0  0  0  0  0  0  0  0  0  0  0
    6.4196    1.4635    0.0000 H   0  0  0  0  0  0  0  0  0  0  0  0
    3.5144   -1.0581    0.0000 H   0  0  0  0  0  0  0  0  0  0  0  0
    7.8345   -3.1535    0.0000 H   0  0  0  0  0  0  0  0  0  0  0  0
    3.5144    2.3650    0.0000 H   0  0  0  0  0  0  0  0  0  0  0  0
    2.0365   -0.7145    0.0000 H   0  0  0  0  0  0  0  0  0  0  0  0
    2.0365    2.0214    0.0000 H   0  0  0  0  0  0  0  0  0  0  0  0
    6.1926    2.6165    0.0000 H   0  0  0  0  0  0  0  0  0  0  0  0
    6.4196    3.4635    0.0000 H   0  0  0  0  0  0  0  0  0  0  0  0
    5.5726    3.6904    0.0000 H   0  0  0  0  0  0  0  0  0  0  0  0
  1  6  1  0  0  0  0
  1  8  1  0  0  0  0
  2  5  1  0  0  0  0
  2 30  1  0  0  0  0
  3 15  1  0  0  0  0
  3 20  1  0  0  0  0
  4 18  1  0  0  0  0
  4 19  1  0  0  0  0
  5  6  1  0  0  0  0
  5 11  1  0  0  0  0
  5 12  1  0  0  0  0
  6  9  2  0  0  0  0
  7  8  1  0  0  0  0
  7  9  1  0  0  0  0
  7 14  2  0  0  0  0
  8 10  2  0  0  0  0
  9 21  1  0  0  0  0
 10 13  1  0  0  0  0
 10 16  1  0  0  0  0
 11 24  1  0  0  0  0
 11 25  1  0  0  0  0
 11 26  1  0  0  0  0
 12 22  1  0  0  0  0
 12 23  1  0  0  0  0
 12 27  1  0  0  0  0
 13 15  2  0  0  0  0
 13 17  1  0  0  0  0
 14 15  1  0  0  0  0
 14 28  1  0  0  0  0
 16 18  2  0  0  0  0
 16 29  1  0  0  0  0
 17 19  2  0  0  0  0
 17 31  1  0  0  0  0
 18 32  1  0  0  0  0
 19 33  1  0  0  0  0
 20 34  1  0  0  0  0
 20 35  1  0  0  0  0
 20 36  1  0  0  0  0
M  END
>  <PUBCHEM_COMPOUND_CID>
10084612

>  <PUBCHEM_COMPOUND_CANONICALIZED>
1

>  <PUBCHEM_CACTVS_COMPLEXITY>
415

>  <PUBCHEM_CACTVS_HBOND_ACCEPTOR>
4

>  <PUBCHEM_CACTVS_HBOND_DONOR>
1

>  <PUBCHEM_CACTVS_ROTATABLE_BOND>
2

>  <PUBCHEM_CACTVS_SUBSKEYS>
AAADceB4OAAAAAAAAAAAAAAAAAAAASAAAAAwAAAABAAAAEgB8AAAGgAACAAADESgmAIyBsAABkCIAqBSAAICCAAkIAAIiAFGCMgNJjKENRqCeSCkwBELuYfK7PzOwQADAAAYAACCAAYAADAAAAAAAAAAAA==

>  <PUBCHEM_IUPAC_OPENEYE_NAME>
2-(5-methoxyfuro[3,2-i][3]benzoxepin-2-yl)propan-2-ol

>  <PUBCHEM_IUPAC_CAS_NAME>
2-(5-methoxy-2-furo[3,2-i][3]benzoxepinyl)-2-propanol

>  <PUBCHEM_IUPAC_NAME>
2-(5-methoxyfuro[3,2-i][3]benzoxepin-2-yl)propan-2-ol

>  <PUBCHEM_IUPAC_SYSTEMATIC_NAME>
2-(5-methoxyfuro[3,2-i][3]benzoxepin-2-yl)propan-2-ol

>  <PUBCHEM_IUPAC_TRADITIONAL_NAME>
2-(5-methoxyfuro[3,2-i][3]benzoxepin-2-yl)propan-2-ol

>  <PUBCHEM_IUPAC_INCHI>
InChI=1S/C16H16O4/c1-16(2,17)14-9-10-8-13(18-3)11-4-6-19-7-5-12(11)15(10)20-14/h4-9,17H,1-3H3

>  <PUBCHEM_IUPAC_INCHIKEY>
KXZSEWYHQCKWLI-UHFFFAOYSA-N

>  <PUBCHEM_XLOGP3_AA>
2.6

>  <PUBCHEM_EXACT_MASS>
272.105

>  <PUBCHEM_MOLECULAR_FORMULA>
C16H16O4

>  <PUBCHEM_MOLECULAR_WEIGHT>
272.3

>  <PUBCHEM_OPENEYE_CAN_SMILES>
CC(C)(C1=CC2=CC(=C3C=COC=CC3=C2O1)OC)O

>  <PUBCHEM_OPENEYE_ISO_SMILES>
CC(C)(C1=CC2=CC(=C3C=COC=CC3=C2O1)OC)O

>  <PUBCHEM_CACTVS_TPSA>
51.8

>  <PUBCHEM_MONOISOTOPIC_WEIGHT>
272.105

>  <PUBCHEM_TOTAL_CHARGE>
0

>  <PUBCHEM_HEAVY_ATOM_COUNT>
20

>  <PUBCHEM_ATOM_DEF_STEREO_COUNT>
0

>  <PUBCHEM_ATOM_UDEF_STEREO_COUNT>
0

>  <PUBCHEM_BOND_DEF_STEREO_COUNT>
0

>  <PUBCHEM_BOND_UDEF_STEREO_COUNT>
0

>  <PUBCHEM_ISOTOPIC_ATOM_COUNT>
0

>  <PUBCHEM_COMPONENT_COUNT>
1

>  <PUBCHEM_CACTVS_TAUTO_COUNT>
1

>  <PUBCHEM_COORDINATE_TYPE>
1
5
255

>  <PUBCHEM_BONDANNOTATIONS>
1  6  8
1  8  8
10  13  8
13  15  8
14  15  8
6  9  8
7  14  8
7  8  8
7  9  8
8  10  8

$$$$
