10086169
 OpenBabel06101807152D

 42 43  0  0  0  0  0  0  0  0999 V2000
    4.2690   -3.5000    0.0000 O   0  0  0  0  0  0  0  0  0  0  0  0
    2.5369   -0.5000    0.0000 O   0  0  0  0  0  0  0  0  0  0  0  0
    6.0010   -0.5000    0.0000 O   0  0  0  0  0  0  0  0  0  0  0  0
    3.4030    1.0000    0.0000 O   0  0  0  0  0  0  0  0  0  0  0  0
    4.2690   -0.5000    0.0000 C   0  0  0  0  0  0  0  0  0  0  0  0
    5.1350    1.0000    0.0000 C   0  0  0  0  0  0  0  0  0  0  0  0
    5.1350    2.0000    0.0000 C   0  0  0  0  0  0  0  0  0  0  0  0
    5.1350   -2.0000    0.0000 C   0  0  0  0  0  0  0  0  0  0  0  0
    3.4030   -2.0000    0.0000 C   0  0  0  0  0  0  0  0  0  0  0  0
    4.2690    0.5000    0.0000 C   0  0  0  0  0  0  0  0  0  0  0  0
    3.4030   -1.0000    0.0000 C   0  0  0  0  0  0  0  0  0  0  0  0
    5.1350   -1.0000    0.0000 C   0  0  0  0  0  0  0  0  0  0  0  0
    4.2690   -2.5000    0.0000 C   0  0  0  0  0  0  0  0  0  0  0  0
    6.0010    2.5000    0.0000 C   0  0  0  0  0  0  0  0  0  0  0  0
    6.0010   -2.5000    0.0000 C   0  0  0  0  0  0  0  0  0  0  0  0
    2.5369   -2.5000    0.0000 C   0  0  0  0  0  0  0  0  0  0  0  0
    6.8671    2.0000    0.0000 C   0  0  0  0  0  0  0  0  0  0  0  0
    6.0010    3.5000    0.0000 C   0  0  0  0  0  0  0  0  0  0  0  0
    7.7331    2.5000    0.0000 C   0  0  0  0  0  0  0  0  0  0  0  0
    6.8671    4.0000    0.0000 C   0  0  0  0  0  0  0  0  0  0  0  0
    7.7331    3.5000    0.0000 C   0  0  0  0  0  0  0  0  0  0  0  0
    3.4030   -4.0000    0.0000 C   0  0  0  0  0  0  0  0  0  0  0  0
    5.3471    0.4174    0.0000 H   0  0  0  0  0  0  0  0  0  0  0  0
    5.7456    1.1077    0.0000 H   0  0  0  0  0  0  0  0  0  0  0  0
    4.9230    2.5826    0.0000 H   0  0  0  0  0  0  0  0  0  0  0  0
    4.5244    1.8923    0.0000 H   0  0  0  0  0  0  0  0  0  0  0  0
    5.6910   -3.0369    0.0000 H   0  0  0  0  0  0  0  0  0  0  0  0
    6.5380   -2.8100    0.0000 H   0  0  0  0  0  0  0  0  0  0  0  0
    6.3110   -1.9631    0.0000 H   0  0  0  0  0  0  0  0  0  0  0  0
    2.2269   -1.9631    0.0000 H   0  0  0  0  0  0  0  0  0  0  0  0
    2.0000   -2.8100    0.0000 H   0  0  0  0  0  0  0  0  0  0  0  0
    2.8469   -3.0369    0.0000 H   0  0  0  0  0  0  0  0  0  0  0  0
    6.8671    1.3800    0.0000 H   0  0  0  0  0  0  0  0  0  0  0  0
    5.4641    3.8100    0.0000 H   0  0  0  0  0  0  0  0  0  0  0  0
    2.0000   -0.8100    0.0000 H   0  0  0  0  0  0  0  0  0  0  0  0
    6.5380   -0.8100    0.0000 H   0  0  0  0  0  0  0  0  0  0  0  0
    8.2700    2.1900    0.0000 H   0  0  0  0  0  0  0  0  0  0  0  0
    6.8671    4.6200    0.0000 H   0  0  0  0  0  0  0  0  0  0  0  0
    8.2700    3.8100    0.0000 H   0  0  0  0  0  0  0  0  0  0  0  0
    3.0930   -3.4631    0.0000 H   0  0  0  0  0  0  0  0  0  0  0  0
    2.8660   -4.3100    0.0000 H   0  0  0  0  0  0  0  0  0  0  0  0
    3.7130   -4.5369    0.0000 H   0  0  0  0  0  0  0  0  0  0  0  0
  1 13  1  0  0  0  0
  1 22  1  0  0  0  0
  2 11  1  0  0  0  0
  2 35  1  0  0  0  0
  3 12  1  0  0  0  0
  3 36  1  0  0  0  0
  4 10  2  0  0  0  0
  5 10  1  0  0  0  0
  5 11  2  0  0  0  0
  5 12  1  0  0  0  0
  6  7  1  0  0  0  0
  6 10  1  0  0  0  0
  6 23  1  0  0  0  0
  6 24  1  0  0  0  0
  7 14  1  0  0  0  0
  7 25  1  0  0  0  0
  7 26  1  0  0  0  0
  8 12  2  0  0  0  0
  8 13  1  0  0  0  0
  8 15  1  0  0  0  0
  9 11  1  0  0  0  0
  9 13  2  0  0  0  0
  9 16  1  0  0  0  0
 14 17  2  0  0  0  0
 14 18  1  0  0  0  0
 15 27  1  0  0  0  0
 15 28  1  0  0  0  0
 15 29  1  0  0  0  0
 16 30  1  0  0  0  0
 16 31  1  0  0  0  0
 16 32  1  0  0  0  0
 17 19  1  0  0  0  0
 17 33  1  0  0  0  0
 18 20  2  0  0  0  0
 18 34  1  0  0  0  0
 19 21  2  0  0  0  0
 19 37  1  0  0  0  0
 20 21  1  0  0  0  0
 20 38  1  0  0  0  0
 21 39  1  0  0  0  0
 22 40  1  0  0  0  0
 22 41  1  0  0  0  0
 22 42  1  0  0  0  0
M  END
>  <PUBCHEM_COMPOUND_CID>
10086169

>  <PUBCHEM_COMPOUND_CANONICALIZED>
1

>  <PUBCHEM_CACTVS_COMPLEXITY>
348

>  <PUBCHEM_CACTVS_HBOND_ACCEPTOR>
4

>  <PUBCHEM_CACTVS_HBOND_DONOR>
2

>  <PUBCHEM_CACTVS_ROTATABLE_BOND>
5

>  <PUBCHEM_CACTVS_SUBSKEYS>
AAADceB4OAAAAAAAAAAAAAAAAAAAAAAAAAAwYAAAAAAAAAABQAAAGgAACAAADASAmAIyBoAABgCIAqBSAAACCAAkIAAIiAEECMgMJzaGNRqAcWAl4BUIuQeI7OzOIAACCAAIAABAAAQQABAAAAAAAAAAAA==

>  <PUBCHEM_IUPAC_OPENEYE_NAME>
1-(2,6-dihydroxy-4-methoxy-3,5-dimethyl-phenyl)-3-phenyl-propan-1-one

>  <PUBCHEM_IUPAC_CAS_NAME>
1-(2,6-dihydroxy-4-methoxy-3,5-dimethylphenyl)-3-phenyl-1-propanone

>  <PUBCHEM_IUPAC_NAME>
1-(2,6-dihydroxy-4-methoxy-3,5-dimethylphenyl)-3-phenylpropan-1-one

>  <PUBCHEM_IUPAC_SYSTEMATIC_NAME>
1-[4-methoxy-3,5-dimethyl-2,6-bis(oxidanyl)phenyl]-3-phenyl-propan-1-one

>  <PUBCHEM_IUPAC_TRADITIONAL_NAME>
1-(2,6-dihydroxy-4-methoxy-3,5-dimethyl-phenyl)-3-phenyl-propan-1-one

>  <PUBCHEM_IUPAC_INCHI>
InChI=1S/C18H20O4/c1-11-16(20)15(17(21)12(2)18(11)22-3)14(19)10-9-13-7-5-4-6-8-13/h4-8,20-21H,9-10H2,1-3H3

>  <PUBCHEM_IUPAC_INCHIKEY>
SGSWJLOWQDDBPP-UHFFFAOYSA-N

>  <PUBCHEM_XLOGP3_AA>
4

>  <PUBCHEM_EXACT_MASS>
300.136

>  <PUBCHEM_MOLECULAR_FORMULA>
C18H20O4

>  <PUBCHEM_MOLECULAR_WEIGHT>
300.354

>  <PUBCHEM_OPENEYE_CAN_SMILES>
CC1=C(C(=C(C(=C1OC)C)O)C(=O)CCC2=CC=CC=C2)O

>  <PUBCHEM_OPENEYE_ISO_SMILES>
CC1=C(C(=C(C(=C1OC)C)O)C(=O)CCC2=CC=CC=C2)O

>  <PUBCHEM_CACTVS_TPSA>
66.8

>  <PUBCHEM_MONOISOTOPIC_WEIGHT>
300.136

>  <PUBCHEM_TOTAL_CHARGE>
0

>  <PUBCHEM_HEAVY_ATOM_COUNT>
22

>  <PUBCHEM_ATOM_DEF_STEREO_COUNT>
0

>  <PUBCHEM_ATOM_UDEF_STEREO_COUNT>
0

>  <PUBCHEM_BOND_DEF_STEREO_COUNT>
0

>  <PUBCHEM_BOND_UDEF_STEREO_COUNT>
0

>  <PUBCHEM_ISOTOPIC_ATOM_COUNT>
0

>  <PUBCHEM_COMPONENT_COUNT>
1

>  <PUBCHEM_CACTVS_TAUTO_COUNT>
12

>  <PUBCHEM_COORDINATE_TYPE>
1
5
255

>  <PUBCHEM_BONDANNOTATIONS>
14  17  8
14  18  8
17  19  8
18  20  8
19  21  8
20  21  8
5  11  8
5  12  8
8  12  8
8  13  8
9  11  8
9  13  8

$$$$
