100930184
 OpenBabel06101807152D

131138  0  0  1  0  0  0  0  0999 V2000
   12.3923   -3.5000    0.0000 O   0  0  0  0  0  0  0  0  0  0  0  0
   13.2583   -1.0000    0.0000 O   0  0  0  0  0  0  0  0  0  0  0  0
   10.6603   -3.5000    0.0000 O   0  0  0  0  0  0  0  0  0  0  0  0
   14.1244   -2.5000    0.0000 O   0  0  0  0  0  0  0  0  0  0  0  0
   10.6603   -2.5000    0.0000 O   0  0  0  0  0  0  0  0  0  0  0  0
   10.6603   -0.5000    0.0000 O   0  0  0  0  0  0  0  0  0  0  0  0
   12.3923   -5.5000    0.0000 O   0  0  0  0  0  0  0  0  0  0  0  0
   10.6603   -6.5000    0.0000 O   0  0  0  0  0  0  0  0  0  0  0  0
    8.9282   -5.5000    0.0000 O   0  0  0  0  0  0  0  0  0  0  0  0
   11.5263    1.0000    0.0000 O   0  0  0  0  0  0  0  0  0  0  0  0
    8.0622   -4.0000    0.0000 O   0  0  0  0  0  0  0  0  0  0  0  0
   14.0853    2.5214    0.0000 O   0  0  0  0  0  0  0  0  0  0  0  0
   14.9686    1.0315    0.0000 O   0  0  0  0  0  0  0  0  0  0  0  0
   16.6658    4.0513    0.0000 O   0  0  0  0  0  0  0  0  0  0  0  0
   14.9223    5.0312    0.0000 O   0  0  0  0  0  0  0  0  0  0  0  0
   16.6890    2.0514    0.0000 O   0  0  0  0  0  0  0  0  0  0  0  0
   16.7224   -2.0000    0.0000 O   0  3  0  0  0  0  0  0  0  0  0  0
   13.1904    5.0112    0.0000 O   0  0  0  0  0  0  0  0  0  0  0  0
   12.3923    2.5000    0.0000 O   0  0  0  0  0  0  0  0  0  0  0  0
    7.1962   -2.5000    0.0000 O   0  0  0  0  0  0  0  0  0  0  0  0
   18.5084    1.0451    0.0000 O   0  0  0  0  0  0  0  0  0  0  0  0
   17.5885   -5.5000    0.0000 O   0  0  0  0  0  0  0  0  0  0  0  0
   15.8564   -6.5000    0.0000 O   0  0  0  0  0  0  0  0  0  0  0  0
    8.9282    6.5000    0.0000 O   0  0  0  0  0  0  0  0  0  0  0  0
    2.0000   -3.5000    0.0000 O   0  0  0  0  0  0  0  0  0  0  0  0
    7.1962    5.5000    0.0000 O   0  0  0  0  0  0  0  0  0  0  0  0
    2.0000   -5.5000    0.0000 O   0  0  0  0  0  0  0  0  0  0  0  0
   12.3923   -2.5000    0.0000 C   0  0  2  0  0  0  0  0  0  0  0  0
   11.5263   -2.0000    0.0000 C   0  0  2  0  0  0  0  0  0  0  0  0
   11.5263   -1.0000    0.0000 C   0  0  1  0  0  0  0  0  0  0  0  0
   11.5263   -4.0000    0.0000 C   0  0  2  0  0  0  0  0  0  0  0  0
   11.5263   -5.0000    0.0000 C   0  0  1  0  0  0  0  0  0  0  0  0
   13.2583   -2.0000    0.0000 C   0  0  1  0  0  0  0  0  0  0  0  0
   12.3923   -0.5000    0.0000 C   0  0  1  0  0  0  0  0  0  0  0  0
   10.6603   -5.5000    0.0000 C   0  0  2  0  0  0  0  0  0  0  0  0
    9.7942   -5.0000    0.0000 C   0  0  1  0  0  0  0  0  0  0  0  0
    9.7942   -4.0000    0.0000 C   0  0  1  0  0  0  0  0  0  0  0  0
   12.3923    0.5000    0.0000 C   0  0  0  0  0  0  0  0  0  0  0  0
    8.9282   -3.5000    0.0000 C   0  0  0  0  0  0  0  0  0  0  0  0
   15.8057    3.5413    0.0000 C   0  0  1  0  0  0  0  0  0  0  0  0
   14.9339    4.0313    0.0000 C   0  0  1  0  0  0  0  0  0  0  0  0
   14.9904   -2.0000    0.0000 C   0  0  0  0  0  0  0  0  0  0  0  0
   15.8172    2.5414    0.0000 C   0  0  2  0  0  0  0  0  0  0  0  0
   14.0737    3.5213    0.0000 C   0  0  1  0  0  0  0  0  0  0  0  0
   14.9570    2.0314    0.0000 C   0  0  1  0  0  0  0  0  0  0  0  0
   14.9904   -1.0000    0.0000 C   0  0  0  0  0  0  0  0  0  0  0  0
   15.8564   -2.5000    0.0000 C   0  0  0  0  0  0  0  0  0  0  0  0
   15.8564   -0.5000    0.0000 C   0  0  0  0  0  0  0  0  0  0  0  0
   13.2020    4.0112    0.0000 C   0  0  0  0  0  0  0  0  0  0  0  0
   15.8403    0.5415    0.0000 C   0  0  0  0  0  0  0  0  0  0  0  0
   16.7224   -1.0000    0.0000 C   0  0  0  0  0  0  0  0  0  0  0  0
   11.5263    2.0000    0.0000 C   0  0  0  0  0  0  0  0  0  0  0  0
    7.1962   -3.5000    0.0000 C   0  0  0  0  0  0  0  0  0  0  0  0
   15.8564   -3.5000    0.0000 C   0  0  0  0  0  0  0  0  0  0  0  0
   16.7384    1.0693    0.0000 C   0  0  0  0  0  0  0  0  0  0  0  0
   17.6324   -0.4932    0.0000 C   0  0  0  0  0  0  0  0  0  0  0  0
   17.6405    0.5484    0.0000 C   0  0  0  0  0  0  0  0  0  0  0  0
   10.6603    2.5000    0.0000 C   0  0  0  0  0  0  0  0  0  0  0  0
   16.7224   -4.0000    0.0000 C   0  0  0  0  0  0  0  0  0  0  0  0
   14.9904   -4.0000    0.0000 C   0  0  0  0  0  0  0  0  0  0  0  0
    6.3301   -4.0000    0.0000 C   0  0  0  0  0  0  0  0  0  0  0  0
   16.7224   -5.0000    0.0000 C   0  0  0  0  0  0  0  0  0  0  0  0
   14.9904   -5.0000    0.0000 C   0  0  0  0  0  0  0  0  0  0  0  0
   10.6603    3.5000    0.0000 C   0  0  0  0  0  0  0  0  0  0  0  0
   15.8564   -5.5000    0.0000 C   0  0  0  0  0  0  0  0  0  0  0  0
    5.4641   -3.5000    0.0000 C   0  0  0  0  0  0  0  0  0  0  0  0
    9.7942    4.0000    0.0000 C   0  0  0  0  0  0  0  0  0  0  0  0
    4.5981   -4.0000    0.0000 C   0  0  0  0  0  0  0  0  0  0  0  0
    9.7942    5.0000    0.0000 C   0  0  0  0  0  0  0  0  0  0  0  0
    8.9282    3.5000    0.0000 C   0  0  0  0  0  0  0  0  0  0  0  0
    3.7320   -3.5000    0.0000 C   0  0  0  0  0  0  0  0  0  0  0  0
    4.5981   -5.0000    0.0000 C   0  0  0  0  0  0  0  0  0  0  0  0
    8.9282    5.5000    0.0000 C   0  0  0  0  0  0  0  0  0  0  0  0
    8.0622    4.0000    0.0000 C   0  0  0  0  0  0  0  0  0  0  0  0
    2.8660   -4.0000    0.0000 C   0  0  0  0  0  0  0  0  0  0  0  0
    3.7320   -5.5000    0.0000 C   0  0  0  0  0  0  0  0  0  0  0  0
    8.0622    5.0000    0.0000 C   0  0  0  0  0  0  0  0  0  0  0  0
    2.8660   -5.0000    0.0000 C   0  0  0  0  0  0  0  0  0  0  0  0
   12.9292   -2.8100    0.0000 H   0  0  0  0  0  0  0  0  0  0  0  0
   10.9893   -1.6900    0.0000 H   0  0  0  0  0  0  0  0  0  0  0  0
   11.5263   -0.3800    0.0000 H   0  0  0  0  0  0  0  0  0  0  0  0
   11.5263   -3.3800    0.0000 H   0  0  0  0  0  0  0  0  0  0  0  0
   11.5263   -5.6200    0.0000 H   0  0  0  0  0  0  0  0  0  0  0  0
   13.7953   -1.6900    0.0000 H   0  0  0  0  0  0  0  0  0  0  0  0
   12.9292   -0.1900    0.0000 H   0  0  0  0  0  0  0  0  0  0  0  0
   10.1233   -5.8100    0.0000 H   0  0  0  0  0  0  0  0  0  0  0  0
    9.2573   -4.6900    0.0000 H   0  0  0  0  0  0  0  0  0  0  0  0
    9.7942   -3.3800    0.0000 H   0  0  0  0  0  0  0  0  0  0  0  0
   13.0029    0.3923    0.0000 H   0  0  0  0  0  0  0  0  0  0  0  0
   12.6044    1.0826    0.0000 H   0  0  0  0  0  0  0  0  0  0  0  0
    9.3267   -3.0250    0.0000 H   0  0  0  0  0  0  0  0  0  0  0  0
    8.5297   -3.0250    0.0000 H   0  0  0  0  0  0  0  0  0  0  0  0
   10.1233   -2.1900    0.0000 H   0  0  0  0  0  0  0  0  0  0  0  0
   10.6603    0.1200    0.0000 H   0  0  0  0  0  0  0  0  0  0  0  0
   12.3923   -6.1200    0.0000 H   0  0  0  0  0  0  0  0  0  0  0  0
   10.1233   -6.8100    0.0000 H   0  0  0  0  0  0  0  0  0  0  0  0
    8.9282   -6.1200    0.0000 H   0  0  0  0  0  0  0  0  0  0  0  0
   15.7985    4.1613    0.0000 H   0  0  0  0  0  0  0  0  0  0  0  0
   14.3934    4.3350    0.0000 H   0  0  0  0  0  0  0  0  0  0  0  0
   15.8244    1.9214    0.0000 H   0  0  0  0  0  0  0  0  0  0  0  0
   13.5404    3.2051    0.0000 H   0  0  0  0  0  0  0  0  0  0  0  0
   14.4237    1.7152    0.0000 H   0  0  0  0  0  0  0  0  0  0  0  0
   14.4534   -0.6900    0.0000 H   0  0  0  0  0  0  0  0  0  0  0  0
   12.5902    4.1118    0.0000 H   0  0  0  0  0  0  0  0  0  0  0  0
   12.9967    3.4262    0.0000 H   0  0  0  0  0  0  0  0  0  0  0  0
   16.6587    4.6712    0.0000 H   0  0  0  0  0  0  0  0  0  0  0  0
   15.4557    5.3474    0.0000 H   0  0  0  0  0  0  0  0  0  0  0  0
   17.2223    2.3676    0.0000 H   0  0  0  0  0  0  0  0  0  0  0  0
   16.7360    1.6893    0.0000 H   0  0  0  0  0  0  0  0  0  0  0  0
   18.1657   -0.8093    0.0000 H   0  0  0  0  0  0  0  0  0  0  0  0
   12.6499    5.3149    0.0000 H   0  0  0  0  0  0  0  0  0  0  0  0
   10.1233    2.1900    0.0000 H   0  0  0  0  0  0  0  0  0  0  0  0
   17.2594   -3.6900    0.0000 H   0  0  0  0  0  0  0  0  0  0  0  0
   14.4534   -3.6900    0.0000 H   0  0  0  0  0  0  0  0  0  0  0  0
    6.3301   -4.6200    0.0000 H   0  0  0  0  0  0  0  0  0  0  0  0
   14.4534   -5.3100    0.0000 H   0  0  0  0  0  0  0  0  0  0  0  0
   11.1972    3.8100    0.0000 H   0  0  0  0  0  0  0  0  0  0  0  0
    5.4641   -2.8800    0.0000 H   0  0  0  0  0  0  0  0  0  0  0  0
   19.0441    0.7330    0.0000 H   0  0  0  0  0  0  0  0  0  0  0  0
   18.1254   -5.1900    0.0000 H   0  0  0  0  0  0  0  0  0  0  0  0
   15.3195   -6.8100    0.0000 H   0  0  0  0  0  0  0  0  0  0  0  0
   10.3312    5.3100    0.0000 H   0  0  0  0  0  0  0  0  0  0  0  0
    8.9282    2.8800    0.0000 H   0  0  0  0  0  0  0  0  0  0  0  0
    3.7320   -2.8800    0.0000 H   0  0  0  0  0  0  0  0  0  0  0  0
    5.1350   -5.3100    0.0000 H   0  0  0  0  0  0  0  0  0  0  0  0
    7.5252    3.6900    0.0000 H   0  0  0  0  0  0  0  0  0  0  0  0
    3.7320   -6.1200    0.0000 H   0  0  0  0  0  0  0  0  0  0  0  0
    9.4651    6.8100    0.0000 H   0  0  0  0  0  0  0  0  0  0  0  0
    2.0000   -2.8800    0.0000 H   0  0  0  0  0  0  0  0  0  0  0  0
    6.6592    5.1900    0.0000 H   0  0  0  0  0  0  0  0  0  0  0  0
    2.0000   -6.1200    0.0000 H   0  0  0  0  0  0  0  0  0  0  0  0
  2 33  1  0  0  0  0
  2 34  1  0  0  0  0
  3 31  1  0  0  0  0
  3 37  1  0  0  0  0
  4 42  1  0  0  0  0
  5 93  1  0  0  0  0
  6 94  1  0  0  0  0
  7 95  1  0  0  0  0
  8 96  1  0  0  0  0
  9 97  1  0  0  0  0
 10 38  1  0  0  0  0
 10 52  1  0  0  0  0
 11 39  1  0  0  0  0
 11 53  1  0  0  0  0
 12 44  1  0  0  0  0
 12 45  1  0  0  0  0
 13 50  1  0  0  0  0
 14106  1  0  0  0  0
 15107  1  0  0  0  0
 16108  1  0  0  0  0
 17 47  1  0  0  0  0
 17 51  2  0  0  0  0
 18 49  1  0  0  0  0
 18111  1  0  0  0  0
 19 52  2  0  0  0  0
 20 53  2  0  0  0  0
 21 57  1  0  0  0  0
 21119  1  0  0  0  0
 22 62  1  0  0  0  0
 22120  1  0  0  0  0
 23 65  1  0  0  0  0
 23121  1  0  0  0  0
 24 73  1  0  0  0  0
 24128  1  0  0  0  0
 25 75  1  0  0  0  0
 25129  1  0  0  0  0
 26 77  1  0  0  0  0
 26130  1  0  0  0  0
 27 78  1  0  0  0  0
 27131  1  0  0  0  0
 28  1  1  0  0  0  0
 28 29  1  1  0  0  0
 28 79  1  0  0  0  0
 29  5  1  0  0  0  0
 29 30  1  1  0  0  0
 29 80  1  0  0  0  0
 30  6  1  0  0  0  0
 30 34  1  6  0  0  0
 30 81  1  0  0  0  0
 31  1  1  0  0  0  0
 31 32  1  6  0  0  0
 31 82  1  0  0  0  0
 32  7  1  0  0  0  0
 32 35  1  6  0  0  0
 32 83  1  0  0  0  0
 33  4  1  0  0  0  0
 33 28  1  6  0  0  0
 33 84  1  0  0  0  0
 34 38  1  0  0  0  0
 34 85  1  6  0  0  0
 35  8  1  0  0  0  0
 35 36  1  1  0  0  0
 35 86  1  0  0  0  0
 36  9  1  0  0  0  0
 36 37  1  6  0  0  0
 36 87  1  0  0  0  0
 37 39  1  0  0  0  0
 37 88  1  6  0  0  0
 38 89  1  0  0  0  0
 38 90  1  0  0  0  0
 39 91  1  0  0  0  0
 39 92  1  0  0  0  0
 40 14  1  0  0  0  0
 40 41  1  6  0  0  0
 40 98  1  0  0  0  0
 41 15  1  0  0  0  0
 41 44  1  1  0  0  0
 41 99  1  0  0  0  0
 42 46  1  0  0  0  0
 42 47  2  0  0  0  0
 43 16  1  0  0  0  0
 43 40  1  6  0  0  0
 43100  1  0  0  0  0
 44 49  1  0  0  0  0
 44101  1  1  0  0  0
 45 13  1  0  0  0  0
 45 43  1  1  0  0  0
 45102  1  0  0  0  0
 46 48  2  0  0  0  0
 46103  1  0  0  0  0
 47 54  1  0  0  0  0
 48 50  1  0  0  0  0
 48 51  1  0  0  0  0
 49104  1  0  0  0  0
 49105  1  0  0  0  0
 50 55  2  0  0  0  0
 51 56  1  0  0  0  0
 52 58  1  0  0  0  0
 53 61  1  0  0  0  0
 54 59  2  0  0  0  0
 54 60  1  0  0  0  0
 55 57  1  0  0  0  0
 55109  1  0  0  0  0
 56 57  2  0  0  0  0
 56110  1  0  0  0  0
 58 64  2  3  0  0  0
 58112  1  0  0  0  0
 59 62  1  0  0  0  0
 59113  1  0  0  0  0
 60 63  2  0  0  0  0
 60114  1  0  0  0  0
 61 66  2  3  0  0  0
 61115  1  0  0  0  0
 62 65  2  0  0  0  0
 63 65  1  0  0  0  0
 63116  1  0  0  0  0
 64 67  1  0  0  0  0
 64117  1  0  0  0  0
 66 68  1  0  0  0  0
 66118  1  0  0  0  0
 67 69  2  0  0  0  0
 67 70  1  0  0  0  0
 68 71  2  0  0  0  0
 68 72  1  0  0  0  0
 69 73  1  0  0  0  0
 69122  1  0  0  0  0
 70 74  2  0  0  0  0
 70123  1  0  0  0  0
 71 75  1  0  0  0  0
 71124  1  0  0  0  0
 72 76  2  0  0  0  0
 72125  1  0  0  0  0
 73 77  2  0  0  0  0
 74 77  1  0  0  0  0
 74126  1  0  0  0  0
 75 78  2  0  0  0  0
 76 78  1  0  0  0  0
 76127  1  0  0  0  0
M  CHG  1  17   1
M  END
>  <PUBCHEM_COMPOUND_CID>
100930184

>  <PUBCHEM_COMPOUND_CANONICALIZED>
1

>  <PUBCHEM_CACTVS_COMPLEXITY>
1980

>  <PUBCHEM_CACTVS_HBOND_ACCEPTOR>
26

>  <PUBCHEM_CACTVS_HBOND_DONOR>
16

>  <PUBCHEM_CACTVS_ROTATABLE_BOND>
18

>  <PUBCHEM_CACTVS_SUBSKEYS>
AAADcfB8PgAAAAAAAAAAAAAAAAAAAAAAAAA0aNGiAAAAAACR9AAAGgAACAAADBSwmAMwDsAABkCIAqDSCAICCAAkIAAIiAFGiMgdNzaGNR6ieWOl4BUPuYfK7PzOIAABCAAIQABAAAIQABCAAAAAAAAAAA==

>  <PUBCHEM_IUPAC_OPENEYE_NAME>
[(2R,3S,4S,5R,6S)-6-[(2S,3R,4S,5S,6R)-2-[2-(3,4-dihydroxyphenyl)-7-hydroxy-5-[(2S,3R,4S,5S,6R)-3,4,5-trihydroxy-6-(hydroxymethyl)tetrahydropyran-2-yl]oxy-chromenylium-3-yl]oxy-6-[3-(3,4-dihydroxyphenyl)prop-2-enoyloxymethyl]-4,5-dihydroxy-tetrahydropyran-3-yl]oxy-3,4,5-trihydroxy-tetrahydropyran-2-yl]methyl 3-(3,4-dihydroxyphenyl)prop-2-enoate

>  <PUBCHEM_IUPAC_CAS_NAME>
3-(3,4-dihydroxyphenyl)-2-propenoic acid [(2R,3S,4S,5R,6S)-6-[[(2S,3R,4S,5S,6R)-2-[[2-(3,4-dihydroxyphenyl)-7-hydroxy-5-[[(2S,3R,4S,5S,6R)-3,4,5-trihydroxy-6-(hydroxymethyl)-2-oxanyl]oxy]-1-benzopyrylium-3-yl]oxy]-6-[[3-(3,4-dihydroxyphenyl)-1-oxoprop-2-enoxy]methyl]-4,5-dihydroxy-3-oxanyl]oxy]-3,4,5-trihydroxy-2-oxanyl]methyl ester

>  <PUBCHEM_IUPAC_NAME>
[(2R,3S,4S,5R,6S)-6-[(2S,3R,4S,5S,6R)-2-[2-(3,4-dihydroxyphenyl)-7-hydroxy-5-[(2S,3R,4S,5S,6R)-3,4,5-trihydroxy-6-(hydroxymethyl)oxan-2-yl]oxychromenylium-3-yl]oxy-6-[3-(3,4-dihydroxyphenyl)prop-2-enoyloxymethyl]-4,5-dihydroxyoxan-3-yl]oxy-3,4,5-trihydroxyoxan-2-yl]methyl 3-(3,4-dihydroxyphenyl)prop-2-enoate

>  <PUBCHEM_IUPAC_SYSTEMATIC_NAME>
[(2R,3S,4S,5R,6S)-6-[(2S,3R,4S,5S,6R)-2-[2-[3,4-bis(oxidanyl)phenyl]-5-[(2S,3R,4S,5S,6R)-6-(hydroxymethyl)-3,4,5-tris(oxidanyl)oxan-2-yl]oxy-7-oxidanyl-chromenylium-3-yl]oxy-6-[3-[3,4-bis(oxidanyl)phenyl]prop-2-enoyloxymethyl]-4,5-bis(oxidanyl)oxan-3-yl]oxy-3,4,5-tris(oxidanyl)oxan-2-yl]methyl 3-[3,4-bis(oxidanyl)phenyl]prop-2-enoate

>  <PUBCHEM_IUPAC_TRADITIONAL_NAME>
3-(3,4-dihydroxyphenyl)acrylic acid [(2R,3S,4S,5R,6S)-6-[(2S,3R,4S,5S,6R)-6-(caffeoyloxymethyl)-2-[[2-(3,4-dihydroxyphenyl)-7-hydroxy-5-[(2S,3R,4S,5S,6R)-3,4,5-trihydroxy-6-methylol-tetrahydropyran-2-yl]oxy-1-benzopyrylium-3-yl]oxy]-4,5-dihydroxy-tetrahydropyran-3-yl]oxy-3,4,5-trihydroxy-tetrahydropyran-2-yl]methyl ester

>  <PUBCHEM_IUPAC_INCHI>
InChI=1S/C51H52O27/c52-17-34-39(62)42(65)45(68)49(75-34)73-32-15-23(53)14-31-24(32)16-33(47(72-31)22-5-8-27(56)30(59)13-22)74-51-48(44(67)41(64)36(77-51)19-71-38(61)10-4-21-2-7-26(55)29(58)12-21)78-50-46(69)43(66)40(63)35(76-50)18-70-37(60)9-3-20-1-6-25(54)28(57)11-20/h1-16,34-36,39-46,48-52,62-69H,17-19H2,(H6-,53,54,55,56,57,58,59,60,61)/p+1/t34-,35-,36-,39-,40-,41-,42+,43+,44+,45-,46-,48-,49-,50+,51-/m1/s1

>  <PUBCHEM_IUPAC_INCHIKEY>
QROHSXUMSFREKB-RPCOPJSUSA-O

>  <PUBCHEM_EXACT_MASS>
1097.277

>  <PUBCHEM_MOLECULAR_FORMULA>
C51H53O27+

>  <PUBCHEM_MOLECULAR_WEIGHT>
1097.958

>  <PUBCHEM_OPENEYE_CAN_SMILES>
C1=CC(=C(C=C1C=CC(=O)OCC2C(C(C(C(O2)OC3C(C(C(OC3OC4=C([O+]=C5C=C(C=C(C5=C4)OC6C(C(C(C(O6)CO)O)O)O)O)C7=CC(=C(C=C7)O)O)COC(=O)C=CC8=CC(=C(C=C8)O)O)O)O)O)O)O)O)O

>  <PUBCHEM_OPENEYE_ISO_SMILES>
C1=CC(=C(C=C1C=CC(=O)OC[C@@H]2[C@H]([C@@H]([C@H]([C@@H](O2)O[C@@H]3[C@H]([C@@H]([C@H](O[C@H]3OC4=C([O+]=C5C=C(C=C(C5=C4)O[C@H]6[C@@H]([C@H]([C@@H]([C@H](O6)CO)O)O)O)O)C7=CC(=C(C=C7)O)O)COC(=O)C=CC8=CC(=C(C=C8)O)O)O)O)O)O)O)O)O

>  <PUBCHEM_CACTVS_TPSA>
433

>  <PUBCHEM_MONOISOTOPIC_WEIGHT>
1097.277

>  <PUBCHEM_TOTAL_CHARGE>
1

>  <PUBCHEM_HEAVY_ATOM_COUNT>
78

>  <PUBCHEM_ATOM_DEF_STEREO_COUNT>
15

>  <PUBCHEM_ATOM_UDEF_STEREO_COUNT>
0

>  <PUBCHEM_BOND_DEF_STEREO_COUNT>
0

>  <PUBCHEM_BOND_UDEF_STEREO_COUNT>
2

>  <PUBCHEM_ISOTOPIC_ATOM_COUNT>
0

>  <PUBCHEM_COMPONENT_COUNT>
1

>  <PUBCHEM_CACTVS_TAUTO_COUNT>
978

>  <PUBCHEM_COORDINATE_TYPE>
1
5
255

>  <PUBCHEM_BONDANNOTATIONS>
28  1  6
31  1  5
45  13  6
40  14  6
41  15  5
43  16  5
17  47  8
17  51  8
34  38  5
37  39  5
33  4  5
42  46  8
42  47  8
44  49  6
46  48  8
48  50  8
48  51  8
29  5  5
50  55  8
51  56  8
54  59  8
54  60  8
55  57  8
56  57  8
58  64  1
59  62  8
30  6  6
60  63  8
61  66  1
62  65  8
63  65  8
67  69  8
67  70  8
68  71  8
68  72  8
69  73  8
32  7  6
70  74  8
71  75  8
72  76  8
73  77  8
74  77  8
75  78  8
76  78  8
35  8  5
36  9  6

$$$$
