100952216
 OpenBabel06101807152D

 89 94  0  0  1  0  0  0  0  0999 V2000
   12.9292   -0.9050    0.0000 O   0  0  0  0  0  0  0  0  0  0  0  0
   13.7953    1.5950    0.0000 O   0  0  0  0  0  0  0  0  0  0  0  0
   11.1972   -0.9050    0.0000 O   0  0  0  0  0  0  0  0  0  0  0  0
   11.1972    0.0950    0.0000 O   0  0  0  0  0  0  0  0  0  0  0  0
   11.1972    2.0950    0.0000 O   0  0  0  0  0  0  0  0  0  0  0  0
   12.9292   -2.9050    0.0000 O   0  0  0  0  0  0  0  0  0  0  0  0
   11.1972   -3.9050    0.0000 O   0  0  0  0  0  0  0  0  0  0  0  0
    9.4651   -2.9050    0.0000 O   0  0  0  0  0  0  0  0  0  0  0  0
   12.0632    3.5950    0.0000 O   0  0  0  0  0  0  0  0  0  0  0  0
    8.5991   -1.4050    0.0000 O   0  0  0  0  0  0  0  0  0  0  0  0
   15.5273    1.5950    0.0000 O   0  0  0  0  0  0  0  0  0  0  0  0
   13.7953   -1.4050    0.0000 O   0  0  0  0  0  0  0  0  0  0  0  0
   17.2873   -1.4397    0.0000 O   0  0  0  0  0  0  0  0  0  0  0  0
   17.2757    1.6296    0.0000 O   0  0  0  0  0  0  0  0  0  0  0  0
    7.7331    0.0950    0.0000 O   0  0  0  0  0  0  0  0  0  0  0  0
   21.6497   -2.9392    0.0000 O   0  0  0  0  0  0  0  0  0  0  0  0
    2.5369   -2.9050    0.0000 O   0  0  0  0  0  0  0  0  0  0  0  0
   12.9292    0.0950    0.0000 C   0  0  2  0  0  0  0  0  0  0  0  0
   12.0632    0.5950    0.0000 C   0  0  2  0  0  0  0  0  0  0  0  0
   13.7953    0.5950    0.0000 C   0  0  2  0  0  0  0  0  0  0  0  0
   12.0632    1.5950    0.0000 C   0  0  1  0  0  0  0  0  0  0  0  0
   12.9292    2.0950    0.0000 C   0  0  1  0  0  0  0  0  0  0  0  0
   12.0632   -1.4050    0.0000 C   0  0  2  0  0  0  0  0  0  0  0  0
   12.0632   -2.4050    0.0000 C   0  0  1  0  0  0  0  0  0  0  0  0
   11.1972   -2.9050    0.0000 C   0  0  2  0  0  0  0  0  0  0  0  0
   10.3312   -2.4050    0.0000 C   0  0  1  0  0  0  0  0  0  0  0  0
   10.3312   -1.4050    0.0000 C   0  0  1  0  0  0  0  0  0  0  0  0
   14.6613    0.0950    0.0000 C   0  0  0  0  0  0  0  0  0  0  0  0
   12.9292    3.0950    0.0000 C   0  0  0  0  0  0  0  0  0  0  0  0
    9.4651   -0.9050    0.0000 C   0  0  0  0  0  0  0  0  0  0  0  0
   15.5273    0.5950    0.0000 C   0  0  0  0  0  0  0  0  0  0  0  0
   14.6613   -0.9050    0.0000 C   0  0  0  0  0  0  0  0  0  0  0  0
   16.3933    0.0950    0.0000 C   0  0  0  0  0  0  0  0  0  0  0  0
   15.5273   -1.4050    0.0000 C   0  0  0  0  0  0  0  0  0  0  0  0
   16.3933   -0.9050    0.0000 C   0  0  0  0  0  0  0  0  0  0  0  0
   17.2873    0.6297    0.0000 C   0  0  0  0  0  0  0  0  0  0  0  0
   18.1934    0.1158    0.0000 C   0  0  0  0  0  0  0  0  0  0  0  0
   18.1934   -0.9258    0.0000 C   0  0  0  0  0  0  0  0  0  0  0  0
    7.7331   -0.9050    0.0000 C   0  0  0  0  0  0  0  0  0  0  0  0
   19.0574   -1.4292    0.0000 C   0  0  0  0  0  0  0  0  0  0  0  0
    6.8671   -1.4050    0.0000 C   0  0  0  0  0  0  0  0  0  0  0  0
   19.9254   -0.9325    0.0000 C   0  0  0  0  0  0  0  0  0  0  0  0
   19.0536   -2.4291    0.0000 C   0  0  0  0  0  0  0  0  0  0  0  0
    6.0010   -0.9050    0.0000 C   0  0  0  0  0  0  0  0  0  0  0  0
   20.7895   -1.4358    0.0000 C   0  0  0  0  0  0  0  0  0  0  0  0
   19.9177   -2.9325    0.0000 C   0  0  0  0  0  0  0  0  0  0  0  0
   20.7856   -2.4358    0.0000 C   0  0  0  0  0  0  0  0  0  0  0  0
    5.1350   -1.4050    0.0000 C   0  0  0  0  0  0  0  0  0  0  0  0
    5.1350   -2.4050    0.0000 C   0  0  0  0  0  0  0  0  0  0  0  0
    4.2690   -0.9050    0.0000 C   0  0  0  0  0  0  0  0  0  0  0  0
    4.2690   -2.9050    0.0000 C   0  0  0  0  0  0  0  0  0  0  0  0
    3.4030   -1.4050    0.0000 C   0  0  0  0  0  0  0  0  0  0  0  0
    3.4030   -2.4050    0.0000 C   0  0  0  0  0  0  0  0  0  0  0  0
   12.3923   -0.2150    0.0000 H   0  0  0  0  0  0  0  0  0  0  0  0
   11.5263    0.9050    0.0000 H   0  0  0  0  0  0  0  0  0  0  0  0
   14.5314    1.0200    0.0000 H   0  0  0  0  0  0  0  0  0  0  0  0
   12.0632    2.2150    0.0000 H   0  0  0  0  0  0  0  0  0  0  0  0
   13.4662    2.4050    0.0000 H   0  0  0  0  0  0  0  0  0  0  0  0
   12.0632   -0.7850    0.0000 H   0  0  0  0  0  0  0  0  0  0  0  0
   12.0632   -3.0250    0.0000 H   0  0  0  0  0  0  0  0  0  0  0  0
   10.6603   -3.2150    0.0000 H   0  0  0  0  0  0  0  0  0  0  0  0
    9.7942   -2.0950    0.0000 H   0  0  0  0  0  0  0  0  0  0  0  0
   10.3312   -0.7850    0.0000 H   0  0  0  0  0  0  0  0  0  0  0  0
   13.5398    2.9873    0.0000 H   0  0  0  0  0  0  0  0  0  0  0  0
   13.1413    3.6776    0.0000 H   0  0  0  0  0  0  0  0  0  0  0  0
    9.8637   -0.4301    0.0000 H   0  0  0  0  0  0  0  0  0  0  0  0
    9.0666   -0.4301    0.0000 H   0  0  0  0  0  0  0  0  0  0  0  0
   10.6603    0.4050    0.0000 H   0  0  0  0  0  0  0  0  0  0  0  0
   10.6603    1.7850    0.0000 H   0  0  0  0  0  0  0  0  0  0  0  0
   13.4662   -2.5950    0.0000 H   0  0  0  0  0  0  0  0  0  0  0  0
   11.7341   -4.2150    0.0000 H   0  0  0  0  0  0  0  0  0  0  0  0
    9.4651   -3.5250    0.0000 H   0  0  0  0  0  0  0  0  0  0  0  0
   15.5273   -2.0250    0.0000 H   0  0  0  0  0  0  0  0  0  0  0  0
   12.0632    4.2150    0.0000 H   0  0  0  0  0  0  0  0  0  0  0  0
   16.0643    1.9050    0.0000 H   0  0  0  0  0  0  0  0  0  0  0  0
   13.7953   -2.0250    0.0000 H   0  0  0  0  0  0  0  0  0  0  0  0
   18.7291    0.4279    0.0000 H   0  0  0  0  0  0  0  0  0  0  0  0
    6.8671   -2.0250    0.0000 H   0  0  0  0  0  0  0  0  0  0  0  0
   19.9278   -0.3125    0.0000 H   0  0  0  0  0  0  0  0  0  0  0  0
   18.5155   -2.7371    0.0000 H   0  0  0  0  0  0  0  0  0  0  0  0
    6.0010   -0.2850    0.0000 H   0  0  0  0  0  0  0  0  0  0  0  0
   21.3276   -1.1279    0.0000 H   0  0  0  0  0  0  0  0  0  0  0  0
   19.9153   -3.5525    0.0000 H   0  0  0  0  0  0  0  0  0  0  0  0
    5.6720   -2.7150    0.0000 H   0  0  0  0  0  0  0  0  0  0  0  0
    4.2690   -0.2850    0.0000 H   0  0  0  0  0  0  0  0  0  0  0  0
   22.1878   -2.6312    0.0000 H   0  0  0  0  0  0  0  0  0  0  0  0
    4.2690   -3.5250    0.0000 H   0  0  0  0  0  0  0  0  0  0  0  0
    2.8660   -1.0950    0.0000 H   0  0  0  0  0  0  0  0  0  0  0  0
    2.0000   -2.5950    0.0000 H   0  0  0  0  0  0  0  0  0  0  0  0
  2 20  1  0  0  0  0
  2 22  1  0  0  0  0
  3 23  1  0  0  0  0
  3 27  1  0  0  0  0
  4 68  1  0  0  0  0
  5 69  1  0  0  0  0
  6 70  1  0  0  0  0
  7 71  1  0  0  0  0
  8 72  1  0  0  0  0
  9 29  1  0  0  0  0
  9 74  1  0  0  0  0
 10 30  1  0  0  0  0
 10 39  1  0  0  0  0
 11 31  1  0  0  0  0
 11 75  1  0  0  0  0
 12 32  1  0  0  0  0
 12 76  1  0  0  0  0
 13 35  1  0  0  0  0
 13 38  1  0  0  0  0
 14 36  2  0  0  0  0
 15 39  2  0  0  0  0
 16 47  1  0  0  0  0
 16 86  1  0  0  0  0
 17 53  1  0  0  0  0
 17 89  1  0  0  0  0
 18  1  1  0  0  0  0
 18 19  1  6  0  0  0
 18 54  1  0  0  0  0
 19  4  1  0  0  0  0
 19 21  1  1  0  0  0
 19 55  1  0  0  0  0
 20 18  1  6  0  0  0
 20 28  1  0  0  0  0
 20 56  1  0  0  0  0
 21  5  1  0  0  0  0
 21 22  1  6  0  0  0
 21 57  1  0  0  0  0
 22 29  1  0  0  0  0
 22 58  1  6  0  0  0
 23  1  1  0  0  0  0
 23 24  1  6  0  0  0
 23 59  1  0  0  0  0
 24  6  1  0  0  0  0
 24 25  1  6  0  0  0
 24 60  1  0  0  0  0
 25  7  1  0  0  0  0
 25 26  1  1  0  0  0
 25 61  1  0  0  0  0
 26  8  1  0  0  0  0
 26 27  1  6  0  0  0
 26 62  1  0  0  0  0
 27 30  1  0  0  0  0
 27 63  1  6  0  0  0
 28 31  2  0  0  0  0
 28 32  1  0  0  0  0
 29 64  1  0  0  0  0
 29 65  1  0  0  0  0
 30 66  1  0  0  0  0
 30 67  1  0  0  0  0
 31 33  1  0  0  0  0
 32 34  2  0  0  0  0
 33 35  2  0  0  0  0
 33 36  1  0  0  0  0
 34 35  1  0  0  0  0
 34 73  1  0  0  0  0
 36 37  1  0  0  0  0
 37 38  2  0  0  0  0
 37 77  1  0  0  0  0
 38 40  1  0  0  0  0
 39 41  1  0  0  0  0
 40 42  2  0  0  0  0
 40 43  1  0  0  0  0
 41 44  2  0  0  0  0
 41 78  1  0  0  0  0
 42 45  1  0  0  0  0
 42 79  1  0  0  0  0
 43 46  2  0  0  0  0
 43 80  1  0  0  0  0
 44 48  1  0  0  0  0
 44 81  1  0  0  0  0
 45 47  2  0  0  0  0
 45 82  1  0  0  0  0
 46 47  1  0  0  0  0
 46 83  1  0  0  0  0
 48 49  2  0  0  0  0
 48 50  1  0  0  0  0
 49 51  1  0  0  0  0
 49 84  1  0  0  0  0
 50 52  2  0  0  0  0
 50 85  1  0  0  0  0
 51 53  2  0  0  0  0
 51 87  1  0  0  0  0
 52 53  1  0  0  0  0
 52 88  1  0  0  0  0
M  END
>  <PUBCHEM_COMPOUND_CID>
100952216

>  <PUBCHEM_COMPOUND_CANONICALIZED>
1

>  <PUBCHEM_CACTVS_COMPLEXITY>
1310

>  <PUBCHEM_CACTVS_HBOND_ACCEPTOR>
17

>  <PUBCHEM_CACTVS_HBOND_DONOR>
10

>  <PUBCHEM_CACTVS_ROTATABLE_BOND>
10

>  <PUBCHEM_CACTVS_SUBSKEYS>
AAADcfB8PgAAAAAAAAAAAAAAAAAAAAAAAAA0aMECAAAAAACBUAAAGgAACAAADBSwmAMwDoAABgCIAqDSCAACCAAkIAAIiAEGCMgdNzaGNRqieWCl4BUPuYfI7PzOIAACCAAIAABAAAQQABAAAAAAAAAAAA==

>  <PUBCHEM_IUPAC_OPENEYE_NAME>
[(2R,3S,4S,5R,6S)-6-[(2S,3R,4S,5S,6R)-2-[5,7-dihydroxy-2-(4-hydroxyphenyl)-4-oxo-chromen-6-yl]-4,5-dihydroxy-6-(hydroxymethyl)tetrahydropyran-3-yl]oxy-3,4,5-trihydroxy-tetrahydropyran-2-yl]methyl (E)-3-(4-hydroxyphenyl)prop-2-enoate

>  <PUBCHEM_IUPAC_CAS_NAME>
(E)-3-(4-hydroxyphenyl)-2-propenoic acid [(2R,3S,4S,5R,6S)-6-[[(2S,3R,4S,5S,6R)-2-[5,7-dihydroxy-2-(4-hydroxyphenyl)-4-oxo-1-benzopyran-6-yl]-4,5-dihydroxy-6-(hydroxymethyl)-3-oxanyl]oxy]-3,4,5-trihydroxy-2-oxanyl]methyl ester

>  <PUBCHEM_IUPAC_NAME>
[(2R,3S,4S,5R,6S)-6-[(2S,3R,4S,5S,6R)-2-[5,7-dihydroxy-2-(4-hydroxyphenyl)-4-oxochromen-6-yl]-4,5-dihydroxy-6-(hydroxymethyl)oxan-3-yl]oxy-3,4,5-trihydroxyoxan-2-yl]methyl (E)-3-(4-hydroxyphenyl)prop-2-enoate

>  <PUBCHEM_IUPAC_SYSTEMATIC_NAME>
[(2R,3S,4S,5R,6S)-6-[(2S,3R,4S,5S,6R)-6-(hydroxymethyl)-2-[2-(4-hydroxyphenyl)-5,7-bis(oxidanyl)-4-oxidanylidene-chromen-6-yl]-4,5-bis(oxidanyl)oxan-3-yl]oxy-3,4,5-tris(oxidanyl)oxan-2-yl]methyl (E)-3-(4-hydroxyphenyl)prop-2-enoate

>  <PUBCHEM_IUPAC_TRADITIONAL_NAME>
(E)-3-(4-hydroxyphenyl)acrylic acid [(2R,3S,4S,5R,6S)-6-[(2S,3R,4S,5S,6R)-2-[5,7-dihydroxy-2-(4-hydroxyphenyl)-4-keto-chromen-6-yl]-4,5-dihydroxy-6-methylol-tetrahydropyran-3-yl]oxy-3,4,5-trihydroxy-tetrahydropyran-2-yl]methyl ester

>  <PUBCHEM_IUPAC_INCHI>
InChI=1S/C36H36O17/c37-13-23-28(43)32(47)35(53-36-33(48)31(46)29(44)24(52-36)14-49-25(42)10-3-15-1-6-17(38)7-2-15)34(51-23)27-20(41)12-22-26(30(27)45)19(40)11-21(50-22)16-4-8-18(39)9-5-16/h1-12,23-24,28-29,31-39,41,43-48H,13-14H2/b10-3+/t23-,24-,28-,29-,31+,32+,33-,34+,35-,36+/m1/s1

>  <PUBCHEM_IUPAC_INCHIKEY>
RECLDAGWBWVMCW-FLVHHGMVSA-N

>  <PUBCHEM_XLOGP3_AA>
0.4

>  <PUBCHEM_EXACT_MASS>
740.195

>  <PUBCHEM_MOLECULAR_FORMULA>
C36H36O17

>  <PUBCHEM_MOLECULAR_WEIGHT>
740.667

>  <PUBCHEM_OPENEYE_CAN_SMILES>
C1=CC(=CC=C1C=CC(=O)OCC2C(C(C(C(O2)OC3C(C(C(OC3C4=C(C=C5C(=C4O)C(=O)C=C(O5)C6=CC=C(C=C6)O)O)CO)O)O)O)O)O)O

>  <PUBCHEM_OPENEYE_ISO_SMILES>
C1=CC(=CC=C1/C=C/C(=O)OC[C@@H]2[C@H]([C@@H]([C@H]([C@@H](O2)O[C@@H]3[C@H]([C@@H]([C@H](O[C@H]3C4=C(C=C5C(=C4O)C(=O)C=C(O5)C6=CC=C(C=C6)O)O)CO)O)O)O)O)O)O

>  <PUBCHEM_CACTVS_TPSA>
283

>  <PUBCHEM_MONOISOTOPIC_WEIGHT>
740.195

>  <PUBCHEM_TOTAL_CHARGE>
0

>  <PUBCHEM_HEAVY_ATOM_COUNT>
53

>  <PUBCHEM_ATOM_DEF_STEREO_COUNT>
10

>  <PUBCHEM_ATOM_UDEF_STEREO_COUNT>
0

>  <PUBCHEM_BOND_DEF_STEREO_COUNT>
1

>  <PUBCHEM_BOND_UDEF_STEREO_COUNT>
0

>  <PUBCHEM_ISOTOPIC_ATOM_COUNT>
0

>  <PUBCHEM_COMPONENT_COUNT>
1

>  <PUBCHEM_CACTVS_TAUTO_COUNT>
228

>  <PUBCHEM_COORDINATE_TYPE>
1
5
255

>  <PUBCHEM_BONDANNOTATIONS>
18  1  6
23  1  5
13  35  8
13  38  8
20  56  6
22  29  5
27  30  5
28  31  8
28  32  8
31  33  8
32  34  8
33  35  8
33  36  8
34  35  8
36  37  8
37  38  8
19  4  5
40  42  8
40  43  8
42  45  8
43  46  8
45  47  8
46  47  8
48  49  8
48  50  8
49  51  8
21  5  6
50  52  8
51  53  8
52  53  8
24  6  6
25  7  5
26  8  6

$$$$
