100913778
 OpenBabel06101807152D

 94 99  0  0  1  0  0  0  0  0999 V2000
   10.3312   -1.7857    0.0000 O   0  0  0  0  0  0  0  0  0  0  0  0
    8.5991    0.2143    0.0000 O   0  0  0  0  0  0  0  0  0  0  0  0
    9.4651   -3.2857    0.0000 O   0  0  0  0  0  0  0  0  0  0  0  0
    6.0010   -0.2857    0.0000 O   0  0  0  0  0  0  0  0  0  0  0  0
    8.5991   -2.7857    0.0000 O   0  0  0  0  0  0  0  0  0  0  0  0
   10.3312    0.2143    0.0000 O   0  0  0  0  0  0  0  0  0  0  0  0
    6.8671   -1.7857    0.0000 O   0  0  0  0  0  0  0  0  0  0  0  0
    5.1350    1.2143    0.0000 O   0  0  0  0  0  0  0  0  0  0  0  0
   12.0632   -2.7857    0.0000 O   0  0  0  0  0  0  0  0  0  0  0  0
   12.0632   -4.7857    0.0000 O   0  0  0  0  0  0  0  0  0  0  0  0
   10.3312   -5.7857    0.0000 O   0  0  0  0  0  0  0  0  0  0  0  0
    4.2690   -1.2857    0.0000 O   0  0  0  0  0  0  0  0  0  0  0  0
    2.5369   -0.2857    0.0000 O   0  0  0  0  0  0  0  0  0  0  0  0
    2.5369    1.7143    0.0000 O   0  0  0  0  0  0  0  0  0  0  0  0
    7.7331   -4.2857    0.0000 O   0  0  0  0  0  0  0  0  0  0  0  0
   11.1972    2.7143    0.0000 O   0  0  0  0  0  0  0  0  0  0  0  0
    8.5991    1.2143    0.0000 O   0  0  0  0  0  0  0  0  0  0  0  0
    7.6950    2.7112    0.0000 O   0  0  0  0  0  0  0  0  0  0  0  0
    9.4530    5.7836    0.0000 O   0  0  0  0  0  0  0  0  0  0  0  0
   14.6613    1.7143    0.0000 O   0  0  0  0  0  0  0  0  0  0  0  0
   14.6613   -0.2857    0.0000 O   0  0  0  0  0  0  0  0  0  0  0  0
    9.4651   -1.2857    0.0000 C   0  0  2  0  0  0  0  0  0  0  0  0
    8.5991   -1.7857    0.0000 C   0  0  2  0  0  0  0  0  0  0  0  0
    7.7331   -1.2857    0.0000 C   0  0  1  0  0  0  0  0  0  0  0  0
    7.7331   -0.2857    0.0000 C   0  0  1  0  0  0  0  0  0  0  0  0
    9.4651   -0.2857    0.0000 C   0  0  1  0  0  0  0  0  0  0  0  0
   10.3312   -2.7857    0.0000 C   0  0  2  0  0  0  0  0  0  0  0  0
   11.1972   -3.2857    0.0000 C   0  0  1  0  0  0  0  0  0  0  0  0
   11.1972   -4.2857    0.0000 C   0  0  2  0  0  0  0  0  0  0  0  0
   10.3312   -4.7857    0.0000 C   0  0  1  0  0  0  0  0  0  0  0  0
    9.4651   -4.2857    0.0000 C   0  0  1  0  0  0  0  0  0  0  0  0
    6.8671    0.2143    0.0000 C   0  0  0  0  0  0  0  0  0  0  0  0
    5.1350    0.2143    0.0000 C   0  0  2  0  0  0  0  0  0  0  0  0
    4.2690   -0.2857    0.0000 C   0  0  1  0  0  0  0  0  0  0  0  0
    3.4030    0.2143    0.0000 C   0  0  1  0  0  0  0  0  0  0  0  0
    3.4030    1.2143    0.0000 C   0  0  2  0  0  0  0  0  0  0  0  0
    4.2690    1.7143    0.0000 C   0  0  2  0  0  0  0  0  0  0  0  0
    8.5991   -4.7857    0.0000 C   0  0  0  0  0  0  0  0  0  0  0  0
    4.2690    2.7143    0.0000 C   0  0  0  0  0  0  0  0  0  0  0  0
   10.3312    1.2143    0.0000 C   0  0  0  0  0  0  0  0  0  0  0  0
   11.1972    1.7143    0.0000 C   0  0  0  0  0  0  0  0  0  0  0  0
    9.4651    1.7143    0.0000 C   0  0  0  0  0  0  0  0  0  0  0  0
    9.4651    2.7143    0.0000 C   0  0  0  0  0  0  0  0  0  0  0  0
   12.0632    1.2143    0.0000 C   0  0  0  0  0  0  0  0  0  0  0  0
   10.3312    3.2143    0.0000 C   0  0  0  0  0  0  0  0  0  0  0  0
    8.5551    3.2212    0.0000 C   0  0  0  0  0  0  0  0  0  0  0  0
   10.3472    4.2558    0.0000 C   0  0  0  0  0  0  0  0  0  0  0  0
   12.9292    1.7143    0.0000 C   0  0  0  0  0  0  0  0  0  0  0  0
   12.0632    0.2143    0.0000 C   0  0  0  0  0  0  0  0  0  0  0  0
    8.5471    4.2628    0.0000 C   0  0  0  0  0  0  0  0  0  0  0  0
    9.4492    4.7836    0.0000 C   0  0  0  0  0  0  0  0  0  0  0  0
   13.7953    1.2143    0.0000 C   0  0  0  0  0  0  0  0  0  0  0  0
   12.9292   -0.2857    0.0000 C   0  0  0  0  0  0  0  0  0  0  0  0
   13.7953    0.2143    0.0000 C   0  0  0  0  0  0  0  0  0  0  0  0
   10.0021   -0.9757    0.0000 H   0  0  0  0  0  0  0  0  0  0  0  0
    8.0622   -2.0957    0.0000 H   0  0  0  0  0  0  0  0  0  0  0  0
    7.1962   -0.9757    0.0000 H   0  0  0  0  0  0  0  0  0  0  0  0
    7.7331    0.3343    0.0000 H   0  0  0  0  0  0  0  0  0  0  0  0
    9.4651    0.3343    0.0000 H   0  0  0  0  0  0  0  0  0  0  0  0
    9.7942   -2.4757    0.0000 H   0  0  0  0  0  0  0  0  0  0  0  0
   11.7341   -3.5957    0.0000 H   0  0  0  0  0  0  0  0  0  0  0  0
   11.1972   -4.9057    0.0000 H   0  0  0  0  0  0  0  0  0  0  0  0
    9.7942   -5.0957    0.0000 H   0  0  0  0  0  0  0  0  0  0  0  0
    8.9282   -3.9757    0.0000 H   0  0  0  0  0  0  0  0  0  0  0  0
    7.2656    0.6893    0.0000 H   0  0  0  0  0  0  0  0  0  0  0  0
    6.4685    0.6893    0.0000 H   0  0  0  0  0  0  0  0  0  0  0  0
    5.1350   -0.4057    0.0000 H   0  0  0  0  0  0  0  0  0  0  0  0
    3.7320   -0.5957    0.0000 H   0  0  0  0  0  0  0  0  0  0  0  0
    2.8660    0.5243    0.0000 H   0  0  0  0  0  0  0  0  0  0  0  0
    3.4030    1.8343    0.0000 H   0  0  0  0  0  0  0  0  0  0  0  0
    4.8059    2.0243    0.0000 H   0  0  0  0  0  0  0  0  0  0  0  0
    8.0622   -3.0957    0.0000 H   0  0  0  0  0  0  0  0  0  0  0  0
    8.2006   -5.2606    0.0000 H   0  0  0  0  0  0  0  0  0  0  0  0
    8.9976   -5.2606    0.0000 H   0  0  0  0  0  0  0  0  0  0  0  0
    6.8671   -2.4057    0.0000 H   0  0  0  0  0  0  0  0  0  0  0  0
   12.6002   -3.0957    0.0000 H   0  0  0  0  0  0  0  0  0  0  0  0
   12.0632   -5.4057    0.0000 H   0  0  0  0  0  0  0  0  0  0  0  0
    9.7942   -6.0957    0.0000 H   0  0  0  0  0  0  0  0  0  0  0  0
    4.8890    2.7143    0.0000 H   0  0  0  0  0  0  0  0  0  0  0  0
    4.2690    3.3343    0.0000 H   0  0  0  0  0  0  0  0  0  0  0  0
    3.6490    2.7143    0.0000 H   0  0  0  0  0  0  0  0  0  0  0  0
    3.7320   -1.5957    0.0000 H   0  0  0  0  0  0  0  0  0  0  0  0
    2.0000    0.0243    0.0000 H   0  0  0  0  0  0  0  0  0  0  0  0
    2.5369    2.3343    0.0000 H   0  0  0  0  0  0  0  0  0  0  0  0
    7.1962   -4.5957    0.0000 H   0  0  0  0  0  0  0  0  0  0  0  0
   10.8877    4.5596    0.0000 H   0  0  0  0  0  0  0  0  0  0  0  0
   12.9292    2.3343    0.0000 H   0  0  0  0  0  0  0  0  0  0  0  0
   11.5263   -0.0957    0.0000 H   0  0  0  0  0  0  0  0  0  0  0  0
    8.0090    4.5707    0.0000 H   0  0  0  0  0  0  0  0  0  0  0  0
   12.9292   -0.9057    0.0000 H   0  0  0  0  0  0  0  0  0  0  0  0
    7.1545    3.0150    0.0000 H   0  0  0  0  0  0  0  0  0  0  0  0
    8.9173    6.0957    0.0000 H   0  0  0  0  0  0  0  0  0  0  0  0
   14.6613    2.3343    0.0000 H   0  0  0  0  0  0  0  0  0  0  0  0
   14.6613   -0.9057    0.0000 H   0  0  0  0  0  0  0  0  0  0  0  0
  2 25  1  0  0  0  0
  2 26  1  0  0  0  0
  3 27  1  0  0  0  0
  3 31  1  0  0  0  0
  4 32  1  0  0  0  0
  5 72  1  0  0  0  0
  6 40  1  0  0  0  0
  7 75  1  0  0  0  0
  8 33  1  0  0  0  0
  8 37  1  0  0  0  0
  9 76  1  0  0  0  0
 10 77  1  0  0  0  0
 11 78  1  0  0  0  0
 12 82  1  0  0  0  0
 13 83  1  0  0  0  0
 14 84  1  0  0  0  0
 15 38  1  0  0  0  0
 15 85  1  0  0  0  0
 16 41  1  0  0  0  0
 16 45  1  0  0  0  0
 17 42  2  0  0  0  0
 18 46  1  0  0  0  0
 18 91  1  0  0  0  0
 19 51  1  0  0  0  0
 19 92  1  0  0  0  0
 20 52  1  0  0  0  0
 20 93  1  0  0  0  0
 21 54  1  0  0  0  0
 21 94  1  0  0  0  0
 22  1  1  0  0  0  0
 22 23  1  1  0  0  0
 22 55  1  0  0  0  0
 23  5  1  0  0  0  0
 23 24  1  1  0  0  0
 23 56  1  0  0  0  0
 24  7  1  0  0  0  0
 24 25  1  6  0  0  0
 24 57  1  0  0  0  0
 25 32  1  0  0  0  0
 25 58  1  6  0  0  0
 26  6  1  0  0  0  0
 26 22  1  6  0  0  0
 26 59  1  0  0  0  0
 27  1  1  0  0  0  0
 27 28  1  6  0  0  0
 27 60  1  0  0  0  0
 28  9  1  0  0  0  0
 28 29  1  6  0  0  0
 28 61  1  0  0  0  0
 29 10  1  0  0  0  0
 29 30  1  1  0  0  0
 29 62  1  0  0  0  0
 30 11  1  0  0  0  0
 30 31  1  6  0  0  0
 30 63  1  0  0  0  0
 31 38  1  0  0  0  0
 31 64  1  6  0  0  0
 32 65  1  0  0  0  0
 32 66  1  0  0  0  0
 33  4  1  0  0  0  0
 33 34  1  1  0  0  0
 33 67  1  0  0  0  0
 34 12  1  0  0  0  0
 34 35  1  6  0  0  0
 34 68  1  0  0  0  0
 35 13  1  0  0  0  0
 35 36  1  6  0  0  0
 35 69  1  0  0  0  0
 36 14  1  0  0  0  0
 36 37  1  1  0  0  0
 36 70  1  0  0  0  0
 37 39  1  0  0  0  0
 37 71  1  1  0  0  0
 38 73  1  0  0  0  0
 38 74  1  0  0  0  0
 39 79  1  0  0  0  0
 39 80  1  0  0  0  0
 39 81  1  0  0  0  0
 40 41  2  0  0  0  0
 40 42  1  0  0  0  0
 41 44  1  0  0  0  0
 42 43  1  0  0  0  0
 43 45  1  0  0  0  0
 43 46  2  0  0  0  0
 44 48  2  0  0  0  0
 44 49  1  0  0  0  0
 45 47  2  0  0  0  0
 46 50  1  0  0  0  0
 47 51  1  0  0  0  0
 47 86  1  0  0  0  0
 48 52  1  0  0  0  0
 48 87  1  0  0  0  0
 49 53  2  0  0  0  0
 49 88  1  0  0  0  0
 50 51  2  0  0  0  0
 50 89  1  0  0  0  0
 52 54  2  0  0  0  0
 53 54  1  0  0  0  0
 53 90  1  0  0  0  0
M  END
>  <PUBCHEM_COMPOUND_CID>
100913778

>  <PUBCHEM_COMPOUND_CANONICALIZED>
1

>  <PUBCHEM_CACTVS_COMPLEXITY>
1320

>  <PUBCHEM_CACTVS_HBOND_ACCEPTOR>
21

>  <PUBCHEM_CACTVS_HBOND_DONOR>
13

>  <PUBCHEM_CACTVS_ROTATABLE_BOND>
9

>  <PUBCHEM_CACTVS_SUBSKEYS>
AAADcfB8PgAAAAAAAAAAAAAAAAAAAAAAAAA0aJECAAAAAACBQAAAGgAACAAADBSwmAMyDoAABgCIAqBSAAICCAAkIAAIiAFGiMgdNzaGNR6ieWGl4BUPuQfI7LzOIAABCAAIQABAAAIQABCAAAAAAAAAAA==

>  <PUBCHEM_IUPAC_OPENEYE_NAME>
2-(3,4-dihydroxyphenyl)-3-[(2S,3R,4S,5S,6R)-4,5-dihydroxy-3-[(2S,3R,4S,5S,6R)-3,4,5-trihydroxy-6-(hydroxymethyl)tetrahydropyran-2-yl]oxy-6-[[(2R,3R,4R,5R,6S)-3,4,5-trihydroxy-6-methyl-tetrahydropyran-2-yl]oxymethyl]tetrahydropyran-2-yl]oxy-5,7-dihydroxy-chromen-4-one

>  <PUBCHEM_IUPAC_CAS_NAME>
2-(3,4-dihydroxyphenyl)-3-[[(2S,3R,4S,5S,6R)-4,5-dihydroxy-3-[[(2S,3R,4S,5S,6R)-3,4,5-trihydroxy-6-(hydroxymethyl)-2-oxanyl]oxy]-6-[[(2R,3R,4R,5R,6S)-3,4,5-trihydroxy-6-methyl-2-oxanyl]oxymethyl]-2-oxanyl]oxy]-5,7-dihydroxy-1-benzopyran-4-one

>  <PUBCHEM_IUPAC_NAME>
2-(3,4-dihydroxyphenyl)-3-[(2S,3R,4S,5S,6R)-4,5-dihydroxy-3-[(2S,3R,4S,5S,6R)-3,4,5-trihydroxy-6-(hydroxymethyl)oxan-2-yl]oxy-6-[[(2R,3R,4R,5R,6S)-3,4,5-trihydroxy-6-methyloxan-2-yl]oxymethyl]oxan-2-yl]oxy-5,7-dihydroxychromen-4-one

>  <PUBCHEM_IUPAC_SYSTEMATIC_NAME>
2-[3,4-bis(oxidanyl)phenyl]-3-[(2S,3R,4S,5S,6R)-3-[(2S,3R,4S,5S,6R)-6-(hydroxymethyl)-3,4,5-tris(oxidanyl)oxan-2-yl]oxy-6-[[(2R,3R,4R,5R,6S)-6-methyl-3,4,5-tris(oxidanyl)oxan-2-yl]oxymethyl]-4,5-bis(oxidanyl)oxan-2-yl]oxy-5,7-bis(oxidanyl)chromen-4-one

>  <PUBCHEM_IUPAC_TRADITIONAL_NAME>
2-(3,4-dihydroxyphenyl)-3-[(2S,3R,4S,5S,6R)-4,5-dihydroxy-3-[(2S,3R,4S,5S,6R)-3,4,5-trihydroxy-6-methylol-tetrahydropyran-2-yl]oxy-6-[[(2R,3R,4R,5R,6S)-3,4,5-trihydroxy-6-methyl-tetrahydropyran-2-yl]oxymethyl]tetrahydropyran-2-yl]oxy-5,7-dihydroxy-chromone

>  <PUBCHEM_IUPAC_INCHI>
InChI=1S/C33H40O21/c1-9-19(39)23(43)26(46)31(49-9)48-8-17-21(41)25(45)30(54-32-27(47)24(44)20(40)16(7-34)51-32)33(52-17)53-29-22(42)18-14(38)5-11(35)6-15(18)50-28(29)10-2-3-12(36)13(37)4-10/h2-6,9,16-17,19-21,23-27,30-41,43-47H,7-8H2,1H3/t9-,16+,17+,19-,20+,21+,23+,24-,25-,26+,27+,30+,31+,32-,33-/m0/s1

>  <PUBCHEM_IUPAC_INCHIKEY>
MNMUPTOJETVJCW-WHBTYZLHSA-N

>  <PUBCHEM_XLOGP3_AA>
-2.9

>  <PUBCHEM_EXACT_MASS>
772.206

>  <PUBCHEM_MOLECULAR_FORMULA>
C33H40O21

>  <PUBCHEM_MOLECULAR_WEIGHT>
772.662

>  <PUBCHEM_OPENEYE_CAN_SMILES>
CC1C(C(C(C(O1)OCC2C(C(C(C(O2)OC3=C(OC4=CC(=CC(=C4C3=O)O)O)C5=CC(=C(C=C5)O)O)OC6C(C(C(C(O6)CO)O)O)O)O)O)O)O)O

>  <PUBCHEM_OPENEYE_ISO_SMILES>
C[C@H]1[C@@H]([C@H]([C@H]([C@@H](O1)OC[C@@H]2[C@H]([C@@H]([C@H]([C@@H](O2)OC3=C(OC4=CC(=CC(=C4C3=O)O)O)C5=CC(=C(C=C5)O)O)O[C@H]6[C@@H]([C@H]([C@@H]([C@H](O6)CO)O)O)O)O)O)O)O)O

>  <PUBCHEM_CACTVS_TPSA>
345

>  <PUBCHEM_MONOISOTOPIC_WEIGHT>
772.206

>  <PUBCHEM_TOTAL_CHARGE>
0

>  <PUBCHEM_HEAVY_ATOM_COUNT>
54

>  <PUBCHEM_ATOM_DEF_STEREO_COUNT>
15

>  <PUBCHEM_ATOM_UDEF_STEREO_COUNT>
0

>  <PUBCHEM_BOND_DEF_STEREO_COUNT>
0

>  <PUBCHEM_BOND_UDEF_STEREO_COUNT>
0

>  <PUBCHEM_ISOTOPIC_ATOM_COUNT>
0

>  <PUBCHEM_COMPONENT_COUNT>
1

>  <PUBCHEM_CACTVS_TAUTO_COUNT>
114

>  <PUBCHEM_COORDINATE_TYPE>
1
5
255

>  <PUBCHEM_BONDANNOTATIONS>
22  1  6
27  1  5
29  10  5
30  11  6
34  12  6
35  13  6
36  14  5
16  41  8
16  45  8
25  32  5
31  38  5
37  39  6
33  4  5
40  41  8
40  42  8
42  43  8
43  45  8
43  46  8
44  48  8
44  49  8
45  47  8
46  50  8
47  51  8
48  52  8
49  53  8
23  5  5
50  51  8
52  54  8
53  54  8
26  6  5
24  7  6
28  9  6

$$$$
