100914975
 OpenBabel06101807152D

 72 76  0  0  1  0  0  0  0  0999 V2000
   10.6603   -1.1296    0.0000 O   0  0  0  0  0  0  0  0  0  0  0  0
   12.3923   -1.1296    0.0000 O   0  0  0  0  0  0  0  0  0  0  0  0
    8.9282   -3.1296    0.0000 O   0  0  0  0  0  0  0  0  0  0  0  0
   10.6603   -4.1296    0.0000 O   0  0  0  0  0  0  0  0  0  0  0  0
   12.3923   -3.1296    0.0000 O   0  0  0  0  0  0  0  0  0  0  0  0
    8.0622   -1.6296    0.0000 O   0  0  0  0  0  0  0  0  0  0  0  0
   13.2583    1.3704    0.0000 O   0  0  0  0  0  0  0  0  0  0  0  0
    7.1962   -0.1296    0.0000 O   0  3  0  0  0  0  0  0  0  0  0  0
    9.7561    1.3672    0.0000 O   0  0  0  0  0  0  0  0  0  0  0  0
   16.7224    0.3704    0.0000 O   0  0  0  0  0  0  0  0  0  0  0  0
   14.9904   -2.6296    0.0000 O   0  0  0  0  0  0  0  0  0  0  0  0
   11.5142    4.4396    0.0000 O   0  0  0  0  0  0  0  0  0  0  0  0
   16.7224   -1.6296    0.0000 O   0  0  0  0  0  0  0  0  0  0  0  0
    2.0000   -1.1296    0.0000 O   0  0  0  0  0  0  0  0  0  0  0  0
    2.0000   -3.1296    0.0000 O   0  0  0  0  0  0  0  0  0  0  0  0
    9.7942   -2.6296    0.0000 C   0  0  1  0  0  0  0  0  0  0  0  0
   10.6603   -3.1296    0.0000 C   0  0  1  0  0  0  0  0  0  0  0  0
    9.7942   -1.6296    0.0000 C   0  0  1  0  0  0  0  0  0  0  0  0
   11.5263   -2.6296    0.0000 C   0  0  2  0  0  0  0  0  0  0  0  0
   11.5263   -1.6296    0.0000 C   0  0  1  0  0  0  0  0  0  0  0  0
    8.9282   -1.1296    0.0000 C   0  0  0  0  0  0  0  0  0  0  0  0
   12.3923   -0.1296    0.0000 C   0  0  0  0  0  0  0  0  0  0  0  0
   13.2583    0.3704    0.0000 C   0  0  0  0  0  0  0  0  0  0  0  0
   11.5263    0.3704    0.0000 C   0  0  0  0  0  0  0  0  0  0  0  0
   11.5263    1.3704    0.0000 C   0  0  0  0  0  0  0  0  0  0  0  0
    7.1962   -1.1296    0.0000 C   0  0  0  0  0  0  0  0  0  0  0  0
   14.1244   -0.1296    0.0000 C   0  0  0  0  0  0  0  0  0  0  0  0
   12.3923    1.8704    0.0000 C   0  0  0  0  0  0  0  0  0  0  0  0
   10.6163    1.8772    0.0000 C   0  0  0  0  0  0  0  0  0  0  0  0
    6.3301   -1.6296    0.0000 C   0  0  0  0  0  0  0  0  0  0  0  0
   12.4084    2.9119    0.0000 C   0  0  0  0  0  0  0  0  0  0  0  0
   14.1244   -1.1296    0.0000 C   0  0  0  0  0  0  0  0  0  0  0  0
   14.9904    0.3704    0.0000 C   0  0  0  0  0  0  0  0  0  0  0  0
   10.6082    2.9188    0.0000 C   0  0  0  0  0  0  0  0  0  0  0  0
   11.5103    3.4396    0.0000 C   0  0  0  0  0  0  0  0  0  0  0  0
   15.8564   -0.1296    0.0000 C   0  0  0  0  0  0  0  0  0  0  0  0
   14.9904   -1.6296    0.0000 C   0  0  0  0  0  0  0  0  0  0  0  0
   15.8564   -1.1296    0.0000 C   0  0  0  0  0  0  0  0  0  0  0  0
    5.4641   -1.1296    0.0000 C   0  0  0  0  0  0  0  0  0  0  0  0
    4.5981   -1.6296    0.0000 C   0  0  0  0  0  0  0  0  0  0  0  0
    3.7320   -1.1296    0.0000 C   0  0  0  0  0  0  0  0  0  0  0  0
    4.5981   -2.6296    0.0000 C   0  0  0  0  0  0  0  0  0  0  0  0
    2.8660   -1.6296    0.0000 C   0  0  0  0  0  0  0  0  0  0  0  0
    3.7320   -3.1296    0.0000 C   0  0  0  0  0  0  0  0  0  0  0  0
    2.8660   -2.6296    0.0000 C   0  0  0  0  0  0  0  0  0  0  0  0
    9.2573   -2.3196    0.0000 H   0  0  0  0  0  0  0  0  0  0  0  0
   11.1972   -3.4396    0.0000 H   0  0  0  0  0  0  0  0  0  0  0  0
    9.7942   -1.0096    0.0000 H   0  0  0  0  0  0  0  0  0  0  0  0
   12.0632   -2.3196    0.0000 H   0  0  0  0  0  0  0  0  0  0  0  0
   11.5263   -1.0096    0.0000 H   0  0  0  0  0  0  0  0  0  0  0  0
    9.3267   -0.6547    0.0000 H   0  0  0  0  0  0  0  0  0  0  0  0
    8.5297   -0.6547    0.0000 H   0  0  0  0  0  0  0  0  0  0  0  0
    8.9282   -3.7496    0.0000 H   0  0  0  0  0  0  0  0  0  0  0  0
   10.1233   -4.4396    0.0000 H   0  0  0  0  0  0  0  0  0  0  0  0
   12.3923   -3.7496    0.0000 H   0  0  0  0  0  0  0  0  0  0  0  0
   10.9893    0.0604    0.0000 H   0  0  0  0  0  0  0  0  0  0  0  0
   12.9488    3.2156    0.0000 H   0  0  0  0  0  0  0  0  0  0  0  0
    6.3301   -2.2496    0.0000 H   0  0  0  0  0  0  0  0  0  0  0  0
   13.5874   -1.4396    0.0000 H   0  0  0  0  0  0  0  0  0  0  0  0
   14.9904    0.9904    0.0000 H   0  0  0  0  0  0  0  0  0  0  0  0
   10.0701    3.2268    0.0000 H   0  0  0  0  0  0  0  0  0  0  0  0
    6.6592    0.1804    0.0000 H   0  0  0  0  0  0  0  0  0  0  0  0
    5.4641   -0.5096    0.0000 H   0  0  0  0  0  0  0  0  0  0  0  0
    9.2156    1.6710    0.0000 H   0  0  0  0  0  0  0  0  0  0  0  0
   16.7224    0.9904    0.0000 H   0  0  0  0  0  0  0  0  0  0  0  0
   15.5273   -2.9396    0.0000 H   0  0  0  0  0  0  0  0  0  0  0  0
   17.2594   -1.3196    0.0000 H   0  0  0  0  0  0  0  0  0  0  0  0
    3.7320   -0.5096    0.0000 H   0  0  0  0  0  0  0  0  0  0  0  0
    5.1350   -2.9396    0.0000 H   0  0  0  0  0  0  0  0  0  0  0  0
    3.7320   -3.7496    0.0000 H   0  0  0  0  0  0  0  0  0  0  0  0
    2.0000   -0.5096    0.0000 H   0  0  0  0  0  0  0  0  0  0  0  0
    2.0000   -3.7496    0.0000 H   0  0  0  0  0  0  0  0  0  0  0  0
  1 18  1  0  0  0  0
  1 20  1  0  0  0  0
  2 22  1  0  0  0  0
  3 53  1  0  0  0  0
  4 54  1  0  0  0  0
  5 55  1  0  0  0  0
  6 21  1  0  0  0  0
  6 26  1  0  0  0  0
  7 23  1  0  0  0  0
  7 28  1  0  0  0  0
  8 26  2  0  0  0  0
  8 62  1  0  0  0  0
  9 29  1  0  0  0  0
  9 64  1  0  0  0  0
 10 36  1  0  0  0  0
 10 65  1  0  0  0  0
 11 37  1  0  0  0  0
 11 66  1  0  0  0  0
 12 35  2  0  0  0  0
 13 38  1  0  0  0  0
 13 67  1  0  0  0  0
 14 43  1  0  0  0  0
 14 71  1  0  0  0  0
 15 45  1  0  0  0  0
 15 72  1  0  0  0  0
 16  3  1  0  0  0  0
 16 17  1  1  0  0  0
 16 46  1  0  0  0  0
 17  4  1  0  0  0  0
 17 19  1  1  0  0  0
 17 47  1  0  0  0  0
 18 16  1  6  0  0  0
 18 21  1  0  0  0  0
 18 48  1  0  0  0  0
 19  5  1  0  0  0  0
 19 20  1  6  0  0  0
 19 49  1  0  0  0  0
 20  2  1  0  0  0  0
 20 50  1  6  0  0  0
 21 51  1  0  0  0  0
 21 52  1  0  0  0  0
 22 23  2  0  0  0  0
 22 24  1  0  0  0  0
 23 27  1  0  0  0  0
 24 25  2  0  0  0  0
 24 56  1  0  0  0  0
 25 28  1  0  0  0  0
 25 29  1  0  0  0  0
 26 30  1  0  0  0  0
 27 32  2  0  0  0  0
 27 33  1  0  0  0  0
 28 31  2  0  0  0  0
 29 34  2  0  0  0  0
 30 39  2  3  0  0  0
 30 58  1  0  0  0  0
 31 35  1  0  0  0  0
 31 57  1  0  0  0  0
 32 37  1  0  0  0  0
 32 59  1  0  0  0  0
 33 36  2  0  0  0  0
 33 60  1  0  0  0  0
 34 35  1  0  0  0  0
 34 61  1  0  0  0  0
 36 38  1  0  0  0  0
 37 38  2  0  0  0  0
 39 40  1  0  0  0  0
 39 63  1  0  0  0  0
 40 41  2  0  0  0  0
 40 42  1  0  0  0  0
 41 43  1  0  0  0  0
 41 68  1  0  0  0  0
 42 44  2  0  0  0  0
 42 69  1  0  0  0  0
 43 45  2  0  0  0  0
 44 45  1  0  0  0  0
 44 70  1  0  0  0  0
M  CHG  1   8   1
M  END
>  <PUBCHEM_COMPOUND_CID>
100914975

>  <PUBCHEM_COMPOUND_CANONICALIZED>
1

>  <PUBCHEM_CACTVS_COMPLEXITY>
1290

>  <PUBCHEM_CACTVS_HBOND_ACCEPTOR>
14

>  <PUBCHEM_CACTVS_HBOND_DONOR>
10

>  <PUBCHEM_CACTVS_ROTATABLE_BOND>
8

>  <PUBCHEM_CACTVS_SUBSKEYS>
AAADceB4PAAAAAAAAAAAAAAAAAAAAAAAAAA0YIECAAAAAACBQAAAGgAACAAADBSwmAMwDoAABgCIAqDSCAACCAAgIAAIiAAGiMgZNyKCMRqicAElwBUPuYfA4DwOIAABCAAAQABAAAIQAACAAAAAAAAAAA==

>  <PUBCHEM_IUPAC_OPENEYE_NAME>
[3-(3,4-dihydroxyphenyl)-1-[[(2R,3S,4S,5R,6S)-3,4,5-trihydroxy-6-[5-hydroxy-7-oxo-2-(3,4,5-trihydroxyphenyl)chromen-3-yl]oxy-tetrahydropyran-2-yl]methoxy]prop-2-enylidene]oxonium

>  <PUBCHEM_IUPAC_CAS_NAME>
[3-(3,4-dihydroxyphenyl)-1-[[(2R,3S,4S,5R,6S)-3,4,5-trihydroxy-6-[[5-hydroxy-7-oxo-2-(3,4,5-trihydroxyphenyl)-1-benzopyran-3-yl]oxy]-2-oxanyl]methoxy]prop-2-enylidene]oxonium

>  <PUBCHEM_IUPAC_NAME>
[3-(3,4-dihydroxyphenyl)-1-[[(2R,3S,4S,5R,6S)-3,4,5-trihydroxy-6-[5-hydroxy-7-oxo-2-(3,4,5-trihydroxyphenyl)chromen-3-yl]oxyoxan-2-yl]methoxy]prop-2-enylidene]oxidanium

>  <PUBCHEM_IUPAC_SYSTEMATIC_NAME>
[3-[3,4-bis(oxidanyl)phenyl]-1-[[(2R,3S,4S,5R,6S)-3,4,5-tris(oxidanyl)-6-[5-oxidanyl-7-oxidanylidene-2-[3,4,5-tris(oxidanyl)phenyl]chromen-3-yl]oxy-oxan-2-yl]methoxy]prop-2-enylidene]oxidanium

>  <PUBCHEM_IUPAC_TRADITIONAL_NAME>
[3-(3,4-dihydroxyphenyl)-1-[[(2R,3S,4S,5R,6S)-3,4,5-trihydroxy-6-[5-hydroxy-7-keto-2-(3,4,5-trihydroxyphenyl)chromen-3-yl]oxy-tetrahydropyran-2-yl]methoxy]prop-2-enylidene]oxonium

>  <PUBCHEM_IUPAC_INCHI>
InChI=1S/C30H26O15/c31-14-8-17(33)15-10-22(29(43-21(15)9-14)13-6-19(35)25(38)20(36)7-13)44-30-28(41)27(40)26(39)23(45-30)11-42-24(37)4-2-12-1-3-16(32)18(34)5-12/h1-10,23,26-28,30,32-36,38-41H,11H2/p+1/t23-,26-,27+,28-,30-/m1/s1

>  <PUBCHEM_IUPAC_INCHIKEY>
BFLXXQALXLAYEH-LHRGPQAGSA-O

>  <PUBCHEM_XLOGP3_AA>
-0.1

>  <PUBCHEM_EXACT_MASS>
627.135

>  <PUBCHEM_MOLECULAR_FORMULA>
C30H27O15+

>  <PUBCHEM_MOLECULAR_WEIGHT>
627.531

>  <PUBCHEM_OPENEYE_CAN_SMILES>
C1=CC(=C(C=C1C=CC(=[OH+])OCC2C(C(C(C(O2)OC3=C(OC4=CC(=O)C=C(C4=C3)O)C5=CC(=C(C(=C5)O)O)O)O)O)O)O)O

>  <PUBCHEM_OPENEYE_ISO_SMILES>
C1=CC(=C(C=C1C=CC(=[OH+])OC[C@@H]2[C@H]([C@@H]([C@H]([C@@H](O2)OC3=C(OC4=CC(=O)C=C(C4=C3)O)C5=CC(=C(C(=C5)O)O)O)O)O)O)O)O

>  <PUBCHEM_CACTVS_TPSA>
237

>  <PUBCHEM_MONOISOTOPIC_WEIGHT>
627.135

>  <PUBCHEM_TOTAL_CHARGE>
1

>  <PUBCHEM_HEAVY_ATOM_COUNT>
45

>  <PUBCHEM_ATOM_DEF_STEREO_COUNT>
5

>  <PUBCHEM_ATOM_UDEF_STEREO_COUNT>
0

>  <PUBCHEM_BOND_DEF_STEREO_COUNT>
0

>  <PUBCHEM_BOND_UDEF_STEREO_COUNT>
1

>  <PUBCHEM_ISOTOPIC_ATOM_COUNT>
0

>  <PUBCHEM_COMPONENT_COUNT>
1

>  <PUBCHEM_CACTVS_TAUTO_COUNT>
882

>  <PUBCHEM_COORDINATE_TYPE>
1
5
255

>  <PUBCHEM_BONDANNOTATIONS>
18  21  5
20  2  5
22  23  8
22  24  8
24  25  8
25  29  8
27  32  8
27  33  8
28  31  8
29  34  8
16  3  6
30  39  1
31  35  8
32  37  8
33  36  8
34  35  8
36  38  8
37  38  8
17  4  5
40  41  8
40  42  8
41  43  8
42  44  8
43  45  8
44  45  8
19  5  6
7  23  8
7  28  8

$$$$
