100927766
 OpenBabel06101807152D

 44 47  0  0  0  0  0  0  0  0999 V2000
    7.9128   -0.1447    0.0000 O   0  0  0  0  0  0  0  0  0  0  0  0
   11.3769   -2.1447    0.0000 O   0  0  0  0  0  0  0  0  0  0  0  0
   10.6154    2.3498    0.0000 N   0  0  0  0  0  0  0  0  0  0  0  0
    3.4782   -1.6392    0.0000 N   0  0  0  0  0  0  0  0  0  0  0  0
   11.4244    0.9486    0.0000 N   0  0  0  0  0  0  0  0  0  0  0  0
    2.6691   -0.2380    0.0000 N   0  0  0  0  0  0  0  0  0  0  0  0
    9.6448   -0.1447    0.0000 C   0  0  0  0  0  0  0  0  0  0  0  0
    9.6448    0.8553    0.0000 C   0  0  0  0  0  0  0  0  0  0  0  0
    8.7788   -0.6447    0.0000 C   0  0  0  0  0  0  0  0  0  0  0  0
    5.3147   -0.6447    0.0000 C   0  0  0  0  0  0  0  0  0  0  0  0
    4.4487   -0.1447    0.0000 C   0  0  0  0  0  0  0  0  0  0  0  0
    7.0468   -0.6447    0.0000 C   0  0  0  0  0  0  0  0  0  0  0  0
   10.5109    1.3553    0.0000 C   0  0  0  0  0  0  0  0  0  0  0  0
    6.1808   -0.1447    0.0000 C   0  0  0  0  0  0  0  0  0  0  0  0
   10.5109   -0.6447    0.0000 C   0  0  0  0  0  0  0  0  0  0  0  0
    8.7788   -1.6447    0.0000 C   0  0  0  0  0  0  0  0  0  0  0  0
    3.5827   -0.6447    0.0000 C   0  0  0  0  0  0  0  0  0  0  0  0
    5.3147   -1.6447    0.0000 C   0  0  0  0  0  0  0  0  0  0  0  0
   10.5109   -1.6447    0.0000 C   0  0  0  0  0  0  0  0  0  0  0  0
    7.0468   -1.6447    0.0000 C   0  0  0  0  0  0  0  0  0  0  0  0
    9.6448   -2.1447    0.0000 C   0  0  0  0  0  0  0  0  0  0  0  0
    6.1808   -2.1447    0.0000 C   0  0  0  0  0  0  0  0  0  0  0  0
   11.5936    2.5577    0.0000 C   0  0  0  0  0  0  0  0  0  0  0  0
   12.0936    1.6917    0.0000 C   0  0  0  0  0  0  0  0  0  0  0  0
    2.5000   -1.8471    0.0000 C   0  0  0  0  0  0  0  0  0  0  0  0
    2.0000   -0.9811    0.0000 C   0  0  0  0  0  0  0  0  0  0  0  0
    9.4328    1.4379    0.0000 H   0  0  0  0  0  0  0  0  0  0  0  0
    9.0343    0.7476    0.0000 H   0  0  0  0  0  0  0  0  0  0  0  0
    4.8472    0.3303    0.0000 H   0  0  0  0  0  0  0  0  0  0  0  0
    4.0502    0.3303    0.0000 H   0  0  0  0  0  0  0  0  0  0  0  0
    6.1808    0.4753    0.0000 H   0  0  0  0  0  0  0  0  0  0  0  0
   11.0478   -0.3347    0.0000 H   0  0  0  0  0  0  0  0  0  0  0  0
    8.2419   -1.9547    0.0000 H   0  0  0  0  0  0  0  0  0  0  0  0
    4.7778   -1.9547    0.0000 H   0  0  0  0  0  0  0  0  0  0  0  0
    7.5837   -1.9547    0.0000 H   0  0  0  0  0  0  0  0  0  0  0  0
    9.6448   -2.7647    0.0000 H   0  0  0  0  0  0  0  0  0  0  0  0
    6.1808   -2.7647    0.0000 H   0  0  0  0  0  0  0  0  0  0  0  0
   10.1547    2.7647    0.0000 H   0  0  0  0  0  0  0  0  0  0  0  0
    3.9389   -2.0541    0.0000 H   0  0  0  0  0  0  0  0  0  0  0  0
   11.8457    3.1241    0.0000 H   0  0  0  0  0  0  0  0  0  0  0  0
   12.7102    1.6269    0.0000 H   0  0  0  0  0  0  0  0  0  0  0  0
    2.2478   -2.4135    0.0000 H   0  0  0  0  0  0  0  0  0  0  0  0
    1.3834   -0.9163    0.0000 H   0  0  0  0  0  0  0  0  0  0  0  0
   11.3769   -2.7647    0.0000 H   0  0  0  0  0  0  0  0  0  0  0  0
  1  9  1  0  0  0  0
  1 12  1  0  0  0  0
  2 19  1  0  0  0  0
  2 44  1  0  0  0  0
  3 13  1  0  0  0  0
  3 23  1  0  0  0  0
  3 38  1  0  0  0  0
  4 17  1  0  0  0  0
  4 25  1  0  0  0  0
  4 39  1  0  0  0  0
  5 13  2  0  0  0  0
  5 24  1  0  0  0  0
  6 17  2  0  0  0  0
  6 26  1  0  0  0  0
  7  8  1  0  0  0  0
  7  9  2  0  0  0  0
  7 15  1  0  0  0  0
  8 13  1  0  0  0  0
  8 27  1  0  0  0  0
  8 28  1  0  0  0  0
  9 16  1  0  0  0  0
 10 11  1  0  0  0  0
 10 14  2  0  0  0  0
 10 18  1  0  0  0  0
 11 17  1  0  0  0  0
 11 29  1  0  0  0  0
 11 30  1  0  0  0  0
 12 14  1  0  0  0  0
 12 20  2  0  0  0  0
 14 31  1  0  0  0  0
 15 19  2  0  0  0  0
 15 32  1  0  0  0  0
 16 21  2  0  0  0  0
 16 33  1  0  0  0  0
 18 22  2  0  0  0  0
 18 34  1  0  0  0  0
 19 21  1  0  0  0  0
 20 22  1  0  0  0  0
 20 35  1  0  0  0  0
 21 36  1  0  0  0  0
 22 37  1  0  0  0  0
 23 24  2  0  0  0  0
 23 40  1  0  0  0  0
 24 41  1  0  0  0  0
 25 26  2  0  0  0  0
 25 42  1  0  0  0  0
 26 43  1  0  0  0  0
M  END
>  <PUBCHEM_COMPOUND_CID>
100927766

>  <PUBCHEM_COMPOUND_CANONICALIZED>
1

>  <PUBCHEM_CACTVS_COMPLEXITY>
438

>  <PUBCHEM_CACTVS_HBOND_ACCEPTOR>
4

>  <PUBCHEM_CACTVS_HBOND_DONOR>
3

>  <PUBCHEM_CACTVS_ROTATABLE_BOND>
6

>  <PUBCHEM_CACTVS_SUBSKEYS>
AAADceB7sAAAAAAAAAAAAAAAAAAAAWLAAAAwYAAAAAAAAAAB9AAAHgAQCAAADATBmwQ9lpbJlgCgAjJnZAACiC2xMqAJyYA+OIiMbiKGuRuWeCCs0BOIuCfw0LIOAQABAAAIAAACAAIAABAAAAAAAAAAAA==

>  <PUBCHEM_IUPAC_OPENEYE_NAME>
3-(1H-imidazol-2-ylmethyl)-4-[3-(1H-imidazol-2-ylmethyl)phenoxy]phenol

>  <PUBCHEM_IUPAC_CAS_NAME>
3-(1H-imidazol-2-ylmethyl)-4-[3-(1H-imidazol-2-ylmethyl)phenoxy]phenol

>  <PUBCHEM_IUPAC_NAME>
3-(1H-imidazol-2-ylmethyl)-4-[3-(1H-imidazol-2-ylmethyl)phenoxy]phenol

>  <PUBCHEM_IUPAC_SYSTEMATIC_NAME>
3-(1H-imidazol-2-ylmethyl)-4-[3-(1H-imidazol-2-ylmethyl)phenoxy]phenol

>  <PUBCHEM_IUPAC_TRADITIONAL_NAME>
3-(1H-imidazol-2-ylmethyl)-4-[3-(1H-imidazol-2-ylmethyl)phenoxy]phenol

>  <PUBCHEM_IUPAC_INCHI>
InChI=1S/C20H18N4O2/c25-16-4-5-18(15(12-16)13-20-23-8-9-24-20)26-17-3-1-2-14(10-17)11-19-21-6-7-22-19/h1-10,12,25H,11,13H2,(H,21,22)(H,23,24)

>  <PUBCHEM_IUPAC_INCHIKEY>
KDBJPLXCURQBOE-UHFFFAOYSA-N

>  <PUBCHEM_XLOGP3_AA>
3.3

>  <PUBCHEM_EXACT_MASS>
346.143

>  <PUBCHEM_MOLECULAR_FORMULA>
C20H18N4O2

>  <PUBCHEM_MOLECULAR_WEIGHT>
346.39

>  <PUBCHEM_OPENEYE_CAN_SMILES>
C1=CC(=CC(=C1)OC2=C(C=C(C=C2)O)CC3=NC=CN3)CC4=NC=CN4

>  <PUBCHEM_OPENEYE_ISO_SMILES>
C1=CC(=CC(=C1)OC2=C(C=C(C=C2)O)CC3=NC=CN3)CC4=NC=CN4

>  <PUBCHEM_CACTVS_TPSA>
86.8

>  <PUBCHEM_MONOISOTOPIC_WEIGHT>
346.143

>  <PUBCHEM_TOTAL_CHARGE>
0

>  <PUBCHEM_HEAVY_ATOM_COUNT>
26

>  <PUBCHEM_ATOM_DEF_STEREO_COUNT>
0

>  <PUBCHEM_ATOM_UDEF_STEREO_COUNT>
0

>  <PUBCHEM_BOND_DEF_STEREO_COUNT>
0

>  <PUBCHEM_BOND_UDEF_STEREO_COUNT>
0

>  <PUBCHEM_ISOTOPIC_ATOM_COUNT>
0

>  <PUBCHEM_COMPONENT_COUNT>
1

>  <PUBCHEM_CACTVS_TAUTO_COUNT>
96

>  <PUBCHEM_COORDINATE_TYPE>
1
5
255

>  <PUBCHEM_BONDANNOTATIONS>
10  14  8
10  18  8
12  14  8
12  20  8
15  19  8
16  21  8
18  22  8
19  21  8
20  22  8
23  24  8
25  26  8
3  13  8
3  23  8
4  17  8
4  25  8
5  13  8
5  24  8
6  17  8
6  26  8
7  15  8
7  9  8
9  16  8

$$$$
