100917934
 OpenBabel06101807152D

 64 67  0  0  1  0  0  0  0  0999 V2000
    9.4651   -1.2857    0.0000 O   0  0  0  0  0  0  0  0  0  0  0  0
   11.1972   -1.2857    0.0000 O   0  0  0  0  0  0  0  0  0  0  0  0
    7.7331   -3.2857    0.0000 O   0  0  0  0  0  0  0  0  0  0  0  0
    9.4651   -4.2857    0.0000 O   0  0  0  0  0  0  0  0  0  0  0  0
   11.1972   -3.2857    0.0000 O   0  0  0  0  0  0  0  0  0  0  0  0
    6.8671   -1.7857    0.0000 O   0  0  0  0  0  0  0  0  0  0  0  0
   12.0632    1.2143    0.0000 O   0  3  0  0  0  0  0  0  0  0  0  0
    6.0010   -0.2857    0.0000 O   0  0  0  0  0  0  0  0  0  0  0  0
    8.5610    1.2112    0.0000 O   0  0  0  0  0  0  0  0  0  0  0  0
   10.3191    4.2836    0.0000 O   0  0  0  0  0  0  0  0  0  0  0  0
   13.7953   -2.7857    0.0000 O   0  0  0  0  0  0  0  0  0  0  0  0
   15.5273   -1.7857    0.0000 O   0  0  0  0  0  0  0  0  0  0  0  0
    2.5369   -1.2857    0.0000 O   0  0  0  0  0  0  0  0  0  0  0  0
    3.4030   -2.7857    0.0000 O   0  0  0  0  0  0  0  0  0  0  0  0
    8.5991   -2.7857    0.0000 C   0  0  1  0  0  0  0  0  0  0  0  0
    9.4651   -3.2857    0.0000 C   0  0  1  0  0  0  0  0  0  0  0  0
    8.5991   -1.7857    0.0000 C   0  0  1  0  0  0  0  0  0  0  0  0
   10.3312   -2.7857    0.0000 C   0  0  2  0  0  0  0  0  0  0  0  0
   10.3312   -1.7857    0.0000 C   0  0  1  0  0  0  0  0  0  0  0  0
    7.7331   -1.2857    0.0000 C   0  0  0  0  0  0  0  0  0  0  0  0
   11.1972   -0.2857    0.0000 C   0  0  0  0  0  0  0  0  0  0  0  0
   12.0632    0.2143    0.0000 C   0  0  0  0  0  0  0  0  0  0  0  0
   10.3312    0.2143    0.0000 C   0  0  0  0  0  0  0  0  0  0  0  0
    6.0010   -1.2857    0.0000 C   0  0  0  0  0  0  0  0  0  0  0  0
   10.3312    1.2143    0.0000 C   0  0  0  0  0  0  0  0  0  0  0  0
   11.1972    1.7143    0.0000 C   0  0  0  0  0  0  0  0  0  0  0  0
   12.9292   -0.2857    0.0000 C   0  0  0  0  0  0  0  0  0  0  0  0
    5.1350   -1.7857    0.0000 C   0  0  0  0  0  0  0  0  0  0  0  0
    9.4212    1.7212    0.0000 C   0  0  0  0  0  0  0  0  0  0  0  0
   11.2132    2.7558    0.0000 C   0  0  0  0  0  0  0  0  0  0  0  0
    4.2690   -1.2857    0.0000 C   0  0  0  0  0  0  0  0  0  0  0  0
   12.9292   -1.2857    0.0000 C   0  0  0  0  0  0  0  0  0  0  0  0
   13.7953    0.2143    0.0000 C   0  0  0  0  0  0  0  0  0  0  0  0
    9.4131    2.7628    0.0000 C   0  0  0  0  0  0  0  0  0  0  0  0
   10.3152    3.2836    0.0000 C   0  0  0  0  0  0  0  0  0  0  0  0
   13.7953   -1.7857    0.0000 C   0  0  0  0  0  0  0  0  0  0  0  0
   14.6613   -0.2857    0.0000 C   0  0  0  0  0  0  0  0  0  0  0  0
   14.6613   -1.2857    0.0000 C   0  0  0  0  0  0  0  0  0  0  0  0
    3.4030   -1.7857    0.0000 C   0  0  0  0  0  0  0  0  0  0  0  0
    8.5991   -3.4057    0.0000 H   0  0  0  0  0  0  0  0  0  0  0  0
   10.0021   -3.5957    0.0000 H   0  0  0  0  0  0  0  0  0  0  0  0
    8.5991   -1.1657    0.0000 H   0  0  0  0  0  0  0  0  0  0  0  0
   10.8681   -2.4757    0.0000 H   0  0  0  0  0  0  0  0  0  0  0  0
   10.3312   -1.1657    0.0000 H   0  0  0  0  0  0  0  0  0  0  0  0
    8.1316   -0.8107    0.0000 H   0  0  0  0  0  0  0  0  0  0  0  0
    7.3346   -0.8107    0.0000 H   0  0  0  0  0  0  0  0  0  0  0  0
    7.7331   -3.9057    0.0000 H   0  0  0  0  0  0  0  0  0  0  0  0
    8.9282   -4.5957    0.0000 H   0  0  0  0  0  0  0  0  0  0  0  0
   11.1972   -3.9057    0.0000 H   0  0  0  0  0  0  0  0  0  0  0  0
    9.7942   -0.0957    0.0000 H   0  0  0  0  0  0  0  0  0  0  0  0
    4.7365   -2.2606    0.0000 H   0  0  0  0  0  0  0  0  0  0  0  0
    5.5335   -2.2606    0.0000 H   0  0  0  0  0  0  0  0  0  0  0  0
   11.7537    3.0596    0.0000 H   0  0  0  0  0  0  0  0  0  0  0  0
   12.3923   -1.5957    0.0000 H   0  0  0  0  0  0  0  0  0  0  0  0
    4.6675   -0.8107    0.0000 H   0  0  0  0  0  0  0  0  0  0  0  0
    3.8705   -0.8107    0.0000 H   0  0  0  0  0  0  0  0  0  0  0  0
   13.7953    0.8343    0.0000 H   0  0  0  0  0  0  0  0  0  0  0  0
    8.8750    3.0707    0.0000 H   0  0  0  0  0  0  0  0  0  0  0  0
   15.1982    0.0243    0.0000 H   0  0  0  0  0  0  0  0  0  0  0  0
    8.0205    1.5150    0.0000 H   0  0  0  0  0  0  0  0  0  0  0  0
    9.7833    4.5957    0.0000 H   0  0  0  0  0  0  0  0  0  0  0  0
   14.3322   -3.0957    0.0000 H   0  0  0  0  0  0  0  0  0  0  0  0
   16.0643   -1.4757    0.0000 H   0  0  0  0  0  0  0  0  0  0  0  0
    2.0000   -1.5957    0.0000 H   0  0  0  0  0  0  0  0  0  0  0  0
  1 17  1  0  0  0  0
  1 19  1  0  0  0  0
  2 21  1  0  0  0  0
  3 47  1  0  0  0  0
  4 48  1  0  0  0  0
  5 49  1  0  0  0  0
  6 20  1  0  0  0  0
  6 24  1  0  0  0  0
  7 22  2  0  0  0  0
  7 26  1  0  0  0  0
  8 24  2  0  0  0  0
  9 29  1  0  0  0  0
  9 60  1  0  0  0  0
 10 35  1  0  0  0  0
 10 61  1  0  0  0  0
 11 36  1  0  0  0  0
 11 62  1  0  0  0  0
 12 38  1  0  0  0  0
 12 63  1  0  0  0  0
 13 39  1  0  0  0  0
 13 64  1  0  0  0  0
 14 39  2  0  0  0  0
 15  3  1  0  0  0  0
 15 16  1  6  0  0  0
 15 40  1  0  0  0  0
 16  4  1  0  0  0  0
 16 18  1  1  0  0  0
 16 41  1  0  0  0  0
 17 15  1  6  0  0  0
 17 20  1  0  0  0  0
 17 42  1  0  0  0  0
 18  5  1  0  0  0  0
 18 19  1  6  0  0  0
 18 43  1  0  0  0  0
 19  2  1  0  0  0  0
 19 44  1  6  0  0  0
 20 45  1  0  0  0  0
 20 46  1  0  0  0  0
 21 22  1  0  0  0  0
 21 23  2  0  0  0  0
 22 27  1  0  0  0  0
 23 25  1  0  0  0  0
 23 50  1  0  0  0  0
 24 28  1  0  0  0  0
 25 26  1  0  0  0  0
 25 29  2  0  0  0  0
 26 30  2  0  0  0  0
 27 32  2  0  0  0  0
 27 33  1  0  0  0  0
 28 31  1  0  0  0  0
 28 51  1  0  0  0  0
 28 52  1  0  0  0  0
 29 34  1  0  0  0  0
 30 35  1  0  0  0  0
 30 53  1  0  0  0  0
 31 39  1  0  0  0  0
 31 55  1  0  0  0  0
 31 56  1  0  0  0  0
 32 36  1  0  0  0  0
 32 54  1  0  0  0  0
 33 37  2  0  0  0  0
 33 57  1  0  0  0  0
 34 35  2  0  0  0  0
 34 58  1  0  0  0  0
 36 38  2  0  0  0  0
 37 38  1  0  0  0  0
 37 59  1  0  0  0  0
M  CHG  1   7   1
M  END
>  <PUBCHEM_COMPOUND_CID>
100917934

>  <PUBCHEM_COMPOUND_CANONICALIZED>
1

>  <PUBCHEM_CACTVS_COMPLEXITY>
842

>  <PUBCHEM_CACTVS_HBOND_ACCEPTOR>
13

>  <PUBCHEM_CACTVS_HBOND_DONOR>
8

>  <PUBCHEM_CACTVS_ROTATABLE_BOND>
9

>  <PUBCHEM_CACTVS_SUBSKEYS>
AAADceB4PAAAAAAAAAAAAAAAAAAAAAAAAAA0aIEAAAAAAACR9AAAGgAACAAADBSwmAMwDsAABkCIAqDSCAICCAAkIAAIiAFGiMgdNzaGNR6ieWOl4BUPuYfL7PzOIAABCAAIQABAAAIQABCAAAAAAAAAAA==

>  <PUBCHEM_IUPAC_OPENEYE_NAME>
4-[[(2R,3S,4S,5R,6S)-6-[2-(3,4-dihydroxyphenyl)-5,7-dihydroxy-chromenylium-3-yl]oxy-3,4,5-trihydroxy-tetrahydropyran-2-yl]methoxy]-4-oxo-butanoic acid

>  <PUBCHEM_IUPAC_CAS_NAME>
4-[[(2R,3S,4S,5R,6S)-6-[[2-(3,4-dihydroxyphenyl)-5,7-dihydroxy-1-benzopyrylium-3-yl]oxy]-3,4,5-trihydroxy-2-oxanyl]methoxy]-4-oxobutanoic acid

>  <PUBCHEM_IUPAC_NAME>
4-[[(2R,3S,4S,5R,6S)-6-[2-(3,4-dihydroxyphenyl)-5,7-dihydroxychromenylium-3-yl]oxy-3,4,5-trihydroxyoxan-2-yl]methoxy]-4-oxobutanoic acid

>  <PUBCHEM_IUPAC_SYSTEMATIC_NAME>
4-[[(2R,3S,4S,5R,6S)-6-[2-[3,4-bis(oxidanyl)phenyl]-5,7-bis(oxidanyl)chromenylium-3-yl]oxy-3,4,5-tris(oxidanyl)oxan-2-yl]methoxy]-4-oxidanylidene-butanoic acid

>  <PUBCHEM_IUPAC_TRADITIONAL_NAME>
4-[[(2R,3S,4S,5R,6S)-6-[[2-(3,4-dihydroxyphenyl)-5,7-dihydroxy-1-benzopyrylium-3-yl]oxy]-3,4,5-trihydroxy-tetrahydropyran-2-yl]methoxy]-4-keto-butyric acid

>  <PUBCHEM_IUPAC_INCHI>
InChI=1S/C25H24O14/c26-11-6-14(28)12-8-17(24(37-16(12)7-11)10-1-2-13(27)15(29)5-10)38-25-23(35)22(34)21(33)18(39-25)9-36-20(32)4-3-19(30)31/h1-2,5-8,18,21-23,25,33-35H,3-4,9H2,(H4-,26,27,28,29,30,31)/p+1/t18-,21-,22+,23-,25-/m1/s1

>  <PUBCHEM_IUPAC_INCHIKEY>
MIYGQTFETYBMKF-WVXUANQFSA-O

>  <PUBCHEM_EXACT_MASS>
549.124

>  <PUBCHEM_MOLECULAR_FORMULA>
C25H25O14+

>  <PUBCHEM_MOLECULAR_WEIGHT>
549.461

>  <PUBCHEM_OPENEYE_CAN_SMILES>
C1=CC(=C(C=C1C2=C(C=C3C(=CC(=CC3=[O+]2)O)O)OC4C(C(C(C(O4)COC(=O)CCC(=O)O)O)O)O)O)O

>  <PUBCHEM_OPENEYE_ISO_SMILES>
C1=CC(=C(C=C1C2=C(C=C3C(=CC(=CC3=[O+]2)O)O)O[C@H]4[C@@H]([C@H]([C@@H]([C@H](O4)COC(=O)CCC(=O)O)O)O)O)O)O

>  <PUBCHEM_CACTVS_TPSA>
225

>  <PUBCHEM_MONOISOTOPIC_WEIGHT>
549.124

>  <PUBCHEM_TOTAL_CHARGE>
1

>  <PUBCHEM_HEAVY_ATOM_COUNT>
39

>  <PUBCHEM_ATOM_DEF_STEREO_COUNT>
5

>  <PUBCHEM_ATOM_UDEF_STEREO_COUNT>
0

>  <PUBCHEM_BOND_DEF_STEREO_COUNT>
0

>  <PUBCHEM_BOND_UDEF_STEREO_COUNT>
0

>  <PUBCHEM_ISOTOPIC_ATOM_COUNT>
0

>  <PUBCHEM_COMPONENT_COUNT>
1

>  <PUBCHEM_CACTVS_TAUTO_COUNT>
588

>  <PUBCHEM_COORDINATE_TYPE>
1
5
255

>  <PUBCHEM_BONDANNOTATIONS>
17  20  5
19  2  5
21  22  8
21  23  8
23  25  8
25  26  8
25  29  8
26  30  8
27  32  8
27  33  8
29  34  8
15  3  6
30  35  8
32  36  8
33  37  8
34  35  8
36  38  8
37  38  8
16  4  5
18  5  6
7  22  8
7  26  8

$$$$
