100927765
 OpenBabel06101807152D

 47 50  0  0  0  0  0  0  0  0999 V2000
    7.9128    0.0453    0.0000 O   0  0  0  0  0  0  0  0  0  0  0  0
   11.3769   -1.9547    0.0000 O   0  0  0  0  0  0  0  0  0  0  0  0
   10.6154    2.5398    0.0000 N   0  0  0  0  0  0  0  0  0  0  0  0
    3.4782   -1.4492    0.0000 N   0  0  0  0  0  0  0  0  0  0  0  0
   11.4244    1.1386    0.0000 N   0  0  0  0  0  0  0  0  0  0  0  0
    2.6691   -0.0480    0.0000 N   0  0  0  0  0  0  0  0  0  0  0  0
    9.6448    0.0453    0.0000 C   0  0  0  0  0  0  0  0  0  0  0  0
    9.6448    1.0453    0.0000 C   0  0  0  0  0  0  0  0  0  0  0  0
    8.7788   -0.4547    0.0000 C   0  0  0  0  0  0  0  0  0  0  0  0
    5.3147   -0.4547    0.0000 C   0  0  0  0  0  0  0  0  0  0  0  0
    4.4487    0.0453    0.0000 C   0  0  0  0  0  0  0  0  0  0  0  0
   10.5109   -0.4547    0.0000 C   0  0  0  0  0  0  0  0  0  0  0  0
    7.0468   -0.4547    0.0000 C   0  0  0  0  0  0  0  0  0  0  0  0
   10.5109    1.5453    0.0000 C   0  0  0  0  0  0  0  0  0  0  0  0
    6.1808    0.0453    0.0000 C   0  0  0  0  0  0  0  0  0  0  0  0
    8.7788   -1.4547    0.0000 C   0  0  0  0  0  0  0  0  0  0  0  0
   10.5109   -1.4547    0.0000 C   0  0  0  0  0  0  0  0  0  0  0  0
    3.5827   -0.4547    0.0000 C   0  0  0  0  0  0  0  0  0  0  0  0
    5.3147   -1.4547    0.0000 C   0  0  0  0  0  0  0  0  0  0  0  0
    9.6448   -1.9547    0.0000 C   0  0  0  0  0  0  0  0  0  0  0  0
    7.0468   -1.4547    0.0000 C   0  0  0  0  0  0  0  0  0  0  0  0
    6.1808   -1.9547    0.0000 C   0  0  0  0  0  0  0  0  0  0  0  0
   11.5936    2.7477    0.0000 C   0  0  0  0  0  0  0  0  0  0  0  0
   12.0936    1.8817    0.0000 C   0  0  0  0  0  0  0  0  0  0  0  0
    2.5000   -1.6571    0.0000 C   0  0  0  0  0  0  0  0  0  0  0  0
    2.0000   -0.7911    0.0000 C   0  0  0  0  0  0  0  0  0  0  0  0
   11.3769   -2.9547    0.0000 C   0  0  0  0  0  0  0  0  0  0  0  0
    9.4328    1.6279    0.0000 H   0  0  0  0  0  0  0  0  0  0  0  0
    9.0343    0.9376    0.0000 H   0  0  0  0  0  0  0  0  0  0  0  0
    4.8472    0.5203    0.0000 H   0  0  0  0  0  0  0  0  0  0  0  0
    4.0502    0.5203    0.0000 H   0  0  0  0  0  0  0  0  0  0  0  0
   11.0478   -0.1447    0.0000 H   0  0  0  0  0  0  0  0  0  0  0  0
    6.1808    0.6653    0.0000 H   0  0  0  0  0  0  0  0  0  0  0  0
    8.2419   -1.7647    0.0000 H   0  0  0  0  0  0  0  0  0  0  0  0
    4.7778   -1.7647    0.0000 H   0  0  0  0  0  0  0  0  0  0  0  0
    9.6448   -2.5747    0.0000 H   0  0  0  0  0  0  0  0  0  0  0  0
    7.5837   -1.7647    0.0000 H   0  0  0  0  0  0  0  0  0  0  0  0
    6.1808   -2.5747    0.0000 H   0  0  0  0  0  0  0  0  0  0  0  0
   10.1547    2.9547    0.0000 H   0  0  0  0  0  0  0  0  0  0  0  0
    3.9389   -1.8641    0.0000 H   0  0  0  0  0  0  0  0  0  0  0  0
   11.8457    3.3141    0.0000 H   0  0  0  0  0  0  0  0  0  0  0  0
   12.7102    1.8169    0.0000 H   0  0  0  0  0  0  0  0  0  0  0  0
    2.2478   -2.2235    0.0000 H   0  0  0  0  0  0  0  0  0  0  0  0
    1.3834   -0.7263    0.0000 H   0  0  0  0  0  0  0  0  0  0  0  0
   10.7569   -2.9547    0.0000 H   0  0  0  0  0  0  0  0  0  0  0  0
   11.3769   -3.5747    0.0000 H   0  0  0  0  0  0  0  0  0  0  0  0
   11.9969   -2.9547    0.0000 H   0  0  0  0  0  0  0  0  0  0  0  0
  1  9  1  0  0  0  0
  1 13  1  0  0  0  0
  2 17  1  0  0  0  0
  2 27  1  0  0  0  0
  3 14  1  0  0  0  0
  3 23  1  0  0  0  0
  3 39  1  0  0  0  0
  4 18  1  0  0  0  0
  4 25  1  0  0  0  0
  4 40  1  0  0  0  0
  5 14  2  0  0  0  0
  5 24  1  0  0  0  0
  6 18  2  0  0  0  0
  6 26  1  0  0  0  0
  7  8  1  0  0  0  0
  7  9  2  0  0  0  0
  7 12  1  0  0  0  0
  8 14  1  0  0  0  0
  8 28  1  0  0  0  0
  8 29  1  0  0  0  0
  9 16  1  0  0  0  0
 10 11  1  0  0  0  0
 10 15  2  0  0  0  0
 10 19  1  0  0  0  0
 11 18  1  0  0  0  0
 11 30  1  0  0  0  0
 11 31  1  0  0  0  0
 12 17  2  0  0  0  0
 12 32  1  0  0  0  0
 13 15  1  0  0  0  0
 13 21  2  0  0  0  0
 15 33  1  0  0  0  0
 16 20  2  0  0  0  0
 16 34  1  0  0  0  0
 17 20  1  0  0  0  0
 19 22  2  0  0  0  0
 19 35  1  0  0  0  0
 20 36  1  0  0  0  0
 21 22  1  0  0  0  0
 21 37  1  0  0  0  0
 22 38  1  0  0  0  0
 23 24  2  0  0  0  0
 23 41  1  0  0  0  0
 24 42  1  0  0  0  0
 25 26  2  0  0  0  0
 25 43  1  0  0  0  0
 26 44  1  0  0  0  0
 27 45  1  0  0  0  0
 27 46  1  0  0  0  0
 27 47  1  0  0  0  0
M  END
>  <PUBCHEM_COMPOUND_CID>
100927765

>  <PUBCHEM_COMPOUND_CANONICALIZED>
1

>  <PUBCHEM_CACTVS_COMPLEXITY>
452

>  <PUBCHEM_CACTVS_HBOND_ACCEPTOR>
4

>  <PUBCHEM_CACTVS_HBOND_DONOR>
2

>  <PUBCHEM_CACTVS_ROTATABLE_BOND>
7

>  <PUBCHEM_CACTVS_SUBSKEYS>
AAADceB7sAAAAAAAAAAAAAAAAAAAAWLAAAAwYAAAAAAAAAAB9AAAHgAQAAAADATBmwY/lpbJlACgAjJnZAACiC2xMqAJyYA+OIiMbiKEuRuWOCCs0BOIqCfw0LIOAQABAAAIAAACAAIAABAAAAAAAAAAAA==

>  <PUBCHEM_IUPAC_OPENEYE_NAME>
2-[[3-[2-(1H-imidazol-2-ylmethyl)-4-methoxy-phenoxy]phenyl]methyl]-1H-imidazole

>  <PUBCHEM_IUPAC_CAS_NAME>
2-[[3-[2-(1H-imidazol-2-ylmethyl)-4-methoxyphenoxy]phenyl]methyl]-1H-imidazole

>  <PUBCHEM_IUPAC_NAME>
2-[[3-[2-(1H-imidazol-2-ylmethyl)-4-methoxyphenoxy]phenyl]methyl]-1H-imidazole

>  <PUBCHEM_IUPAC_SYSTEMATIC_NAME>
2-[[3-[2-(1H-imidazol-2-ylmethyl)-4-methoxy-phenoxy]phenyl]methyl]-1H-imidazole

>  <PUBCHEM_IUPAC_TRADITIONAL_NAME>
2-[3-[2-(1H-imidazol-2-ylmethyl)-4-methoxy-phenoxy]benzyl]-1H-imidazole

>  <PUBCHEM_IUPAC_INCHI>
InChI=1S/C21H20N4O2/c1-26-17-5-6-19(16(13-17)14-21-24-9-10-25-21)27-18-4-2-3-15(11-18)12-20-22-7-8-23-20/h2-11,13H,12,14H2,1H3,(H,22,23)(H,24,25)

>  <PUBCHEM_IUPAC_INCHIKEY>
GTJSRUGILPIENS-UHFFFAOYSA-N

>  <PUBCHEM_XLOGP3_AA>
3.6

>  <PUBCHEM_EXACT_MASS>
360.159

>  <PUBCHEM_MOLECULAR_FORMULA>
C21H20N4O2

>  <PUBCHEM_MOLECULAR_WEIGHT>
360.417

>  <PUBCHEM_OPENEYE_CAN_SMILES>
COC1=CC(=C(C=C1)OC2=CC=CC(=C2)CC3=NC=CN3)CC4=NC=CN4

>  <PUBCHEM_OPENEYE_ISO_SMILES>
COC1=CC(=C(C=C1)OC2=CC=CC(=C2)CC3=NC=CN3)CC4=NC=CN4

>  <PUBCHEM_CACTVS_TPSA>
75.8

>  <PUBCHEM_MONOISOTOPIC_WEIGHT>
360.159

>  <PUBCHEM_TOTAL_CHARGE>
0

>  <PUBCHEM_HEAVY_ATOM_COUNT>
27

>  <PUBCHEM_ATOM_DEF_STEREO_COUNT>
0

>  <PUBCHEM_ATOM_UDEF_STEREO_COUNT>
0

>  <PUBCHEM_BOND_DEF_STEREO_COUNT>
0

>  <PUBCHEM_BOND_UDEF_STEREO_COUNT>
0

>  <PUBCHEM_ISOTOPIC_ATOM_COUNT>
0

>  <PUBCHEM_COMPONENT_COUNT>
1

>  <PUBCHEM_CACTVS_TAUTO_COUNT>
48

>  <PUBCHEM_COORDINATE_TYPE>
1
5
255

>  <PUBCHEM_BONDANNOTATIONS>
10  15  8
10  19  8
12  17  8
13  15  8
13  21  8
16  20  8
17  20  8
19  22  8
21  22  8
23  24  8
25  26  8
3  14  8
3  23  8
4  18  8
4  25  8
5  14  8
5  24  8
6  18  8
6  26  8
7  12  8
7  9  8
9  16  8

$$$$
