100920835
 OpenBabel06101807152D

116122  0  0  1  0  0  0  0  0999 V2000
   12.3923    1.1204    0.0000 O   0  0  0  0  0  0  0  0  0  0  0  0
   14.1244   -0.8796    0.0000 O   0  0  0  0  0  0  0  0  0  0  0  0
    9.7942    0.6204    0.0000 O   0  0  0  0  0  0  0  0  0  0  0  0
    8.0622    0.6204    0.0000 O   0  0  0  0  0  0  0  0  0  0  0  0
   12.3923   -1.8796    0.0000 O   0  0  0  0  0  0  0  0  0  0  0  0
   10.6603   -0.8796    0.0000 O   0  0  0  0  0  0  0  0  0  0  0  0
   14.1244    1.1204    0.0000 O   0  0  0  0  0  0  0  0  0  0  0  0
   13.2583   -2.3796    0.0000 O   0  0  0  0  0  0  0  0  0  0  0  0
    9.7942    2.6204    0.0000 O   0  0  0  0  0  0  0  0  0  0  0  0
    8.0622    3.6204    0.0000 O   0  0  0  0  0  0  0  0  0  0  0  0
    6.3301    2.6204    0.0000 O   0  0  0  0  0  0  0  0  0  0  0  0
   15.8564   -1.8796    0.0000 O   0  0  0  0  0  0  0  0  0  0  0  0
   15.8564   -3.8796    0.0000 O   0  0  0  0  0  0  0  0  0  0  0  0
   14.1244   -4.8796    0.0000 O   0  0  0  0  0  0  0  0  0  0  0  0
    6.3301   -0.3796    0.0000 O   0  0  0  0  0  0  0  0  0  0  0  0
   14.9904    3.6204    0.0000 O   0  0  0  0  0  0  0  0  0  0  0  0
    4.5981   -0.3796    0.0000 O   0  3  0  0  0  0  0  0  0  0  0  0
   11.4881    3.6172    0.0000 O   0  0  0  0  0  0  0  0  0  0  0  0
   13.2462    6.6896    0.0000 O   0  0  0  0  0  0  0  0  0  0  0  0
   18.4545    2.6204    0.0000 O   0  0  0  0  0  0  0  0  0  0  0  0
   18.4545    0.6204    0.0000 O   0  0  0  0  0  0  0  0  0  0  0  0
    6.3301   -5.3796    0.0000 O   0  0  0  0  0  0  0  0  0  0  0  0
    2.8660   -5.3796    0.0000 O   0  0  0  0  0  0  0  0  0  0  0  0
    4.5981   -6.3796    0.0000 O   0  0  0  0  0  0  0  0  0  0  0  0
   13.2583   -0.3796    0.0000 C   0  0  2  0  0  0  0  0  0  0  0  0
   12.3923   -0.8796    0.0000 C   0  0  2  0  0  0  0  0  0  0  0  0
   11.5263   -0.3796    0.0000 C   0  0  2  0  0  0  0  0  0  0  0  0
   11.5263    0.6204    0.0000 C   0  0  1  0  0  0  0  0  0  0  0  0
   13.2583    0.6204    0.0000 C   0  0  1  0  0  0  0  0  0  0  0  0
   10.6603    1.1204    0.0000 C   0  0  0  0  0  0  0  0  0  0  0  0
   14.1244   -1.8796    0.0000 C   0  0  2  0  0  0  0  0  0  0  0  0
    8.9282    1.1204    0.0000 C   0  0  2  0  0  0  0  0  0  0  0  0
    8.9282    2.1204    0.0000 C   0  0  1  0  0  0  0  0  0  0  0  0
    8.0622    2.6204    0.0000 C   0  0  2  0  0  0  0  0  0  0  0  0
    7.1962    2.1204    0.0000 C   0  0  1  0  0  0  0  0  0  0  0  0
   14.9904   -2.3796    0.0000 C   0  0  1  0  0  0  0  0  0  0  0  0
    7.1962    1.1204    0.0000 C   0  0  1  0  0  0  0  0  0  0  0  0
   14.9904   -3.3796    0.0000 C   0  0  2  0  0  0  0  0  0  0  0  0
   14.1244   -3.8796    0.0000 C   0  0  1  0  0  0  0  0  0  0  0  0
   13.2583   -3.3796    0.0000 C   0  0  0  0  0  0  0  0  0  0  0  0
    6.3301    0.6204    0.0000 C   0  0  0  0  0  0  0  0  0  0  0  0
   14.1244    2.1204    0.0000 C   0  0  0  0  0  0  0  0  0  0  0  0
   14.9904    2.6204    0.0000 C   0  0  0  0  0  0  0  0  0  0  0  0
   13.2583    2.6204    0.0000 C   0  0  0  0  0  0  0  0  0  0  0  0
   13.2583    3.6204    0.0000 C   0  0  0  0  0  0  0  0  0  0  0  0
   15.8564    2.1204    0.0000 C   0  0  0  0  0  0  0  0  0  0  0  0
   14.1244    4.1204    0.0000 C   0  0  0  0  0  0  0  0  0  0  0  0
    5.4641   -0.8796    0.0000 C   0  0  0  0  0  0  0  0  0  0  0  0
   12.3483    4.1272    0.0000 C   0  0  0  0  0  0  0  0  0  0  0  0
   14.1404    5.1619    0.0000 C   0  0  0  0  0  0  0  0  0  0  0  0
   16.7224    2.6204    0.0000 C   0  0  0  0  0  0  0  0  0  0  0  0
   15.8564    1.1204    0.0000 C   0  0  0  0  0  0  0  0  0  0  0  0
    5.4641   -1.8796    0.0000 C   0  0  0  0  0  0  0  0  0  0  0  0
   12.3403    5.1688    0.0000 C   0  0  0  0  0  0  0  0  0  0  0  0
   13.2424    5.6896    0.0000 C   0  0  0  0  0  0  0  0  0  0  0  0
   17.5885    2.1204    0.0000 C   0  0  0  0  0  0  0  0  0  0  0  0
   16.7224    0.6204    0.0000 C   0  0  0  0  0  0  0  0  0  0  0  0
   17.5885    1.1204    0.0000 C   0  0  0  0  0  0  0  0  0  0  0  0
    4.5981   -2.3796    0.0000 C   0  0  0  0  0  0  0  0  0  0  0  0
    4.5981   -3.3796    0.0000 C   0  0  0  0  0  0  0  0  0  0  0  0
    3.7320   -3.8796    0.0000 C   0  0  0  0  0  0  0  0  0  0  0  0
    5.4641   -3.8796    0.0000 C   0  0  0  0  0  0  0  0  0  0  0  0
    5.4641   -4.8796    0.0000 C   0  0  0  0  0  0  0  0  0  0  0  0
    3.7320   -4.8796    0.0000 C   0  0  0  0  0  0  0  0  0  0  0  0
    4.5981   -5.3796    0.0000 C   0  0  0  0  0  0  0  0  0  0  0  0
    6.3301   -6.3796    0.0000 C   0  0  0  0  0  0  0  0  0  0  0  0
    2.0000   -4.8796    0.0000 C   0  0  0  0  0  0  0  0  0  0  0  0
   13.2583   -0.9996    0.0000 H   0  0  0  0  0  0  0  0  0  0  0  0
   11.8554   -1.1896    0.0000 H   0  0  0  0  0  0  0  0  0  0  0  0
   10.9893   -0.0696    0.0000 H   0  0  0  0  0  0  0  0  0  0  0  0
   11.5263    1.2404    0.0000 H   0  0  0  0  0  0  0  0  0  0  0  0
   13.2583    1.2404    0.0000 H   0  0  0  0  0  0  0  0  0  0  0  0
   11.0588    1.5953    0.0000 H   0  0  0  0  0  0  0  0  0  0  0  0
   10.2617    1.5953    0.0000 H   0  0  0  0  0  0  0  0  0  0  0  0
   14.6613   -1.5696    0.0000 H   0  0  0  0  0  0  0  0  0  0  0  0
    9.4651    1.4304    0.0000 H   0  0  0  0  0  0  0  0  0  0  0  0
    8.9282    2.7404    0.0000 H   0  0  0  0  0  0  0  0  0  0  0  0
    7.5252    2.9304    0.0000 H   0  0  0  0  0  0  0  0  0  0  0  0
    6.6592    1.8104    0.0000 H   0  0  0  0  0  0  0  0  0  0  0  0
   15.5273   -2.6896    0.0000 H   0  0  0  0  0  0  0  0  0  0  0  0
    7.1962    0.5004    0.0000 H   0  0  0  0  0  0  0  0  0  0  0  0
   14.9904   -3.9996    0.0000 H   0  0  0  0  0  0  0  0  0  0  0  0
   13.5874   -4.1896    0.0000 H   0  0  0  0  0  0  0  0  0  0  0  0
   12.6477   -3.2720    0.0000 H   0  0  0  0  0  0  0  0  0  0  0  0
   13.0463   -3.9622    0.0000 H   0  0  0  0  0  0  0  0  0  0  0  0
   11.8554   -2.1896    0.0000 H   0  0  0  0  0  0  0  0  0  0  0  0
   10.6603   -1.4996    0.0000 H   0  0  0  0  0  0  0  0  0  0  0  0
    6.1181    1.2030    0.0000 H   0  0  0  0  0  0  0  0  0  0  0  0
    5.7196    0.5127    0.0000 H   0  0  0  0  0  0  0  0  0  0  0  0
    9.7942    3.2404    0.0000 H   0  0  0  0  0  0  0  0  0  0  0  0
    7.5252    3.9304    0.0000 H   0  0  0  0  0  0  0  0  0  0  0  0
    5.7932    2.3104    0.0000 H   0  0  0  0  0  0  0  0  0  0  0  0
   16.3933   -2.1896    0.0000 H   0  0  0  0  0  0  0  0  0  0  0  0
   15.8564   -4.4996    0.0000 H   0  0  0  0  0  0  0  0  0  0  0  0
   13.5874   -5.1896    0.0000 H   0  0  0  0  0  0  0  0  0  0  0  0
   12.7214    2.3104    0.0000 H   0  0  0  0  0  0  0  0  0  0  0  0
   14.6809    5.4656    0.0000 H   0  0  0  0  0  0  0  0  0  0  0  0
   16.7224    3.2404    0.0000 H   0  0  0  0  0  0  0  0  0  0  0  0
   15.3195    0.8104    0.0000 H   0  0  0  0  0  0  0  0  0  0  0  0
    6.0010   -2.1896    0.0000 H   0  0  0  0  0  0  0  0  0  0  0  0
   11.8022    5.4768    0.0000 H   0  0  0  0  0  0  0  0  0  0  0  0
    4.0611   -0.6896    0.0000 H   0  0  0  0  0  0  0  0  0  0  0  0
   16.7224    0.0004    0.0000 H   0  0  0  0  0  0  0  0  0  0  0  0
   10.9477    3.9210    0.0000 H   0  0  0  0  0  0  0  0  0  0  0  0
    4.0611   -2.0696    0.0000 H   0  0  0  0  0  0  0  0  0  0  0  0
   18.4545    3.2404    0.0000 H   0  0  0  0  0  0  0  0  0  0  0  0
   18.4545    0.0004    0.0000 H   0  0  0  0  0  0  0  0  0  0  0  0
    3.1951   -3.5696    0.0000 H   0  0  0  0  0  0  0  0  0  0  0  0
    6.0010   -3.5696    0.0000 H   0  0  0  0  0  0  0  0  0  0  0  0
    4.0611   -6.6896    0.0000 H   0  0  0  0  0  0  0  0  0  0  0  0
    5.7101   -6.3796    0.0000 H   0  0  0  0  0  0  0  0  0  0  0  0
    6.3301   -6.9996    0.0000 H   0  0  0  0  0  0  0  0  0  0  0  0
    6.9501   -6.3796    0.0000 H   0  0  0  0  0  0  0  0  0  0  0  0
    2.3100   -4.3427    0.0000 H   0  0  0  0  0  0  0  0  0  0  0  0
    1.4631   -4.5696    0.0000 H   0  0  0  0  0  0  0  0  0  0  0  0
    1.6900   -5.4166    0.0000 H   0  0  0  0  0  0  0  0  0  0  0  0
  1 28  1  0  0  0  0
  1 29  1  0  0  0  0
  3 30  1  0  0  0  0
  4 32  1  0  0  0  0
  4 37  1  0  0  0  0
  5 86  1  0  0  0  0
  6 87  1  0  0  0  0
  7 42  1  0  0  0  0
  8 31  1  0  0  0  0
  8 40  1  0  0  0  0
  9 90  1  0  0  0  0
 10 91  1  0  0  0  0
 11 92  1  0  0  0  0
 12 93  1  0  0  0  0
 13 94  1  0  0  0  0
 14 95  1  0  0  0  0
 15 41  1  0  0  0  0
 15 48  1  0  0  0  0
 16 43  1  0  0  0  0
 16 47  1  0  0  0  0
 17 48  2  0  0  0  0
 17102  1  0  0  0  0
 18 49  1  0  0  0  0
 18104  1  0  0  0  0
 19 55  2  0  0  0  0
 20 56  1  0  0  0  0
 20106  1  0  0  0  0
 21 58  1  0  0  0  0
 21107  1  0  0  0  0
 22 63  1  0  0  0  0
 22 66  1  0  0  0  0
 23 64  1  0  0  0  0
 23 67  1  0  0  0  0
 24 65  1  0  0  0  0
 24110  1  0  0  0  0
 25  2  1  0  0  0  0
 25 26  1  6  0  0  0
 25 68  1  0  0  0  0
 26  5  1  0  0  0  0
 26 27  1  1  0  0  0
 26 69  1  0  0  0  0
 27  6  1  0  0  0  0
 27 28  1  1  0  0  0
 27 70  1  0  0  0  0
 28 30  1  0  0  0  0
 28 71  1  6  0  0  0
 29  7  1  0  0  0  0
 29 25  1  6  0  0  0
 29 72  1  0  0  0  0
 30 73  1  0  0  0  0
 30 74  1  0  0  0  0
 31  2  1  0  0  0  0
 31 36  1  1  0  0  0
 31 75  1  0  0  0  0
 32  3  1  0  0  0  0
 32 33  1  6  0  0  0
 32 76  1  0  0  0  0
 33  9  1  0  0  0  0
 33 34  1  1  0  0  0
 33 77  1  0  0  0  0
 34 10  1  0  0  0  0
 34 35  1  6  0  0  0
 34 78  1  0  0  0  0
 35 11  1  0  0  0  0
 35 37  1  1  0  0  0
 35 79  1  0  0  0  0
 36 12  1  0  0  0  0
 36 38  1  6  0  0  0
 36 80  1  0  0  0  0
 37 41  1  0  0  0  0
 37 81  1  1  0  0  0
 38 13  1  0  0  0  0
 38 39  1  1  0  0  0
 38 82  1  0  0  0  0
 39 14  1  0  0  0  0
 39 40  1  0  0  0  0
 39 83  1  1  0  0  0
 40 84  1  0  0  0  0
 40 85  1  0  0  0  0
 41 88  1  0  0  0  0
 41 89  1  0  0  0  0
 42 43  2  0  0  0  0
 42 44  1  0  0  0  0
 43 46  1  0  0  0  0
 44 45  2  0  0  0  0
 44 96  1  0  0  0  0
 45 47  1  0  0  0  0
 45 49  1  0  0  0  0
 46 51  2  0  0  0  0
 46 52  1  0  0  0  0
 47 50  2  0  0  0  0
 48 53  1  0  0  0  0
 49 54  2  0  0  0  0
 50 55  1  0  0  0  0
 50 97  1  0  0  0  0
 51 56  1  0  0  0  0
 51 98  1  0  0  0  0
 52 57  2  0  0  0  0
 52 99  1  0  0  0  0
 53 59  2  3  0  0  0
 53100  1  0  0  0  0
 54 55  1  0  0  0  0
 54101  1  0  0  0  0
 56 58  2  0  0  0  0
 57 58  1  0  0  0  0
 57103  1  0  0  0  0
 59 60  1  0  0  0  0
 59105  1  0  0  0  0
 60 61  2  0  0  0  0
 60 62  1  0  0  0  0
 61 64  1  0  0  0  0
 61108  1  0  0  0  0
 62 63  2  0  0  0  0
 62109  1  0  0  0  0
 63 65  1  0  0  0  0
 64 65  2  0  0  0  0
 66111  1  0  0  0  0
 66112  1  0  0  0  0
 66113  1  0  0  0  0
 67114  1  0  0  0  0
 67115  1  0  0  0  0
 67116  1  0  0  0  0
M  CHG  1  17   1
M  END
>  <PUBCHEM_COMPOUND_CID>
100920835

>  <PUBCHEM_COMPOUND_CANONICALIZED>
1

>  <PUBCHEM_CACTVS_COMPLEXITY>
1890

>  <PUBCHEM_CACTVS_HBOND_ACCEPTOR>
23

>  <PUBCHEM_CACTVS_HBOND_DONOR>
13

>  <PUBCHEM_CACTVS_ROTATABLE_BOND>
15

>  <PUBCHEM_CACTVS_SUBSKEYS>
AAADcfB8PgAAAAAAAAAAAAAAAAAAAAAAAAA0aJECAAAAAACBQAAAGgAACAAADBSwmAMyDoAABgCIAqDSCAACCAAgIAAIiAAGiMgdNyKGMRqicCMlwBUPuYfA4DwOIAABCAAAQABAAAIQAACAAAAAAAAAAA==

>  <PUBCHEM_IUPAC_OPENEYE_NAME>
[1-[[(2R,3S,4S,5R,6R)-6-[[(2R,3R,4S,5R,6S)-6-[2-(3,4-dihydroxyphenyl)-5-hydroxy-7-oxo-chromen-3-yl]oxy-3,4-dihydroxy-5-[(2S,3R,4S,5R)-3,4,5-trihydroxytetrahydropyran-2-yl]oxy-tetrahydropyran-2-yl]methoxy]-3,4,5-trihydroxy-tetrahydropyran-2-yl]methoxy]-3-(4-hydroxy-3,5-dimethoxy-phenyl)prop-2-enylidene]oxonium

>  <PUBCHEM_IUPAC_CAS_NAME>
[1-[[(2R,3S,4S,5R,6R)-6-[[(2R,3R,4S,5R,6S)-6-[[2-(3,4-dihydroxyphenyl)-5-hydroxy-7-oxo-1-benzopyran-3-yl]oxy]-3,4-dihydroxy-5-[[(2S,3R,4S,5R)-3,4,5-trihydroxy-2-oxanyl]oxy]-2-oxanyl]methoxy]-3,4,5-trihydroxy-2-oxanyl]methoxy]-3-(4-hydroxy-3,5-dimethoxyphenyl)prop-2-enylidene]oxonium

>  <PUBCHEM_IUPAC_NAME>
[1-[[(2R,3S,4S,5R,6R)-6-[[(2R,3R,4S,5R,6S)-6-[2-(3,4-dihydroxyphenyl)-5-hydroxy-7-oxochromen-3-yl]oxy-3,4-dihydroxy-5-[(2S,3R,4S,5R)-3,4,5-trihydroxyoxan-2-yl]oxyoxan-2-yl]methoxy]-3,4,5-trihydroxyoxan-2-yl]methoxy]-3-(4-hydroxy-3,5-dimethoxyphenyl)prop-2-enylidene]oxidanium

>  <PUBCHEM_IUPAC_SYSTEMATIC_NAME>
[1-[[(2R,3S,4S,5R,6R)-6-[[(2R,3R,4S,5R,6S)-6-[2-[3,4-bis(oxidanyl)phenyl]-5-oxidanyl-7-oxidanylidene-chromen-3-yl]oxy-3,4-bis(oxidanyl)-5-[(2S,3R,4S,5R)-3,4,5-tris(oxidanyl)oxan-2-yl]oxy-oxan-2-yl]methoxy]-3,4,5-tris(oxidanyl)oxan-2-yl]methoxy]-3-(3,5-dimethoxy-4-oxidanyl-phenyl)prop-2-enylidene]oxidanium

>  <PUBCHEM_IUPAC_TRADITIONAL_NAME>
[1-[[(2R,3S,4S,5R,6R)-6-[[(2R,3R,4S,5R,6S)-6-[2-(3,4-dihydroxyphenyl)-5-hydroxy-7-keto-chromen-3-yl]oxy-3,4-dihydroxy-5-[(2S,3R,4S,5R)-3,4,5-trihydroxytetrahydropyran-2-yl]oxy-tetrahydropyran-2-yl]methoxy]-3,4,5-trihydroxy-tetrahydropyran-2-yl]methoxy]-3-(4-hydroxy-3,5-dimethoxy-phenyl)prop-2-enylidene]oxonium

>  <PUBCHEM_IUPAC_INCHI>
InChI=1S/C43H48O24/c1-58-25-7-16(8-26(59-2)32(25)51)3-6-30(49)60-14-28-33(52)35(54)38(57)41(65-28)62-15-29-34(53)36(55)40(67-42-37(56)31(50)23(48)13-61-42)43(66-29)64-27-12-19-21(46)10-18(44)11-24(19)63-39(27)17-4-5-20(45)22(47)9-17/h3-12,23,28-29,31,33-38,40-43,45-48,50-57H,13-15H2,1-2H3/p+1/t23-,28-,29-,31+,33-,34+,35+,36+,37-,38-,40-,41-,42+,43-/m1/s1

>  <PUBCHEM_IUPAC_INCHIKEY>
JYEYPCKZPDNUJU-DBWHLQOESA-O

>  <PUBCHEM_XLOGP3_AA>
-3.2

>  <PUBCHEM_EXACT_MASS>
949.261

>  <PUBCHEM_MOLECULAR_FORMULA>
C43H49O24+

>  <PUBCHEM_MOLECULAR_WEIGHT>
949.841

>  <PUBCHEM_OPENEYE_CAN_SMILES>
COC1=CC(=CC(=C1O)OC)C=CC(=[OH+])OCC2C(C(C(C(O2)OCC3C(C(C(C(O3)OC4=C(OC5=CC(=O)C=C(C5=C4)O)C6=CC(=C(C=C6)O)O)OC7C(C(C(CO7)O)O)O)O)O)O)O)O

>  <PUBCHEM_OPENEYE_ISO_SMILES>
COC1=CC(=CC(=C1O)OC)C=CC(=[OH+])OC[C@@H]2[C@H]([C@@H]([C@H]([C@@H](O2)OC[C@@H]3[C@@H]([C@@H]([C@H]([C@@H](O3)OC4=C(OC5=CC(=O)C=C(C5=C4)O)C6=CC(=C(C=C6)O)O)O[C@H]7[C@@H]([C@H]([C@@H](CO7)O)O)O)O)O)O)O)O

>  <PUBCHEM_CACTVS_TPSA>
353

>  <PUBCHEM_MONOISOTOPIC_WEIGHT>
949.261

>  <PUBCHEM_TOTAL_CHARGE>
1

>  <PUBCHEM_HEAVY_ATOM_COUNT>
67

>  <PUBCHEM_ATOM_DEF_STEREO_COUNT>
14

>  <PUBCHEM_ATOM_UDEF_STEREO_COUNT>
0

>  <PUBCHEM_BOND_DEF_STEREO_COUNT>
0

>  <PUBCHEM_BOND_UDEF_STEREO_COUNT>
1

>  <PUBCHEM_ISOTOPIC_ATOM_COUNT>
0

>  <PUBCHEM_COMPONENT_COUNT>
1

>  <PUBCHEM_CACTVS_TAUTO_COUNT>
153

>  <PUBCHEM_COORDINATE_TYPE>
1
5
255

>  <PUBCHEM_BONDANNOTATIONS>
34  10  6
35  11  5
36  12  6
38  13  5
39  14  6
16  43  8
16  47  8
25  2  6
31  2  5
28  30  5
32  3  6
37  41  6
42  43  8
42  44  8
44  45  8
45  49  8
46  51  8
46  52  8
47  50  8
49  54  8
26  5  5
50  55  8
51  56  8
52  57  8
53  59  1
54  55  8
56  58  8
57  58  8
27  6  5
60  61  8
60  62  8
61  64  8
62  63  8
63  65  8
64  65  8
29  7  5
33  9  5

$$$$
