100951833
 OpenBabel06101807152D

 35 35  0  0  0  0  0  0  0  0999 V2000
    2.5369    1.0000    0.0000 O   0  0  0  0  0  0  0  0  0  0  0  0
    3.4030    2.5000    0.0000 O   0  0  0  0  0  0  0  0  0  0  0  0
    6.8671   -3.5000    0.0000 O   0  0  0  0  0  0  0  0  0  0  0  0
    7.7331   -2.0000    0.0000 O   0  0  0  0  0  0  0  0  0  0  0  0
    4.2690    1.0000    0.0000 C   0  0  0  0  0  0  0  0  0  0  0  0
    5.1350   -0.5000    0.0000 C   0  0  0  0  0  0  0  0  0  0  0  0
    5.1350    0.5000    0.0000 C   0  0  0  0  0  0  0  0  0  0  0  0
    3.4030    0.5000    0.0000 C   0  0  0  0  0  0  0  0  0  0  0  0
    4.2690    2.0000    0.0000 C   0  0  0  0  0  0  0  0  0  0  0  0
    4.2690   -1.0000    0.0000 C   0  0  0  0  0  0  0  0  0  0  0  0
    3.4030   -0.5000    0.0000 C   0  0  0  0  0  0  0  0  0  0  0  0
    5.1350    2.5000    0.0000 C   0  0  0  0  0  0  0  0  0  0  0  0
    5.1350    3.5000    0.0000 C   0  0  0  0  0  0  0  0  0  0  0  0
    6.0010   -1.0000    0.0000 C   0  0  0  0  0  0  0  0  0  0  0  0
    6.0010    4.0000    0.0000 C   0  0  0  0  0  0  0  0  0  0  0  0
    4.2690    4.0000    0.0000 C   0  0  0  0  0  0  0  0  0  0  0  0
    6.0010   -2.0000    0.0000 C   0  0  0  0  0  0  0  0  0  0  0  0
    6.8671   -2.5000    0.0000 C   0  0  0  0  0  0  0  0  0  0  0  0
    7.7331   -4.0000    0.0000 C   0  0  0  0  0  0  0  0  0  0  0  0
    5.6720    0.8100    0.0000 H   0  0  0  0  0  0  0  0  0  0  0  0
    4.2690   -1.6200    0.0000 H   0  0  0  0  0  0  0  0  0  0  0  0
    2.8660   -0.8100    0.0000 H   0  0  0  0  0  0  0  0  0  0  0  0
    5.6720    2.1900    0.0000 H   0  0  0  0  0  0  0  0  0  0  0  0
    6.5380   -0.6900    0.0000 H   0  0  0  0  0  0  0  0  0  0  0  0
    4.5790    4.5369    0.0000 H   0  0  0  0  0  0  0  0  0  0  0  0
    3.7320    4.3100    0.0000 H   0  0  0  0  0  0  0  0  0  0  0  0
    6.3110    3.4631    0.0000 H   0  0  0  0  0  0  0  0  0  0  0  0
    6.5380    4.3100    0.0000 H   0  0  0  0  0  0  0  0  0  0  0  0
    5.6910    4.5369    0.0000 H   0  0  0  0  0  0  0  0  0  0  0  0
    3.9590    3.4631    0.0000 H   0  0  0  0  0  0  0  0  0  0  0  0
    5.4641   -2.3100    0.0000 H   0  0  0  0  0  0  0  0  0  0  0  0
    2.0000    0.6900    0.0000 H   0  0  0  0  0  0  0  0  0  0  0  0
    7.4231   -4.5369    0.0000 H   0  0  0  0  0  0  0  0  0  0  0  0
    8.2700   -4.3100    0.0000 H   0  0  0  0  0  0  0  0  0  0  0  0
    8.0431   -3.4631    0.0000 H   0  0  0  0  0  0  0  0  0  0  0  0
  1  8  1  0  0  0  0
  1 32  1  0  0  0  0
  2  9  2  0  0  0  0
  3 18  1  0  0  0  0
  3 19  1  0  0  0  0
  4 18  2  0  0  0  0
  5  7  1  0  0  0  0
  5  8  2  0  0  0  0
  5  9  1  0  0  0  0
  6  7  2  0  0  0  0
  6 10  1  0  0  0  0
  6 14  1  0  0  0  0
  7 20  1  0  0  0  0
  8 11  1  0  0  0  0
  9 12  1  0  0  0  0
 10 11  2  0  0  0  0
 10 21  1  0  0  0  0
 11 22  1  0  0  0  0
 12 13  2  0  0  0  0
 12 23  1  0  0  0  0
 13 15  1  0  0  0  0
 13 16  1  0  0  0  0
 14 17  2  0  0  0  0
 14 24  1  0  0  0  0
 15 27  1  0  0  0  0
 15 28  1  0  0  0  0
 15 29  1  0  0  0  0
 16 25  1  0  0  0  0
 16 26  1  0  0  0  0
 16 30  1  0  0  0  0
 17 18  1  0  0  0  0
 17 31  1  0  0  0  0
 19 33  1  0  0  0  0
 19 34  1  0  0  0  0
 19 35  1  0  0  0  0
M  END
>  <PUBCHEM_COMPOUND_CID>
100951833

>  <PUBCHEM_COMPOUND_CANONICALIZED>
1

>  <PUBCHEM_CACTVS_COMPLEXITY>
391

>  <PUBCHEM_CACTVS_HBOND_ACCEPTOR>
4

>  <PUBCHEM_CACTVS_HBOND_DONOR>
1

>  <PUBCHEM_CACTVS_ROTATABLE_BOND>
5

>  <PUBCHEM_CACTVS_SUBSKEYS>
AAADceBwOAAAAAAAAAAAAAAAAAAAAAAAAAAwAAAAAAAAAAABAAAAGgAACAAADASAmAIyDoAABgCIAqDSCAACAAAkIAAIiAEGCMgIJjaCNRKAcUAk4BEIuYeIyOCOIAACAAAIAABAAAQAABAAAAAAAAAAAA==

>  <PUBCHEM_IUPAC_OPENEYE_NAME>
methyl (E)-3-[4-hydroxy-3-(3-methylbut-2-enoyl)phenyl]prop-2-enoate

>  <PUBCHEM_IUPAC_CAS_NAME>
(E)-3-[4-hydroxy-3-(3-methyl-1-oxobut-2-enyl)phenyl]-2-propenoic acid methyl ester

>  <PUBCHEM_IUPAC_NAME>
methyl (E)-3-[4-hydroxy-3-(3-methylbut-2-enoyl)phenyl]prop-2-enoate

>  <PUBCHEM_IUPAC_SYSTEMATIC_NAME>
methyl (E)-3-[3-(3-methylbut-2-enoyl)-4-oxidanyl-phenyl]prop-2-enoate

>  <PUBCHEM_IUPAC_TRADITIONAL_NAME>
(E)-3-[4-hydroxy-3-(3-methylbut-2-enoyl)phenyl]acrylic acid methyl ester

>  <PUBCHEM_IUPAC_INCHI>
InChI=1S/C15H16O4/c1-10(2)8-14(17)12-9-11(4-6-13(12)16)5-7-15(18)19-3/h4-9,16H,1-3H3/b7-5+

>  <PUBCHEM_IUPAC_INCHIKEY>
SNCJUGHLORZYKO-FNORWQNLSA-N

>  <PUBCHEM_XLOGP3_AA>
3.5

>  <PUBCHEM_EXACT_MASS>
260.105

>  <PUBCHEM_MOLECULAR_FORMULA>
C15H16O4

>  <PUBCHEM_MOLECULAR_WEIGHT>
260.289

>  <PUBCHEM_OPENEYE_CAN_SMILES>
CC(=CC(=O)C1=C(C=CC(=C1)C=CC(=O)OC)O)C

>  <PUBCHEM_OPENEYE_ISO_SMILES>
CC(=CC(=O)C1=C(C=CC(=C1)/C=C/C(=O)OC)O)C

>  <PUBCHEM_CACTVS_TPSA>
63.6

>  <PUBCHEM_MONOISOTOPIC_WEIGHT>
260.105

>  <PUBCHEM_TOTAL_CHARGE>
0

>  <PUBCHEM_HEAVY_ATOM_COUNT>
19

>  <PUBCHEM_ATOM_DEF_STEREO_COUNT>
0

>  <PUBCHEM_ATOM_UDEF_STEREO_COUNT>
0

>  <PUBCHEM_BOND_DEF_STEREO_COUNT>
1

>  <PUBCHEM_BOND_UDEF_STEREO_COUNT>
0

>  <PUBCHEM_ISOTOPIC_ATOM_COUNT>
0

>  <PUBCHEM_COMPONENT_COUNT>
1

>  <PUBCHEM_CACTVS_TAUTO_COUNT>
20

>  <PUBCHEM_COORDINATE_TYPE>
1
5
255

>  <PUBCHEM_BONDANNOTATIONS>
10  11  8
5  7  8
5  8  8
6  10  8
6  7  8
8  11  8

$$$$
