10108434
 OpenBabel06101807152D

 33 36  0  0  0  0  0  0  0  0999 V2000
    3.7782    1.3993    0.0000 O   0  0  0  0  0  0  0  0  0  0  0  0
    5.5442    2.4370    0.0000 O   0  0  0  0  0  0  0  0  0  0  0  0
    8.1630   -0.1815    0.0000 O   0  0  0  0  0  0  0  0  0  0  0  0
    8.1118   -2.1619    0.0000 O   0  0  0  0  0  0  0  0  0  0  0  0
    6.3903   -2.1291    0.0000 N   0  0  0  0  0  0  0  0  0  0  0  0
    5.5321   -0.6322    0.0000 C   0  0  0  0  0  0  0  0  0  0  0  0
    4.6660   -0.1322    0.0000 C   0  0  0  0  0  0  0  0  0  0  0  0
    5.5321   -1.6322    0.0000 C   0  0  0  0  0  0  0  0  0  0  0  0
    3.8000   -0.6322    0.0000 C   0  0  0  0  0  0  0  0  0  0  0  0
    6.4421   -0.1254    0.0000 C   0  0  0  0  0  0  0  0  0  0  0  0
    3.8000   -1.6322    0.0000 C   0  0  0  0  0  0  0  0  0  0  0  0
    4.6500    0.9093    0.0000 C   0  0  0  0  0  0  0  0  0  0  0  0
    4.6660   -2.1322    0.0000 C   0  0  0  0  0  0  0  0  0  0  0  0
    6.4501    0.9162    0.0000 C   0  0  0  0  0  0  0  0  0  0  0  0
    5.5480    1.4371    0.0000 C   0  0  0  0  0  0  0  0  0  0  0  0
    7.2814   -0.6536    0.0000 C   0  0  0  0  0  0  0  0  0  0  0  0
    2.9061   -0.0975    0.0000 C   0  0  0  0  0  0  0  0  0  0  0  0
    7.2558   -1.6450    0.0000 C   0  0  0  0  0  0  0  0  0  0  0  0
    2.9061   -2.1669    0.0000 C   0  0  0  0  0  0  0  0  0  0  0  0
    2.0000   -0.6114    0.0000 C   0  0  0  0  0  0  0  0  0  0  0  0
    2.0000   -1.6530    0.0000 C   0  0  0  0  0  0  0  0  0  0  0  0
    3.7667    2.3992    0.0000 C   0  0  0  0  0  0  0  0  0  0  0  0
    4.6660   -2.7522    0.0000 H   0  0  0  0  0  0  0  0  0  0  0  0
    6.9882    1.2242    0.0000 H   0  0  0  0  0  0  0  0  0  0  0  0
    6.3857   -2.7491    0.0000 H   0  0  0  0  0  0  0  0  0  0  0  0
    2.9132    0.5224    0.0000 H   0  0  0  0  0  0  0  0  0  0  0  0
    2.9132   -2.7868    0.0000 H   0  0  0  0  0  0  0  0  0  0  0  0
    1.4643   -0.2993    0.0000 H   0  0  0  0  0  0  0  0  0  0  0  0
    1.4643   -1.9651    0.0000 H   0  0  0  0  0  0  0  0  0  0  0  0
    6.0799    2.7491    0.0000 H   0  0  0  0  0  0  0  0  0  0  0  0
    4.3866    2.4064    0.0000 H   0  0  0  0  0  0  0  0  0  0  0  0
    3.7595    3.0191    0.0000 H   0  0  0  0  0  0  0  0  0  0  0  0
    3.1467    2.3920    0.0000 H   0  0  0  0  0  0  0  0  0  0  0  0
  1 12  1  0  0  0  0
  1 22  1  0  0  0  0
  2 15  1  0  0  0  0
  2 30  1  0  0  0  0
  3 16  2  0  0  0  0
  4 18  2  0  0  0  0
  5  8  1  0  0  0  0
  5 18  1  0  0  0  0
  5 25  1  0  0  0  0
  6  7  2  0  0  0  0
  6  8  1  0  0  0  0
  6 10  1  0  0  0  0
  7  9  1  0  0  0  0
  7 12  1  0  0  0  0
  8 13  2  0  0  0  0
  9 11  1  0  0  0  0
  9 17  2  0  0  0  0
 10 14  2  0  0  0  0
 10 16  1  0  0  0  0
 11 13  1  0  0  0  0
 11 19  2  0  0  0  0
 12 15  2  0  0  0  0
 13 23  1  0  0  0  0
 14 15  1  0  0  0  0
 14 24  1  0  0  0  0
 16 18  1  0  0  0  0
 17 20  1  0  0  0  0
 17 26  1  0  0  0  0
 19 21  1  0  0  0  0
 19 27  1  0  0  0  0
 20 21  2  0  0  0  0
 20 28  1  0  0  0  0
 21 29  1  0  0  0  0
 22 31  1  0  0  0  0
 22 32  1  0  0  0  0
 22 33  1  0  0  0  0
M  END
>  <PUBCHEM_COMPOUND_CID>
10108434

>  <PUBCHEM_COMPOUND_CANONICALIZED>
1

>  <PUBCHEM_CACTVS_COMPLEXITY>
493

>  <PUBCHEM_CACTVS_HBOND_ACCEPTOR>
4

>  <PUBCHEM_CACTVS_HBOND_DONOR>
2

>  <PUBCHEM_CACTVS_ROTATABLE_BOND>
1

>  <PUBCHEM_CACTVS_SUBSKEYS>
AAADccB6OAAAAAAAAAAAAAAAAAAAAAAAAAA8YMEAAAAAAADxVAAAHgAQCAAADAyBmAIyxsLABgCIAqVSUACCCAAlIgAIiAGG7MgNJjLGtbuEcStk1BHL+Ye+3fPe6AADQAAaQADQAAaAADSAAAAAAAAAAA==

>  <PUBCHEM_IUPAC_INCHI>
InChI=1S/C17H11NO4/c1-22-16-12(19)7-10-13-11(18-17(21)15(10)20)6-8-4-2-3-5-9(8)14(13)16/h2-7,19H,1H3,(H,18,21)

>  <PUBCHEM_IUPAC_INCHIKEY>
FPIKZASYTJSPJN-UHFFFAOYSA-N

>  <PUBCHEM_XLOGP3_AA>
2.8

>  <PUBCHEM_EXACT_MASS>
293.069

>  <PUBCHEM_MOLECULAR_FORMULA>
C17H11NO4

>  <PUBCHEM_MOLECULAR_WEIGHT>
293.278

>  <PUBCHEM_OPENEYE_CAN_SMILES>
COC1=C(C=C2C3=C1C4=CC=CC=C4C=C3NC(=O)C2=O)O

>  <PUBCHEM_OPENEYE_ISO_SMILES>
COC1=C(C=C2C3=C1C4=CC=CC=C4C=C3NC(=O)C2=O)O

>  <PUBCHEM_CACTVS_TPSA>
75.6

>  <PUBCHEM_MONOISOTOPIC_WEIGHT>
293.069

>  <PUBCHEM_TOTAL_CHARGE>
0

>  <PUBCHEM_HEAVY_ATOM_COUNT>
22

>  <PUBCHEM_ATOM_DEF_STEREO_COUNT>
0

>  <PUBCHEM_ATOM_UDEF_STEREO_COUNT>
0

>  <PUBCHEM_BOND_DEF_STEREO_COUNT>
0

>  <PUBCHEM_BOND_UDEF_STEREO_COUNT>
0

>  <PUBCHEM_ISOTOPIC_ATOM_COUNT>
0

>  <PUBCHEM_COMPONENT_COUNT>
1

>  <PUBCHEM_CACTVS_TAUTO_COUNT>
6

>  <PUBCHEM_COORDINATE_TYPE>
1
5
255

>  <PUBCHEM_BONDANNOTATIONS>
10  14  8
11  13  8
11  19  8
12  15  8
14  15  8
17  20  8
19  21  8
20  21  8
6  10  8
6  7  8
6  8  8
7  12  8
7  9  8
8  13  8
9  11  8
9  17  8

$$$$
