101023289
 OpenBabel06101807152D

 72 74  0  0  0  0  0  0  0  0999 V2000
   10.9942  -10.9262    0.0000 O   0  0  0  0  0  0  0  0  0  0  0  0
    9.6427   -9.8663    0.0000 O   0  0  0  0  0  0  0  0  0  0  0  0
   16.7760   -8.7477    0.0000 O   0  0  0  0  0  0  0  0  0  0  0  0
    7.9106   -6.8663    0.0000 O   0  0  0  0  0  0  0  0  0  0  0  0
   10.6673   10.8284    0.0000 C   0  0  0  0  0  0  0  0  0  0  0  0
   13.9209   11.0441    0.0000 C   0  0  0  0  0  0  0  0  0  0  0  0
    7.6170    9.6763    0.0000 C   0  0  0  0  0  0  0  0  0  0  0  0
   17.0966   10.3049    0.0000 C   0  0  0  0  0  0  0  0  0  0  0  0
    5.0332    7.6874    0.0000 C   0  0  0  0  0  0  0  0  0  0  0  0
   19.9204    8.6746    0.0000 C   0  0  0  0  0  0  0  0  0  0  0  0
    3.1390    5.0334    0.0000 C   0  0  0  0  0  0  0  0  0  0  0  0
   22.1485    6.2939    0.0000 C   0  0  0  0  0  0  0  0  0  0  0  0
    2.0980    1.9434    0.0000 C   0  0  0  0  0  0  0  0  0  0  0  0
   23.5884    3.3684    0.0000 C   0  0  0  0  0  0  0  0  0  0  0  0
    2.0000   -1.3158    0.0000 C   0  0  0  0  0  0  0  0  0  0  0  0
   24.1159    0.1507    0.0000 C   0  0  0  0  0  0  0  0  0  0  0  0
    2.8535   -4.4628    0.0000 C   0  0  0  0  0  0  0  0  0  0  0  0
   23.6853   -3.0814    0.0000 C   0  0  0  0  0  0  0  0  0  0  0  0
    4.5849   -7.2258    0.0000 C   0  0  0  0  0  0  0  0  0  0  0  0
   22.3339   -6.0488    0.0000 C   0  0  0  0  0  0  0  0  0  0  0  0
    7.0446   -9.3663    0.0000 C   0  0  0  0  0  0  0  0  0  0  0  0
   20.1784   -8.4954    0.0000 C   0  0  0  0  0  0  0  0  0  0  0  0
    7.9106   -9.8663    0.0000 C   0  0  0  0  0  0  0  0  0  0  0  0
   17.4049  -10.2098    0.0000 C   0  0  0  0  0  0  0  0  0  0  0  0
    7.0446   -8.3663    0.0000 C   0  0  0  0  0  0  0  0  0  0  0  0
   18.6645   -9.0546    0.0000 C   0  0  0  0  0  0  0  0  0  0  0  0
   14.2527  -11.0441    0.0000 C   0  0  0  0  0  0  0  0  0  0  0  0
    8.7767   -9.3663    0.0000 C   0  0  0  0  0  0  0  0  0  0  0  0
   17.1711   -9.6663    0.0000 C   0  0  0  0  0  0  0  0  0  0  0  0
    7.9106   -7.8663    0.0000 C   0  0  0  0  0  0  0  0  0  0  0  0
   15.6999  -10.3297    0.0000 C   0  0  0  0  0  0  0  0  0  0  0  0
    8.7767   -8.3663    0.0000 C   0  0  0  0  0  0  0  0  0  0  0  0
   10.8852   11.4088    0.0000 H   0  0  0  0  0  0  0  0  0  0  0  0
   10.7988   10.2225    0.0000 H   0  0  0  0  0  0  0  0  0  0  0  0
   14.2980   11.5362    0.0000 H   0  0  0  0  0  0  0  0  0  0  0  0
   13.8705   10.4262    0.0000 H   0  0  0  0  0  0  0  0  0  0  0  0
    7.6568   10.2950    0.0000 H   0  0  0  0  0  0  0  0  0  0  0  0
    7.9189    9.1348    0.0000 H   0  0  0  0  0  0  0  0  0  0  0  0
   17.6005   10.6661    0.0000 H   0  0  0  0  0  0  0  0  0  0  0  0
   16.8689    9.7283    0.0000 H   0  0  0  0  0  0  0  0  0  0  0  0
    4.8914    8.2910    0.0000 H   0  0  0  0  0  0  0  0  0  0  0  0
    5.4794    7.2570    0.0000 H   0  0  0  0  0  0  0  0  0  0  0  0
   20.5076    8.8737    0.0000 H   0  0  0  0  0  0  0  0  0  0  0  0
   19.5349    8.1890    0.0000 H   0  0  0  0  0  0  0  0  0  0  0  0
    2.8279    5.5697    0.0000 H   0  0  0  0  0  0  0  0  0  0  0  0
    3.6911    4.7512    0.0000 H   0  0  0  0  0  0  0  0  0  0  0  0
   22.7682    6.3138    0.0000 H   0  0  0  0  0  0  0  0  0  0  0  0
   21.6385    5.9414    0.0000 H   0  0  0  0  0  0  0  0  0  0  0  0
    1.6444    2.3661    0.0000 H   0  0  0  0  0  0  0  0  0  0  0  0
    2.7082    1.8339    0.0000 H   0  0  0  0  0  0  0  0  0  0  0  0
   24.1871    3.2073    0.0000 H   0  0  0  0  0  0  0  0  0  0  0  0
   22.9979    3.1793    0.0000 H   0  0  0  0  0  0  0  0  0  0  0  0
    1.4432   -1.0432    0.0000 H   0  0  0  0  0  0  0  0  0  0  0  0
    2.6157   -1.2432    0.0000 H   0  0  0  0  0  0  0  0  0  0  0  0
   24.6419   -0.1774    0.0000 H   0  0  0  0  0  0  0  0  0  0  0  0
   23.4959    0.1414    0.0000 H   0  0  0  0  0  0  0  0  0  0  0  0
    2.2415   -4.3637    0.0000 H   0  0  0  0  0  0  0  0  0  0  0  0
    3.4216   -4.2143    0.0000 H   0  0  0  0  0  0  0  0  0  0  0  0
   24.0933   -3.5483    0.0000 H   0  0  0  0  0  0  0  0  0  0  0  0
   23.0894   -2.9101    0.0000 H   0  0  0  0  0  0  0  0  0  0  0  0
    3.9705   -7.3089    0.0000 H   0  0  0  0  0  0  0  0  0  0  0  0
    5.0562   -6.8230    0.0000 H   0  0  0  0  0  0  0  0  0  0  0  0
   22.5886   -6.6141    0.0000 H   0  0  0  0  0  0  0  0  0  0  0  0
   21.8136   -5.7118    0.0000 H   0  0  0  0  0  0  0  0  0  0  0  0
   17.6498  -10.7794    0.0000 H   0  0  0  0  0  0  0  0  0  0  0  0
    6.5077   -8.0563    0.0000 H   0  0  0  0  0  0  0  0  0  0  0  0
   18.4396   -8.4768    0.0000 H   0  0  0  0  0  0  0  0  0  0  0  0
   15.4352   -9.7691    0.0000 H   0  0  0  0  0  0  0  0  0  0  0  0
    9.3136   -8.0563    0.0000 H   0  0  0  0  0  0  0  0  0  0  0  0
   10.1796   -9.5563    0.0000 H   0  0  0  0  0  0  0  0  0  0  0  0
   17.1467   -8.2507    0.0000 H   0  0  0  0  0  0  0  0  0  0  0  0
    8.4476   -6.5563    0.0000 H   0  0  0  0  0  0  0  0  0  0  0  0
  1 23  1  0  0  0  0
  1 27  1  0  0  0  0
  2 28  1  0  0  0  0
  2 70  1  0  0  0  0
  3 29  1  0  0  0  0
  3 71  1  0  0  0  0
  4 30  1  0  0  0  0
  4 72  1  0  0  0  0
  5  6  1  0  0  0  0
  5  7  1  0  0  0  0
  5 33  1  0  0  0  0
  5 34  1  0  0  0  0
  6  8  1  0  0  0  0
  6 35  1  0  0  0  0
  6 36  1  0  0  0  0
  7  9  1  0  0  0  0
  7 37  1  0  0  0  0
  7 38  1  0  0  0  0
  8 10  1  0  0  0  0
  8 39  1  0  0  0  0
  8 40  1  0  0  0  0
  9 11  1  0  0  0  0
  9 41  1  0  0  0  0
  9 42  1  0  0  0  0
 10 12  1  0  0  0  0
 10 43  1  0  0  0  0
 10 44  1  0  0  0  0
 11 13  1  0  0  0  0
 11 45  1  0  0  0  0
 11 46  1  0  0  0  0
 12 14  1  0  0  0  0
 12 47  1  0  0  0  0
 12 48  1  0  0  0  0
 13 15  1  0  0  0  0
 13 49  1  0  0  0  0
 13 50  1  0  0  0  0
 14 16  1  0  0  0  0
 14 51  1  0  0  0  0
 14 52  1  0  0  0  0
 15 17  1  0  0  0  0
 15 53  1  0  0  0  0
 15 54  1  0  0  0  0
 16 18  1  0  0  0  0
 16 55  1  0  0  0  0
 16 56  1  0  0  0  0
 17 19  1  0  0  0  0
 17 57  1  0  0  0  0
 17 58  1  0  0  0  0
 18 20  1  0  0  0  0
 18 59  1  0  0  0  0
 18 60  1  0  0  0  0
 19 21  1  0  0  0  0
 19 61  1  0  0  0  0
 19 62  1  0  0  0  0
 20 22  1  0  0  0  0
 20 63  1  0  0  0  0
 20 64  1  0  0  0  0
 21 23  2  0  0  0  0
 21 25  1  0  0  0  0
 22 24  1  0  0  0  0
 22 26  2  0  0  0  0
 23 28  1  0  0  0  0
 24 27  2  0  0  0  0
 24 65  1  0  0  0  0
 25 30  2  0  0  0  0
 25 66  1  0  0  0  0
 26 29  1  0  0  0  0
 26 67  1  0  0  0  0
 27 31  1  0  0  0  0
 28 32  2  0  0  0  0
 29 31  2  0  0  0  0
 30 32  1  0  0  0  0
 31 68  1  0  0  0  0
 32 69  1  0  0  0  0
M  END
>  <PUBCHEM_COMPOUND_CID>
101023289

>  <PUBCHEM_COMPOUND_CANONICALIZED>
1

>  <PUBCHEM_CACTVS_COMPLEXITY>
484

>  <PUBCHEM_CACTVS_HBOND_ACCEPTOR>
4

>  <PUBCHEM_CACTVS_HBOND_DONOR>
3

>  <PUBCHEM_CACTVS_ROTATABLE_BOND>
0

>  <PUBCHEM_CACTVS_SUBSKEYS>
AAADcfB4OAAAAAAAAAAAAAAAAAAAAAAAAAAwYAAAAAAAAAABQAAAGgAACAAADASAmAAwBoAABgCAAiBCAAACCAAgIAAAiAAGiIgNJyKGMRqCeCOlwBULuAfA4PwOAQABCAAIQAACAAIQABCAAAAAAAAAAA==

>  <PUBCHEM_IUPAC_INCHI>
InChI=1S/C28H40O4/c29-24-17-22-15-13-11-9-7-5-3-1-2-4-6-8-10-12-14-16-23-19-25(30)21-27(31)28(23)32-26(18-22)20-24/h17-21,29-31H,1-16H2

>  <PUBCHEM_IUPAC_INCHIKEY>
MBSKKKVQUZYFGT-UHFFFAOYSA-N

>  <PUBCHEM_XLOGP3_AA>
10.3

>  <PUBCHEM_EXACT_MASS>
440.293

>  <PUBCHEM_MOLECULAR_FORMULA>
C28H40O4

>  <PUBCHEM_MOLECULAR_WEIGHT>
440.624

>  <PUBCHEM_OPENEYE_CAN_SMILES>
C1CCCCCCCCC2=CC(=CC(=C2OC3=CC(=CC(=C3)CCCCCCC1)O)O)O

>  <PUBCHEM_OPENEYE_ISO_SMILES>
C1CCCCCCCCC2=CC(=CC(=C2OC3=CC(=CC(=C3)CCCCCCC1)O)O)O

>  <PUBCHEM_CACTVS_TPSA>
69.9

>  <PUBCHEM_MONOISOTOPIC_WEIGHT>
440.293

>  <PUBCHEM_TOTAL_CHARGE>
0

>  <PUBCHEM_HEAVY_ATOM_COUNT>
32

>  <PUBCHEM_ATOM_DEF_STEREO_COUNT>
0

>  <PUBCHEM_ATOM_UDEF_STEREO_COUNT>
0

>  <PUBCHEM_BOND_DEF_STEREO_COUNT>
0

>  <PUBCHEM_BOND_UDEF_STEREO_COUNT>
0

>  <PUBCHEM_ISOTOPIC_ATOM_COUNT>
0

>  <PUBCHEM_COMPONENT_COUNT>
1

>  <PUBCHEM_CACTVS_TAUTO_COUNT>
81

>  <PUBCHEM_COORDINATE_TYPE>
1
5
255

>  <PUBCHEM_BONDANNOTATIONS>
21  23  8
21  25  8
22  24  8
22  26  8
23  28  8
24  27  8
25  30  8
26  29  8
27  31  8
28  32  8
29  31  8
30  32  8

$$$$
