10105863
 OpenBabel06101807152D

 30 32  0  0  0  0  0  0  0  0999 V2000
    3.9061   -1.6643    0.0000 O   0  0  0  0  0  0  0  0  0  0  0  0
    5.6500    1.4119    0.0000 O   0  0  0  0  0  0  0  0  0  0  0  0
    5.6660   -2.6296    0.0000 O   0  0  0  0  0  0  0  0  0  0  0  0
    6.5442    2.9396    0.0000 O   0  0  0  0  0  0  0  0  0  0  0  0
    3.0000   -1.1504    0.0000 C   0  0  0  0  0  0  0  0  0  0  0  0
    4.8000   -0.1296    0.0000 C   0  0  0  0  0  0  0  0  0  0  0  0
    4.8000   -1.1296    0.0000 C   0  0  0  0  0  0  0  0  0  0  0  0
    3.0000   -0.1088    0.0000 C   0  0  0  0  0  0  0  0  0  0  0  0
    2.0000   -1.1543    0.0000 C   0  0  0  0  0  0  0  0  0  0  0  0
    2.5033   -2.0184    0.0000 C   0  0  0  0  0  0  0  0  0  0  0  0
    3.9061    0.4050    0.0000 C   0  0  0  0  0  0  0  0  0  0  0  0
    5.6660    0.3704    0.0000 C   0  0  0  0  0  0  0  0  0  0  0  0
    6.5320   -0.1296    0.0000 C   0  0  0  0  0  0  0  0  0  0  0  0
    5.6660   -1.6296    0.0000 C   0  0  0  0  0  0  0  0  0  0  0  0
    6.5320   -1.1296    0.0000 C   0  0  0  0  0  0  0  0  0  0  0  0
    7.4420    0.3772    0.0000 C   0  0  0  0  0  0  0  0  0  0  0  0
    7.4501    1.4188    0.0000 C   0  0  0  0  0  0  0  0  0  0  0  0
    6.5480    1.9396    0.0000 C   0  0  0  0  0  0  0  0  0  0  0  0
    2.4643    0.2033    0.0000 H   0  0  0  0  0  0  0  0  0  0  0  0
    1.9976   -0.5343    0.0000 H   0  0  0  0  0  0  0  0  0  0  0  0
    1.3800   -1.1567    0.0000 H   0  0  0  0  0  0  0  0  0  0  0  0
    2.0024   -1.7743    0.0000 H   0  0  0  0  0  0  0  0  0  0  0  0
    1.9652   -1.7105    0.0000 H   0  0  0  0  0  0  0  0  0  0  0  0
    2.1954   -2.5565    0.0000 H   0  0  0  0  0  0  0  0  0  0  0  0
    3.0415   -2.3263    0.0000 H   0  0  0  0  0  0  0  0  0  0  0  0
    3.9132    1.0250    0.0000 H   0  0  0  0  0  0  0  0  0  0  0  0
    7.0690   -1.4396    0.0000 H   0  0  0  0  0  0  0  0  0  0  0  0
    7.9754    0.0610    0.0000 H   0  0  0  0  0  0  0  0  0  0  0  0
    7.9882    1.7268    0.0000 H   0  0  0  0  0  0  0  0  0  0  0  0
    6.2030   -2.9396    0.0000 H   0  0  0  0  0  0  0  0  0  0  0  0
  1  5  1  0  0  0  0
  1  7  1  0  0  0  0
  2 12  1  0  0  0  0
  2 18  1  0  0  0  0
  3 14  1  0  0  0  0
  3 30  1  0  0  0  0
  4 18  2  0  0  0  0
  5  8  1  0  0  0  0
  5  9  1  0  0  0  0
  5 10  1  0  0  0  0
  6  7  1  0  0  0  0
  6 11  1  0  0  0  0
  6 12  2  0  0  0  0
  7 14  2  0  0  0  0
  8 11  2  0  0  0  0
  8 19  1  0  0  0  0
  9 20  1  0  0  0  0
  9 21  1  0  0  0  0
  9 22  1  0  0  0  0
 10 23  1  0  0  0  0
 10 24  1  0  0  0  0
 10 25  1  0  0  0  0
 11 26  1  0  0  0  0
 12 13  1  0  0  0  0
 13 15  2  0  0  0  0
 13 16  1  0  0  0  0
 14 15  1  0  0  0  0
 15 27  1  0  0  0  0
 16 17  2  0  0  0  0
 16 28  1  0  0  0  0
 17 18  1  0  0  0  0
 17 29  1  0  0  0  0
M  END
>  <PUBCHEM_COMPOUND_CID>
10105863

>  <PUBCHEM_COMPOUND_CANONICALIZED>
1

>  <PUBCHEM_CACTVS_COMPLEXITY>
424

>  <PUBCHEM_CACTVS_HBOND_ACCEPTOR>
4

>  <PUBCHEM_CACTVS_HBOND_DONOR>
1

>  <PUBCHEM_CACTVS_ROTATABLE_BOND>
0

>  <PUBCHEM_CACTVS_SUBSKEYS>
AAADccBwOAAAAAAAAAAAAAAAAAAAAAAAAAAwQIAAAAAAAACBAAAAGgAACAAADESAmAAyDoAABgCIAiDSCAACCAAgIAAIiAAGiMgNJyKGMRqCeiOlwBULuYfA4HwOIQADCAAIQABCAAYQABCAAAAAAAAAAA==

>  <PUBCHEM_IUPAC_OPENEYE_NAME>
6-hydroxy-8,8-dimethyl-pyrano[2,3-f]chromen-2-one

>  <PUBCHEM_IUPAC_CAS_NAME>
6-hydroxy-8,8-dimethyl-2-pyrano[2,3-f][1]benzopyranone

>  <PUBCHEM_IUPAC_NAME>
6-hydroxy-8,8-dimethylpyrano[2,3-f]chromen-2-one

>  <PUBCHEM_IUPAC_SYSTEMATIC_NAME>
8,8-dimethyl-6-oxidanyl-pyrano[2,3-f]chromen-2-one

>  <PUBCHEM_IUPAC_TRADITIONAL_NAME>
6-hydroxy-8,8-dimethyl-pyrano[2,3-f]chromen-2-one

>  <PUBCHEM_IUPAC_INCHI>
InChI=1S/C14H12O4/c1-14(2)6-5-9-12-8(3-4-11(16)17-12)7-10(15)13(9)18-14/h3-7,15H,1-2H3

>  <PUBCHEM_IUPAC_INCHIKEY>
OYPWMLRFDXSKJG-UHFFFAOYSA-N

>  <PUBCHEM_XLOGP3_AA>
2.5

>  <PUBCHEM_EXACT_MASS>
244.074

>  <PUBCHEM_MOLECULAR_FORMULA>
C14H12O4

>  <PUBCHEM_MOLECULAR_WEIGHT>
244.246

>  <PUBCHEM_OPENEYE_CAN_SMILES>
CC1(C=CC2=C3C(=CC(=C2O1)O)C=CC(=O)O3)C

>  <PUBCHEM_OPENEYE_ISO_SMILES>
CC1(C=CC2=C3C(=CC(=C2O1)O)C=CC(=O)O3)C

>  <PUBCHEM_CACTVS_TPSA>
55.8

>  <PUBCHEM_MONOISOTOPIC_WEIGHT>
244.074

>  <PUBCHEM_TOTAL_CHARGE>
0

>  <PUBCHEM_HEAVY_ATOM_COUNT>
18

>  <PUBCHEM_ATOM_DEF_STEREO_COUNT>
0

>  <PUBCHEM_ATOM_UDEF_STEREO_COUNT>
0

>  <PUBCHEM_BOND_DEF_STEREO_COUNT>
0

>  <PUBCHEM_BOND_UDEF_STEREO_COUNT>
0

>  <PUBCHEM_ISOTOPIC_ATOM_COUNT>
0

>  <PUBCHEM_COMPONENT_COUNT>
1

>  <PUBCHEM_CACTVS_TAUTO_COUNT>
2

>  <PUBCHEM_COORDINATE_TYPE>
1
5
255

>  <PUBCHEM_BONDANNOTATIONS>
12  13  8
13  15  8
13  16  8
14  15  8
16  17  8
17  18  8
2  12  8
2  18  8
6  12  8
6  7  8
7  14  8

$$$$
