10108584
 OpenBabel06101807152D

 33 33  0  0  1  0  0  0  0  0999 V2000
    4.5981    1.3450    0.0000 O   0  0  0  0  0  0  0  0  0  0  0  0
    6.3301    2.3450    0.0000 O   0  0  0  0  0  0  0  0  0  0  0  0
    3.7320    3.8450    0.0000 O   0  0  0  0  0  0  0  0  0  0  0  0
    6.3301    4.3450    0.0000 O   0  0  0  0  0  0  0  0  0  0  0  0
    2.8660    2.3450    0.0000 O   0  0  0  0  0  0  0  0  0  0  0  0
    4.5981    4.3450    0.0000 O   0  0  0  0  0  0  0  0  0  0  0  0
    2.8660    1.3450    0.0000 O   0  0  0  0  0  0  0  0  0  0  0  0
    2.8660   -4.6550    0.0000 O   0  0  0  0  0  0  0  0  0  0  0  0
    4.5981    2.3450    0.0000 C   0  0  3  0  0  0  0  0  0  0  0  0
    5.4641    2.8450    0.0000 C   0  0  3  0  0  0  0  0  0  0  0  0
    3.7320    2.8450    0.0000 C   0  0  0  0  0  0  0  0  0  0  0  0
    5.4641    3.8450    0.0000 C   0  0  0  0  0  0  0  0  0  0  0  0
    2.8660   -1.6550    0.0000 C   0  0  0  0  0  0  0  0  0  0  0  0
    3.7320    0.8450    0.0000 C   0  0  0  0  0  0  0  0  0  0  0  0
    2.8660   -0.6550    0.0000 C   0  0  0  0  0  0  0  0  0  0  0  0
    3.7320   -0.1550    0.0000 C   0  0  0  0  0  0  0  0  0  0  0  0
    2.0000   -2.1550    0.0000 C   0  0  0  0  0  0  0  0  0  0  0  0
    3.7320   -2.1550    0.0000 C   0  0  0  0  0  0  0  0  0  0  0  0
    2.0000   -3.1550    0.0000 C   0  0  0  0  0  0  0  0  0  0  0  0
    3.7320   -3.1550    0.0000 C   0  0  0  0  0  0  0  0  0  0  0  0
    2.8660   -3.6550    0.0000 C   0  0  0  0  0  0  0  0  0  0  0  0
    5.3342    1.9200    0.0000 H   0  0  0  0  0  0  0  0  0  0  0  0
    6.2002    3.2700    0.0000 H   0  0  0  0  0  0  0  0  0  0  0  0
    6.8671    2.6550    0.0000 H   0  0  0  0  0  0  0  0  0  0  0  0
    2.3291   -0.3450    0.0000 H   0  0  0  0  0  0  0  0  0  0  0  0
    4.2690   -0.4650    0.0000 H   0  0  0  0  0  0  0  0  0  0  0  0
    1.4631   -1.8450    0.0000 H   0  0  0  0  0  0  0  0  0  0  0  0
    4.2690   -1.8450    0.0000 H   0  0  0  0  0  0  0  0  0  0  0  0
    1.4631   -3.4650    0.0000 H   0  0  0  0  0  0  0  0  0  0  0  0
    4.2690   -3.4650    0.0000 H   0  0  0  0  0  0  0  0  0  0  0  0
    3.1951    4.1550    0.0000 H   0  0  0  0  0  0  0  0  0  0  0  0
    6.3301    4.9650    0.0000 H   0  0  0  0  0  0  0  0  0  0  0  0
    2.3291   -4.9650    0.0000 H   0  0  0  0  0  0  0  0  0  0  0  0
  1  9  1  0  0  0  0
  1 14  1  0  0  0  0
  2 10  1  0  0  0  0
  2 24  1  0  0  0  0
  3 11  1  0  0  0  0
  3 31  1  0  0  0  0
  4 12  1  0  0  0  0
  4 32  1  0  0  0  0
  5 11  2  0  0  0  0
  6 12  2  0  0  0  0
  7 14  2  0  0  0  0
  8 21  1  0  0  0  0
  8 33  1  0  0  0  0
  9 10  1  0  0  0  0
  9 11  1  0  0  0  0
  9 22  1  0  0  0  0
 10 12  1  0  0  0  0
 10 23  1  0  0  0  0
 13 15  1  0  0  0  0
 13 17  2  0  0  0  0
 13 18  1  0  0  0  0
 14 16  1  0  0  0  0
 15 16  2  0  0  0  0
 15 25  1  0  0  0  0
 16 26  1  0  0  0  0
 17 19  1  0  0  0  0
 17 27  1  0  0  0  0
 18 20  2  0  0  0  0
 18 28  1  0  0  0  0
 19 21  2  0  0  0  0
 19 29  1  0  0  0  0
 20 21  1  0  0  0  0
 20 30  1  0  0  0  0
M  END
>  <PUBCHEM_COMPOUND_CID>
10108584

>  <PUBCHEM_COMPOUND_CANONICALIZED>
1

>  <PUBCHEM_CACTVS_COMPLEXITY>
422

>  <PUBCHEM_CACTVS_HBOND_ACCEPTOR>
8

>  <PUBCHEM_CACTVS_HBOND_DONOR>
4

>  <PUBCHEM_CACTVS_ROTATABLE_BOND>
7

>  <PUBCHEM_CACTVS_SUBSKEYS>
AAADccBwPAAAAAAAAAAAAAAAAAAAAAAAAAAwAAAAAAAAAAABAAAAGgAACAAADBSgmAIwDoAABgCIAiDSCAICAAAgIAAIiAFGCMgJNjaCMRaCcAAl4BELuYfDwAAOIAAAAAAAAABAAAAAAAAAAAAAAAAAAA==

>  <PUBCHEM_IUPAC_OPENEYE_NAME>
2-hydroxy-3-[(E)-3-(4-hydroxyphenyl)prop-2-enoyl]oxy-butanedioic acid

>  <PUBCHEM_IUPAC_CAS_NAME>
2-hydroxy-3-[(E)-3-(4-hydroxyphenyl)-1-oxoprop-2-enoxy]butanedioic acid

>  <PUBCHEM_IUPAC_NAME>
2-hydroxy-3-[(E)-3-(4-hydroxyphenyl)prop-2-enoyl]oxybutanedioic acid

>  <PUBCHEM_IUPAC_SYSTEMATIC_NAME>
2-[(E)-3-(4-hydroxyphenyl)prop-2-enoyl]oxy-3-oxidanyl-butanedioic acid

>  <PUBCHEM_IUPAC_TRADITIONAL_NAME>
2-hydroxy-3-[(E)-3-(4-hydroxyphenyl)acryloyl]oxy-succinic acid

>  <PUBCHEM_IUPAC_INCHI>
InChI=1S/C13H12O8/c14-8-4-1-7(2-5-8)3-6-9(15)21-11(13(19)20)10(16)12(17)18/h1-6,10-11,14,16H,(H,17,18)(H,19,20)/b6-3+

>  <PUBCHEM_IUPAC_INCHIKEY>
INYJZRKTYXTZHP-ZZXKWVIFSA-N

>  <PUBCHEM_XLOGP3_AA>
0.4

>  <PUBCHEM_EXACT_MASS>
296.053

>  <PUBCHEM_MOLECULAR_FORMULA>
C13H12O8

>  <PUBCHEM_MOLECULAR_WEIGHT>
296.231

>  <PUBCHEM_OPENEYE_CAN_SMILES>
C1=CC(=CC=C1C=CC(=O)OC(C(C(=O)O)O)C(=O)O)O

>  <PUBCHEM_OPENEYE_ISO_SMILES>
C1=CC(=CC=C1/C=C/C(=O)OC(C(C(=O)O)O)C(=O)O)O

>  <PUBCHEM_CACTVS_TPSA>
141

>  <PUBCHEM_MONOISOTOPIC_WEIGHT>
296.053

>  <PUBCHEM_TOTAL_CHARGE>
0

>  <PUBCHEM_HEAVY_ATOM_COUNT>
21

>  <PUBCHEM_ATOM_DEF_STEREO_COUNT>
0

>  <PUBCHEM_ATOM_UDEF_STEREO_COUNT>
2

>  <PUBCHEM_BOND_DEF_STEREO_COUNT>
1

>  <PUBCHEM_BOND_UDEF_STEREO_COUNT>
0

>  <PUBCHEM_ISOTOPIC_ATOM_COUNT>
0

>  <PUBCHEM_COMPONENT_COUNT>
1

>  <PUBCHEM_CACTVS_TAUTO_COUNT>
4

>  <PUBCHEM_COORDINATE_TYPE>
1
5
255

>  <PUBCHEM_BONDANNOTATIONS>
10  23  3
13  17  8
13  18  8
17  19  8
18  20  8
19  21  8
20  21  8
9  22  3

$$$$
