101191858
 OpenBabel06101807152D

 31 33  0  0  0  0  0  0  0  0999 V2000
    8.1821    1.7846    0.0000 O   0  0  0  0  0  0  0  0  0  0  0  0
    2.0000   -1.7846    0.0000 O   0  0  0  0  0  0  0  0  0  0  0  0
    2.9215    1.7841    0.0000 O   0  0  0  0  0  0  0  0  0  0  0  0
    5.5301    0.2395    0.0000 C   0  0  0  0  0  0  0  0  0  0  0  0
    4.6641   -0.2605    0.0000 C   0  0  0  0  0  0  0  0  0  0  0  0
    6.3961   -0.2605    0.0000 C   0  0  0  0  0  0  0  0  0  0  0  0
    4.6641   -1.2605    0.0000 C   0  0  0  0  0  0  0  0  0  0  0  0
    7.3062    0.2464    0.0000 C   0  0  0  0  0  0  0  0  0  0  0  0
    6.3961   -1.2605    0.0000 C   0  0  0  0  0  0  0  0  0  0  0  0
    3.7702    0.2742    0.0000 C   0  0  0  0  0  0  0  0  0  0  0  0
    5.5301   -1.7605    0.0000 C   0  0  0  0  0  0  0  0  0  0  0  0
    5.5141    1.2810    0.0000 C   0  0  0  0  0  0  0  0  0  0  0  0
    7.3142    1.2880    0.0000 C   0  0  0  0  0  0  0  0  0  0  0  0
    3.7702   -1.7951    0.0000 C   0  0  0  0  0  0  0  0  0  0  0  0
    6.4121    1.8088    0.0000 C   0  0  0  0  0  0  0  0  0  0  0  0
    2.8641   -0.2397    0.0000 C   0  0  0  0  0  0  0  0  0  0  0  0
    2.8641   -1.2813    0.0000 C   0  0  0  0  0  0  0  0  0  0  0  0
    8.1663   -0.2636    0.0000 C   0  0  0  0  0  0  0  0  0  0  0  0
    3.7817    1.2741    0.0000 C   0  0  0  0  0  0  0  0  0  0  0  0
    6.9331   -1.5705    0.0000 H   0  0  0  0  0  0  0  0  0  0  0  0
    5.5301   -2.3805    0.0000 H   0  0  0  0  0  0  0  0  0  0  0  0
    4.9736    1.5848    0.0000 H   0  0  0  0  0  0  0  0  0  0  0  0
    3.7773   -2.4151    0.0000 H   0  0  0  0  0  0  0  0  0  0  0  0
    6.4097    2.4288    0.0000 H   0  0  0  0  0  0  0  0  0  0  0  0
    2.3284    0.0724    0.0000 H   0  0  0  0  0  0  0  0  0  0  0  0
    7.8502   -0.7969    0.0000 H   0  0  0  0  0  0  0  0  0  0  0  0
    8.6996   -0.5798    0.0000 H   0  0  0  0  0  0  0  0  0  0  0  0
    8.4825    0.2697    0.0000 H   0  0  0  0  0  0  0  0  0  0  0  0
    4.3222    1.5779    0.0000 H   0  0  0  0  0  0  0  0  0  0  0  0
    8.1845    2.4046    0.0000 H   0  0  0  0  0  0  0  0  0  0  0  0
    2.0024   -2.4046    0.0000 H   0  0  0  0  0  0  0  0  0  0  0  0
  1 13  1  0  0  0  0
  1 30  1  0  0  0  0
  2 17  1  0  0  0  0
  2 31  1  0  0  0  0
  3 19  2  0  0  0  0
  4  5  1  0  0  0  0
  4  6  2  0  0  0  0
  4 12  1  0  0  0  0
  5  7  1  0  0  0  0
  5 10  2  0  0  0  0
  6  8  1  0  0  0  0
  6  9  1  0  0  0  0
  7 11  1  0  0  0  0
  7 14  2  0  0  0  0
  8 13  2  0  0  0  0
  8 18  1  0  0  0  0
  9 11  2  0  0  0  0
  9 20  1  0  0  0  0
 10 16  1  0  0  0  0
 10 19  1  0  0  0  0
 11 21  1  0  0  0  0
 12 15  2  0  0  0  0
 12 22  1  0  0  0  0
 13 15  1  0  0  0  0
 14 17  1  0  0  0  0
 14 23  1  0  0  0  0
 15 24  1  0  0  0  0
 16 17  2  0  0  0  0
 16 25  1  0  0  0  0
 18 26  1  0  0  0  0
 18 27  1  0  0  0  0
 18 28  1  0  0  0  0
 19 29  1  0  0  0  0
M  END
>  <PUBCHEM_COMPOUND_CID>
101191858

>  <PUBCHEM_COMPOUND_CANONICALIZED>
1

>  <PUBCHEM_CACTVS_COMPLEXITY>
343

>  <PUBCHEM_CACTVS_HBOND_ACCEPTOR>
3

>  <PUBCHEM_CACTVS_HBOND_DONOR>
2

>  <PUBCHEM_CACTVS_ROTATABLE_BOND>
1

>  <PUBCHEM_CACTVS_SUBSKEYS>
AAADccB4MAAAAAAAAAAAAAAAAAAAAAAAAAAwYMAAAAAAAADBVAAAGgAACAAADASgmAIyBsAAAgCIAihSgAACAAAkIAAIiAEGCMgIJjKCFRKAcQAkwBEImYeKyPCO4AADAAAYAADAAAYAADAAAAAAAAAAAA==

>  <PUBCHEM_IUPAC_OPENEYE_NAME>
2,7-dihydroxy-8-methyl-phenanthrene-4-carbaldehyde

>  <PUBCHEM_IUPAC_CAS_NAME>
2,7-dihydroxy-8-methyl-4-phenanthrenecarboxaldehyde

>  <PUBCHEM_IUPAC_NAME>
2,7-dihydroxy-8-methylphenanthrene-4-carbaldehyde

>  <PUBCHEM_IUPAC_SYSTEMATIC_NAME>
8-methyl-2,7-bis(oxidanyl)phenanthrene-4-carbaldehyde

>  <PUBCHEM_IUPAC_TRADITIONAL_NAME>
2,7-dihydroxy-8-methyl-phenanthrene-4-carbaldehyde

>  <PUBCHEM_IUPAC_INCHI>
InChI=1S/C16H12O3/c1-9-13-3-2-10-6-12(18)7-11(8-17)16(10)14(13)4-5-15(9)19/h2-8,18-19H,1H3

>  <PUBCHEM_IUPAC_INCHIKEY>
VTKYCHCADSWEBT-UHFFFAOYSA-N

>  <PUBCHEM_XLOGP3_AA>
3.5

>  <PUBCHEM_EXACT_MASS>
252.079

>  <PUBCHEM_MOLECULAR_FORMULA>
C16H12O3

>  <PUBCHEM_MOLECULAR_WEIGHT>
252.269

>  <PUBCHEM_OPENEYE_CAN_SMILES>
CC1=C(C=CC2=C1C=CC3=CC(=CC(=C32)C=O)O)O

>  <PUBCHEM_OPENEYE_ISO_SMILES>
CC1=C(C=CC2=C1C=CC3=CC(=CC(=C32)C=O)O)O

>  <PUBCHEM_CACTVS_TPSA>
57.5

>  <PUBCHEM_MONOISOTOPIC_WEIGHT>
252.079

>  <PUBCHEM_TOTAL_CHARGE>
0

>  <PUBCHEM_HEAVY_ATOM_COUNT>
19

>  <PUBCHEM_ATOM_DEF_STEREO_COUNT>
0

>  <PUBCHEM_ATOM_UDEF_STEREO_COUNT>
0

>  <PUBCHEM_BOND_DEF_STEREO_COUNT>
0

>  <PUBCHEM_BOND_UDEF_STEREO_COUNT>
0

>  <PUBCHEM_ISOTOPIC_ATOM_COUNT>
0

>  <PUBCHEM_COMPONENT_COUNT>
1

>  <PUBCHEM_CACTVS_TAUTO_COUNT>
121

>  <PUBCHEM_COORDINATE_TYPE>
1
5
255

>  <PUBCHEM_BONDANNOTATIONS>
10  16  8
12  15  8
13  15  8
14  17  8
16  17  8
4  12  8
4  5  8
4  6  8
5  10  8
5  7  8
6  8  8
6  9  8
7  11  8
7  14  8
8  13  8
9  11  8

$$$$
