101148957
 OpenBabel06101807152D

 39 39  0  0  1  0  0  0  0  0999 V2000
    3.8660   -3.5950    0.0000 O   0  0  0  0  0  0  0  0  0  0  0  0
    6.4641    3.9050    0.0000 O   0  0  0  0  0  0  0  0  0  0  0  0
    3.0000   -1.0950    0.0000 C   0  0  0  0  0  0  0  0  0  0  0  0
    3.0000   -2.0950    0.0000 C   0  0  0  0  0  0  0  0  0  0  0  0
    3.8660   -2.5950    0.0000 C   0  0  1  0  0  0  0  0  0  0  0  0
    3.8660   -0.5950    0.0000 C   0  0  0  0  0  0  0  0  0  0  0  0
    4.7320   -2.0950    0.0000 C   0  0  0  0  0  0  0  0  0  0  0  0
    4.7320   -1.0950    0.0000 C   0  0  0  0  0  0  0  0  0  0  0  0
    2.0000   -1.0950    0.0000 C   0  0  0  0  0  0  0  0  0  0  0  0
    2.5000   -0.2290    0.0000 C   0  0  0  0  0  0  0  0  0  0  0  0
    3.8660    0.4050    0.0000 C   0  0  0  0  0  0  0  0  0  0  0  0
    5.5981   -0.5950    0.0000 C   0  0  0  0  0  0  0  0  0  0  0  0
    4.7320    0.9050    0.0000 C   0  0  0  0  0  0  0  0  0  0  0  0
    4.7320    1.9050    0.0000 C   0  0  0  0  0  0  0  0  0  0  0  0
    3.8660    2.4050    0.0000 C   0  0  0  0  0  0  0  0  0  0  0  0
    5.5981    2.4050    0.0000 C   0  0  0  0  0  0  0  0  0  0  0  0
    5.5981    3.4050    0.0000 C   0  0  0  0  0  0  0  0  0  0  0  0
    2.3894   -1.9873    0.0000 H   0  0  0  0  0  0  0  0  0  0  0  0
    2.7880   -2.6776    0.0000 H   0  0  0  0  0  0  0  0  0  0  0  0
    4.4030   -2.9050    0.0000 H   0  0  0  0  0  0  0  0  0  0  0  0
    4.9441   -2.6776    0.0000 H   0  0  0  0  0  0  0  0  0  0  0  0
    5.3426   -1.9873    0.0000 H   0  0  0  0  0  0  0  0  0  0  0  0
    3.0369    0.0810    0.0000 H   0  0  0  0  0  0  0  0  0  0  0  0
    2.1900    0.3080    0.0000 H   0  0  0  0  0  0  0  0  0  0  0  0
    1.9631   -0.5390    0.0000 H   0  0  0  0  0  0  0  0  0  0  0  0
    2.0000   -0.4750    0.0000 H   0  0  0  0  0  0  0  0  0  0  0  0
    1.3800   -1.0950    0.0000 H   0  0  0  0  0  0  0  0  0  0  0  0
    2.0000   -1.7150    0.0000 H   0  0  0  0  0  0  0  0  0  0  0  0
    3.3291    0.7150    0.0000 H   0  0  0  0  0  0  0  0  0  0  0  0
    5.9081   -1.1319    0.0000 H   0  0  0  0  0  0  0  0  0  0  0  0
    6.1350   -0.2850    0.0000 H   0  0  0  0  0  0  0  0  0  0  0  0
    5.2881   -0.0581    0.0000 H   0  0  0  0  0  0  0  0  0  0  0  0
    4.4030   -3.9050    0.0000 H   0  0  0  0  0  0  0  0  0  0  0  0
    5.2690    0.5950    0.0000 H   0  0  0  0  0  0  0  0  0  0  0  0
    4.1760    2.9419    0.0000 H   0  0  0  0  0  0  0  0  0  0  0  0
    3.3291    2.7150    0.0000 H   0  0  0  0  0  0  0  0  0  0  0  0
    3.5560    1.8681    0.0000 H   0  0  0  0  0  0  0  0  0  0  0  0
    6.1350    2.0950    0.0000 H   0  0  0  0  0  0  0  0  0  0  0  0
    5.0611    3.7150    0.0000 H   0  0  0  0  0  0  0  0  0  0  0  0
  1 33  1  0  0  0  0
  2 17  2  0  0  0  0
  3  4  1  0  0  0  0
  3  6  1  0  0  0  0
  3  9  1  0  0  0  0
  3 10  1  0  0  0  0
  4  5  1  0  0  0  0
  4 18  1  0  0  0  0
  4 19  1  0  0  0  0
  5  1  1  0  0  0  0
  5  7  1  0  0  0  0
  5 20  1  6  0  0  0
  6  8  2  0  0  0  0
  6 11  1  0  0  0  0
  7  8  1  0  0  0  0
  7 21  1  0  0  0  0
  7 22  1  0  0  0  0
  8 12  1  0  0  0  0
  9 26  1  0  0  0  0
  9 27  1  0  0  0  0
  9 28  1  0  0  0  0
 10 23  1  0  0  0  0
 10 24  1  0  0  0  0
 10 25  1  0  0  0  0
 11 13  2  0  0  0  0
 11 29  1  0  0  0  0
 12 30  1  0  0  0  0
 12 31  1  0  0  0  0
 12 32  1  0  0  0  0
 13 14  1  0  0  0  0
 13 34  1  0  0  0  0
 14 15  1  0  0  0  0
 14 16  2  0  0  0  0
 15 35  1  0  0  0  0
 15 36  1  0  0  0  0
 15 37  1  0  0  0  0
 16 17  1  0  0  0  0
 16 38  1  0  0  0  0
 17 39  1  0  0  0  0
M  END
>  <PUBCHEM_COMPOUND_CID>
101148957

>  <PUBCHEM_COMPOUND_CANONICALIZED>
1

>  <PUBCHEM_CACTVS_COMPLEXITY>
384

>  <PUBCHEM_CACTVS_HBOND_ACCEPTOR>
2

>  <PUBCHEM_CACTVS_HBOND_DONOR>
1

>  <PUBCHEM_CACTVS_ROTATABLE_BOND>
3

>  <PUBCHEM_CACTVS_SUBSKEYS>
AAADceBwMAAAAAAAAAAAAAAAAAAAAAAAAAAgAAAAAAAAAAAAAAAAGgAACAAADhSggAICAAAAAgCIAihSgAAAAAAgAAAICAAAAEgIEAIAAQAAQAAEwAAIgQOAgMAPAAAAAAAAAAAAAAAAAAAAAAAAAAAAAA==

>  <PUBCHEM_IUPAC_OPENEYE_NAME>
(2E,4E)-5-[(4R)-4-hydroxy-2,6,6-trimethyl-cyclohexen-1-yl]-3-methyl-penta-2,4-dienal

>  <PUBCHEM_IUPAC_CAS_NAME>
(2E,4E)-5-[(4R)-4-hydroxy-2,6,6-trimethyl-1-cyclohexenyl]-3-methylpenta-2,4-dienal

>  <PUBCHEM_IUPAC_NAME>
(2E,4E)-5-[(4R)-4-hydroxy-2,6,6-trimethylcyclohexen-1-yl]-3-methylpenta-2,4-dienal

>  <PUBCHEM_IUPAC_SYSTEMATIC_NAME>
(2E,4E)-3-methyl-5-[(4R)-2,6,6-trimethyl-4-oxidanyl-cyclohexen-1-yl]penta-2,4-dienal

>  <PUBCHEM_IUPAC_TRADITIONAL_NAME>
(2E,4E)-5-[(4R)-4-hydroxy-2,6,6-trimethyl-cyclohexen-1-yl]-3-methyl-penta-2,4-dienal

>  <PUBCHEM_IUPAC_INCHI>
InChI=1S/C15H22O2/c1-11(7-8-16)5-6-14-12(2)9-13(17)10-15(14,3)4/h5-8,13,17H,9-10H2,1-4H3/b6-5+,11-7+/t13-/m1/s1

>  <PUBCHEM_IUPAC_INCHIKEY>
YMYPOEDCYSNBAO-NECKEDLISA-N

>  <PUBCHEM_XLOGP3_AA>
2.6

>  <PUBCHEM_EXACT_MASS>
234.162

>  <PUBCHEM_MOLECULAR_FORMULA>
C15H22O2

>  <PUBCHEM_MOLECULAR_WEIGHT>
234.339

>  <PUBCHEM_OPENEYE_CAN_SMILES>
CC1=C(C(CC(C1)O)(C)C)C=CC(=CC=O)C

>  <PUBCHEM_OPENEYE_ISO_SMILES>
CC1=C(C(C[C@@H](C1)O)(C)C)/C=C/C(=C/C=O)/C

>  <PUBCHEM_CACTVS_TPSA>
37.3

>  <PUBCHEM_MONOISOTOPIC_WEIGHT>
234.162

>  <PUBCHEM_TOTAL_CHARGE>
0

>  <PUBCHEM_HEAVY_ATOM_COUNT>
17

>  <PUBCHEM_ATOM_DEF_STEREO_COUNT>
1

>  <PUBCHEM_ATOM_UDEF_STEREO_COUNT>
0

>  <PUBCHEM_BOND_DEF_STEREO_COUNT>
2

>  <PUBCHEM_BOND_UDEF_STEREO_COUNT>
0

>  <PUBCHEM_ISOTOPIC_ATOM_COUNT>
0

>  <PUBCHEM_COMPONENT_COUNT>
1

>  <PUBCHEM_CACTVS_TAUTO_COUNT>
11

>  <PUBCHEM_COORDINATE_TYPE>
1
5
255

>  <PUBCHEM_BONDANNOTATIONS>
5  1  5

$$$$
