101165271
 OpenBabel06101807152D

113119  0  0  1  0  0  0  0  0999 V2000
   12.3923   -2.7687    0.0000 O   0  0  0  0  0  0  0  0  0  0  0  0
   10.6603   -2.7687    0.0000 O   0  0  0  0  0  0  0  0  0  0  0  0
   13.2583   -0.2687    0.0000 O   0  0  0  0  0  0  0  0  0  0  0  0
   14.1244   -1.7687    0.0000 O   0  0  0  0  0  0  0  0  0  0  0  0
   10.6603   -1.7687    0.0000 O   0  0  0  0  0  0  0  0  0  0  0  0
   10.6603    0.2313    0.0000 O   0  0  0  0  0  0  0  0  0  0  0  0
   12.3923   -4.7687    0.0000 O   0  0  0  0  0  0  0  0  0  0  0  0
   10.6603   -5.7687    0.0000 O   0  0  0  0  0  0  0  0  0  0  0  0
    8.9282   -4.7687    0.0000 O   0  0  0  0  0  0  0  0  0  0  0  0
   14.0853    3.2527    0.0000 O   0  0  0  0  0  0  0  0  0  0  0  0
    8.0622   -3.2687    0.0000 O   0  0  0  0  0  0  0  0  0  0  0  0
   13.2583    1.7313    0.0000 O   0  0  0  0  0  0  0  0  0  0  0  0
   14.9686    1.7628    0.0000 O   0  0  0  0  0  0  0  0  0  0  0  0
   16.6658    4.7826    0.0000 O   0  0  0  0  0  0  0  0  0  0  0  0
   14.9223    5.7625    0.0000 O   0  0  0  0  0  0  0  0  0  0  0  0
   16.6890    2.7827    0.0000 O   0  0  0  0  0  0  0  0  0  0  0  0
   16.7224   -1.2687    0.0000 O   0  3  0  0  0  0  0  0  0  0  0  0
   13.1904    5.7425    0.0000 O   0  0  0  0  0  0  0  0  0  0  0  0
    7.1962   -1.7687    0.0000 O   0  0  0  0  0  0  0  0  0  0  0  0
   18.5084    1.7764    0.0000 O   0  0  0  0  0  0  0  0  0  0  0  0
   17.5885   -4.7687    0.0000 O   0  0  0  0  0  0  0  0  0  0  0  0
   15.8564   -5.7687    0.0000 O   0  0  0  0  0  0  0  0  0  0  0  0
    2.0000   -2.7687    0.0000 O   0  0  0  0  0  0  0  0  0  0  0  0
    2.0000   -4.7687    0.0000 O   0  0  0  0  0  0  0  0  0  0  0  0
   12.3923   -1.7687    0.0000 C   0  0  2  0  0  0  0  0  0  0  0  0
   11.5263   -1.2687    0.0000 C   0  0  2  0  0  0  0  0  0  0  0  0
   11.5263   -3.2687    0.0000 C   0  0  2  0  0  0  0  0  0  0  0  0
   11.5263   -0.2687    0.0000 C   0  0  1  0  0  0  0  0  0  0  0  0
   11.5263   -4.2687    0.0000 C   0  0  1  0  0  0  0  0  0  0  0  0
   13.2583   -1.2687    0.0000 C   0  0  1  0  0  0  0  0  0  0  0  0
   10.6603   -4.7687    0.0000 C   0  0  2  0  0  0  0  0  0  0  0  0
   12.3923    0.2313    0.0000 C   0  0  1  0  0  0  0  0  0  0  0  0
    9.7942   -4.2687    0.0000 C   0  0  1  0  0  0  0  0  0  0  0  0
    9.7942   -3.2687    0.0000 C   0  0  1  0  0  0  0  0  0  0  0  0
   12.3923    1.2313    0.0000 C   0  0  0  0  0  0  0  0  0  0  0  0
    8.9282   -2.7687    0.0000 C   0  0  0  0  0  0  0  0  0  0  0  0
   15.8057    4.2726    0.0000 C   0  0  1  0  0  0  0  0  0  0  0  0
   14.9339    4.7626    0.0000 C   0  0  1  0  0  0  0  0  0  0  0  0
   15.8172    3.2727    0.0000 C   0  0  2  0  0  0  0  0  0  0  0  0
   14.0737    4.2526    0.0000 C   0  0  1  0  0  0  0  0  0  0  0  0
   14.9570    2.7627    0.0000 C   0  0  1  0  0  0  0  0  0  0  0  0
   14.9904   -1.2687    0.0000 C   0  0  0  0  0  0  0  0  0  0  0  0
   13.2020    4.7425    0.0000 C   0  0  0  0  0  0  0  0  0  0  0  0
   14.9904   -0.2687    0.0000 C   0  0  0  0  0  0  0  0  0  0  0  0
   15.8564   -1.7687    0.0000 C   0  0  0  0  0  0  0  0  0  0  0  0
   15.8564    0.2313    0.0000 C   0  0  0  0  0  0  0  0  0  0  0  0
   15.8403    1.2728    0.0000 C   0  0  0  0  0  0  0  0  0  0  0  0
   16.7224   -0.2687    0.0000 C   0  0  0  0  0  0  0  0  0  0  0  0
    7.1962   -2.7687    0.0000 C   0  0  0  0  0  0  0  0  0  0  0  0
   15.8564   -2.7687    0.0000 C   0  0  0  0  0  0  0  0  0  0  0  0
   16.7384    1.8006    0.0000 C   0  0  0  0  0  0  0  0  0  0  0  0
   17.6324    0.2382    0.0000 C   0  0  0  0  0  0  0  0  0  0  0  0
   17.6405    1.2798    0.0000 C   0  0  0  0  0  0  0  0  0  0  0  0
   16.7224   -3.2687    0.0000 C   0  0  0  0  0  0  0  0  0  0  0  0
   14.9904   -3.2687    0.0000 C   0  0  0  0  0  0  0  0  0  0  0  0
    6.3301   -3.2687    0.0000 C   0  0  0  0  0  0  0  0  0  0  0  0
   16.7224   -4.2687    0.0000 C   0  0  0  0  0  0  0  0  0  0  0  0
   14.9904   -4.2687    0.0000 C   0  0  0  0  0  0  0  0  0  0  0  0
   15.8564   -4.7687    0.0000 C   0  0  0  0  0  0  0  0  0  0  0  0
    5.4641   -2.7687    0.0000 C   0  0  0  0  0  0  0  0  0  0  0  0
    4.5981   -3.2687    0.0000 C   0  0  0  0  0  0  0  0  0  0  0  0
    3.7320   -2.7687    0.0000 C   0  0  0  0  0  0  0  0  0  0  0  0
    4.5981   -4.2687    0.0000 C   0  0  0  0  0  0  0  0  0  0  0  0
    2.8660   -3.2687    0.0000 C   0  0  0  0  0  0  0  0  0  0  0  0
    3.7320   -4.7687    0.0000 C   0  0  0  0  0  0  0  0  0  0  0  0
    2.8660   -4.2687    0.0000 C   0  0  0  0  0  0  0  0  0  0  0  0
   12.9292   -2.0787    0.0000 H   0  0  0  0  0  0  0  0  0  0  0  0
   10.9893   -0.9587    0.0000 H   0  0  0  0  0  0  0  0  0  0  0  0
   11.5263   -2.6487    0.0000 H   0  0  0  0  0  0  0  0  0  0  0  0
   11.5263    0.3513    0.0000 H   0  0  0  0  0  0  0  0  0  0  0  0
   11.5263   -4.8887    0.0000 H   0  0  0  0  0  0  0  0  0  0  0  0
   13.7953   -0.9587    0.0000 H   0  0  0  0  0  0  0  0  0  0  0  0
   10.1233   -5.0787    0.0000 H   0  0  0  0  0  0  0  0  0  0  0  0
   12.9292    0.5413    0.0000 H   0  0  0  0  0  0  0  0  0  0  0  0
    9.2573   -3.9587    0.0000 H   0  0  0  0  0  0  0  0  0  0  0  0
    9.7942   -2.6487    0.0000 H   0  0  0  0  0  0  0  0  0  0  0  0
   12.1803    1.8139    0.0000 H   0  0  0  0  0  0  0  0  0  0  0  0
   11.7817    1.1236    0.0000 H   0  0  0  0  0  0  0  0  0  0  0  0
    9.3267   -2.2937    0.0000 H   0  0  0  0  0  0  0  0  0  0  0  0
    8.5297   -2.2937    0.0000 H   0  0  0  0  0  0  0  0  0  0  0  0
   10.1233   -1.4587    0.0000 H   0  0  0  0  0  0  0  0  0  0  0  0
   10.6603    0.8513    0.0000 H   0  0  0  0  0  0  0  0  0  0  0  0
   12.3923   -5.3887    0.0000 H   0  0  0  0  0  0  0  0  0  0  0  0
   10.1233   -6.0787    0.0000 H   0  0  0  0  0  0  0  0  0  0  0  0
   15.7985    4.8926    0.0000 H   0  0  0  0  0  0  0  0  0  0  0  0
   14.3934    5.0663    0.0000 H   0  0  0  0  0  0  0  0  0  0  0  0
    8.9282   -5.3887    0.0000 H   0  0  0  0  0  0  0  0  0  0  0  0
   15.8244    2.6527    0.0000 H   0  0  0  0  0  0  0  0  0  0  0  0
   13.5404    3.9364    0.0000 H   0  0  0  0  0  0  0  0  0  0  0  0
   14.4237    2.4465    0.0000 H   0  0  0  0  0  0  0  0  0  0  0  0
   13.2583    2.3513    0.0000 H   0  0  0  0  0  0  0  0  0  0  0  0
   12.5902    4.8431    0.0000 H   0  0  0  0  0  0  0  0  0  0  0  0
   12.9967    4.1575    0.0000 H   0  0  0  0  0  0  0  0  0  0  0  0
   14.4534    0.0413    0.0000 H   0  0  0  0  0  0  0  0  0  0  0  0
   16.6587    5.4026    0.0000 H   0  0  0  0  0  0  0  0  0  0  0  0
   15.4557    6.0787    0.0000 H   0  0  0  0  0  0  0  0  0  0  0  0
   17.2223    3.0989    0.0000 H   0  0  0  0  0  0  0  0  0  0  0  0
   16.7360    2.4206    0.0000 H   0  0  0  0  0  0  0  0  0  0  0  0
   18.1657   -0.0780    0.0000 H   0  0  0  0  0  0  0  0  0  0  0  0
   12.6499    6.0462    0.0000 H   0  0  0  0  0  0  0  0  0  0  0  0
   17.2594   -2.9587    0.0000 H   0  0  0  0  0  0  0  0  0  0  0  0
   14.4534   -2.9587    0.0000 H   0  0  0  0  0  0  0  0  0  0  0  0
    6.3301   -3.8887    0.0000 H   0  0  0  0  0  0  0  0  0  0  0  0
   14.4534   -4.5787    0.0000 H   0  0  0  0  0  0  0  0  0  0  0  0
   19.0441    1.4644    0.0000 H   0  0  0  0  0  0  0  0  0  0  0  0
    5.4641   -2.1487    0.0000 H   0  0  0  0  0  0  0  0  0  0  0  0
   18.1254   -4.4587    0.0000 H   0  0  0  0  0  0  0  0  0  0  0  0
   16.3933   -6.0787    0.0000 H   0  0  0  0  0  0  0  0  0  0  0  0
    3.7320   -2.1487    0.0000 H   0  0  0  0  0  0  0  0  0  0  0  0
    5.1350   -4.5787    0.0000 H   0  0  0  0  0  0  0  0  0  0  0  0
    3.7320   -5.3887    0.0000 H   0  0  0  0  0  0  0  0  0  0  0  0
    2.0000   -2.1487    0.0000 H   0  0  0  0  0  0  0  0  0  0  0  0
    2.0000   -5.3887    0.0000 H   0  0  0  0  0  0  0  0  0  0  0  0
  2 27  1  0  0  0  0
  2 34  1  0  0  0  0
  3 30  1  0  0  0  0
  3 32  1  0  0  0  0
  4 42  1  0  0  0  0
  5 81  1  0  0  0  0
  6 82  1  0  0  0  0
  7 83  1  0  0  0  0
  8 84  1  0  0  0  0
  9 87  1  0  0  0  0
 10 40  1  0  0  0  0
 10 41  1  0  0  0  0
 11 36  1  0  0  0  0
 11 49  1  0  0  0  0
 12 35  1  0  0  0  0
 12 91  1  0  0  0  0
 13 47  1  0  0  0  0
 14 95  1  0  0  0  0
 15 96  1  0  0  0  0
 16 97  1  0  0  0  0
 17 45  1  0  0  0  0
 17 48  2  0  0  0  0
 18 43  1  0  0  0  0
 18100  1  0  0  0  0
 19 49  2  0  0  0  0
 20 53  1  0  0  0  0
 20105  1  0  0  0  0
 21 57  1  0  0  0  0
 21107  1  0  0  0  0
 22 59  1  0  0  0  0
 22108  1  0  0  0  0
 23 64  1  0  0  0  0
 23112  1  0  0  0  0
 24 66  1  0  0  0  0
 24113  1  0  0  0  0
 25  1  1  0  0  0  0
 25 26  1  1  0  0  0
 25 67  1  0  0  0  0
 26  5  1  0  0  0  0
 26 28  1  1  0  0  0
 26 68  1  0  0  0  0
 27  1  1  0  0  0  0
 27 29  1  6  0  0  0
 27 69  1  0  0  0  0
 28  6  1  0  0  0  0
 28 32  1  6  0  0  0
 28 70  1  0  0  0  0
 29  7  1  0  0  0  0
 29 31  1  6  0  0  0
 29 71  1  0  0  0  0
 30  4  1  0  0  0  0
 30 25  1  6  0  0  0
 30 72  1  0  0  0  0
 31  8  1  0  0  0  0
 31 33  1  1  0  0  0
 31 73  1  0  0  0  0
 32 35  1  0  0  0  0
 32 74  1  6  0  0  0
 33  9  1  0  0  0  0
 33 34  1  6  0  0  0
 33 75  1  0  0  0  0
 34 36  1  0  0  0  0
 34 76  1  6  0  0  0
 35 77  1  0  0  0  0
 35 78  1  0  0  0  0
 36 79  1  0  0  0  0
 36 80  1  0  0  0  0
 37 14  1  0  0  0  0
 37 38  1  6  0  0  0
 37 85  1  0  0  0  0
 38 15  1  0  0  0  0
 38 40  1  1  0  0  0
 38 86  1  0  0  0  0
 39 16  1  0  0  0  0
 39 37  1  6  0  0  0
 39 88  1  0  0  0  0
 40 43  1  0  0  0  0
 40 89  1  1  0  0  0
 41 13  1  0  0  0  0
 41 39  1  1  0  0  0
 41 90  1  0  0  0  0
 42 44  1  0  0  0  0
 42 45  2  0  0  0  0
 43 92  1  0  0  0  0
 43 93  1  0  0  0  0
 44 46  2  0  0  0  0
 44 94  1  0  0  0  0
 45 50  1  0  0  0  0
 46 47  1  0  0  0  0
 46 48  1  0  0  0  0
 47 51  2  0  0  0  0
 48 52  1  0  0  0  0
 49 56  1  0  0  0  0
 50 54  2  0  0  0  0
 50 55  1  0  0  0  0
 51 53  1  0  0  0  0
 51 98  1  0  0  0  0
 52 53  2  0  0  0  0
 52 99  1  0  0  0  0
 54 57  1  0  0  0  0
 54101  1  0  0  0  0
 55 58  2  0  0  0  0
 55102  1  0  0  0  0
 56 60  2  3  0  0  0
 56103  1  0  0  0  0
 57 59  2  0  0  0  0
 58 59  1  0  0  0  0
 58104  1  0  0  0  0
 60 61  1  0  0  0  0
 60106  1  0  0  0  0
 61 62  2  0  0  0  0
 61 63  1  0  0  0  0
 62 64  1  0  0  0  0
 62109  1  0  0  0  0
 63 65  2  0  0  0  0
 63110  1  0  0  0  0
 64 66  2  0  0  0  0
 65 66  1  0  0  0  0
 65111  1  0  0  0  0
M  CHG  1  17   1
M  END
>  <PUBCHEM_COMPOUND_CID>
101165271

>  <PUBCHEM_COMPOUND_CANONICALIZED>
1

>  <PUBCHEM_CACTVS_COMPLEXITY>
1580

>  <PUBCHEM_CACTVS_HBOND_ACCEPTOR>
23

>  <PUBCHEM_CACTVS_HBOND_DONOR>
15

>  <PUBCHEM_CACTVS_ROTATABLE_BOND>
14

>  <PUBCHEM_CACTVS_SUBSKEYS>
AAADcfB8PgAAAAAAAAAAAAAAAAAAAAAAAAA0aNEiAAAAAACR9AAAGgAACAAADBSwmAMwDsAABkCIAqDSCAICCAAkIAAIiAFGiMgdNzaGNR6ieWOl4BUPuYfK7PzOIAABCAAIQABAAAIQABCAAAAAAAAAAA==

>  <PUBCHEM_IUPAC_OPENEYE_NAME>
[(2R,3S,4S,5R,6S)-6-[(2S,3R,4S,5S,6R)-2-[2-(3,4-dihydroxyphenyl)-7-hydroxy-5-[(2S,3R,4S,5S,6R)-3,4,5-trihydroxy-6-(hydroxymethyl)tetrahydropyran-2-yl]oxy-chromenylium-3-yl]oxy-4,5-dihydroxy-6-(hydroxymethyl)tetrahydropyran-3-yl]oxy-3,4,5-trihydroxy-tetrahydropyran-2-yl]methyl 3-(3,4-dihydroxyphenyl)prop-2-enoate

>  <PUBCHEM_IUPAC_CAS_NAME>
3-(3,4-dihydroxyphenyl)-2-propenoic acid [(2R,3S,4S,5R,6S)-6-[[(2S,3R,4S,5S,6R)-2-[[2-(3,4-dihydroxyphenyl)-7-hydroxy-5-[[(2S,3R,4S,5S,6R)-3,4,5-trihydroxy-6-(hydroxymethyl)-2-oxanyl]oxy]-1-benzopyrylium-3-yl]oxy]-4,5-dihydroxy-6-(hydroxymethyl)-3-oxanyl]oxy]-3,4,5-trihydroxy-2-oxanyl]methyl ester

>  <PUBCHEM_IUPAC_NAME>
[(2R,3S,4S,5R,6S)-6-[(2S,3R,4S,5S,6R)-2-[2-(3,4-dihydroxyphenyl)-7-hydroxy-5-[(2S,3R,4S,5S,6R)-3,4,5-trihydroxy-6-(hydroxymethyl)oxan-2-yl]oxychromenylium-3-yl]oxy-4,5-dihydroxy-6-(hydroxymethyl)oxan-3-yl]oxy-3,4,5-trihydroxyoxan-2-yl]methyl 3-(3,4-dihydroxyphenyl)prop-2-enoate

>  <PUBCHEM_IUPAC_SYSTEMATIC_NAME>
[(2R,3S,4S,5R,6S)-6-[(2S,3R,4S,5S,6R)-2-[2-[3,4-bis(oxidanyl)phenyl]-5-[(2S,3R,4S,5S,6R)-6-(hydroxymethyl)-3,4,5-tris(oxidanyl)oxan-2-yl]oxy-7-oxidanyl-chromenylium-3-yl]oxy-6-(hydroxymethyl)-4,5-bis(oxidanyl)oxan-3-yl]oxy-3,4,5-tris(oxidanyl)oxan-2-yl]methyl 3-[3,4-bis(oxidanyl)phenyl]prop-2-enoate

>  <PUBCHEM_IUPAC_TRADITIONAL_NAME>
3-(3,4-dihydroxyphenyl)acrylic acid [(2R,3S,4S,5R,6S)-6-[(2S,3R,4S,5S,6R)-2-[[2-(3,4-dihydroxyphenyl)-7-hydroxy-5-[(2S,3R,4S,5S,6R)-3,4,5-trihydroxy-6-methylol-tetrahydropyran-2-yl]oxy-1-benzopyrylium-3-yl]oxy]-4,5-dihydroxy-6-methylol-tetrahydropyran-3-yl]oxy-3,4,5-trihydroxy-tetrahydropyran-2-yl]methyl ester

>  <PUBCHEM_IUPAC_INCHI>
InChI=1S/C42H46O24/c43-12-26-30(51)33(54)36(57)40(63-26)61-24-10-17(45)9-23-18(24)11-25(38(60-23)16-3-5-20(47)22(49)8-16)62-42-39(35(56)31(52)27(13-44)64-42)66-41-37(58)34(55)32(53)28(65-41)14-59-29(50)6-2-15-1-4-19(46)21(48)7-15/h1-11,26-28,30-37,39-44,51-58H,12-14H2,(H4-,45,46,47,48,49,50)/p+1/t26-,27-,28-,30-,31-,32-,33+,34+,35+,36-,37-,39-,40-,41+,42-/m1/s1

>  <PUBCHEM_IUPAC_INCHIKEY>
YZJPIJNLTTVHHD-GXKMNUNHSA-O

>  <PUBCHEM_EXACT_MASS>
935.246

>  <PUBCHEM_MOLECULAR_FORMULA>
C42H47O24+

>  <PUBCHEM_MOLECULAR_WEIGHT>
935.814

>  <PUBCHEM_OPENEYE_CAN_SMILES>
C1=CC(=C(C=C1C=CC(=O)OCC2C(C(C(C(O2)OC3C(C(C(OC3OC4=C([O+]=C5C=C(C=C(C5=C4)OC6C(C(C(C(O6)CO)O)O)O)O)C7=CC(=C(C=C7)O)O)CO)O)O)O)O)O)O)O

>  <PUBCHEM_OPENEYE_ISO_SMILES>
C1=CC(=C(C=C1C=CC(=O)OC[C@@H]2[C@H]([C@@H]([C@H]([C@@H](O2)O[C@@H]3[C@H]([C@@H]([C@H](O[C@H]3OC4=C([O+]=C5C=C(C=C(C5=C4)O[C@H]6[C@@H]([C@H]([C@@H]([C@H](O6)CO)O)O)O)O)C7=CC(=C(C=C7)O)O)CO)O)O)O)O)O)O)O

>  <PUBCHEM_CACTVS_TPSA>
386

>  <PUBCHEM_MONOISOTOPIC_WEIGHT>
935.246

>  <PUBCHEM_TOTAL_CHARGE>
1

>  <PUBCHEM_HEAVY_ATOM_COUNT>
66

>  <PUBCHEM_ATOM_DEF_STEREO_COUNT>
15

>  <PUBCHEM_ATOM_UDEF_STEREO_COUNT>
0

>  <PUBCHEM_BOND_DEF_STEREO_COUNT>
0

>  <PUBCHEM_BOND_UDEF_STEREO_COUNT>
1

>  <PUBCHEM_ISOTOPIC_ATOM_COUNT>
0

>  <PUBCHEM_COMPONENT_COUNT>
1

>  <PUBCHEM_CACTVS_TAUTO_COUNT>
938

>  <PUBCHEM_COORDINATE_TYPE>
1
5
255

>  <PUBCHEM_BONDANNOTATIONS>
25  1  6
27  1  5
41  13  6
37  14  6
38  15  5
39  16  5
17  45  8
17  48  8
32  35  5
34  36  5
30  4  5
40  43  6
42  44  8
42  45  8
44  46  8
46  47  8
46  48  8
47  51  8
48  52  8
26  5  5
50  54  8
50  55  8
51  53  8
52  53  8
54  57  8
55  58  8
56  60  1
57  59  8
58  59  8
28  6  6
61  62  8
61  63  8
62  64  8
63  65  8
64  66  8
65  66  8
29  7  6
31  8  5
33  9  6

$$$$
