10111
 OpenBabel06101807152D

 12 11  0  0  0  0  0  0  0  0999 V2000
    4.2690    0.5950    0.0000 N   0  0  0  0  0  0  0  0  0  0  0  0
    2.5369    0.5950    0.0000 N   0  0  0  0  0  0  0  0  0  0  0  0
    3.4030   -0.9050    0.0000 N   0  0  0  0  0  0  0  0  0  0  0  0
    3.4030    0.0950    0.0000 C   0  0  0  0  0  0  0  0  0  0  0  0
    5.1350    0.0950    0.0000 C   0  0  0  0  0  0  0  0  0  0  0  0
    4.8250   -0.4419    0.0000 H   0  0  0  0  0  0  0  0  0  0  0  0
    5.6720   -0.2150    0.0000 H   0  0  0  0  0  0  0  0  0  0  0  0
    5.4450    0.6319    0.0000 H   0  0  0  0  0  0  0  0  0  0  0  0
    2.0000    0.2850    0.0000 H   0  0  0  0  0  0  0  0  0  0  0  0
    2.5369    1.2150    0.0000 H   0  0  0  0  0  0  0  0  0  0  0  0
    3.9399   -1.2150    0.0000 H   0  0  0  0  0  0  0  0  0  0  0  0
    2.8660   -1.2150    0.0000 H   0  0  0  0  0  0  0  0  0  0  0  0
  1  4  2  0  0  0  0
  1  5  1  0  0  0  0
  2  4  1  0  0  0  0
  2  9  1  0  0  0  0
  2 10  1  0  0  0  0
  3  4  1  0  0  0  0
  3 11  1  0  0  0  0
  3 12  1  0  0  0  0
  5  6  1  0  0  0  0
  5  7  1  0  0  0  0
  5  8  1  0  0  0  0
M  END
>  <PUBCHEM_COMPOUND_CID>
10111

>  <PUBCHEM_COMPOUND_CANONICALIZED>
1

>  <PUBCHEM_CACTVS_COMPLEXITY>
42.9

>  <PUBCHEM_CACTVS_HBOND_ACCEPTOR>
1

>  <PUBCHEM_CACTVS_HBOND_DONOR>
2

>  <PUBCHEM_CACTVS_ROTATABLE_BOND>
0

>  <PUBCHEM_CACTVS_SUBSKEYS>
AAADcYBDAAAAAAAAAAAAAAAAAAAAAAAAAAAAAAAAAAAAAAAAAAAAFAAQAAAAAAAAAAQDAAJAAAAgAAAAJAAAAAEAAAAAAAAAAAAAAAAAAAAAAAAAAAAAAAAAAAAAAAAAAAAAAAAAAAAAAAAAAAAAAAAAAA==

>  <PUBCHEM_IUPAC_OPENEYE_NAME>
2-methylguanidine

>  <PUBCHEM_IUPAC_CAS_NAME>
2-methylguanidine

>  <PUBCHEM_IUPAC_NAME>
2-methylguanidine

>  <PUBCHEM_IUPAC_SYSTEMATIC_NAME>
2-methylguanidine

>  <PUBCHEM_IUPAC_TRADITIONAL_NAME>
2-methylguanidine

>  <PUBCHEM_IUPAC_INCHI>
InChI=1S/C2H7N3/c1-5-2(3)4/h1H3,(H4,3,4,5)

>  <PUBCHEM_IUPAC_INCHIKEY>
CHJJGSNFBQVOTG-UHFFFAOYSA-N

>  <PUBCHEM_XLOGP3_AA>
-1.3

>  <PUBCHEM_EXACT_MASS>
73.064

>  <PUBCHEM_MOLECULAR_FORMULA>
C2H7N3

>  <PUBCHEM_MOLECULAR_WEIGHT>
73.099

>  <PUBCHEM_OPENEYE_CAN_SMILES>
CN=C(N)N

>  <PUBCHEM_OPENEYE_ISO_SMILES>
CN=C(N)N

>  <PUBCHEM_CACTVS_TPSA>
64.4

>  <PUBCHEM_MONOISOTOPIC_WEIGHT>
73.064

>  <PUBCHEM_TOTAL_CHARGE>
0

>  <PUBCHEM_HEAVY_ATOM_COUNT>
5

>  <PUBCHEM_ATOM_DEF_STEREO_COUNT>
0

>  <PUBCHEM_ATOM_UDEF_STEREO_COUNT>
0

>  <PUBCHEM_BOND_DEF_STEREO_COUNT>
0

>  <PUBCHEM_BOND_UDEF_STEREO_COUNT>
0

>  <PUBCHEM_ISOTOPIC_ATOM_COUNT>
0

>  <PUBCHEM_COMPONENT_COUNT>
1

>  <PUBCHEM_CACTVS_TAUTO_COUNT>
2

>  <PUBCHEM_COORDINATE_TYPE>
1
5
255

$$$$
