101193830
 OpenBabel06101807152D

 48 51  0  0  0  0  0  0  0  0999 V2000
    6.1558   -2.0605    0.0000 O   0  0  0  0  0  0  0  0  0  0  0  0
    9.8009    0.0200    0.0000 O   0  0  0  0  0  0  0  0  0  0  0  0
    2.5836   -1.8306    0.0000 O   0  0  0  0  0  0  0  0  0  0  0  0
    9.8009   -2.0717    0.0000 O   0  0  0  0  0  0  0  0  0  0  0  0
    6.1443    1.0087    0.0000 O   0  0  0  0  0  0  0  0  0  0  0  0
    4.3958    0.9741    0.0000 O   0  0  0  0  0  0  0  0  0  0  0  0
    7.0619   -0.5051    0.0000 C   0  0  0  0  0  0  0  0  0  0  0  0
    7.9930    0.0519    0.0000 C   0  0  0  0  0  0  0  0  0  0  0  0
    5.2619   -0.5259    0.0000 C   0  0  0  0  0  0  0  0  0  0  0  0
    7.0619   -1.5467    0.0000 C   0  0  0  0  0  0  0  0  0  0  0  0
    6.1558    0.0088    0.0000 C   0  0  0  0  0  0  0  0  0  0  0  0
    5.2619   -1.5259    0.0000 C   0  0  0  0  0  0  0  0  0  0  0  0
    7.9815    1.0518    0.0000 C   0  0  0  0  0  0  0  0  0  0  0  0
    8.9368   -0.4834    0.0000 C   0  0  0  0  0  0  0  0  0  0  0  0
    4.3958   -0.0259    0.0000 C   0  0  0  0  0  0  0  0  0  0  0  0
    3.5298   -0.5259    0.0000 C   0  0  0  0  0  0  0  0  0  0  0  0
    7.9930   -2.1036    0.0000 C   0  0  0  0  0  0  0  0  0  0  0  0
    8.9368   -1.5684    0.0000 C   0  0  0  0  0  0  0  0  0  0  0  0
    3.5298   -1.5259    0.0000 C   0  0  0  0  0  0  0  0  0  0  0  0
    4.3958   -2.0259    0.0000 C   0  0  0  0  0  0  0  0  0  0  0  0
    8.8417    1.5618    0.0000 C   0  0  0  0  0  0  0  0  0  0  0  0
    2.5836   -0.2211    0.0000 C   0  0  0  0  0  0  0  0  0  0  0  0
    8.8301    2.5617    0.0000 C   0  0  0  0  0  0  0  0  0  0  0  0
    2.0000   -1.0259    0.0000 C   0  0  0  0  0  0  0  0  0  0  0  0
    9.6903    3.0717    0.0000 C   0  0  0  0  0  0  0  0  0  0  0  0
    7.9584    3.0517    0.0000 C   0  0  0  0  0  0  0  0  0  0  0  0
   10.6689   -0.4767    0.0000 C   0  0  0  0  0  0  0  0  0  0  0  0
    9.7971   -3.0717    0.0000 C   0  0  0  0  0  0  0  0  0  0  0  0
    7.7627    1.6319    0.0000 H   0  0  0  0  0  0  0  0  0  0  0  0
    7.3722    0.9371    0.0000 H   0  0  0  0  0  0  0  0  0  0  0  0
    7.9859   -2.7236    0.0000 H   0  0  0  0  0  0  0  0  0  0  0  0
    4.3958   -2.6459    0.0000 H   0  0  0  0  0  0  0  0  0  0  0  0
    9.3822    1.2580    0.0000 H   0  0  0  0  0  0  0  0  0  0  0  0
    2.3910    0.3682    0.0000 H   0  0  0  0  0  0  0  0  0  0  0  0
    1.3800   -1.0259    0.0000 H   0  0  0  0  0  0  0  0  0  0  0  0
    3.8589    1.2841    0.0000 H   0  0  0  0  0  0  0  0  0  0  0  0
    8.2621    3.5922    0.0000 H   0  0  0  0  0  0  0  0  0  0  0  0
    7.4179    3.3554    0.0000 H   0  0  0  0  0  0  0  0  0  0  0  0
   10.0065    2.5384    0.0000 H   0  0  0  0  0  0  0  0  0  0  0  0
   10.2236    3.3879    0.0000 H   0  0  0  0  0  0  0  0  0  0  0  0
    9.3741    3.6050    0.0000 H   0  0  0  0  0  0  0  0  0  0  0  0
    7.6546    2.5112    0.0000 H   0  0  0  0  0  0  0  0  0  0  0  0
   10.3609   -1.0148    0.0000 H   0  0  0  0  0  0  0  0  0  0  0  0
   11.2070   -0.7846    0.0000 H   0  0  0  0  0  0  0  0  0  0  0  0
   10.9768    0.0614    0.0000 H   0  0  0  0  0  0  0  0  0  0  0  0
    9.1771   -3.0693    0.0000 H   0  0  0  0  0  0  0  0  0  0  0  0
    9.7947   -3.6917    0.0000 H   0  0  0  0  0  0  0  0  0  0  0  0
   10.4171   -3.0741    0.0000 H   0  0  0  0  0  0  0  0  0  0  0  0
  1 10  1  0  0  0  0
  1 12  1  0  0  0  0
  2 14  1  0  0  0  0
  2 27  1  0  0  0  0
  3 19  1  0  0  0  0
  3 24  1  0  0  0  0
  4 18  1  0  0  0  0
  4 28  1  0  0  0  0
  5 11  2  0  0  0  0
  6 15  1  0  0  0  0
  6 36  1  0  0  0  0
  7  8  2  0  0  0  0
  7 10  1  0  0  0  0
  7 11  1  0  0  0  0
  8 13  1  0  0  0  0
  8 14  1  0  0  0  0
  9 11  1  0  0  0  0
  9 12  2  0  0  0  0
  9 15  1  0  0  0  0
 10 17  2  0  0  0  0
 12 20  1  0  0  0  0
 13 21  1  0  0  0  0
 13 29  1  0  0  0  0
 13 30  1  0  0  0  0
 14 18  2  0  0  0  0
 15 16  2  0  0  0  0
 16 19  1  0  0  0  0
 16 22  1  0  0  0  0
 17 18  1  0  0  0  0
 17 31  1  0  0  0  0
 19 20  2  0  0  0  0
 20 32  1  0  0  0  0
 21 23  2  0  0  0  0
 21 33  1  0  0  0  0
 22 24  2  0  0  0  0
 22 34  1  0  0  0  0
 23 25  1  0  0  0  0
 23 26  1  0  0  0  0
 24 35  1  0  0  0  0
 25 39  1  0  0  0  0
 25 40  1  0  0  0  0
 25 41  1  0  0  0  0
 26 37  1  0  0  0  0
 26 38  1  0  0  0  0
 26 42  1  0  0  0  0
 27 43  1  0  0  0  0
 27 44  1  0  0  0  0
 27 45  1  0  0  0  0
 28 46  1  0  0  0  0
 28 47  1  0  0  0  0
 28 48  1  0  0  0  0
M  END
>  <PUBCHEM_COMPOUND_CID>
101193830

>  <PUBCHEM_COMPOUND_CANONICALIZED>
1

>  <PUBCHEM_CACTVS_COMPLEXITY>
614

>  <PUBCHEM_CACTVS_HBOND_ACCEPTOR>
6

>  <PUBCHEM_CACTVS_HBOND_DONOR>
1

>  <PUBCHEM_CACTVS_ROTATABLE_BOND>
4

>  <PUBCHEM_CACTVS_SUBSKEYS>
AAADceB4OAAAAAAAAAAAAAAAAAAAASAAAAA0YIAAAAAAAEiR9AAAGgAACAAADASgmAIyBsAABkCIAqhSgAACCAAkIAAIiAEGiMgNJzaGNRqCeWKl4BUKuYfK7vzuoQADCAAYQABCAAYQADCAAAAAAAAAAA==

>  <PUBCHEM_IUPAC_OPENEYE_NAME>
4-hydroxy-7,8-dimethoxy-6-(3-methylbut-2-enyl)furo[3,2-b]xanthen-5-one

>  <PUBCHEM_IUPAC_CAS_NAME>
4-hydroxy-7,8-dimethoxy-6-(3-methylbut-2-enyl)-5-furo[3,2-b]xanthenone

>  <PUBCHEM_IUPAC_NAME>
4-hydroxy-7,8-dimethoxy-6-(3-methylbut-2-enyl)furo[3,2-b]xanthen-5-one

>  <PUBCHEM_IUPAC_SYSTEMATIC_NAME>
7,8-dimethoxy-6-(3-methylbut-2-enyl)-4-oxidanyl-furo[3,2-b]xanthen-5-one

>  <PUBCHEM_IUPAC_TRADITIONAL_NAME>
4-hydroxy-7,8-dimethoxy-6-(3-methylbut-2-enyl)furo[3,2-b]xanthen-5-one

>  <PUBCHEM_IUPAC_INCHI>
InChI=1S/C22H20O6/c1-11(2)5-6-13-18-15(10-17(25-3)22(13)26-4)28-16-9-14-12(7-8-27-14)20(23)19(16)21(18)24/h5,7-10,23H,6H2,1-4H3

>  <PUBCHEM_IUPAC_INCHIKEY>
RJQGTNXLUPWEKK-UHFFFAOYSA-N

>  <PUBCHEM_XLOGP3_AA>
5.4

>  <PUBCHEM_EXACT_MASS>
380.126

>  <PUBCHEM_MOLECULAR_FORMULA>
C22H20O6

>  <PUBCHEM_MOLECULAR_WEIGHT>
380.396

>  <PUBCHEM_OPENEYE_CAN_SMILES>
CC(=CCC1=C2C(=CC(=C1OC)OC)OC3=C(C2=O)C(=C4C=COC4=C3)O)C

>  <PUBCHEM_OPENEYE_ISO_SMILES>
CC(=CCC1=C2C(=CC(=C1OC)OC)OC3=C(C2=O)C(=C4C=COC4=C3)O)C

>  <PUBCHEM_CACTVS_TPSA>
78.1

>  <PUBCHEM_MONOISOTOPIC_WEIGHT>
380.126

>  <PUBCHEM_TOTAL_CHARGE>
0

>  <PUBCHEM_HEAVY_ATOM_COUNT>
28

>  <PUBCHEM_ATOM_DEF_STEREO_COUNT>
0

>  <PUBCHEM_ATOM_UDEF_STEREO_COUNT>
0

>  <PUBCHEM_BOND_DEF_STEREO_COUNT>
0

>  <PUBCHEM_BOND_UDEF_STEREO_COUNT>
0

>  <PUBCHEM_ISOTOPIC_ATOM_COUNT>
0

>  <PUBCHEM_COMPONENT_COUNT>
1

>  <PUBCHEM_CACTVS_TAUTO_COUNT>
24

>  <PUBCHEM_COORDINATE_TYPE>
1
5
255

>  <PUBCHEM_BONDANNOTATIONS>
1  10  8
1  12  8
10  17  8
12  20  8
14  18  8
15  16  8
16  19  8
16  22  8
17  18  8
19  20  8
22  24  8
3  19  8
3  24  8
7  10  8
7  11  8
7  8  8
8  14  8
9  11  8
9  12  8
9  15  8

$$$$
