101285910
 OpenBabel06101807152D

 51 55  0  0  0  0  0  0  0  0999 V2000
    9.3729   -2.7600    0.0000 O   0  0  0  0  0  0  0  0  0  0  0  0
   10.8248   -1.9218    0.0000 O   0  0  0  0  0  0  0  0  0  0  0  0
    7.3852   -1.7099    0.0000 O   0  0  0  0  0  0  0  0  0  0  0  0
    2.8680   -0.2243    0.0000 O   0  0  0  0  0  0  0  0  0  0  0  0
    2.8680    1.8674    0.0000 O   0  0  0  0  0  0  0  0  0  0  0  0
    3.8272   -1.7661    0.0000 O   0  0  0  0  0  0  0  0  0  0  0  0
    7.4070    1.3215    0.0000 N   0  3  0  0  0  0  0  0  0  0  0  0
    7.4070    0.3215    0.0000 C   0  0  0  0  0  0  0  0  0  0  0  0
    8.2730    1.8215    0.0000 C   0  0  0  0  0  0  0  0  0  0  0  0
    9.1390    1.3215    0.0000 C   0  0  0  0  0  0  0  0  0  0  0  0
    8.2730   -0.1785    0.0000 C   0  0  0  0  0  0  0  0  0  0  0  0
    9.1390    0.3215    0.0000 C   0  0  0  0  0  0  0  0  0  0  0  0
    5.6070    0.3007    0.0000 C   0  0  0  0  0  0  0  0  0  0  0  0
    6.5130   -0.2131    0.0000 C   0  0  0  0  0  0  0  0  0  0  0  0
    6.5130    1.8562    0.0000 C   0  0  0  0  0  0  0  0  0  0  0  0
    5.6070    1.3423    0.0000 C   0  0  0  0  0  0  0  0  0  0  0  0
    8.2570   -1.2200    0.0000 C   0  0  0  0  0  0  0  0  0  0  0  0
   10.0490   -0.1853    0.0000 C   0  0  0  0  0  0  0  0  0  0  0  0
    9.1550   -1.7477    0.0000 C   0  0  0  0  0  0  0  0  0  0  0  0
   10.0571   -1.2269    0.0000 C   0  0  0  0  0  0  0  0  0  0  0  0
    4.6758   -0.2562    0.0000 C   0  0  0  0  0  0  0  0  0  0  0  0
    4.6758    1.8993    0.0000 C   0  0  0  0  0  0  0  0  0  0  0  0
    3.7320    0.2790    0.0000 C   0  0  0  0  0  0  0  0  0  0  0  0
    3.7320    1.3640    0.0000 C   0  0  0  0  0  0  0  0  0  0  0  0
    4.6874   -1.2561    0.0000 C   0  0  0  0  0  0  0  0  0  0  0  0
   10.4028   -2.8674    0.0000 C   0  0  0  0  0  0  0  0  0  0  0  0
    7.3736   -2.7099    0.0000 C   0  0  0  0  0  0  0  0  0  0  0  0
    2.0000    0.2724    0.0000 C   0  0  0  0  0  0  0  0  0  0  0  0
    2.8718    2.8674    0.0000 C   0  0  0  0  0  0  0  0  0  0  0  0
    8.6716    2.2965    0.0000 H   0  0  0  0  0  0  0  0  0  0  0  0
    7.8745    2.2965    0.0000 H   0  0  0  0  0  0  0  0  0  0  0  0
    9.7496    1.2139    0.0000 H   0  0  0  0  0  0  0  0  0  0  0  0
    9.3511    1.9041    0.0000 H   0  0  0  0  0  0  0  0  0  0  0  0
    6.5202   -0.8331    0.0000 H   0  0  0  0  0  0  0  0  0  0  0  0
    6.5202    2.4762    0.0000 H   0  0  0  0  0  0  0  0  0  0  0  0
   10.5824    0.1309    0.0000 H   0  0  0  0  0  0  0  0  0  0  0  0
    4.6830    2.5192    0.0000 H   0  0  0  0  0  0  0  0  0  0  0  0
    4.9062   -1.8363    0.0000 H   0  0  0  0  0  0  0  0  0  0  0  0
    5.2967   -1.1414    0.0000 H   0  0  0  0  0  0  0  0  0  0  0  0
   10.2741   -3.4738    0.0000 H   0  0  0  0  0  0  0  0  0  0  0  0
   10.9924   -3.0591    0.0000 H   0  0  0  0  0  0  0  0  0  0  0  0
    6.7537   -2.7027    0.0000 H   0  0  0  0  0  0  0  0  0  0  0  0
    7.3665   -3.3298    0.0000 H   0  0  0  0  0  0  0  0  0  0  0  0
    7.9936   -2.7170    0.0000 H   0  0  0  0  0  0  0  0  0  0  0  0
    3.8344   -2.3861    0.0000 H   0  0  0  0  0  0  0  0  0  0  0  0
    2.3079    0.8105    0.0000 H   0  0  0  0  0  0  0  0  0  0  0  0
    1.4619    0.5803    0.0000 H   0  0  0  0  0  0  0  0  0  0  0  0
    1.6921   -0.2658    0.0000 H   0  0  0  0  0  0  0  0  0  0  0  0
    3.4918    2.8650    0.0000 H   0  0  0  0  0  0  0  0  0  0  0  0
    2.8742    3.4874    0.0000 H   0  0  0  0  0  0  0  0  0  0  0  0
    2.2518    2.8697    0.0000 H   0  0  0  0  0  0  0  0  0  0  0  0
  1 19  1  0  0  0  0
  1 26  1  0  0  0  0
  2 20  1  0  0  0  0
  2 26  1  0  0  0  0
  3 17  1  0  0  0  0
  3 27  1  0  0  0  0
  4 23  1  0  0  0  0
  4 28  1  0  0  0  0
  5 24  1  0  0  0  0
  5 29  1  0  0  0  0
  6 25  1  0  0  0  0
  6 45  1  0  0  0  0
  7  8  1  0  0  0  0
  7  9  1  0  0  0  0
  7 15  2  0  0  0  0
  8 11  1  0  0  0  0
  8 14  2  0  0  0  0
  9 10  1  0  0  0  0
  9 30  1  0  0  0  0
  9 31  1  0  0  0  0
 10 12  1  0  0  0  0
 10 32  1  0  0  0  0
 10 33  1  0  0  0  0
 11 12  1  0  0  0  0
 11 17  2  0  0  0  0
 12 18  2  0  0  0  0
 13 14  1  0  0  0  0
 13 16  1  0  0  0  0
 13 21  2  0  0  0  0
 14 34  1  0  0  0  0
 15 16  1  0  0  0  0
 15 35  1  0  0  0  0
 16 22  2  0  0  0  0
 17 19  1  0  0  0  0
 18 20  1  0  0  0  0
 18 36  1  0  0  0  0
 19 20  2  0  0  0  0
 21 23  1  0  0  0  0
 21 25  1  0  0  0  0
 22 24  1  0  0  0  0
 22 37  1  0  0  0  0
 23 24  2  0  0  0  0
 25 38  1  0  0  0  0
 25 39  1  0  0  0  0
 26 40  1  0  0  0  0
 26 41  1  0  0  0  0
 27 42  1  0  0  0  0
 27 43  1  0  0  0  0
 27 44  1  0  0  0  0
 28 46  1  0  0  0  0
 28 47  1  0  0  0  0
 28 48  1  0  0  0  0
 29 49  1  0  0  0  0
 29 50  1  0  0  0  0
 29 51  1  0  0  0  0
M  CHG  1   7   1
M  END
>  <PUBCHEM_COMPOUND_CID>
101285910

>  <PUBCHEM_COMPOUND_CANONICALIZED>
1

>  <PUBCHEM_CACTVS_COMPLEXITY>
578

>  <PUBCHEM_CACTVS_HBOND_ACCEPTOR>
6

>  <PUBCHEM_CACTVS_HBOND_DONOR>
1

>  <PUBCHEM_CACTVS_ROTATABLE_BOND>
4

>  <PUBCHEM_CACTVS_SUBSKEYS>
AAADceB6OAAAAAAAAAAAAAAAAAAAASAAAAA8eIEAAAAAAEix9AAAHgAACAAADAzhngc+jtMMFgCgAzRnRACCiCAxIiAA2CA+7JgdN+LEsZukcCpnwBXO+Afw8P8OoAADCAAYQABAAAYQADCAAAAAAAAAAA==

>  <PUBCHEM_IUPAC_INCHI>
InChI=1S/C22H22NO6/c1-25-17-7-13-9-23-5-4-12-6-18-21(29-11-28-18)22(27-3)19(12)16(23)8-14(13)15(10-24)20(17)26-2/h6-9,24H,4-5,10-11H2,1-3H3/q+1

>  <PUBCHEM_IUPAC_INCHIKEY>
YBDPGYNCDXZFOS-UHFFFAOYSA-N

>  <PUBCHEM_XLOGP3_AA>
2.7

>  <PUBCHEM_EXACT_MASS>
396.145

>  <PUBCHEM_MOLECULAR_FORMULA>
C22H22NO6+

>  <PUBCHEM_MOLECULAR_WEIGHT>
396.419

>  <PUBCHEM_OPENEYE_CAN_SMILES>
COC1=C(C(=C2C=C3C4=C(C5=C(C=C4CC[N+]3=CC2=C1)OCO5)OC)CO)OC

>  <PUBCHEM_OPENEYE_ISO_SMILES>
COC1=C(C(=C2C=C3C4=C(C5=C(C=C4CC[N+]3=CC2=C1)OCO5)OC)CO)OC

>  <PUBCHEM_CACTVS_TPSA>
70.3

>  <PUBCHEM_MONOISOTOPIC_WEIGHT>
396.145

>  <PUBCHEM_TOTAL_CHARGE>
1

>  <PUBCHEM_HEAVY_ATOM_COUNT>
29

>  <PUBCHEM_ATOM_DEF_STEREO_COUNT>
0

>  <PUBCHEM_ATOM_UDEF_STEREO_COUNT>
0

>  <PUBCHEM_BOND_DEF_STEREO_COUNT>
0

>  <PUBCHEM_BOND_UDEF_STEREO_COUNT>
0

>  <PUBCHEM_ISOTOPIC_ATOM_COUNT>
0

>  <PUBCHEM_COMPONENT_COUNT>
1

>  <PUBCHEM_CACTVS_TAUTO_COUNT>
7

>  <PUBCHEM_COORDINATE_TYPE>
1
5
255

>  <PUBCHEM_BONDANNOTATIONS>
11  12  8
11  17  8
12  18  8
13  14  8
13  16  8
13  21  8
15  16  8
16  22  8
17  19  8
18  20  8
19  20  8
21  23  8
22  24  8
23  24  8
7  15  8
7  8  8
8  14  8

$$$$
