101280214
 OpenBabel06101807152D

 90 94  0  0  1  0  0  0  0  0999 V2000
    2.5381   -3.0459    0.0000 O   0  0  0  0  0  0  0  0  0  0  0  0
   11.2378    3.6101    0.0000 O   0  0  0  0  0  0  0  0  0  0  0  0
    6.0682   -1.0217    0.0000 C   0  0  1  0  0  0  0  0  0  0  0  0
    5.2022   -1.5217    0.0000 C   0  0  2  0  0  0  0  0  0  0  0  0
    5.2020   -0.5213    0.0000 C   0  0  0  0  0  0  0  0  0  0  0  0
    6.9343   -1.5217    0.0000 C   0  0  2  0  0  0  0  0  0  0  0  0
    5.2022   -2.5217    0.0000 C   0  0  1  0  0  0  0  0  0  0  0  0
    7.8443   -1.0149    0.0000 C   0  0  1  0  0  0  0  0  0  0  0  0
    6.0522    0.0198    0.0000 C   0  0  0  0  0  0  0  0  0  0  0  0
    7.8523    0.0267    0.0000 C   0  0  2  0  0  0  0  0  0  0  0  0
    4.3083   -0.9871    0.0000 C   0  0  0  0  0  0  0  0  0  0  0  0
    6.9343   -2.5217    0.0000 C   0  0  0  0  0  0  0  0  0  0  0  0
    6.0682   -3.0217    0.0000 C   0  0  0  0  0  0  0  0  0  0  0  0
    6.9502    0.5475    0.0000 C   0  0  0  0  0  0  0  0  0  0  0  0
    4.3083   -3.0564    0.0000 C   0  0  0  0  0  0  0  0  0  0  0  0
    8.8403    0.3365    0.0000 C   0  0  2  0  0  0  0  0  0  0  0  0
    8.8274   -1.3399    0.0000 C   0  0  0  0  0  0  0  0  0  0  0  0
    3.4022   -1.5009    0.0000 C   0  0  0  0  0  0  0  0  0  0  0  0
    3.4022   -2.5425    0.0000 C   0  0  2  0  0  0  0  0  0  0  0  0
    9.4418   -0.5064    0.0000 C   0  0  0  0  0  0  0  0  0  0  0  0
    7.8366   -2.0148    0.0000 C   0  0  0  0  0  0  0  0  0  0  0  0
    7.8600    1.0267    0.0000 C   0  0  0  0  0  0  0  0  0  0  0  0
    9.1583    1.2846    0.0000 C   0  0  1  0  0  0  0  0  0  0  0  0
    3.8183   -3.9281    0.0000 C   0  0  0  0  0  0  0  0  0  0  0  0
    4.8183   -3.9166    0.0000 C   0  0  0  0  0  0  0  0  0  0  0  0
   10.1384    1.4833    0.0000 C   0  0  0  0  0  0  0  0  0  0  0  0
    8.4962    2.0341    0.0000 C   0  0  0  0  0  0  0  0  0  0  0  0
   10.4564    2.4314    0.0000 C   0  0  0  0  0  0  0  0  0  0  0  0
   11.4364    2.6301    0.0000 C   0  0  3  0  0  0  0  0  0  0  0  0
   12.4165    2.8288    0.0000 C   0  0  0  0  0  0  0  0  0  0  0  0
   11.6351    1.6500    0.0000 C   0  0  0  0  0  0  0  0  0  0  0  0
   12.7345    3.7768    0.0000 C   0  0  0  0  0  0  0  0  0  0  0  0
   13.0786    2.0793    0.0000 C   0  0  0  0  0  0  0  0  0  0  0  0
   10.2897    3.9281    0.0000 C   0  0  0  0  0  0  0  0  0  0  0  0
    5.4141    0.0613    0.0000 H   0  0  0  0  0  0  0  0  0  0  0  0
    4.5914   -0.4137    0.0000 H   0  0  0  0  0  0  0  0  0  0  0  0
    7.6671   -1.9524    0.0000 H   0  0  0  0  0  0  0  0  0  0  0  0
    5.2088   -3.3717    0.0000 H   0  0  0  0  0  0  0  0  0  0  0  0
    5.8342    0.6002    0.0000 H   0  0  0  0  0  0  0  0  0  0  0  0
    5.4431   -0.0957    0.0000 H   0  0  0  0  0  0  0  0  0  0  0  0
    4.7129   -0.5173    0.0000 H   0  0  0  0  0  0  0  0  0  0  0  0
    3.9147   -0.5080    0.0000 H   0  0  0  0  0  0  0  0  0  0  0  0
    7.1463   -3.1043    0.0000 H   0  0  0  0  0  0  0  0  0  0  0  0
    7.5449   -2.4140    0.0000 H   0  0  0  0  0  0  0  0  0  0  0  0
    5.6697   -3.4967    0.0000 H   0  0  0  0  0  0  0  0  0  0  0  0
    6.4668   -3.4967    0.0000 H   0  0  0  0  0  0  0  0  0  0  0  0
    7.3475    1.0235    0.0000 H   0  0  0  0  0  0  0  0  0  0  0  0
    6.5493    1.0204    0.0000 H   0  0  0  0  0  0  0  0  0  0  0  0
    9.6810    0.4619    0.0000 H   0  0  0  0  0  0  0  0  0  0  0  0
    8.5720   -1.9048    0.0000 H   0  0  0  0  0  0  0  0  0  0  0  0
    9.3624   -1.6532    0.0000 H   0  0  0  0  0  0  0  0  0  0  0  0
    3.1932   -0.9172    0.0000 H   0  0  0  0  0  0  0  0  0  0  0  0
    2.7914   -1.6070    0.0000 H   0  0  0  0  0  0  0  0  0  0  0  0
    2.8647   -2.2336    0.0000 H   0  0  0  0  0  0  0  0  0  0  0  0
    9.8994   -0.9246    0.0000 H   0  0  0  0  0  0  0  0  0  0  0  0
    9.9058   -0.0952    0.0000 H   0  0  0  0  0  0  0  0  0  0  0  0
    7.2166   -2.0101    0.0000 H   0  0  0  0  0  0  0  0  0  0  0  0
    7.8318   -2.6348    0.0000 H   0  0  0  0  0  0  0  0  0  0  0  0
    8.4566   -2.0196    0.0000 H   0  0  0  0  0  0  0  0  0  0  0  0
    8.4800    1.0219    0.0000 H   0  0  0  0  0  0  0  0  0  0  0  0
    7.8648    1.6467    0.0000 H   0  0  0  0  0  0  0  0  0  0  0  0
    7.2400    1.0315    0.0000 H   0  0  0  0  0  0  0  0  0  0  0  0
    9.3555    1.8725    0.0000 H   0  0  0  0  0  0  0  0  0  0  0  0
    3.2778   -3.6244    0.0000 H   0  0  0  0  0  0  0  0  0  0  0  0
    3.5146   -4.4686    0.0000 H   0  0  0  0  0  0  0  0  0  0  0  0
    4.3588   -4.2319    0.0000 H   0  0  0  0  0  0  0  0  0  0  0  0
    4.2850   -4.2328    0.0000 H   0  0  0  0  0  0  0  0  0  0  0  0
    5.1344   -4.4499    0.0000 H   0  0  0  0  0  0  0  0  0  0  0  0
    5.3516   -3.6004    0.0000 H   0  0  0  0  0  0  0  0  0  0  0  0
    2.0000   -2.7379    0.0000 H   0  0  0  0  0  0  0  0  0  0  0  0
   10.1542    0.8635    0.0000 H   0  0  0  0  0  0  0  0  0  0  0  0
   10.7515    1.3912    0.0000 H   0  0  0  0  0  0  0  0  0  0  0  0
    8.9609    2.4446    0.0000 H   0  0  0  0  0  0  0  0  0  0  0  0
    8.0857    2.4987    0.0000 H   0  0  0  0  0  0  0  0  0  0  0  0
    8.0316    1.6236    0.0000 H   0  0  0  0  0  0  0  0  0  0  0  0
   10.4406    3.0512    0.0000 H   0  0  0  0  0  0  0  0  0  0  0  0
    9.8432    2.5235    0.0000 H   0  0  0  0  0  0  0  0  0  0  0  0
   12.2194    2.2409    0.0000 H   0  0  0  0  0  0  0  0  0  0  0  0
   11.0275    1.5268    0.0000 H   0  0  0  0  0  0  0  0  0  0  0  0
   11.7583    1.0424    0.0000 H   0  0  0  0  0  0  0  0  0  0  0  0
   12.2427    1.7732    0.0000 H   0  0  0  0  0  0  0  0  0  0  0  0
   12.6139    1.6688    0.0000 H   0  0  0  0  0  0  0  0  0  0  0  0
   13.4891    1.6147    0.0000 H   0  0  0  0  0  0  0  0  0  0  0  0
   13.5432    2.4898    0.0000 H   0  0  0  0  0  0  0  0  0  0  0  0
   13.3223    3.5797    0.0000 H   0  0  0  0  0  0  0  0  0  0  0  0
   12.9316    4.3647    0.0000 H   0  0  0  0  0  0  0  0  0  0  0  0
   12.1467    3.9740    0.0000 H   0  0  0  0  0  0  0  0  0  0  0  0
   10.4868    4.5159    0.0000 H   0  0  0  0  0  0  0  0  0  0  0  0
    9.7018    4.1253    0.0000 H   0  0  0  0  0  0  0  0  0  0  0  0
   10.0925    3.3403    0.0000 H   0  0  0  0  0  0  0  0  0  0  0  0
  1 70  1  0  0  0  0
  2 29  1  0  0  0  0
  2 34  1  0  0  0  0
  3  4  1  6  0  0  0
  3  5  1  0  0  0  0
  3  9  1  0  0  0  0
  4  5  1  0  0  0  0
  4  7  1  1  0  0  0
  4 11  1  0  0  0  0
  5 35  1  0  0  0  0
  5 36  1  0  0  0  0
  6  3  1  1  0  0  0
  6 12  1  0  0  0  0
  6 37  1  0  0  0  0
  7 13  1  0  0  0  0
  7 15  1  0  0  0  0
  7 38  1  6  0  0  0
  8  6  1  1  0  0  0
  8 17  1  0  0  0  0
  8 21  1  0  0  0  0
  9 14  1  0  0  0  0
  9 39  1  0  0  0  0
  9 40  1  0  0  0  0
 10  8  1  1  0  0  0
 10 14  1  0  0  0  0
 10 22  1  0  0  0  0
 11 18  1  0  0  0  0
 11 41  1  0  0  0  0
 11 42  1  0  0  0  0
 12 13  1  0  0  0  0
 12 43  1  0  0  0  0
 12 44  1  0  0  0  0
 13 45  1  0  0  0  0
 13 46  1  0  0  0  0
 14 47  1  0  0  0  0
 14 48  1  0  0  0  0
 15 19  1  0  0  0  0
 15 24  1  0  0  0  0
 15 25  1  0  0  0  0
 16 10  1  6  0  0  0
 16 20  1  0  0  0  0
 16 23  1  0  0  0  0
 16 49  1  0  0  0  0
 17 20  1  0  0  0  0
 17 50  1  0  0  0  0
 17 51  1  0  0  0  0
 18 19  1  0  0  0  0
 18 52  1  0  0  0  0
 18 53  1  0  0  0  0
 19  1  1  0  0  0  0
 19 54  1  6  0  0  0
 20 55  1  0  0  0  0
 20 56  1  0  0  0  0
 21 57  1  0  0  0  0
 21 58  1  0  0  0  0
 21 59  1  0  0  0  0
 22 60  1  0  0  0  0
 22 61  1  0  0  0  0
 22 62  1  0  0  0  0
 23 26  1  0  0  0  0
 23 27  1  0  0  0  0
 23 63  1  1  0  0  0
 24 64  1  0  0  0  0
 24 65  1  0  0  0  0
 24 66  1  0  0  0  0
 25 67  1  0  0  0  0
 25 68  1  0  0  0  0
 25 69  1  0  0  0  0
 26 28  1  0  0  0  0
 26 71  1  0  0  0  0
 26 72  1  0  0  0  0
 27 73  1  0  0  0  0
 27 74  1  0  0  0  0
 27 75  1  0  0  0  0
 28 29  1  0  0  0  0
 28 76  1  0  0  0  0
 28 77  1  0  0  0  0
 29 30  1  0  0  0  0
 29 31  1  0  0  0  0
 30 32  1  0  0  0  0
 30 33  1  0  0  0  0
 30 78  1  0  0  0  0
 31 79  1  0  0  0  0
 31 80  1  0  0  0  0
 31 81  1  0  0  0  0
 32 85  1  0  0  0  0
 32 86  1  0  0  0  0
 32 87  1  0  0  0  0
 33 82  1  0  0  0  0
 33 83  1  0  0  0  0
 33 84  1  0  0  0  0
 34 88  1  0  0  0  0
 34 89  1  0  0  0  0
 34 90  1  0  0  0  0
M  END
>  <PUBCHEM_COMPOUND_CID>
101280214

>  <PUBCHEM_COMPOUND_CANONICALIZED>
1

>  <PUBCHEM_CACTVS_COMPLEXITY>
803

>  <PUBCHEM_CACTVS_HBOND_ACCEPTOR>
2

>  <PUBCHEM_CACTVS_HBOND_DONOR>
1

>  <PUBCHEM_CACTVS_ROTATABLE_BOND>
6

>  <PUBCHEM_CACTVS_SUBSKEYS>
AAADcfB8MAAAAAAAAAAAAAAAGAAAAYAAAAAwYMAABgAAAGDAAAAAGgAACAAAD1SggAICAAAABgAAAAAAAAAAAAAAAAAAAAAAAAAAEAIAAAAAQAAEAAAAAAGAwPAPgAAAAAAAAADAAAYAADAAAQAACAAAAA==

>  <PUBCHEM_IUPAC_INCHI>
InChI=1S/C32H56O2/c1-21(2)30(8,34-9)16-12-22(3)23-13-15-29(7)25-11-10-24-27(4,5)26(33)14-17-31(24)20-32(25,31)19-18-28(23,29)6/h21-26,33H,10-20H2,1-9H3/t22-,23-,24+,25+,26+,28-,29+,30?,31-,32+/m1/s1

>  <PUBCHEM_IUPAC_INCHIKEY>
KJZFRJMMSQEEPG-FFMUYPJPSA-N

>  <PUBCHEM_XLOGP3_AA>
9.4

>  <PUBCHEM_EXACT_MASS>
472.428

>  <PUBCHEM_MOLECULAR_FORMULA>
C32H56O2

>  <PUBCHEM_MOLECULAR_WEIGHT>
472.798

>  <PUBCHEM_OPENEYE_CAN_SMILES>
CC(C)C(C)(CCC(C)C1CCC2(C1(CCC34C2CCC5C3(C4)CCC(C5(C)C)O)C)C)OC

>  <PUBCHEM_OPENEYE_ISO_SMILES>
C[C@H](CCC(C)(C(C)C)OC)[C@H]1CC[C@@]2([C@@]1(CC[C@]34[C@H]2CC[C@@H]5[C@]3(C4)CC[C@@H](C5(C)C)O)C)C

>  <PUBCHEM_CACTVS_TPSA>
29.5

>  <PUBCHEM_MONOISOTOPIC_WEIGHT>
472.428

>  <PUBCHEM_TOTAL_CHARGE>
0

>  <PUBCHEM_HEAVY_ATOM_COUNT>
34

>  <PUBCHEM_ATOM_DEF_STEREO_COUNT>
9

>  <PUBCHEM_ATOM_UDEF_STEREO_COUNT>
1

>  <PUBCHEM_BOND_DEF_STEREO_COUNT>
0

>  <PUBCHEM_BOND_UDEF_STEREO_COUNT>
0

>  <PUBCHEM_ISOTOPIC_ATOM_COUNT>
0

>  <PUBCHEM_COMPONENT_COUNT>
1

>  <PUBCHEM_CACTVS_TAUTO_COUNT>
1

>  <PUBCHEM_COORDINATE_TYPE>
1
5
255

>  <PUBCHEM_BONDANNOTATIONS>
19  1  5
10  22  5
16  49  6
23  27  6
29  31  3
3  5  5
4  5  5
6  37  5
7  38  6
8  21  6

$$$$
