101260573
 OpenBabel06101807152D

 58 59  0  0  1  0  0  0  0  0999 V2000
    8.5991   -1.6550    0.0000 O   0  0  0  0  0  0  0  0  0  0  0  0
    6.8671   -3.6550    0.0000 O   0  0  0  0  0  0  0  0  0  0  0  0
    8.5991   -4.6550    0.0000 O   0  0  0  0  0  0  0  0  0  0  0  0
   10.3312   -1.6550    0.0000 O   0  0  0  0  0  0  0  0  0  0  0  0
   10.3312   -3.6550    0.0000 O   0  0  0  0  0  0  0  0  0  0  0  0
    6.0010   -2.1550    0.0000 O   0  0  0  0  0  0  0  0  0  0  0  0
   12.0632   -0.6550    0.0000 O   0  0  0  0  0  0  0  0  0  0  0  0
    5.1350   -0.6550    0.0000 O   0  0  0  0  0  0  0  0  0  0  0  0
    2.5369   -2.1550    0.0000 O   0  0  0  0  0  0  0  0  0  0  0  0
   12.0632    4.3450    0.0000 O   0  0  0  0  0  0  0  0  0  0  0  0
    7.7331   -3.1550    0.0000 C   0  0  1  0  0  0  0  0  0  0  0  0
    8.5991   -3.6550    0.0000 C   0  0  1  0  0  0  0  0  0  0  0  0
    7.7331   -2.1550    0.0000 C   0  0  1  0  0  0  0  0  0  0  0  0
    9.4651   -3.1550    0.0000 C   0  0  2  0  0  0  0  0  0  0  0  0
    9.4651   -2.1550    0.0000 C   0  0  1  0  0  0  0  0  0  0  0  0
    6.8671   -1.6550    0.0000 C   0  0  0  0  0  0  0  0  0  0  0  0
   10.3312   -0.6550    0.0000 C   0  0  0  0  0  0  0  0  0  0  0  0
    5.1350   -1.6550    0.0000 C   0  0  0  0  0  0  0  0  0  0  0  0
    4.2690   -2.1550    0.0000 C   0  0  3  0  0  0  0  0  0  0  0  0
   11.1972   -0.1550    0.0000 C   0  0  0  0  0  0  0  0  0  0  0  0
    9.4651   -0.1550    0.0000 C   0  0  0  0  0  0  0  0  0  0  0  0
    3.4030   -1.6550    0.0000 C   0  0  0  0  0  0  0  0  0  0  0  0
    4.2690   -3.1550    0.0000 C   0  0  0  0  0  0  0  0  0  0  0  0
   11.1972    0.8450    0.0000 C   0  0  0  0  0  0  0  0  0  0  0  0
    9.4651    0.8450    0.0000 C   0  0  0  0  0  0  0  0  0  0  0  0
   10.3312    1.3450    0.0000 C   0  0  0  0  0  0  0  0  0  0  0  0
   10.3312    2.3450    0.0000 C   0  0  0  0  0  0  0  0  0  0  0  0
   12.9292   -0.1550    0.0000 C   0  0  0  0  0  0  0  0  0  0  0  0
   11.1972    2.8450    0.0000 C   0  0  0  0  0  0  0  0  0  0  0  0
   11.1972    3.8450    0.0000 C   0  0  0  0  0  0  0  0  0  0  0  0
    7.7331   -3.7750    0.0000 H   0  0  0  0  0  0  0  0  0  0  0  0
    9.1360   -3.9650    0.0000 H   0  0  0  0  0  0  0  0  0  0  0  0
    7.7331   -1.5350    0.0000 H   0  0  0  0  0  0  0  0  0  0  0  0
   10.0021   -2.8450    0.0000 H   0  0  0  0  0  0  0  0  0  0  0  0
    9.4651   -1.5350    0.0000 H   0  0  0  0  0  0  0  0  0  0  0  0
    7.2656   -1.1800    0.0000 H   0  0  0  0  0  0  0  0  0  0  0  0
    6.4685   -1.1800    0.0000 H   0  0  0  0  0  0  0  0  0  0  0  0
    6.8671   -4.2750    0.0000 H   0  0  0  0  0  0  0  0  0  0  0  0
    8.0622   -4.9650    0.0000 H   0  0  0  0  0  0  0  0  0  0  0  0
   10.3312   -4.2750    0.0000 H   0  0  0  0  0  0  0  0  0  0  0  0
    4.8059   -2.4650    0.0000 H   0  0  0  0  0  0  0  0  0  0  0  0
    8.9282   -0.4650    0.0000 H   0  0  0  0  0  0  0  0  0  0  0  0
    3.8015   -1.1800    0.0000 H   0  0  0  0  0  0  0  0  0  0  0  0
    3.0044   -1.1800    0.0000 H   0  0  0  0  0  0  0  0  0  0  0  0
    3.6490   -3.1550    0.0000 H   0  0  0  0  0  0  0  0  0  0  0  0
    4.2690   -3.7750    0.0000 H   0  0  0  0  0  0  0  0  0  0  0  0
    4.8890   -3.1550    0.0000 H   0  0  0  0  0  0  0  0  0  0  0  0
   11.7341    1.1550    0.0000 H   0  0  0  0  0  0  0  0  0  0  0  0
    8.9282    1.1550    0.0000 H   0  0  0  0  0  0  0  0  0  0  0  0
    9.7942    2.6550    0.0000 H   0  0  0  0  0  0  0  0  0  0  0  0
    2.0000   -1.8450    0.0000 H   0  0  0  0  0  0  0  0  0  0  0  0
   13.2392   -0.6919    0.0000 H   0  0  0  0  0  0  0  0  0  0  0  0
   13.4662    0.1550    0.0000 H   0  0  0  0  0  0  0  0  0  0  0  0
   12.6192    0.3819    0.0000 H   0  0  0  0  0  0  0  0  0  0  0  0
   11.7341    2.5350    0.0000 H   0  0  0  0  0  0  0  0  0  0  0  0
   10.9851    4.4276    0.0000 H   0  0  0  0  0  0  0  0  0  0  0  0
   10.5866    3.7373    0.0000 H   0  0  0  0  0  0  0  0  0  0  0  0
   12.0632    4.9650    0.0000 H   0  0  0  0  0  0  0  0  0  0  0  0
  1 13  1  0  0  0  0
  1 15  1  0  0  0  0
  2 38  1  0  0  0  0
  3 39  1  0  0  0  0
  4 17  1  0  0  0  0
  5 40  1  0  0  0  0
  6 16  1  0  0  0  0
  6 18  1  0  0  0  0
  7 20  1  0  0  0  0
  7 28  1  0  0  0  0
  8 18  2  0  0  0  0
  9 22  1  0  0  0  0
  9 51  1  0  0  0  0
 10 30  1  0  0  0  0
 10 58  1  0  0  0  0
 11  2  1  0  0  0  0
 11 12  1  6  0  0  0
 11 31  1  0  0  0  0
 12  3  1  0  0  0  0
 12 14  1  1  0  0  0
 12 32  1  0  0  0  0
 13 11  1  6  0  0  0
 13 16  1  0  0  0  0
 13 33  1  0  0  0  0
 14  5  1  0  0  0  0
 14 15  1  6  0  0  0
 14 34  1  0  0  0  0
 15  4  1  0  0  0  0
 15 35  1  6  0  0  0
 16 36  1  0  0  0  0
 16 37  1  0  0  0  0
 17 20  2  0  0  0  0
 17 21  1  0  0  0  0
 18 19  1  0  0  0  0
 19 22  1  0  0  0  0
 19 23  1  0  0  0  0
 19 41  1  0  0  0  0
 20 24  1  0  0  0  0
 21 25  2  0  0  0  0
 21 42  1  0  0  0  0
 22 43  1  0  0  0  0
 22 44  1  0  0  0  0
 23 45  1  0  0  0  0
 23 46  1  0  0  0  0
 23 47  1  0  0  0  0
 24 26  2  0  0  0  0
 24 48  1  0  0  0  0
 25 26  1  0  0  0  0
 25 49  1  0  0  0  0
 26 27  1  0  0  0  0
 27 29  2  0  0  0  0
 27 50  1  0  0  0  0
 28 52  1  0  0  0  0
 28 53  1  0  0  0  0
 28 54  1  0  0  0  0
 29 30  1  0  0  0  0
 29 55  1  0  0  0  0
 30 56  1  0  0  0  0
 30 57  1  0  0  0  0
M  END
>  <PUBCHEM_COMPOUND_CID>
101260573

>  <PUBCHEM_COMPOUND_CANONICALIZED>
1

>  <PUBCHEM_CACTVS_COMPLEXITY>
556

>  <PUBCHEM_CACTVS_HBOND_ACCEPTOR>
10

>  <PUBCHEM_CACTVS_HBOND_DONOR>
5

>  <PUBCHEM_CACTVS_ROTATABLE_BOND>
10

>  <PUBCHEM_CACTVS_SUBSKEYS>
AAADceB4PAAAAAAAAAAAAAAAAAAAAAAAAAA0QAAAAAAAAAABAAAAGgAACAAADRSwmAMyDoAABgCIAiDSCAACCAAgIAAIiAEGiIgdNiaEMRqieCKl4BEPuAfA4BwOIAABAAAAQABAAAIAAACAAAAAAAAAAA==

>  <PUBCHEM_IUPAC_OPENEYE_NAME>
[(2R,3S,4S,5R,6S)-3,4,5-trihydroxy-6-[4-[(E)-3-hydroxyprop-1-enyl]-2-methoxy-phenoxy]tetrahydropyran-2-yl]methyl 3-hydroxy-2-methyl-propanoate

>  <PUBCHEM_IUPAC_CAS_NAME>
3-hydroxy-2-methylpropanoic acid [(2R,3S,4S,5R,6S)-3,4,5-trihydroxy-6-[4-[(E)-3-hydroxyprop-1-enyl]-2-methoxyphenoxy]-2-oxanyl]methyl ester

>  <PUBCHEM_IUPAC_NAME>
[(2R,3S,4S,5R,6S)-3,4,5-trihydroxy-6-[4-[(E)-3-hydroxyprop-1-enyl]-2-methoxyphenoxy]oxan-2-yl]methyl 3-hydroxy-2-methylpropanoate

>  <PUBCHEM_IUPAC_SYSTEMATIC_NAME>
[(2R,3S,4S,5R,6S)-6-[2-methoxy-4-[(E)-3-oxidanylprop-1-enyl]phenoxy]-3,4,5-tris(oxidanyl)oxan-2-yl]methyl 2-methyl-3-oxidanyl-propanoate

>  <PUBCHEM_IUPAC_TRADITIONAL_NAME>
3-hydroxy-2-methyl-propionic acid [(2R,3S,4S,5R,6S)-3,4,5-trihydroxy-6-[4-[(E)-3-hydroxyprop-1-enyl]-2-methoxy-phenoxy]tetrahydropyran-2-yl]methyl ester

>  <PUBCHEM_IUPAC_INCHI>
InChI=1S/C20H28O10/c1-11(9-22)19(26)28-10-15-16(23)17(24)18(25)20(30-15)29-13-6-5-12(4-3-7-21)8-14(13)27-2/h3-6,8,11,15-18,20-25H,7,9-10H2,1-2H3/b4-3+/t11?,15-,16-,17+,18-,20-/m1/s1

>  <PUBCHEM_IUPAC_INCHIKEY>
NUZPXHFCBKVLFX-QCIYUQLOSA-N

>  <PUBCHEM_XLOGP3_AA>
-0.7

>  <PUBCHEM_EXACT_MASS>
428.168

>  <PUBCHEM_MOLECULAR_FORMULA>
C20H28O10

>  <PUBCHEM_MOLECULAR_WEIGHT>
428.434

>  <PUBCHEM_OPENEYE_CAN_SMILES>
CC(CO)C(=O)OCC1C(C(C(C(O1)OC2=C(C=C(C=C2)C=CCO)OC)O)O)O

>  <PUBCHEM_OPENEYE_ISO_SMILES>
CC(CO)C(=O)OC[C@@H]1[C@H]([C@@H]([C@H]([C@@H](O1)OC2=C(C=C(C=C2)/C=C/CO)OC)O)O)O

>  <PUBCHEM_CACTVS_TPSA>
155

>  <PUBCHEM_MONOISOTOPIC_WEIGHT>
428.168

>  <PUBCHEM_TOTAL_CHARGE>
0

>  <PUBCHEM_HEAVY_ATOM_COUNT>
30

>  <PUBCHEM_ATOM_DEF_STEREO_COUNT>
5

>  <PUBCHEM_ATOM_UDEF_STEREO_COUNT>
1

>  <PUBCHEM_BOND_DEF_STEREO_COUNT>
1

>  <PUBCHEM_BOND_UDEF_STEREO_COUNT>
0

>  <PUBCHEM_ISOTOPIC_ATOM_COUNT>
0

>  <PUBCHEM_COMPONENT_COUNT>
1

>  <PUBCHEM_CACTVS_TAUTO_COUNT>
2

>  <PUBCHEM_COORDINATE_TYPE>
1
5
255

>  <PUBCHEM_BONDANNOTATIONS>
13  16  5
17  20  8
17  21  8
19  23  3
11  2  6
20  24  8
21  25  8
24  26  8
25  26  8
12  3  5
15  4  5
14  5  6

$$$$
