101268578
 OpenBabel06101807152D

 85 89  0  0  1  0  0  0  0  0999 V2000
    8.5991    1.7787    0.0000 O   0  0  0  0  0  0  0  0  0  0  0  0
   12.0240   -3.2627    0.0000 O   0  0  0  0  0  0  0  0  0  0  0  0
   10.3312    1.7787    0.0000 O   0  0  0  0  0  0  0  0  0  0  0  0
   11.1754   -1.7528    0.0000 O   0  0  0  0  0  0  0  0  0  0  0  0
    6.8671   -0.2213    0.0000 O   0  0  0  0  0  0  0  0  0  0  0  0
    8.5991   -1.2213    0.0000 O   0  0  0  0  0  0  0  0  0  0  0  0
   10.3312   -0.2213    0.0000 O   0  0  0  0  0  0  0  0  0  0  0  0
    9.4088   -4.7325    0.0000 O   0  0  0  0  0  0  0  0  0  0  0  0
   11.1292   -5.7525    0.0000 O   0  0  0  0  0  0  0  0  0  0  0  0
    9.4319   -2.7327    0.0000 O   0  0  0  0  0  0  0  0  0  0  0  0
    6.0010    1.2787    0.0000 O   0  0  0  0  0  0  0  0  0  0  0  0
   12.8611   -5.7725    0.0000 O   0  0  0  0  0  0  0  0  0  0  0  0
   12.9292    1.2787    0.0000 O   0  3  0  0  0  0  0  0  0  0  0  0
   14.7152   -1.7664    0.0000 O   0  0  0  0  0  0  0  0  0  0  0  0
    5.1350    2.7787    0.0000 O   0  0  0  0  0  0  0  0  0  0  0  0
   13.7953    4.7787    0.0000 O   0  0  0  0  0  0  0  0  0  0  0  0
   12.0632    5.7787    0.0000 O   0  0  0  0  0  0  0  0  0  0  0  0
    2.5369    1.2787    0.0000 O   0  0  0  0  0  0  0  0  0  0  0  0
    3.4030    2.7787    0.0000 O   0  0  0  0  0  0  0  0  0  0  0  0
    7.7331    0.2787    0.0000 C   0  0  1  0  0  0  0  0  0  0  0  0
    8.5991   -0.2213    0.0000 C   0  0  1  0  0  0  0  0  0  0  0  0
    7.7331    1.2787    0.0000 C   0  0  1  0  0  0  0  0  0  0  0  0
    9.4651    0.2787    0.0000 C   0  0  2  0  0  0  0  0  0  0  0  0
   10.2805   -4.2426    0.0000 C   0  0  1  0  0  0  0  0  0  0  0  0
   11.1407   -4.7526    0.0000 C   0  0  1  0  0  0  0  0  0  0  0  0
   10.2921   -3.2426    0.0000 C   0  0  2  0  0  0  0  0  0  0  0  0
   12.0125   -4.2626    0.0000 C   0  0  1  0  0  0  0  0  0  0  0  0
    9.4651    1.2787    0.0000 C   0  0  1  0  0  0  0  0  0  0  0  0
   11.1638   -2.7527    0.0000 C   0  0  1  0  0  0  0  0  0  0  0  0
    6.8671    1.7787    0.0000 C   0  0  0  0  0  0  0  0  0  0  0  0
   12.8727   -4.7726    0.0000 C   0  0  0  0  0  0  0  0  0  0  0  0
   11.1972    1.2787    0.0000 C   0  0  0  0  0  0  0  0  0  0  0  0
   12.0472   -1.2628    0.0000 C   0  0  0  0  0  0  0  0  0  0  0  0
   12.0632   -0.2213    0.0000 C   0  0  0  0  0  0  0  0  0  0  0  0
   11.1972    0.2787    0.0000 C   0  0  0  0  0  0  0  0  0  0  0  0
   12.0632    1.7787    0.0000 C   0  0  0  0  0  0  0  0  0  0  0  0
   12.9292    0.2787    0.0000 C   0  0  0  0  0  0  0  0  0  0  0  0
   12.9452   -1.7906    0.0000 C   0  0  0  0  0  0  0  0  0  0  0  0
   13.8392   -0.2281    0.0000 C   0  0  0  0  0  0  0  0  0  0  0  0
   13.8473   -1.2697    0.0000 C   0  0  0  0  0  0  0  0  0  0  0  0
   12.0632    2.7787    0.0000 C   0  0  0  0  0  0  0  0  0  0  0  0
    5.1350    1.7787    0.0000 C   0  0  0  0  0  0  0  0  0  0  0  0
    4.2690    1.2787    0.0000 C   0  0  0  0  0  0  0  0  0  0  0  0
   12.9292    3.2787    0.0000 C   0  0  0  0  0  0  0  0  0  0  0  0
   11.1972    3.2787    0.0000 C   0  0  0  0  0  0  0  0  0  0  0  0
   12.9292    4.2787    0.0000 C   0  0  0  0  0  0  0  0  0  0  0  0
   11.1972    4.2787    0.0000 C   0  0  0  0  0  0  0  0  0  0  0  0
   12.0632    4.7787    0.0000 C   0  0  0  0  0  0  0  0  0  0  0  0
    3.4030    1.7787    0.0000 C   0  0  0  0  0  0  0  0  0  0  0  0
   14.6613    4.2787    0.0000 C   0  0  0  0  0  0  0  0  0  0  0  0
    7.7331   -0.3413    0.0000 H   0  0  0  0  0  0  0  0  0  0  0  0
    9.1360   -0.5313    0.0000 H   0  0  0  0  0  0  0  0  0  0  0  0
    7.7331    1.8987    0.0000 H   0  0  0  0  0  0  0  0  0  0  0  0
   10.0021    0.5887    0.0000 H   0  0  0  0  0  0  0  0  0  0  0  0
    9.7472   -3.9264    0.0000 H   0  0  0  0  0  0  0  0  0  0  0  0
   11.6740   -5.0687    0.0000 H   0  0  0  0  0  0  0  0  0  0  0  0
   10.2993   -2.6227    0.0000 H   0  0  0  0  0  0  0  0  0  0  0  0
   12.5530   -3.9588    0.0000 H   0  0  0  0  0  0  0  0  0  0  0  0
    9.4651    1.8987    0.0000 H   0  0  0  0  0  0  0  0  0  0  0  0
   11.7043   -2.4489    0.0000 H   0  0  0  0  0  0  0  0  0  0  0  0
    7.2656    2.2536    0.0000 H   0  0  0  0  0  0  0  0  0  0  0  0
    6.4685    2.2536    0.0000 H   0  0  0  0  0  0  0  0  0  0  0  0
   13.4819   -4.8873    0.0000 H   0  0  0  0  0  0  0  0  0  0  0  0
   13.0914   -4.1925    0.0000 H   0  0  0  0  0  0  0  0  0  0  0  0
    6.8671   -0.8413    0.0000 H   0  0  0  0  0  0  0  0  0  0  0  0
    8.0622   -1.5313    0.0000 H   0  0  0  0  0  0  0  0  0  0  0  0
   10.3312   -0.8413    0.0000 H   0  0  0  0  0  0  0  0  0  0  0  0
    9.4016   -5.3525    0.0000 H   0  0  0  0  0  0  0  0  0  0  0  0
   10.5887   -6.0563    0.0000 H   0  0  0  0  0  0  0  0  0  0  0  0
    8.8914   -3.0364    0.0000 H   0  0  0  0  0  0  0  0  0  0  0  0
   10.6603   -0.0313    0.0000 H   0  0  0  0  0  0  0  0  0  0  0  0
   13.3944   -6.0887    0.0000 H   0  0  0  0  0  0  0  0  0  0  0  0
   12.9428   -2.4106    0.0000 H   0  0  0  0  0  0  0  0  0  0  0  0
   14.3726    0.0880    0.0000 H   0  0  0  0  0  0  0  0  0  0  0  0
    3.8705    0.8038    0.0000 H   0  0  0  0  0  0  0  0  0  0  0  0
    4.6675    0.8038    0.0000 H   0  0  0  0  0  0  0  0  0  0  0  0
   13.4662    2.9687    0.0000 H   0  0  0  0  0  0  0  0  0  0  0  0
   10.6603    2.9687    0.0000 H   0  0  0  0  0  0  0  0  0  0  0  0
   15.2510   -1.4543    0.0000 H   0  0  0  0  0  0  0  0  0  0  0  0
   10.6603    4.5887    0.0000 H   0  0  0  0  0  0  0  0  0  0  0  0
   11.5263    6.0887    0.0000 H   0  0  0  0  0  0  0  0  0  0  0  0
    2.0000    1.5887    0.0000 H   0  0  0  0  0  0  0  0  0  0  0  0
   14.3513    3.7418    0.0000 H   0  0  0  0  0  0  0  0  0  0  0  0
   15.1982    3.9687    0.0000 H   0  0  0  0  0  0  0  0  0  0  0  0
   14.9713    4.8156    0.0000 H   0  0  0  0  0  0  0  0  0  0  0  0
  1 22  1  0  0  0  0
  1 28  1  0  0  0  0
  2 27  1  0  0  0  0
  2 29  1  0  0  0  0
  3 32  1  0  0  0  0
  4 33  1  0  0  0  0
  5 65  1  0  0  0  0
  6 66  1  0  0  0  0
  7 67  1  0  0  0  0
  8 68  1  0  0  0  0
  9 69  1  0  0  0  0
 10 70  1  0  0  0  0
 11 30  1  0  0  0  0
 11 42  1  0  0  0  0
 12 31  1  0  0  0  0
 12 72  1  0  0  0  0
 13 36  1  0  0  0  0
 13 37  2  0  0  0  0
 14 40  1  0  0  0  0
 14 79  1  0  0  0  0
 15 42  2  0  0  0  0
 16 46  1  0  0  0  0
 16 50  1  0  0  0  0
 17 48  1  0  0  0  0
 17 81  1  0  0  0  0
 18 49  1  0  0  0  0
 18 82  1  0  0  0  0
 19 49  2  0  0  0  0
 20  5  1  0  0  0  0
 20 21  1  6  0  0  0
 20 51  1  0  0  0  0
 21  6  1  0  0  0  0
 21 23  1  1  0  0  0
 21 52  1  0  0  0  0
 22 20  1  6  0  0  0
 22 30  1  0  0  0  0
 22 53  1  0  0  0  0
 23  7  1  0  0  0  0
 23 28  1  6  0  0  0
 23 54  1  0  0  0  0
 24  8  1  0  0  0  0
 24 25  1  1  0  0  0
 24 55  1  0  0  0  0
 25  9  1  0  0  0  0
 25 27  1  1  0  0  0
 25 56  1  0  0  0  0
 26 10  1  0  0  0  0
 26 24  1  6  0  0  0
 26 57  1  0  0  0  0
 27 31  1  0  0  0  0
 27 58  1  1  0  0  0
 28  3  1  0  0  0  0
 28 59  1  6  0  0  0
 29  4  1  0  0  0  0
 29 26  1  1  0  0  0
 29 60  1  0  0  0  0
 30 61  1  0  0  0  0
 30 62  1  0  0  0  0
 31 63  1  0  0  0  0
 31 64  1  0  0  0  0
 32 35  1  0  0  0  0
 32 36  2  0  0  0  0
 33 34  1  0  0  0  0
 33 38  2  0  0  0  0
 34 35  2  0  0  0  0
 34 37  1  0  0  0  0
 35 71  1  0  0  0  0
 36 41  1  0  0  0  0
 37 39  1  0  0  0  0
 38 40  1  0  0  0  0
 38 73  1  0  0  0  0
 39 40  2  0  0  0  0
 39 74  1  0  0  0  0
 41 44  2  0  0  0  0
 41 45  1  0  0  0  0
 42 43  1  0  0  0  0
 43 49  1  0  0  0  0
 43 75  1  0  0  0  0
 43 76  1  0  0  0  0
 44 46  1  0  0  0  0
 44 77  1  0  0  0  0
 45 47  2  0  0  0  0
 45 78  1  0  0  0  0
 46 48  2  0  0  0  0
 47 48  1  0  0  0  0
 47 80  1  0  0  0  0
 50 83  1  0  0  0  0
 50 84  1  0  0  0  0
 50 85  1  0  0  0  0
M  CHG  1  13   1
M  END
>  <PUBCHEM_COMPOUND_CID>
101268578

>  <PUBCHEM_COMPOUND_CANONICALIZED>
1

>  <PUBCHEM_CACTVS_COMPLEXITY>
1130

>  <PUBCHEM_CACTVS_HBOND_ACCEPTOR>
18

>  <PUBCHEM_CACTVS_HBOND_DONOR>
10

>  <PUBCHEM_CACTVS_ROTATABLE_BOND>
12

>  <PUBCHEM_CACTVS_SUBSKEYS>
AAADcfB4PgAAAAAAAAAAAAAAAAAAAAAAAAA0aJECAAAAAACR9AAAGgAACAAADBSwmAMyDsAABkCIAqDSCAICCAAkIAAIiAFGiMgdNzaONR6ieWOl4BUPuYfK7PzOIAABCAAIQABAAAIQABCAAAAAAAAAAA==

>  <PUBCHEM_IUPAC_OPENEYE_NAME>
3-oxo-3-[[(2R,3S,4S,5R,6S)-3,4,5-trihydroxy-6-[7-hydroxy-2-(4-hydroxy-3-methoxy-phenyl)-5-[(2S,3R,4S,5S,6R)-3,4,5-trihydroxy-6-(hydroxymethyl)tetrahydropyran-2-yl]oxy-chromenylium-3-yl]oxy-tetrahydropyran-2-yl]methoxy]propanoic acid

>  <PUBCHEM_IUPAC_CAS_NAME>
3-oxo-3-[[(2R,3S,4S,5R,6S)-3,4,5-trihydroxy-6-[[7-hydroxy-2-(4-hydroxy-3-methoxyphenyl)-5-[[(2S,3R,4S,5S,6R)-3,4,5-trihydroxy-6-(hydroxymethyl)-2-oxanyl]oxy]-1-benzopyrylium-3-yl]oxy]-2-oxanyl]methoxy]propanoic acid

>  <PUBCHEM_IUPAC_NAME>
3-oxo-3-[[(2R,3S,4S,5R,6S)-3,4,5-trihydroxy-6-[7-hydroxy-2-(4-hydroxy-3-methoxyphenyl)-5-[(2S,3R,4S,5S,6R)-3,4,5-trihydroxy-6-(hydroxymethyl)oxan-2-yl]oxychromenylium-3-yl]oxyoxan-2-yl]methoxy]propanoic acid

>  <PUBCHEM_IUPAC_SYSTEMATIC_NAME>
3-[[(2R,3S,4S,5R,6S)-6-[5-[(2S,3R,4S,5S,6R)-6-(hydroxymethyl)-3,4,5-tris(oxidanyl)oxan-2-yl]oxy-2-(3-methoxy-4-oxidanyl-phenyl)-7-oxidanyl-chromenylium-3-yl]oxy-3,4,5-tris(oxidanyl)oxan-2-yl]methoxy]-3-oxidanylidene-propanoic acid

>  <PUBCHEM_IUPAC_TRADITIONAL_NAME>
3-keto-3-[[(2R,3S,4S,5R,6S)-3,4,5-trihydroxy-6-[[7-hydroxy-2-(4-hydroxy-3-methoxy-phenyl)-5-[(2S,3R,4S,5S,6R)-3,4,5-trihydroxy-6-methylol-tetrahydropyran-2-yl]oxy-1-benzopyrylium-3-yl]oxy]tetrahydropyran-2-yl]methoxy]propionic acid

>  <PUBCHEM_IUPAC_INCHI>
InChI=1S/C31H34O19/c1-44-17-4-11(2-3-14(17)34)29-18(48-31-28(43)26(41)24(39)20(50-31)10-45-22(37)8-21(35)36)7-13-15(46-29)5-12(33)6-16(13)47-30-27(42)25(40)23(38)19(9-32)49-30/h2-7,19-20,23-28,30-32,38-43H,8-10H2,1H3,(H2-,33,34,35,36)/p+1/t19-,20-,23-,24-,25+,26+,27-,28-,30-,31-/m1/s1

>  <PUBCHEM_IUPAC_INCHIKEY>
AEMHVTCADJQUIP-UPJXQTEWSA-O

>  <PUBCHEM_EXACT_MASS>
711.177

>  <PUBCHEM_MOLECULAR_FORMULA>
C31H35O19+

>  <PUBCHEM_MOLECULAR_WEIGHT>
711.602

>  <PUBCHEM_OPENEYE_CAN_SMILES>
COC1=C(C=CC(=C1)C2=C(C=C3C(=CC(=CC3=[O+]2)O)OC4C(C(C(C(O4)CO)O)O)O)OC5C(C(C(C(O5)COC(=O)CC(=O)O)O)O)O)O

>  <PUBCHEM_OPENEYE_ISO_SMILES>
COC1=C(C=CC(=C1)C2=C(C=C3C(=CC(=CC3=[O+]2)O)O[C@H]4[C@@H]([C@H]([C@@H]([C@H](O4)CO)O)O)O)O[C@H]5[C@@H]([C@H]([C@@H]([C@H](O5)COC(=O)CC(=O)O)O)O)O)O

>  <PUBCHEM_CACTVS_TPSA>
293

>  <PUBCHEM_MONOISOTOPIC_WEIGHT>
711.177

>  <PUBCHEM_TOTAL_CHARGE>
1

>  <PUBCHEM_HEAVY_ATOM_COUNT>
50

>  <PUBCHEM_ATOM_DEF_STEREO_COUNT>
10

>  <PUBCHEM_ATOM_UDEF_STEREO_COUNT>
0

>  <PUBCHEM_BOND_DEF_STEREO_COUNT>
0

>  <PUBCHEM_BOND_UDEF_STEREO_COUNT>
0

>  <PUBCHEM_ISOTOPIC_ATOM_COUNT>
0

>  <PUBCHEM_COMPONENT_COUNT>
1

>  <PUBCHEM_CACTVS_TAUTO_COUNT>
72

>  <PUBCHEM_COORDINATE_TYPE>
1
5
255

>  <PUBCHEM_BONDANNOTATIONS>
26  10  5
13  36  8
13  37  8
22  30  5
27  31  6
28  3  5
32  35  8
32  36  8
33  34  8
33  38  8
34  35  8
34  37  8
37  39  8
38  40  8
39  40  8
29  4  6
41  44  8
41  45  8
44  46  8
45  47  8
46  48  8
47  48  8
20  5  6
21  6  5
23  7  6
24  8  6
25  9  5

$$$$
