10129986
 OpenBabel06101807152D

 15 14  0  0  1  0  0  0  0  0999 V2000
    2.8660   -0.0600    0.0000 S   0  0  3  0  0  0  0  0  0  0  0  0
    3.7320    0.4400    0.0000 S   0  0  0  0  0  0  0  0  0  0  0  0
    2.8660   -1.0600    0.0000 O   0  0  0  0  0  0  0  0  0  0  0  0
    2.0000    0.4400    0.0000 C   0  0  0  0  0  0  0  0  0  0  0  0
    5.4641    0.4400    0.0000 C   0  0  0  0  0  0  0  0  0  0  0  0
    4.5981   -0.0600    0.0000 C   0  0  0  0  0  0  0  0  0  0  0  0
    6.3301   -0.0600    0.0000 C   0  0  0  0  0  0  0  0  0  0  0  0
    2.3100    0.9769    0.0000 H   0  0  0  0  0  0  0  0  0  0  0  0
    1.4631    0.7500    0.0000 H   0  0  0  0  0  0  0  0  0  0  0  0
    1.6900   -0.0969    0.0000 H   0  0  0  0  0  0  0  0  0  0  0  0
    5.4641    1.0600    0.0000 H   0  0  0  0  0  0  0  0  0  0  0  0
    4.5981   -0.6800    0.0000 H   0  0  0  0  0  0  0  0  0  0  0  0
    6.0201   -0.5969    0.0000 H   0  0  0  0  0  0  0  0  0  0  0  0
    6.8671   -0.3700    0.0000 H   0  0  0  0  0  0  0  0  0  0  0  0
    6.6401    0.4769    0.0000 H   0  0  0  0  0  0  0  0  0  0  0  0
  1  2  1  0  0  0  0
  1  3  2  0  0  0  0
  1  4  1  0  0  0  0
  2  6  1  0  0  0  0
  4  8  1  0  0  0  0
  4  9  1  0  0  0  0
  4 10  1  0  0  0  0
  5  6  2  0  0  0  0
  5  7  1  0  0  0  0
  5 11  1  0  0  0  0
  6 12  1  0  0  0  0
  7 13  1  0  0  0  0
  7 14  1  0  0  0  0
  7 15  1  0  0  0  0
M  END
>  <PUBCHEM_COMPOUND_CID>
10129986

>  <PUBCHEM_COMPOUND_CANONICALIZED>
1

>  <PUBCHEM_CACTVS_COMPLEXITY>
87.7

>  <PUBCHEM_CACTVS_HBOND_ACCEPTOR>
3

>  <PUBCHEM_CACTVS_HBOND_DONOR>
0

>  <PUBCHEM_CACTVS_ROTATABLE_BOND>
2

>  <PUBCHEM_CACTVS_SUBSKEYS>
AAADccBgIABgAAAAAAAAAAAAAAAAAAAAAAAAAAAAAAAAAAAAAAAAGAQAAAAACACEQACCAAAAAAKAACBCAEAAAAAAAAAIAAAAAAAAAAAAAQAAAAAAAAAAAAAAAAAAAAAAAAAAAAAAAAAAAAAAAAAAAAAAAA==

>  <PUBCHEM_IUPAC_OPENEYE_NAME>
(E)-1-methylsulfinylsulfanylprop-1-ene

>  <PUBCHEM_IUPAC_CAS_NAME>
(E)-1-(methylsulfinylthio)-1-propene

>  <PUBCHEM_IUPAC_NAME>
(E)-1-methylsulfinylsulfanylprop-1-ene

>  <PUBCHEM_IUPAC_SYSTEMATIC_NAME>
(E)-1-methylsulfinylsulfanylprop-1-ene

>  <PUBCHEM_IUPAC_TRADITIONAL_NAME>
(E)-1-(methylsulfinylthio)prop-1-ene

>  <PUBCHEM_IUPAC_INCHI>
InChI=1S/C4H8OS2/c1-3-4-6-7(2)5/h3-4H,1-2H3/b4-3+

>  <PUBCHEM_IUPAC_INCHIKEY>
FCQZRAVPZFRUNA-ONEGZZNKSA-N

>  <PUBCHEM_XLOGP3_AA>
0.6

>  <PUBCHEM_EXACT_MASS>
136.002

>  <PUBCHEM_MOLECULAR_FORMULA>
C4H8OS2

>  <PUBCHEM_MOLECULAR_WEIGHT>
136.227

>  <PUBCHEM_OPENEYE_CAN_SMILES>
CC=CSS(=O)C

>  <PUBCHEM_OPENEYE_ISO_SMILES>
C/C=C/SS(=O)C

>  <PUBCHEM_CACTVS_TPSA>
61.6

>  <PUBCHEM_MONOISOTOPIC_WEIGHT>
136.002

>  <PUBCHEM_TOTAL_CHARGE>
0

>  <PUBCHEM_HEAVY_ATOM_COUNT>
7

>  <PUBCHEM_ATOM_DEF_STEREO_COUNT>
0

>  <PUBCHEM_ATOM_UDEF_STEREO_COUNT>
1

>  <PUBCHEM_BOND_DEF_STEREO_COUNT>
1

>  <PUBCHEM_BOND_UDEF_STEREO_COUNT>
0

>  <PUBCHEM_ISOTOPIC_ATOM_COUNT>
0

>  <PUBCHEM_COMPONENT_COUNT>
1

>  <PUBCHEM_CACTVS_TAUTO_COUNT>
1

>  <PUBCHEM_COORDINATE_TYPE>
1
5
255

>  <PUBCHEM_BONDANNOTATIONS>
1  4  3

$$$$
