101227525
 OpenBabel06101807152D

 89 94  0  0  1  0  0  0  0  0999 V2000
   14.6613   -1.6725    0.0000 O   0  0  0  0  0  0  0  0  0  0  0  0
   11.1972   -1.6725    0.0000 O   0  0  0  0  0  0  0  0  0  0  0  0
   12.9292   -1.6725    0.0000 O   0  0  0  0  0  0  0  0  0  0  0  0
   15.5273    0.8275    0.0000 O   0  0  0  0  0  0  0  0  0  0  0  0
   17.2594   -0.1725    0.0000 O   0  0  0  0  0  0  0  0  0  0  0  0
   17.2594   -2.1725    0.0000 O   0  0  0  0  0  0  0  0  0  0  0  0
   11.1972   -4.6725    0.0000 O   0  0  0  0  0  0  0  0  0  0  0  0
   12.9292   -3.6725    0.0000 O   0  0  0  0  0  0  0  0  0  0  0  0
    9.4651   -3.6725    0.0000 O   0  0  0  0  0  0  0  0  0  0  0  0
   16.3933   -3.6725    0.0000 O   0  0  0  0  0  0  0  0  0  0  0  0
   14.6613    1.3275    0.0000 O   0  0  0  0  0  0  0  0  0  0  0  0
    8.5991   -2.1725    0.0000 O   0  0  0  0  0  0  0  0  0  0  0  0
   11.1532    1.3343    0.0000 O   0  0  0  0  0  0  0  0  0  0  0  0
   13.8170    2.8589    0.0000 O   0  0  0  0  0  0  0  0  0  0  0  0
    7.7331   -0.6725    0.0000 O   0  0  0  0  0  0  0  0  0  0  0  0
    7.6734    4.3625    0.0000 O   0  0  0  0  0  0  0  0  0  0  0  0
    2.5369   -3.6725    0.0000 O   0  0  0  0  0  0  0  0  0  0  0  0
   14.6613   -0.6725    0.0000 C   0  0  2  0  0  0  0  0  0  0  0  0
   15.5273   -0.1725    0.0000 C   0  0  1  0  0  0  0  0  0  0  0  0
   16.3933   -0.6725    0.0000 C   0  0  2  0  0  0  0  0  0  0  0  0
   16.3933   -1.6725    0.0000 C   0  0  1  0  0  0  0  0  0  0  0  0
   15.5273   -2.1725    0.0000 C   0  0  1  0  0  0  0  0  0  0  0  0
   13.7953   -0.1725    0.0000 C   0  0  0  0  0  0  0  0  0  0  0  0
   11.1972   -3.6725    0.0000 C   0  0  2  0  0  0  0  0  0  0  0  0
   12.0632   -3.1725    0.0000 C   0  0  2  0  0  0  0  0  0  0  0  0
   10.3312   -3.1725    0.0000 C   0  0  1  0  0  0  0  0  0  0  0  0
   12.0632   -2.1725    0.0000 C   0  0  1  0  0  0  0  0  0  0  0  0
   10.3312   -2.1725    0.0000 C   0  0  1  0  0  0  0  0  0  0  0  0
   12.9292   -0.6725    0.0000 C   0  0  0  0  0  0  0  0  0  0  0  0
   15.5273   -3.1725    0.0000 C   0  0  0  0  0  0  0  0  0  0  0  0
   13.7953    0.8275    0.0000 C   0  0  0  0  0  0  0  0  0  0  0  0
    9.4651   -1.6725    0.0000 C   0  0  0  0  0  0  0  0  0  0  0  0
   12.0632   -0.1725    0.0000 C   0  0  0  0  0  0  0  0  0  0  0  0
   12.9292    1.3275    0.0000 C   0  0  0  0  0  0  0  0  0  0  0  0
   12.0632    0.8275    0.0000 C   0  0  0  0  0  0  0  0  0  0  0  0
   12.9453    2.3690    0.0000 C   0  0  0  0  0  0  0  0  0  0  0  0
   12.0473    2.8967    0.0000 C   0  0  0  0  0  0  0  0  0  0  0  0
   11.1452    2.3759    0.0000 C   0  0  0  0  0  0  0  0  0  0  0  0
    7.7331   -1.6725    0.0000 C   0  0  0  0  0  0  0  0  0  0  0  0
   10.2772    2.8726    0.0000 C   0  0  0  0  0  0  0  0  0  0  0  0
    6.8671   -2.1725    0.0000 C   0  0  0  0  0  0  0  0  0  0  0  0
   10.2734    3.8726    0.0000 C   0  0  0  0  0  0  0  0  0  0  0  0
    9.4132    2.3692    0.0000 C   0  0  0  0  0  0  0  0  0  0  0  0
    9.4054    4.3692    0.0000 C   0  0  0  0  0  0  0  0  0  0  0  0
    8.5452    2.8659    0.0000 C   0  0  0  0  0  0  0  0  0  0  0  0
    6.0010   -1.6725    0.0000 C   0  0  0  0  0  0  0  0  0  0  0  0
    8.5414    3.8659    0.0000 C   0  0  0  0  0  0  0  0  0  0  0  0
    5.1350   -2.1725    0.0000 C   0  0  0  0  0  0  0  0  0  0  0  0
    4.2690   -1.6725    0.0000 C   0  0  0  0  0  0  0  0  0  0  0  0
    5.1350   -3.1725    0.0000 C   0  0  0  0  0  0  0  0  0  0  0  0
    3.4030   -2.1725    0.0000 C   0  0  0  0  0  0  0  0  0  0  0  0
    4.2690   -3.6725    0.0000 C   0  0  0  0  0  0  0  0  0  0  0  0
    3.4030   -3.1725    0.0000 C   0  0  0  0  0  0  0  0  0  0  0  0
   13.9252   -1.0975    0.0000 H   0  0  0  0  0  0  0  0  0  0  0  0
   14.9904    0.1375    0.0000 H   0  0  0  0  0  0  0  0  0  0  0  0
   16.9303   -0.9825    0.0000 H   0  0  0  0  0  0  0  0  0  0  0  0
   16.3933   -2.2925    0.0000 H   0  0  0  0  0  0  0  0  0  0  0  0
   14.9904   -2.4825    0.0000 H   0  0  0  0  0  0  0  0  0  0  0  0
   11.7341   -3.9825    0.0000 H   0  0  0  0  0  0  0  0  0  0  0  0
   12.6002   -2.8625    0.0000 H   0  0  0  0  0  0  0  0  0  0  0  0
    9.7942   -2.8625    0.0000 H   0  0  0  0  0  0  0  0  0  0  0  0
   12.0632   -1.5525    0.0000 H   0  0  0  0  0  0  0  0  0  0  0  0
   10.3312   -1.5525    0.0000 H   0  0  0  0  0  0  0  0  0  0  0  0
   14.9167   -3.0649    0.0000 H   0  0  0  0  0  0  0  0  0  0  0  0
   15.3153   -3.7552    0.0000 H   0  0  0  0  0  0  0  0  0  0  0  0
    9.8637   -1.1976    0.0000 H   0  0  0  0  0  0  0  0  0  0  0  0
    9.0666   -1.1976    0.0000 H   0  0  0  0  0  0  0  0  0  0  0  0
   16.0643    1.1375    0.0000 H   0  0  0  0  0  0  0  0  0  0  0  0
   17.7963   -0.4825    0.0000 H   0  0  0  0  0  0  0  0  0  0  0  0
   17.7963   -1.8625    0.0000 H   0  0  0  0  0  0  0  0  0  0  0  0
   11.5263   -0.4825    0.0000 H   0  0  0  0  0  0  0  0  0  0  0  0
   10.6603   -4.9825    0.0000 H   0  0  0  0  0  0  0  0  0  0  0  0
   12.9292   -4.2925    0.0000 H   0  0  0  0  0  0  0  0  0  0  0  0
    9.4651   -4.2925    0.0000 H   0  0  0  0  0  0  0  0  0  0  0  0
   16.3933   -4.2925    0.0000 H   0  0  0  0  0  0  0  0  0  0  0  0
   14.6613    1.9475    0.0000 H   0  0  0  0  0  0  0  0  0  0  0  0
   12.0497    3.5167    0.0000 H   0  0  0  0  0  0  0  0  0  0  0  0
    6.8671   -2.7925    0.0000 H   0  0  0  0  0  0  0  0  0  0  0  0
   10.8091    4.1846    0.0000 H   0  0  0  0  0  0  0  0  0  0  0  0
    9.4155    1.7492    0.0000 H   0  0  0  0  0  0  0  0  0  0  0  0
    9.4030    4.9892    0.0000 H   0  0  0  0  0  0  0  0  0  0  0  0
    8.0095    2.5538    0.0000 H   0  0  0  0  0  0  0  0  0  0  0  0
    6.0010   -1.0525    0.0000 H   0  0  0  0  0  0  0  0  0  0  0  0
    7.6710    4.9825    0.0000 H   0  0  0  0  0  0  0  0  0  0  0  0
    4.2690   -1.0525    0.0000 H   0  0  0  0  0  0  0  0  0  0  0  0
    5.6720   -3.4825    0.0000 H   0  0  0  0  0  0  0  0  0  0  0  0
    2.8660   -1.8625    0.0000 H   0  0  0  0  0  0  0  0  0  0  0  0
    4.2690   -4.2925    0.0000 H   0  0  0  0  0  0  0  0  0  0  0  0
    2.0000   -3.3625    0.0000 H   0  0  0  0  0  0  0  0  0  0  0  0
  1 18  1  0  0  0  0
  1 22  1  0  0  0  0
  2 27  1  0  0  0  0
  2 28  1  0  0  0  0
  3 29  1  0  0  0  0
  4 68  1  0  0  0  0
  5 69  1  0  0  0  0
  6 70  1  0  0  0  0
  7 72  1  0  0  0  0
  8 73  1  0  0  0  0
  9 74  1  0  0  0  0
 10 30  1  0  0  0  0
 10 75  1  0  0  0  0
 11 31  1  0  0  0  0
 11 76  1  0  0  0  0
 12 32  1  0  0  0  0
 12 39  1  0  0  0  0
 13 35  1  0  0  0  0
 13 38  1  0  0  0  0
 14 36  2  0  0  0  0
 15 39  2  0  0  0  0
 16 47  1  0  0  0  0
 16 84  1  0  0  0  0
 17 53  1  0  0  0  0
 17 89  1  0  0  0  0
 18 19  1  6  0  0  0
 18 23  1  0  0  0  0
 18 54  1  0  0  0  0
 19  4  1  0  0  0  0
 19 20  1  1  0  0  0
 19 55  1  0  0  0  0
 20  5  1  0  0  0  0
 20 21  1  1  0  0  0
 20 56  1  0  0  0  0
 21  6  1  0  0  0  0
 21 22  1  6  0  0  0
 21 57  1  0  0  0  0
 22 30  1  0  0  0  0
 22 58  1  6  0  0  0
 23 29  2  0  0  0  0
 23 31  1  0  0  0  0
 24  7  1  0  0  0  0
 24 25  1  1  0  0  0
 24 59  1  0  0  0  0
 25  8  1  0  0  0  0
 25 27  1  6  0  0  0
 25 60  1  0  0  0  0
 26  9  1  0  0  0  0
 26 24  1  1  0  0  0
 26 61  1  0  0  0  0
 27  3  1  0  0  0  0
 27 62  1  6  0  0  0
 28 26  1  6  0  0  0
 28 32  1  0  0  0  0
 28 63  1  0  0  0  0
 29 33  1  0  0  0  0
 30 64  1  0  0  0  0
 30 65  1  0  0  0  0
 31 34  2  0  0  0  0
 32 66  1  0  0  0  0
 32 67  1  0  0  0  0
 33 35  2  0  0  0  0
 33 71  1  0  0  0  0
 34 35  1  0  0  0  0
 34 36  1  0  0  0  0
 36 37  1  0  0  0  0
 37 38  2  0  0  0  0
 37 77  1  0  0  0  0
 38 40  1  0  0  0  0
 39 41  1  0  0  0  0
 40 42  2  0  0  0  0
 40 43  1  0  0  0  0
 41 46  2  0  0  0  0
 41 78  1  0  0  0  0
 42 44  1  0  0  0  0
 42 79  1  0  0  0  0
 43 45  2  0  0  0  0
 43 80  1  0  0  0  0
 44 47  2  0  0  0  0
 44 81  1  0  0  0  0
 45 47  1  0  0  0  0
 45 82  1  0  0  0  0
 46 48  1  0  0  0  0
 46 83  1  0  0  0  0
 48 49  2  0  0  0  0
 48 50  1  0  0  0  0
 49 51  1  0  0  0  0
 49 85  1  0  0  0  0
 50 52  2  0  0  0  0
 50 86  1  0  0  0  0
 51 53  2  0  0  0  0
 51 87  1  0  0  0  0
 52 53  1  0  0  0  0
 52 88  1  0  0  0  0
M  END
>  <PUBCHEM_COMPOUND_CID>
101227525

>  <PUBCHEM_COMPOUND_CANONICALIZED>
1

>  <PUBCHEM_CACTVS_COMPLEXITY>
1310

>  <PUBCHEM_CACTVS_HBOND_ACCEPTOR>
17

>  <PUBCHEM_CACTVS_HBOND_DONOR>
10

>  <PUBCHEM_CACTVS_ROTATABLE_BOND>
10

>  <PUBCHEM_CACTVS_SUBSKEYS>
AAADcfB8PgAAAAAAAAAAAAAAAAAAAAAAAAA0aMECAAAAAACBUAAAGgAACAAADBSwmAMwDoAABgCIAqDSCAACCAAkIAAIiAEGCMgdNzaGNRqieWCl4BUPuYfI7PzOIAACCAAIAABAAAQQABAAAAAAAAAAAA==

>  <PUBCHEM_IUPAC_OPENEYE_NAME>
[(2R,3S,4S,5R,6S)-3,4,5-trihydroxy-6-[5-hydroxy-2-(4-hydroxyphenyl)-4-oxo-6-[(2S,3R,4R,5S,6R)-3,4,5-trihydroxy-6-(hydroxymethyl)tetrahydropyran-2-yl]chromen-7-yl]oxy-tetrahydropyran-2-yl]methyl (E)-3-(4-hydroxyphenyl)prop-2-enoate

>  <PUBCHEM_IUPAC_CAS_NAME>
(E)-3-(4-hydroxyphenyl)-2-propenoic acid [(2R,3S,4S,5R,6S)-3,4,5-trihydroxy-6-[[5-hydroxy-2-(4-hydroxyphenyl)-4-oxo-6-[(2S,3R,4R,5S,6R)-3,4,5-trihydroxy-6-(hydroxymethyl)-2-oxanyl]-1-benzopyran-7-yl]oxy]-2-oxanyl]methyl ester

>  <PUBCHEM_IUPAC_NAME>
[(2R,3S,4S,5R,6S)-3,4,5-trihydroxy-6-[5-hydroxy-2-(4-hydroxyphenyl)-4-oxo-6-[(2S,3R,4R,5S,6R)-3,4,5-trihydroxy-6-(hydroxymethyl)oxan-2-yl]chromen-7-yl]oxyoxan-2-yl]methyl (E)-3-(4-hydroxyphenyl)prop-2-enoate

>  <PUBCHEM_IUPAC_SYSTEMATIC_NAME>
[(2R,3S,4S,5R,6S)-6-[6-[(2S,3R,4R,5S,6R)-6-(hydroxymethyl)-3,4,5-tris(oxidanyl)oxan-2-yl]-2-(4-hydroxyphenyl)-5-oxidanyl-4-oxidanylidene-chromen-7-yl]oxy-3,4,5-tris(oxidanyl)oxan-2-yl]methyl (E)-3-(4-hydroxyphenyl)prop-2-enoate

>  <PUBCHEM_IUPAC_TRADITIONAL_NAME>
(E)-3-(4-hydroxyphenyl)acrylic acid [(2R,3S,4S,5R,6S)-3,4,5-trihydroxy-6-[5-hydroxy-2-(4-hydroxyphenyl)-4-keto-6-[(2S,3R,4R,5S,6R)-3,4,5-trihydroxy-6-methylol-tetrahydropyran-2-yl]chromen-7-yl]oxy-tetrahydropyran-2-yl]methyl ester

>  <PUBCHEM_IUPAC_INCHI>
InChI=1S/C36H36O17/c37-13-23-28(42)31(45)33(47)35(51-23)27-22(12-21-26(30(27)44)19(40)11-20(50-21)16-4-8-18(39)9-5-16)52-36-34(48)32(46)29(43)24(53-36)14-49-25(41)10-3-15-1-6-17(38)7-2-15/h1-12,23-24,28-29,31-39,42-48H,13-14H2/b10-3+/t23-,24-,28-,29-,31+,32+,33-,34-,35+,36-/m1/s1

>  <PUBCHEM_IUPAC_INCHIKEY>
NUFCZKSATPHTRO-RPWCKPLOSA-N

>  <PUBCHEM_XLOGP3_AA>
0.2

>  <PUBCHEM_EXACT_MASS>
740.195

>  <PUBCHEM_MOLECULAR_FORMULA>
C36H36O17

>  <PUBCHEM_MOLECULAR_WEIGHT>
740.667

>  <PUBCHEM_OPENEYE_CAN_SMILES>
C1=CC(=CC=C1C=CC(=O)OCC2C(C(C(C(O2)OC3=C(C(=C4C(=C3)OC(=CC4=O)C5=CC=C(C=C5)O)O)C6C(C(C(C(O6)CO)O)O)O)O)O)O)O

>  <PUBCHEM_OPENEYE_ISO_SMILES>
C1=CC(=CC=C1/C=C/C(=O)OC[C@@H]2[C@H]([C@@H]([C@H]([C@@H](O2)OC3=C(C(=C4C(=C3)OC(=CC4=O)C5=CC=C(C=C5)O)O)[C@H]6[C@@H]([C@H]([C@@H]([C@H](O6)CO)O)O)O)O)O)O)O

>  <PUBCHEM_CACTVS_TPSA>
283

>  <PUBCHEM_MONOISOTOPIC_WEIGHT>
740.195

>  <PUBCHEM_TOTAL_CHARGE>
0

>  <PUBCHEM_HEAVY_ATOM_COUNT>
53

>  <PUBCHEM_ATOM_DEF_STEREO_COUNT>
10

>  <PUBCHEM_ATOM_UDEF_STEREO_COUNT>
0

>  <PUBCHEM_BOND_DEF_STEREO_COUNT>
1

>  <PUBCHEM_BOND_UDEF_STEREO_COUNT>
0

>  <PUBCHEM_ISOTOPIC_ATOM_COUNT>
0

>  <PUBCHEM_COMPONENT_COUNT>
1

>  <PUBCHEM_CACTVS_TAUTO_COUNT>
96

>  <PUBCHEM_COORDINATE_TYPE>
1
5
255

>  <PUBCHEM_BONDANNOTATIONS>
13  35  8
13  38  8
18  54  6
22  30  5
23  29  8
23  31  8
28  32  5
29  33  8
27  3  5
31  34  8
33  35  8
34  35  8
34  36  8
36  37  8
37  38  8
19  4  6
40  42  8
40  43  8
42  44  8
43  45  8
44  47  8
45  47  8
48  49  8
48  50  8
49  51  8
20  5  5
50  52  8
51  53  8
52  53  8
21  6  6
24  7  5
25  8  6
26  9  6

$$$$
