101392635
 OpenBabel06101807152D

 49 51  0  0  1  0  0  0  0  0999 V2000
    6.5468    2.7756    0.0000 O   0  0  0  0  0  0  0  0  0  0  0  0
    3.7320    1.5732    0.0000 O   0  0  0  0  0  0  0  0  0  0  0  0
    4.8255    3.2368    0.0000 O   0  0  0  0  0  0  0  0  0  0  0  0
    2.8660   -1.9268    0.0000 O   0  0  0  0  0  0  0  0  0  0  0  0
    8.9035   -2.3860    0.0000 O   0  0  0  0  0  0  0  0  0  0  0  0
    4.5981   -2.9268    0.0000 O   0  0  0  0  0  0  0  0  0  0  0  0
   10.3898   -1.0478    0.0000 O   0  0  0  0  0  0  0  0  0  0  0  0
    6.3776    1.1664    0.0000 C   0  0  2  0  0  0  0  0  0  0  0  0
    5.4641    1.5732    0.0000 C   0  0  3  0  0  0  0  0  0  0  0  0
    7.0468    1.9096    0.0000 C   0  0  0  0  0  0  0  0  0  0  0  0
    4.5981    1.0732    0.0000 C   0  0  1  0  0  0  0  0  0  0  0  0
    6.5856    0.1883    0.0000 C   0  0  0  0  0  0  0  0  0  0  0  0
    5.5686    2.5677    0.0000 C   0  0  0  0  0  0  0  0  0  0  0  0
    4.5981    0.0732    0.0000 C   0  0  0  0  0  0  0  0  0  0  0  0
    7.5366   -0.1207    0.0000 C   0  0  0  0  0  0  0  0  0  0  0  0
    3.7320   -0.4268    0.0000 C   0  0  0  0  0  0  0  0  0  0  0  0
    7.7445   -1.0989    0.0000 C   0  0  0  0  0  0  0  0  0  0  0  0
    5.4641   -0.4268    0.0000 C   0  0  0  0  0  0  0  0  0  0  0  0
    8.2798    0.5484    0.0000 C   0  0  0  0  0  0  0  0  0  0  0  0
    3.7320   -1.4268    0.0000 C   0  0  0  0  0  0  0  0  0  0  0  0
    8.6956   -1.4079    0.0000 C   0  0  0  0  0  0  0  0  0  0  0  0
    5.4641   -1.4268    0.0000 C   0  0  0  0  0  0  0  0  0  0  0  0
    9.2308    0.2394    0.0000 C   0  0  0  0  0  0  0  0  0  0  0  0
    4.5981   -1.9268    0.0000 C   0  0  0  0  0  0  0  0  0  0  0  0
    9.4387   -0.7388    0.0000 C   0  0  0  0  0  0  0  0  0  0  0  0
    2.0000   -1.4268    0.0000 C   0  0  0  0  0  0  0  0  0  0  0  0
    9.8546   -2.6951    0.0000 C   0  0  0  0  0  0  0  0  0  0  0  0
    5.8958    0.7763    0.0000 H   0  0  0  0  0  0  0  0  0  0  0  0
    4.9441    1.9108    0.0000 H   0  0  0  0  0  0  0  0  0  0  0  0
    7.4616    1.4488    0.0000 H   0  0  0  0  0  0  0  0  0  0  0  0
    7.5484    2.2740    0.0000 H   0  0  0  0  0  0  0  0  0  0  0  0
    5.1602    1.6932    0.0000 H   0  0  0  0  0  0  0  0  0  0  0  0
    5.9659    0.1667    0.0000 H   0  0  0  0  0  0  0  0  0  0  0  0
    6.4993   -0.4257    0.0000 H   0  0  0  0  0  0  0  0  0  0  0  0
    3.1951    1.2632    0.0000 H   0  0  0  0  0  0  0  0  0  0  0  0
    3.1951   -0.1168    0.0000 H   0  0  0  0  0  0  0  0  0  0  0  0
    7.2838   -1.5137    0.0000 H   0  0  0  0  0  0  0  0  0  0  0  0
    6.0010   -0.1168    0.0000 H   0  0  0  0  0  0  0  0  0  0  0  0
    8.1509    1.1548    0.0000 H   0  0  0  0  0  0  0  0  0  0  0  0
    6.0010   -1.7368    0.0000 H   0  0  0  0  0  0  0  0  0  0  0  0
    9.6916    0.6542    0.0000 H   0  0  0  0  0  0  0  0  0  0  0  0
    5.1350   -3.2368    0.0000 H   0  0  0  0  0  0  0  0  0  0  0  0
   10.8505   -0.6329    0.0000 H   0  0  0  0  0  0  0  0  0  0  0  0
    2.3100   -0.8899    0.0000 H   0  0  0  0  0  0  0  0  0  0  0  0
    1.4631   -1.1168    0.0000 H   0  0  0  0  0  0  0  0  0  0  0  0
    1.6900   -1.9638    0.0000 H   0  0  0  0  0  0  0  0  0  0  0  0
    9.6630   -3.2847    0.0000 H   0  0  0  0  0  0  0  0  0  0  0  0
   10.4442   -2.8866    0.0000 H   0  0  0  0  0  0  0  0  0  0  0  0
   10.0461   -2.1054    0.0000 H   0  0  0  0  0  0  0  0  0  0  0  0
  1 10  1  0  0  0  0
  1 13  1  0  0  0  0
  2 35  1  0  0  0  0
  3 13  2  0  0  0  0
  4 20  1  0  0  0  0
  4 26  1  0  0  0  0
  5 21  1  0  0  0  0
  5 27  1  0  0  0  0
  6 24  1  0  0  0  0
  6 42  1  0  0  0  0
  7 25  1  0  0  0  0
  7 43  1  0  0  0  0
  8  9  1  6  0  0  0
  8 10  1  0  0  0  0
  8 12  1  0  0  0  0
  8 28  1  0  0  0  0
  9 11  1  0  0  0  0
  9 13  1  0  0  0  0
  9 29  1  0  0  0  0
 10 30  1  0  0  0  0
 10 31  1  0  0  0  0
 11  2  1  0  0  0  0
 11 14  1  0  0  0  0
 11 32  1  6  0  0  0
 12 15  1  0  0  0  0
 12 33  1  0  0  0  0
 12 34  1  0  0  0  0
 14 16  2  0  0  0  0
 14 18  1  0  0  0  0
 15 17  2  0  0  0  0
 15 19  1  0  0  0  0
 16 20  1  0  0  0  0
 16 36  1  0  0  0  0
 17 21  1  0  0  0  0
 17 37  1  0  0  0  0
 18 22  2  0  0  0  0
 18 38  1  0  0  0  0
 19 23  2  0  0  0  0
 19 39  1  0  0  0  0
 20 24  2  0  0  0  0
 21 25  2  0  0  0  0
 22 24  1  0  0  0  0
 22 40  1  0  0  0  0
 23 25  1  0  0  0  0
 23 41  1  0  0  0  0
 26 44  1  0  0  0  0
 26 45  1  0  0  0  0
 26 46  1  0  0  0  0
 27 47  1  0  0  0  0
 27 48  1  0  0  0  0
 27 49  1  0  0  0  0
M  END
>  <PUBCHEM_COMPOUND_CID>
101392635

>  <PUBCHEM_COMPOUND_CANONICALIZED>
1

>  <PUBCHEM_CACTVS_COMPLEXITY>
499

>  <PUBCHEM_CACTVS_HBOND_ACCEPTOR>
7

>  <PUBCHEM_CACTVS_HBOND_DONOR>
3

>  <PUBCHEM_CACTVS_ROTATABLE_BOND>
6

>  <PUBCHEM_CACTVS_SUBSKEYS>
AAADceB4OAAAAAAAAAAAAAAAAAAAASAAAAAwYAAAAAAAAAABQAAAGgAACAAADRSgmAIyDoAABgCIAiDSCAACCAAgIAAIiAEGiIgNNjaGMRqCcCMl4BELuAfK6PSOoAABAAAAQABAAAIAAACAAAAAAAAAAA==

>  <PUBCHEM_IUPAC_OPENEYE_NAME>
(4R)-3-[(S)-hydroxy-(4-hydroxy-3-methoxy-phenyl)methyl]-4-[(4-hydroxy-3-methoxy-phenyl)methyl]tetrahydrofuran-2-one

>  <PUBCHEM_IUPAC_CAS_NAME>
(4R)-3-[(S)-hydroxy-(4-hydroxy-3-methoxyphenyl)methyl]-4-[(4-hydroxy-3-methoxyphenyl)methyl]-2-oxolanone

>  <PUBCHEM_IUPAC_NAME>
(4R)-3-[(S)-hydroxy-(4-hydroxy-3-methoxyphenyl)methyl]-4-[(4-hydroxy-3-methoxyphenyl)methyl]oxolan-2-one

>  <PUBCHEM_IUPAC_SYSTEMATIC_NAME>
(4R)-4-[(3-methoxy-4-oxidanyl-phenyl)methyl]-3-[(S)-(3-methoxy-4-oxidanyl-phenyl)-oxidanyl-methyl]oxolan-2-one

>  <PUBCHEM_IUPAC_TRADITIONAL_NAME>
(4R)-3-[(S)-hydroxy-(4-hydroxy-3-methoxy-phenyl)methyl]-4-vanillyl-tetrahydrofuran-2-one

>  <PUBCHEM_IUPAC_INCHI>
InChI=1S/C20H22O7/c1-25-16-8-11(3-5-14(16)21)7-13-10-27-20(24)18(13)19(23)12-4-6-15(22)17(9-12)26-2/h3-6,8-9,13,18-19,21-23H,7,10H2,1-2H3/t13-,18?,19+/m0/s1

>  <PUBCHEM_IUPAC_INCHIKEY>
ZZSOKNNVDKKSDE-LPHKOSDUSA-N

>  <PUBCHEM_XLOGP3_AA>
2.7

>  <PUBCHEM_EXACT_MASS>
374.137

>  <PUBCHEM_MOLECULAR_FORMULA>
C20H22O7

>  <PUBCHEM_MOLECULAR_WEIGHT>
374.389

>  <PUBCHEM_OPENEYE_CAN_SMILES>
COC1=C(C=CC(=C1)CC2COC(=O)C2C(C3=CC(=C(C=C3)O)OC)O)O

>  <PUBCHEM_OPENEYE_ISO_SMILES>
COC1=C(C=CC(=C1)C[C@H]2COC(=O)C2[C@@H](C3=CC(=C(C=C3)O)OC)O)O

>  <PUBCHEM_CACTVS_TPSA>
105

>  <PUBCHEM_MONOISOTOPIC_WEIGHT>
374.137

>  <PUBCHEM_TOTAL_CHARGE>
0

>  <PUBCHEM_HEAVY_ATOM_COUNT>
27

>  <PUBCHEM_ATOM_DEF_STEREO_COUNT>
2

>  <PUBCHEM_ATOM_UDEF_STEREO_COUNT>
1

>  <PUBCHEM_BOND_DEF_STEREO_COUNT>
0

>  <PUBCHEM_BOND_UDEF_STEREO_COUNT>
0

>  <PUBCHEM_ISOTOPIC_ATOM_COUNT>
0

>  <PUBCHEM_COMPONENT_COUNT>
1

>  <PUBCHEM_CACTVS_TAUTO_COUNT>
38

>  <PUBCHEM_COORDINATE_TYPE>
1
5
255

>  <PUBCHEM_BONDANNOTATIONS>
14  16  8
14  18  8
15  17  8
15  19  8
16  20  8
17  21  8
18  22  8
19  23  8
11  2  5
20  24  8
21  25  8
22  24  8
23  25  8
8  12  6
9  13  3

$$$$
