10142653
 OpenBabel06101807152D

 69 71  0  0  1  0  0  0  0  0999 V2000
   10.3312   -0.5000    0.0000 O   0  0  0  0  0  0  0  0  0  0  0  0
    8.5991   -0.5000    0.0000 O   0  0  0  0  0  0  0  0  0  0  0  0
   12.0632    2.5000    0.0000 O   0  0  0  0  0  0  0  0  0  0  0  0
   12.0632    0.5000    0.0000 O   0  0  0  0  0  0  0  0  0  0  0  0
    8.5991    0.5000    0.0000 O   0  0  0  0  0  0  0  0  0  0  0  0
    8.5991    2.5000    0.0000 O   0  0  0  0  0  0  0  0  0  0  0  0
   10.3312    3.5000    0.0000 O   0  0  0  0  0  0  0  0  0  0  0  0
    6.0010   -1.0000    0.0000 O   0  0  0  0  0  0  0  0  0  0  0  0
   10.3312   -2.5000    0.0000 O   0  0  0  0  0  0  0  0  0  0  0  0
    4.2690   -1.0000    0.0000 O   0  0  0  0  0  0  0  0  0  0  0  0
    8.5991   -3.5000    0.0000 O   0  0  0  0  0  0  0  0  0  0  0  0
    6.8671   -2.5000    0.0000 O   0  0  0  0  0  0  0  0  0  0  0  0
    6.0010    1.0000    0.0000 O   0  0  0  0  0  0  0  0  0  0  0  0
    4.2690    2.0000    0.0000 O   0  0  0  0  0  0  0  0  0  0  0  0
    2.5369    1.0000    0.0000 O   0  0  0  0  0  0  0  0  0  0  0  0
    2.5369   -2.0000    0.0000 O   0  0  0  0  0  0  0  0  0  0  0  0
   10.3312    0.5000    0.0000 C   0  0  2  0  0  0  0  0  0  0  0  0
   11.1972    1.0000    0.0000 C   0  0  2  0  0  0  0  0  0  0  0  0
    9.4651    1.0000    0.0000 C   0  0  2  0  0  0  0  0  0  0  0  0
   11.1972    2.0000    0.0000 C   0  0  1  0  0  0  0  0  0  0  0  0
    9.4651    2.0000    0.0000 C   0  0  1  0  0  0  0  0  0  0  0  0
   10.3312    2.5000    0.0000 C   0  0  2  0  0  0  0  0  0  0  0  0
    9.4651   -1.0000    0.0000 C   0  0  1  0  0  0  0  0  0  0  0  0
    9.4651   -2.0000    0.0000 C   0  0  1  0  0  0  0  0  0  0  0  0
    7.7331   -1.0000    0.0000 C   0  0  1  0  0  0  0  0  0  0  0  0
    8.5991   -2.5000    0.0000 C   0  0  2  0  0  0  0  0  0  0  0  0
    7.7331   -2.0000    0.0000 C   0  0  1  0  0  0  0  0  0  0  0  0
    6.8671   -0.5000    0.0000 C   0  0  0  0  0  0  0  0  0  0  0  0
    5.1350   -0.5000    0.0000 C   0  0  1  0  0  0  0  0  0  0  0  0
    5.1350    0.5000    0.0000 C   0  0  1  0  0  0  0  0  0  0  0  0
    4.2690    1.0000    0.0000 C   0  0  2  0  0  0  0  0  0  0  0  0
    3.4030    0.5000    0.0000 C   0  0  2  0  0  0  0  0  0  0  0  0
    3.4030   -0.5000    0.0000 C   0  0  1  0  0  0  0  0  0  0  0  0
   12.0632    3.5000    0.0000 C   0  0  0  0  0  0  0  0  0  0  0  0
    2.5369   -1.0000    0.0000 C   0  0  0  0  0  0  0  0  0  0  0  0
    9.7942    0.1900    0.0000 H   0  0  0  0  0  0  0  0  0  0  0  0
   11.7341    1.3100    0.0000 H   0  0  0  0  0  0  0  0  0  0  0  0
    8.9282    1.3100    0.0000 H   0  0  0  0  0  0  0  0  0  0  0  0
   11.1972    2.6200    0.0000 H   0  0  0  0  0  0  0  0  0  0  0  0
    9.4651    2.6200    0.0000 H   0  0  0  0  0  0  0  0  0  0  0  0
   10.8681    2.8100    0.0000 H   0  0  0  0  0  0  0  0  0  0  0  0
   10.0021   -1.3100    0.0000 H   0  0  0  0  0  0  0  0  0  0  0  0
    9.4651   -2.6200    0.0000 H   0  0  0  0  0  0  0  0  0  0  0  0
    7.7331   -0.3800    0.0000 H   0  0  0  0  0  0  0  0  0  0  0  0
    8.0622   -2.8100    0.0000 H   0  0  0  0  0  0  0  0  0  0  0  0
    7.1962   -1.6900    0.0000 H   0  0  0  0  0  0  0  0  0  0  0  0
    7.2656   -0.0251    0.0000 H   0  0  0  0  0  0  0  0  0  0  0  0
    6.4685   -0.0251    0.0000 H   0  0  0  0  0  0  0  0  0  0  0  0
    5.1350   -1.1200    0.0000 H   0  0  0  0  0  0  0  0  0  0  0  0
    5.1350    1.1200    0.0000 H   0  0  0  0  0  0  0  0  0  0  0  0
    3.7320    1.3100    0.0000 H   0  0  0  0  0  0  0  0  0  0  0  0
    2.8660    0.1900    0.0000 H   0  0  0  0  0  0  0  0  0  0  0  0
   12.6002    0.8100    0.0000 H   0  0  0  0  0  0  0  0  0  0  0  0
    8.0622    0.8100    0.0000 H   0  0  0  0  0  0  0  0  0  0  0  0
    3.4030   -1.1200    0.0000 H   0  0  0  0  0  0  0  0  0  0  0  0
    8.5991    3.1200    0.0000 H   0  0  0  0  0  0  0  0  0  0  0  0
    9.7942    3.8100    0.0000 H   0  0  0  0  0  0  0  0  0  0  0  0
   10.3312   -3.1200    0.0000 H   0  0  0  0  0  0  0  0  0  0  0  0
    8.0622   -3.8100    0.0000 H   0  0  0  0  0  0  0  0  0  0  0  0
    6.8671   -3.1200    0.0000 H   0  0  0  0  0  0  0  0  0  0  0  0
   12.6832    3.5000    0.0000 H   0  0  0  0  0  0  0  0  0  0  0  0
   12.0632    4.1200    0.0000 H   0  0  0  0  0  0  0  0  0  0  0  0
   11.4432    3.5000    0.0000 H   0  0  0  0  0  0  0  0  0  0  0  0
    2.3249   -0.4174    0.0000 H   0  0  0  0  0  0  0  0  0  0  0  0
    1.9264   -1.1077    0.0000 H   0  0  0  0  0  0  0  0  0  0  0  0
    6.0010    1.6200    0.0000 H   0  0  0  0  0  0  0  0  0  0  0  0
    3.7320    2.3100    0.0000 H   0  0  0  0  0  0  0  0  0  0  0  0
    2.0000    0.6900    0.0000 H   0  0  0  0  0  0  0  0  0  0  0  0
    2.0000   -2.3100    0.0000 H   0  0  0  0  0  0  0  0  0  0  0  0
  2 23  1  0  0  0  0
  2 25  1  0  0  0  0
  3 34  1  0  0  0  0
  4 53  1  0  0  0  0
  5 54  1  0  0  0  0
  6 56  1  0  0  0  0
  7 57  1  0  0  0  0
  8 28  1  0  0  0  0
  9 58  1  0  0  0  0
 10 29  1  0  0  0  0
 10 33  1  0  0  0  0
 11 59  1  0  0  0  0
 12 60  1  0  0  0  0
 13 66  1  0  0  0  0
 14 67  1  0  0  0  0
 15 68  1  0  0  0  0
 16 35  1  0  0  0  0
 16 69  1  0  0  0  0
 17  1  1  0  0  0  0
 17 18  1  6  0  0  0
 17 36  1  0  0  0  0
 18  4  1  0  0  0  0
 18 20  1  6  0  0  0
 18 37  1  0  0  0  0
 19  5  1  0  0  0  0
 19 17  1  6  0  0  0
 19 38  1  0  0  0  0
 20  3  1  0  0  0  0
 20 22  1  1  0  0  0
 20 39  1  0  0  0  0
 21  6  1  0  0  0  0
 21 19  1  1  0  0  0
 21 40  1  0  0  0  0
 22  7  1  0  0  0  0
 22 21  1  1  0  0  0
 22 41  1  0  0  0  0
 23  1  1  0  0  0  0
 23 24  1  6  0  0  0
 23 42  1  0  0  0  0
 24  9  1  0  0  0  0
 24 26  1  6  0  0  0
 24 43  1  0  0  0  0
 25 27  1  6  0  0  0
 25 28  1  0  0  0  0
 25 44  1  0  0  0  0
 26 11  1  0  0  0  0
 26 27  1  1  0  0  0
 26 45  1  0  0  0  0
 27 12  1  0  0  0  0
 27 46  1  6  0  0  0
 28 47  1  0  0  0  0
 28 48  1  0  0  0  0
 29  8  1  0  0  0  0
 29 30  1  6  0  0  0
 29 49  1  0  0  0  0
 30 13  1  0  0  0  0
 30 31  1  1  0  0  0
 30 50  1  0  0  0  0
 31 14  1  0  0  0  0
 31 32  1  6  0  0  0
 31 51  1  0  0  0  0
 32 15  1  0  0  0  0
 32 33  1  6  0  0  0
 32 52  1  0  0  0  0
 33 35  1  0  0  0  0
 33 55  1  1  0  0  0
 34 61  1  0  0  0  0
 34 62  1  0  0  0  0
 34 63  1  0  0  0  0
 35 64  1  0  0  0  0
 35 65  1  0  0  0  0
M  END
>  <PUBCHEM_COMPOUND_CID>
10142653

>  <PUBCHEM_COMPOUND_CANONICALIZED>
1

>  <PUBCHEM_CACTVS_COMPLEXITY>
671

>  <PUBCHEM_CACTVS_HBOND_ACCEPTOR>
16

>  <PUBCHEM_CACTVS_HBOND_DONOR>
11

>  <PUBCHEM_CACTVS_ROTATABLE_BOND>
7

>  <PUBCHEM_CACTVS_SUBSKEYS>
AAADcfB4PgAAAAAAAAAAAAAAAAAAAAAAAAA0SIAAAAAAAAAAAAAAGgAACAAACBSwgAMCCAAABgAAAAAAAAAAAAAAAAAAAAAAAAAREAIAAAAiQAAFAAAHAAHAYAwAAAAAAAAAAAACAAAQAACAAAAAAAAAAA==

>  <PUBCHEM_IUPAC_OPENEYE_NAME>
(1S,2R,3S,4R,5S,6S)-4-methoxy-6-[(2R,3R,4S,5R,6R)-3,4,5-trihydroxy-6-[[(2S,3R,4S,5R,6R)-3,4,5-trihydroxy-6-(hydroxymethyl)tetrahydropyran-2-yl]oxymethyl]tetrahydropyran-2-yl]oxy-cyclohexane-1,2,3,5-tetrol

>  <PUBCHEM_IUPAC_CAS_NAME>
(1S,2R,3S,4R,5S,6S)-4-methoxy-6-[[(2R,3R,4S,5R,6R)-3,4,5-trihydroxy-6-[[(2S,3R,4S,5R,6R)-3,4,5-trihydroxy-6-(hydroxymethyl)-2-oxanyl]oxymethyl]-2-oxanyl]oxy]cyclohexane-1,2,3,5-tetrol

>  <PUBCHEM_IUPAC_NAME>
(1S,2R,3S,4R,5S,6S)-4-methoxy-6-[(2R,3R,4S,5R,6R)-3,4,5-trihydroxy-6-[[(2S,3R,4S,5R,6R)-3,4,5-trihydroxy-6-(hydroxymethyl)oxan-2-yl]oxymethyl]oxan-2-yl]oxycyclohexane-1,2,3,5-tetrol

>  <PUBCHEM_IUPAC_SYSTEMATIC_NAME>
(1S,2R,3S,4S,5S,6R)-4-[(2R,3R,4S,5R,6R)-6-[[(2S,3R,4S,5R,6R)-6-(hydroxymethyl)-3,4,5-tris(oxidanyl)oxan-2-yl]oxymethyl]-3,4,5-tris(oxidanyl)oxan-2-yl]oxy-6-methoxy-cyclohexane-1,2,3,5-tetrol

>  <PUBCHEM_IUPAC_TRADITIONAL_NAME>
(1S,2R,3S,4R,5S,6S)-4-methoxy-6-[(2R,3R,4S,5R,6R)-3,4,5-trihydroxy-6-[[(2S,3R,4S,5R,6R)-3,4,5-trihydroxy-6-methylol-tetrahydropyran-2-yl]oxymethyl]tetrahydropyran-2-yl]oxy-cyclohexane-1,2,3,5-tetrol

>  <PUBCHEM_IUPAC_INCHI>
InChI=1S/C19H34O16/c1-31-16-11(26)10(25)12(27)17(15(16)30)35-19-14(29)9(24)7(22)5(34-19)3-32-18-13(28)8(23)6(21)4(2-20)33-18/h4-30H,2-3H2,1H3/t4-,5-,6+,7+,8+,9+,10-,11+,12+,13-,14-,15+,16-,17+,18+,19-/m1/s1

>  <PUBCHEM_IUPAC_INCHIKEY>
ATDWJHOSZLOQDJ-LMKXGGCJSA-N

>  <PUBCHEM_XLOGP3_AA>
-6.9

>  <PUBCHEM_EXACT_MASS>
518.185

>  <PUBCHEM_MOLECULAR_FORMULA>
C19H34O16

>  <PUBCHEM_MOLECULAR_WEIGHT>
518.465

>  <PUBCHEM_OPENEYE_CAN_SMILES>
COC1C(C(C(C(C1O)OC2C(C(C(C(O2)COC3C(C(C(C(O3)CO)O)O)O)O)O)O)O)O)O

>  <PUBCHEM_OPENEYE_ISO_SMILES>
CO[C@@H]1[C@H]([C@H]([C@@H]([C@@H]([C@H]1O)O[C@@H]2[C@@H]([C@H]([C@H]([C@H](O2)CO[C@@H]3[C@@H]([C@H]([C@H]([C@H](O3)CO)O)O)O)O)O)O)O)O)O

>  <PUBCHEM_CACTVS_TPSA>
269

>  <PUBCHEM_MONOISOTOPIC_WEIGHT>
518.185

>  <PUBCHEM_TOTAL_CHARGE>
0

>  <PUBCHEM_HEAVY_ATOM_COUNT>
35

>  <PUBCHEM_ATOM_DEF_STEREO_COUNT>
16

>  <PUBCHEM_ATOM_UDEF_STEREO_COUNT>
0

>  <PUBCHEM_BOND_DEF_STEREO_COUNT>
0

>  <PUBCHEM_BOND_UDEF_STEREO_COUNT>
0

>  <PUBCHEM_ISOTOPIC_ATOM_COUNT>
0

>  <PUBCHEM_COMPONENT_COUNT>
1

>  <PUBCHEM_CACTVS_TAUTO_COUNT>
1

>  <PUBCHEM_COORDINATE_TYPE>
1
5
255

>  <PUBCHEM_BONDANNOTATIONS>
17  1  5
23  1  6
26  11  5
27  12  5
30  13  5
31  14  6
32  15  6
25  28  5
20  3  5
33  35  6
18  4  6
19  5  5
21  6  6
22  7  6
29  8  5
24  9  6

$$$$
