101428698
 OpenBabel06101807152D

111112  0  0  0  0  0  0  0  0999 V2000
    7.9244   -7.5987    0.0000 O   0  0  0  0  0  0  0  0  0  0  0  0
    6.2781   -7.0606    0.0000 N   0  0  0  0  0  0  0  0  0  0  0  0
    4.6783  -10.7773    0.0000 N   0  0  0  0  0  0  0  0  0  0  0  0
   14.9916    0.0861    0.0000 C   0  0  0  0  0  0  0  0  0  0  0  0
   14.0131   -0.1202    0.0000 C   0  0  0  0  0  0  0  0  0  0  0  0
   15.3023    1.0366    0.0000 C   0  0  0  0  0  0  0  0  0  0  0  0
   13.7024   -1.0707    0.0000 C   0  0  0  0  0  0  0  0  0  0  0  0
   16.2808    1.2428    0.0000 C   0  0  0  0  0  0  0  0  0  0  0  0
   12.7239   -1.2769    0.0000 C   0  0  0  0  0  0  0  0  0  0  0  0
   16.5914    2.1933    0.0000 C   0  0  0  0  0  0  0  0  0  0  0  0
   12.4133   -2.2274    0.0000 C   0  0  0  0  0  0  0  0  0  0  0  0
   17.5700    2.3995    0.0000 C   0  0  0  0  0  0  0  0  0  0  0  0
   11.4348   -2.4336    0.0000 C   0  0  0  0  0  0  0  0  0  0  0  0
   17.8806    3.3500    0.0000 C   0  0  0  0  0  0  0  0  0  0  0  0
   11.1241   -3.3842    0.0000 C   0  0  0  0  0  0  0  0  0  0  0  0
   18.8591    3.5563    0.0000 C   0  0  0  0  0  0  0  0  0  0  0  0
   10.1456   -3.5904    0.0000 C   0  0  0  0  0  0  0  0  0  0  0  0
   19.1698    4.5068    0.0000 C   0  0  0  0  0  0  0  0  0  0  0  0
    9.8349   -4.5409    0.0000 C   0  0  0  0  0  0  0  0  0  0  0  0
   20.1483    4.7130    0.0000 C   0  0  0  0  0  0  0  0  0  0  0  0
    8.8564   -4.7471    0.0000 C   0  0  0  0  0  0  0  0  0  0  0  0
   20.4590    5.6635    0.0000 C   0  0  0  0  0  0  0  0  0  0  0  0
    8.5458   -5.6976    0.0000 C   0  0  0  0  0  0  0  0  0  0  0  0
   21.4375    5.8698    0.0000 C   0  0  0  0  0  0  0  0  0  0  0  0
    7.5673   -5.9039    0.0000 C   0  0  0  0  0  0  0  0  0  0  0  0
   21.7481    6.8203    0.0000 C   0  0  0  0  0  0  0  0  0  0  0  0
    7.2566   -6.8544    0.0000 C   0  0  0  0  0  0  0  0  0  0  0  0
   22.7266    7.0265    0.0000 C   0  0  0  0  0  0  0  0  0  0  0  0
    5.9674   -8.0111    0.0000 C   0  0  0  0  0  0  0  0  0  0  0  0
    4.9889   -8.2173    0.0000 C   0  0  0  0  0  0  0  0  0  0  0  0
   23.0373    7.9770    0.0000 C   0  0  0  0  0  0  0  0  0  0  0  0
    4.6783   -9.1679    0.0000 C   0  0  0  0  0  0  0  0  0  0  0  0
   22.3694    8.7213    0.0000 C   0  0  0  0  0  0  0  0  0  0  0  0
    3.7320   -9.4726    0.0000 C   0  0  0  0  0  0  0  0  0  0  0  0
   22.6801    9.6718    0.0000 C   0  0  0  0  0  0  0  0  0  0  0  0
    3.7320  -10.4726    0.0000 C   0  0  0  0  0  0  0  0  0  0  0  0
    5.2619   -9.9726    0.0000 C   0  0  0  0  0  0  0  0  0  0  0  0
   22.0123   10.4161    0.0000 C   0  0  0  0  0  0  0  0  0  0  0  0
    2.8660   -8.9726    0.0000 C   0  0  0  0  0  0  0  0  0  0  0  0
    2.8660  -10.9726    0.0000 C   0  0  0  0  0  0  0  0  0  0  0  0
    2.0000   -9.4726    0.0000 C   0  0  0  0  0  0  0  0  0  0  0  0
    2.0000  -10.4726    0.0000 C   0  0  0  0  0  0  0  0  0  0  0  0
   22.3229   11.3666    0.0000 C   0  0  0  0  0  0  0  0  0  0  0  0
   15.0122   -0.5336    0.0000 H   0  0  0  0  0  0  0  0  0  0  0  0
   15.6054   -0.0013    0.0000 H   0  0  0  0  0  0  0  0  0  0  0  0
   13.9925    0.4995    0.0000 H   0  0  0  0  0  0  0  0  0  0  0  0
   13.3993   -0.0328    0.0000 H   0  0  0  0  0  0  0  0  0  0  0  0
   15.2817    1.6562    0.0000 H   0  0  0  0  0  0  0  0  0  0  0  0
   14.6885    1.1239    0.0000 H   0  0  0  0  0  0  0  0  0  0  0  0
   13.7230   -1.6904    0.0000 H   0  0  0  0  0  0  0  0  0  0  0  0
   14.3163   -1.1580    0.0000 H   0  0  0  0  0  0  0  0  0  0  0  0
   16.3013    0.6231    0.0000 H   0  0  0  0  0  0  0  0  0  0  0  0
   16.8946    1.1554    0.0000 H   0  0  0  0  0  0  0  0  0  0  0  0
   12.7034   -0.6572    0.0000 H   0  0  0  0  0  0  0  0  0  0  0  0
   12.1101   -1.1896    0.0000 H   0  0  0  0  0  0  0  0  0  0  0  0
   16.5709    2.8130    0.0000 H   0  0  0  0  0  0  0  0  0  0  0  0
   15.9776    2.2807    0.0000 H   0  0  0  0  0  0  0  0  0  0  0  0
   12.4338   -2.8471    0.0000 H   0  0  0  0  0  0  0  0  0  0  0  0
   13.0271   -2.3148    0.0000 H   0  0  0  0  0  0  0  0  0  0  0  0
   17.5905    1.7799    0.0000 H   0  0  0  0  0  0  0  0  0  0  0  0
   18.1838    2.3122    0.0000 H   0  0  0  0  0  0  0  0  0  0  0  0
   11.4142   -1.8140    0.0000 H   0  0  0  0  0  0  0  0  0  0  0  0
   10.8210   -2.3463    0.0000 H   0  0  0  0  0  0  0  0  0  0  0  0
   17.8601    3.9697    0.0000 H   0  0  0  0  0  0  0  0  0  0  0  0
   17.2668    3.4374    0.0000 H   0  0  0  0  0  0  0  0  0  0  0  0
   11.1447   -4.0038    0.0000 H   0  0  0  0  0  0  0  0  0  0  0  0
   11.7379   -3.4715    0.0000 H   0  0  0  0  0  0  0  0  0  0  0  0
   18.8797    2.9366    0.0000 H   0  0  0  0  0  0  0  0  0  0  0  0
   19.4729    3.4689    0.0000 H   0  0  0  0  0  0  0  0  0  0  0  0
   10.1250   -2.9707    0.0000 H   0  0  0  0  0  0  0  0  0  0  0  0
    9.5318   -3.5030    0.0000 H   0  0  0  0  0  0  0  0  0  0  0  0
   19.1492    5.1264    0.0000 H   0  0  0  0  0  0  0  0  0  0  0  0
   18.5560    4.5941    0.0000 H   0  0  0  0  0  0  0  0  0  0  0  0
    9.8555   -5.1606    0.0000 H   0  0  0  0  0  0  0  0  0  0  0  0
   10.4488   -4.6283    0.0000 H   0  0  0  0  0  0  0  0  0  0  0  0
   20.1689    4.0934    0.0000 H   0  0  0  0  0  0  0  0  0  0  0  0
   20.7621    4.6257    0.0000 H   0  0  0  0  0  0  0  0  0  0  0  0
    8.8359   -4.1275    0.0000 H   0  0  0  0  0  0  0  0  0  0  0  0
    8.2426   -4.6598    0.0000 H   0  0  0  0  0  0  0  0  0  0  0  0
   20.4384    6.2832    0.0000 H   0  0  0  0  0  0  0  0  0  0  0  0
   19.8451    5.7509    0.0000 H   0  0  0  0  0  0  0  0  0  0  0  0
    8.5663   -6.3173    0.0000 H   0  0  0  0  0  0  0  0  0  0  0  0
    9.1596   -5.7850    0.0000 H   0  0  0  0  0  0  0  0  0  0  0  0
   21.4580    5.2501    0.0000 H   0  0  0  0  0  0  0  0  0  0  0  0
   22.0513    5.7824    0.0000 H   0  0  0  0  0  0  0  0  0  0  0  0
    7.5467   -5.2842    0.0000 H   0  0  0  0  0  0  0  0  0  0  0  0
    6.9534   -5.8165    0.0000 H   0  0  0  0  0  0  0  0  0  0  0  0
   21.7276    7.4399    0.0000 H   0  0  0  0  0  0  0  0  0  0  0  0
   21.1343    6.9076    0.0000 H   0  0  0  0  0  0  0  0  0  0  0  0
   23.1407    6.5650    0.0000 H   0  0  0  0  0  0  0  0  0  0  0  0
    5.8640   -6.5991    0.0000 H   0  0  0  0  0  0  0  0  0  0  0  0
    5.9880   -8.6308    0.0000 H   0  0  0  0  0  0  0  0  0  0  0  0
    6.5812   -8.0985    0.0000 H   0  0  0  0  0  0  0  0  0  0  0  0
    4.9684   -7.5977    0.0000 H   0  0  0  0  0  0  0  0  0  0  0  0
    4.3751   -8.1300    0.0000 H   0  0  0  0  0  0  0  0  0  0  0  0
   23.6440    8.1049    0.0000 H   0  0  0  0  0  0  0  0  0  0  0  0
   21.8225    9.0133    0.0000 H   0  0  0  0  0  0  0  0  0  0  0  0
   21.9869    8.2334    0.0000 H   0  0  0  0  0  0  0  0  0  0  0  0
   23.2270    9.3798    0.0000 H   0  0  0  0  0  0  0  0  0  0  0  0
   23.0627   10.1597    0.0000 H   0  0  0  0  0  0  0  0  0  0  0  0
    5.8819   -9.9726    0.0000 H   0  0  0  0  0  0  0  0  0  0  0  0
    4.8709  -11.3666    0.0000 H   0  0  0  0  0  0  0  0  0  0  0  0
   21.4653   10.7081    0.0000 H   0  0  0  0  0  0  0  0  0  0  0  0
   21.6297    9.9282    0.0000 H   0  0  0  0  0  0  0  0  0  0  0  0
    2.8660   -8.3526    0.0000 H   0  0  0  0  0  0  0  0  0  0  0  0
    2.8660  -11.5926    0.0000 H   0  0  0  0  0  0  0  0  0  0  0  0
    1.4631   -9.1626    0.0000 H   0  0  0  0  0  0  0  0  0  0  0  0
    1.4631  -10.7826    0.0000 H   0  0  0  0  0  0  0  0  0  0  0  0
   22.9122   11.1740    0.0000 H   0  0  0  0  0  0  0  0  0  0  0  0
   22.5155   11.9560    0.0000 H   0  0  0  0  0  0  0  0  0  0  0  0
   21.7336   11.5593    0.0000 H   0  0  0  0  0  0  0  0  0  0  0  0
  1 27  2  0  0  0  0
  2 27  1  0  0  0  0
  2 29  1  0  0  0  0
  2 91  1  0  0  0  0
  3 36  1  0  0  0  0
  3 37  1  0  0  0  0
  3102  1  0  0  0  0
  4  5  1  0  0  0  0
  4  6  1  0  0  0  0
  4 44  1  0  0  0  0
  4 45  1  0  0  0  0
  5  7  1  0  0  0  0
  5 46  1  0  0  0  0
  5 47  1  0  0  0  0
  6  8  1  0  0  0  0
  6 48  1  0  0  0  0
  6 49  1  0  0  0  0
  7  9  1  0  0  0  0
  7 50  1  0  0  0  0
  7 51  1  0  0  0  0
  8 10  1  0  0  0  0
  8 52  1  0  0  0  0
  8 53  1  0  0  0  0
  9 11  1  0  0  0  0
  9 54  1  0  0  0  0
  9 55  1  0  0  0  0
 10 12  1  0  0  0  0
 10 56  1  0  0  0  0
 10 57  1  0  0  0  0
 11 13  1  0  0  0  0
 11 58  1  0  0  0  0
 11 59  1  0  0  0  0
 12 14  1  0  0  0  0
 12 60  1  0  0  0  0
 12 61  1  0  0  0  0
 13 15  1  0  0  0  0
 13 62  1  0  0  0  0
 13 63  1  0  0  0  0
 14 16  1  0  0  0  0
 14 64  1  0  0  0  0
 14 65  1  0  0  0  0
 15 17  1  0  0  0  0
 15 66  1  0  0  0  0
 15 67  1  0  0  0  0
 16 18  1  0  0  0  0
 16 68  1  0  0  0  0
 16 69  1  0  0  0  0
 17 19  1  0  0  0  0
 17 70  1  0  0  0  0
 17 71  1  0  0  0  0
 18 20  1  0  0  0  0
 18 72  1  0  0  0  0
 18 73  1  0  0  0  0
 19 21  1  0  0  0  0
 19 74  1  0  0  0  0
 19 75  1  0  0  0  0
 20 22  1  0  0  0  0
 20 76  1  0  0  0  0
 20 77  1  0  0  0  0
 21 23  1  0  0  0  0
 21 78  1  0  0  0  0
 21 79  1  0  0  0  0
 22 24  1  0  0  0  0
 22 80  1  0  0  0  0
 22 81  1  0  0  0  0
 23 25  1  0  0  0  0
 23 82  1  0  0  0  0
 23 83  1  0  0  0  0
 24 26  1  0  0  0  0
 24 84  1  0  0  0  0
 24 85  1  0  0  0  0
 25 27  1  0  0  0  0
 25 86  1  0  0  0  0
 25 87  1  0  0  0  0
 26 28  1  0  0  0  0
 26 88  1  0  0  0  0
 26 89  1  0  0  0  0
 28 31  2  0  0  0  0
 28 90  1  0  0  0  0
 29 30  1  0  0  0  0
 29 92  1  0  0  0  0
 29 93  1  0  0  0  0
 30 32  1  0  0  0  0
 30 94  1  0  0  0  0
 30 95  1  0  0  0  0
 31 33  1  0  0  0  0
 31 96  1  0  0  0  0
 32 34  1  0  0  0  0
 32 37  2  0  0  0  0
 33 35  1  0  0  0  0
 33 97  1  0  0  0  0
 33 98  1  0  0  0  0
 34 36  1  0  0  0  0
 34 39  2  0  0  0  0
 35 38  1  0  0  0  0
 35 99  1  0  0  0  0
 35100  1  0  0  0  0
 36 40  2  0  0  0  0
 37101  1  0  0  0  0
 38 43  1  0  0  0  0
 38103  1  0  0  0  0
 38104  1  0  0  0  0
 39 41  1  0  0  0  0
 39105  1  0  0  0  0
 40 42  1  0  0  0  0
 40106  1  0  0  0  0
 41 42  2  0  0  0  0
 41107  1  0  0  0  0
 42108  1  0  0  0  0
 43109  1  0  0  0  0
 43110  1  0  0  0  0
 43111  1  0  0  0  0
M  END
>  <PUBCHEM_COMPOUND_CID>
101428698

>  <PUBCHEM_COMPOUND_CANONICALIZED>
1

>  <PUBCHEM_CACTVS_COMPLEXITY>
646

>  <PUBCHEM_CACTVS_HBOND_ACCEPTOR>
1

>  <PUBCHEM_CACTVS_HBOND_DONOR>
2

>  <PUBCHEM_CACTVS_ROTATABLE_BOND>
30

>  <PUBCHEM_CACTVS_SUBSKEYS>
AAADcfB/IAAAAAAAAAAAAAAAAAAAAWAAAAAwAAAAAAAAAFgB8AAAHgAQAAAADAjBngQ+wPLJkACoAzV3VACCgCAxAiAI2aE4ZJgIIPLAkZGEIAhglgDIyAcYiMCOgAAAAAACAAAAAAAAAAQAAAAAAAAAAA==

>  <PUBCHEM_IUPAC_OPENEYE_NAME>
(Z)-N-[2-(1H-indol-3-yl)ethyl]triacont-25-enamide

>  <PUBCHEM_IUPAC_CAS_NAME>
(Z)-N-[2-(1H-indol-3-yl)ethyl]-25-triacontenamide

>  <PUBCHEM_IUPAC_NAME>
(Z)-N-[2-(1H-indol-3-yl)ethyl]triacont-25-enamide

>  <PUBCHEM_IUPAC_SYSTEMATIC_NAME>
(Z)-N-[2-(1H-indol-3-yl)ethyl]triacont-25-enamide

>  <PUBCHEM_IUPAC_TRADITIONAL_NAME>
(Z)-N-[2-(1H-indol-3-yl)ethyl]triacont-25-enamide

>  <PUBCHEM_IUPAC_INCHI>
InChI=1S/C40H68N2O/c1-2-3-4-5-6-7-8-9-10-11-12-13-14-15-16-17-18-19-20-21-22-23-24-25-26-27-28-33-40(43)41-35-34-37-36-42-39-32-30-29-31-38(37)39/h5-6,29-32,36,42H,2-4,7-28,33-35H2,1H3,(H,41,43)/b6-5-

>  <PUBCHEM_IUPAC_INCHIKEY>
LXLNMBSRXCWRHE-WAYWQWQTSA-N

>  <PUBCHEM_XLOGP3>
15.8

>  <PUBCHEM_EXACT_MASS>
592.533

>  <PUBCHEM_MOLECULAR_FORMULA>
C40H68N2O

>  <PUBCHEM_MOLECULAR_WEIGHT>
592.997

>  <PUBCHEM_OPENEYE_CAN_SMILES>
CCCCC=CCCCCCCCCCCCCCCCCCCCCCCCC(=O)NCCC1=CNC2=CC=CC=C21

>  <PUBCHEM_OPENEYE_ISO_SMILES>
CCCC/C=C\CCCCCCCCCCCCCCCCCCCCCCCC(=O)NCCC1=CNC2=CC=CC=C21

>  <PUBCHEM_CACTVS_TPSA>
44.9

>  <PUBCHEM_MONOISOTOPIC_WEIGHT>
592.533

>  <PUBCHEM_TOTAL_CHARGE>
0

>  <PUBCHEM_HEAVY_ATOM_COUNT>
43

>  <PUBCHEM_ATOM_DEF_STEREO_COUNT>
0

>  <PUBCHEM_ATOM_UDEF_STEREO_COUNT>
0

>  <PUBCHEM_BOND_DEF_STEREO_COUNT>
1

>  <PUBCHEM_BOND_UDEF_STEREO_COUNT>
0

>  <PUBCHEM_ISOTOPIC_ATOM_COUNT>
0

>  <PUBCHEM_COMPONENT_COUNT>
1

>  <PUBCHEM_CACTVS_TAUTO_COUNT>
33

>  <PUBCHEM_COORDINATE_TYPE>
1
5
255

>  <PUBCHEM_BONDANNOTATIONS>
3  36  8
3  37  8
32  34  8
32  37  8
34  36  8
34  39  8
36  40  8
39  41  8
40  42  8
41  42  8

$$$$
