101426086
 OpenBabel06101807152D

108108  0  0  0  0  0  0  0  0999 V2000
    6.0010   -7.2500    0.0000 O   0  0  0  0  0  0  0  0  0  0  0  0
    4.2690   -7.2500    0.0000 O   0  0  0  0  0  0  0  0  0  0  0  0
    4.2690  -13.2500    0.0000 O   0  0  0  0  0  0  0  0  0  0  0  0
    2.5369  -12.2500    0.0000 O   0  0  0  0  0  0  0  0  0  0  0  0
   12.0632    3.2500    0.0000 C   0  0  0  0  0  0  0  0  0  0  0  0
   12.0632    4.2500    0.0000 C   0  0  0  0  0  0  0  0  0  0  0  0
   11.1972    2.7500    0.0000 C   0  0  0  0  0  0  0  0  0  0  0  0
   12.9292    4.7500    0.0000 C   0  0  0  0  0  0  0  0  0  0  0  0
   11.1972    1.7500    0.0000 C   0  0  0  0  0  0  0  0  0  0  0  0
   12.9292    5.7500    0.0000 C   0  0  0  0  0  0  0  0  0  0  0  0
   10.3312    1.2500    0.0000 C   0  0  0  0  0  0  0  0  0  0  0  0
   13.7953    6.2500    0.0000 C   0  0  0  0  0  0  0  0  0  0  0  0
   10.3312    0.2500    0.0000 C   0  0  0  0  0  0  0  0  0  0  0  0
   13.7953    7.2500    0.0000 C   0  0  0  0  0  0  0  0  0  0  0  0
    9.4651   -0.2500    0.0000 C   0  0  0  0  0  0  0  0  0  0  0  0
   14.6613    7.7500    0.0000 C   0  0  0  0  0  0  0  0  0  0  0  0
    9.4651   -1.2500    0.0000 C   0  0  0  0  0  0  0  0  0  0  0  0
   14.6613    8.7500    0.0000 C   0  0  0  0  0  0  0  0  0  0  0  0
    8.5991   -1.7500    0.0000 C   0  0  0  0  0  0  0  0  0  0  0  0
   15.5273    9.2500    0.0000 C   0  0  0  0  0  0  0  0  0  0  0  0
    8.5991   -2.7500    0.0000 C   0  0  0  0  0  0  0  0  0  0  0  0
   15.5273   10.2500    0.0000 C   0  0  0  0  0  0  0  0  0  0  0  0
    7.7331   -3.2500    0.0000 C   0  0  0  0  0  0  0  0  0  0  0  0
   16.3933   10.7500    0.0000 C   0  0  0  0  0  0  0  0  0  0  0  0
    7.7331   -4.2500    0.0000 C   0  0  0  0  0  0  0  0  0  0  0  0
   16.3933   11.7500    0.0000 C   0  0  0  0  0  0  0  0  0  0  0  0
    6.8671   -4.7500    0.0000 C   0  0  0  0  0  0  0  0  0  0  0  0
   17.2594   12.2500    0.0000 C   0  0  0  0  0  0  0  0  0  0  0  0
    6.8671   -5.7500    0.0000 C   0  0  0  0  0  0  0  0  0  0  0  0
   17.2594   13.2500    0.0000 C   0  0  0  0  0  0  0  0  0  0  0  0
    6.0010   -6.2500    0.0000 C   0  0  0  0  0  0  0  0  0  0  0  0
   18.1254   13.7500    0.0000 C   0  0  0  0  0  0  0  0  0  0  0  0
    5.1350   -7.7500    0.0000 C   0  0  0  0  0  0  0  0  0  0  0  0
    5.1350   -8.7500    0.0000 C   0  0  0  0  0  0  0  0  0  0  0  0
    4.2690   -9.2500    0.0000 C   0  0  0  0  0  0  0  0  0  0  0  0
    4.2690  -10.2500    0.0000 C   0  0  0  0  0  0  0  0  0  0  0  0
    3.4030  -10.7500    0.0000 C   0  0  0  0  0  0  0  0  0  0  0  0
    5.1350  -10.7500    0.0000 C   0  0  0  0  0  0  0  0  0  0  0  0
    3.4030  -11.7500    0.0000 C   0  0  0  0  0  0  0  0  0  0  0  0
    5.1350  -11.7500    0.0000 C   0  0  0  0  0  0  0  0  0  0  0  0
    4.2690  -12.2500    0.0000 C   0  0  0  0  0  0  0  0  0  0  0  0
    5.1350  -13.7500    0.0000 C   0  0  0  0  0  0  0  0  0  0  0  0
   12.2753    2.6674    0.0000 H   0  0  0  0  0  0  0  0  0  0  0  0
   12.6738    3.3577    0.0000 H   0  0  0  0  0  0  0  0  0  0  0  0
   11.8512    4.8326    0.0000 H   0  0  0  0  0  0  0  0  0  0  0  0
   11.4526    4.1423    0.0000 H   0  0  0  0  0  0  0  0  0  0  0  0
   10.9851    3.3326    0.0000 H   0  0  0  0  0  0  0  0  0  0  0  0
   10.5866    2.6423    0.0000 H   0  0  0  0  0  0  0  0  0  0  0  0
   13.1413    4.1674    0.0000 H   0  0  0  0  0  0  0  0  0  0  0  0
   13.5398    4.8577    0.0000 H   0  0  0  0  0  0  0  0  0  0  0  0
   11.4092    1.1674    0.0000 H   0  0  0  0  0  0  0  0  0  0  0  0
   11.8078    1.8577    0.0000 H   0  0  0  0  0  0  0  0  0  0  0  0
   12.7172    6.3326    0.0000 H   0  0  0  0  0  0  0  0  0  0  0  0
   12.3187    5.6423    0.0000 H   0  0  0  0  0  0  0  0  0  0  0  0
   10.1191    1.8326    0.0000 H   0  0  0  0  0  0  0  0  0  0  0  0
    9.7206    1.1423    0.0000 H   0  0  0  0  0  0  0  0  0  0  0  0
   14.0073    5.6674    0.0000 H   0  0  0  0  0  0  0  0  0  0  0  0
   14.4058    6.3577    0.0000 H   0  0  0  0  0  0  0  0  0  0  0  0
   10.5432   -0.3326    0.0000 H   0  0  0  0  0  0  0  0  0  0  0  0
   10.9417    0.3577    0.0000 H   0  0  0  0  0  0  0  0  0  0  0  0
   13.5832    7.8326    0.0000 H   0  0  0  0  0  0  0  0  0  0  0  0
   13.1847    7.1423    0.0000 H   0  0  0  0  0  0  0  0  0  0  0  0
    9.2531    0.3326    0.0000 H   0  0  0  0  0  0  0  0  0  0  0  0
    8.8546   -0.3577    0.0000 H   0  0  0  0  0  0  0  0  0  0  0  0
   14.8733    7.1674    0.0000 H   0  0  0  0  0  0  0  0  0  0  0  0
   15.2719    7.8577    0.0000 H   0  0  0  0  0  0  0  0  0  0  0  0
    9.6772   -1.8326    0.0000 H   0  0  0  0  0  0  0  0  0  0  0  0
   10.0757   -1.1423    0.0000 H   0  0  0  0  0  0  0  0  0  0  0  0
   14.4492    9.3326    0.0000 H   0  0  0  0  0  0  0  0  0  0  0  0
   14.0507    8.6423    0.0000 H   0  0  0  0  0  0  0  0  0  0  0  0
    8.3871   -1.1674    0.0000 H   0  0  0  0  0  0  0  0  0  0  0  0
    7.9885   -1.8577    0.0000 H   0  0  0  0  0  0  0  0  0  0  0  0
   15.7394    8.6674    0.0000 H   0  0  0  0  0  0  0  0  0  0  0  0
   16.1379    9.3577    0.0000 H   0  0  0  0  0  0  0  0  0  0  0  0
    8.8112   -3.3326    0.0000 H   0  0  0  0  0  0  0  0  0  0  0  0
    9.2097   -2.6423    0.0000 H   0  0  0  0  0  0  0  0  0  0  0  0
   15.3153   10.8326    0.0000 H   0  0  0  0  0  0  0  0  0  0  0  0
   14.9167   10.1423    0.0000 H   0  0  0  0  0  0  0  0  0  0  0  0
    7.5210   -2.6674    0.0000 H   0  0  0  0  0  0  0  0  0  0  0  0
    7.1225   -3.3577    0.0000 H   0  0  0  0  0  0  0  0  0  0  0  0
   16.6054   10.1674    0.0000 H   0  0  0  0  0  0  0  0  0  0  0  0
   17.0039   10.8577    0.0000 H   0  0  0  0  0  0  0  0  0  0  0  0
    7.9451   -4.8326    0.0000 H   0  0  0  0  0  0  0  0  0  0  0  0
    8.3437   -4.1423    0.0000 H   0  0  0  0  0  0  0  0  0  0  0  0
   16.1813   12.3326    0.0000 H   0  0  0  0  0  0  0  0  0  0  0  0
   15.7828   11.6423    0.0000 H   0  0  0  0  0  0  0  0  0  0  0  0
    6.6550   -4.1674    0.0000 H   0  0  0  0  0  0  0  0  0  0  0  0
    6.2565   -4.8577    0.0000 H   0  0  0  0  0  0  0  0  0  0  0  0
   17.4714   11.6674    0.0000 H   0  0  0  0  0  0  0  0  0  0  0  0
   17.8699   12.3577    0.0000 H   0  0  0  0  0  0  0  0  0  0  0  0
    7.0791   -6.3326    0.0000 H   0  0  0  0  0  0  0  0  0  0  0  0
    7.4776   -5.6423    0.0000 H   0  0  0  0  0  0  0  0  0  0  0  0
   17.0473   13.8326    0.0000 H   0  0  0  0  0  0  0  0  0  0  0  0
   16.6488   13.1423    0.0000 H   0  0  0  0  0  0  0  0  0  0  0  0
    5.7890   -5.6674    0.0000 H   0  0  0  0  0  0  0  0  0  0  0  0
    5.3905   -6.3577    0.0000 H   0  0  0  0  0  0  0  0  0  0  0  0
   18.4354   13.2131    0.0000 H   0  0  0  0  0  0  0  0  0  0  0  0
   18.6623   14.0600    0.0000 H   0  0  0  0  0  0  0  0  0  0  0  0
   17.8154   14.2869    0.0000 H   0  0  0  0  0  0  0  0  0  0  0  0
    5.6720   -9.0600    0.0000 H   0  0  0  0  0  0  0  0  0  0  0  0
    3.7320   -8.9400    0.0000 H   0  0  0  0  0  0  0  0  0  0  0  0
    2.8660  -10.4400    0.0000 H   0  0  0  0  0  0  0  0  0  0  0  0
    5.6720  -10.4400    0.0000 H   0  0  0  0  0  0  0  0  0  0  0  0
    5.6720  -12.0600    0.0000 H   0  0  0  0  0  0  0  0  0  0  0  0
    2.0000  -11.9400    0.0000 H   0  0  0  0  0  0  0  0  0  0  0  0
    4.8250  -14.2869    0.0000 H   0  0  0  0  0  0  0  0  0  0  0  0
    5.6720  -14.0600    0.0000 H   0  0  0  0  0  0  0  0  0  0  0  0
    5.4450  -13.2131    0.0000 H   0  0  0  0  0  0  0  0  0  0  0  0
  1 31  1  0  0  0  0
  1 33  1  0  0  0  0
  2 33  2  0  0  0  0
  3 41  1  0  0  0  0
  3 42  1  0  0  0  0
  4 39  1  0  0  0  0
  4105  1  0  0  0  0
  5  6  1  0  0  0  0
  5  7  1  0  0  0  0
  5 43  1  0  0  0  0
  5 44  1  0  0  0  0
  6  8  1  0  0  0  0
  6 45  1  0  0  0  0
  6 46  1  0  0  0  0
  7  9  1  0  0  0  0
  7 47  1  0  0  0  0
  7 48  1  0  0  0  0
  8 10  1  0  0  0  0
  8 49  1  0  0  0  0
  8 50  1  0  0  0  0
  9 11  1  0  0  0  0
  9 51  1  0  0  0  0
  9 52  1  0  0  0  0
 10 12  1  0  0  0  0
 10 53  1  0  0  0  0
 10 54  1  0  0  0  0
 11 13  1  0  0  0  0
 11 55  1  0  0  0  0
 11 56  1  0  0  0  0
 12 14  1  0  0  0  0
 12 57  1  0  0  0  0
 12 58  1  0  0  0  0
 13 15  1  0  0  0  0
 13 59  1  0  0  0  0
 13 60  1  0  0  0  0
 14 16  1  0  0  0  0
 14 61  1  0  0  0  0
 14 62  1  0  0  0  0
 15 17  1  0  0  0  0
 15 63  1  0  0  0  0
 15 64  1  0  0  0  0
 16 18  1  0  0  0  0
 16 65  1  0  0  0  0
 16 66  1  0  0  0  0
 17 19  1  0  0  0  0
 17 67  1  0  0  0  0
 17 68  1  0  0  0  0
 18 20  1  0  0  0  0
 18 69  1  0  0  0  0
 18 70  1  0  0  0  0
 19 21  1  0  0  0  0
 19 71  1  0  0  0  0
 19 72  1  0  0  0  0
 20 22  1  0  0  0  0
 20 73  1  0  0  0  0
 20 74  1  0  0  0  0
 21 23  1  0  0  0  0
 21 75  1  0  0  0  0
 21 76  1  0  0  0  0
 22 24  1  0  0  0  0
 22 77  1  0  0  0  0
 22 78  1  0  0  0  0
 23 25  1  0  0  0  0
 23 79  1  0  0  0  0
 23 80  1  0  0  0  0
 24 26  1  0  0  0  0
 24 81  1  0  0  0  0
 24 82  1  0  0  0  0
 25 27  1  0  0  0  0
 25 83  1  0  0  0  0
 25 84  1  0  0  0  0
 26 28  1  0  0  0  0
 26 85  1  0  0  0  0
 26 86  1  0  0  0  0
 27 29  1  0  0  0  0
 27 87  1  0  0  0  0
 27 88  1  0  0  0  0
 28 30  1  0  0  0  0
 28 89  1  0  0  0  0
 28 90  1  0  0  0  0
 29 31  1  0  0  0  0
 29 91  1  0  0  0  0
 29 92  1  0  0  0  0
 30 32  1  0  0  0  0
 30 93  1  0  0  0  0
 30 94  1  0  0  0  0
 31 95  1  0  0  0  0
 31 96  1  0  0  0  0
 32 97  1  0  0  0  0
 32 98  1  0  0  0  0
 32 99  1  0  0  0  0
 33 34  1  0  0  0  0
 34 35  2  0  0  0  0
 34100  1  0  0  0  0
 35 36  1  0  0  0  0
 35101  1  0  0  0  0
 36 37  2  0  0  0  0
 36 38  1  0  0  0  0
 37 39  1  0  0  0  0
 37102  1  0  0  0  0
 38 40  2  0  0  0  0
 38103  1  0  0  0  0
 39 41  2  0  0  0  0
 40 41  1  0  0  0  0
 40104  1  0  0  0  0
 42106  1  0  0  0  0
 42107  1  0  0  0  0
 42108  1  0  0  0  0
M  END
>  <PUBCHEM_COMPOUND_CID>
101426086

>  <PUBCHEM_COMPOUND_CANONICALIZED>
1

>  <PUBCHEM_CACTVS_COMPLEXITY>
604

>  <PUBCHEM_CACTVS_HBOND_ACCEPTOR>
4

>  <PUBCHEM_CACTVS_HBOND_DONOR>
1

>  <PUBCHEM_CACTVS_ROTATABLE_BOND>
31

>  <PUBCHEM_CACTVS_SUBSKEYS>
AAADcfB8OAAAAAAAAAAAAAAAAAAAAAAAAAAwAAAAAAAAAAABAAAAGgAACAAADASgmAIyDoAABgCIAiDSCAACCAAgIAAIiAAGiMgNJiKGMRqCcCMkwBELuYeAwLAOIAABAAAAQABAAAIAAACAAAAAAAAAAA==

>  <PUBCHEM_IUPAC_OPENEYE_NAME>
octacosyl (E)-3-(3-hydroxy-4-methoxy-phenyl)prop-2-enoate

>  <PUBCHEM_IUPAC_CAS_NAME>
(E)-3-(3-hydroxy-4-methoxyphenyl)-2-propenoic acid octacosyl ester

>  <PUBCHEM_IUPAC_NAME>
octacosyl (E)-3-(3-hydroxy-4-methoxyphenyl)prop-2-enoate

>  <PUBCHEM_IUPAC_SYSTEMATIC_NAME>
octacosyl (E)-3-(4-methoxy-3-oxidanyl-phenyl)prop-2-enoate

>  <PUBCHEM_IUPAC_TRADITIONAL_NAME>
(E)-3-(3-hydroxy-4-methoxy-phenyl)acrylic acid montanyl ester

>  <PUBCHEM_IUPAC_INCHI>
InChI=1S/C38H66O4/c1-3-4-5-6-7-8-9-10-11-12-13-14-15-16-17-18-19-20-21-22-23-24-25-26-27-28-33-42-38(40)32-30-35-29-31-37(41-2)36(39)34-35/h29-32,34,39H,3-28,33H2,1-2H3/b32-30+

>  <PUBCHEM_IUPAC_INCHIKEY>
XEOWPOLWKNHXGL-NHQGMKOOSA-N

>  <PUBCHEM_XLOGP3>
16.9

>  <PUBCHEM_EXACT_MASS>
586.496

>  <PUBCHEM_MOLECULAR_FORMULA>
C38H66O4

>  <PUBCHEM_MOLECULAR_WEIGHT>
586.942

>  <PUBCHEM_OPENEYE_CAN_SMILES>
CCCCCCCCCCCCCCCCCCCCCCCCCCCCOC(=O)C=CC1=CC(=C(C=C1)OC)O

>  <PUBCHEM_OPENEYE_ISO_SMILES>
CCCCCCCCCCCCCCCCCCCCCCCCCCCCOC(=O)/C=C/C1=CC(=C(C=C1)OC)O

>  <PUBCHEM_CACTVS_TPSA>
55.8

>  <PUBCHEM_MONOISOTOPIC_WEIGHT>
586.496

>  <PUBCHEM_TOTAL_CHARGE>
0

>  <PUBCHEM_HEAVY_ATOM_COUNT>
42

>  <PUBCHEM_ATOM_DEF_STEREO_COUNT>
0

>  <PUBCHEM_ATOM_UDEF_STEREO_COUNT>
0

>  <PUBCHEM_BOND_DEF_STEREO_COUNT>
1

>  <PUBCHEM_BOND_UDEF_STEREO_COUNT>
0

>  <PUBCHEM_ISOTOPIC_ATOM_COUNT>
0

>  <PUBCHEM_COMPONENT_COUNT>
1

>  <PUBCHEM_CACTVS_TAUTO_COUNT>
2

>  <PUBCHEM_COORDINATE_TYPE>
1
5
255

>  <PUBCHEM_BONDANNOTATIONS>
36  37  8
36  38  8
37  39  8
38  40  8
39  41  8
40  41  8

$$$$
