101425098
 OpenBabel06101807152D

136143  0  0  1  0  0  0  0  0999 V2000
   12.3923   -3.1550    0.0000 O   0  0  0  0  0  0  0  0  0  0  0  0
   13.2583   -0.6550    0.0000 O   0  0  0  0  0  0  0  0  0  0  0  0
   10.6603   -3.1550    0.0000 O   0  0  0  0  0  0  0  0  0  0  0  0
   14.1244   -2.1550    0.0000 O   0  0  0  0  0  0  0  0  0  0  0  0
   10.6603   -2.1550    0.0000 O   0  0  0  0  0  0  0  0  0  0  0  0
   10.6603   -0.1550    0.0000 O   0  0  0  0  0  0  0  0  0  0  0  0
   12.3923   -5.1550    0.0000 O   0  0  0  0  0  0  0  0  0  0  0  0
   10.6603   -6.1550    0.0000 O   0  0  0  0  0  0  0  0  0  0  0  0
    8.9282   -5.1550    0.0000 O   0  0  0  0  0  0  0  0  0  0  0  0
   11.5263    1.3450    0.0000 O   0  0  0  0  0  0  0  0  0  0  0  0
    8.0622   -3.6550    0.0000 O   0  0  0  0  0  0  0  0  0  0  0  0
   14.0853    2.8664    0.0000 O   0  0  0  0  0  0  0  0  0  0  0  0
   14.9686    1.3765    0.0000 O   0  0  0  0  0  0  0  0  0  0  0  0
   16.6658    4.3963    0.0000 O   0  0  0  0  0  0  0  0  0  0  0  0
   14.9223    5.3762    0.0000 O   0  0  0  0  0  0  0  0  0  0  0  0
   16.7224   -1.6550    0.0000 O   0  0  0  0  0  0  0  0  0  0  0  0
   16.6890    2.3964    0.0000 O   0  0  0  0  0  0  0  0  0  0  0  0
   13.1904    5.3562    0.0000 O   0  0  0  0  0  0  0  0  0  0  0  0
    7.1962   -2.1550    0.0000 O   0  3  0  0  0  0  0  0  0  0  0  0
   12.3923    2.8450    0.0000 O   0  0  0  0  0  0  0  0  0  0  0  0
   18.5084    1.3901    0.0000 O   0  0  0  0  0  0  0  0  0  0  0  0
   15.8564   -6.1550    0.0000 O   0  0  0  0  0  0  0  0  0  0  0  0
    7.1962    3.8450    0.0000 O   0  0  0  0  0  0  0  0  0  0  0  0
    2.0000   -3.1550    0.0000 O   0  0  0  0  0  0  0  0  0  0  0  0
    7.1962    5.8450    0.0000 O   0  0  0  0  0  0  0  0  0  0  0  0
    2.0000   -5.1550    0.0000 O   0  0  0  0  0  0  0  0  0  0  0  0
   12.3923   -2.1550    0.0000 C   0  0  2  0  0  0  0  0  0  0  0  0
   11.5263   -1.6550    0.0000 C   0  0  2  0  0  0  0  0  0  0  0  0
   11.5263   -0.6550    0.0000 C   0  0  1  0  0  0  0  0  0  0  0  0
   11.5263   -3.6550    0.0000 C   0  0  2  0  0  0  0  0  0  0  0  0
   11.5263   -4.6550    0.0000 C   0  0  1  0  0  0  0  0  0  0  0  0
   13.2583   -1.6550    0.0000 C   0  0  1  0  0  0  0  0  0  0  0  0
   12.3923   -0.1550    0.0000 C   0  0  1  0  0  0  0  0  0  0  0  0
   10.6603   -5.1550    0.0000 C   0  0  2  0  0  0  0  0  0  0  0  0
    9.7942   -4.6550    0.0000 C   0  0  1  0  0  0  0  0  0  0  0  0
    9.7942   -3.6550    0.0000 C   0  0  1  0  0  0  0  0  0  0  0  0
   12.3923    0.8450    0.0000 C   0  0  0  0  0  0  0  0  0  0  0  0
    8.9282   -3.1550    0.0000 C   0  0  0  0  0  0  0  0  0  0  0  0
   14.9904   -1.6550    0.0000 C   0  0  0  0  0  0  0  0  0  0  0  0
   15.8057    3.8863    0.0000 C   0  0  1  0  0  0  0  0  0  0  0  0
   14.9339    4.3763    0.0000 C   0  0  1  0  0  0  0  0  0  0  0  0
   15.8172    2.8864    0.0000 C   0  0  2  0  0  0  0  0  0  0  0  0
   14.0737    3.8663    0.0000 C   0  0  1  0  0  0  0  0  0  0  0  0
   14.9570    2.3764    0.0000 C   0  0  1  0  0  0  0  0  0  0  0  0
   14.9904   -0.6550    0.0000 C   0  0  0  0  0  0  0  0  0  0  0  0
   15.8564   -2.1550    0.0000 C   0  0  0  0  0  0  0  0  0  0  0  0
   15.8564   -0.1550    0.0000 C   0  0  0  0  0  0  0  0  0  0  0  0
   13.2020    4.3562    0.0000 C   0  0  0  0  0  0  0  0  0  0  0  0
   15.8403    0.8865    0.0000 C   0  0  0  0  0  0  0  0  0  0  0  0
   16.7224   -0.6550    0.0000 C   0  0  0  0  0  0  0  0  0  0  0  0
   11.5263    2.3450    0.0000 C   0  0  0  0  0  0  0  0  0  0  0  0
    7.1962   -3.1550    0.0000 C   0  0  0  0  0  0  0  0  0  0  0  0
   15.8564   -3.1550    0.0000 C   0  0  0  0  0  0  0  0  0  0  0  0
   16.7384    1.4143    0.0000 C   0  0  0  0  0  0  0  0  0  0  0  0
   17.6324   -0.1482    0.0000 C   0  0  0  0  0  0  0  0  0  0  0  0
   17.6405    0.8934    0.0000 C   0  0  0  0  0  0  0  0  0  0  0  0
   10.6603    2.8450    0.0000 C   0  0  0  0  0  0  0  0  0  0  0  0
    6.3301   -3.6550    0.0000 C   0  0  0  0  0  0  0  0  0  0  0  0
   16.7224   -3.6550    0.0000 C   0  0  0  0  0  0  0  0  0  0  0  0
   14.9904   -3.6550    0.0000 C   0  0  0  0  0  0  0  0  0  0  0  0
   16.7224   -4.6550    0.0000 C   0  0  0  0  0  0  0  0  0  0  0  0
   14.9904   -4.6550    0.0000 C   0  0  0  0  0  0  0  0  0  0  0  0
   10.6603    3.8450    0.0000 C   0  0  0  0  0  0  0  0  0  0  0  0
    5.4641   -3.1550    0.0000 C   0  0  0  0  0  0  0  0  0  0  0  0
   15.8564   -5.1550    0.0000 C   0  0  0  0  0  0  0  0  0  0  0  0
    9.7942    4.3450    0.0000 C   0  0  0  0  0  0  0  0  0  0  0  0
    4.5981   -3.6550    0.0000 C   0  0  0  0  0  0  0  0  0  0  0  0
    8.9282    3.8450    0.0000 C   0  0  0  0  0  0  0  0  0  0  0  0
    9.7942    5.3450    0.0000 C   0  0  0  0  0  0  0  0  0  0  0  0
    3.7320   -3.1550    0.0000 C   0  0  0  0  0  0  0  0  0  0  0  0
    4.5981   -4.6550    0.0000 C   0  0  0  0  0  0  0  0  0  0  0  0
    8.0622    4.3450    0.0000 C   0  0  0  0  0  0  0  0  0  0  0  0
    2.8660   -3.6550    0.0000 C   0  0  0  0  0  0  0  0  0  0  0  0
    8.9282    5.8450    0.0000 C   0  0  0  0  0  0  0  0  0  0  0  0
    3.7320   -5.1550    0.0000 C   0  0  0  0  0  0  0  0  0  0  0  0
    8.0622    5.3450    0.0000 C   0  0  0  0  0  0  0  0  0  0  0  0
    2.8660   -4.6550    0.0000 C   0  0  0  0  0  0  0  0  0  0  0  0
    6.3301    4.3450    0.0000 C   0  0  0  0  0  0  0  0  0  0  0  0
    2.0000   -2.1550    0.0000 C   0  0  0  0  0  0  0  0  0  0  0  0
   12.9292   -2.4650    0.0000 H   0  0  0  0  0  0  0  0  0  0  0  0
   10.9893   -1.3450    0.0000 H   0  0  0  0  0  0  0  0  0  0  0  0
   11.5263   -0.0350    0.0000 H   0  0  0  0  0  0  0  0  0  0  0  0
   11.5263   -3.0350    0.0000 H   0  0  0  0  0  0  0  0  0  0  0  0
   12.0632   -4.3450    0.0000 H   0  0  0  0  0  0  0  0  0  0  0  0
   13.7953   -1.3450    0.0000 H   0  0  0  0  0  0  0  0  0  0  0  0
   12.9292    0.1550    0.0000 H   0  0  0  0  0  0  0  0  0  0  0  0
   11.1972   -5.4650    0.0000 H   0  0  0  0  0  0  0  0  0  0  0  0
    9.2573   -4.3450    0.0000 H   0  0  0  0  0  0  0  0  0  0  0  0
    9.7942   -3.0350    0.0000 H   0  0  0  0  0  0  0  0  0  0  0  0
   13.0029    0.7373    0.0000 H   0  0  0  0  0  0  0  0  0  0  0  0
   12.6044    1.4276    0.0000 H   0  0  0  0  0  0  0  0  0  0  0  0
    9.3267   -2.6800    0.0000 H   0  0  0  0  0  0  0  0  0  0  0  0
    8.5297   -2.6800    0.0000 H   0  0  0  0  0  0  0  0  0  0  0  0
   10.1233   -1.8450    0.0000 H   0  0  0  0  0  0  0  0  0  0  0  0
   10.6603    0.4650    0.0000 H   0  0  0  0  0  0  0  0  0  0  0  0
   12.3923   -5.7750    0.0000 H   0  0  0  0  0  0  0  0  0  0  0  0
   10.1233   -6.4650    0.0000 H   0  0  0  0  0  0  0  0  0  0  0  0
    8.9282   -5.7750    0.0000 H   0  0  0  0  0  0  0  0  0  0  0  0
   15.7985    4.5063    0.0000 H   0  0  0  0  0  0  0  0  0  0  0  0
   14.3934    4.6800    0.0000 H   0  0  0  0  0  0  0  0  0  0  0  0
   15.8244    2.2664    0.0000 H   0  0  0  0  0  0  0  0  0  0  0  0
   13.5404    3.5501    0.0000 H   0  0  0  0  0  0  0  0  0  0  0  0
   14.4237    2.0602    0.0000 H   0  0  0  0  0  0  0  0  0  0  0  0
   14.4534   -0.3450    0.0000 H   0  0  0  0  0  0  0  0  0  0  0  0
   12.5902    4.4568    0.0000 H   0  0  0  0  0  0  0  0  0  0  0  0
   12.9967    3.7712    0.0000 H   0  0  0  0  0  0  0  0  0  0  0  0
   16.6587    5.0162    0.0000 H   0  0  0  0  0  0  0  0  0  0  0  0
   15.4557    5.6924    0.0000 H   0  0  0  0  0  0  0  0  0  0  0  0
   17.2223    2.7126    0.0000 H   0  0  0  0  0  0  0  0  0  0  0  0
   16.7360    2.0343    0.0000 H   0  0  0  0  0  0  0  0  0  0  0  0
   18.1657   -0.4643    0.0000 H   0  0  0  0  0  0  0  0  0  0  0  0
   12.6499    5.6599    0.0000 H   0  0  0  0  0  0  0  0  0  0  0  0
   10.1233    2.5350    0.0000 H   0  0  0  0  0  0  0  0  0  0  0  0
    6.3301   -4.2750    0.0000 H   0  0  0  0  0  0  0  0  0  0  0  0
   17.2594   -3.3450    0.0000 H   0  0  0  0  0  0  0  0  0  0  0  0
   14.4534   -3.3450    0.0000 H   0  0  0  0  0  0  0  0  0  0  0  0
    6.6592   -1.8450    0.0000 H   0  0  0  0  0  0  0  0  0  0  0  0
   17.2594   -4.9650    0.0000 H   0  0  0  0  0  0  0  0  0  0  0  0
   14.4534   -4.9650    0.0000 H   0  0  0  0  0  0  0  0  0  0  0  0
   11.1972    4.1550    0.0000 H   0  0  0  0  0  0  0  0  0  0  0  0
    5.4641   -2.5350    0.0000 H   0  0  0  0  0  0  0  0  0  0  0  0
   16.3933   -6.4650    0.0000 H   0  0  0  0  0  0  0  0  0  0  0  0
    8.9282    3.2250    0.0000 H   0  0  0  0  0  0  0  0  0  0  0  0
   10.3312    5.6550    0.0000 H   0  0  0  0  0  0  0  0  0  0  0  0
    3.7320   -2.5350    0.0000 H   0  0  0  0  0  0  0  0  0  0  0  0
    5.1350   -4.9650    0.0000 H   0  0  0  0  0  0  0  0  0  0  0  0
    8.9282    6.4650    0.0000 H   0  0  0  0  0  0  0  0  0  0  0  0
    3.7320   -5.7750    0.0000 H   0  0  0  0  0  0  0  0  0  0  0  0
    7.1962    6.4650    0.0000 H   0  0  0  0  0  0  0  0  0  0  0  0
    2.0000   -5.7750    0.0000 H   0  0  0  0  0  0  0  0  0  0  0  0
    6.6401    4.8819    0.0000 H   0  0  0  0  0  0  0  0  0  0  0  0
    5.7932    4.6550    0.0000 H   0  0  0  0  0  0  0  0  0  0  0  0
    6.0201    3.8081    0.0000 H   0  0  0  0  0  0  0  0  0  0  0  0
    2.6200   -2.1550    0.0000 H   0  0  0  0  0  0  0  0  0  0  0  0
    2.0000   -1.5350    0.0000 H   0  0  0  0  0  0  0  0  0  0  0  0
    1.3800   -2.1550    0.0000 H   0  0  0  0  0  0  0  0  0  0  0  0
  2 32  1  0  0  0  0
  2 33  1  0  0  0  0
  3 30  1  0  0  0  0
  3 36  1  0  0  0  0
  4 39  1  0  0  0  0
  5 94  1  0  0  0  0
  6 95  1  0  0  0  0
  7 96  1  0  0  0  0
  8 97  1  0  0  0  0
  9 98  1  0  0  0  0
 10 37  1  0  0  0  0
 10 51  1  0  0  0  0
 11 38  1  0  0  0  0
 11 52  1  0  0  0  0
 12 43  1  0  0  0  0
 12 44  1  0  0  0  0
 13 49  1  0  0  0  0
 14107  1  0  0  0  0
 15108  1  0  0  0  0
 16 46  1  0  0  0  0
 16 50  1  0  0  0  0
 17109  1  0  0  0  0
 18 48  1  0  0  0  0
 18112  1  0  0  0  0
 19 52  2  0  0  0  0
 19117  1  0  0  0  0
 20 51  2  0  0  0  0
 21 56  2  0  0  0  0
 22 65  1  0  0  0  0
 22122  1  0  0  0  0
 23 72  1  0  0  0  0
 23 78  1  0  0  0  0
 24 73  1  0  0  0  0
 24 79  1  0  0  0  0
 25 76  1  0  0  0  0
 25129  1  0  0  0  0
 26 77  1  0  0  0  0
 26130  1  0  0  0  0
 27  1  1  0  0  0  0
 27 28  1  1  0  0  0
 27 80  1  0  0  0  0
 28  5  1  0  0  0  0
 28 29  1  1  0  0  0
 28 81  1  0  0  0  0
 29  6  1  0  0  0  0
 29 33  1  6  0  0  0
 29 82  1  0  0  0  0
 30  1  1  0  0  0  0
 30 31  1  6  0  0  0
 30 83  1  0  0  0  0
 31  7  1  0  0  0  0
 31 34  1  1  0  0  0
 31 84  1  0  0  0  0
 32  4  1  0  0  0  0
 32 27  1  6  0  0  0
 32 85  1  0  0  0  0
 33 37  1  0  0  0  0
 33 86  1  6  0  0  0
 34  8  1  0  0  0  0
 34 35  1  6  0  0  0
 34 87  1  0  0  0  0
 35  9  1  0  0  0  0
 35 36  1  6  0  0  0
 35 88  1  0  0  0  0
 36 38  1  0  0  0  0
 36 89  1  6  0  0  0
 37 90  1  0  0  0  0
 37 91  1  0  0  0  0
 38 92  1  0  0  0  0
 38 93  1  0  0  0  0
 39 45  1  0  0  0  0
 39 46  2  0  0  0  0
 40 14  1  0  0  0  0
 40 41  1  6  0  0  0
 40 99  1  0  0  0  0
 41 15  1  0  0  0  0
 41 43  1  1  0  0  0
 41100  1  0  0  0  0
 42 17  1  0  0  0  0
 42 40  1  6  0  0  0
 42101  1  0  0  0  0
 43 48  1  0  0  0  0
 43102  1  1  0  0  0
 44 13  1  0  0  0  0
 44 42  1  1  0  0  0
 44103  1  0  0  0  0
 45 47  2  0  0  0  0
 45104  1  0  0  0  0
 46 53  1  0  0  0  0
 47 49  1  0  0  0  0
 47 50  1  0  0  0  0
 48105  1  0  0  0  0
 48106  1  0  0  0  0
 49 54  2  0  0  0  0
 50 55  2  0  0  0  0
 51 57  1  0  0  0  0
 52 58  1  0  0  0  0
 53 59  2  0  0  0  0
 53 60  1  0  0  0  0
 54 56  1  0  0  0  0
 54110  1  0  0  0  0
 55 56  1  0  0  0  0
 55111  1  0  0  0  0
 57 63  2  3  0  0  0
 57113  1  0  0  0  0
 58 64  2  3  0  0  0
 58114  1  0  0  0  0
 59 61  1  0  0  0  0
 59115  1  0  0  0  0
 60 62  2  0  0  0  0
 60116  1  0  0  0  0
 61 65  2  0  0  0  0
 61118  1  0  0  0  0
 62 65  1  0  0  0  0
 62119  1  0  0  0  0
 63 66  1  0  0  0  0
 63120  1  0  0  0  0
 64 67  1  0  0  0  0
 64121  1  0  0  0  0
 66 68  2  0  0  0  0
 66 69  1  0  0  0  0
 67 70  2  0  0  0  0
 67 71  1  0  0  0  0
 68 72  1  0  0  0  0
 68123  1  0  0  0  0
 69 74  2  0  0  0  0
 69124  1  0  0  0  0
 70 73  1  0  0  0  0
 70125  1  0  0  0  0
 71 75  2  0  0  0  0
 71126  1  0  0  0  0
 72 76  2  0  0  0  0
 73 77  2  0  0  0  0
 74 76  1  0  0  0  0
 74127  1  0  0  0  0
 75 77  1  0  0  0  0
 75128  1  0  0  0  0
 78131  1  0  0  0  0
 78132  1  0  0  0  0
 78133  1  0  0  0  0
 79134  1  0  0  0  0
 79135  1  0  0  0  0
 79136  1  0  0  0  0
M  CHG  1  19   1
M  END
>  <PUBCHEM_COMPOUND_CID>
101425098

>  <PUBCHEM_COMPOUND_CANONICALIZED>
1

>  <PUBCHEM_CACTVS_COMPLEXITY>
2290

>  <PUBCHEM_CACTVS_HBOND_ACCEPTOR>
25

>  <PUBCHEM_CACTVS_HBOND_DONOR>
13

>  <PUBCHEM_CACTVS_ROTATABLE_BOND>
20

>  <PUBCHEM_CACTVS_SUBSKEYS>
AAADcfB8PgAAAAAAAAAAAAAAAAAAAAAAAAA0aNECAAAAAACBUAAAGgAACAAADBSwmAMyDoAABgCIAqDSCAACCAAgIAAIiAAGiMgdNiKGMRqicCMlwBEPuYfA4DwOIAABAAAAQABAAAIAAACAAAAAAAAAAA==

>  <PUBCHEM_IUPAC_OPENEYE_NAME>
[1-[[(2R,3S,4S,5R,6S)-6-[(2S,3R,4S,5S,6R)-4,5-dihydroxy-6-[3-(4-hydroxy-3-methoxy-phenyl)prop-2-enoyloxymethyl]-2-[2-(4-hydroxyphenyl)-7-oxo-5-[(2S,3R,4S,5S,6R)-3,4,5-trihydroxy-6-(hydroxymethyl)tetrahydropyran-2-yl]oxy-chromen-3-yl]oxy-tetrahydropyran-3-yl]oxy-3,4,5-trihydroxy-tetrahydropyran-2-yl]methoxy]-3-(4-hydroxy-3-methoxy-phenyl)prop-2-enylidene]oxonium

>  <PUBCHEM_IUPAC_CAS_NAME>
[1-[[(2R,3S,4S,5R,6S)-6-[[(2S,3R,4S,5S,6R)-4,5-dihydroxy-6-[[3-(4-hydroxy-3-methoxyphenyl)-1-oxoprop-2-enoxy]methyl]-2-[[2-(4-hydroxyphenyl)-7-oxo-5-[[(2S,3R,4S,5S,6R)-3,4,5-trihydroxy-6-(hydroxymethyl)-2-oxanyl]oxy]-1-benzopyran-3-yl]oxy]-3-oxanyl]oxy]-3,4,5-trihydroxy-2-oxanyl]methoxy]-3-(4-hydroxy-3-methoxyphenyl)prop-2-enylidene]oxonium

>  <PUBCHEM_IUPAC_NAME>
[1-[[(2R,3S,4S,5R,6S)-6-[(2S,3R,4S,5S,6R)-4,5-dihydroxy-6-[3-(4-hydroxy-3-methoxyphenyl)prop-2-enoyloxymethyl]-2-[2-(4-hydroxyphenyl)-7-oxo-5-[(2S,3R,4S,5S,6R)-3,4,5-trihydroxy-6-(hydroxymethyl)oxan-2-yl]oxychromen-3-yl]oxyoxan-3-yl]oxy-3,4,5-trihydroxyoxan-2-yl]methoxy]-3-(4-hydroxy-3-methoxyphenyl)prop-2-enylidene]oxidanium

>  <PUBCHEM_IUPAC_SYSTEMATIC_NAME>
[1-[[(2R,3S,4S,5R,6S)-6-[(2S,3R,4S,5S,6R)-2-[5-[(2S,3R,4S,5S,6R)-6-(hydroxymethyl)-3,4,5-tris(oxidanyl)oxan-2-yl]oxy-2-(4-hydroxyphenyl)-7-oxidanylidene-chromen-3-yl]oxy-6-[3-(3-methoxy-4-oxidanyl-phenyl)prop-2-enoyloxymethyl]-4,5-bis(oxidanyl)oxan-3-yl]oxy-3,4,5-tris(oxidanyl)oxan-2-yl]methoxy]-3-(3-methoxy-4-oxidanyl-phenyl)prop-2-enylidene]oxidanium

>  <PUBCHEM_IUPAC_TRADITIONAL_NAME>
[1-[[(2R,3S,4S,5R,6S)-6-[(2S,3R,4S,5S,6R)-6-(feruloyloxymethyl)-4,5-dihydroxy-2-[2-(4-hydroxyphenyl)-7-keto-5-[(2S,3R,4S,5S,6R)-3,4,5-trihydroxy-6-methylol-tetrahydropyran-2-yl]oxy-chromen-3-yl]oxy-tetrahydropyran-3-yl]oxy-3,4,5-trihydroxy-tetrahydropyran-2-yl]methoxy]-3-(4-hydroxy-3-methoxy-phenyl)prop-2-enylidene]oxonium

>  <PUBCHEM_IUPAC_INCHI>
InChI=1S/C53H56O26/c1-69-33-15-23(3-11-29(33)57)5-13-39(59)71-21-37-42(62)45(65)48(68)52(77-37)79-50-46(66)43(63)38(22-72-40(60)14-6-24-4-12-30(58)34(16-24)70-2)78-53(50)75-35-19-28-31(73-49(35)25-7-9-26(55)10-8-25)17-27(56)18-32(28)74-51-47(67)44(64)41(61)36(20-54)76-51/h3-19,36-38,41-48,50-55,57-58,61-68H,20-22H2,1-2H3/p+1/t36-,37-,38-,41-,42-,43-,44+,45+,46+,47-,48-,50-,51-,52+,53-/m1/s1

>  <PUBCHEM_IUPAC_INCHIKEY>
PDBUCMJTPWFLPJ-PWISXLOQSA-O

>  <PUBCHEM_XLOGP3_AA>
-0.8

>  <PUBCHEM_EXACT_MASS>
1109.314

>  <PUBCHEM_MOLECULAR_FORMULA>
C53H57O26+

>  <PUBCHEM_MOLECULAR_WEIGHT>
1110.013

>  <PUBCHEM_OPENEYE_CAN_SMILES>
COC1=C(C=CC(=C1)C=CC(=[OH+])OCC2C(C(C(C(O2)OC3C(C(C(OC3OC4=C(OC5=CC(=O)C=C(C5=C4)OC6C(C(C(C(O6)CO)O)O)O)C7=CC=C(C=C7)O)COC(=O)C=CC8=CC(=C(C=C8)O)OC)O)O)O)O)O)O

>  <PUBCHEM_OPENEYE_ISO_SMILES>
COC1=C(C=CC(=C1)C=CC(=[OH+])OC[C@@H]2[C@H]([C@@H]([C@H]([C@@H](O2)O[C@@H]3[C@H]([C@@H]([C@H](O[C@H]3OC4=C(OC5=CC(=O)C=C(C5=C4)O[C@H]6[C@@H]([C@H]([C@@H]([C@H](O6)CO)O)O)O)C7=CC=C(C=C7)O)COC(=O)C=CC8=CC(=C(C=C8)O)OC)O)O)O)O)O)O

>  <PUBCHEM_CACTVS_TPSA>
379

>  <PUBCHEM_MONOISOTOPIC_WEIGHT>
1109.314

>  <PUBCHEM_TOTAL_CHARGE>
1

>  <PUBCHEM_HEAVY_ATOM_COUNT>
79

>  <PUBCHEM_ATOM_DEF_STEREO_COUNT>
15

>  <PUBCHEM_ATOM_UDEF_STEREO_COUNT>
0

>  <PUBCHEM_BOND_DEF_STEREO_COUNT>
0

>  <PUBCHEM_BOND_UDEF_STEREO_COUNT>
2

>  <PUBCHEM_ISOTOPIC_ATOM_COUNT>
0

>  <PUBCHEM_COMPONENT_COUNT>
1

>  <PUBCHEM_CACTVS_TAUTO_COUNT>
112

>  <PUBCHEM_COORDINATE_TYPE>
1
5
255

>  <PUBCHEM_BONDANNOTATIONS>
27  1  6
30  1  5
44  13  6
40  14  6
41  15  5
16  46  8
16  50  8
42  17  5
33  37  5
36  38  5
39  45  8
39  46  8
32  4  5
43  48  6
45  47  8
47  49  8
49  54  8
28  5  5
50  55  8
53  59  8
53  60  8
54  56  8
55  56  8
57  63  1
58  64  1
59  61  8
29  6  6
60  62  8
61  65  8
62  65  8
66  68  8
66  69  8
67  70  8
67  71  8
68  72  8
69  74  8
31  7  6
70  73  8
71  75  8
72  76  8
73  77  8
74  76  8
75  77  8
34  8  5
35  9  6

$$$$
