101419545
 OpenBabel06101807152D

 54 54  0  0  1  0  0  0  0  0999 V2000
    7.7331   -3.0000    0.0000 O   0  0  0  0  0  0  0  0  0  0  0  0
    7.7331   -0.0000    0.0000 O   0  0  0  0  0  0  0  0  0  0  0  0
    9.4651   -3.0000    0.0000 O   0  0  0  0  0  0  0  0  0  0  0  0
    4.2690    4.0000    0.0000 O   0  0  0  0  0  0  0  0  0  0  0  0
    2.5369    3.0000    0.0000 O   0  0  0  0  0  0  0  0  0  0  0  0
    7.7331   -2.0000    0.0000 C   0  0  3  0  0  0  0  0  0  0  0  0
    6.8671   -1.5000    0.0000 C   0  0  0  0  0  0  0  0  0  0  0  0
    6.8671   -0.5000    0.0000 C   0  0  3  0  0  0  0  0  0  0  0  0
    8.5991   -1.5000    0.0000 C   0  0  0  0  0  0  0  0  0  0  0  0
    9.4651   -2.0000    0.0000 C   0  0  0  0  0  0  0  0  0  0  0  0
    6.0010    0.0000    0.0000 C   0  0  0  0  0  0  0  0  0  0  0  0
   10.3312   -1.5000    0.0000 C   0  0  0  0  0  0  0  0  0  0  0  0
    6.0010    1.0000    0.0000 C   0  0  0  0  0  0  0  0  0  0  0  0
   11.1972   -2.0000    0.0000 C   0  0  0  0  0  0  0  0  0  0  0  0
    5.1350    1.5000    0.0000 C   0  0  0  0  0  0  0  0  0  0  0  0
   12.0632   -1.5000    0.0000 C   0  0  0  0  0  0  0  0  0  0  0  0
    8.5991   -3.5000    0.0000 C   0  0  0  0  0  0  0  0  0  0  0  0
    5.1350    2.5000    0.0000 C   0  0  0  0  0  0  0  0  0  0  0  0
    4.2690    1.0000    0.0000 C   0  0  0  0  0  0  0  0  0  0  0  0
    4.2690    3.0000    0.0000 C   0  0  0  0  0  0  0  0  0  0  0  0
    3.4030    1.5000    0.0000 C   0  0  0  0  0  0  0  0  0  0  0  0
    8.5991   -4.5000    0.0000 C   0  0  0  0  0  0  0  0  0  0  0  0
    3.4030    2.5000    0.0000 C   0  0  0  0  0  0  0  0  0  0  0  0
    5.1350    4.5000    0.0000 C   0  0  0  0  0  0  0  0  0  0  0  0
    8.2700   -2.3100    0.0000 H   0  0  0  0  0  0  0  0  0  0  0  0
    6.2565   -1.3923    0.0000 H   0  0  0  0  0  0  0  0  0  0  0  0
    6.6550   -2.0826    0.0000 H   0  0  0  0  0  0  0  0  0  0  0  0
    7.4040   -0.8100    0.0000 H   0  0  0  0  0  0  0  0  0  0  0  0
    8.9976   -1.0250    0.0000 H   0  0  0  0  0  0  0  0  0  0  0  0
    8.2006   -1.0250    0.0000 H   0  0  0  0  0  0  0  0  0  0  0  0
    9.0666   -2.4750    0.0000 H   0  0  0  0  0  0  0  0  0  0  0  0
    9.8637   -2.4750    0.0000 H   0  0  0  0  0  0  0  0  0  0  0  0
    5.3905    0.1077    0.0000 H   0  0  0  0  0  0  0  0  0  0  0  0
    5.7890   -0.5826    0.0000 H   0  0  0  0  0  0  0  0  0  0  0  0
   10.7297   -1.0250    0.0000 H   0  0  0  0  0  0  0  0  0  0  0  0
    9.9326   -1.0250    0.0000 H   0  0  0  0  0  0  0  0  0  0  0  0
    6.6116    0.8923    0.0000 H   0  0  0  0  0  0  0  0  0  0  0  0
    6.2131    1.5826    0.0000 H   0  0  0  0  0  0  0  0  0  0  0  0
   10.7987   -2.4750    0.0000 H   0  0  0  0  0  0  0  0  0  0  0  0
   11.5957   -2.4750    0.0000 H   0  0  0  0  0  0  0  0  0  0  0  0
    8.2700   -0.3100    0.0000 H   0  0  0  0  0  0  0  0  0  0  0  0
   12.3732   -2.0369    0.0000 H   0  0  0  0  0  0  0  0  0  0  0  0
   12.6002   -1.1900    0.0000 H   0  0  0  0  0  0  0  0  0  0  0  0
   11.7532   -0.9631    0.0000 H   0  0  0  0  0  0  0  0  0  0  0  0
    5.6720    2.8100    0.0000 H   0  0  0  0  0  0  0  0  0  0  0  0
    4.2690    0.3800    0.0000 H   0  0  0  0  0  0  0  0  0  0  0  0
    2.8660    1.1900    0.0000 H   0  0  0  0  0  0  0  0  0  0  0  0
    7.9791   -4.5000    0.0000 H   0  0  0  0  0  0  0  0  0  0  0  0
    8.5991   -5.1200    0.0000 H   0  0  0  0  0  0  0  0  0  0  0  0
    9.2191   -4.5000    0.0000 H   0  0  0  0  0  0  0  0  0  0  0  0
    2.0000    2.6900    0.0000 H   0  0  0  0  0  0  0  0  0  0  0  0
    5.4450    3.9631    0.0000 H   0  0  0  0  0  0  0  0  0  0  0  0
    5.6720    4.8100    0.0000 H   0  0  0  0  0  0  0  0  0  0  0  0
    4.8250    5.0369    0.0000 H   0  0  0  0  0  0  0  0  0  0  0  0
  1  6  1  0  0  0  0
  1 17  1  0  0  0  0
  2  8  1  0  0  0  0
  2 41  1  0  0  0  0
  3 17  2  0  0  0  0
  4 20  1  0  0  0  0
  4 24  1  0  0  0  0
  5 23  1  0  0  0  0
  5 51  1  0  0  0  0
  6  7  1  0  0  0  0
  6  9  1  0  0  0  0
  6 25  1  0  0  0  0
  7  8  1  0  0  0  0
  7 26  1  0  0  0  0
  7 27  1  0  0  0  0
  8 11  1  0  0  0  0
  8 28  1  0  0  0  0
  9 10  1  0  0  0  0
  9 29  1  0  0  0  0
  9 30  1  0  0  0  0
 10 12  1  0  0  0  0
 10 31  1  0  0  0  0
 10 32  1  0  0  0  0
 11 13  1  0  0  0  0
 11 33  1  0  0  0  0
 11 34  1  0  0  0  0
 12 14  1  0  0  0  0
 12 35  1  0  0  0  0
 12 36  1  0  0  0  0
 13 15  1  0  0  0  0
 13 37  1  0  0  0  0
 13 38  1  0  0  0  0
 14 16  1  0  0  0  0
 14 39  1  0  0  0  0
 14 40  1  0  0  0  0
 15 18  2  0  0  0  0
 15 19  1  0  0  0  0
 16 42  1  0  0  0  0
 16 43  1  0  0  0  0
 16 44  1  0  0  0  0
 17 22  1  0  0  0  0
 18 20  1  0  0  0  0
 18 45  1  0  0  0  0
 19 21  2  0  0  0  0
 19 46  1  0  0  0  0
 20 23  2  0  0  0  0
 21 23  1  0  0  0  0
 21 47  1  0  0  0  0
 22 48  1  0  0  0  0
 22 49  1  0  0  0  0
 22 50  1  0  0  0  0
 24 52  1  0  0  0  0
 24 53  1  0  0  0  0
 24 54  1  0  0  0  0
M  END
>  <PUBCHEM_COMPOUND_CID>
101419545

>  <PUBCHEM_COMPOUND_CANONICALIZED>
1

>  <PUBCHEM_CACTVS_COMPLEXITY>
347

>  <PUBCHEM_CACTVS_HBOND_ACCEPTOR>
5

>  <PUBCHEM_CACTVS_HBOND_DONOR>
2

>  <PUBCHEM_CACTVS_ROTATABLE_BOND>
12

>  <PUBCHEM_CACTVS_SUBSKEYS>
AAADceB4OAAAAAAAAAAAAAAAAAAAAAAAAAAwAAAAAAAAAAABAAAAGgAACAAADBSgmAIyDoAABgCIAiDSCAACCAAgIAAIiAAGiIgNNiKGMRqCcCMlwBELuAeAwPAOIAABAAAAQABAAAIAAACAAAAAAAAAAA==

>  <PUBCHEM_IUPAC_OPENEYE_NAME>
1-[2-hydroxy-4-(4-hydroxy-3-methoxy-phenyl)butyl]hexyl acetate

>  <PUBCHEM_IUPAC_CAS_NAME>
acetic acid [3-hydroxy-1-(4-hydroxy-3-methoxyphenyl)decan-5-yl] ester

>  <PUBCHEM_IUPAC_NAME>
[3-hydroxy-1-(4-hydroxy-3-methoxyphenyl)decan-5-yl] acetate

>  <PUBCHEM_IUPAC_SYSTEMATIC_NAME>
[1-(3-methoxy-4-oxidanyl-phenyl)-3-oxidanyl-decan-5-yl] ethanoate

>  <PUBCHEM_IUPAC_TRADITIONAL_NAME>
acetic acid 1-[2-hydroxy-4-(4-hydroxy-3-methoxy-phenyl)butyl]hexyl ester

>  <PUBCHEM_IUPAC_INCHI>
InChI=1S/C19H30O5/c1-4-5-6-7-17(24-14(2)20)13-16(21)10-8-15-9-11-18(22)19(12-15)23-3/h9,11-12,16-17,21-22H,4-8,10,13H2,1-3H3

>  <PUBCHEM_IUPAC_INCHIKEY>
SLEAGHNVFZTGGH-UHFFFAOYSA-N

>  <PUBCHEM_XLOGP3_AA>
4.2

>  <PUBCHEM_EXACT_MASS>
338.209

>  <PUBCHEM_MOLECULAR_FORMULA>
C19H30O5

>  <PUBCHEM_MOLECULAR_WEIGHT>
338.444

>  <PUBCHEM_OPENEYE_CAN_SMILES>
CCCCCC(CC(CCC1=CC(=C(C=C1)O)OC)O)OC(=O)C

>  <PUBCHEM_OPENEYE_ISO_SMILES>
CCCCCC(CC(CCC1=CC(=C(C=C1)O)OC)O)OC(=O)C

>  <PUBCHEM_CACTVS_TPSA>
76

>  <PUBCHEM_MONOISOTOPIC_WEIGHT>
338.209

>  <PUBCHEM_TOTAL_CHARGE>
0

>  <PUBCHEM_HEAVY_ATOM_COUNT>
24

>  <PUBCHEM_ATOM_DEF_STEREO_COUNT>
0

>  <PUBCHEM_ATOM_UDEF_STEREO_COUNT>
2

>  <PUBCHEM_BOND_DEF_STEREO_COUNT>
0

>  <PUBCHEM_BOND_UDEF_STEREO_COUNT>
0

>  <PUBCHEM_ISOTOPIC_ATOM_COUNT>
0

>  <PUBCHEM_COMPONENT_COUNT>
1

>  <PUBCHEM_CACTVS_TAUTO_COUNT>
16

>  <PUBCHEM_COORDINATE_TYPE>
1
5
255

>  <PUBCHEM_BONDANNOTATIONS>
15  18  8
15  19  8
18  20  8
19  21  8
8  2  3
20  23  8
21  23  8
6  9  3

$$$$
