10149128
 OpenBabel06101807152D

 14 13  0  0  0  0  0  0  0  0999 V2000
    2.8660   -0.2500    0.0000 S   0  0  0  0  0  0  0  0  0  0  0  0
    7.1962    0.2500    0.0000 S   0  0  0  0  0  0  0  0  0  0  0  0
    3.7320    0.2500    0.0000 S   0  0  0  0  0  0  0  0  0  0  0  0
    6.3301   -0.2500    0.0000 S   0  0  0  0  0  0  0  0  0  0  0  0
    4.5981   -0.2500    0.0000 S   0  0  0  0  0  0  0  0  0  0  0  0
    5.4641    0.2500    0.0000 S   0  0  0  0  0  0  0  0  0  0  0  0
    2.0000    0.2500    0.0000 C   0  0  0  0  0  0  0  0  0  0  0  0
    8.0622   -0.2500    0.0000 C   0  0  0  0  0  0  0  0  0  0  0  0
    2.3100    0.7869    0.0000 H   0  0  0  0  0  0  0  0  0  0  0  0
    1.4631    0.5600    0.0000 H   0  0  0  0  0  0  0  0  0  0  0  0
    1.6900   -0.2869    0.0000 H   0  0  0  0  0  0  0  0  0  0  0  0
    7.7522   -0.7869    0.0000 H   0  0  0  0  0  0  0  0  0  0  0  0
    8.5991   -0.5600    0.0000 H   0  0  0  0  0  0  0  0  0  0  0  0
    8.3722    0.2869    0.0000 H   0  0  0  0  0  0  0  0  0  0  0  0
  1  3  1  0  0  0  0
  1  7  1  0  0  0  0
  2  4  1  0  0  0  0
  2  8  1  0  0  0  0
  3  5  1  0  0  0  0
  4  6  1  0  0  0  0
  5  6  1  0  0  0  0
  7  9  1  0  0  0  0
  7 10  1  0  0  0  0
  7 11  1  0  0  0  0
  8 12  1  0  0  0  0
  8 13  1  0  0  0  0
  8 14  1  0  0  0  0
M  END
>  <PUBCHEM_COMPOUND_CID>
10149128

>  <PUBCHEM_COMPOUND_CANONICALIZED>
1

>  <PUBCHEM_CACTVS_COMPLEXITY>
31.5

>  <PUBCHEM_CACTVS_HBOND_ACCEPTOR>
6

>  <PUBCHEM_CACTVS_HBOND_DONOR>
0

>  <PUBCHEM_CACTVS_ROTATABLE_BOND>
5

>  <PUBCHEM_CACTVS_SUBSKEYS>
AAADcYBAAABwAAAAAAAAAAAAAAAAAAAAAAAAAAAAAAAAAAAAAAAAEAQAAAAAAAAAAACCAAAAAAAAAAAAAAAAAAAAAAAAAAAAAAAAAAAAAAAAAAAAAAAAAAAAAAAAAAAAAAAAAAAAAAAAAAAAAAAAAAAAAA==

>  <PUBCHEM_IUPAC_OPENEYE_NAME>
(methylhexasulfanyl)methane

>  <PUBCHEM_IUPAC_CAS_NAME>
(methylhexasulfanyl)methane

>  <PUBCHEM_IUPAC_NAME>
(methylhexasulfanyl)methane

>  <PUBCHEM_IUPAC_SYSTEMATIC_NAME>
(methylhexasulfanyl)methane

>  <PUBCHEM_IUPAC_TRADITIONAL_NAME>
(methylhexasulfanyl)methane

>  <PUBCHEM_IUPAC_INCHI>
InChI=1S/C2H6S6/c1-3-5-7-8-6-4-2/h1-2H3

>  <PUBCHEM_IUPAC_INCHIKEY>
IFPVWYIKESOXEL-UHFFFAOYSA-N

>  <PUBCHEM_XLOGP3_AA>
2.7

>  <PUBCHEM_EXACT_MASS>
221.879

>  <PUBCHEM_MOLECULAR_FORMULA>
C2H6S6

>  <PUBCHEM_MOLECULAR_WEIGHT>
222.43

>  <PUBCHEM_OPENEYE_CAN_SMILES>
CSSSSSSC

>  <PUBCHEM_OPENEYE_ISO_SMILES>
CSSSSSSC

>  <PUBCHEM_CACTVS_TPSA>
152

>  <PUBCHEM_MONOISOTOPIC_WEIGHT>
221.879

>  <PUBCHEM_TOTAL_CHARGE>
0

>  <PUBCHEM_HEAVY_ATOM_COUNT>
8

>  <PUBCHEM_ATOM_DEF_STEREO_COUNT>
0

>  <PUBCHEM_ATOM_UDEF_STEREO_COUNT>
0

>  <PUBCHEM_BOND_DEF_STEREO_COUNT>
0

>  <PUBCHEM_BOND_UDEF_STEREO_COUNT>
0

>  <PUBCHEM_ISOTOPIC_ATOM_COUNT>
0

>  <PUBCHEM_COMPONENT_COUNT>
1

>  <PUBCHEM_CACTVS_TAUTO_COUNT>
1

>  <PUBCHEM_COORDINATE_TYPE>
1
5
255

$$$$
