10151874
 OpenBabel06101807152D

 44 48  0  0  0  0  0  0  0  0999 V2000
    2.8660   -1.0103    0.0000 O   0  0  0  0  0  0  0  0  0  0  0  0
    6.3981   -2.0311    0.0000 O   0  0  0  0  0  0  0  0  0  0  0  0
    4.5632    1.9887    0.0000 O   0  0  0  0  0  0  0  0  0  0  0  0
    2.8611    0.9750    0.0000 O   0  0  0  0  0  0  0  0  0  0  0  0
    6.3038   -4.0634    0.0000 O   0  0  0  0  0  0  0  0  0  0  0  0
    4.5632   -5.0092    0.0000 O   0  0  0  0  0  0  0  0  0  0  0  0
    7.2622   -0.4861    0.0000 O   0  0  0  0  0  0  0  0  0  0  0  0
    2.0000   -2.5103    0.0000 O   0  0  0  0  0  0  0  0  0  0  0  0
    6.3146    1.0230    0.0000 O   0  0  0  0  0  0  0  0  0  0  0  0
    8.0266    2.0569    0.0000 O   0  0  0  0  0  0  0  0  0  0  0  0
    7.9872    4.0565    0.0000 O   0  0  0  0  0  0  0  0  0  0  0  0
    4.5041    4.9881    0.0000 O   0  0  0  0  0  0  0  0  0  0  0  0
    3.6678    3.4713    0.0000 O   0  0  0  0  0  0  0  0  0  0  0  0
    4.5981   -1.0103    0.0000 C   0  0  0  0  0  0  0  0  0  0  0  0
    4.5981   -2.0103    0.0000 C   0  0  0  0  0  0  0  0  0  0  0  0
    5.4920   -0.4756    0.0000 C   0  0  0  0  0  0  0  0  0  0  0  0
    3.7320   -0.5103    0.0000 C   0  0  0  0  0  0  0  0  0  0  0  0
    3.7320   -2.5103    0.0000 C   0  0  0  0  0  0  0  0  0  0  0  0
    5.4920   -2.5449    0.0000 C   0  0  0  0  0  0  0  0  0  0  0  0
    3.7308    0.4814    0.0000 C   0  0  0  0  0  0  0  0  0  0  0  0
    5.4542    0.5154    0.0000 C   0  0  0  0  0  0  0  0  0  0  0  0
    4.5828    0.9889    0.0000 C   0  0  0  0  0  0  0  0  0  0  0  0
    6.3981   -0.9895    0.0000 C   0  0  0  0  0  0  0  0  0  0  0  0
    5.4542   -3.5359    0.0000 C   0  0  0  0  0  0  0  0  0  0  0  0
    2.8660   -2.0103    0.0000 C   0  0  0  0  0  0  0  0  0  0  0  0
    3.7308   -3.5020    0.0000 C   0  0  0  0  0  0  0  0  0  0  0  0
    4.5828   -4.0094    0.0000 C   0  0  0  0  0  0  0  0  0  0  0  0
    5.4192    2.5056    0.0000 C   0  0  0  0  0  0  0  0  0  0  0  0
    5.3995    3.5054    0.0000 C   0  0  0  0  0  0  0  0  0  0  0  0
    6.2949    2.0228    0.0000 C   0  0  0  0  0  0  0  0  0  0  0  0
    6.2555    4.0224    0.0000 C   0  0  0  0  0  0  0  0  0  0  0  0
    7.1509    2.5397    0.0000 C   0  0  0  0  0  0  0  0  0  0  0  0
    7.1312    3.5395    0.0000 C   0  0  0  0  0  0  0  0  0  0  0  0
    4.5238    3.9883    0.0000 C   0  0  0  0  0  0  0  0  0  0  0  0
    5.9810    0.8424    0.0000 H   0  0  0  0  0  0  0  0  0  0  0  0
    3.1916   -3.8080    0.0000 H   0  0  0  0  0  0  0  0  0  0  0  0
    2.8565    1.5950    0.0000 H   0  0  0  0  0  0  0  0  0  0  0  0
    6.2840   -4.6830    0.0000 H   0  0  0  0  0  0  0  0  0  0  0  0
    4.0202   -5.3086    0.0000 H   0  0  0  0  0  0  0  0  0  0  0  0
    6.2433    4.6423    0.0000 H   0  0  0  0  0  0  0  0  0  0  0  0
    6.8575    0.7236    0.0000 H   0  0  0  0  0  0  0  0  0  0  0  0
    8.5573    2.3774    0.0000 H   0  0  0  0  0  0  0  0  0  0  0  0
    7.9750    4.6764    0.0000 H   0  0  0  0  0  0  0  0  0  0  0  0
    5.0348    5.3086    0.0000 H   0  0  0  0  0  0  0  0  0  0  0  0
  1 17  1  0  0  0  0
  1 25  1  0  0  0  0
  2 19  1  0  0  0  0
  2 23  1  0  0  0  0
  3 22  1  0  0  0  0
  3 28  1  0  0  0  0
  4 20  1  0  0  0  0
  4 37  1  0  0  0  0
  5 24  1  0  0  0  0
  5 38  1  0  0  0  0
  6 27  1  0  0  0  0
  6 39  1  0  0  0  0
  7 23  2  0  0  0  0
  8 25  2  0  0  0  0
  9 30  1  0  0  0  0
  9 41  1  0  0  0  0
 10 32  1  0  0  0  0
 10 42  1  0  0  0  0
 11 33  1  0  0  0  0
 11 43  1  0  0  0  0
 12 34  1  0  0  0  0
 12 44  1  0  0  0  0
 13 34  2  0  0  0  0
 14 15  1  0  0  0  0
 14 16  1  0  0  0  0
 14 17  2  0  0  0  0
 15 18  1  0  0  0  0
 15 19  2  0  0  0  0
 16 21  2  0  0  0  0
 16 23  1  0  0  0  0
 17 20  1  0  0  0  0
 18 25  1  0  0  0  0
 18 26  2  0  0  0  0
 19 24  1  0  0  0  0
 20 22  2  0  0  0  0
 21 22  1  0  0  0  0
 21 35  1  0  0  0  0
 24 27  2  0  0  0  0
 26 27  1  0  0  0  0
 26 36  1  0  0  0  0
 28 29  1  0  0  0  0
 28 30  2  0  0  0  0
 29 31  2  0  0  0  0
 29 34  1  0  0  0  0
 30 32  1  0  0  0  0
 31 33  1  0  0  0  0
 31 40  1  0  0  0  0
 32 33  2  0  0  0  0
M  END
>  <PUBCHEM_COMPOUND_CID>
10151874

>  <PUBCHEM_COMPOUND_CANONICALIZED>
1

>  <PUBCHEM_CACTVS_COMPLEXITY>
864

>  <PUBCHEM_CACTVS_HBOND_ACCEPTOR>
13

>  <PUBCHEM_CACTVS_HBOND_DONOR>
7

>  <PUBCHEM_CACTVS_ROTATABLE_BOND>
3

>  <PUBCHEM_CACTVS_SUBSKEYS>
AAADccB4PAAAAAAAAAAAAAAAAAAAAAAAAAA0aMECAAAAAACRUAAAGgAACAAADASAmAAwDoAABgCIAiDSCAACCAAkIAAAiAEGiMgNJzaGNBqCe2Ol4BULuYfK7PzOoQABCAAYQABCAAIQADCAAAAAAAAAAA==

>  <PUBCHEM_IUPAC_INCHI>
InChI=1S/C21H10O13/c22-7-2-6(19(28)29)16(15(27)12(7)24)32-9-3-5-11-10-4(20(30)34-18(11)14(9)26)1-8(23)13(25)17(10)33-21(5)31/h1-3,22-27H,(H,28,29)

>  <PUBCHEM_IUPAC_INCHIKEY>
BPAOAXAAABIQKR-UHFFFAOYSA-N

>  <PUBCHEM_XLOGP3_AA>
1.4

>  <PUBCHEM_EXACT_MASS>
470.012

>  <PUBCHEM_MOLECULAR_FORMULA>
C21H10O13

>  <PUBCHEM_MOLECULAR_WEIGHT>
470.298

>  <PUBCHEM_OPENEYE_CAN_SMILES>
C1=C2C3=C(C(=C1O)O)OC(=O)C4=CC(=C(C(=C43)OC2=O)O)OC5=C(C(=C(C=C5C(=O)O)O)O)O

>  <PUBCHEM_OPENEYE_ISO_SMILES>
C1=C2C3=C(C(=C1O)O)OC(=O)C4=CC(=C(C(=C43)OC2=O)O)OC5=C(C(=C(C=C5C(=O)O)O)O)O

>  <PUBCHEM_CACTVS_TPSA>
221

>  <PUBCHEM_MONOISOTOPIC_WEIGHT>
470.012

>  <PUBCHEM_TOTAL_CHARGE>
0

>  <PUBCHEM_HEAVY_ATOM_COUNT>
34

>  <PUBCHEM_ATOM_DEF_STEREO_COUNT>
0

>  <PUBCHEM_ATOM_UDEF_STEREO_COUNT>
0

>  <PUBCHEM_BOND_DEF_STEREO_COUNT>
0

>  <PUBCHEM_BOND_UDEF_STEREO_COUNT>
0

>  <PUBCHEM_ISOTOPIC_ATOM_COUNT>
0

>  <PUBCHEM_COMPONENT_COUNT>
1

>  <PUBCHEM_CACTVS_TAUTO_COUNT>
994

>  <PUBCHEM_COORDINATE_TYPE>
1
5
255

>  <PUBCHEM_BONDANNOTATIONS>
1  17  8
1  25  8
14  15  8
14  16  8
14  17  8
15  18  8
15  19  8
16  21  8
16  23  8
17  20  8
18  25  8
18  26  8
19  24  8
2  19  8
2  23  8
20  22  8
21  22  8
24  27  8
26  27  8
28  29  8
28  30  8
29  31  8
30  32  8
31  33  8
32  33  8

$$$$
