101602348
 OpenBabel06101807152D

 47 49  0  0  0  0  0  0  0  0999 V2000
    8.0901   -1.8017    0.0000 O   0  0  0  0  0  0  0  0  0  0  0  0
    6.3301    1.2329    0.0000 O   0  0  0  0  0  0  0  0  0  0  0  0
    4.5981   -1.7671    0.0000 O   0  0  0  0  0  0  0  0  0  0  0  0
    8.0785    1.2675    0.0000 O   0  0  0  0  0  0  0  0  0  0  0  0
   12.4602   -0.2329    0.0000 O   0  0  0  0  0  0  0  0  0  0  0  0
   12.4525    1.7671    0.0000 O   0  0  0  0  0  0  0  0  0  0  0  0
    7.1962   -0.2671    0.0000 C   0  0  0  0  0  0  0  0  0  0  0  0
    5.4641   -0.2671    0.0000 C   0  0  0  0  0  0  0  0  0  0  0  0
    6.3301    0.2329    0.0000 C   0  0  0  0  0  0  0  0  0  0  0  0
    7.1962   -1.2671    0.0000 C   0  0  0  0  0  0  0  0  0  0  0  0
    4.5981    0.2329    0.0000 C   0  0  0  0  0  0  0  0  0  0  0  0
    8.9962   -0.2463    0.0000 C   0  0  0  0  0  0  0  0  0  0  0  0
    8.0901    0.2676    0.0000 C   0  0  0  0  0  0  0  0  0  0  0  0
    5.4641   -1.2671    0.0000 C   0  0  0  0  0  0  0  0  0  0  0  0
    6.3301   -1.7671    0.0000 C   0  0  0  0  0  0  0  0  0  0  0  0
    9.8602    0.2571    0.0000 C   0  0  0  0  0  0  0  0  0  0  0  0
    8.9962   -1.2879    0.0000 C   0  0  0  0  0  0  0  0  0  0  0  0
    3.7320   -0.2671    0.0000 C   0  0  0  0  0  0  0  0  0  0  0  0
   10.7282   -0.2396    0.0000 C   0  0  0  0  0  0  0  0  0  0  0  0
    2.8660    0.2329    0.0000 C   0  0  0  0  0  0  0  0  0  0  0  0
    9.8564    1.2571    0.0000 C   0  0  0  0  0  0  0  0  0  0  0  0
   11.5923    0.2638    0.0000 C   0  0  0  0  0  0  0  0  0  0  0  0
   10.7205    1.7604    0.0000 C   0  0  0  0  0  0  0  0  0  0  0  0
   11.5884    1.2637    0.0000 C   0  0  0  0  0  0  0  0  0  0  0  0
    2.0000   -0.2671    0.0000 C   0  0  0  0  0  0  0  0  0  0  0  0
    2.8660    1.2329    0.0000 C   0  0  0  0  0  0  0  0  0  0  0  0
   12.4641   -1.2329    0.0000 C   0  0  0  0  0  0  0  0  0  0  0  0
    4.9966    0.7079    0.0000 H   0  0  0  0  0  0  0  0  0  0  0  0
    4.1996    0.7079    0.0000 H   0  0  0  0  0  0  0  0  0  0  0  0
    6.3301   -2.3871    0.0000 H   0  0  0  0  0  0  0  0  0  0  0  0
    9.5319   -1.6000    0.0000 H   0  0  0  0  0  0  0  0  0  0  0  0
    3.7320   -0.8871    0.0000 H   0  0  0  0  0  0  0  0  0  0  0  0
   10.7306   -0.8596    0.0000 H   0  0  0  0  0  0  0  0  0  0  0  0
    9.3183    1.5650    0.0000 H   0  0  0  0  0  0  0  0  0  0  0  0
    5.7932    1.5429    0.0000 H   0  0  0  0  0  0  0  0  0  0  0  0
   10.7181    2.3804    0.0000 H   0  0  0  0  0  0  0  0  0  0  0  0
    4.5981   -2.3871    0.0000 H   0  0  0  0  0  0  0  0  0  0  0  0
    3.4860    1.2329    0.0000 H   0  0  0  0  0  0  0  0  0  0  0  0
    2.8660    1.8529    0.0000 H   0  0  0  0  0  0  0  0  0  0  0  0
    1.6900    0.2699    0.0000 H   0  0  0  0  0  0  0  0  0  0  0  0
    1.4631   -0.5771    0.0000 H   0  0  0  0  0  0  0  0  0  0  0  0
    2.3100   -0.8040    0.0000 H   0  0  0  0  0  0  0  0  0  0  0  0
    2.2460    1.2329    0.0000 H   0  0  0  0  0  0  0  0  0  0  0  0
   12.4501    2.3871    0.0000 H   0  0  0  0  0  0  0  0  0  0  0  0
   11.8441   -1.2353    0.0000 H   0  0  0  0  0  0  0  0  0  0  0  0
   12.4665   -1.8529    0.0000 H   0  0  0  0  0  0  0  0  0  0  0  0
   13.0841   -1.2305    0.0000 H   0  0  0  0  0  0  0  0  0  0  0  0
  1 10  1  0  0  0  0
  1 17  1  0  0  0  0
  2  9  1  0  0  0  0
  2 35  1  0  0  0  0
  3 14  1  0  0  0  0
  3 37  1  0  0  0  0
  4 13  2  0  0  0  0
  5 22  1  0  0  0  0
  5 27  1  0  0  0  0
  6 24  1  0  0  0  0
  6 44  1  0  0  0  0
  7  9  1  0  0  0  0
  7 10  2  0  0  0  0
  7 13  1  0  0  0  0
  8  9  2  0  0  0  0
  8 11  1  0  0  0  0
  8 14  1  0  0  0  0
 10 15  1  0  0  0  0
 11 18  1  0  0  0  0
 11 28  1  0  0  0  0
 11 29  1  0  0  0  0
 12 13  1  0  0  0  0
 12 16  1  0  0  0  0
 12 17  2  0  0  0  0
 14 15  2  0  0  0  0
 15 30  1  0  0  0  0
 16 19  2  0  0  0  0
 16 21  1  0  0  0  0
 17 31  1  0  0  0  0
 18 20  2  0  0  0  0
 18 32  1  0  0  0  0
 19 22  1  0  0  0  0
 19 33  1  0  0  0  0
 20 25  1  0  0  0  0
 20 26  1  0  0  0  0
 21 23  2  0  0  0  0
 21 34  1  0  0  0  0
 22 24  2  0  0  0  0
 23 24  1  0  0  0  0
 23 36  1  0  0  0  0
 25 40  1  0  0  0  0
 25 41  1  0  0  0  0
 25 42  1  0  0  0  0
 26 38  1  0  0  0  0
 26 39  1  0  0  0  0
 26 43  1  0  0  0  0
 27 45  1  0  0  0  0
 27 46  1  0  0  0  0
 27 47  1  0  0  0  0
M  END
>  <PUBCHEM_COMPOUND_CID>
101602348

>  <PUBCHEM_COMPOUND_CANONICALIZED>
1

>  <PUBCHEM_CACTVS_COMPLEXITY>
608

>  <PUBCHEM_CACTVS_HBOND_ACCEPTOR>
6

>  <PUBCHEM_CACTVS_HBOND_DONOR>
3

>  <PUBCHEM_CACTVS_ROTATABLE_BOND>
4

>  <PUBCHEM_CACTVS_SUBSKEYS>
AAADceB4OAAAAAAAAAAAAAAAAAAAAAAAAAAwYIAAAAAAAACBQAAAGgAACAAADASgmAIyBoAABgCIAqBSAAACCAAkIAAIiAEGiMgNJzaGNRqAcWMl4BULuYeI7PzOIAADCAAIQABAAAYQABCAAAAAAAAAAA==

>  <PUBCHEM_IUPAC_OPENEYE_NAME>
5,7-dihydroxy-3-(4-hydroxy-3-methoxy-phenyl)-6-(3-methylbut-2-enyl)chromen-4-one

>  <PUBCHEM_IUPAC_CAS_NAME>
5,7-dihydroxy-3-(4-hydroxy-3-methoxyphenyl)-6-(3-methylbut-2-enyl)-1-benzopyran-4-one

>  <PUBCHEM_IUPAC_NAME>
5,7-dihydroxy-3-(4-hydroxy-3-methoxyphenyl)-6-(3-methylbut-2-enyl)chromen-4-one

>  <PUBCHEM_IUPAC_SYSTEMATIC_NAME>
3-(3-methoxy-4-oxidanyl-phenyl)-6-(3-methylbut-2-enyl)-5,7-bis(oxidanyl)chromen-4-one

>  <PUBCHEM_IUPAC_TRADITIONAL_NAME>
5,7-dihydroxy-3-(4-hydroxy-3-methoxy-phenyl)-6-(3-methylbut-2-enyl)chromone

>  <PUBCHEM_IUPAC_INCHI>
InChI=1S/C21H20O6/c1-11(2)4-6-13-16(23)9-18-19(20(13)24)21(25)14(10-27-18)12-5-7-15(22)17(8-12)26-3/h4-5,7-10,22-24H,6H2,1-3H3

>  <PUBCHEM_IUPAC_INCHIKEY>
XDDUYHWIRGRNAR-UHFFFAOYSA-N

>  <PUBCHEM_XLOGP3_AA>
4.6

>  <PUBCHEM_EXACT_MASS>
368.126

>  <PUBCHEM_MOLECULAR_FORMULA>
C21H20O6

>  <PUBCHEM_MOLECULAR_WEIGHT>
368.385

>  <PUBCHEM_OPENEYE_CAN_SMILES>
CC(=CCC1=C(C=C2C(=C1O)C(=O)C(=CO2)C3=CC(=C(C=C3)O)OC)O)C

>  <PUBCHEM_OPENEYE_ISO_SMILES>
CC(=CCC1=C(C=C2C(=C1O)C(=O)C(=CO2)C3=CC(=C(C=C3)O)OC)O)C

>  <PUBCHEM_CACTVS_TPSA>
96.2

>  <PUBCHEM_MONOISOTOPIC_WEIGHT>
368.126

>  <PUBCHEM_TOTAL_CHARGE>
0

>  <PUBCHEM_HEAVY_ATOM_COUNT>
27

>  <PUBCHEM_ATOM_DEF_STEREO_COUNT>
0

>  <PUBCHEM_ATOM_UDEF_STEREO_COUNT>
0

>  <PUBCHEM_BOND_DEF_STEREO_COUNT>
0

>  <PUBCHEM_BOND_UDEF_STEREO_COUNT>
0

>  <PUBCHEM_ISOTOPIC_ATOM_COUNT>
0

>  <PUBCHEM_COMPONENT_COUNT>
1

>  <PUBCHEM_CACTVS_TAUTO_COUNT>
24

>  <PUBCHEM_COORDINATE_TYPE>
1
5
255

>  <PUBCHEM_BONDANNOTATIONS>
1  10  8
1  17  8
10  15  8
12  13  8
12  17  8
14  15  8
16  19  8
16  21  8
19  22  8
21  23  8
22  24  8
23  24  8
7  10  8
7  13  8
7  9  8
8  14  8
8  9  8

$$$$
