101607200
 OpenBabel06101807152D

116125  0  0  1  0  0  0  0  0999 V2000
    9.5412   -0.8983    0.0000 O   0  0  0  0  0  0  0  0  0  0  0  0
   11.2732    1.1017    0.0000 O   0  0  0  0  0  0  0  0  0  0  0  0
    6.7878   -3.7637    0.0000 O   0  0  0  0  0  0  0  0  0  0  0  0
    8.2175    2.6108    0.0000 O   0  0  0  0  0  0  0  0  0  0  0  0
    5.8158   -1.3029    0.0000 O   0  0  0  0  0  0  0  0  0  0  0  0
    7.4501    2.0800    0.0000 O   0  0  0  0  0  0  0  0  0  0  0  0
    5.8752   -0.4229    0.0000 O   0  0  0  0  0  0  0  0  0  0  0  0
   11.8077    1.8731    0.0000 O   0  0  0  0  0  0  0  0  0  0  0  0
    7.2583    5.1509    0.0000 O   0  0  0  0  0  0  0  0  0  0  0  0
   10.9093    4.8605    0.0000 O   0  0  0  0  0  0  0  0  0  0  0  0
    9.8732   -1.7662    0.0000 O   0  0  0  0  0  0  0  0  0  0  0  0
   10.1108   -4.9554    0.0000 O   0  0  0  0  0  0  0  0  0  0  0  0
   13.0053    0.1018    0.0000 O   0  0  0  0  0  0  0  0  0  0  0  0
   12.1393   -3.3983    0.0000 O   0  0  0  0  0  0  0  0  0  0  0  0
   13.8713   -2.3983    0.0000 O   0  0  0  0  0  0  0  0  0  0  0  0
    3.5085   -5.2624    0.0000 O   0  0  0  0  0  0  0  0  0  0  0  0
    2.2053   -3.7452    0.0000 O   0  0  0  0  0  0  0  0  0  0  0  0
    4.2821    4.5758    0.0000 O   0  0  0  0  0  0  0  0  0  0  0  0
    3.6054    2.6939    0.0000 O   0  0  0  0  0  0  0  0  0  0  0  0
   13.8713    3.6017    0.0000 O   0  0  0  0  0  0  0  0  0  0  0  0
   15.6034    0.6017    0.0000 O   0  0  0  0  0  0  0  0  0  0  0  0
   15.6034    2.6017    0.0000 O   0  0  0  0  0  0  0  0  0  0  0  0
    9.5412    1.1017    0.0000 C   0  0  2  0  0  0  0  0  0  0  0  0
   10.4072    0.6017    0.0000 C   0  0  2  0  0  0  0  0  0  0  0  0
    8.6752    0.6017    0.0000 C   0  0  0  0  0  0  0  0  0  0  0  0
    7.4501   -1.8765    0.0000 C   0  0  2  0  0  0  0  0  0  0  0  0
   10.4072   -0.3983    0.0000 C   0  0  1  0  0  0  0  0  0  0  0  0
    8.6752   -0.3983    0.0000 C   0  0  0  0  0  0  0  0  0  0  0  0
    7.7812   -0.9329    0.0000 C   0  0  0  0  0  0  0  0  0  0  0  0
    9.8832    2.0414    0.0000 C   0  0  0  0  0  0  0  0  0  0  0  0
    6.4674   -2.0616    0.0000 C   0  0  2  0  0  0  0  0  0  0  0  0
    6.1363   -3.0052    0.0000 C   0  0  1  0  0  0  0  0  0  0  0  0
    8.1017   -2.6351    0.0000 C   0  0  0  0  0  0  0  0  0  0  0  0
    9.2404    2.8075    0.0000 C   0  0  0  0  0  0  0  0  0  0  0  0
    7.7812    1.1364    0.0000 C   0  0  0  0  0  0  0  0  0  0  0  0
    6.8752   -0.4191    0.0000 C   0  0  0  0  0  0  0  0  0  0  0  0
   11.2732   -0.8983    0.0000 C   0  0  0  0  0  0  0  0  0  0  0  0
    9.5824    3.7472    0.0000 C   0  0  0  0  0  0  0  0  0  0  0  0
    8.9253    4.5553    0.0000 C   0  0  0  0  0  0  0  0  0  0  0  0
   10.8680    2.2151    0.0000 C   0  0  0  0  0  0  0  0  0  0  0  0
    7.8981    4.3824    0.0000 C   0  0  1  0  0  0  0  0  0  0  0  0
    7.5418    3.4036    0.0000 C   0  0  1  0  0  0  0  0  0  0  0  0
    7.7706   -3.5786    0.0000 C   0  0  0  0  0  0  0  0  0  0  0  0
    6.8752    0.6226    0.0000 C   0  0  0  0  0  0  0  0  0  0  0  0
    5.1535   -3.1902    0.0000 C   0  0  0  0  0  0  0  0  0  0  0  0
   10.5673    3.9208    0.0000 C   0  0  0  0  0  0  0  0  0  0  0  0
    9.1222   -2.4266    0.0000 C   0  0  0  0  0  0  0  0  0  0  0  0
   11.2100    3.1548    0.0000 C   0  0  0  0  0  0  0  0  0  0  0  0
   11.2732   -1.8983    0.0000 C   0  0  0  0  0  0  0  0  0  0  0  0
   12.1393   -0.3983    0.0000 C   0  0  0  0  0  0  0  0  0  0  0  0
    8.4370   -4.3792    0.0000 C   0  0  0  0  0  0  0  0  0  0  0  0
    6.5577    3.2261    0.0000 C   0  0  0  0  0  0  0  0  0  0  0  0
   12.1393    0.6017    0.0000 C   0  0  0  0  0  0  0  0  0  0  0  0
    9.8070   -3.2115    0.0000 C   0  0  0  0  0  0  0  0  0  0  0  0
    9.4621   -4.1943    0.0000 C   0  0  0  0  0  0  0  0  0  0  0  0
    4.8224   -4.1338    0.0000 C   0  0  0  0  0  0  0  0  0  0  0  0
    4.5019   -2.4316    0.0000 C   0  0  0  0  0  0  0  0  0  0  0  0
   12.1393   -2.3983    0.0000 C   0  0  0  0  0  0  0  0  0  0  0  0
   13.0053   -0.8983    0.0000 C   0  0  0  0  0  0  0  0  0  0  0  0
   13.0053   -1.8983    0.0000 C   0  0  0  0  0  0  0  0  0  0  0  0
    5.9120    3.9897    0.0000 C   0  0  0  0  0  0  0  0  0  0  0  0
    6.2194    2.2852    0.0000 C   0  0  0  0  0  0  0  0  0  0  0  0
   13.0053    1.1017    0.0000 C   0  0  0  0  0  0  0  0  0  0  0  0
    3.8397   -4.3188    0.0000 C   0  0  0  0  0  0  0  0  0  0  0  0
    3.5192   -2.6166    0.0000 C   0  0  0  0  0  0  0  0  0  0  0  0
    3.1880   -3.5602    0.0000 C   0  0  0  0  0  0  0  0  0  0  0  0
    4.9279    3.8122    0.0000 C   0  0  0  0  0  0  0  0  0  0  0  0
    5.2352    2.1077    0.0000 C   0  0  0  0  0  0  0  0  0  0  0  0
    4.5895    2.8713    0.0000 C   0  0  0  0  0  0  0  0  0  0  0  0
   13.8713    0.6017    0.0000 C   0  0  0  0  0  0  0  0  0  0  0  0
   13.0053    2.1017    0.0000 C   0  0  0  0  0  0  0  0  0  0  0  0
   13.8713    2.6017    0.0000 C   0  0  0  0  0  0  0  0  0  0  0  0
   14.7373    1.1017    0.0000 C   0  0  0  0  0  0  0  0  0  0  0  0
   14.7373    2.1017    0.0000 C   0  0  0  0  0  0  0  0  0  0  0  0
   10.3399    1.3925    0.0000 H   0  0  0  0  0  0  0  0  0  0  0  0
   10.9442    0.2917    0.0000 H   0  0  0  0  0  0  0  0  0  0  0  0
    6.8962   -1.2317    0.0000 H   0  0  0  0  0  0  0  0  0  0  0  0
   10.4072   -1.0183    0.0000 H   0  0  0  0  0  0  0  0  0  0  0  0
    5.8581   -2.1763    0.0000 H   0  0  0  0  0  0  0  0  0  0  0  0
    5.9310   -3.5902    0.0000 H   0  0  0  0  0  0  0  0  0  0  0  0
    9.4662    4.8584    0.0000 H   0  0  0  0  0  0  0  0  0  0  0  0
    8.7192    5.1401    0.0000 H   0  0  0  0  0  0  0  0  0  0  0  0
    7.2873    4.2759    0.0000 H   0  0  0  0  0  0  0  0  0  0  0  0
    7.1424    3.8777    0.0000 H   0  0  0  0  0  0  0  0  0  0  0  0
    6.3394    0.9346    0.0000 H   0  0  0  0  0  0  0  0  0  0  0  0
   11.8206    3.2624    0.0000 H   0  0  0  0  0  0  0  0  0  0  0  0
    5.2065   -1.4176    0.0000 H   0  0  0  0  0  0  0  0  0  0  0  0
   10.7363   -2.2083    0.0000 H   0  0  0  0  0  0  0  0  0  0  0  0
   12.1393    0.2217    0.0000 H   0  0  0  0  0  0  0  0  0  0  0  0
    8.2250   -4.9618    0.0000 H   0  0  0  0  0  0  0  0  0  0  0  0
   10.4159   -3.0944    0.0000 H   0  0  0  0  0  0  0  0  0  0  0  0
    6.8408    2.1947    0.0000 H   0  0  0  0  0  0  0  0  0  0  0  0
    5.5631    0.1129    0.0000 H   0  0  0  0  0  0  0  0  0  0  0  0
    5.2264   -4.6041    0.0000 H   0  0  0  0  0  0  0  0  0  0  0  0
    4.7072   -1.8466    0.0000 H   0  0  0  0  0  0  0  0  0  0  0  0
   12.2827    2.2716    0.0000 H   0  0  0  0  0  0  0  0  0  0  0  0
    7.4726    5.7327    0.0000 H   0  0  0  0  0  0  0  0  0  0  0  0
   13.5422   -0.5883    0.0000 H   0  0  0  0  0  0  0  0  0  0  0  0
    6.1218    4.5731    0.0000 H   0  0  0  0  0  0  0  0  0  0  0  0
    6.6197    1.8118    0.0000 H   0  0  0  0  0  0  0  0  0  0  0  0
   11.5199    4.9682    0.0000 H   0  0  0  0  0  0  0  0  0  0  0  0
   10.4606   -1.9648    0.0000 H   0  0  0  0  0  0  0  0  0  0  0  0
    3.1152   -2.1463    0.0000 H   0  0  0  0  0  0  0  0  0  0  0  0
    5.0254    1.5243    0.0000 H   0  0  0  0  0  0  0  0  0  0  0  0
    9.9032   -5.5396    0.0000 H   0  0  0  0  0  0  0  0  0  0  0  0
   13.8713   -0.0183    0.0000 H   0  0  0  0  0  0  0  0  0  0  0  0
   12.4684    2.4117    0.0000 H   0  0  0  0  0  0  0  0  0  0  0  0
   12.6762   -3.7083    0.0000 H   0  0  0  0  0  0  0  0  0  0  0  0
   14.4083   -2.0883    0.0000 H   0  0  0  0  0  0  0  0  0  0  0  0
    3.9125   -5.7327    0.0000 H   0  0  0  0  0  0  0  0  0  0  0  0
    2.0000   -4.3302    0.0000 H   0  0  0  0  0  0  0  0  0  0  0  0
    3.6720    4.4658    0.0000 H   0  0  0  0  0  0  0  0  0  0  0  0
    3.3955    2.1104    0.0000 H   0  0  0  0  0  0  0  0  0  0  0  0
   14.4083    3.9117    0.0000 H   0  0  0  0  0  0  0  0  0  0  0  0
   15.6034   -0.0183    0.0000 H   0  0  0  0  0  0  0  0  0  0  0  0
   15.6034    3.2217    0.0000 H   0  0  0  0  0  0  0  0  0  0  0  0
  1 27  1  0  0  0  0
  1 28  1  0  0  0  0
  2 53  1  0  0  0  0
  3 32  1  0  0  0  0
  3 43  1  0  0  0  0
  4 34  1  0  0  0  0
  4 42  1  0  0  0  0
  5 87  1  0  0  0  0
  6 35  1  0  0  0  0
  6 92  1  0  0  0  0
  7 36  1  0  0  0  0
  7 93  1  0  0  0  0
  8 40  1  0  0  0  0
  8 96  1  0  0  0  0
  9 97  1  0  0  0  0
 10 46  1  0  0  0  0
 10101  1  0  0  0  0
 11 47  1  0  0  0  0
 11102  1  0  0  0  0
 12 55  1  0  0  0  0
 12105  1  0  0  0  0
 13 53  2  0  0  0  0
 14 58  1  0  0  0  0
 14108  1  0  0  0  0
 15 60  1  0  0  0  0
 15109  1  0  0  0  0
 16 64  1  0  0  0  0
 16110  1  0  0  0  0
 17 66  1  0  0  0  0
 17111  1  0  0  0  0
 18 67  1  0  0  0  0
 18112  1  0  0  0  0
 19 69  1  0  0  0  0
 19113  1  0  0  0  0
 20 72  1  0  0  0  0
 20114  1  0  0  0  0
 21 73  1  0  0  0  0
 21115  1  0  0  0  0
 22 74  1  0  0  0  0
 22116  1  0  0  0  0
 23 24  1  6  0  0  0
 23 25  1  0  0  0  0
 23 30  1  0  0  0  0
 23 75  1  0  0  0  0
 24  2  1  0  0  0  0
 24 27  1  1  0  0  0
 24 76  1  0  0  0  0
 25 28  1  0  0  0  0
 25 35  2  0  0  0  0
 26 29  1  0  0  0  0
 26 31  1  1  0  0  0
 26 33  1  0  0  0  0
 26 77  1  0  0  0  0
 27 37  1  0  0  0  0
 27 78  1  6  0  0  0
 28 29  2  0  0  0  0
 29 36  1  0  0  0  0
 30 34  1  0  0  0  0
 30 40  2  0  0  0  0
 31  5  1  0  0  0  0
 31 32  1  6  0  0  0
 31 79  1  0  0  0  0
 32 45  1  0  0  0  0
 32 80  1  1  0  0  0
 33 43  1  0  0  0  0
 33 47  2  0  0  0  0
 34 38  2  0  0  0  0
 35 44  1  0  0  0  0
 36 44  2  0  0  0  0
 37 49  2  0  0  0  0
 37 50  1  0  0  0  0
 38 39  1  0  0  0  0
 38 46  1  0  0  0  0
 39 41  1  0  0  0  0
 39 81  1  0  0  0  0
 39 82  1  0  0  0  0
 40 48  1  0  0  0  0
 41  9  1  0  0  0  0
 41 42  1  1  0  0  0
 41 83  1  0  0  0  0
 42 52  1  0  0  0  0
 42 84  1  1  0  0  0
 43 51  2  0  0  0  0
 44 85  1  0  0  0  0
 45 56  2  0  0  0  0
 45 57  1  0  0  0  0
 46 48  2  0  0  0  0
 47 54  1  0  0  0  0
 48 86  1  0  0  0  0
 49 58  1  0  0  0  0
 49 88  1  0  0  0  0
 50 59  2  0  0  0  0
 50 89  1  0  0  0  0
 51 55  1  0  0  0  0
 51 90  1  0  0  0  0
 52 61  2  0  0  0  0
 52 62  1  0  0  0  0
 53 63  1  0  0  0  0
 54 55  2  0  0  0  0
 54 91  1  0  0  0  0
 56 64  1  0  0  0  0
 56 94  1  0  0  0  0
 57 65  2  0  0  0  0
 57 95  1  0  0  0  0
 58 60  2  0  0  0  0
 59 60  1  0  0  0  0
 59 98  1  0  0  0  0
 61 67  1  0  0  0  0
 61 99  1  0  0  0  0
 62 68  2  0  0  0  0
 62100  1  0  0  0  0
 63 70  2  0  0  0  0
 63 71  1  0  0  0  0
 64 66  2  0  0  0  0
 65 66  1  0  0  0  0
 65103  1  0  0  0  0
 67 69  2  0  0  0  0
 68 69  1  0  0  0  0
 68104  1  0  0  0  0
 70 73  1  0  0  0  0
 70106  1  0  0  0  0
 71 72  2  0  0  0  0
 71107  1  0  0  0  0
 72 74  1  0  0  0  0
 73 74  2  0  0  0  0
M  END
>  <PUBCHEM_COMPOUND_CID>
101607200

>  <PUBCHEM_COMPOUND_CANONICALIZED>
1

>  <PUBCHEM_CACTVS_COMPLEXITY>
1890

>  <PUBCHEM_CACTVS_HBOND_ACCEPTOR>
22

>  <PUBCHEM_CACTVS_HBOND_DONOR>
17

>  <PUBCHEM_CACTVS_ROTATABLE_BOND>
8

>  <PUBCHEM_CACTVS_SUBSKEYS>
AAADcfB8PgAAAAAAAAAAAAAAAAAAAAAAAAA0aNGDAAAAAACRVAAAGgAACAAADRSgmAIwDoAABgCIAiDSCAACCAAkIAAIiAEGiMgNNzKGNRqCeSGlwBULuYfK7PzOoAADCAAIQABAAAYQABCAAAAAAAAAAA==

>  <PUBCHEM_IUPAC_OPENEYE_NAME>
[(2R,3R,4S)-2-(3,4-dihydroxyphenyl)-4-[(2R,3S)-2-(3,4-dihydroxyphenyl)-3,5,7-trihydroxy-chroman-8-yl]-8-[(2R,3R,4R)-2-(3,4-dihydroxyphenyl)-3,5,7-trihydroxy-chroman-4-yl]-5,7-dihydroxy-chroman-3-yl] 3,4,5-trihydroxybenzoate

>  <PUBCHEM_IUPAC_CAS_NAME>
3,4,5-trihydroxybenzoic acid [(2R,3R,4S)-2-(3,4-dihydroxyphenyl)-4-[(2R,3S)-2-(3,4-dihydroxyphenyl)-3,5,7-trihydroxy-3,4-dihydro-2H-1-benzopyran-8-yl]-8-[(2R,3R,4R)-2-(3,4-dihydroxyphenyl)-3,5,7-trihydroxy-3,4-dihydro-2H-1-benzopyran-4-yl]-5,7-dihydroxy-3,4-dihydro-2H-1-benzopyran-3-yl] ester

>  <PUBCHEM_IUPAC_NAME>
[(2R,3R,4S)-2-(3,4-dihydroxyphenyl)-4-[(2R,3S)-2-(3,4-dihydroxyphenyl)-3,5,7-trihydroxy-3,4-dihydro-2H-chromen-8-yl]-8-[(2R,3R,4R)-2-(3,4-dihydroxyphenyl)-3,5,7-trihydroxy-3,4-dihydro-2H-chromen-4-yl]-5,7-dihydroxy-3,4-dihydro-2H-chromen-3-yl] 3,4,5-trihydroxybenzoate

>  <PUBCHEM_IUPAC_SYSTEMATIC_NAME>
[(2R,3R,4S)-2-[3,4-bis(oxidanyl)phenyl]-4-[(2R,3S)-2-[3,4-bis(oxidanyl)phenyl]-3,5,7-tris(oxidanyl)-3,4-dihydro-2H-chromen-8-yl]-8-[(2R,3R,4R)-2-[3,4-bis(oxidanyl)phenyl]-3,5,7-tris(oxidanyl)-3,4-dihydro-2H-chromen-4-yl]-5,7-bis(oxidanyl)-3,4-dihydro-2H-chromen-3-yl] 3,4,5-tris(oxidanyl)benzoate

>  <PUBCHEM_IUPAC_TRADITIONAL_NAME>
3,4,5-trihydroxybenzoic acid [(2R,3R,4S)-2-(3,4-dihydroxyphenyl)-4-[(2R,3S)-2-(3,4-dihydroxyphenyl)-3,5,7-trihydroxy-chroman-8-yl]-8-[(2R,3R,4R)-2-(3,4-dihydroxyphenyl)-3,5,7-trihydroxy-chroman-4-yl]-5,7-dihydroxy-chroman-3-yl] ester

>  <PUBCHEM_IUPAC_INCHI>
InChI=1S/C52H42O22/c53-21-12-30(61)38-37(13-21)71-47(18-2-5-24(55)28(59)8-18)45(69)42(38)39-32(63)16-33(64)41-43(40-31(62)15-26(57)22-14-36(67)46(72-49(22)40)17-1-4-23(54)27(58)7-17)51(74-52(70)20-10-34(65)44(68)35(66)11-20)48(73-50(39)41)19-3-6-25(56)29(60)9-19/h1-13,15-16,36,42-43,45-48,51,53-69H,14H2/t36-,42+,43-,45+,46+,47+,48+,51+/m0/s1

>  <PUBCHEM_IUPAC_INCHIKEY>
XLGRDEOFHNGKLV-OKJFZLKJSA-N

>  <PUBCHEM_XLOGP3_AA>
4.5

>  <PUBCHEM_EXACT_MASS>
1018.217

>  <PUBCHEM_MOLECULAR_FORMULA>
C52H42O22

>  <PUBCHEM_MOLECULAR_WEIGHT>
1018.886

>  <PUBCHEM_OPENEYE_CAN_SMILES>
C1C(C(OC2=C1C(=CC(=C2C3C(C(OC4=C(C(=CC(=C34)O)O)C5C(C(OC6=CC(=CC(=C56)O)O)C7=CC(=C(C=C7)O)O)O)C8=CC(=C(C=C8)O)O)OC(=O)C9=CC(=C(C(=C9)O)O)O)O)O)C1=CC(=C(C=C1)O)O)O

>  <PUBCHEM_OPENEYE_ISO_SMILES>
C1[C@@H]([C@H](OC2=C1C(=CC(=C2[C@@H]3[C@H]([C@H](OC4=C(C(=CC(=C34)O)O)[C@@H]5[C@H]([C@H](OC6=CC(=CC(=C56)O)O)C7=CC(=C(C=C7)O)O)O)C8=CC(=C(C=C8)O)O)OC(=O)C9=CC(=C(C(=C9)O)O)O)O)O)C1=CC(=C(C=C1)O)O)O

>  <PUBCHEM_CACTVS_TPSA>
398

>  <PUBCHEM_MONOISOTOPIC_WEIGHT>
1018.217

>  <PUBCHEM_TOTAL_CHARGE>
0

>  <PUBCHEM_HEAVY_ATOM_COUNT>
74

>  <PUBCHEM_ATOM_DEF_STEREO_COUNT>
8

>  <PUBCHEM_ATOM_UDEF_STEREO_COUNT>
0

>  <PUBCHEM_BOND_DEF_STEREO_COUNT>
0

>  <PUBCHEM_BOND_UDEF_STEREO_COUNT>
0

>  <PUBCHEM_ISOTOPIC_ATOM_COUNT>
0

>  <PUBCHEM_COMPONENT_COUNT>
1

>  <PUBCHEM_CACTVS_TAUTO_COUNT>
938

>  <PUBCHEM_COORDINATE_TYPE>
1
5
255

>  <PUBCHEM_BONDANNOTATIONS>
24  2  5
23  75  5
25  28  8
25  35  8
26  77  6
27  37  5
28  29  8
29  36  8
30  34  8
30  40  8
32  45  6
33  43  8
33  47  8
34  38  8
35  44  8
36  44  8
37  49  8
37  50  8
38  46  8
40  48  8
42  52  6
43  51  8
45  56  8
45  57  8
46  48  8
47  54  8
49  58  8
31  5  6
50  59  8
51  55  8
52  61  8
52  62  8
54  55  8
56  64  8
57  65  8
58  60  8
59  60  8
61  67  8
62  68  8
63  70  8
63  71  8
64  66  8
65  66  8
67  69  8
68  69  8
70  73  8
71  72  8
72  74  8
73  74  8
41  9  5

$$$$
