101633791
 OpenBabel06101807152D

 22 20  0  0  0  0  0  0  0  0999 V2000
    4.5981    1.4050    0.0000 S   0  0  0  0  0  0  0  0  0  0  0  0
    6.3301   -1.5950    0.0000 S   0  0  0  0  0  0  0  0  0  0  0  0
    2.0000   -0.0950    0.0000 Na  0  3  0  0  0 15  0  0  0  0  0  0
    2.8660   -2.5950    0.0000 Na  0  3  0  0  0 15  0  0  0  0  0  0
    4.5981    2.4050    0.0000 O   0  0  0  0  0  0  0  0  0  0  0  0
    7.1962   -2.0950    0.0000 O   0  0  0  0  0  0  0  0  0  0  0  0
    2.8660    0.4050    0.0000 O   0  5  0  0  0  0  0  0  0  0  0  0
    5.5981    1.4050    0.0000 O   0  0  0  0  0  0  0  0  0  0  0  0
    3.5981    1.4050    0.0000 O   0  0  0  0  0  0  0  0  0  0  0  0
    5.8301   -2.4610    0.0000 O   0  0  0  0  0  0  0  0  0  0  0  0
    6.8301   -0.7290    0.0000 O   0  0  0  0  0  0  0  0  0  0  0  0
    2.8660   -1.5950    0.0000 O   0  5  0  0  0  0  0  0  0  0  0  0
    4.5981    0.4050    0.0000 C   0  0  0  0  0  0  0  0  0  0  0  0
    5.4641   -1.0950    0.0000 C   0  0  0  0  0  0  0  0  0  0  0  0
    5.4641   -0.0950    0.0000 C   0  0  0  0  0  0  0  0  0  0  0  0
    3.7320   -0.0950    0.0000 C   0  0  0  0  0  0  0  0  0  0  0  0
    4.5981   -1.5950    0.0000 C   0  0  0  0  0  0  0  0  0  0  0  0
    3.7320   -1.0950    0.0000 C   0  0  0  0  0  0  0  0  0  0  0  0
    6.0010    0.2150    0.0000 H   0  0  0  0  0  0  0  0  0  0  0  0
    4.5981   -2.2150    0.0000 H   0  0  0  0  0  0  0  0  0  0  0  0
    5.1350    2.7150    0.0000 H   0  0  0  0  0  0  0  0  0  0  0  0
    7.1962   -2.7150    0.0000 H   0  0  0  0  0  0  0  0  0  0  0  0
  1  5  1  0  0  0  0
  1  8  2  0  0  0  0
  1  9  2  0  0  0  0
  1 13  1  0  0  0  0
  2  6  1  0  0  0  0
  2 10  2  0  0  0  0
  2 11  2  0  0  0  0
  2 14  1  0  0  0  0
  5 21  1  0  0  0  0
  6 22  1  0  0  0  0
  7 16  1  0  0  0  0
 12 18  1  0  0  0  0
 13 15  2  0  0  0  0
 13 16  1  0  0  0  0
 14 15  1  0  0  0  0
 14 17  2  0  0  0  0
 15 19  1  0  0  0  0
 16 18  2  0  0  0  0
 17 18  1  0  0  0  0
 17 20  1  0  0  0  0
M  CHG  4   3   1   4   1   7  -1  12  -1
M  END
>  <PUBCHEM_COMPOUND_CID>
101633791

>  <PUBCHEM_COMPOUND_CANONICALIZED>
1

>  <PUBCHEM_CACTVS_COMPLEXITY>
440

>  <PUBCHEM_CACTVS_HBOND_ACCEPTOR>
8

>  <PUBCHEM_CACTVS_HBOND_DONOR>
2

>  <PUBCHEM_CACTVS_ROTATABLE_BOND>
2

>  <PUBCHEM_CACTVS_SUBSKEYS>
AAADcYBgPDBgAAAAAAAAAAAAAAAAAAAAAAAwAAAAAAAAAAABAAAAGgQACAAACASA0AAwB4AAAIKAACBCAHBCAEAgIAAAiBoGiIgJJiKAERKAMAAkwBEIiAeAQAAAAIAABEAAYAABAAAIgADAAAAAAAAAAA==

>  <PUBCHEM_IUPAC_OPENEYE_NAME>
disodium;3,5-disulfobenzene-1,2-diolate

>  <PUBCHEM_IUPAC_CAS_NAME>
disodium;3,5-disulfobenzene-1,2-diolate

>  <PUBCHEM_IUPAC_NAME>
disodium;3,5-disulfobenzene-1,2-diolate

>  <PUBCHEM_IUPAC_SYSTEMATIC_NAME>
disodium;3,5-disulfobenzene-1,2-diolate

>  <PUBCHEM_IUPAC_TRADITIONAL_NAME>
disodium;3,5-disulfobenzene-1,2-diolate

>  <PUBCHEM_IUPAC_INCHI>
InChI=1S/C6H6O8S2.2Na/c7-4-1-3(15(9,10)11)2-5(6(4)8)16(12,13)14;;/h1-2,7-8H,(H,9,10,11)(H,12,13,14);;/q;2*+1/p-2

>  <PUBCHEM_IUPAC_INCHIKEY>
ISWQCIVKKSOKNN-UHFFFAOYSA-L

>  <PUBCHEM_EXACT_MASS>
313.914

>  <PUBCHEM_MOLECULAR_FORMULA>
C6H4Na2O8S2

>  <PUBCHEM_MOLECULAR_WEIGHT>
314.19

>  <PUBCHEM_OPENEYE_CAN_SMILES>
C1=C(C=C(C(=C1S(=O)(=O)O)[O-])[O-])S(=O)(=O)O.[Na+].[Na+]

>  <PUBCHEM_OPENEYE_ISO_SMILES>
C1=C(C=C(C(=C1S(=O)(=O)O)[O-])[O-])S(=O)(=O)O.[Na+].[Na+]

>  <PUBCHEM_CACTVS_TPSA>
172

>  <PUBCHEM_MONOISOTOPIC_WEIGHT>
313.914

>  <PUBCHEM_TOTAL_CHARGE>
0

>  <PUBCHEM_HEAVY_ATOM_COUNT>
18

>  <PUBCHEM_ATOM_DEF_STEREO_COUNT>
0

>  <PUBCHEM_ATOM_UDEF_STEREO_COUNT>
0

>  <PUBCHEM_BOND_DEF_STEREO_COUNT>
0

>  <PUBCHEM_BOND_UDEF_STEREO_COUNT>
0

>  <PUBCHEM_ISOTOPIC_ATOM_COUNT>
0

>  <PUBCHEM_COMPONENT_COUNT>
3

>  <PUBCHEM_CACTVS_TAUTO_COUNT>
1

>  <PUBCHEM_COORDINATE_TYPE>
1
5
255

>  <PUBCHEM_BONDANNOTATIONS>
13  15  8
13  16  8
14  15  8
14  17  8
16  18  8
17  18  8

$$$$
