101679106
 OpenBabel06101807152D

 45 48  0  0  1  0  0  0  0  0999 V2000
    5.6405   -3.5716    0.0000 O   0  0  0  0  0  0  0  0  0  0  0  0
    4.6622    4.1346    0.0000 O   0  0  0  0  0  0  0  0  0  0  0  0
    6.4361    3.1105    0.0000 O   0  0  0  0  0  0  0  0  0  0  0  0
    3.8372   -4.6313    0.0000 O   0  0  0  0  0  0  0  0  0  0  0  0
    2.9180    0.0654    0.0000 N   0  3  0  0  0  0  0  0  0  0  0  0
    2.0080   -0.4414    0.0000 C   0  0  0  0  0  0  0  0  0  0  0  0
    3.7841   -0.4346    0.0000 C   0  0  0  0  0  0  0  0  0  0  0  0
    2.0000   -1.4830    0.0000 C   0  0  0  0  0  0  0  0  0  0  0  0
    3.8001   -1.4761    0.0000 C   0  0  0  0  0  0  0  0  0  0  0  0
    2.9021   -2.0039    0.0000 C   0  0  0  0  0  0  0  0  0  0  0  0
    2.9180    1.0654    0.0000 C   0  0  0  0  0  0  0  0  0  0  0  0
    4.6501    0.0654    0.0000 C   0  0  0  0  0  0  0  0  0  0  0  0
    3.7841    1.5654    0.0000 C   0  0  0  0  0  0  0  0  0  0  0  0
    4.6501    1.0654    0.0000 C   0  0  0  0  0  0  0  0  0  0  0  0
    4.7520   -1.9967    0.0000 C   0  0  0  0  0  0  0  0  0  0  0  0
    2.8937   -3.0888    0.0000 C   0  0  0  0  0  0  0  0  0  0  0  0
    3.7680    2.6069    0.0000 C   0  0  0  0  0  0  0  0  0  0  0  0
    5.5601    1.5722    0.0000 C   0  0  0  0  0  0  0  0  0  0  0  0
    4.7688   -3.0816    0.0000 C   0  0  0  0  0  0  0  0  0  0  0  0
    3.8334   -3.6313    0.0000 C   0  0  0  0  0  0  0  0  0  0  0  0
    4.6660    3.1347    0.0000 C   0  0  0  0  0  0  0  0  0  0  0  0
    5.5681    2.6138    0.0000 C   0  0  0  0  0  0  0  0  0  0  0  0
    5.6521   -4.5715    0.0000 C   0  0  0  0  0  0  0  0  0  0  0  0
    3.7942    4.6313    0.0000 C   0  0  0  0  0  0  0  0  0  0  0  0
    7.3002    2.6072    0.0000 C   0  0  0  0  0  0  0  0  0  0  0  0
    2.3811    0.3754    0.0000 H   0  0  0  0  0  0  0  0  0  0  0  0
    1.8035    0.1438    0.0000 H   0  0  0  0  0  0  0  0  0  0  0  0
    1.3964   -0.5428    0.0000 H   0  0  0  0  0  0  0  0  0  0  0  0
    1.3900   -1.3722    0.0000 H   0  0  0  0  0  0  0  0  0  0  0  0
    1.7864   -2.0651    0.0000 H   0  0  0  0  0  0  0  0  0  0  0  0
    2.3811    1.3754    0.0000 H   0  0  0  0  0  0  0  0  0  0  0  0
    5.1870   -0.2446    0.0000 H   0  0  0  0  0  0  0  0  0  0  0  0
    5.2829   -1.6764    0.0000 H   0  0  0  0  0  0  0  0  0  0  0  0
    2.3556   -3.3968    0.0000 H   0  0  0  0  0  0  0  0  0  0  0  0
    3.2275    2.9107    0.0000 H   0  0  0  0  0  0  0  0  0  0  0  0
    6.0934    1.2561    0.0000 H   0  0  0  0  0  0  0  0  0  0  0  0
    5.0321   -4.5786    0.0000 H   0  0  0  0  0  0  0  0  0  0  0  0
    5.6592   -5.1914    0.0000 H   0  0  0  0  0  0  0  0  0  0  0  0
    6.2720   -4.5643    0.0000 H   0  0  0  0  0  0  0  0  0  0  0  0
    4.1022    5.1694    0.0000 H   0  0  0  0  0  0  0  0  0  0  0  0
    3.2561    4.9392    0.0000 H   0  0  0  0  0  0  0  0  0  0  0  0
    3.4863    4.0932    0.0000 H   0  0  0  0  0  0  0  0  0  0  0  0
    6.9881    2.0714    0.0000 H   0  0  0  0  0  0  0  0  0  0  0  0
    7.8359    2.2951    0.0000 H   0  0  0  0  0  0  0  0  0  0  0  0
    7.6122    3.1429    0.0000 H   0  0  0  0  0  0  0  0  0  0  0  0
  1 19  1  0  0  0  0
  1 23  1  0  0  0  0
  2 21  1  0  0  0  0
  2 24  1  0  0  0  0
  3 22  1  0  0  0  0
  3 25  1  0  0  0  0
  4 20  2  0  0  0  0
  5  6  1  0  0  0  0
  5  7  1  0  0  0  0
  5 11  1  0  0  0  0
  5 26  1  0  0  0  0
  6  8  1  0  0  0  0
  6 27  1  0  0  0  0
  6 28  1  0  0  0  0
  7  9  2  0  0  0  0
  7 12  1  0  0  0  0
  8 10  1  0  0  0  0
  8 29  1  0  0  0  0
  8 30  1  0  0  0  0
  9 10  1  0  0  0  0
  9 15  1  0  0  0  0
 10 16  2  0  0  0  0
 11 13  2  0  0  0  0
 11 31  1  0  0  0  0
 12 14  2  0  0  0  0
 12 32  1  0  0  0  0
 13 14  1  0  0  0  0
 13 17  1  0  0  0  0
 14 18  1  0  0  0  0
 15 19  2  0  0  0  0
 15 33  1  0  0  0  0
 16 20  1  0  0  0  0
 16 34  1  0  0  0  0
 17 21  2  0  0  0  0
 17 35  1  0  0  0  0
 18 22  2  0  0  0  0
 18 36  1  0  0  0  0
 19 20  1  0  0  0  0
 21 22  1  0  0  0  0
 23 37  1  0  0  0  0
 23 38  1  0  0  0  0
 23 39  1  0  0  0  0
 24 40  1  0  0  0  0
 24 41  1  0  0  0  0
 24 42  1  0  0  0  0
 25 43  1  0  0  0  0
 25 44  1  0  0  0  0
 25 45  1  0  0  0  0
M  CHG  1   5   1
M  END
>  <PUBCHEM_COMPOUND_CID>
101679106

>  <PUBCHEM_COMPOUND_CANONICALIZED>
1

>  <PUBCHEM_CACTVS_COMPLEXITY>
877

>  <PUBCHEM_CACTVS_HBOND_ACCEPTOR>
4

>  <PUBCHEM_CACTVS_HBOND_DONOR>
1

>  <PUBCHEM_CACTVS_ROTATABLE_BOND>
3

>  <PUBCHEM_CACTVS_SUBSKEYS>
AAADceB6OAAAAAAAAAAAAAAAAAAAAAAAAAAgQIEAAAAAAACAAAAAHgAQAAAADAzBgAYCAAPABACIAqRWQAKACAAgIAAACIBIAEgJBAIAoQQEEAAA0ACKoYIQAAAAAAAAAAAAAAAAAAAAAAAAAAAAAAAAAA==

>  <PUBCHEM_IUPAC_OPENEYE_NAME>
2,10,11-trimethoxy-6,7-dihydro-5H-isoquinolino[2,1-b]isoquinolin-7-ium-3-one

>  <PUBCHEM_IUPAC_CAS_NAME>
2,10,11-trimethoxy-6,7-dihydro-5H-isoquinolino[2,1-b]isoquinolin-7-ium-3-one

>  <PUBCHEM_IUPAC_NAME>
2,10,11-trimethoxy-6,7-dihydro-5H-isoquinolino[2,1-b]isoquinolin-7-ium-3-one

>  <PUBCHEM_IUPAC_SYSTEMATIC_NAME>
2,10,11-trimethoxy-6,7-dihydro-5H-isoquinolino[2,1-b]isoquinolin-7-ium-3-one

>  <PUBCHEM_IUPAC_TRADITIONAL_NAME>
2,10,11-trimethoxy-6,7-dihydro-5H-isoquinolin[2,1-b]isoquinolin-7-ium-3-one

>  <PUBCHEM_IUPAC_INCHI>
InChI=1S/C20H19NO4/c1-23-18-10-15-12(7-17(18)22)4-5-21-11-14-9-20(25-3)19(24-2)8-13(14)6-16(15)21/h6-11H,4-5H2,1-3H3/p+1

>  <PUBCHEM_IUPAC_INCHIKEY>
YKOWIGFWFQCIKO-UHFFFAOYSA-O

>  <PUBCHEM_XLOGP3_AA>
1.4

>  <PUBCHEM_EXACT_MASS>
338.139

>  <PUBCHEM_MOLECULAR_FORMULA>
C20H20NO4+

>  <PUBCHEM_MOLECULAR_WEIGHT>
338.383

>  <PUBCHEM_OPENEYE_CAN_SMILES>
COC1=CC2=CC3=C4C=C(C(=O)C=C4CC[NH+]3C=C2C=C1OC)OC

>  <PUBCHEM_OPENEYE_ISO_SMILES>
COC1=CC2=CC3=C4C=C(C(=O)C=C4CC[NH+]3C=C2C=C1OC)OC

>  <PUBCHEM_CACTVS_TPSA>
49.2

>  <PUBCHEM_MONOISOTOPIC_WEIGHT>
338.139

>  <PUBCHEM_TOTAL_CHARGE>
1

>  <PUBCHEM_HEAVY_ATOM_COUNT>
25

>  <PUBCHEM_ATOM_DEF_STEREO_COUNT>
0

>  <PUBCHEM_ATOM_UDEF_STEREO_COUNT>
0

>  <PUBCHEM_BOND_DEF_STEREO_COUNT>
0

>  <PUBCHEM_BOND_UDEF_STEREO_COUNT>
0

>  <PUBCHEM_ISOTOPIC_ATOM_COUNT>
0

>  <PUBCHEM_COMPONENT_COUNT>
1

>  <PUBCHEM_CACTVS_TAUTO_COUNT>
18

>  <PUBCHEM_COORDINATE_TYPE>
1
5
255

>  <PUBCHEM_BONDANNOTATIONS>
13  14  8
13  17  8
14  18  8
17  21  8
18  22  8
21  22  8

$$$$
