101618976
 OpenBabel06101807152D

 47 51  0  0  1  0  0  0  0  0999 V2000
    5.1842    1.0406    0.0000 O   0  0  0  0  0  0  0  0  0  0  0  0
    5.9101   -2.3392    0.0000 O   0  0  0  0  0  0  0  0  0  0  0  0
    2.2395   -0.0601    0.0000 O   0  0  0  0  0  0  0  0  0  0  0  0
    2.7623    1.5971    0.0000 O   0  0  0  0  0  0  0  0  0  0  0  0
    6.2610    2.2690    0.0000 O   0  0  0  0  0  0  0  0  0  0  0  0
    4.5350    2.1234    0.0000 O   0  0  0  0  0  0  0  0  0  0  0  0
    6.2522    0.1523    0.0000 C   0  0  1  0  0  0  0  0  0  0  0  0
    5.9503   -0.7149    0.0000 C   0  0  2  0  0  0  0  0  0  0  0  0
    5.0383   -0.6933    0.0000 C   0  0  2  0  0  0  0  0  0  0  0  0
    4.7752    0.1807    0.0000 C   0  0  2  0  0  0  0  0  0  0  0  0
    5.5240    0.7015    0.0000 C   0  0  2  0  0  0  0  0  0  0  0  0
    6.9482   -0.6801    0.0000 C   0  0  0  0  0  0  0  0  0  0  0  0
    3.8580    0.3967    0.0000 C   0  0  1  0  0  0  0  0  0  0  0  0
    7.1191    0.4569    0.0000 C   0  0  0  0  0  0  0  0  0  0  0  0
    8.0011   -0.9427    0.0000 C   0  0  1  0  0  0  0  0  0  0  0  0
    6.4406   -1.4914    0.0000 C   0  0  2  0  0  0  0  0  0  0  0  0
    7.3529   -1.5927    0.0000 C   0  0  0  0  0  0  0  0  0  0  0  0
    7.8967   -0.0301    0.0000 C   0  0  0  0  0  0  0  0  0  0  0  0
    4.4005   -1.4079    0.0000 C   0  0  0  0  0  0  0  0  0  0  0  0
    3.2128   -0.2895    0.0000 C   0  0  2  0  0  0  0  0  0  0  0  0
    3.5931    1.0406    0.0000 C   0  0  0  0  0  0  0  0  0  0  0  0
    5.4400    1.6980    0.0000 C   0  0  0  0  0  0  0  0  0  0  0  0
    2.8745    0.5779    0.0000 C   0  0  0  0  0  0  0  0  0  0  0  0
    3.4843   -1.1921    0.0000 C   0  0  0  0  0  0  0  0  0  0  0  0
    8.7003    0.5650    0.0000 C   0  0  0  0  0  0  0  0  0  0  0  0
    5.5311   -1.4544    0.0000 H   0  0  0  0  0  0  0  0  0  0  0  0
    4.3402    0.9109    0.0000 H   0  0  0  0  0  0  0  0  0  0  0  0
    6.0668    1.0011    0.0000 H   0  0  0  0  0  0  0  0  0  0  0  0
    6.9911   -1.2986    0.0000 H   0  0  0  0  0  0  0  0  0  0  0  0
    6.3731   -0.9117    0.0000 H   0  0  0  0  0  0  0  0  0  0  0  0
    6.7885    0.9815    0.0000 H   0  0  0  0  0  0  0  0  0  0  0  0
    7.5569    0.8960    0.0000 H   0  0  0  0  0  0  0  0  0  0  0  0
    8.8038   -1.2222    0.0000 H   0  0  0  0  0  0  0  0  0  0  0  0
    6.7106   -2.0496    0.0000 H   0  0  0  0  0  0  0  0  0  0  0  0
    7.8783   -1.9218    0.0000 H   0  0  0  0  0  0  0  0  0  0  0  0
    7.1490   -2.1782    0.0000 H   0  0  0  0  0  0  0  0  0  0  0  0
    4.5869   -1.9992    0.0000 H   0  0  0  0  0  0  0  0  0  0  0  0
    2.7879   -0.7410    0.0000 H   0  0  0  0  0  0  0  0  0  0  0  0
    2.7622   -0.0319    0.0000 H   0  0  0  0  0  0  0  0  0  0  0  0
    2.2648    0.6902    0.0000 H   0  0  0  0  0  0  0  0  0  0  0  0
    2.9868    1.1876    0.0000 H   0  0  0  0  0  0  0  0  0  0  0  0
    3.0594   -1.6437    0.0000 H   0  0  0  0  0  0  0  0  0  0  0  0
    6.2009   -2.8868    0.0000 H   0  0  0  0  0  0  0  0  0  0  0  0
    8.6299    1.1810    0.0000 H   0  0  0  0  0  0  0  0  0  0  0  0
    9.2690    0.3181    0.0000 H   0  0  0  0  0  0  0  0  0  0  0  0
    1.8146   -0.5115    0.0000 H   0  0  0  0  0  0  0  0  0  0  0  0
    6.2089    2.8868    0.0000 H   0  0  0  0  0  0  0  0  0  0  0  0
  1 21  1  0  0  0  0
  2 43  1  0  0  0  0
  3 46  1  0  0  0  0
  4 21  2  0  0  0  0
  5 22  1  0  0  0  0
  5 47  1  0  0  0  0
  6 22  2  0  0  0  0
  7  8  1  6  0  0  0
  7 12  1  0  0  0  0
  7 14  1  0  0  0  0
  8  9  1  1  0  0  0
  8 26  1  0  0  0  0
  9  1  1  0  0  0  0
  9 10  1  6  0  0  0
  9 19  1  0  0  0  0
 10 11  1  1  0  0  0
 10 27  1  0  0  0  0
 11  7  1  6  0  0  0
 11 22  1  0  0  0  0
 11 28  1  0  0  0  0
 12 15  1  0  0  0  0
 12 29  1  0  0  0  0
 12 30  1  0  0  0  0
 13 10  1  6  0  0  0
 13 21  1  0  0  0  0
 13 23  1  0  0  0  0
 14 18  1  0  0  0  0
 14 31  1  0  0  0  0
 14 32  1  0  0  0  0
 15 17  1  0  0  0  0
 15 18  1  0  0  0  0
 15 33  1  1  0  0  0
 16  2  1  0  0  0  0
 16  8  1  1  0  0  0
 16 17  1  0  0  0  0
 16 34  1  0  0  0  0
 17 35  1  0  0  0  0
 17 36  1  0  0  0  0
 18 25  2  0  0  0  0
 19 24  2  0  0  0  0
 19 37  1  0  0  0  0
 20  3  1  0  0  0  0
 20 13  1  1  0  0  0
 20 24  1  0  0  0  0
 20 38  1  0  0  0  0
 23 39  1  0  0  0  0
 23 40  1  0  0  0  0
 23 41  1  0  0  0  0
 24 42  1  0  0  0  0
 25 44  1  0  0  0  0
 25 45  1  0  0  0  0
M  END
>  <PUBCHEM_COMPOUND_CID>
101618976

>  <PUBCHEM_COMPOUND_CANONICALIZED>
1

>  <PUBCHEM_CACTVS_COMPLEXITY>
757

>  <PUBCHEM_CACTVS_HBOND_ACCEPTOR>
6

>  <PUBCHEM_CACTVS_HBOND_DONOR>
3

>  <PUBCHEM_CACTVS_ROTATABLE_BOND>
1

>  <PUBCHEM_CACTVS_SUBSKEYS>
AAADceB4OAAAAAAAAAAAAAAAAAAAAaMEAAAwQAAABggSAGDAAAAAGgAACAAAD1SggAICCAAABgCIAiDSCAAAAAAgAAAICAEAAAgAFBYAIQACUAAFoAAIMAPK7vzPgAAAAAAAAACAAAYAADAAAYAADAAAAA==

>  <PUBCHEM_IUPAC_INCHI>
InChI=1S/C19H22O6/c1-8-6-18-7-9(8)5-10(20)13(18)19-4-3-11(21)17(2,16(24)25-19)14(19)12(18)15(22)23/h3-4,9-14,20-21H,1,5-7H2,2H3,(H,22,23)/t9-,10+,11+,12-,13-,14-,17-,18-,19-/m1/s1

>  <PUBCHEM_IUPAC_INCHIKEY>
ITIKZMJAVWOFFK-DMQYUYNFSA-N

>  <PUBCHEM_XLOGP3>
0.5

>  <PUBCHEM_EXACT_MASS>
346.142

>  <PUBCHEM_MOLECULAR_FORMULA>
C19H22O6

>  <PUBCHEM_MOLECULAR_WEIGHT>
346.379

>  <PUBCHEM_OPENEYE_CAN_SMILES>
CC12C(C=CC3(C1C(C45C3C(CC(C4)C(=C)C5)O)C(=O)O)OC2=O)O

>  <PUBCHEM_OPENEYE_ISO_SMILES>
C[C@@]12[C@H](C=C[C@@]3([C@@H]1[C@@H]([C@]45[C@H]3[C@H](C[C@H](C4)C(=C)C5)O)C(=O)O)OC2=O)O

>  <PUBCHEM_CACTVS_TPSA>
104

>  <PUBCHEM_MONOISOTOPIC_WEIGHT>
346.142

>  <PUBCHEM_TOTAL_CHARGE>
0

>  <PUBCHEM_HEAVY_ATOM_COUNT>
25

>  <PUBCHEM_ATOM_DEF_STEREO_COUNT>
9

>  <PUBCHEM_ATOM_UDEF_STEREO_COUNT>
0

>  <PUBCHEM_BOND_DEF_STEREO_COUNT>
0

>  <PUBCHEM_BOND_UDEF_STEREO_COUNT>
0

>  <PUBCHEM_ISOTOPIC_ATOM_COUNT>
0

>  <PUBCHEM_COMPONENT_COUNT>
1

>  <PUBCHEM_CACTVS_TAUTO_COUNT>
2

>  <PUBCHEM_COORDINATE_TYPE>
1
5
255

>  <PUBCHEM_BONDANNOTATIONS>
9  1  5
10  27  6
11  22  6
13  23  6
15  33  5
16  2  6
20  3  6
7  12  5
8  26  6

$$$$
