101633887
 OpenBabel06101807152D

114119  0  0  1  0  0  0  0  0999 V2000
    8.5991   -0.1870    0.0000 O   0  0  0  0  0  0  0  0  0  0  0  0
   14.6720   -0.7026    0.0000 O   0  0  0  0  0  0  0  0  0  0  0  0
    6.8671   -2.1870    0.0000 O   0  0  0  0  0  0  0  0  0  0  0  0
   10.3312   -0.1870    0.0000 O   0  0  0  0  0  0  0  0  0  0  0  0
    8.5991   -3.1870    0.0000 O   0  0  0  0  0  0  0  0  0  0  0  0
   10.3312   -2.1870    0.0000 O   0  0  0  0  0  0  0  0  0  0  0  0
   13.8233    0.8073    0.0000 O   0  0  0  0  0  0  0  0  0  0  0  0
   13.7771   -3.1924    0.0000 O   0  0  0  0  0  0  0  0  0  0  0  0
   12.0567   -2.1725    0.0000 O   0  0  0  0  0  0  0  0  0  0  0  0
   12.0799   -0.1726    0.0000 O   0  0  0  0  0  0  0  0  0  0  0  0
    6.0010   -0.6870    0.0000 O   0  0  0  0  0  0  0  0  0  0  0  0
   16.3923   -1.7226    0.0000 O   0  0  0  0  0  0  0  0  0  0  0  0
   12.1145    2.8272    0.0000 O   0  3  0  0  0  0  0  0  0  0  0  0
    7.7331   -3.6870    0.0000 O   0  0  0  0  0  0  0  0  0  0  0  0
    8.5849    2.8922    0.0000 O   0  0  0  0  0  0  0  0  0  0  0  0
    5.1350    0.8130    0.0000 O   0  0  0  0  0  0  0  0  0  0  0  0
   17.2410   -3.2325    0.0000 O   0  0  0  0  0  0  0  0  0  0  0  0
    5.1350   -5.1870    0.0000 O   0  0  0  0  0  0  0  0  0  0  0  0
    6.8671   -5.1870    0.0000 O   0  0  0  0  0  0  0  0  0  0  0  0
   14.7414    5.2970    0.0000 O   0  0  0  0  0  0  0  0  0  0  0  0
   16.4386    2.2772    0.0000 O   0  0  0  0  0  0  0  0  0  0  0  0
   16.4617    4.2770    0.0000 O   0  0  0  0  0  0  0  0  0  0  0  0
    2.5369   -0.6870    0.0000 O   0  0  0  0  0  0  0  0  0  0  0  0
    3.4030    0.8130    0.0000 O   0  0  0  0  0  0  0  0  0  0  0  0
   22.4715   -0.2928    0.0000 O   0  0  0  0  0  0  0  0  0  0  0  0
    7.7331   -1.6870    0.0000 C   0  0  1  0  0  0  0  0  0  0  0  0
    8.5991   -2.1870    0.0000 C   0  0  1  0  0  0  0  0  0  0  0  0
    7.7331   -0.6870    0.0000 C   0  0  1  0  0  0  0  0  0  0  0  0
    9.4651   -1.6870    0.0000 C   0  0  2  0  0  0  0  0  0  0  0  0
    9.4651   -0.6870    0.0000 C   0  0  1  0  0  0  0  0  0  0  0  0
   13.7887   -2.1925    0.0000 C   0  0  1  0  0  0  0  0  0  0  0  0
   12.9285   -1.6825    0.0000 C   0  0  1  0  0  0  0  0  0  0  0  0
   14.6604   -1.7025    0.0000 C   0  0  1  0  0  0  0  0  0  0  0  0
   12.9400   -0.6826    0.0000 C   0  0  2  0  0  0  0  0  0  0  0  0
   13.8118   -0.1926    0.0000 C   0  0  1  0  0  0  0  0  0  0  0  0
    6.8671   -0.1870    0.0000 C   0  0  0  0  0  0  0  0  0  0  0  0
   15.5206   -2.2125    0.0000 C   0  0  0  0  0  0  0  0  0  0  0  0
   10.3312    0.8130    0.0000 C   0  0  0  0  0  0  0  0  0  0  0  0
   12.9632    1.3173    0.0000 C   0  0  0  0  0  0  0  0  0  0  0  0
   11.2312    1.3373    0.0000 C   0  0  0  0  0  0  0  0  0  0  0  0
    6.8671   -3.1870    0.0000 C   0  0  0  0  0  0  0  0  0  0  0  0
   12.0914    0.8273    0.0000 C   0  0  0  0  0  0  0  0  0  0  0  0
   11.2428    2.3372    0.0000 C   0  0  0  0  0  0  0  0  0  0  0  0
   12.9747    2.3172    0.0000 C   0  0  0  0  0  0  0  0  0  0  0  0
    9.4311    1.3373    0.0000 C   0  0  0  0  0  0  0  0  0  0  0  0
    6.0010   -3.6870    0.0000 C   0  0  0  0  0  0  0  0  0  0  0  0
   10.3551    2.8822    0.0000 C   0  0  0  0  0  0  0  0  0  0  0  0
    9.4431    2.3789    0.0000 C   0  0  0  0  0  0  0  0  0  0  0  0
    5.1350   -0.1870    0.0000 C   0  0  0  0  0  0  0  0  0  0  0  0
   13.8465    2.8072    0.0000 C   0  0  0  0  0  0  0  0  0  0  0  0
   17.2525   -2.2325    0.0000 C   0  0  0  0  0  0  0  0  0  0  0  0
    4.2690   -0.6870    0.0000 C   0  0  0  0  0  0  0  0  0  0  0  0
    6.0010   -4.6870    0.0000 C   0  0  0  0  0  0  0  0  0  0  0  0
   14.7067    2.2972    0.0000 C   0  0  0  0  0  0  0  0  0  0  0  0
   13.8580    3.8071    0.0000 C   0  0  0  0  0  0  0  0  0  0  0  0
   18.1243   -1.7426    0.0000 C   0  0  0  0  0  0  0  0  0  0  0  0
   14.7298    4.2971    0.0000 C   0  0  0  0  0  0  0  0  0  0  0  0
   15.5784    2.7872    0.0000 C   0  0  0  0  0  0  0  0  0  0  0  0
   15.5900    3.7871    0.0000 C   0  0  0  0  0  0  0  0  0  0  0  0
    3.4030   -0.1870    0.0000 C   0  0  0  0  0  0  0  0  0  0  0  0
   18.9845   -2.2526    0.0000 C   0  0  0  0  0  0  0  0  0  0  0  0
   19.8562   -1.7626    0.0000 C   0  0  0  0  0  0  0  0  0  0  0  0
   13.8812    5.8070    0.0000 C   0  0  0  0  0  0  0  0  0  0  0  0
   17.3103    2.7671    0.0000 C   0  0  0  0  0  0  0  0  0  0  0  0
   20.7164   -2.2726    0.0000 C   0  0  0  0  0  0  0  0  0  0  0  0
   19.8678   -0.7627    0.0000 C   0  0  0  0  0  0  0  0  0  0  0  0
   21.5882   -1.7826    0.0000 C   0  0  0  0  0  0  0  0  0  0  0  0
   20.7395   -0.2727    0.0000 C   0  0  0  0  0  0  0  0  0  0  0  0
   21.5997   -0.7827    0.0000 C   0  0  0  0  0  0  0  0  0  0  0  0
    7.1962   -1.3770    0.0000 H   0  0  0  0  0  0  0  0  0  0  0  0
    8.0622   -2.4970    0.0000 H   0  0  0  0  0  0  0  0  0  0  0  0
    7.7331   -0.0670    0.0000 H   0  0  0  0  0  0  0  0  0  0  0  0
   10.0021   -1.3770    0.0000 H   0  0  0  0  0  0  0  0  0  0  0  0
    9.4651   -0.0670    0.0000 H   0  0  0  0  0  0  0  0  0  0  0  0
   13.2482   -2.4963    0.0000 H   0  0  0  0  0  0  0  0  0  0  0  0
   12.3952   -1.3663    0.0000 H   0  0  0  0  0  0  0  0  0  0  0  0
   15.2009   -1.3988    0.0000 H   0  0  0  0  0  0  0  0  0  0  0  0
   12.9472   -0.0626    0.0000 H   0  0  0  0  0  0  0  0  0  0  0  0
   14.3523    0.1111    0.0000 H   0  0  0  0  0  0  0  0  0  0  0  0
    7.2656    0.2880    0.0000 H   0  0  0  0  0  0  0  0  0  0  0  0
    6.4685    0.2880    0.0000 H   0  0  0  0  0  0  0  0  0  0  0  0
   15.1166   -2.6828    0.0000 H   0  0  0  0  0  0  0  0  0  0  0  0
   15.9136   -2.6920    0.0000 H   0  0  0  0  0  0  0  0  0  0  0  0
    9.1360   -3.4970    0.0000 H   0  0  0  0  0  0  0  0  0  0  0  0
   10.8681   -1.8770    0.0000 H   0  0  0  0  0  0  0  0  0  0  0  0
   14.3104   -3.5086    0.0000 H   0  0  0  0  0  0  0  0  0  0  0  0
   12.0496   -2.7924    0.0000 H   0  0  0  0  0  0  0  0  0  0  0  0
   11.5394   -0.4764    0.0000 H   0  0  0  0  0  0  0  0  0  0  0  0
   12.0842    0.2074    0.0000 H   0  0  0  0  0  0  0  0  0  0  0  0
    8.8918    1.0315    0.0000 H   0  0  0  0  0  0  0  0  0  0  0  0
    5.7890   -3.1044    0.0000 H   0  0  0  0  0  0  0  0  0  0  0  0
    5.3905   -3.7946    0.0000 H   0  0  0  0  0  0  0  0  0  0  0  0
   10.3694    3.5020    0.0000 H   0  0  0  0  0  0  0  0  0  0  0  0
    3.8705   -1.1619    0.0000 H   0  0  0  0  0  0  0  0  0  0  0  0
    4.6675   -1.1619    0.0000 H   0  0  0  0  0  0  0  0  0  0  0  0
   14.6995    1.6772    0.0000 H   0  0  0  0  0  0  0  0  0  0  0  0
   13.3247    4.1233    0.0000 H   0  0  0  0  0  0  0  0  0  0  0  0
    8.5945    3.5121    0.0000 H   0  0  0  0  0  0  0  0  0  0  0  0
   18.1314   -1.1226    0.0000 H   0  0  0  0  0  0  0  0  0  0  0  0
   18.9773   -2.8725    0.0000 H   0  0  0  0  0  0  0  0  0  0  0  0
    5.1350   -5.8070    0.0000 H   0  0  0  0  0  0  0  0  0  0  0  0
   16.4689    4.8970    0.0000 H   0  0  0  0  0  0  0  0  0  0  0  0
    2.0000   -0.3770    0.0000 H   0  0  0  0  0  0  0  0  0  0  0  0
   14.1974    6.3403    0.0000 H   0  0  0  0  0  0  0  0  0  0  0  0
   13.3479    6.1232    0.0000 H   0  0  0  0  0  0  0  0  0  0  0  0
   13.5650    5.2737    0.0000 H   0  0  0  0  0  0  0  0  0  0  0  0
   17.6141    2.2266    0.0000 H   0  0  0  0  0  0  0  0  0  0  0  0
   17.8508    3.0709    0.0000 H   0  0  0  0  0  0  0  0  0  0  0  0
   17.0066    3.3076    0.0000 H   0  0  0  0  0  0  0  0  0  0  0  0
   20.7092   -2.8926    0.0000 H   0  0  0  0  0  0  0  0  0  0  0  0
   19.3345   -0.4465    0.0000 H   0  0  0  0  0  0  0  0  0  0  0  0
   22.1215   -2.0988    0.0000 H   0  0  0  0  0  0  0  0  0  0  0  0
   20.7467    0.3472    0.0000 H   0  0  0  0  0  0  0  0  0  0  0  0
   23.0048   -0.6090    0.0000 H   0  0  0  0  0  0  0  0  0  0  0  0
  1 28  1  0  0  0  0
  1 30  1  0  0  0  0
  2 33  1  0  0  0  0
  2 35  1  0  0  0  0
  3 41  1  0  0  0  0
  4 38  1  0  0  0  0
  5 84  1  0  0  0  0
  6 85  1  0  0  0  0
  7 39  1  0  0  0  0
  8 86  1  0  0  0  0
  9 87  1  0  0  0  0
 10 88  1  0  0  0  0
 11 36  1  0  0  0  0
 11 49  1  0  0  0  0
 12 37  1  0  0  0  0
 12 51  1  0  0  0  0
 13 43  2  0  0  0  0
 13 44  1  0  0  0  0
 14 41  2  0  0  0  0
 15 48  1  0  0  0  0
 15 98  1  0  0  0  0
 16 49  2  0  0  0  0
 17 51  2  0  0  0  0
 18 53  1  0  0  0  0
 18101  1  0  0  0  0
 19 53  2  0  0  0  0
 20 57  1  0  0  0  0
 20 63  1  0  0  0  0
 21 58  1  0  0  0  0
 21 64  1  0  0  0  0
 22 59  1  0  0  0  0
 22102  1  0  0  0  0
 23 60  1  0  0  0  0
 23103  1  0  0  0  0
 24 60  2  0  0  0  0
 25 69  1  0  0  0  0
 25114  1  0  0  0  0
 26  3  1  0  0  0  0
 26 27  1  1  0  0  0
 26 70  1  0  0  0  0
 27  5  1  0  0  0  0
 27 29  1  6  0  0  0
 27 71  1  0  0  0  0
 28 26  1  6  0  0  0
 28 36  1  0  0  0  0
 28 72  1  0  0  0  0
 29  6  1  0  0  0  0
 29 30  1  6  0  0  0
 29 73  1  0  0  0  0
 30  4  1  0  0  0  0
 30 74  1  6  0  0  0
 31  8  1  0  0  0  0
 31 32  1  1  0  0  0
 31 75  1  0  0  0  0
 32  9  1  0  0  0  0
 32 34  1  6  0  0  0
 32 76  1  0  0  0  0
 33 31  1  1  0  0  0
 33 37  1  0  0  0  0
 33 77  1  0  0  0  0
 34 10  1  0  0  0  0
 34 35  1  1  0  0  0
 34 78  1  0  0  0  0
 35  7  1  0  0  0  0
 35 79  1  1  0  0  0
 36 80  1  0  0  0  0
 36 81  1  0  0  0  0
 37 82  1  0  0  0  0
 37 83  1  0  0  0  0
 38 40  1  0  0  0  0
 38 45  2  0  0  0  0
 39 42  1  0  0  0  0
 39 44  2  0  0  0  0
 40 42  2  0  0  0  0
 40 43  1  0  0  0  0
 41 46  1  0  0  0  0
 42 89  1  0  0  0  0
 43 47  1  0  0  0  0
 44 50  1  0  0  0  0
 45 48  1  0  0  0  0
 45 90  1  0  0  0  0
 46 53  1  0  0  0  0
 46 91  1  0  0  0  0
 46 92  1  0  0  0  0
 47 48  2  0  0  0  0
 47 93  1  0  0  0  0
 49 52  1  0  0  0  0
 50 54  2  0  0  0  0
 50 55  1  0  0  0  0
 51 56  1  0  0  0  0
 52 60  1  0  0  0  0
 52 94  1  0  0  0  0
 52 95  1  0  0  0  0
 54 58  1  0  0  0  0
 54 96  1  0  0  0  0
 55 57  2  0  0  0  0
 55 97  1  0  0  0  0
 56 61  2  3  0  0  0
 56 99  1  0  0  0  0
 57 59  1  0  0  0  0
 58 59  2  0  0  0  0
 61 62  1  0  0  0  0
 61100  1  0  0  0  0
 62 65  2  0  0  0  0
 62 66  1  0  0  0  0
 63104  1  0  0  0  0
 63105  1  0  0  0  0
 63106  1  0  0  0  0
 64107  1  0  0  0  0
 64108  1  0  0  0  0
 64109  1  0  0  0  0
 65 67  1  0  0  0  0
 65110  1  0  0  0  0
 66 68  2  0  0  0  0
 66111  1  0  0  0  0
 67 69  2  0  0  0  0
 67112  1  0  0  0  0
 68 69  1  0  0  0  0
 68113  1  0  0  0  0
M  CHG  1  13   1
M  END
>  <PUBCHEM_COMPOUND_CID>
101633887

>  <PUBCHEM_COMPOUND_CANONICALIZED>
1

>  <PUBCHEM_CACTVS_COMPLEXITY>
1740

>  <PUBCHEM_CACTVS_HBOND_ACCEPTOR>
24

>  <PUBCHEM_CACTVS_HBOND_DONOR>
10

>  <PUBCHEM_CACTVS_ROTATABLE_BOND>
21

>  <PUBCHEM_CACTVS_SUBSKEYS>
AAADcfB8PgAAAAAAAAAAAAAAAAAAAAAAAAA0aNECAAAAAACR9AAAGgAACAAADBSwmAMyDsAABkCIAqDSCAICCAAkIAAIiAFGiMgdNzaONR6ieWOl4BUPuYfK7PzOIAABCAAIQABAAAIQABCAAAAAAAAAAA==

>  <PUBCHEM_IUPAC_OPENEYE_NAME>
3-[[(2R,3S,4R,5R,6S)-3-(2-carboxyacetyl)oxy-4,5-dihydroxy-6-[7-hydroxy-2-(4-hydroxy-3,5-dimethoxy-phenyl)-3-[(2S,3R,4S,5S,6R)-3,4,5-trihydroxy-6-[3-(4-hydroxyphenyl)prop-2-enoyloxymethyl]tetrahydropyran-2-yl]oxy-chromenylium-5-yl]oxy-tetrahydropyran-2-yl]methoxy]-3-oxo-propanoic acid

>  <PUBCHEM_IUPAC_CAS_NAME>
3-[[(2R,3S,4R,5R,6S)-3-(2-carboxy-1-oxoethoxy)-4,5-dihydroxy-6-[[7-hydroxy-2-(4-hydroxy-3,5-dimethoxyphenyl)-3-[[(2S,3R,4S,5S,6R)-3,4,5-trihydroxy-6-[[3-(4-hydroxyphenyl)-1-oxoprop-2-enoxy]methyl]-2-oxanyl]oxy]-1-benzopyrylium-5-yl]oxy]-2-oxanyl]methoxy]-3-oxopropanoic acid

>  <PUBCHEM_IUPAC_NAME>
3-[[(2R,3S,4R,5R,6S)-3-(2-carboxyacetyl)oxy-4,5-dihydroxy-6-[7-hydroxy-2-(4-hydroxy-3,5-dimethoxyphenyl)-3-[(2S,3R,4S,5S,6R)-3,4,5-trihydroxy-6-[3-(4-hydroxyphenyl)prop-2-enoyloxymethyl]oxan-2-yl]oxychromenylium-5-yl]oxyoxan-2-yl]methoxy]-3-oxopropanoic acid

>  <PUBCHEM_IUPAC_SYSTEMATIC_NAME>
3-[[(2R,3S,4R,5R,6S)-6-[2-(3,5-dimethoxy-4-oxidanyl-phenyl)-3-[(2S,3R,4S,5S,6R)-6-[3-(4-hydroxyphenyl)prop-2-enoyloxymethyl]-3,4,5-tris(oxidanyl)oxan-2-yl]oxy-7-oxidanyl-chromenylium-5-yl]oxy-4,5-bis(oxidanyl)-3-(3-oxidanyl-3-oxidanylidene-propanoyl)oxy-oxan-2-yl]methoxy]-3-oxidanylidene-propanoic acid

>  <PUBCHEM_IUPAC_TRADITIONAL_NAME>
3-[[(2R,3S,4R,5R,6S)-3-(2-carboxyacetyl)oxy-4,5-dihydroxy-6-[[7-hydroxy-2-(4-hydroxy-3,5-dimethoxy-phenyl)-3-[(2S,3R,4S,5S,6R)-3,4,5-trihydroxy-6-[[3-(4-hydroxyphenyl)acryloyl]oxymethyl]tetrahydropyran-2-yl]oxy-1-benzopyrylium-5-yl]oxy]tetrahydropyran-2-yl]methoxy]-3-keto-propionic acid

>  <PUBCHEM_IUPAC_INCHI>
InChI=1S/C44H44O25/c1-60-25-9-19(10-26(61-2)35(25)54)41-27(66-43-39(58)37(56)36(55)28(67-43)16-62-32(51)8-5-18-3-6-20(45)7-4-18)13-22-23(64-41)11-21(46)12-24(22)65-44-40(59)38(57)42(69-34(53)15-31(49)50)29(68-44)17-63-33(52)14-30(47)48/h3-13,28-29,36-40,42-44,55-59H,14-17H2,1-2H3,(H4-,45,46,47,48,49,50,51,54)/p+1/t28-,29-,36-,37+,38-,39-,40-,42-,43-,44-/m1/s1

>  <PUBCHEM_IUPAC_INCHIKEY>
WLRHEJRFVKWTOH-OUOHEMENSA-O

>  <PUBCHEM_EXACT_MASS>
973.225

>  <PUBCHEM_MOLECULAR_FORMULA>
C44H45O25+

>  <PUBCHEM_MOLECULAR_WEIGHT>
973.819

>  <PUBCHEM_OPENEYE_CAN_SMILES>
COC1=CC(=CC(=C1O)OC)C2=C(C=C3C(=CC(=CC3=[O+]2)O)OC4C(C(C(C(O4)COC(=O)CC(=O)O)OC(=O)CC(=O)O)O)O)OC5C(C(C(C(O5)COC(=O)C=CC6=CC=C(C=C6)O)O)O)O

>  <PUBCHEM_OPENEYE_ISO_SMILES>
COC1=CC(=CC(=C1O)OC)C2=C(C=C3C(=CC(=CC3=[O+]2)O)O[C@H]4[C@@H]([C@H]([C@@H]([C@H](O4)COC(=O)CC(=O)O)OC(=O)CC(=O)O)O)O)O[C@H]5[C@@H]([C@H]([C@@H]([C@H](O5)COC(=O)C=CC6=CC=C(C=C6)O)O)O)O

>  <PUBCHEM_CACTVS_TPSA>
372

>  <PUBCHEM_MONOISOTOPIC_WEIGHT>
973.225

>  <PUBCHEM_TOTAL_CHARGE>
1

>  <PUBCHEM_HEAVY_ATOM_COUNT>
69

>  <PUBCHEM_ATOM_DEF_STEREO_COUNT>
10

>  <PUBCHEM_ATOM_UDEF_STEREO_COUNT>
0

>  <PUBCHEM_BOND_DEF_STEREO_COUNT>
0

>  <PUBCHEM_BOND_UDEF_STEREO_COUNT>
1

>  <PUBCHEM_ISOTOPIC_ATOM_COUNT>
0

>  <PUBCHEM_COMPONENT_COUNT>
1

>  <PUBCHEM_CACTVS_TAUTO_COUNT>
684

>  <PUBCHEM_COORDINATE_TYPE>
1
5
255

>  <PUBCHEM_BONDANNOTATIONS>
34  10  5
13  43  8
13  44  8
28  36  5
26  3  6
33  37  6
38  40  8
38  45  8
39  42  8
39  44  8
30  4  5
40  42  8
40  43  8
43  47  8
45  48  8
47  48  8
27  5  5
50  54  8
50  55  8
54  58  8
55  57  8
56  61  1
57  59  8
58  59  8
29  6  6
62  65  8
62  66  8
65  67  8
66  68  8
67  69  8
68  69  8
35  7  6
31  8  5
32  9  6

$$$$
