101666798
 OpenBabel06101807152D

 82 86  0  0  1  0  0  0  0  0999 V2000
    6.8671   -2.7857    0.0000 O   0  0  0  0  0  0  0  0  0  0  0  0
    6.8671    0.2143    0.0000 O   0  0  0  0  0  0  0  0  0  0  0  0
    5.1350   -2.7857    0.0000 O   0  0  0  0  0  0  0  0  0  0  0  0
    5.1350   -1.7857    0.0000 O   0  0  0  0  0  0  0  0  0  0  0  0
    8.5991   -1.7857    0.0000 O   0  0  0  0  0  0  0  0  0  0  0  0
    8.5991    0.2143    0.0000 O   0  0  0  0  0  0  0  0  0  0  0  0
    6.8671   -4.7857    0.0000 O   0  0  0  0  0  0  0  0  0  0  0  0
    5.1350   -5.7857    0.0000 O   0  0  0  0  0  0  0  0  0  0  0  0
    3.4030   -4.7857    0.0000 O   0  0  0  0  0  0  0  0  0  0  0  0
    5.1350    1.2143    0.0000 O   0  0  0  0  0  0  0  0  0  0  0  0
    2.5369   -3.2857    0.0000 O   0  0  0  0  0  0  0  0  0  0  0  0
    9.4651    2.7143    0.0000 O   0  3  0  0  0  0  0  0  0  0  0  0
    3.4030    1.2143    0.0000 O   0  0  0  0  0  0  0  0  0  0  0  0
    5.9629    2.7112    0.0000 O   0  0  0  0  0  0  0  0  0  0  0  0
    7.7210    5.7836    0.0000 O   0  0  0  0  0  0  0  0  0  0  0  0
    3.4030    4.2143    0.0000 O   0  0  0  0  0  0  0  0  0  0  0  0
    2.5369    2.7143    0.0000 O   0  0  0  0  0  0  0  0  0  0  0  0
   12.9292    1.7143    0.0000 O   0  0  0  0  0  0  0  0  0  0  0  0
   12.9292   -0.2857    0.0000 O   0  0  0  0  0  0  0  0  0  0  0  0
    6.8671   -1.7857    0.0000 C   0  0  1  0  0  0  0  0  0  0  0  0
    6.0010   -1.2857    0.0000 C   0  0  1  0  0  0  0  0  0  0  0  0
    7.7331   -1.2857    0.0000 C   0  0  2  0  0  0  0  0  0  0  0  0
    6.0010   -3.2857    0.0000 C   0  0  2  0  0  0  0  0  0  0  0  0
    6.0010   -0.2857    0.0000 C   0  0  1  0  0  0  0  0  0  0  0  0
    6.0010   -4.2857    0.0000 C   0  0  1  0  0  0  0  0  0  0  0  0
    5.1350   -4.7857    0.0000 C   0  0  2  0  0  0  0  0  0  0  0  0
    7.7331   -0.2857    0.0000 C   0  0  1  0  0  0  0  0  0  0  0  0
    4.2690   -4.2857    0.0000 C   0  0  1  0  0  0  0  0  0  0  0  0
    4.2690   -3.2857    0.0000 C   0  0  1  0  0  0  0  0  0  0  0  0
    5.1350    0.2143    0.0000 C   0  0  0  0  0  0  0  0  0  0  0  0
    3.4030   -2.7857    0.0000 C   0  0  0  0  0  0  0  0  0  0  0  0
    8.5991    1.2143    0.0000 C   0  0  0  0  0  0  0  0  0  0  0  0
    9.4651    1.7143    0.0000 C   0  0  0  0  0  0  0  0  0  0  0  0
    7.7331    1.7143    0.0000 C   0  0  0  0  0  0  0  0  0  0  0  0
    4.2690    1.7143    0.0000 C   0  0  0  0  0  0  0  0  0  0  0  0
    7.7331    2.7143    0.0000 C   0  0  0  0  0  0  0  0  0  0  0  0
   10.3312    1.2143    0.0000 C   0  0  0  0  0  0  0  0  0  0  0  0
    8.5991    3.2143    0.0000 C   0  0  0  0  0  0  0  0  0  0  0  0
    4.2690    2.7143    0.0000 C   0  0  0  0  0  0  0  0  0  0  0  0
    6.8231    3.2212    0.0000 C   0  0  0  0  0  0  0  0  0  0  0  0
    8.6152    4.2558    0.0000 C   0  0  0  0  0  0  0  0  0  0  0  0
   11.1972    1.7143    0.0000 C   0  0  0  0  0  0  0  0  0  0  0  0
   10.3312    0.2143    0.0000 C   0  0  0  0  0  0  0  0  0  0  0  0
    6.8151    4.2628    0.0000 C   0  0  0  0  0  0  0  0  0  0  0  0
    7.7171    4.7836    0.0000 C   0  0  0  0  0  0  0  0  0  0  0  0
    3.4030    3.2143    0.0000 C   0  0  0  0  0  0  0  0  0  0  0  0
   12.0632    1.2143    0.0000 C   0  0  0  0  0  0  0  0  0  0  0  0
   11.1972   -0.2857    0.0000 C   0  0  0  0  0  0  0  0  0  0  0  0
   12.0632    0.2143    0.0000 C   0  0  0  0  0  0  0  0  0  0  0  0
    7.4040   -2.0957    0.0000 H   0  0  0  0  0  0  0  0  0  0  0  0
    6.0010   -1.9057    0.0000 H   0  0  0  0  0  0  0  0  0  0  0  0
    8.2700   -0.9757    0.0000 H   0  0  0  0  0  0  0  0  0  0  0  0
    6.0010   -2.6657    0.0000 H   0  0  0  0  0  0  0  0  0  0  0  0
    6.0010    0.3343    0.0000 H   0  0  0  0  0  0  0  0  0  0  0  0
    6.0010   -4.9057    0.0000 H   0  0  0  0  0  0  0  0  0  0  0  0
    4.5981   -5.0957    0.0000 H   0  0  0  0  0  0  0  0  0  0  0  0
    7.7331    0.3343    0.0000 H   0  0  0  0  0  0  0  0  0  0  0  0
    3.7320   -3.9757    0.0000 H   0  0  0  0  0  0  0  0  0  0  0  0
    4.2690   -2.6657    0.0000 H   0  0  0  0  0  0  0  0  0  0  0  0
    4.5244    0.3220    0.0000 H   0  0  0  0  0  0  0  0  0  0  0  0
    4.9230   -0.3683    0.0000 H   0  0  0  0  0  0  0  0  0  0  0  0
    3.8015   -2.3107    0.0000 H   0  0  0  0  0  0  0  0  0  0  0  0
    3.0044   -2.3107    0.0000 H   0  0  0  0  0  0  0  0  0  0  0  0
    4.5981   -1.4757    0.0000 H   0  0  0  0  0  0  0  0  0  0  0  0
    9.1360   -1.4757    0.0000 H   0  0  0  0  0  0  0  0  0  0  0  0
    6.8671   -5.4057    0.0000 H   0  0  0  0  0  0  0  0  0  0  0  0
    4.5981   -6.0957    0.0000 H   0  0  0  0  0  0  0  0  0  0  0  0
    3.4030   -5.4057    0.0000 H   0  0  0  0  0  0  0  0  0  0  0  0
    2.0000   -2.9757    0.0000 H   0  0  0  0  0  0  0  0  0  0  0  0
    7.1962    1.4043    0.0000 H   0  0  0  0  0  0  0  0  0  0  0  0
    4.8796    2.6067    0.0000 H   0  0  0  0  0  0  0  0  0  0  0  0
    4.4810    3.2970    0.0000 H   0  0  0  0  0  0  0  0  0  0  0  0
    9.1557    4.5596    0.0000 H   0  0  0  0  0  0  0  0  0  0  0  0
   11.1972    2.3343    0.0000 H   0  0  0  0  0  0  0  0  0  0  0  0
    9.7942   -0.0957    0.0000 H   0  0  0  0  0  0  0  0  0  0  0  0
    6.2769    4.5707    0.0000 H   0  0  0  0  0  0  0  0  0  0  0  0
   11.1972   -0.9057    0.0000 H   0  0  0  0  0  0  0  0  0  0  0  0
    5.4224    3.0150    0.0000 H   0  0  0  0  0  0  0  0  0  0  0  0
    7.1852    6.0957    0.0000 H   0  0  0  0  0  0  0  0  0  0  0  0
    2.8660    4.5243    0.0000 H   0  0  0  0  0  0  0  0  0  0  0  0
   13.4662    1.4043    0.0000 H   0  0  0  0  0  0  0  0  0  0  0  0
   13.4662    0.0243    0.0000 H   0  0  0  0  0  0  0  0  0  0  0  0
  2 24  1  0  0  0  0
  2 27  1  0  0  0  0
  3 23  1  0  0  0  0
  3 29  1  0  0  0  0
  4 64  1  0  0  0  0
  5 65  1  0  0  0  0
  6 32  1  0  0  0  0
  7 66  1  0  0  0  0
  8 67  1  0  0  0  0
  9 68  1  0  0  0  0
 10 30  1  0  0  0  0
 10 35  1  0  0  0  0
 11 31  1  0  0  0  0
 11 69  1  0  0  0  0
 12 33  2  0  0  0  0
 12 38  1  0  0  0  0
 13 35  2  0  0  0  0
 14 40  1  0  0  0  0
 14 78  1  0  0  0  0
 15 45  1  0  0  0  0
 15 79  1  0  0  0  0
 16 46  1  0  0  0  0
 16 80  1  0  0  0  0
 17 46  2  0  0  0  0
 18 47  1  0  0  0  0
 18 81  1  0  0  0  0
 19 49  1  0  0  0  0
 19 82  1  0  0  0  0
 20  1  1  0  0  0  0
 20 21  1  6  0  0  0
 20 50  1  0  0  0  0
 21  4  1  0  0  0  0
 21 24  1  1  0  0  0
 21 51  1  0  0  0  0
 22  5  1  0  0  0  0
 22 20  1  1  0  0  0
 22 52  1  0  0  0  0
 23  1  1  0  0  0  0
 23 25  1  6  0  0  0
 23 53  1  0  0  0  0
 24 30  1  0  0  0  0
 24 54  1  6  0  0  0
 25  7  1  0  0  0  0
 25 26  1  6  0  0  0
 25 55  1  0  0  0  0
 26  8  1  0  0  0  0
 26 28  1  1  0  0  0
 26 56  1  0  0  0  0
 27  6  1  0  0  0  0
 27 22  1  6  0  0  0
 27 57  1  0  0  0  0
 28  9  1  0  0  0  0
 28 29  1  6  0  0  0
 28 58  1  0  0  0  0
 29 31  1  0  0  0  0
 29 59  1  6  0  0  0
 30 60  1  0  0  0  0
 30 61  1  0  0  0  0
 31 62  1  0  0  0  0
 31 63  1  0  0  0  0
 32 33  1  0  0  0  0
 32 34  2  0  0  0  0
 33 37  1  0  0  0  0
 34 36  1  0  0  0  0
 34 70  1  0  0  0  0
 35 39  1  0  0  0  0
 36 38  1  0  0  0  0
 36 40  2  0  0  0  0
 37 42  2  0  0  0  0
 37 43  1  0  0  0  0
 38 41  2  0  0  0  0
 39 46  1  0  0  0  0
 39 71  1  0  0  0  0
 39 72  1  0  0  0  0
 40 44  1  0  0  0  0
 41 45  1  0  0  0  0
 41 73  1  0  0  0  0
 42 47  1  0  0  0  0
 42 74  1  0  0  0  0
 43 48  2  0  0  0  0
 43 75  1  0  0  0  0
 44 45  2  0  0  0  0
 44 76  1  0  0  0  0
 47 49  2  0  0  0  0
 48 49  1  0  0  0  0
 48 77  1  0  0  0  0
M  CHG  1  12   1
M  END
>  <PUBCHEM_COMPOUND_CID>
101666798

>  <PUBCHEM_COMPOUND_CANONICALIZED>
1

>  <PUBCHEM_CACTVS_COMPLEXITY>
1110

>  <PUBCHEM_CACTVS_HBOND_ACCEPTOR>
18

>  <PUBCHEM_CACTVS_HBOND_DONOR>
11

>  <PUBCHEM_CACTVS_ROTATABLE_BOND>
11

>  <PUBCHEM_CACTVS_SUBSKEYS>
AAADcfB4PgAAAAAAAAAAAAAAAAAAAAAAAAA0aJECAAAAAACR9AAAGgAACAAADBSwmAMwDsAABkCIAqDSCAICCAAkIAAIiAFGiMgdNzaONR6ieWOl4BUPuYfK7PzOIAABCAAIQABAAAIQABCAAAAAAAAAAA==

>  <PUBCHEM_IUPAC_OPENEYE_NAME>
3-[[(2R,3R,4S,5R,6S)-6-[2-(3,4-dihydroxyphenyl)-5,7-dihydroxy-chromenylium-3-yl]oxy-3,5-dihydroxy-4-[(2S,3R,4S,5S,6R)-3,4,5-trihydroxy-6-(hydroxymethyl)tetrahydropyran-2-yl]oxy-tetrahydropyran-2-yl]methoxy]-3-oxo-propanoic acid

>  <PUBCHEM_IUPAC_CAS_NAME>
3-[[(2R,3R,4S,5R,6S)-6-[[2-(3,4-dihydroxyphenyl)-5,7-dihydroxy-1-benzopyrylium-3-yl]oxy]-3,5-dihydroxy-4-[[(2S,3R,4S,5S,6R)-3,4,5-trihydroxy-6-(hydroxymethyl)-2-oxanyl]oxy]-2-oxanyl]methoxy]-3-oxopropanoic acid

>  <PUBCHEM_IUPAC_NAME>
3-[[(2R,3R,4S,5R,6S)-6-[2-(3,4-dihydroxyphenyl)-5,7-dihydroxychromenylium-3-yl]oxy-3,5-dihydroxy-4-[(2S,3R,4S,5S,6R)-3,4,5-trihydroxy-6-(hydroxymethyl)oxan-2-yl]oxyoxan-2-yl]methoxy]-3-oxopropanoic acid

>  <PUBCHEM_IUPAC_SYSTEMATIC_NAME>
3-[[(2R,3R,4S,5R,6S)-6-[2-[3,4-bis(oxidanyl)phenyl]-5,7-bis(oxidanyl)chromenylium-3-yl]oxy-4-[(2S,3R,4S,5S,6R)-6-(hydroxymethyl)-3,4,5-tris(oxidanyl)oxan-2-yl]oxy-3,5-bis(oxidanyl)oxan-2-yl]methoxy]-3-oxidanylidene-propanoic acid

>  <PUBCHEM_IUPAC_TRADITIONAL_NAME>
3-[[(2R,3R,4S,5R,6S)-6-[[2-(3,4-dihydroxyphenyl)-5,7-dihydroxy-1-benzopyrylium-3-yl]oxy]-3,5-dihydroxy-4-[(2S,3R,4S,5S,6R)-3,4,5-trihydroxy-6-methylol-tetrahydropyran-2-yl]oxy-tetrahydropyran-2-yl]methoxy]-3-keto-propionic acid

>  <PUBCHEM_IUPAC_INCHI>
InChI=1S/C30H32O19/c31-8-18-22(39)24(41)25(42)29(47-18)49-28-23(40)19(9-44-21(38)7-20(36)37)48-30(26(28)43)46-17-6-12-14(34)4-11(32)5-16(12)45-27(17)10-1-2-13(33)15(35)3-10/h1-6,18-19,22-26,28-31,39-43H,7-9H2,(H4-,32,33,34,35,36,37)/p+1/t18-,19-,22-,23-,24+,25-,26-,28+,29+,30-/m1/s1

>  <PUBCHEM_IUPAC_INCHIKEY>
RLENKWQMUNAYFI-OMGJKZNISA-O

>  <PUBCHEM_EXACT_MASS>
697.162

>  <PUBCHEM_MOLECULAR_FORMULA>
C30H33O19+

>  <PUBCHEM_MOLECULAR_WEIGHT>
697.575

>  <PUBCHEM_OPENEYE_CAN_SMILES>
C1=CC(=C(C=C1C2=C(C=C3C(=CC(=CC3=[O+]2)O)O)OC4C(C(C(C(O4)COC(=O)CC(=O)O)O)OC5C(C(C(C(O5)CO)O)O)O)O)O)O

>  <PUBCHEM_OPENEYE_ISO_SMILES>
C1=CC(=C(C=C1C2=C(C=C3C(=CC(=CC3=[O+]2)O)O)O[C@H]4[C@@H]([C@H]([C@@H]([C@H](O4)COC(=O)CC(=O)O)O)O[C@H]5[C@@H]([C@H]([C@@H]([C@H](O5)CO)O)O)O)O)O)O

>  <PUBCHEM_CACTVS_TPSA>
304

>  <PUBCHEM_MONOISOTOPIC_WEIGHT>
697.162

>  <PUBCHEM_TOTAL_CHARGE>
1

>  <PUBCHEM_HEAVY_ATOM_COUNT>
49

>  <PUBCHEM_ATOM_DEF_STEREO_COUNT>
10

>  <PUBCHEM_ATOM_UDEF_STEREO_COUNT>
0

>  <PUBCHEM_BOND_DEF_STEREO_COUNT>
0

>  <PUBCHEM_BOND_UDEF_STEREO_COUNT>
0

>  <PUBCHEM_ISOTOPIC_ATOM_COUNT>
0

>  <PUBCHEM_COMPONENT_COUNT>
1

>  <PUBCHEM_CACTVS_TAUTO_COUNT>
441

>  <PUBCHEM_COORDINATE_TYPE>
1
5
255

>  <PUBCHEM_BONDANNOTATIONS>
20  1  5
23  1  5
12  33  8
12  38  8
24  30  5
29  31  5
32  33  8
32  34  8
34  36  8
36  38  8
36  40  8
37  42  8
37  43  8
38  41  8
21  4  6
40  44  8
41  45  8
42  47  8
43  48  8
44  45  8
47  49  8
48  49  8
22  5  6
27  6  5
25  7  6
26  8  5
28  9  6

$$$$
