101701639
 OpenBabel06101807152D

 59 62  0  0  1  0  0  0  0  0999 V2000
    5.2476    1.4273    0.0000 O   0  0  0  0  0  0  0  0  0  0  0  0
    6.8014    4.3049    0.0000 O   0  0  0  0  0  0  0  0  0  0  0  0
    6.0010   -1.4090    0.0000 O   0  0  0  0  0  0  0  0  0  0  0  0
    4.2690   -1.4090    0.0000 O   0  0  0  0  0  0  0  0  0  0  0  0
    3.6777    2.2584    0.0000 O   0  0  0  0  0  0  0  0  0  0  0  0
    9.4361    0.3150    0.0000 O   0  0  0  0  0  0  0  0  0  0  0  0
    6.0010   -3.4090    0.0000 O   0  0  0  0  0  0  0  0  0  0  0  0
    4.2690   -4.4090    0.0000 O   0  0  0  0  0  0  0  0  0  0  0  0
    2.5369   -3.4090    0.0000 O   0  0  0  0  0  0  0  0  0  0  0  0
    2.5369   -0.4090    0.0000 O   0  0  0  0  0  0  0  0  0  0  0  0
    6.2155    2.7161    0.0000 C   0  0  2  0  0  0  0  0  0  0  0  0
    6.1988    1.7162    0.0000 C   0  0  1  0  0  0  0  0  0  0  0  0
    6.9701    1.0797    0.0000 C   0  0  2  0  0  0  0  0  0  0  0  0
    5.2745    3.0365    0.0000 C   0  0  1  0  0  0  0  0  0  0  0  0
    7.0076    3.3264    0.0000 C   0  0  2  0  0  0  0  0  0  0  0  0
    7.9486    1.2860    0.0000 C   0  0  0  0  0  0  0  0  0  0  0  0
    7.9787    3.0876    0.0000 C   0  0  0  0  0  0  0  0  0  0  0  0
    6.8671    0.0910    0.0000 C   0  0  0  0  0  0  0  0  0  0  0  0
    8.3975    2.1796    0.0000 C   0  0  0  0  0  0  0  0  0  0  0  0
    4.6775    2.2417    0.0000 C   0  0  0  0  0  0  0  0  0  0  0  0
    4.9797    3.9921    0.0000 C   0  0  0  0  0  0  0  0  0  0  0  0
    8.4419    0.4229    0.0000 C   0  0  0  0  0  0  0  0  0  0  0  0
    7.7748   -0.3141    0.0000 C   0  0  0  0  0  0  0  0  0  0  0  0
    6.0010   -0.4090    0.0000 C   0  0  0  0  0  0  0  0  0  0  0  0
    9.3973    2.1629    0.0000 C   0  0  0  0  0  0  0  0  0  0  0  0
    5.1350   -1.9090    0.0000 C   0  0  2  0  0  0  0  0  0  0  0  0
    5.1350   -2.9090    0.0000 C   0  0  1  0  0  0  0  0  0  0  0  0
    4.2690   -3.4090    0.0000 C   0  0  2  0  0  0  0  0  0  0  0  0
    3.4030   -2.9090    0.0000 C   0  0  1  0  0  0  0  0  0  0  0  0
    3.4030   -1.9090    0.0000 C   0  0  1  0  0  0  0  0  0  0  0  0
    2.5369   -1.4090    0.0000 C   0  0  0  0  0  0  0  0  0  0  0  0
    6.0766    3.5546    0.0000 H   0  0  0  0  0  0  0  0  0  0  0  0
    6.0320    0.8827    0.0000 H   0  0  0  0  0  0  0  0  0  0  0  0
    6.1835    0.7577    0.0000 H   0  0  0  0  0  0  0  0  0  0  0  0
    5.7192    3.4685    0.0000 H   0  0  0  0  0  0  0  0  0  0  0  0
    7.4533    3.7574    0.0000 H   0  0  0  0  0  0  0  0  0  0  0  0
    8.5854    3.2155    0.0000 H   0  0  0  0  0  0  0  0  0  0  0  0
    7.9890    3.7076    0.0000 H   0  0  0  0  0  0  0  0  0  0  0  0
    5.5722    4.1749    0.0000 H   0  0  0  0  0  0  0  0  0  0  0  0
    4.7970    4.5846    0.0000 H   0  0  0  0  0  0  0  0  0  0  0  0
    4.3873    3.8094    0.0000 H   0  0  0  0  0  0  0  0  0  0  0  0
    7.9027   -0.9208    0.0000 H   0  0  0  0  0  0  0  0  0  0  0  0
    5.7890    0.1736    0.0000 H   0  0  0  0  0  0  0  0  0  0  0  0
    5.3905   -0.5166    0.0000 H   0  0  0  0  0  0  0  0  0  0  0  0
    7.2629    4.7190    0.0000 H   0  0  0  0  0  0  0  0  0  0  0  0
    9.3870    1.5430    0.0000 H   0  0  0  0  0  0  0  0  0  0  0  0
   10.0173    2.1525    0.0000 H   0  0  0  0  0  0  0  0  0  0  0  0
    9.4077    2.7828    0.0000 H   0  0  0  0  0  0  0  0  0  0  0  0
    5.1350   -1.2890    0.0000 H   0  0  0  0  0  0  0  0  0  0  0  0
    5.1350   -3.5290    0.0000 H   0  0  0  0  0  0  0  0  0  0  0  0
    3.7320   -3.7190    0.0000 H   0  0  0  0  0  0  0  0  0  0  0  0
    2.8660   -2.5990    0.0000 H   0  0  0  0  0  0  0  0  0  0  0  0
    3.4030   -1.2890    0.0000 H   0  0  0  0  0  0  0  0  0  0  0  0
    1.9264   -1.3013    0.0000 H   0  0  0  0  0  0  0  0  0  0  0  0
    2.3249   -1.9916    0.0000 H   0  0  0  0  0  0  0  0  0  0  0  0
    6.5380   -3.0990    0.0000 H   0  0  0  0  0  0  0  0  0  0  0  0
    3.7320   -4.7190    0.0000 H   0  0  0  0  0  0  0  0  0  0  0  0
    2.0000   -3.0990    0.0000 H   0  0  0  0  0  0  0  0  0  0  0  0
    2.0000   -0.0990    0.0000 H   0  0  0  0  0  0  0  0  0  0  0  0
  1 12  1  0  0  0  0
  1 20  1  0  0  0  0
  2 45  1  0  0  0  0
  3 24  1  0  0  0  0
  4 26  1  0  0  0  0
  4 30  1  0  0  0  0
  5 20  2  0  0  0  0
  6 22  2  0  0  0  0
  7 56  1  0  0  0  0
  8 57  1  0  0  0  0
  9 58  1  0  0  0  0
 10 31  1  0  0  0  0
 10 59  1  0  0  0  0
 11 12  1  1  0  0  0
 11 32  1  0  0  0  0
 12 13  1  1  0  0  0
 12 33  1  0  0  0  0
 13 16  1  0  0  0  0
 13 18  1  0  0  0  0
 13 34  1  1  0  0  0
 14 11  1  1  0  0  0
 14 20  1  0  0  0  0
 14 21  1  0  0  0  0
 14 35  1  0  0  0  0
 15  2  1  0  0  0  0
 15 11  1  6  0  0  0
 15 17  1  0  0  0  0
 15 36  1  0  0  0  0
 16 19  2  0  0  0  0
 16 22  1  0  0  0  0
 17 19  1  0  0  0  0
 17 37  1  0  0  0  0
 17 38  1  0  0  0  0
 18 23  2  0  0  0  0
 18 24  1  0  0  0  0
 19 25  1  0  0  0  0
 21 39  1  0  0  0  0
 21 40  1  0  0  0  0
 21 41  1  0  0  0  0
 22 23  1  0  0  0  0
 23 42  1  0  0  0  0
 24 43  1  0  0  0  0
 24 44  1  0  0  0  0
 25 46  1  0  0  0  0
 25 47  1  0  0  0  0
 25 48  1  0  0  0  0
 26  3  1  0  0  0  0
 26 27  1  6  0  0  0
 26 49  1  0  0  0  0
 27  7  1  0  0  0  0
 27 28  1  6  0  0  0
 27 50  1  0  0  0  0
 28  8  1  0  0  0  0
 28 29  1  1  0  0  0
 28 51  1  0  0  0  0
 29  9  1  0  0  0  0
 29 30  1  6  0  0  0
 29 52  1  0  0  0  0
 30 31  1  0  0  0  0
 30 53  1  6  0  0  0
 31 54  1  0  0  0  0
 31 55  1  0  0  0  0
M  END
>  <PUBCHEM_COMPOUND_CID>
101701639

>  <PUBCHEM_COMPOUND_CANONICALIZED>
1

>  <PUBCHEM_CACTVS_COMPLEXITY>
819

>  <PUBCHEM_CACTVS_HBOND_ACCEPTOR>
10

>  <PUBCHEM_CACTVS_HBOND_DONOR>
5

>  <PUBCHEM_CACTVS_ROTATABLE_BOND>
4

>  <PUBCHEM_CACTVS_SUBSKEYS>
AAADceB4PAAAAAAAAAAAAAAAAAAAASIAAAAkAAAABAAAAACAAAAAGgAACAAADRSwgAMCCAAABgCIAqDSCAAAAAAgAAAACAEAAEgRFBIAIQAiUAAFwAAPIQPK7PyOgAAAAAAAAAAAAAAAAAAAAAAAAAAAAA==

>  <PUBCHEM_IUPAC_OPENEYE_NAME>
(3S,3aR,4S,9aS,9bR)-4-hydroxy-3,6-dimethyl-9-[[(2R,3R,4S,5S,6R)-3,4,5-trihydroxy-6-(hydroxymethyl)tetrahydropyran-2-yl]oxymethyl]-3,3a,4,5,9a,9b-hexahydroazuleno[4,5-b]furan-2,7-dione

>  <PUBCHEM_IUPAC_CAS_NAME>
(3S,3aR,4S,9aS,9bR)-4-hydroxy-3,6-dimethyl-9-[[(2R,3R,4S,5S,6R)-3,4,5-trihydroxy-6-(hydroxymethyl)-2-oxanyl]oxymethyl]-3,3a,4,5,9a,9b-hexahydroazuleno[4,5-b]furan-2,7-dione

>  <PUBCHEM_IUPAC_NAME>
(3S,3aR,4S,9aS,9bR)-4-hydroxy-3,6-dimethyl-9-[[(2R,3R,4S,5S,6R)-3,4,5-trihydroxy-6-(hydroxymethyl)oxan-2-yl]oxymethyl]-3,3a,4,5,9a,9b-hexahydroazuleno[4,5-b]furan-2,7-dione

>  <PUBCHEM_IUPAC_SYSTEMATIC_NAME>
(3S,3aR,4S,9aS,9bR)-9-[[(2R,3R,4S,5S,6R)-6-(hydroxymethyl)-3,4,5-tris(oxidanyl)oxan-2-yl]oxymethyl]-3,6-dimethyl-4-oxidanyl-3,3a,4,5,9a,9b-hexahydroazuleno[4,5-b]furan-2,7-dione

>  <PUBCHEM_IUPAC_TRADITIONAL_NAME>
(3S,3aR,4S,9aS,9bR)-4-hydroxy-3,6-dimethyl-9-[[(2R,3R,4S,5S,6R)-3,4,5-trihydroxy-6-methylol-tetrahydropyran-2-yl]oxymethyl]-3,3a,4,5,9a,9b-hexahydroazuleno[4,5-b]furan-2,7-quinone

>  <PUBCHEM_IUPAC_INCHI>
InChI=1S/C21H28O10/c1-7-3-10(23)14-8(2)20(28)31-19(14)15-9(4-11(24)13(7)15)6-29-21-18(27)17(26)16(25)12(5-22)30-21/h4,8,10,12,14-19,21-23,25-27H,3,5-6H2,1-2H3/t8-,10-,12+,14+,15-,16+,17-,18+,19-,21+/m0/s1

>  <PUBCHEM_IUPAC_INCHIKEY>
ZEMSXERQBUSFBA-YNZHIRHJSA-N

>  <PUBCHEM_XLOGP3_AA>
-2.2

>  <PUBCHEM_EXACT_MASS>
440.168

>  <PUBCHEM_MOLECULAR_FORMULA>
C21H28O10

>  <PUBCHEM_MOLECULAR_WEIGHT>
440.445

>  <PUBCHEM_OPENEYE_CAN_SMILES>
CC1C2C(CC(=C3C(C2OC1=O)C(=CC3=O)COC4C(C(C(C(O4)CO)O)O)O)C)O

>  <PUBCHEM_OPENEYE_ISO_SMILES>
C[C@H]1[C@@H]2[C@H](CC(=C3[C@@H]([C@H]2OC1=O)C(=CC3=O)CO[C@H]4[C@@H]([C@H]([C@@H]([C@H](O4)CO)O)O)O)C)O

>  <PUBCHEM_CACTVS_TPSA>
163

>  <PUBCHEM_MONOISOTOPIC_WEIGHT>
440.168

>  <PUBCHEM_TOTAL_CHARGE>
0

>  <PUBCHEM_HEAVY_ATOM_COUNT>
31

>  <PUBCHEM_ATOM_DEF_STEREO_COUNT>
10

>  <PUBCHEM_ATOM_UDEF_STEREO_COUNT>
0

>  <PUBCHEM_BOND_DEF_STEREO_COUNT>
0

>  <PUBCHEM_BOND_UDEF_STEREO_COUNT>
0

>  <PUBCHEM_ISOTOPIC_ATOM_COUNT>
0

>  <PUBCHEM_COMPONENT_COUNT>
1

>  <PUBCHEM_CACTVS_TAUTO_COUNT>
36

>  <PUBCHEM_COORDINATE_TYPE>
1
5
255

>  <PUBCHEM_BONDANNOTATIONS>
11  32  5
12  33  6
13  34  5
14  21  5
15  2  5
26  3  5
30  31  5
27  7  6
28  8  5
29  9  6

$$$$
