101746085
 OpenBabel06101807152D

 72 75  0  0  1  0  0  0  0  0999 V2000
    6.8671   -1.1785    0.0000 O   0  0  0  0  0  0  0  0  0  0  0  0
    6.0580   -2.7663    0.0000 O   0  0  0  0  0  0  0  0  0  0  0  0
    5.1350    0.8215    0.0000 O   0  0  0  0  0  0  0  0  0  0  0  0
    5.1350   -2.1785    0.0000 O   0  0  0  0  0  0  0  0  0  0  0  0
    6.8671    0.8215    0.0000 O   0  0  0  0  0  0  0  0  0  0  0  0
    3.4030   -1.1785    0.0000 O   0  0  0  0  0  0  0  0  0  0  0  0
    8.6271   -2.4573    0.0000 O   0  0  0  0  0  0  0  0  0  0  0  0
    7.9548   -4.5264    0.0000 O   0  0  0  0  0  0  0  0  0  0  0  0
    2.5369    0.3215    0.0000 O   0  0  0  0  0  0  0  0  0  0  0  0
    6.1860   -5.4399    0.0000 O   0  0  0  0  0  0  0  0  0  0  0  0
    8.5991    3.8215    0.0000 O   0  0  0  0  0  0  0  0  0  0  0  0
    5.1350    3.8215    0.0000 O   0  0  0  0  0  0  0  0  0  0  0  0
    8.5991    0.8215    0.0000 O   0  0  0  0  0  0  0  0  0  0  0  0
   12.9292    5.3215    0.0000 O   0  0  0  0  0  0  0  0  0  0  0  0
    6.0010   -0.6785    0.0000 C   0  0  2  0  0  0  0  0  0  0  0  0
    5.1350   -1.1785    0.0000 C   0  0  2  0  0  0  0  0  0  0  0  0
    4.2690   -0.6785    0.0000 C   0  0  1  0  0  0  0  0  0  0  0  0
    6.8671   -2.1785    0.0000 C   0  0  2  0  0  0  0  0  0  0  0  0
    7.6761   -2.7663    0.0000 C   0  0  1  0  0  0  0  0  0  0  0  0
    6.0010    0.3215    0.0000 C   0  0  1  0  0  0  0  0  0  0  0  0
    4.2690    0.3215    0.0000 C   0  0  1  0  0  0  0  0  0  0  0  0
    7.3671   -3.7173    0.0000 C   0  0  2  0  0  0  0  0  0  0  0  0
    6.3671   -3.7173    0.0000 C   0  0  1  0  0  0  0  0  0  0  0  0
    3.4030    0.8215    0.0000 C   0  0  0  0  0  0  0  0  0  0  0  0
    5.7793   -4.5264    0.0000 C   0  0  0  0  0  0  0  0  0  0  0  0
    6.8671    1.8215    0.0000 C   0  0  0  0  0  0  0  0  0  0  0  0
    7.7331    2.3215    0.0000 C   0  0  0  0  0  0  0  0  0  0  0  0
    6.0010    2.3215    0.0000 C   0  0  0  0  0  0  0  0  0  0  0  0
    7.7331    3.3215    0.0000 C   0  0  0  0  0  0  0  0  0  0  0  0
    8.5991    1.8215    0.0000 C   0  0  0  0  0  0  0  0  0  0  0  0
    6.0010    3.3215    0.0000 C   0  0  0  0  0  0  0  0  0  0  0  0
    6.8671    3.8215    0.0000 C   0  0  0  0  0  0  0  0  0  0  0  0
    9.4651    2.3215    0.0000 C   0  0  0  0  0  0  0  0  0  0  0  0
    9.4651    3.3215    0.0000 C   0  0  0  0  0  0  0  0  0  0  0  0
   10.3312    3.8215    0.0000 C   0  0  0  0  0  0  0  0  0  0  0  0
   10.3312    4.8215    0.0000 C   0  0  0  0  0  0  0  0  0  0  0  0
   11.1972    3.3215    0.0000 C   0  0  0  0  0  0  0  0  0  0  0  0
   11.1972    5.3215    0.0000 C   0  0  0  0  0  0  0  0  0  0  0  0
   12.0632    3.8215    0.0000 C   0  0  0  0  0  0  0  0  0  0  0  0
   12.0632    4.8215    0.0000 C   0  0  0  0  0  0  0  0  0  0  0  0
    6.0010   -1.2985    0.0000 H   0  0  0  0  0  0  0  0  0  0  0  0
    4.5981   -1.4885    0.0000 H   0  0  0  0  0  0  0  0  0  0  0  0
    3.7320   -0.3685    0.0000 H   0  0  0  0  0  0  0  0  0  0  0  0
    7.4195   -1.8970    0.0000 H   0  0  0  0  0  0  0  0  0  0  0  0
    8.1145   -3.2047    0.0000 H   0  0  0  0  0  0  0  0  0  0  0  0
    6.0010    0.9415    0.0000 H   0  0  0  0  0  0  0  0  0  0  0  0
    4.2690    0.9415    0.0000 H   0  0  0  0  0  0  0  0  0  0  0  0
    7.9794   -3.6204    0.0000 H   0  0  0  0  0  0  0  0  0  0  0  0
    5.7547   -3.6204    0.0000 H   0  0  0  0  0  0  0  0  0  0  0  0
    3.8015    1.2964    0.0000 H   0  0  0  0  0  0  0  0  0  0  0  0
    3.0044    1.2964    0.0000 H   0  0  0  0  0  0  0  0  0  0  0  0
    5.3486   -4.0804    0.0000 H   0  0  0  0  0  0  0  0  0  0  0  0
    5.2653   -4.8731    0.0000 H   0  0  0  0  0  0  0  0  0  0  0  0
    4.5981   -2.4885    0.0000 H   0  0  0  0  0  0  0  0  0  0  0  0
    3.4030   -1.7985    0.0000 H   0  0  0  0  0  0  0  0  0  0  0  0
    9.0879   -2.8721    0.0000 H   0  0  0  0  0  0  0  0  0  0  0  0
    8.5714   -4.4616    0.0000 H   0  0  0  0  0  0  0  0  0  0  0  0
    2.0000    0.6315    0.0000 H   0  0  0  0  0  0  0  0  0  0  0  0
    5.8216   -5.9415    0.0000 H   0  0  0  0  0  0  0  0  0  0  0  0
    5.4641    2.0115    0.0000 H   0  0  0  0  0  0  0  0  0  0  0  0
    6.8671    4.4415    0.0000 H   0  0  0  0  0  0  0  0  0  0  0  0
    9.6772    1.7389    0.0000 H   0  0  0  0  0  0  0  0  0  0  0  0
   10.0757    2.4292    0.0000 H   0  0  0  0  0  0  0  0  0  0  0  0
    9.2531    3.9041    0.0000 H   0  0  0  0  0  0  0  0  0  0  0  0
    8.8546    3.2138    0.0000 H   0  0  0  0  0  0  0  0  0  0  0  0
    8.5991    4.4415    0.0000 H   0  0  0  0  0  0  0  0  0  0  0  0
    5.1350    4.4415    0.0000 H   0  0  0  0  0  0  0  0  0  0  0  0
    9.7942    5.1315    0.0000 H   0  0  0  0  0  0  0  0  0  0  0  0
   11.1972    2.7015    0.0000 H   0  0  0  0  0  0  0  0  0  0  0  0
   11.1972    5.9415    0.0000 H   0  0  0  0  0  0  0  0  0  0  0  0
   12.6002    3.5115    0.0000 H   0  0  0  0  0  0  0  0  0  0  0  0
   12.9292    5.9415    0.0000 H   0  0  0  0  0  0  0  0  0  0  0  0
  2 18  1  0  0  0  0
  2 23  1  0  0  0  0
  3 20  1  0  0  0  0
  3 21  1  0  0  0  0
  4 54  1  0  0  0  0
  5 26  1  0  0  0  0
  6 55  1  0  0  0  0
  7 56  1  0  0  0  0
  8 57  1  0  0  0  0
  9 24  1  0  0  0  0
  9 58  1  0  0  0  0
 10 25  1  0  0  0  0
 10 59  1  0  0  0  0
 11 29  1  0  0  0  0
 11 66  1  0  0  0  0
 12 31  1  0  0  0  0
 12 67  1  0  0  0  0
 13 30  2  0  0  0  0
 14 40  1  0  0  0  0
 14 72  1  0  0  0  0
 15  1  1  0  0  0  0
 15 16  1  6  0  0  0
 15 41  1  0  0  0  0
 16  4  1  0  0  0  0
 16 17  1  1  0  0  0
 16 42  1  0  0  0  0
 17  6  1  0  0  0  0
 17 21  1  6  0  0  0
 17 43  1  0  0  0  0
 18  1  1  0  0  0  0
 18 19  1  1  0  0  0
 18 44  1  0  0  0  0
 19  7  1  0  0  0  0
 19 22  1  6  0  0  0
 19 45  1  0  0  0  0
 20  5  1  0  0  0  0
 20 15  1  6  0  0  0
 20 46  1  0  0  0  0
 21 24  1  0  0  0  0
 21 47  1  6  0  0  0
 22  8  1  0  0  0  0
 22 23  1  6  0  0  0
 22 48  1  0  0  0  0
 23 25  1  0  0  0  0
 23 49  1  6  0  0  0
 24 50  1  0  0  0  0
 24 51  1  0  0  0  0
 25 52  1  0  0  0  0
 25 53  1  0  0  0  0
 26 27  1  0  0  0  0
 26 28  2  0  0  0  0
 27 29  2  0  0  0  0
 27 30  1  0  0  0  0
 28 31  1  0  0  0  0
 28 60  1  0  0  0  0
 29 32  1  0  0  0  0
 30 33  1  0  0  0  0
 31 32  2  0  0  0  0
 32 61  1  0  0  0  0
 33 34  1  0  0  0  0
 33 62  1  0  0  0  0
 33 63  1  0  0  0  0
 34 35  1  0  0  0  0
 34 64  1  0  0  0  0
 34 65  1  0  0  0  0
 35 36  2  0  0  0  0
 35 37  1  0  0  0  0
 36 38  1  0  0  0  0
 36 68  1  0  0  0  0
 37 39  2  0  0  0  0
 37 69  1  0  0  0  0
 38 40  2  0  0  0  0
 38 70  1  0  0  0  0
 39 40  1  0  0  0  0
 39 71  1  0  0  0  0
M  END
>  <PUBCHEM_COMPOUND_CID>
101746085

>  <PUBCHEM_COMPOUND_CANONICALIZED>
1

>  <PUBCHEM_CACTVS_COMPLEXITY>
808

>  <PUBCHEM_CACTVS_HBOND_ACCEPTOR>
14

>  <PUBCHEM_CACTVS_HBOND_DONOR>
9

>  <PUBCHEM_CACTVS_ROTATABLE_BOND>
10

>  <PUBCHEM_CACTVS_SUBSKEYS>
AAADcfB4PAAAAAAAAAAAAAAAAAAAASAAAAA0YIAAAAAAAAABQAAAGgAACAAADBSwmAMwDoAABgCIAqBSAAACCAAkIAAIiAEGCMgdNzaGNRqieWCl4BUPuQfI7OzOIAAACAAIAABAAAAQABAAAAAAAAAAAA==

>  <PUBCHEM_IUPAC_OPENEYE_NAME>
1-[2-[(2S,3R,4S,5S,6R)-3-[(2S,3R,4R,5R)-3,4-dihydroxy-5-(hydroxymethyl)tetrahydrofuran-2-yl]oxy-4,5-dihydroxy-6-(hydroxymethyl)tetrahydropyran-2-yl]oxy-4,6-dihydroxy-phenyl]-3-(4-hydroxyphenyl)propan-1-one

>  <PUBCHEM_IUPAC_CAS_NAME>
1-[2-[[(2S,3R,4S,5S,6R)-3-[[(2S,3R,4R,5R)-3,4-dihydroxy-5-(hydroxymethyl)-2-oxolanyl]oxy]-4,5-dihydroxy-6-(hydroxymethyl)-2-oxanyl]oxy]-4,6-dihydroxyphenyl]-3-(4-hydroxyphenyl)-1-propanone

>  <PUBCHEM_IUPAC_NAME>
1-[2-[(2S,3R,4S,5S,6R)-3-[(2S,3R,4R,5R)-3,4-dihydroxy-5-(hydroxymethyl)oxolan-2-yl]oxy-4,5-dihydroxy-6-(hydroxymethyl)oxan-2-yl]oxy-4,6-dihydroxyphenyl]-3-(4-hydroxyphenyl)propan-1-one

>  <PUBCHEM_IUPAC_SYSTEMATIC_NAME>
1-[2-[(2S,3R,4S,5S,6R)-6-(hydroxymethyl)-3-[(2S,3R,4R,5R)-5-(hydroxymethyl)-3,4-bis(oxidanyl)oxolan-2-yl]oxy-4,5-bis(oxidanyl)oxan-2-yl]oxy-4,6-bis(oxidanyl)phenyl]-3-(4-hydroxyphenyl)propan-1-one

>  <PUBCHEM_IUPAC_TRADITIONAL_NAME>
1-[2-[(2S,3R,4S,5S,6R)-3-[(2S,3R,4R,5R)-3,4-dihydroxy-5-methylol-tetrahydrofuran-2-yl]oxy-4,5-dihydroxy-6-methylol-tetrahydropyran-2-yl]oxy-4,6-dihydroxy-phenyl]-3-(4-hydroxyphenyl)propan-1-one

>  <PUBCHEM_IUPAC_INCHI>
InChI=1S/C26H32O14/c27-9-17-20(33)22(35)24(40-25-23(36)21(34)18(10-28)38-25)26(39-17)37-16-8-13(30)7-15(32)19(16)14(31)6-3-11-1-4-12(29)5-2-11/h1-2,4-5,7-8,17-18,20-30,32-36H,3,6,9-10H2/t17-,18-,20-,21+,22+,23-,24-,25+,26-/m1/s1

>  <PUBCHEM_IUPAC_INCHIKEY>
ZPVXZDCYCDBKAJ-NCMRLHFPSA-N

>  <PUBCHEM_XLOGP3_AA>
-0.2

>  <PUBCHEM_EXACT_MASS>
568.179

>  <PUBCHEM_MOLECULAR_FORMULA>
C26H32O14

>  <PUBCHEM_MOLECULAR_WEIGHT>
568.528

>  <PUBCHEM_OPENEYE_CAN_SMILES>
C1=CC(=CC=C1CCC(=O)C2=C(C=C(C=C2OC3C(C(C(C(O3)CO)O)O)OC4C(C(C(O4)CO)O)O)O)O)O

>  <PUBCHEM_OPENEYE_ISO_SMILES>
C1=CC(=CC=C1CCC(=O)C2=C(C=C(C=C2O[C@H]3[C@@H]([C@H]([C@@H]([C@H](O3)CO)O)O)O[C@H]4[C@@H]([C@H]([C@H](O4)CO)O)O)O)O)O

>  <PUBCHEM_CACTVS_TPSA>
236

>  <PUBCHEM_MONOISOTOPIC_WEIGHT>
568.179

>  <PUBCHEM_TOTAL_CHARGE>
0

>  <PUBCHEM_HEAVY_ATOM_COUNT>
40

>  <PUBCHEM_ATOM_DEF_STEREO_COUNT>
9

>  <PUBCHEM_ATOM_UDEF_STEREO_COUNT>
0

>  <PUBCHEM_BOND_DEF_STEREO_COUNT>
0

>  <PUBCHEM_BOND_UDEF_STEREO_COUNT>
0

>  <PUBCHEM_ISOTOPIC_ATOM_COUNT>
0

>  <PUBCHEM_COMPONENT_COUNT>
1

>  <PUBCHEM_CACTVS_TAUTO_COUNT>
144

>  <PUBCHEM_COORDINATE_TYPE>
1
5
255

>  <PUBCHEM_BONDANNOTATIONS>
15  1  6
18  1  5
21  24  5
23  25  5
26  27  8
26  28  8
27  29  8
28  31  8
29  32  8
31  32  8
35  36  8
35  37  8
36  38  8
37  39  8
38  40  8
39  40  8
16  4  5
20  5  5
17  6  6
19  7  6
22  8  5

$$$$
