101714006
 OpenBabel06101807152D

116122  0  0  1  0  0  0  0  0999 V2000
   12.3923   -1.0336    0.0000 O   0  0  0  0  0  0  0  0  0  0  0  0
   10.6603    0.9664    0.0000 O   0  0  0  0  0  0  0  0  0  0  0  0
   11.5833   -2.6214    0.0000 O   0  0  0  0  0  0  0  0  0  0  0  0
    8.0622    0.4664    0.0000 O   0  0  0  0  0  0  0  0  0  0  0  0
   10.6603   -2.0336    0.0000 O   0  0  0  0  0  0  0  0  0  0  0  0
   12.3923    0.9664    0.0000 O   0  0  0  0  0  0  0  0  0  0  0  0
    8.9282   -1.0336    0.0000 O   0  0  0  0  0  0  0  0  0  0  0  0
    7.1962    1.9664    0.0000 O   0  0  0  0  0  0  0  0  0  0  0  0
   13.8434   -3.8814    0.0000 O   0  0  0  0  0  0  0  0  0  0  0  0
   14.1524   -2.3124    0.0000 O   0  0  0  0  0  0  0  0  0  0  0  0
    6.3301   -0.5336    0.0000 O   0  0  0  0  0  0  0  0  0  0  0  0
    4.5981    0.4664    0.0000 O   0  0  0  0  0  0  0  0  0  0  0  0
   13.7583   -5.0724    0.0000 O   0  0  0  0  0  0  0  0  0  0  0  0
    4.5981    2.4664    0.0000 O   0  0  0  0  0  0  0  0  0  0  0  0
    5.4641    3.9664    0.0000 O   0  0  0  0  0  0  0  0  0  0  0  0
   13.2583    3.4664    0.0000 O   0  0  0  0  0  0  0  0  0  0  0  0
   10.6603    1.9664    0.0000 O   0  0  0  0  0  0  0  0  0  0  0  0
    4.5981   -0.5336    0.0000 O   0  0  0  0  0  0  0  0  0  0  0  0
    9.7561    3.4633    0.0000 O   0  0  0  0  0  0  0  0  0  0  0  0
    9.7403    5.5115    0.0000 O   0  0  0  0  0  0  0  0  0  0  0  0
   11.5142    6.5357    0.0000 O   0  0  0  0  0  0  0  0  0  0  0  0
   16.7224    2.4664    0.0000 O   0  0  0  0  0  0  0  0  0  0  0  0
   16.7224    0.4664    0.0000 O   0  0  0  0  0  0  0  0  0  0  0  0
    2.8660   -5.5336    0.0000 O   0  0  0  0  0  0  0  0  0  0  0  0
    4.5981   -6.5336    0.0000 O   0  0  0  0  0  0  0  0  0  0  0  0
   11.5263   -0.5336    0.0000 C   0  0  2  0  0  0  0  0  0  0  0  0
   10.6603   -1.0336    0.0000 C   0  0  2  0  0  0  0  0  0  0  0  0
    9.7942   -0.5336    0.0000 C   0  0  1  0  0  0  0  0  0  0  0  0
    9.7942    0.4664    0.0000 C   0  0  1  0  0  0  0  0  0  0  0  0
   12.8923   -3.5724    0.0000 C   0  0  1  0  0  0  0  0  0  0  0  0
   12.3923   -2.0336    0.0000 C   0  0  2  0  0  0  0  0  0  0  0  0
   13.2013   -2.6214    0.0000 C   0  0  2  0  0  0  0  0  0  0  0  0
   11.5263    0.4664    0.0000 C   0  0  1  0  0  0  0  0  0  0  0  0
   11.8923   -3.5724    0.0000 C   0  0  0  0  0  0  0  0  0  0  0  0
    8.9282    0.9664    0.0000 C   0  0  0  0  0  0  0  0  0  0  0  0
    7.1962    0.9664    0.0000 C   0  0  2  0  0  0  0  0  0  0  0  0
    6.3301    0.4664    0.0000 C   0  0  1  0  0  0  0  0  0  0  0  0
    5.4641    0.9664    0.0000 C   0  0  2  0  0  0  0  0  0  0  0  0
   12.8923   -4.5724    0.0000 C   0  0  0  0  0  0  0  0  0  0  0  0
    5.4641    1.9664    0.0000 C   0  0  1  0  0  0  0  0  0  0  0  0
    6.3301    2.4664    0.0000 C   0  0  1  0  0  0  0  0  0  0  0  0
    6.3301    3.4664    0.0000 C   0  0  0  0  0  0  0  0  0  0  0  0
   12.3923    1.9664    0.0000 C   0  0  0  0  0  0  0  0  0  0  0  0
   13.2583    2.4664    0.0000 C   0  0  0  0  0  0  0  0  0  0  0  0
   11.5263    2.4664    0.0000 C   0  0  0  0  0  0  0  0  0  0  0  0
    5.4641   -1.0336    0.0000 C   0  0  0  0  0  0  0  0  0  0  0  0
   11.5263    3.4664    0.0000 C   0  0  0  0  0  0  0  0  0  0  0  0
   14.1244    1.9664    0.0000 C   0  0  0  0  0  0  0  0  0  0  0  0
   12.3923    3.9664    0.0000 C   0  0  0  0  0  0  0  0  0  0  0  0
    5.4641   -2.0336    0.0000 C   0  0  0  0  0  0  0  0  0  0  0  0
   10.6163    3.9732    0.0000 C   0  0  0  0  0  0  0  0  0  0  0  0
   12.4084    5.0079    0.0000 C   0  0  0  0  0  0  0  0  0  0  0  0
   14.9904    2.4664    0.0000 C   0  0  0  0  0  0  0  0  0  0  0  0
   14.1244    0.9664    0.0000 C   0  0  0  0  0  0  0  0  0  0  0  0
   10.6082    5.0148    0.0000 C   0  0  0  0  0  0  0  0  0  0  0  0
   11.5103    5.5357    0.0000 C   0  0  0  0  0  0  0  0  0  0  0  0
    4.5981   -2.5336    0.0000 C   0  0  0  0  0  0  0  0  0  0  0  0
   15.8564    1.9664    0.0000 C   0  0  0  0  0  0  0  0  0  0  0  0
   14.9904    0.4664    0.0000 C   0  0  0  0  0  0  0  0  0  0  0  0
   15.8564    0.9664    0.0000 C   0  0  0  0  0  0  0  0  0  0  0  0
    4.5981   -3.5336    0.0000 C   0  0  0  0  0  0  0  0  0  0  0  0
    3.7320   -4.0336    0.0000 C   0  0  0  0  0  0  0  0  0  0  0  0
    5.4641   -4.0336    0.0000 C   0  0  0  0  0  0  0  0  0  0  0  0
    9.7364    6.5115    0.0000 C   0  0  0  0  0  0  0  0  0  0  0  0
    3.7320   -5.0336    0.0000 C   0  0  0  0  0  0  0  0  0  0  0  0
    5.4641   -5.0336    0.0000 C   0  0  0  0  0  0  0  0  0  0  0  0
    4.5981   -5.5336    0.0000 C   0  0  0  0  0  0  0  0  0  0  0  0
    2.0000   -5.0336    0.0000 C   0  0  0  0  0  0  0  0  0  0  0  0
   11.5263   -1.1536    0.0000 H   0  0  0  0  0  0  0  0  0  0  0  0
   10.1233   -1.3436    0.0000 H   0  0  0  0  0  0  0  0  0  0  0  0
    9.2573   -0.2236    0.0000 H   0  0  0  0  0  0  0  0  0  0  0  0
    9.7942    1.0864    0.0000 H   0  0  0  0  0  0  0  0  0  0  0  0
   12.9447   -1.7521    0.0000 H   0  0  0  0  0  0  0  0  0  0  0  0
   13.6397   -3.0598    0.0000 H   0  0  0  0  0  0  0  0  0  0  0  0
   11.5263    1.0864    0.0000 H   0  0  0  0  0  0  0  0  0  0  0  0
   11.2859   -3.7013    0.0000 H   0  0  0  0  0  0  0  0  0  0  0  0
   11.9571   -4.1890    0.0000 H   0  0  0  0  0  0  0  0  0  0  0  0
    9.3267    1.4414    0.0000 H   0  0  0  0  0  0  0  0  0  0  0  0
    8.5297    1.4414    0.0000 H   0  0  0  0  0  0  0  0  0  0  0  0
    7.1962    0.3464    0.0000 H   0  0  0  0  0  0  0  0  0  0  0  0
    5.7932    0.1564    0.0000 H   0  0  0  0  0  0  0  0  0  0  0  0
    4.9272    1.2764    0.0000 H   0  0  0  0  0  0  0  0  0  0  0  0
   12.2817   -4.4648    0.0000 H   0  0  0  0  0  0  0  0  0  0  0  0
   12.6803   -5.1550    0.0000 H   0  0  0  0  0  0  0  0  0  0  0  0
    5.4641    2.5864    0.0000 H   0  0  0  0  0  0  0  0  0  0  0  0
    6.8671    2.7764    0.0000 H   0  0  0  0  0  0  0  0  0  0  0  0
   10.1233   -2.3436    0.0000 H   0  0  0  0  0  0  0  0  0  0  0  0
    8.9282   -1.6536    0.0000 H   0  0  0  0  0  0  0  0  0  0  0  0
   14.3041   -3.4666    0.0000 H   0  0  0  0  0  0  0  0  0  0  0  0
   14.2813   -1.7059    0.0000 H   0  0  0  0  0  0  0  0  0  0  0  0
    6.9407    3.3588    0.0000 H   0  0  0  0  0  0  0  0  0  0  0  0
    6.5422    4.0490    0.0000 H   0  0  0  0  0  0  0  0  0  0  0  0
    4.0611    0.7764    0.0000 H   0  0  0  0  0  0  0  0  0  0  0  0
   13.7583   -5.6924    0.0000 H   0  0  0  0  0  0  0  0  0  0  0  0
    4.0611    2.1564    0.0000 H   0  0  0  0  0  0  0  0  0  0  0  0
    5.4641    4.5864    0.0000 H   0  0  0  0  0  0  0  0  0  0  0  0
    6.0010   -2.3436    0.0000 H   0  0  0  0  0  0  0  0  0  0  0  0
   12.9488    5.3117    0.0000 H   0  0  0  0  0  0  0  0  0  0  0  0
   14.9904    3.0864    0.0000 H   0  0  0  0  0  0  0  0  0  0  0  0
   13.5874    0.6564    0.0000 H   0  0  0  0  0  0  0  0  0  0  0  0
    4.0611   -2.2236    0.0000 H   0  0  0  0  0  0  0  0  0  0  0  0
   14.9904   -0.1536    0.0000 H   0  0  0  0  0  0  0  0  0  0  0  0
    9.2156    3.7670    0.0000 H   0  0  0  0  0  0  0  0  0  0  0  0
   12.0523    6.8436    0.0000 H   0  0  0  0  0  0  0  0  0  0  0  0
   16.7224    3.0864    0.0000 H   0  0  0  0  0  0  0  0  0  0  0  0
    3.1951   -3.7236    0.0000 H   0  0  0  0  0  0  0  0  0  0  0  0
    6.0010   -3.7236    0.0000 H   0  0  0  0  0  0  0  0  0  0  0  0
   10.3564    6.5139    0.0000 H   0  0  0  0  0  0  0  0  0  0  0  0
    9.7341    7.1315    0.0000 H   0  0  0  0  0  0  0  0  0  0  0  0
    9.1164    6.5091    0.0000 H   0  0  0  0  0  0  0  0  0  0  0  0
   16.7224   -0.1536    0.0000 H   0  0  0  0  0  0  0  0  0  0  0  0
    6.0010   -5.3436    0.0000 H   0  0  0  0  0  0  0  0  0  0  0  0
    5.1350   -6.8436    0.0000 H   0  0  0  0  0  0  0  0  0  0  0  0
    2.3100   -4.4966    0.0000 H   0  0  0  0  0  0  0  0  0  0  0  0
    1.4631   -4.7236    0.0000 H   0  0  0  0  0  0  0  0  0  0  0  0
    1.6900   -5.5705    0.0000 H   0  0  0  0  0  0  0  0  0  0  0  0
  2 29  1  0  0  0  0
  2 33  1  0  0  0  0
  3 31  1  0  0  0  0
  3 34  1  0  0  0  0
  4 35  1  0  0  0  0
  5 87  1  0  0  0  0
  6 43  1  0  0  0  0
  7 88  1  0  0  0  0
  8 36  1  0  0  0  0
  8 41  1  0  0  0  0
  9 89  1  0  0  0  0
 10 90  1  0  0  0  0
 11 46  1  0  0  0  0
 12 93  1  0  0  0  0
 13 39  1  0  0  0  0
 13 94  1  0  0  0  0
 14 95  1  0  0  0  0
 15 42  1  0  0  0  0
 15 96  1  0  0  0  0
 16 44  1  0  0  0  0
 16 49  1  0  0  0  0
 17 45  2  0  0  0  0
 18 46  2  0  0  0  0
 19 51  1  0  0  0  0
 19103  1  0  0  0  0
 20 55  1  0  0  0  0
 20 64  1  0  0  0  0
 21 56  1  0  0  0  0
 21104  1  0  0  0  0
 22 58  1  0  0  0  0
 22105  1  0  0  0  0
 23 60  1  0  0  0  0
 23111  1  0  0  0  0
 24 65  1  0  0  0  0
 24 68  1  0  0  0  0
 25 67  1  0  0  0  0
 25113  1  0  0  0  0
 26  1  1  0  0  0  0
 26 27  1  6  0  0  0
 26 69  1  0  0  0  0
 27  5  1  0  0  0  0
 27 28  1  1  0  0  0
 27 70  1  0  0  0  0
 28  7  1  0  0  0  0
 28 29  1  6  0  0  0
 28 71  1  0  0  0  0
 29 35  1  0  0  0  0
 29 72  1  6  0  0  0
 30  9  1  0  0  0  0
 30 32  1  1  0  0  0
 30 34  1  0  0  0  0
 30 39  1  0  0  0  0
 31  1  1  0  0  0  0
 31 32  1  1  0  0  0
 31 73  1  0  0  0  0
 32 10  1  0  0  0  0
 32 74  1  1  0  0  0
 33  6  1  0  0  0  0
 33 26  1  6  0  0  0
 33 75  1  0  0  0  0
 34 76  1  0  0  0  0
 34 77  1  0  0  0  0
 35 78  1  0  0  0  0
 35 79  1  0  0  0  0
 36  4  1  0  0  0  0
 36 37  1  1  0  0  0
 36 80  1  0  0  0  0
 37 11  1  0  0  0  0
 37 38  1  6  0  0  0
 37 81  1  0  0  0  0
 38 12  1  0  0  0  0
 38 40  1  1  0  0  0
 38 82  1  0  0  0  0
 39 83  1  0  0  0  0
 39 84  1  0  0  0  0
 40 14  1  0  0  0  0
 40 41  1  6  0  0  0
 40 85  1  0  0  0  0
 41 42  1  0  0  0  0
 41 86  1  6  0  0  0
 42 91  1  0  0  0  0
 42 92  1  0  0  0  0
 43 44  2  0  0  0  0
 43 45  1  0  0  0  0
 44 48  1  0  0  0  0
 45 47  1  0  0  0  0
 46 50  1  0  0  0  0
 47 49  2  0  0  0  0
 47 51  1  0  0  0  0
 48 53  2  0  0  0  0
 48 54  1  0  0  0  0
 49 52  1  0  0  0  0
 50 57  2  0  0  0  0
 50 97  1  0  0  0  0
 51 55  2  0  0  0  0
 52 56  2  0  0  0  0
 52 98  1  0  0  0  0
 53 58  1  0  0  0  0
 53 99  1  0  0  0  0
 54 59  2  0  0  0  0
 54100  1  0  0  0  0
 55 56  1  0  0  0  0
 57 61  1  0  0  0  0
 57101  1  0  0  0  0
 58 60  2  0  0  0  0
 59 60  1  0  0  0  0
 59102  1  0  0  0  0
 61 62  2  0  0  0  0
 61 63  1  0  0  0  0
 62 65  1  0  0  0  0
 62106  1  0  0  0  0
 63 66  2  0  0  0  0
 63107  1  0  0  0  0
 64108  1  0  0  0  0
 64109  1  0  0  0  0
 64110  1  0  0  0  0
 65 67  2  0  0  0  0
 66 67  1  0  0  0  0
 66112  1  0  0  0  0
 68114  1  0  0  0  0
 68115  1  0  0  0  0
 68116  1  0  0  0  0
M  END
>  <PUBCHEM_COMPOUND_CID>
101714006

>  <PUBCHEM_COMPOUND_CANONICALIZED>
1

>  <PUBCHEM_CACTVS_COMPLEXITY>
1770

>  <PUBCHEM_CACTVS_HBOND_ACCEPTOR>
25

>  <PUBCHEM_CACTVS_HBOND_DONOR>
13

>  <PUBCHEM_CACTVS_ROTATABLE_BOND>
16

>  <PUBCHEM_CACTVS_SUBSKEYS>
AAADcfB8PgAAAAAAAAAAAAAAAAAAASAAAAA0aMECAAAAAACBUAAAGgAACAAADFSwmAMyDoAABgCIAqDSCAICCAAkIAAIiAFGiMgdNzaGNR6ieWOl4BUPuYfK7LzOIQABCAAIQABCAAIQABCAAAAAAAAAAA==

>  <PUBCHEM_IUPAC_OPENEYE_NAME>
[(2R,3R,4S,5S,6R)-2-[[(2R,3S,4S,5R,6S)-5-[(2S,3R,4R)-3,4-dihydroxy-4-(hydroxymethyl)tetrahydrofuran-2-yl]oxy-6-[2-(3,4-dihydroxyphenyl)-5,7-dihydroxy-6-methoxy-4-oxo-chromen-3-yl]oxy-3,4-dihydroxy-tetrahydropyran-2-yl]methoxy]-4,5-dihydroxy-6-(hydroxymethyl)tetrahydropyran-3-yl] (E)-3-(4-hydroxy-3-methoxy-phenyl)prop-2-enoate

>  <PUBCHEM_IUPAC_CAS_NAME>
(E)-3-(4-hydroxy-3-methoxyphenyl)-2-propenoic acid [(2R,3R,4S,5S,6R)-2-[[(2R,3S,4S,5R,6S)-5-[[(2S,3R,4R)-3,4-dihydroxy-4-(hydroxymethyl)-2-oxolanyl]oxy]-6-[[2-(3,4-dihydroxyphenyl)-5,7-dihydroxy-6-methoxy-4-oxo-1-benzopyran-3-yl]oxy]-3,4-dihydroxy-2-oxanyl]methoxy]-4,5-dihydroxy-6-(hydroxymethyl)-3-oxanyl] ester

>  <PUBCHEM_IUPAC_NAME>
[(2R,3R,4S,5S,6R)-2-[[(2R,3S,4S,5R,6S)-5-[(2S,3R,4R)-3,4-dihydroxy-4-(hydroxymethyl)oxolan-2-yl]oxy-6-[2-(3,4-dihydroxyphenyl)-5,7-dihydroxy-6-methoxy-4-oxochromen-3-yl]oxy-3,4-dihydroxyoxan-2-yl]methoxy]-4,5-dihydroxy-6-(hydroxymethyl)oxan-3-yl] (E)-3-(4-hydroxy-3-methoxyphenyl)prop-2-enoate

>  <PUBCHEM_IUPAC_SYSTEMATIC_NAME>
[(2R,3R,4S,5S,6R)-2-[[(2R,3S,4S,5R,6S)-6-[2-[3,4-bis(oxidanyl)phenyl]-6-methoxy-5,7-bis(oxidanyl)-4-oxidanylidene-chromen-3-yl]oxy-5-[(2S,3R,4R)-4-(hydroxymethyl)-3,4-bis(oxidanyl)oxolan-2-yl]oxy-3,4-bis(oxidanyl)oxan-2-yl]methoxy]-6-(hydroxymethyl)-4,5-bis(oxidanyl)oxan-3-yl] (E)-3-(3-methoxy-4-oxidanyl-phenyl)prop-2-enoate

>  <PUBCHEM_IUPAC_TRADITIONAL_NAME>
(E)-3-(4-hydroxy-3-methoxy-phenyl)acrylic acid [(2R,3R,4S,5S,6R)-2-[[(2R,3S,4S,5R,6S)-5-[(2S,3R,4R)-3,4-dihydroxy-4-methylol-tetrahydrofuran-2-yl]oxy-6-[2-(3,4-dihydroxyphenyl)-5,7-dihydroxy-4-keto-6-methoxy-chromen-3-yl]oxy-3,4-dihydroxy-tetrahydropyran-2-yl]methoxy]-4,5-dihydroxy-6-methylol-tetrahydropyran-3-yl] ester

>  <PUBCHEM_IUPAC_INCHI>
InChI=1S/C43H48O25/c1-59-22-9-16(3-6-19(22)47)4-8-26(50)66-37-32(55)28(51)24(12-44)64-40(37)61-13-25-29(52)33(56)38(68-42-39(57)43(58,14-45)15-62-42)41(65-25)67-36-31(54)27-23(11-21(49)35(60-2)30(27)53)63-34(36)17-5-7-18(46)20(48)10-17/h3-11,24-25,28-29,32-33,37-42,44-49,51-53,55-58H,12-15H2,1-2H3/b8-4+/t24-,25-,28-,29-,32+,33+,37-,38-,39+,40-,41+,42+,43-/m1/s1

>  <PUBCHEM_IUPAC_INCHIKEY>
VSMDAOFJZBLZOB-JFGFUAGISA-N

>  <PUBCHEM_XLOGP3_AA>
-0.8

>  <PUBCHEM_EXACT_MASS>
964.248

>  <PUBCHEM_MOLECULAR_FORMULA>
C43H48O25

>  <PUBCHEM_MOLECULAR_WEIGHT>
964.832

>  <PUBCHEM_OPENEYE_CAN_SMILES>
COC1=C(C=CC(=C1)C=CC(=O)OC2C(C(C(OC2OCC3C(C(C(C(O3)OC4=C(OC5=CC(=C(C(=C5C4=O)O)OC)O)C6=CC(=C(C=C6)O)O)OC7C(C(CO7)(CO)O)O)O)O)CO)O)O)O

>  <PUBCHEM_OPENEYE_ISO_SMILES>
COC1=C(C=CC(=C1)/C=C/C(=O)O[C@@H]2[C@H]([C@@H]([C@H](O[C@H]2OC[C@@H]3[C@H]([C@@H]([C@H]([C@@H](O3)OC4=C(OC5=CC(=C(C(=C5C4=O)O)OC)O)C6=CC(=C(C=C6)O)O)O[C@H]7[C@@H]([C@](CO7)(CO)O)O)O)O)CO)O)O)O

>  <PUBCHEM_CACTVS_TPSA>
389

>  <PUBCHEM_MONOISOTOPIC_WEIGHT>
964.248

>  <PUBCHEM_TOTAL_CHARGE>
0

>  <PUBCHEM_HEAVY_ATOM_COUNT>
68

>  <PUBCHEM_ATOM_DEF_STEREO_COUNT>
13

>  <PUBCHEM_ATOM_UDEF_STEREO_COUNT>
0

>  <PUBCHEM_BOND_DEF_STEREO_COUNT>
1

>  <PUBCHEM_BOND_UDEF_STEREO_COUNT>
0

>  <PUBCHEM_ISOTOPIC_ATOM_COUNT>
0

>  <PUBCHEM_COMPONENT_COUNT>
1

>  <PUBCHEM_CACTVS_TAUTO_COUNT>
264

>  <PUBCHEM_COORDINATE_TYPE>
1
5
255

>  <PUBCHEM_BONDANNOTATIONS>
26  1  6
31  1  5
32  10  6
37  11  6
38  12  5
40  14  6
16  44  8
16  49  8
29  35  5
36  4  5
41  42  5
43  44  8
43  45  8
45  47  8
47  49  8
47  51  8
48  53  8
48  54  8
49  52  8
27  5  5
51  55  8
52  56  8
53  58  8
54  59  8
55  56  8
58  60  8
59  60  8
33  6  5
61  62  8
61  63  8
62  65  8
63  66  8
65  67  8
66  67  8
28  7  6
30  9  6

$$$$
