101713141
 OpenBabel06101807152D

 65 64  0  0  0  0  0  0  0  0999 V2000
   10.6603    3.2500    0.0000 O   0  0  0  0  0  0  0  0  0  0  0  0
   11.5263    4.7500    0.0000 N   0  0  0  0  0  0  0  0  0  0  0  0
    4.5981   -1.2500    0.0000 C   0  0  0  0  0  0  0  0  0  0  0  0
    4.5981   -0.2500    0.0000 C   0  0  0  0  0  0  0  0  0  0  0  0
    3.7320   -1.7500    0.0000 C   0  0  0  0  0  0  0  0  0  0  0  0
    5.4641    0.2500    0.0000 C   0  0  0  0  0  0  0  0  0  0  0  0
    3.7320   -2.7500    0.0000 C   0  0  0  0  0  0  0  0  0  0  0  0
    5.4641    1.2500    0.0000 C   0  0  0  0  0  0  0  0  0  0  0  0
    2.8660   -3.2500    0.0000 C   0  0  0  0  0  0  0  0  0  0  0  0
    6.3301    1.7500    0.0000 C   0  0  0  0  0  0  0  0  0  0  0  0
    2.8660   -4.2500    0.0000 C   0  0  0  0  0  0  0  0  0  0  0  0
    6.3301    2.7500    0.0000 C   0  0  0  0  0  0  0  0  0  0  0  0
    2.0000   -4.7500    0.0000 C   0  0  0  0  0  0  0  0  0  0  0  0
    7.1962    3.2500    0.0000 C   0  0  0  0  0  0  0  0  0  0  0  0
    2.0000   -5.7500    0.0000 C   0  0  0  0  0  0  0  0  0  0  0  0
    7.1962    4.2500    0.0000 C   0  0  0  0  0  0  0  0  0  0  0  0
   13.2583    4.7500    0.0000 C   0  0  0  0  0  0  0  0  0  0  0  0
   12.3923    4.2500    0.0000 C   0  0  0  0  0  0  0  0  0  0  0  0
    8.0622    4.7500    0.0000 C   0  0  0  0  0  0  0  0  0  0  0  0
   14.1244    4.2500    0.0000 C   0  0  0  0  0  0  0  0  0  0  0  0
   13.2583    5.7500    0.0000 C   0  0  0  0  0  0  0  0  0  0  0  0
    8.9282    4.2500    0.0000 C   0  0  0  0  0  0  0  0  0  0  0  0
   10.6603    4.2500    0.0000 C   0  0  0  0  0  0  0  0  0  0  0  0
    9.7942    4.7500    0.0000 C   0  0  0  0  0  0  0  0  0  0  0  0
    4.8101   -1.8326    0.0000 H   0  0  0  0  0  0  0  0  0  0  0  0
    5.2087   -1.1423    0.0000 H   0  0  0  0  0  0  0  0  0  0  0  0
    4.3860    0.3326    0.0000 H   0  0  0  0  0  0  0  0  0  0  0  0
    3.9875   -0.3577    0.0000 H   0  0  0  0  0  0  0  0  0  0  0  0
    3.5200   -1.1674    0.0000 H   0  0  0  0  0  0  0  0  0  0  0  0
    3.1215   -1.8577    0.0000 H   0  0  0  0  0  0  0  0  0  0  0  0
    5.6762   -0.3326    0.0000 H   0  0  0  0  0  0  0  0  0  0  0  0
    6.0747    0.3577    0.0000 H   0  0  0  0  0  0  0  0  0  0  0  0
    3.9441   -3.3326    0.0000 H   0  0  0  0  0  0  0  0  0  0  0  0
    4.3426   -2.6423    0.0000 H   0  0  0  0  0  0  0  0  0  0  0  0
    5.2520    1.8326    0.0000 H   0  0  0  0  0  0  0  0  0  0  0  0
    4.8535    1.1423    0.0000 H   0  0  0  0  0  0  0  0  0  0  0  0
    2.6540   -2.6674    0.0000 H   0  0  0  0  0  0  0  0  0  0  0  0
    2.2554   -3.3577    0.0000 H   0  0  0  0  0  0  0  0  0  0  0  0
    6.5422    1.1674    0.0000 H   0  0  0  0  0  0  0  0  0  0  0  0
    6.9407    1.8577    0.0000 H   0  0  0  0  0  0  0  0  0  0  0  0
    3.0781   -4.8326    0.0000 H   0  0  0  0  0  0  0  0  0  0  0  0
    3.4766   -4.1423    0.0000 H   0  0  0  0  0  0  0  0  0  0  0  0
    6.1181    3.3326    0.0000 H   0  0  0  0  0  0  0  0  0  0  0  0
    5.7196    2.6423    0.0000 H   0  0  0  0  0  0  0  0  0  0  0  0
    1.7880   -4.1674    0.0000 H   0  0  0  0  0  0  0  0  0  0  0  0
    1.3894   -4.8577    0.0000 H   0  0  0  0  0  0  0  0  0  0  0  0
    7.4082    2.6674    0.0000 H   0  0  0  0  0  0  0  0  0  0  0  0
    7.8067    3.3577    0.0000 H   0  0  0  0  0  0  0  0  0  0  0  0
    1.3800   -5.7500    0.0000 H   0  0  0  0  0  0  0  0  0  0  0  0
    2.0000   -6.3700    0.0000 H   0  0  0  0  0  0  0  0  0  0  0  0
    2.6200   -5.7500    0.0000 H   0  0  0  0  0  0  0  0  0  0  0  0
    6.6592    4.5600    0.0000 H   0  0  0  0  0  0  0  0  0  0  0  0
   13.7953    5.0600    0.0000 H   0  0  0  0  0  0  0  0  0  0  0  0
   11.9938    3.7750    0.0000 H   0  0  0  0  0  0  0  0  0  0  0  0
   12.7908    3.7750    0.0000 H   0  0  0  0  0  0  0  0  0  0  0  0
    8.0622    5.3700    0.0000 H   0  0  0  0  0  0  0  0  0  0  0  0
   13.8783    5.7500    0.0000 H   0  0  0  0  0  0  0  0  0  0  0  0
   13.8144    3.7131    0.0000 H   0  0  0  0  0  0  0  0  0  0  0  0
   13.2583    6.3700    0.0000 H   0  0  0  0  0  0  0  0  0  0  0  0
   12.6383    5.7500    0.0000 H   0  0  0  0  0  0  0  0  0  0  0  0
   14.6613    3.9400    0.0000 H   0  0  0  0  0  0  0  0  0  0  0  0
   14.4344    4.7869    0.0000 H   0  0  0  0  0  0  0  0  0  0  0  0
   11.5263    5.3700    0.0000 H   0  0  0  0  0  0  0  0  0  0  0  0
    8.9282    3.6300    0.0000 H   0  0  0  0  0  0  0  0  0  0  0  0
    9.7942    5.3700    0.0000 H   0  0  0  0  0  0  0  0  0  0  0  0
  1 23  2  0  0  0  0
  2 18  1  0  0  0  0
  2 23  1  0  0  0  0
  2 63  1  0  0  0  0
  3  4  1  0  0  0  0
  3  5  1  0  0  0  0
  3 25  1  0  0  0  0
  3 26  1  0  0  0  0
  4  6  1  0  0  0  0
  4 27  1  0  0  0  0
  4 28  1  0  0  0  0
  5  7  1  0  0  0  0
  5 29  1  0  0  0  0
  5 30  1  0  0  0  0
  6  8  1  0  0  0  0
  6 31  1  0  0  0  0
  6 32  1  0  0  0  0
  7  9  1  0  0  0  0
  7 33  1  0  0  0  0
  7 34  1  0  0  0  0
  8 10  1  0  0  0  0
  8 35  1  0  0  0  0
  8 36  1  0  0  0  0
  9 11  1  0  0  0  0
  9 37  1  0  0  0  0
  9 38  1  0  0  0  0
 10 12  1  0  0  0  0
 10 39  1  0  0  0  0
 10 40  1  0  0  0  0
 11 13  1  0  0  0  0
 11 41  1  0  0  0  0
 11 42  1  0  0  0  0
 12 14  1  0  0  0  0
 12 43  1  0  0  0  0
 12 44  1  0  0  0  0
 13 15  1  0  0  0  0
 13 45  1  0  0  0  0
 13 46  1  0  0  0  0
 14 16  1  0  0  0  0
 14 47  1  0  0  0  0
 14 48  1  0  0  0  0
 15 49  1  0  0  0  0
 15 50  1  0  0  0  0
 15 51  1  0  0  0  0
 16 19  2  0  0  0  0
 16 52  1  0  0  0  0
 17 18  1  0  0  0  0
 17 20  1  0  0  0  0
 17 21  1  0  0  0  0
 17 53  1  0  0  0  0
 18 54  1  0  0  0  0
 18 55  1  0  0  0  0
 19 22  1  0  0  0  0
 19 56  1  0  0  0  0
 20 58  1  0  0  0  0
 20 61  1  0  0  0  0
 20 62  1  0  0  0  0
 21 57  1  0  0  0  0
 21 59  1  0  0  0  0
 21 60  1  0  0  0  0
 22 24  2  0  0  0  0
 22 64  1  0  0  0  0
 23 24  1  0  0  0  0
 24 65  1  0  0  0  0
M  END
>  <PUBCHEM_COMPOUND_CID>
101713141

>  <PUBCHEM_COMPOUND_CANONICALIZED>
1

>  <PUBCHEM_CACTVS_COMPLEXITY>
331

>  <PUBCHEM_CACTVS_HBOND_ACCEPTOR>
1

>  <PUBCHEM_CACTVS_HBOND_DONOR>
1

>  <PUBCHEM_CACTVS_ROTATABLE_BOND>
16

>  <PUBCHEM_CACTVS_SUBSKEYS>
AAADcfB6IAAAAAAAAAAAAAAAAAAAAAAAAAAAAAAAAAAAAAAAAAAAHgAQAAAADQDBgAQCAALAAACIACFSEACAAAAgAAAICIAIAEgIAAIAAQAEAAAAlgCIgYMAgIAAAAAAAAAAAAAAAAAAAAAAAAAAAAAAAA==

>  <PUBCHEM_IUPAC_OPENEYE_NAME>
(2E,4Z)-N-isobutyloctadeca-2,4-dienamide

>  <PUBCHEM_IUPAC_CAS_NAME>
(2E,4Z)-N-(2-methylpropyl)octadeca-2,4-dienamide

>  <PUBCHEM_IUPAC_NAME>
(2E,4Z)-N-(2-methylpropyl)octadeca-2,4-dienamide

>  <PUBCHEM_IUPAC_SYSTEMATIC_NAME>
(2E,4Z)-N-(2-methylpropyl)octadeca-2,4-dienamide

>  <PUBCHEM_IUPAC_TRADITIONAL_NAME>
(2E,4Z)-N-isobutyloctadeca-2,4-dienamide

>  <PUBCHEM_IUPAC_INCHI>
InChI=1S/C22H41NO/c1-4-5-6-7-8-9-10-11-12-13-14-15-16-17-18-19-22(24)23-20-21(2)3/h16-19,21H,4-15,20H2,1-3H3,(H,23,24)/b17-16-,19-18+

>  <PUBCHEM_IUPAC_INCHIKEY>
QQCGKIZHTJLRNN-JUJVUSMPSA-N

>  <PUBCHEM_XLOGP3_AA>
8.7

>  <PUBCHEM_EXACT_MASS>
335.319

>  <PUBCHEM_MOLECULAR_FORMULA>
C22H41NO

>  <PUBCHEM_MOLECULAR_WEIGHT>
335.576

>  <PUBCHEM_OPENEYE_CAN_SMILES>
CCCCCCCCCCCCCC=CC=CC(=O)NCC(C)C

>  <PUBCHEM_OPENEYE_ISO_SMILES>
CCCCCCCCCCCCC/C=C\C=C\C(=O)NCC(C)C

>  <PUBCHEM_CACTVS_TPSA>
29.1

>  <PUBCHEM_MONOISOTOPIC_WEIGHT>
335.319

>  <PUBCHEM_TOTAL_CHARGE>
0

>  <PUBCHEM_HEAVY_ATOM_COUNT>
24

>  <PUBCHEM_ATOM_DEF_STEREO_COUNT>
0

>  <PUBCHEM_ATOM_UDEF_STEREO_COUNT>
0

>  <PUBCHEM_BOND_DEF_STEREO_COUNT>
2

>  <PUBCHEM_BOND_UDEF_STEREO_COUNT>
0

>  <PUBCHEM_ISOTOPIC_ATOM_COUNT>
0

>  <PUBCHEM_COMPONENT_COUNT>
1

>  <PUBCHEM_CACTVS_TAUTO_COUNT>
5

>  <PUBCHEM_COORDINATE_TYPE>
1
5
255

$$$$
