101716226
 OpenBabel06101807152D

 54 54  0  0  1  0  0  0  0  0999 V2000
    3.8660   -5.8450    0.0000 O   0  0  0  0  0  0  0  0  0  0  0  0
    9.0622    6.1550    0.0000 O   0  0  0  0  0  0  0  0  0  0  0  0
    3.0000   -3.3450    0.0000 C   0  0  0  0  0  0  0  0  0  0  0  0
    3.0000   -4.3450    0.0000 C   0  0  0  0  0  0  0  0  0  0  0  0
    3.8660   -4.8450    0.0000 C   0  0  1  0  0  0  0  0  0  0  0  0
    3.8660   -2.8450    0.0000 C   0  0  0  0  0  0  0  0  0  0  0  0
    4.7320   -4.3450    0.0000 C   0  0  0  0  0  0  0  0  0  0  0  0
    4.7320   -3.3450    0.0000 C   0  0  0  0  0  0  0  0  0  0  0  0
    2.0000   -3.3450    0.0000 C   0  0  0  0  0  0  0  0  0  0  0  0
    2.5000   -2.4790    0.0000 C   0  0  0  0  0  0  0  0  0  0  0  0
    3.8660   -1.8450    0.0000 C   0  0  0  0  0  0  0  0  0  0  0  0
    5.5981   -2.8450    0.0000 C   0  0  0  0  0  0  0  0  0  0  0  0
    4.7320   -1.3450    0.0000 C   0  0  0  0  0  0  0  0  0  0  0  0
    4.7320   -0.3450    0.0000 C   0  0  0  0  0  0  0  0  0  0  0  0
    3.8660    0.1550    0.0000 C   0  0  0  0  0  0  0  0  0  0  0  0
    5.5981    0.1550    0.0000 C   0  0  0  0  0  0  0  0  0  0  0  0
    5.5981    1.1550    0.0000 C   0  0  0  0  0  0  0  0  0  0  0  0
    6.4641    1.6550    0.0000 C   0  0  0  0  0  0  0  0  0  0  0  0
    6.4641    2.6550    0.0000 C   0  0  0  0  0  0  0  0  0  0  0  0
    5.5981    3.1550    0.0000 C   0  0  0  0  0  0  0  0  0  0  0  0
    7.3301    3.1550    0.0000 C   0  0  0  0  0  0  0  0  0  0  0  0
    7.3301    4.1550    0.0000 C   0  0  0  0  0  0  0  0  0  0  0  0
    8.1962    4.6550    0.0000 C   0  0  0  0  0  0  0  0  0  0  0  0
    8.1962    5.6550    0.0000 C   0  0  0  0  0  0  0  0  0  0  0  0
    2.3894   -4.2373    0.0000 H   0  0  0  0  0  0  0  0  0  0  0  0
    2.7880   -4.9276    0.0000 H   0  0  0  0  0  0  0  0  0  0  0  0
    4.4030   -5.1550    0.0000 H   0  0  0  0  0  0  0  0  0  0  0  0
    4.9441   -4.9276    0.0000 H   0  0  0  0  0  0  0  0  0  0  0  0
    5.3426   -4.2373    0.0000 H   0  0  0  0  0  0  0  0  0  0  0  0
    3.0369   -2.1690    0.0000 H   0  0  0  0  0  0  0  0  0  0  0  0
    2.1900   -1.9420    0.0000 H   0  0  0  0  0  0  0  0  0  0  0  0
    1.9631   -2.7890    0.0000 H   0  0  0  0  0  0  0  0  0  0  0  0
    2.0000   -2.7250    0.0000 H   0  0  0  0  0  0  0  0  0  0  0  0
    1.3800   -3.3450    0.0000 H   0  0  0  0  0  0  0  0  0  0  0  0
    2.0000   -3.9650    0.0000 H   0  0  0  0  0  0  0  0  0  0  0  0
    3.3291   -1.5350    0.0000 H   0  0  0  0  0  0  0  0  0  0  0  0
    5.9081   -3.3819    0.0000 H   0  0  0  0  0  0  0  0  0  0  0  0
    6.1350   -2.5350    0.0000 H   0  0  0  0  0  0  0  0  0  0  0  0
    5.2881   -2.3081    0.0000 H   0  0  0  0  0  0  0  0  0  0  0  0
    4.4030   -6.1550    0.0000 H   0  0  0  0  0  0  0  0  0  0  0  0
    5.2690   -1.6550    0.0000 H   0  0  0  0  0  0  0  0  0  0  0  0
    4.1760    0.6919    0.0000 H   0  0  0  0  0  0  0  0  0  0  0  0
    3.3291    0.4650    0.0000 H   0  0  0  0  0  0  0  0  0  0  0  0
    3.5560   -0.3819    0.0000 H   0  0  0  0  0  0  0  0  0  0  0  0
    6.1350   -0.1550    0.0000 H   0  0  0  0  0  0  0  0  0  0  0  0
    5.0611    1.4650    0.0000 H   0  0  0  0  0  0  0  0  0  0  0  0
    7.0010    1.3450    0.0000 H   0  0  0  0  0  0  0  0  0  0  0  0
    5.9081    3.6919    0.0000 H   0  0  0  0  0  0  0  0  0  0  0  0
    5.0611    3.4650    0.0000 H   0  0  0  0  0  0  0  0  0  0  0  0
    5.2881    2.6181    0.0000 H   0  0  0  0  0  0  0  0  0  0  0  0
    7.8671    2.8450    0.0000 H   0  0  0  0  0  0  0  0  0  0  0  0
    6.7932    4.4650    0.0000 H   0  0  0  0  0  0  0  0  0  0  0  0
    8.7331    4.3450    0.0000 H   0  0  0  0  0  0  0  0  0  0  0  0
    7.6592    5.9650    0.0000 H   0  0  0  0  0  0  0  0  0  0  0  0
  1 40  1  0  0  0  0
  2 24  2  0  0  0  0
  3  4  1  0  0  0  0
  3  6  1  0  0  0  0
  3  9  1  0  0  0  0
  3 10  1  0  0  0  0
  4  5  1  0  0  0  0
  4 25  1  0  0  0  0
  4 26  1  0  0  0  0
  5  1  1  0  0  0  0
  5  7  1  0  0  0  0
  5 27  1  6  0  0  0
  6  8  2  0  0  0  0
  6 11  1  0  0  0  0
  7  8  1  0  0  0  0
  7 28  1  0  0  0  0
  7 29  1  0  0  0  0
  8 12  1  0  0  0  0
  9 33  1  0  0  0  0
  9 34  1  0  0  0  0
  9 35  1  0  0  0  0
 10 30  1  0  0  0  0
 10 31  1  0  0  0  0
 10 32  1  0  0  0  0
 11 13  2  0  0  0  0
 11 36  1  0  0  0  0
 12 37  1  0  0  0  0
 12 38  1  0  0  0  0
 12 39  1  0  0  0  0
 13 14  1  0  0  0  0
 13 41  1  0  0  0  0
 14 15  1  0  0  0  0
 14 16  2  0  0  0  0
 15 42  1  0  0  0  0
 15 43  1  0  0  0  0
 15 44  1  0  0  0  0
 16 17  1  0  0  0  0
 16 45  1  0  0  0  0
 17 18  2  0  0  0  0
 17 46  1  0  0  0  0
 18 19  1  0  0  0  0
 18 47  1  0  0  0  0
 19 20  1  0  0  0  0
 19 21  2  0  0  0  0
 20 48  1  0  0  0  0
 20 49  1  0  0  0  0
 20 50  1  0  0  0  0
 21 22  1  0  0  0  0
 21 51  1  0  0  0  0
 22 23  2  0  0  0  0
 22 52  1  0  0  0  0
 23 24  1  0  0  0  0
 23 53  1  0  0  0  0
 24 54  1  0  0  0  0
M  END
>  <PUBCHEM_COMPOUND_CID>
101716226

>  <PUBCHEM_COMPOUND_CANONICALIZED>
1

>  <PUBCHEM_CACTVS_COMPLEXITY>
622

>  <PUBCHEM_CACTVS_HBOND_ACCEPTOR>
2

>  <PUBCHEM_CACTVS_HBOND_DONOR>
1

>  <PUBCHEM_CACTVS_ROTATABLE_BOND>
6

>  <PUBCHEM_CACTVS_SUBSKEYS>
AAADceB4MAAAAAAAAAAAAAAAAAAAAAAAAAAgAAAAAAAAAAAAAAAAGgAACAAADhSggAICAAAAAgCIAihSgAAAAAAgAAAICAAAAEgIEAIAAQAAQAAEwAAIgYOAgMAPAAAAAAAAAAAAAAAAAAAAAAAAAAAAAA==

>  <PUBCHEM_IUPAC_OPENEYE_NAME>
(2E,4E,6E,8E,10E)-11-[(4R)-4-hydroxy-2,6,6-trimethyl-cyclohexen-1-yl]-5,9-dimethyl-undeca-2,4,6,8,10-pentaenal

>  <PUBCHEM_IUPAC_CAS_NAME>
(2E,4E,6E,8E,10E)-11-[(4R)-4-hydroxy-2,6,6-trimethyl-1-cyclohexenyl]-5,9-dimethylundeca-2,4,6,8,10-pentaenal

>  <PUBCHEM_IUPAC_NAME>
(2E,4E,6E,8E,10E)-11-[(4R)-4-hydroxy-2,6,6-trimethylcyclohexen-1-yl]-5,9-dimethylundeca-2,4,6,8,10-pentaenal

>  <PUBCHEM_IUPAC_SYSTEMATIC_NAME>
(2E,4E,6E,8E,10E)-5,9-dimethyl-11-[(4R)-2,6,6-trimethyl-4-oxidanyl-cyclohexen-1-yl]undeca-2,4,6,8,10-pentaenal

>  <PUBCHEM_IUPAC_TRADITIONAL_NAME>
(2E,4E,6E,8E,10E)-11-[(4R)-4-hydroxy-2,6,6-trimethyl-cyclohexen-1-yl]-5,9-dimethyl-undeca-2,4,6,8,10-pentaenal

>  <PUBCHEM_IUPAC_INCHI>
InChI=1S/C22H30O2/c1-17(9-6-7-14-23)10-8-11-18(2)12-13-21-19(3)15-20(24)16-22(21,4)5/h6-14,20,24H,15-16H2,1-5H3/b7-6+,10-8+,13-12+,17-9+,18-11+/t20-/m1/s1

>  <PUBCHEM_IUPAC_INCHIKEY>
BCNPTKKIVMTZFO-UWYNECTCSA-N

>  <PUBCHEM_XLOGP3_AA>
5.2

>  <PUBCHEM_EXACT_MASS>
326.225

>  <PUBCHEM_MOLECULAR_FORMULA>
C22H30O2

>  <PUBCHEM_MOLECULAR_WEIGHT>
326.48

>  <PUBCHEM_OPENEYE_CAN_SMILES>
CC1=C(C(CC(C1)O)(C)C)C=CC(=CC=CC(=CC=CC=O)C)C

>  <PUBCHEM_OPENEYE_ISO_SMILES>
CC1=C(C(C[C@@H](C1)O)(C)C)/C=C/C(=C/C=C/C(=C/C=C/C=O)/C)/C

>  <PUBCHEM_CACTVS_TPSA>
37.3

>  <PUBCHEM_MONOISOTOPIC_WEIGHT>
326.225

>  <PUBCHEM_TOTAL_CHARGE>
0

>  <PUBCHEM_HEAVY_ATOM_COUNT>
24

>  <PUBCHEM_ATOM_DEF_STEREO_COUNT>
1

>  <PUBCHEM_ATOM_UDEF_STEREO_COUNT>
0

>  <PUBCHEM_BOND_DEF_STEREO_COUNT>
5

>  <PUBCHEM_BOND_UDEF_STEREO_COUNT>
0

>  <PUBCHEM_ISOTOPIC_ATOM_COUNT>
0

>  <PUBCHEM_COMPONENT_COUNT>
1

>  <PUBCHEM_CACTVS_TAUTO_COUNT>
97

>  <PUBCHEM_COORDINATE_TYPE>
1
5
255

>  <PUBCHEM_BONDANNOTATIONS>
5  1  5

$$$$
