101716228
 OpenBabel06101807152D

 73 73  0  0  1  0  0  0  0  0999 V2000
    4.8479   -4.5700    0.0000 O   0  0  0  0  0  0  0  0  0  0  0  0
    3.9411   -0.4995    0.0000 O   0  0  0  0  0  0  0  0  0  0  0  0
   18.5886    4.9273    0.0000 O   0  0  0  0  0  0  0  0  0  0  0  0
    2.9511   -2.8099    0.0000 C   0  0  0  0  0  0  0  0  0  0  0  0
    3.7601   -2.2221    0.0000 C   0  0  2  0  0  0  0  0  0  0  0  0
    3.2601   -3.7610    0.0000 C   0  0  0  0  0  0  0  0  0  0  0  0
    4.5691   -2.8099    0.0000 C   0  0  0  0  0  0  0  0  0  0  0  0
    4.2601   -3.7610    0.0000 C   0  0  1  0  0  0  0  0  0  0  0  0
    2.0000   -3.1189    0.0000 C   0  0  0  0  0  0  0  0  0  0  0  0
    2.3633   -2.0009    0.0000 C   0  0  0  0  0  0  0  0  0  0  0  0
    3.1723   -1.4131    0.0000 C   0  0  0  0  0  0  0  0  0  0  0  0
    4.3479   -1.4131    0.0000 C   0  0  0  0  0  0  0  0  0  0  0  0
    5.3424   -1.5176    0.0000 C   0  0  0  0  0  0  0  0  0  0  0  0
    5.9302   -0.7086    0.0000 C   0  0  0  0  0  0  0  0  0  0  0  0
    6.9247   -0.8131    0.0000 C   0  0  0  0  0  0  0  0  0  0  0  0
    7.3314   -1.7267    0.0000 C   0  0  0  0  0  0  0  0  0  0  0  0
    7.5125   -0.0041    0.0000 C   0  0  0  0  0  0  0  0  0  0  0  0
    8.5070   -0.1086    0.0000 C   0  0  0  0  0  0  0  0  0  0  0  0
    9.0948    0.7004    0.0000 C   0  0  0  0  0  0  0  0  0  0  0  0
   10.0893    0.5958    0.0000 C   0  0  0  0  0  0  0  0  0  0  0  0
   10.4960   -0.3177    0.0000 C   0  0  0  0  0  0  0  0  0  0  0  0
   10.6771    1.4049    0.0000 C   0  0  0  0  0  0  0  0  0  0  0  0
   11.6716    1.3003    0.0000 C   0  0  0  0  0  0  0  0  0  0  0  0
   12.2594    2.1094    0.0000 C   0  0  0  0  0  0  0  0  0  0  0  0
   13.2539    2.0048    0.0000 C   0  0  0  0  0  0  0  0  0  0  0  0
   13.8417    2.8138    0.0000 C   0  0  0  0  0  0  0  0  0  0  0  0
   13.4350    3.7274    0.0000 C   0  0  0  0  0  0  0  0  0  0  0  0
   14.8362    2.7093    0.0000 C   0  0  0  0  0  0  0  0  0  0  0  0
   15.4240    3.5183    0.0000 C   0  0  0  0  0  0  0  0  0  0  0  0
   16.4185    3.4138    0.0000 C   0  0  0  0  0  0  0  0  0  0  0  0
   17.0063    4.2228    0.0000 C   0  0  0  0  0  0  0  0  0  0  0  0
   16.5996    5.1364    0.0000 C   0  0  0  0  0  0  0  0  0  0  0  0
   18.0008    4.1183    0.0000 C   0  0  0  0  0  0  0  0  0  0  0  0
    2.6536   -3.8898    0.0000 H   0  0  0  0  0  0  0  0  0  0  0  0
    3.3249   -4.3776    0.0000 H   0  0  0  0  0  0  0  0  0  0  0  0
    5.1355   -3.0621    0.0000 H   0  0  0  0  0  0  0  0  0  0  0  0
    4.8791   -2.2730    0.0000 H   0  0  0  0  0  0  0  0  0  0  0  0
    4.8724   -3.6640    0.0000 H   0  0  0  0  0  0  0  0  0  0  0  0
    2.8649   -1.6364    0.0000 H   0  0  0  0  0  0  0  0  0  0  0  0
    1.9988   -1.4993    0.0000 H   0  0  0  0  0  0  0  0  0  0  0  0
    1.8617   -2.3653    0.0000 H   0  0  0  0  0  0  0  0  0  0  0  0
    1.8084   -2.5293    0.0000 H   0  0  0  0  0  0  0  0  0  0  0  0
    1.4103   -3.3105    0.0000 H   0  0  0  0  0  0  0  0  0  0  0  0
    2.1916   -3.7086    0.0000 H   0  0  0  0  0  0  0  0  0  0  0  0
    3.6739   -1.0487    0.0000 H   0  0  0  0  0  0  0  0  0  0  0  0
    2.8079   -0.9115    0.0000 H   0  0  0  0  0  0  0  0  0  0  0  0
    2.6707   -1.7775    0.0000 H   0  0  0  0  0  0  0  0  0  0  0  0
    4.5957   -5.1364    0.0000 H   0  0  0  0  0  0  0  0  0  0  0  0
    5.5946   -2.0840    0.0000 H   0  0  0  0  0  0  0  0  0  0  0  0
    5.6780   -0.1422    0.0000 H   0  0  0  0  0  0  0  0  0  0  0  0
    6.7650   -1.9788    0.0000 H   0  0  0  0  0  0  0  0  0  0  0  0
    7.5836   -2.2931    0.0000 H   0  0  0  0  0  0  0  0  0  0  0  0
    7.8978   -1.4745    0.0000 H   0  0  0  0  0  0  0  0  0  0  0  0
    7.2603    0.5623    0.0000 H   0  0  0  0  0  0  0  0  0  0  0  0
    8.7592   -0.6750    0.0000 H   0  0  0  0  0  0  0  0  0  0  0  0
    8.8426    1.2668    0.0000 H   0  0  0  0  0  0  0  0  0  0  0  0
    9.9296   -0.5699    0.0000 H   0  0  0  0  0  0  0  0  0  0  0  0
   10.7482   -0.8841    0.0000 H   0  0  0  0  0  0  0  0  0  0  0  0
   11.0624   -0.0655    0.0000 H   0  0  0  0  0  0  0  0  0  0  0  0
   10.4249    1.9713    0.0000 H   0  0  0  0  0  0  0  0  0  0  0  0
   11.9238    0.7339    0.0000 H   0  0  0  0  0  0  0  0  0  0  0  0
   12.0072    2.6758    0.0000 H   0  0  0  0  0  0  0  0  0  0  0  0
   13.5061    1.4384    0.0000 H   0  0  0  0  0  0  0  0  0  0  0  0
   14.0014    3.9796    0.0000 H   0  0  0  0  0  0  0  0  0  0  0  0
   13.1828    4.2938    0.0000 H   0  0  0  0  0  0  0  0  0  0  0  0
   12.8686    3.4752    0.0000 H   0  0  0  0  0  0  0  0  0  0  0  0
   15.0884    2.1429    0.0000 H   0  0  0  0  0  0  0  0  0  0  0  0
   15.1718    4.0847    0.0000 H   0  0  0  0  0  0  0  0  0  0  0  0
   16.6707    2.8474    0.0000 H   0  0  0  0  0  0  0  0  0  0  0  0
   17.1660    5.3885    0.0000 H   0  0  0  0  0  0  0  0  0  0  0  0
   16.3474    5.7028    0.0000 H   0  0  0  0  0  0  0  0  0  0  0  0
   16.0332    4.8842    0.0000 H   0  0  0  0  0  0  0  0  0  0  0  0
   18.2530    3.5519    0.0000 H   0  0  0  0  0  0  0  0  0  0  0  0
  1 48  1  0  0  0  0
  2 12  2  0  0  0  0
  3 33  2  0  0  0  0
  4  5  1  0  0  0  0
  4  6  1  0  0  0  0
  4  9  1  0  0  0  0
  4 10  1  0  0  0  0
  5  7  1  0  0  0  0
  5 11  1  0  0  0  0
  5 12  1  6  0  0  0
  6  8  1  0  0  0  0
  6 34  1  0  0  0  0
  6 35  1  0  0  0  0
  7  8  1  0  0  0  0
  7 36  1  0  0  0  0
  7 37  1  0  0  0  0
  8  1  1  0  0  0  0
  8 38  1  6  0  0  0
  9 42  1  0  0  0  0
  9 43  1  0  0  0  0
  9 44  1  0  0  0  0
 10 39  1  0  0  0  0
 10 40  1  0  0  0  0
 10 41  1  0  0  0  0
 11 45  1  0  0  0  0
 11 46  1  0  0  0  0
 11 47  1  0  0  0  0
 12 13  1  0  0  0  0
 13 14  2  0  0  0  0
 13 49  1  0  0  0  0
 14 15  1  0  0  0  0
 14 50  1  0  0  0  0
 15 16  1  0  0  0  0
 15 17  2  0  0  0  0
 16 51  1  0  0  0  0
 16 52  1  0  0  0  0
 16 53  1  0  0  0  0
 17 18  1  0  0  0  0
 17 54  1  0  0  0  0
 18 19  2  0  0  0  0
 18 55  1  0  0  0  0
 19 20  1  0  0  0  0
 19 56  1  0  0  0  0
 20 21  1  0  0  0  0
 20 22  2  0  0  0  0
 21 57  1  0  0  0  0
 21 58  1  0  0  0  0
 21 59  1  0  0  0  0
 22 23  1  0  0  0  0
 22 60  1  0  0  0  0
 23 24  2  0  0  0  0
 23 61  1  0  0  0  0
 24 25  1  0  0  0  0
 24 62  1  0  0  0  0
 25 26  2  0  0  0  0
 25 63  1  0  0  0  0
 26 27  1  0  0  0  0
 26 28  1  0  0  0  0
 27 64  1  0  0  0  0
 27 65  1  0  0  0  0
 27 66  1  0  0  0  0
 28 29  2  0  0  0  0
 28 67  1  0  0  0  0
 29 30  1  0  0  0  0
 29 68  1  0  0  0  0
 30 31  2  0  0  0  0
 30 69  1  0  0  0  0
 31 32  1  0  0  0  0
 31 33  1  0  0  0  0
 32 70  1  0  0  0  0
 32 71  1  0  0  0  0
 32 72  1  0  0  0  0
 33 73  1  0  0  0  0
M  END
>  <PUBCHEM_COMPOUND_CID>
101716228

>  <PUBCHEM_COMPOUND_CANONICALIZED>
1

>  <PUBCHEM_CACTVS_COMPLEXITY>
945

>  <PUBCHEM_CACTVS_HBOND_ACCEPTOR>
3

>  <PUBCHEM_CACTVS_HBOND_DONOR>
1

>  <PUBCHEM_CACTVS_ROTATABLE_BOND>
10

>  <PUBCHEM_CACTVS_SUBSKEYS>
AAADcfB4MAAAAAAAAAAAAAAAAAAAAYAAAAAAAAAAAAAAAAAAAAAAGgAACAAADhSggAICAAAAAgCIAqhSgAAAAAAgAAAICAEAAEgIEBIAAQAAQAAEgAAIgYOKzMDPgAAAAAAAAAAAAAAAAAAAAIAACAAAAA==

>  <PUBCHEM_IUPAC_OPENEYE_NAME>
(2E,4E,6E,8E,10E,12E,14E,16E)-18-[(1R,4S)-4-hydroxy-1,2,2-trimethyl-cyclopentyl]-2,6,11,15-tetramethyl-18-oxo-octadeca-2,4,6,8,10,12,14,16-octaenal

>  <PUBCHEM_IUPAC_CAS_NAME>
(2E,4E,6E,8E,10E,12E,14E,16E)-18-[(1R,4S)-4-hydroxy-1,2,2-trimethylcyclopentyl]-2,6,11,15-tetramethyl-18-oxooctadeca-2,4,6,8,10,12,14,16-octaenal

>  <PUBCHEM_IUPAC_NAME>
(2E,4E,6E,8E,10E,12E,14E,16E)-18-[(1R,4S)-4-hydroxy-1,2,2-trimethylcyclopentyl]-2,6,11,15-tetramethyl-18-oxooctadeca-2,4,6,8,10,12,14,16-octaenal

>  <PUBCHEM_IUPAC_SYSTEMATIC_NAME>
(2E,4E,6E,8E,10E,12E,14E,16E)-2,6,11,15-tetramethyl-18-oxidanylidene-18-[(1R,4S)-1,2,2-trimethyl-4-oxidanyl-cyclopentyl]octadeca-2,4,6,8,10,12,14,16-octaenal

>  <PUBCHEM_IUPAC_TRADITIONAL_NAME>
(2E,4E,6E,8E,10E,12E,14E,16E)-18-[(1R,4S)-4-hydroxy-1,2,2-trimethyl-cyclopentyl]-18-keto-2,6,11,15-tetramethyl-octadeca-2,4,6,8,10,12,14,16-octaenal

>  <PUBCHEM_IUPAC_INCHI>
InChI=1S/C30H40O3/c1-23(12-8-9-13-24(2)15-11-17-26(4)22-31)14-10-16-25(3)18-19-28(33)30(7)21-27(32)20-29(30,5)6/h8-19,22,27,32H,20-21H2,1-7H3/b9-8+,14-10+,15-11+,19-18+,23-12+,24-13+,25-16+,26-17+/t27-,30-/m0/s1

>  <PUBCHEM_IUPAC_INCHIKEY>
VDGWCWMBBJYECQ-QNKNFTFASA-N

>  <PUBCHEM_XLOGP3_AA>
7.8

>  <PUBCHEM_EXACT_MASS>
448.298

>  <PUBCHEM_MOLECULAR_FORMULA>
C30H40O3

>  <PUBCHEM_MOLECULAR_WEIGHT>
448.647

>  <PUBCHEM_OPENEYE_CAN_SMILES>
CC(=CC=CC=C(C)C=CC=C(C)C=O)C=CC=C(C)C=CC(=O)C1(CC(CC1(C)C)O)C

>  <PUBCHEM_OPENEYE_ISO_SMILES>
C/C(=C\C=C\C=C(/C)\C=C\C=C(/C)\C=O)/C=C/C=C(\C)/C=C/C(=O)[C@@]1(C[C@H](CC1(C)C)O)C

>  <PUBCHEM_CACTVS_TPSA>
54.4

>  <PUBCHEM_MONOISOTOPIC_WEIGHT>
448.298

>  <PUBCHEM_TOTAL_CHARGE>
0

>  <PUBCHEM_HEAVY_ATOM_COUNT>
33

>  <PUBCHEM_ATOM_DEF_STEREO_COUNT>
2

>  <PUBCHEM_ATOM_UDEF_STEREO_COUNT>
0

>  <PUBCHEM_BOND_DEF_STEREO_COUNT>
8

>  <PUBCHEM_BOND_UDEF_STEREO_COUNT>
0

>  <PUBCHEM_ISOTOPIC_ATOM_COUNT>
0

>  <PUBCHEM_COMPONENT_COUNT>
1

>  <PUBCHEM_CACTVS_TAUTO_COUNT>
134

>  <PUBCHEM_COORDINATE_TYPE>
1
5
255

>  <PUBCHEM_BONDANNOTATIONS>
8  1  5
5  11  5

$$$$
