101866420
 OpenBabel06101807152D

 95100  0  0  1  0  0  0  0  0999 V2000
    8.5991   -0.9276    0.0000 O   0  0  0  0  0  0  0  0  0  0  0  0
   10.3312   -0.9276    0.0000 O   0  0  0  0  0  0  0  0  0  0  0  0
   12.0632    0.0725    0.0000 O   0  0  0  0  0  0  0  0  0  0  0  0
    6.8671    0.0725    0.0000 O   0  0  0  0  0  0  0  0  0  0  0  0
    5.1350    0.0725    0.0000 O   0  0  0  0  0  0  0  0  0  0  0  0
    6.8671   -2.9276    0.0000 O   0  0  0  0  0  0  0  0  0  0  0  0
    8.5991   -3.9276    0.0000 O   0  0  0  0  0  0  0  0  0  0  0  0
   10.3312   -2.9276    0.0000 O   0  0  0  0  0  0  0  0  0  0  0  0
   10.3312    2.0724    0.0000 O   0  0  0  0  0  0  0  0  0  0  0  0
   12.0632    3.0724    0.0000 O   0  0  0  0  0  0  0  0  0  0  0  0
   13.7953    0.0725    0.0000 O   0  0  0  0  0  0  0  0  0  0  0  0
    6.8671    2.0724    0.0000 O   0  0  0  0  0  0  0  0  0  0  0  0
   13.7953    2.0724    0.0000 O   0  0  0  0  0  0  0  0  0  0  0  0
    5.1350    3.0724    0.0000 O   0  0  0  0  0  0  0  0  0  0  0  0
    3.4030    2.0724    0.0000 O   0  0  0  0  0  0  0  0  0  0  0  0
    2.5369    0.5724    0.0000 O   0  0  0  0  0  0  0  0  0  0  0  0
   16.3933    0.5724    0.0000 O   0  3  0  0  0  0  0  0  0  0  0  0
   14.6395    3.6039    0.0000 O   0  0  0  0  0  0  0  0  0  0  0  0
   18.1793    3.6176    0.0000 O   0  0  0  0  0  0  0  0  0  0  0  0
   13.7953   -2.9276    0.0000 O   0  0  0  0  0  0  0  0  0  0  0  0
   15.5273   -3.9276    0.0000 O   0  0  0  0  0  0  0  0  0  0  0  0
    7.7331   -1.4276    0.0000 C   0  0  1  0  0  0  0  0  0  0  0  0
    7.7331   -2.4276    0.0000 C   0  0  2  0  0  0  0  0  0  0  0  0
    8.5991   -2.9276    0.0000 C   0  0  1  0  0  0  0  0  0  0  0  0
    9.4651   -2.4276    0.0000 C   0  0  2  0  0  0  0  0  0  0  0  0
    9.4651   -1.4276    0.0000 C   0  0  1  0  0  0  0  0  0  0  0  0
   11.1972    0.5724    0.0000 C   0  0  1  0  0  0  0  0  0  0  0  0
   11.1972    1.5724    0.0000 C   0  0  2  0  0  0  0  0  0  0  0  0
   12.0632    2.0724    0.0000 C   0  0  1  0  0  0  0  0  0  0  0  0
    6.8671   -0.9276    0.0000 C   0  0  0  0  0  0  0  0  0  0  0  0
    6.0010    0.5724    0.0000 C   0  0  2  0  0  0  0  0  0  0  0  0
    6.0010    1.5724    0.0000 C   0  0  1  0  0  0  0  0  0  0  0  0
   12.9292    1.5724    0.0000 C   0  0  2  0  0  0  0  0  0  0  0  0
    5.1350    2.0724    0.0000 C   0  0  2  0  0  0  0  0  0  0  0  0
   10.3312    0.0725    0.0000 C   0  0  0  0  0  0  0  0  0  0  0  0
    4.2690    1.5724    0.0000 C   0  0  1  0  0  0  0  0  0  0  0  0
    4.2690    0.5724    0.0000 C   0  0  1  0  0  0  0  0  0  0  0  0
   12.9292    0.5724    0.0000 C   0  0  1  0  0  0  0  0  0  0  0  0
    3.4030    0.0725    0.0000 C   0  0  0  0  0  0  0  0  0  0  0  0
   14.6613    0.5724    0.0000 C   0  0  0  0  0  0  0  0  0  0  0  0
   15.5273    0.0725    0.0000 C   0  0  0  0  0  0  0  0  0  0  0  0
   14.6613    1.5724    0.0000 C   0  0  0  0  0  0  0  0  0  0  0  0
   15.5273    2.0724    0.0000 C   0  0  0  0  0  0  0  0  0  0  0  0
   15.5273   -0.9276    0.0000 C   0  0  0  0  0  0  0  0  0  0  0  0
   16.3933    1.5724    0.0000 C   0  0  0  0  0  0  0  0  0  0  0  0
   15.5113    3.1140    0.0000 C   0  0  0  0  0  0  0  0  0  0  0  0
   17.3033    2.0793    0.0000 C   0  0  0  0  0  0  0  0  0  0  0  0
   14.6613   -1.4276    0.0000 C   0  0  0  0  0  0  0  0  0  0  0  0
   16.3933   -1.4276    0.0000 C   0  0  0  0  0  0  0  0  0  0  0  0
   16.4093    3.6417    0.0000 C   0  0  0  0  0  0  0  0  0  0  0  0
   17.3114    3.1209    0.0000 C   0  0  0  0  0  0  0  0  0  0  0  0
   14.6613   -2.4276    0.0000 C   0  0  0  0  0  0  0  0  0  0  0  0
   16.3933   -2.4276    0.0000 C   0  0  0  0  0  0  0  0  0  0  0  0
   15.5273   -2.9276    0.0000 C   0  0  0  0  0  0  0  0  0  0  0  0
    7.7331   -0.8076    0.0000 H   0  0  0  0  0  0  0  0  0  0  0  0
    7.7331   -3.0476    0.0000 H   0  0  0  0  0  0  0  0  0  0  0  0
    9.1360   -3.2376    0.0000 H   0  0  0  0  0  0  0  0  0  0  0  0
   10.0021   -2.1176    0.0000 H   0  0  0  0  0  0  0  0  0  0  0  0
    9.4651   -0.8076    0.0000 H   0  0  0  0  0  0  0  0  0  0  0  0
   11.1972   -0.0475    0.0000 H   0  0  0  0  0  0  0  0  0  0  0  0
   11.1972    2.1924    0.0000 H   0  0  0  0  0  0  0  0  0  0  0  0
   12.6002    2.3824    0.0000 H   0  0  0  0  0  0  0  0  0  0  0  0
    6.2565   -0.8199    0.0000 H   0  0  0  0  0  0  0  0  0  0  0  0
    6.6550   -1.5102    0.0000 H   0  0  0  0  0  0  0  0  0  0  0  0
    6.5380    0.8824    0.0000 H   0  0  0  0  0  0  0  0  0  0  0  0
    6.0010    2.1924    0.0000 H   0  0  0  0  0  0  0  0  0  0  0  0
   13.4662    1.2624    0.0000 H   0  0  0  0  0  0  0  0  0  0  0  0
    4.5981    2.3824    0.0000 H   0  0  0  0  0  0  0  0  0  0  0  0
   10.1191    0.6551    0.0000 H   0  0  0  0  0  0  0  0  0  0  0  0
    9.7206   -0.0352    0.0000 H   0  0  0  0  0  0  0  0  0  0  0  0
    4.8311    2.1924    0.0000 H   0  0  0  0  0  0  0  0  0  0  0  0
    4.2690   -0.0475    0.0000 H   0  0  0  0  0  0  0  0  0  0  0  0
   12.9292   -0.0475    0.0000 H   0  0  0  0  0  0  0  0  0  0  0  0
    6.3301   -2.6176    0.0000 H   0  0  0  0  0  0  0  0  0  0  0  0
    3.0044   -0.4025    0.0000 H   0  0  0  0  0  0  0  0  0  0  0  0
    3.8015   -0.4025    0.0000 H   0  0  0  0  0  0  0  0  0  0  0  0
    8.0622   -4.2376    0.0000 H   0  0  0  0  0  0  0  0  0  0  0  0
   10.8681   -2.6176    0.0000 H   0  0  0  0  0  0  0  0  0  0  0  0
   10.3312    2.6924    0.0000 H   0  0  0  0  0  0  0  0  0  0  0  0
   11.5263    3.3824    0.0000 H   0  0  0  0  0  0  0  0  0  0  0  0
    6.8671    2.6924    0.0000 H   0  0  0  0  0  0  0  0  0  0  0  0
   13.7953    2.6924    0.0000 H   0  0  0  0  0  0  0  0  0  0  0  0
    4.5981    3.3824    0.0000 H   0  0  0  0  0  0  0  0  0  0  0  0
    3.4030    2.6924    0.0000 H   0  0  0  0  0  0  0  0  0  0  0  0
    2.0000    0.2624    0.0000 H   0  0  0  0  0  0  0  0  0  0  0  0
   14.1244    1.8824    0.0000 H   0  0  0  0  0  0  0  0  0  0  0  0
   17.8367    1.7631    0.0000 H   0  0  0  0  0  0  0  0  0  0  0  0
   14.1244   -1.1176    0.0000 H   0  0  0  0  0  0  0  0  0  0  0  0
   16.9303   -1.1176    0.0000 H   0  0  0  0  0  0  0  0  0  0  0  0
   16.4069    4.2617    0.0000 H   0  0  0  0  0  0  0  0  0  0  0  0
   16.9303   -2.7376    0.0000 H   0  0  0  0  0  0  0  0  0  0  0  0
   14.6323    4.2239    0.0000 H   0  0  0  0  0  0  0  0  0  0  0  0
   18.1817    4.2376    0.0000 H   0  0  0  0  0  0  0  0  0  0  0  0
   13.7953   -3.5476    0.0000 H   0  0  0  0  0  0  0  0  0  0  0  0
   16.0643   -4.2376    0.0000 H   0  0  0  0  0  0  0  0  0  0  0  0
  1 22  1  0  0  0  0
  1 26  1  0  0  0  0
  2 35  1  0  0  0  0
  3 27  1  0  0  0  0
  3 38  1  0  0  0  0
  4 30  1  0  0  0  0
  5 31  1  0  0  0  0
  5 37  1  0  0  0  0
  6 74  1  0  0  0  0
  7 77  1  0  0  0  0
  8 78  1  0  0  0  0
  9 79  1  0  0  0  0
 10 80  1  0  0  0  0
 11 40  1  0  0  0  0
 12 81  1  0  0  0  0
 13 82  1  0  0  0  0
 14 83  1  0  0  0  0
 15 84  1  0  0  0  0
 16 39  1  0  0  0  0
 16 85  1  0  0  0  0
 17 41  2  0  0  0  0
 17 45  1  0  0  0  0
 18 46  1  0  0  0  0
 18 92  1  0  0  0  0
 19 51  1  0  0  0  0
 19 93  1  0  0  0  0
 20 52  1  0  0  0  0
 20 94  1  0  0  0  0
 21 54  1  0  0  0  0
 21 95  1  0  0  0  0
 22 23  1  6  0  0  0
 22 30  1  0  0  0  0
 22 55  1  0  0  0  0
 23  6  1  0  0  0  0
 23 24  1  6  0  0  0
 23 56  1  0  0  0  0
 24  7  1  0  0  0  0
 24 25  1  1  0  0  0
 24 57  1  0  0  0  0
 25  8  1  0  0  0  0
 25 26  1  6  0  0  0
 25 58  1  0  0  0  0
 26  2  1  0  0  0  0
 26 59  1  6  0  0  0
 27 28  1  1  0  0  0
 27 35  1  0  0  0  0
 27 60  1  0  0  0  0
 28  9  1  0  0  0  0
 28 29  1  1  0  0  0
 28 61  1  0  0  0  0
 29 10  1  0  0  0  0
 29 33  1  6  0  0  0
 29 62  1  0  0  0  0
 30 63  1  0  0  0  0
 30 64  1  0  0  0  0
 31  4  1  0  0  0  0
 31 32  1  6  0  0  0
 31 65  1  0  0  0  0
 32 12  1  0  0  0  0
 32 34  1  1  0  0  0
 32 66  1  0  0  0  0
 33 13  1  0  0  0  0
 33 38  1  1  0  0  0
 33 67  1  0  0  0  0
 34 14  1  0  0  0  0
 34 36  1  6  0  0  0
 34 68  1  0  0  0  0
 35 69  1  0  0  0  0
 35 70  1  0  0  0  0
 36 15  1  0  0  0  0
 36 37  1  6  0  0  0
 36 71  1  0  0  0  0
 37 39  1  0  0  0  0
 37 72  1  1  0  0  0
 38 11  1  0  0  0  0
 38 73  1  1  0  0  0
 39 75  1  0  0  0  0
 39 76  1  0  0  0  0
 40 41  1  0  0  0  0
 40 42  2  0  0  0  0
 41 44  1  0  0  0  0
 42 43  1  0  0  0  0
 42 86  1  0  0  0  0
 43 45  1  0  0  0  0
 43 46  2  0  0  0  0
 44 48  2  0  0  0  0
 44 49  1  0  0  0  0
 45 47  2  0  0  0  0
 46 50  1  0  0  0  0
 47 51  1  0  0  0  0
 47 87  1  0  0  0  0
 48 52  1  0  0  0  0
 48 88  1  0  0  0  0
 49 53  2  0  0  0  0
 49 89  1  0  0  0  0
 50 51  2  0  0  0  0
 50 90  1  0  0  0  0
 52 54  2  0  0  0  0
 53 54  1  0  0  0  0
 53 91  1  0  0  0  0
M  CHG  1  17   1
M  END
>  <PUBCHEM_COMPOUND_CID>
101866420

>  <PUBCHEM_COMPOUND_CANONICALIZED>
1

>  <PUBCHEM_CACTVS_COMPLEXITY>
1190

>  <PUBCHEM_CACTVS_HBOND_ACCEPTOR>
20

>  <PUBCHEM_CACTVS_HBOND_DONOR>
14

>  <PUBCHEM_CACTVS_ROTATABLE_BOND>
10

>  <PUBCHEM_CACTVS_SUBSKEYS>
AAADcfB8PgAAAAAAAAAAAAAAAAAAAAAAAAA0aJEiAAAAAACR9AAAGgAACAAADBSwmAMwDsAABkCIAqBSAAICCAAkIAAIiAFGiMgdNzaGNR6ieWOl4BUPuYfK7PzOIAABCAAIQABAAAIQABCAAAAAAAAAAA==

>  <PUBCHEM_IUPAC_OPENEYE_NAME>
(2R,3R,4S,5S,6R)-2-[[(2R,3S,4S,5R,6R)-6-[[(2R,3S,4S,5R,6S)-6-[2-(3,4-dihydroxyphenyl)-5,7-dihydroxy-chromenylium-3-yl]oxy-3,4,5-trihydroxy-tetrahydropyran-2-yl]methoxy]-3,4,5-trihydroxy-tetrahydropyran-2-yl]methoxy]-6-(hydroxymethyl)tetrahydropyran-3,4,5-triol

>  <PUBCHEM_IUPAC_CAS_NAME>
(2R,3R,4S,5S,6R)-2-[[(2R,3S,4S,5R,6R)-6-[[(2R,3S,4S,5R,6S)-6-[[2-(3,4-dihydroxyphenyl)-5,7-dihydroxy-1-benzopyrylium-3-yl]oxy]-3,4,5-trihydroxy-2-oxanyl]methoxy]-3,4,5-trihydroxy-2-oxanyl]methoxy]-6-(hydroxymethyl)oxane-3,4,5-triol

>  <PUBCHEM_IUPAC_NAME>
(2R,3R,4S,5S,6R)-2-[[(2R,3S,4S,5R,6R)-6-[[(2R,3S,4S,5R,6S)-6-[2-(3,4-dihydroxyphenyl)-5,7-dihydroxychromenylium-3-yl]oxy-3,4,5-trihydroxyoxan-2-yl]methoxy]-3,4,5-trihydroxyoxan-2-yl]methoxy]-6-(hydroxymethyl)oxane-3,4,5-triol

>  <PUBCHEM_IUPAC_SYSTEMATIC_NAME>
(2R,3R,4S,5S,6R)-2-[[(2R,3S,4S,5R,6R)-6-[[(2R,3S,4S,5R,6S)-6-[2-[3,4-bis(oxidanyl)phenyl]-5,7-bis(oxidanyl)chromenylium-3-yl]oxy-3,4,5-tris(oxidanyl)oxan-2-yl]methoxy]-3,4,5-tris(oxidanyl)oxan-2-yl]methoxy]-6-(hydroxymethyl)oxane-3,4,5-triol

>  <PUBCHEM_IUPAC_TRADITIONAL_NAME>
(2R,3R,4S,5S,6R)-2-[[(2R,3S,4S,5R,6R)-6-[[(2R,3S,4S,5R,6S)-6-[[2-(3,4-dihydroxyphenyl)-5,7-dihydroxy-1-benzopyrylium-3-yl]oxy]-3,4,5-trihydroxy-tetrahydropyran-2-yl]methoxy]-3,4,5-trihydroxy-tetrahydropyran-2-yl]methoxy]-6-methylol-tetrahydropyran-3,4,5-triol

>  <PUBCHEM_IUPAC_INCHI>
InChI=1S/C33H40O21/c34-7-18-21(39)24(42)27(45)31(52-18)48-8-19-22(40)25(43)28(46)32(53-19)49-9-20-23(41)26(44)29(47)33(54-20)51-17-6-12-14(37)4-11(35)5-16(12)50-30(17)10-1-2-13(36)15(38)3-10/h1-6,18-29,31-34,39-47H,7-9H2,(H3-,35,36,37,38)/p+1/t18-,19-,20-,21-,22-,23-,24+,25+,26+,27-,28-,29-,31-,32-,33-/m1/s1

>  <PUBCHEM_IUPAC_INCHIKEY>
DGZPGMKPAASQNQ-PQFOCHFESA-O

>  <PUBCHEM_EXACT_MASS>
773.214

>  <PUBCHEM_MOLECULAR_FORMULA>
C33H41O21+

>  <PUBCHEM_MOLECULAR_WEIGHT>
773.67

>  <PUBCHEM_OPENEYE_CAN_SMILES>
C1=CC(=C(C=C1C2=C(C=C3C(=CC(=CC3=[O+]2)O)O)OC4C(C(C(C(O4)COC5C(C(C(C(O5)COC6C(C(C(C(O6)CO)O)O)O)O)O)O)O)O)O)O)O

>  <PUBCHEM_OPENEYE_ISO_SMILES>
C1=CC(=C(C=C1C2=C(C=C3C(=CC(=CC3=[O+]2)O)O)O[C@H]4[C@@H]([C@H]([C@@H]([C@H](O4)CO[C@H]5[C@@H]([C@H]([C@@H]([C@H](O5)CO[C@H]6[C@@H]([C@H]([C@@H]([C@H](O6)CO)O)O)O)O)O)O)O)O)O)O)O

>  <PUBCHEM_CACTVS_TPSA>
340

>  <PUBCHEM_MONOISOTOPIC_WEIGHT>
773.214

>  <PUBCHEM_TOTAL_CHARGE>
1

>  <PUBCHEM_HEAVY_ATOM_COUNT>
54

>  <PUBCHEM_ATOM_DEF_STEREO_COUNT>
15

>  <PUBCHEM_ATOM_UDEF_STEREO_COUNT>
0

>  <PUBCHEM_BOND_DEF_STEREO_COUNT>
0

>  <PUBCHEM_BOND_UDEF_STEREO_COUNT>
0

>  <PUBCHEM_ISOTOPIC_ATOM_COUNT>
0

>  <PUBCHEM_COMPONENT_COUNT>
1

>  <PUBCHEM_CACTVS_TAUTO_COUNT>
147

>  <PUBCHEM_COORDINATE_TYPE>
1
5
255

>  <PUBCHEM_BONDANNOTATIONS>
29  10  6
38  11  6
32  12  5
33  13  5
34  14  6
36  15  5
17  41  8
17  45  8
26  2  5
22  30  5
27  35  6
37  39  6
31  4  6
40  41  8
40  42  8
42  43  8
43  45  8
43  46  8
44  48  8
44  49  8
45  47  8
46  50  8
47  51  8
48  52  8
49  53  8
50  51  8
52  54  8
53  54  8
23  6  6
24  7  5
25  8  6
28  9  5

$$$$
