101863377
 OpenBabel06101807152D

 36 37  0  0  0  0  0  0  0  0999 V2000
    2.5369   -3.4050    0.0000 O   0  0  0  0  0  0  0  0  0  0  0  0
    6.0010   -3.4050    0.0000 O   0  0  0  0  0  0  0  0  0  0  0  0
    6.8671    3.0950    0.0000 O   0  0  0  0  0  0  0  0  0  0  0  0
    5.1350    4.0950    0.0000 O   0  0  0  0  0  0  0  0  0  0  0  0
    4.2690   -1.4050    0.0000 C   0  0  0  0  0  0  0  0  0  0  0  0
    4.2690   -3.4050    0.0000 C   0  0  0  0  0  0  0  0  0  0  0  0
    3.4030   -2.9050    0.0000 C   0  0  0  0  0  0  0  0  0  0  0  0
    5.1350   -2.9050    0.0000 C   0  0  0  0  0  0  0  0  0  0  0  0
    3.4030   -1.9050    0.0000 C   0  0  0  0  0  0  0  0  0  0  0  0
    5.1350   -1.9050    0.0000 C   0  0  0  0  0  0  0  0  0  0  0  0
    5.1350    1.0950    0.0000 C   0  0  0  0  0  0  0  0  0  0  0  0
    4.2690   -0.4050    0.0000 C   0  0  0  0  0  0  0  0  0  0  0  0
    5.1350    0.0950    0.0000 C   0  0  0  0  0  0  0  0  0  0  0  0
    6.0010    1.5950    0.0000 C   0  0  0  0  0  0  0  0  0  0  0  0
    4.2690   -4.4050    0.0000 C   0  0  0  0  0  0  0  0  0  0  0  0
    4.2690    1.5950    0.0000 C   0  0  0  0  0  0  0  0  0  0  0  0
    6.0010    2.5950    0.0000 C   0  0  0  0  0  0  0  0  0  0  0  0
    5.1350    3.0950    0.0000 C   0  0  0  0  0  0  0  0  0  0  0  0
    4.2690    2.5950    0.0000 C   0  0  0  0  0  0  0  0  0  0  0  0
    7.7331    2.5950    0.0000 C   0  0  0  0  0  0  0  0  0  0  0  0
    2.8660   -1.5950    0.0000 H   0  0  0  0  0  0  0  0  0  0  0  0
    5.6720   -1.5950    0.0000 H   0  0  0  0  0  0  0  0  0  0  0  0
    3.7320   -0.0950    0.0000 H   0  0  0  0  0  0  0  0  0  0  0  0
    5.6720   -0.2150    0.0000 H   0  0  0  0  0  0  0  0  0  0  0  0
    6.5380    1.2850    0.0000 H   0  0  0  0  0  0  0  0  0  0  0  0
    3.6490   -4.4050    0.0000 H   0  0  0  0  0  0  0  0  0  0  0  0
    4.2690   -5.0250    0.0000 H   0  0  0  0  0  0  0  0  0  0  0  0
    4.8890   -4.4050    0.0000 H   0  0  0  0  0  0  0  0  0  0  0  0
    3.7320    1.2850    0.0000 H   0  0  0  0  0  0  0  0  0  0  0  0
    3.7320    2.9050    0.0000 H   0  0  0  0  0  0  0  0  0  0  0  0
    2.0000   -3.0950    0.0000 H   0  0  0  0  0  0  0  0  0  0  0  0
    6.5380   -3.0950    0.0000 H   0  0  0  0  0  0  0  0  0  0  0  0
    4.5981    4.4050    0.0000 H   0  0  0  0  0  0  0  0  0  0  0  0
    7.4231    2.0581    0.0000 H   0  0  0  0  0  0  0  0  0  0  0  0
    8.2700    2.2850    0.0000 H   0  0  0  0  0  0  0  0  0  0  0  0
    8.0431    3.1319    0.0000 H   0  0  0  0  0  0  0  0  0  0  0  0
  1  7  1  0  0  0  0
  1 31  1  0  0  0  0
  2  8  1  0  0  0  0
  2 32  1  0  0  0  0
  3 17  1  0  0  0  0
  3 20  1  0  0  0  0
  4 18  1  0  0  0  0
  4 33  1  0  0  0  0
  5  9  2  0  0  0  0
  5 10  1  0  0  0  0
  5 12  1  0  0  0  0
  6  7  2  0  0  0  0
  6  8  1  0  0  0  0
  6 15  1  0  0  0  0
  7  9  1  0  0  0  0
  8 10  2  0  0  0  0
  9 21  1  0  0  0  0
 10 22  1  0  0  0  0
 11 13  1  0  0  0  0
 11 14  2  0  0  0  0
 11 16  1  0  0  0  0
 12 13  2  0  0  0  0
 12 23  1  0  0  0  0
 13 24  1  0  0  0  0
 14 17  1  0  0  0  0
 14 25  1  0  0  0  0
 15 26  1  0  0  0  0
 15 27  1  0  0  0  0
 15 28  1  0  0  0  0
 16 19  2  0  0  0  0
 16 29  1  0  0  0  0
 17 18  2  0  0  0  0
 18 19  1  0  0  0  0
 19 30  1  0  0  0  0
 20 34  1  0  0  0  0
 20 35  1  0  0  0  0
 20 36  1  0  0  0  0
M  END
>  <PUBCHEM_COMPOUND_CID>
101863377

>  <PUBCHEM_COMPOUND_CANONICALIZED>
1

>  <PUBCHEM_CACTVS_COMPLEXITY>
318

>  <PUBCHEM_CACTVS_HBOND_ACCEPTOR>
4

>  <PUBCHEM_CACTVS_HBOND_DONOR>
3

>  <PUBCHEM_CACTVS_ROTATABLE_BOND>
3

>  <PUBCHEM_CACTVS_SUBSKEYS>
AAADceB4OAAAAAAAAAAAAAAAAAAAAAAAAAAwYAAAAAAAAAABQAAAGgAACAAADASAmAIyBoAABgCAAiBCAAACCAAgIAAIiAAGiIgNJyKGMRqAcCMlwBULuAeA4DQOYAABCAAIQADAAAIQABCAAAAAAAAAAA==

>  <PUBCHEM_IUPAC_OPENEYE_NAME>
5-[(E)-2-(4-hydroxy-3-methoxy-phenyl)vinyl]-2-methyl-benzene-1,3-diol

>  <PUBCHEM_IUPAC_CAS_NAME>
5-[(E)-2-(4-hydroxy-3-methoxyphenyl)ethenyl]-2-methylbenzene-1,3-diol

>  <PUBCHEM_IUPAC_NAME>
5-[(E)-2-(4-hydroxy-3-methoxyphenyl)ethenyl]-2-methylbenzene-1,3-diol

>  <PUBCHEM_IUPAC_SYSTEMATIC_NAME>
5-[(E)-2-(3-methoxy-4-oxidanyl-phenyl)ethenyl]-2-methyl-benzene-1,3-diol

>  <PUBCHEM_IUPAC_TRADITIONAL_NAME>
5-[(E)-2-(4-hydroxy-3-methoxy-phenyl)vinyl]-2-methyl-resorcinol

>  <PUBCHEM_IUPAC_INCHI>
InChI=1S/C16H16O4/c1-10-14(18)7-12(8-15(10)19)4-3-11-5-6-13(17)16(9-11)20-2/h3-9,17-19H,1-2H3/b4-3+

>  <PUBCHEM_IUPAC_INCHIKEY>
KWHLGKXFHYMCMK-ONEGZZNKSA-N

>  <PUBCHEM_XLOGP3>
3.5

>  <PUBCHEM_EXACT_MASS>
272.105

>  <PUBCHEM_MOLECULAR_FORMULA>
C16H16O4

>  <PUBCHEM_MOLECULAR_WEIGHT>
272.3

>  <PUBCHEM_OPENEYE_CAN_SMILES>
CC1=C(C=C(C=C1O)C=CC2=CC(=C(C=C2)O)OC)O

>  <PUBCHEM_OPENEYE_ISO_SMILES>
CC1=C(C=C(C=C1O)/C=C/C2=CC(=C(C=C2)O)OC)O

>  <PUBCHEM_CACTVS_TPSA>
69.9

>  <PUBCHEM_MONOISOTOPIC_WEIGHT>
272.105

>  <PUBCHEM_TOTAL_CHARGE>
0

>  <PUBCHEM_HEAVY_ATOM_COUNT>
20

>  <PUBCHEM_ATOM_DEF_STEREO_COUNT>
0

>  <PUBCHEM_ATOM_UDEF_STEREO_COUNT>
0

>  <PUBCHEM_BOND_DEF_STEREO_COUNT>
1

>  <PUBCHEM_BOND_UDEF_STEREO_COUNT>
0

>  <PUBCHEM_ISOTOPIC_ATOM_COUNT>
0

>  <PUBCHEM_COMPONENT_COUNT>
1

>  <PUBCHEM_CACTVS_TAUTO_COUNT>
56

>  <PUBCHEM_COORDINATE_TYPE>
1
5
255

>  <PUBCHEM_BONDANNOTATIONS>
11  14  8
11  16  8
14  17  8
16  19  8
17  18  8
18  19  8
5  10  8
5  9  8
6  7  8
6  8  8
7  9  8
8  10  8

$$$$
