101999902
 OpenBabel06101807152D

 58 61  0  0  0  0  0  0  0  0999 V2000
   13.0172    1.9147    0.0000 O   0  0  0  0  0  0  0  0  0  0  0  0
    2.5369    0.8458    0.0000 O   0  0  0  0  0  0  0  0  0  0  0  0
    8.6270   -1.6889    0.0000 O   0  0  0  0  0  0  0  0  0  0  0  0
    6.8671    1.3458    0.0000 O   0  0  0  0  0  0  0  0  0  0  0  0
    5.1350   -1.6542    0.0000 O   0  0  0  0  0  0  0  0  0  0  0  0
   11.2690   -1.1267    0.0000 O   0  0  0  0  0  0  0  0  0  0  0  0
    8.6155    1.3804    0.0000 O   0  0  0  0  0  0  0  0  0  0  0  0
    3.4030    0.3458    0.0000 C   0  0  0  0  0  0  0  0  0  0  0  0
    4.2690   -0.1542    0.0000 C   0  0  0  0  0  0  0  0  0  0  0  0
    5.1350    0.3458    0.0000 C   0  0  0  0  0  0  0  0  0  0  0  0
    6.0010   -0.1542    0.0000 C   0  0  0  0  0  0  0  0  0  0  0  0
   13.9253    1.4044    0.0000 C   0  0  0  0  0  0  0  0  0  0  0  0
    2.9030   -0.5202    0.0000 C   0  0  0  0  0  0  0  0  0  0  0  0
    3.9030    1.2118    0.0000 C   0  0  0  0  0  0  0  0  0  0  0  0
    6.8671    0.3458    0.0000 C   0  0  0  0  0  0  0  0  0  0  0  0
    7.7331   -0.1542    0.0000 C   0  0  0  0  0  0  0  0  0  0  0  0
   12.1292    0.3766    0.0000 C   0  0  0  0  0  0  0  0  0  0  0  0
    6.0010   -1.1542    0.0000 C   0  0  0  0  0  0  0  0  0  0  0  0
   12.1254    1.3766    0.0000 C   0  0  0  0  0  0  0  0  0  0  0  0
   10.3972    0.3699    0.0000 C   0  0  0  0  0  0  0  0  0  0  0  0
    7.7331   -1.1542    0.0000 C   0  0  0  0  0  0  0  0  0  0  0  0
    9.5331   -0.1334    0.0000 C   0  0  0  0  0  0  0  0  0  0  0  0
   13.9293    0.3627    0.0000 C   0  0  0  0  0  0  0  0  0  0  0  0
    8.6270    0.3804    0.0000 C   0  0  0  0  0  0  0  0  0  0  0  0
   11.2651   -0.1267    0.0000 C   0  0  0  0  0  0  0  0  0  0  0  0
    6.8671   -1.6542    0.0000 C   0  0  0  0  0  0  0  0  0  0  0  0
   13.0252   -0.1546    0.0000 C   0  0  0  0  0  0  0  0  0  0  0  0
   14.9253    1.4121    0.0000 C   0  0  0  0  0  0  0  0  0  0  0  0
   14.4186    2.2742    0.0000 C   0  0  0  0  0  0  0  0  0  0  0  0
   11.2574    1.8733    0.0000 C   0  0  0  0  0  0  0  0  0  0  0  0
   10.3933    1.3699    0.0000 C   0  0  0  0  0  0  0  0  0  0  0  0
    9.5331   -1.1750    0.0000 C   0  0  0  0  0  0  0  0  0  0  0  0
    3.8705   -0.6292    0.0000 H   0  0  0  0  0  0  0  0  0  0  0  0
    4.6675   -0.6292    0.0000 H   0  0  0  0  0  0  0  0  0  0  0  0
    5.5335    0.8207    0.0000 H   0  0  0  0  0  0  0  0  0  0  0  0
    4.7365    0.8207    0.0000 H   0  0  0  0  0  0  0  0  0  0  0  0
    2.3660   -0.2102    0.0000 H   0  0  0  0  0  0  0  0  0  0  0  0
    2.5930   -1.0572    0.0000 H   0  0  0  0  0  0  0  0  0  0  0  0
    3.4399   -0.8302    0.0000 H   0  0  0  0  0  0  0  0  0  0  0  0
    4.4399    0.9018    0.0000 H   0  0  0  0  0  0  0  0  0  0  0  0
    4.2130    1.7488    0.0000 H   0  0  0  0  0  0  0  0  0  0  0  0
    3.3660    1.5218    0.0000 H   0  0  0  0  0  0  0  0  0  0  0  0
   14.4662    0.0527    0.0000 H   0  0  0  0  0  0  0  0  0  0  0  0
    6.8671   -2.2742    0.0000 H   0  0  0  0  0  0  0  0  0  0  0  0
   13.0204   -0.7746    0.0000 H   0  0  0  0  0  0  0  0  0  0  0  0
   14.9579    1.9684    0.0000 H   0  0  0  0  0  0  0  0  0  0  0  0
   14.7244    2.8135    0.0000 H   0  0  0  0  0  0  0  0  0  0  0  0
   14.9300    0.7921    0.0000 H   0  0  0  0  0  0  0  0  0  0  0  0
   15.5452    1.4168    0.0000 H   0  0  0  0  0  0  0  0  0  0  0  0
   14.9205    2.0320    0.0000 H   0  0  0  0  0  0  0  0  0  0  0  0
   13.8793    2.5801    0.0000 H   0  0  0  0  0  0  0  0  0  0  0  0
    2.0000    0.5358    0.0000 H   0  0  0  0  0  0  0  0  0  0  0  0
   11.2550    2.4933    0.0000 H   0  0  0  0  0  0  0  0  0  0  0  0
    9.8552    1.6779    0.0000 H   0  0  0  0  0  0  0  0  0  0  0  0
   10.0688   -1.4871    0.0000 H   0  0  0  0  0  0  0  0  0  0  0  0
    6.3301    1.6558    0.0000 H   0  0  0  0  0  0  0  0  0  0  0  0
    5.1350   -2.2742    0.0000 H   0  0  0  0  0  0  0  0  0  0  0  0
   11.8071   -1.4346    0.0000 H   0  0  0  0  0  0  0  0  0  0  0  0
  1 12  1  0  0  0  0
  1 19  1  0  0  0  0
  2  8  1  0  0  0  0
  2 52  1  0  0  0  0
  3 21  1  0  0  0  0
  3 32  1  0  0  0  0
  4 15  1  0  0  0  0
  4 56  1  0  0  0  0
  5 18  1  0  0  0  0
  5 57  1  0  0  0  0
  6 25  1  0  0  0  0
  6 58  1  0  0  0  0
  7 24  2  0  0  0  0
  8  9  1  0  0  0  0
  8 13  1  0  0  0  0
  8 14  1  0  0  0  0
  9 10  1  0  0  0  0
  9 33  1  0  0  0  0
  9 34  1  0  0  0  0
 10 11  1  0  0  0  0
 10 35  1  0  0  0  0
 10 36  1  0  0  0  0
 11 15  2  0  0  0  0
 11 18  1  0  0  0  0
 12 23  1  0  0  0  0
 12 28  1  0  0  0  0
 12 29  1  0  0  0  0
 13 37  1  0  0  0  0
 13 38  1  0  0  0  0
 13 39  1  0  0  0  0
 14 40  1  0  0  0  0
 14 41  1  0  0  0  0
 14 42  1  0  0  0  0
 15 16  1  0  0  0  0
 16 21  2  0  0  0  0
 16 24  1  0  0  0  0
 17 19  2  0  0  0  0
 17 25  1  0  0  0  0
 17 27  1  0  0  0  0
 18 26  2  0  0  0  0
 19 30  1  0  0  0  0
 20 22  1  0  0  0  0
 20 25  2  0  0  0  0
 20 31  1  0  0  0  0
 21 26  1  0  0  0  0
 22 24  1  0  0  0  0
 22 32  2  0  0  0  0
 23 27  2  0  0  0  0
 23 43  1  0  0  0  0
 26 44  1  0  0  0  0
 27 45  1  0  0  0  0
 28 48  1  0  0  0  0
 28 49  1  0  0  0  0
 28 50  1  0  0  0  0
 29 46  1  0  0  0  0
 29 47  1  0  0  0  0
 29 51  1  0  0  0  0
 30 31  2  0  0  0  0
 30 53  1  0  0  0  0
 31 54  1  0  0  0  0
 32 55  1  0  0  0  0
M  END
>  <PUBCHEM_COMPOUND_CID>
101999902

>  <PUBCHEM_COMPOUND_CANONICALIZED>
1

>  <PUBCHEM_CACTVS_COMPLEXITY>
785

>  <PUBCHEM_CACTVS_HBOND_ACCEPTOR>
7

>  <PUBCHEM_CACTVS_HBOND_DONOR>
4

>  <PUBCHEM_CACTVS_ROTATABLE_BOND>
4

>  <PUBCHEM_CACTVS_SUBSKEYS>
AAADceB4OAAAAAAAAAAAAAAAAAAAAAAAAAAwYIEAAAAAAACBQAAAGgAACAAADESgmAIyBoAABgCIAqBSAAACCAAkIAAIiAEGCMgMJzaGNBqCeWCl4BUIuYeK7PzOIAACCAAIAABAAAQQABAAAAAAAAAAAA==

>  <PUBCHEM_IUPAC_OPENEYE_NAME>
5,7-dihydroxy-3-(5-hydroxy-2,2-dimethyl-chromen-6-yl)-6-(3-hydroxy-3-methyl-butyl)chromen-4-one

>  <PUBCHEM_IUPAC_CAS_NAME>
5,7-dihydroxy-3-(5-hydroxy-2,2-dimethyl-1-benzopyran-6-yl)-6-(3-hydroxy-3-methylbutyl)-1-benzopyran-4-one

>  <PUBCHEM_IUPAC_NAME>
5,7-dihydroxy-3-(5-hydroxy-2,2-dimethylchromen-6-yl)-6-(3-hydroxy-3-methylbutyl)chromen-4-one

>  <PUBCHEM_IUPAC_SYSTEMATIC_NAME>
3-(2,2-dimethyl-5-oxidanyl-chromen-6-yl)-6-(3-methyl-3-oxidanyl-butyl)-5,7-bis(oxidanyl)chromen-4-one

>  <PUBCHEM_IUPAC_TRADITIONAL_NAME>
5,7-dihydroxy-3-(5-hydroxy-2,2-dimethyl-chromen-6-yl)-6-(3-hydroxy-3-methyl-butyl)chromone

>  <PUBCHEM_IUPAC_INCHI>
InChI=1S/C25H26O7/c1-24(2,30)9-7-14-17(26)11-19-20(22(14)28)23(29)16(12-31-19)13-5-6-18-15(21(13)27)8-10-25(3,4)32-18/h5-6,8,10-12,26-28,30H,7,9H2,1-4H3

>  <PUBCHEM_IUPAC_INCHIKEY>
SBSQRDFJISUOGV-UHFFFAOYSA-N

>  <PUBCHEM_XLOGP3_AA>
4.1

>  <PUBCHEM_EXACT_MASS>
438.168

>  <PUBCHEM_MOLECULAR_FORMULA>
C25H26O7

>  <PUBCHEM_MOLECULAR_WEIGHT>
438.476

>  <PUBCHEM_OPENEYE_CAN_SMILES>
CC1(C=CC2=C(O1)C=CC(=C2O)C3=COC4=CC(=C(C(=C4C3=O)O)CCC(C)(C)O)O)C

>  <PUBCHEM_OPENEYE_ISO_SMILES>
CC1(C=CC2=C(O1)C=CC(=C2O)C3=COC4=CC(=C(C(=C4C3=O)O)CCC(C)(C)O)O)C

>  <PUBCHEM_CACTVS_TPSA>
116

>  <PUBCHEM_MONOISOTOPIC_WEIGHT>
438.168

>  <PUBCHEM_TOTAL_CHARGE>
0

>  <PUBCHEM_HEAVY_ATOM_COUNT>
32

>  <PUBCHEM_ATOM_DEF_STEREO_COUNT>
0

>  <PUBCHEM_ATOM_UDEF_STEREO_COUNT>
0

>  <PUBCHEM_BOND_DEF_STEREO_COUNT>
0

>  <PUBCHEM_BOND_UDEF_STEREO_COUNT>
0

>  <PUBCHEM_ISOTOPIC_ATOM_COUNT>
0

>  <PUBCHEM_COMPONENT_COUNT>
1

>  <PUBCHEM_CACTVS_TAUTO_COUNT>
48

>  <PUBCHEM_COORDINATE_TYPE>
1
5
255

>  <PUBCHEM_BONDANNOTATIONS>
11  15  8
11  18  8
15  16  8
16  21  8
16  24  8
17  19  8
17  25  8
18  26  8
19  30  8
20  25  8
20  31  8
21  26  8
22  24  8
22  32  8
3  21  8
3  32  8
30  31  8

$$$$
