101958973
 OpenBabel06101807152D

 94 99  0  0  1  0  0  0  0  0999 V2000
    8.5991   -2.4050    0.0000 O   0  0  0  0  0  0  0  0  0  0  0  0
   10.3312   -2.4050    0.0000 O   0  0  0  0  0  0  0  0  0  0  0  0
   11.1972    0.0950    0.0000 O   0  0  0  0  0  0  0  0  0  0  0  0
    6.8671   -1.4050    0.0000 O   0  0  0  0  0  0  0  0  0  0  0  0
    5.1350   -1.4050    0.0000 O   0  0  0  0  0  0  0  0  0  0  0  0
    6.8671   -4.4050    0.0000 O   0  0  0  0  0  0  0  0  0  0  0  0
    8.5991   -5.4050    0.0000 O   0  0  0  0  0  0  0  0  0  0  0  0
   10.3312   -4.4050    0.0000 O   0  0  0  0  0  0  0  0  0  0  0  0
   12.0632   -2.4050    0.0000 O   0  0  0  0  0  0  0  0  0  0  0  0
   13.7953   -1.4050    0.0000 O   0  0  0  0  0  0  0  0  0  0  0  0
   12.0632    1.5950    0.0000 O   0  0  0  0  0  0  0  0  0  0  0  0
    6.8671    0.5950    0.0000 O   0  0  0  0  0  0  0  0  0  0  0  0
   13.7953    0.5950    0.0000 O   0  0  0  0  0  0  0  0  0  0  0  0
    5.1350    1.5950    0.0000 O   0  0  0  0  0  0  0  0  0  0  0  0
    3.4030    0.5950    0.0000 O   0  0  0  0  0  0  0  0  0  0  0  0
    2.5369   -0.9050    0.0000 O   0  0  0  0  0  0  0  0  0  0  0  0
   10.3312    3.5950    0.0000 O   0  0  0  0  0  0  0  0  0  0  0  0
   10.3312    0.5950    0.0000 O   0  0  0  0  0  0  0  0  0  0  0  0
    8.5828    0.5604    0.0000 O   0  0  0  0  0  0  0  0  0  0  0  0
    6.8010    3.6192    0.0000 O   0  0  0  0  0  0  0  0  0  0  0  0
   14.6613    5.0950    0.0000 O   0  0  0  0  0  0  0  0  0  0  0  0
    7.7331   -2.9050    0.0000 C   0  0  1  0  0  0  0  0  0  0  0  0
    7.7331   -3.9050    0.0000 C   0  0  2  0  0  0  0  0  0  0  0  0
    8.5991   -4.4050    0.0000 C   0  0  1  0  0  0  0  0  0  0  0  0
    9.4651   -3.9050    0.0000 C   0  0  2  0  0  0  0  0  0  0  0  0
    9.4651   -2.9050    0.0000 C   0  0  1  0  0  0  0  0  0  0  0  0
   11.1972   -0.9050    0.0000 C   0  0  1  0  0  0  0  0  0  0  0  0
   12.0632   -1.4050    0.0000 C   0  0  2  0  0  0  0  0  0  0  0  0
   12.9292   -0.9050    0.0000 C   0  0  1  0  0  0  0  0  0  0  0  0
    6.8671   -2.4050    0.0000 C   0  0  0  0  0  0  0  0  0  0  0  0
    6.0010   -0.9050    0.0000 C   0  0  2  0  0  0  0  0  0  0  0  0
    6.0010    0.0950    0.0000 C   0  0  1  0  0  0  0  0  0  0  0  0
   12.9292    0.0950    0.0000 C   0  0  2  0  0  0  0  0  0  0  0  0
    5.1350    0.5950    0.0000 C   0  0  2  0  0  0  0  0  0  0  0  0
   10.3312   -1.4050    0.0000 C   0  0  0  0  0  0  0  0  0  0  0  0
    4.2690    0.0950    0.0000 C   0  0  1  0  0  0  0  0  0  0  0  0
    4.2690   -0.9050    0.0000 C   0  0  1  0  0  0  0  0  0  0  0  0
   12.0632    0.5950    0.0000 C   0  0  1  0  0  0  0  0  0  0  0  0
    3.4030   -1.4050    0.0000 C   0  0  0  0  0  0  0  0  0  0  0  0
   11.1972    2.0950    0.0000 C   0  0  0  0  0  0  0  0  0  0  0  0
   11.1972    3.0950    0.0000 C   0  0  0  0  0  0  0  0  0  0  0  0
   10.3312    1.5950    0.0000 C   0  0  0  0  0  0  0  0  0  0  0  0
    9.4651    2.0950    0.0000 C   0  0  0  0  0  0  0  0  0  0  0  0
   12.0632    3.5950    0.0000 C   0  0  0  0  0  0  0  0  0  0  0  0
    9.4651    3.0950    0.0000 C   0  0  0  0  0  0  0  0  0  0  0  0
    8.5712    1.5603    0.0000 C   0  0  0  0  0  0  0  0  0  0  0  0
    8.5712    3.6297    0.0000 C   0  0  0  0  0  0  0  0  0  0  0  0
   12.0632    4.5950    0.0000 C   0  0  0  0  0  0  0  0  0  0  0  0
   12.9292    3.0950    0.0000 C   0  0  0  0  0  0  0  0  0  0  0  0
    7.6651    2.0742    0.0000 C   0  0  0  0  0  0  0  0  0  0  0  0
    7.6651    3.1158    0.0000 C   0  0  0  0  0  0  0  0  0  0  0  0
   12.9292    5.0950    0.0000 C   0  0  0  0  0  0  0  0  0  0  0  0
   13.7953    3.5950    0.0000 C   0  0  0  0  0  0  0  0  0  0  0  0
   13.7953    4.5950    0.0000 C   0  0  0  0  0  0  0  0  0  0  0  0
    7.7331   -2.2850    0.0000 H   0  0  0  0  0  0  0  0  0  0  0  0
    7.1962   -3.5950    0.0000 H   0  0  0  0  0  0  0  0  0  0  0  0
    8.0622   -4.7150    0.0000 H   0  0  0  0  0  0  0  0  0  0  0  0
   10.0021   -3.5950    0.0000 H   0  0  0  0  0  0  0  0  0  0  0  0
    9.4651   -2.2850    0.0000 H   0  0  0  0  0  0  0  0  0  0  0  0
   10.6603   -0.5950    0.0000 H   0  0  0  0  0  0  0  0  0  0  0  0
   12.6002   -1.7150    0.0000 H   0  0  0  0  0  0  0  0  0  0  0  0
   13.4662   -0.5950    0.0000 H   0  0  0  0  0  0  0  0  0  0  0  0
    6.2565   -2.2973    0.0000 H   0  0  0  0  0  0  0  0  0  0  0  0
    6.6550   -2.9876    0.0000 H   0  0  0  0  0  0  0  0  0  0  0  0
    6.5380   -0.5950    0.0000 H   0  0  0  0  0  0  0  0  0  0  0  0
    6.0010    0.7150    0.0000 H   0  0  0  0  0  0  0  0  0  0  0  0
   12.9292    0.7150    0.0000 H   0  0  0  0  0  0  0  0  0  0  0  0
    4.5981    0.9050    0.0000 H   0  0  0  0  0  0  0  0  0  0  0  0
   10.1191   -0.8224    0.0000 H   0  0  0  0  0  0  0  0  0  0  0  0
    9.7206   -1.5127    0.0000 H   0  0  0  0  0  0  0  0  0  0  0  0
    4.8311    0.7150    0.0000 H   0  0  0  0  0  0  0  0  0  0  0  0
    4.2690   -1.5250    0.0000 H   0  0  0  0  0  0  0  0  0  0  0  0
   11.5263    0.9050    0.0000 H   0  0  0  0  0  0  0  0  0  0  0  0
    6.3301   -4.0950    0.0000 H   0  0  0  0  0  0  0  0  0  0  0  0
    3.0044   -1.8800    0.0000 H   0  0  0  0  0  0  0  0  0  0  0  0
    3.8015   -1.8800    0.0000 H   0  0  0  0  0  0  0  0  0  0  0  0
    8.0622   -5.7150    0.0000 H   0  0  0  0  0  0  0  0  0  0  0  0
   10.8681   -4.0950    0.0000 H   0  0  0  0  0  0  0  0  0  0  0  0
   12.6002   -2.7150    0.0000 H   0  0  0  0  0  0  0  0  0  0  0  0
   13.7953   -2.0250    0.0000 H   0  0  0  0  0  0  0  0  0  0  0  0
    6.8671    1.2150    0.0000 H   0  0  0  0  0  0  0  0  0  0  0  0
   14.3322    0.2850    0.0000 H   0  0  0  0  0  0  0  0  0  0  0  0
    4.5981    1.9050    0.0000 H   0  0  0  0  0  0  0  0  0  0  0  0
    3.4030    1.2150    0.0000 H   0  0  0  0  0  0  0  0  0  0  0  0
    2.0000   -1.2150    0.0000 H   0  0  0  0  0  0  0  0  0  0  0  0
    8.5784    4.2496    0.0000 H   0  0  0  0  0  0  0  0  0  0  0  0
   11.5263    4.9050    0.0000 H   0  0  0  0  0  0  0  0  0  0  0  0
   12.9292    2.4750    0.0000 H   0  0  0  0  0  0  0  0  0  0  0  0
    7.1294    1.7621    0.0000 H   0  0  0  0  0  0  0  0  0  0  0  0
   12.9292    5.7150    0.0000 H   0  0  0  0  0  0  0  0  0  0  0  0
   14.3322    3.2850    0.0000 H   0  0  0  0  0  0  0  0  0  0  0  0
    8.0494    0.2442    0.0000 H   0  0  0  0  0  0  0  0  0  0  0  0
    6.2629    3.3112    0.0000 H   0  0  0  0  0  0  0  0  0  0  0  0
   14.6613    5.7150    0.0000 H   0  0  0  0  0  0  0  0  0  0  0  0
  1 22  1  0  0  0  0
  1 26  1  0  0  0  0
  2 35  1  0  0  0  0
  3 27  1  0  0  0  0
  3 38  1  0  0  0  0
  4 30  1  0  0  0  0
  5 31  1  0  0  0  0
  5 37  1  0  0  0  0
  6 74  1  0  0  0  0
  7 77  1  0  0  0  0
  8 78  1  0  0  0  0
  9 79  1  0  0  0  0
 10 80  1  0  0  0  0
 11 40  1  0  0  0  0
 12 81  1  0  0  0  0
 13 82  1  0  0  0  0
 14 83  1  0  0  0  0
 15 84  1  0  0  0  0
 16 39  1  0  0  0  0
 16 85  1  0  0  0  0
 17 41  1  0  0  0  0
 17 45  1  0  0  0  0
 18 42  2  0  0  0  0
 19 46  1  0  0  0  0
 19 92  1  0  0  0  0
 20 51  1  0  0  0  0
 20 93  1  0  0  0  0
 21 54  1  0  0  0  0
 21 94  1  0  0  0  0
 22 23  1  6  0  0  0
 22 30  1  0  0  0  0
 22 55  1  0  0  0  0
 23  6  1  0  0  0  0
 23 24  1  1  0  0  0
 23 56  1  0  0  0  0
 24  7  1  0  0  0  0
 24 25  1  6  0  0  0
 24 57  1  0  0  0  0
 25  8  1  0  0  0  0
 25 26  1  6  0  0  0
 25 58  1  0  0  0  0
 26  2  1  0  0  0  0
 26 59  1  6  0  0  0
 27 28  1  6  0  0  0
 27 35  1  0  0  0  0
 27 60  1  0  0  0  0
 28  9  1  0  0  0  0
 28 29  1  6  0  0  0
 28 61  1  0  0  0  0
 29 10  1  0  0  0  0
 29 33  1  1  0  0  0
 29 62  1  0  0  0  0
 30 63  1  0  0  0  0
 30 64  1  0  0  0  0
 31  4  1  0  0  0  0
 31 32  1  6  0  0  0
 31 65  1  0  0  0  0
 32 12  1  0  0  0  0
 32 34  1  1  0  0  0
 32 66  1  0  0  0  0
 33 13  1  0  0  0  0
 33 38  1  6  0  0  0
 33 67  1  0  0  0  0
 34 14  1  0  0  0  0
 34 36  1  6  0  0  0
 34 68  1  0  0  0  0
 35 69  1  0  0  0  0
 35 70  1  0  0  0  0
 36 15  1  0  0  0  0
 36 37  1  6  0  0  0
 36 71  1  0  0  0  0
 37 39  1  0  0  0  0
 37 72  1  1  0  0  0
 38 11  1  0  0  0  0
 38 73  1  6  0  0  0
 39 75  1  0  0  0  0
 39 76  1  0  0  0  0
 40 41  2  0  0  0  0
 40 42  1  0  0  0  0
 41 44  1  0  0  0  0
 42 43  1  0  0  0  0
 43 45  1  0  0  0  0
 43 46  2  0  0  0  0
 44 48  2  0  0  0  0
 44 49  1  0  0  0  0
 45 47  2  0  0  0  0
 46 50  1  0  0  0  0
 47 51  1  0  0  0  0
 47 86  1  0  0  0  0
 48 52  1  0  0  0  0
 48 87  1  0  0  0  0
 49 53  2  0  0  0  0
 49 88  1  0  0  0  0
 50 51  2  0  0  0  0
 50 89  1  0  0  0  0
 52 54  2  0  0  0  0
 52 90  1  0  0  0  0
 53 54  1  0  0  0  0
 53 91  1  0  0  0  0
M  END
>  <PUBCHEM_COMPOUND_CID>
101958973

>  <PUBCHEM_COMPOUND_CANONICALIZED>
1

>  <PUBCHEM_CACTVS_COMPLEXITY>
1300

>  <PUBCHEM_CACTVS_HBOND_ACCEPTOR>
21

>  <PUBCHEM_CACTVS_HBOND_DONOR>
13

>  <PUBCHEM_CACTVS_ROTATABLE_BOND>
10

>  <PUBCHEM_CACTVS_SUBSKEYS>
AAADcfB8PgAAAAAAAAAAAAAAAAAAAAAAAAA0aJECAAAAAACBQAAAGgAACAAADBSwmAMwDoAABgCIAqBSAAICCAAkIAAIiAFGCMgdNzaGNR6ieWCl4BUPuQfI7KzOIAAACAAIAABAAAAQABAAAAAAAAAAAA==

>  <PUBCHEM_IUPAC_OPENEYE_NAME>
5,7-dihydroxy-2-(4-hydroxyphenyl)-3-[(2S,3R,4S,5S,6R)-3,4,5-trihydroxy-6-[[(2R,3R,4S,5S,6R)-3,4,5-trihydroxy-6-[[(2R,3R,4S,5S,6R)-3,4,5-trihydroxy-6-(hydroxymethyl)tetrahydropyran-2-yl]oxymethyl]tetrahydropyran-2-yl]oxymethyl]tetrahydropyran-2-yl]oxy-chromen-4-one

>  <PUBCHEM_IUPAC_CAS_NAME>
5,7-dihydroxy-2-(4-hydroxyphenyl)-3-[[(2S,3R,4S,5S,6R)-3,4,5-trihydroxy-6-[[(2R,3R,4S,5S,6R)-3,4,5-trihydroxy-6-[[(2R,3R,4S,5S,6R)-3,4,5-trihydroxy-6-(hydroxymethyl)-2-oxanyl]oxymethyl]-2-oxanyl]oxymethyl]-2-oxanyl]oxy]-1-benzopyran-4-one

>  <PUBCHEM_IUPAC_NAME>
5,7-dihydroxy-2-(4-hydroxyphenyl)-3-[(2S,3R,4S,5S,6R)-3,4,5-trihydroxy-6-[[(2R,3R,4S,5S,6R)-3,4,5-trihydroxy-6-[[(2R,3R,4S,5S,6R)-3,4,5-trihydroxy-6-(hydroxymethyl)oxan-2-yl]oxymethyl]oxan-2-yl]oxymethyl]oxan-2-yl]oxychromen-4-one

>  <PUBCHEM_IUPAC_SYSTEMATIC_NAME>
3-[(2S,3R,4S,5S,6R)-6-[[(2R,3R,4S,5S,6R)-6-[[(2R,3R,4S,5S,6R)-6-(hydroxymethyl)-3,4,5-tris(oxidanyl)oxan-2-yl]oxymethyl]-3,4,5-tris(oxidanyl)oxan-2-yl]oxymethyl]-3,4,5-tris(oxidanyl)oxan-2-yl]oxy-2-(4-hydroxyphenyl)-5,7-bis(oxidanyl)chromen-4-one

>  <PUBCHEM_IUPAC_TRADITIONAL_NAME>
5,7-dihydroxy-2-(4-hydroxyphenyl)-3-[(2S,3R,4S,5S,6R)-3,4,5-trihydroxy-6-[[(2R,3R,4S,5S,6R)-3,4,5-trihydroxy-6-[[(2R,3R,4S,5S,6R)-3,4,5-trihydroxy-6-methylol-tetrahydropyran-2-yl]oxymethyl]tetrahydropyran-2-yl]oxymethyl]tetrahydropyran-2-yl]oxy-chromone

>  <PUBCHEM_IUPAC_INCHI>
InChI=1S/C33H40O21/c34-7-15-19(38)23(42)26(45)31(51-15)48-8-16-20(39)24(43)27(46)32(52-16)49-9-17-21(40)25(44)28(47)33(53-17)54-30-22(41)18-13(37)5-12(36)6-14(18)50-29(30)10-1-3-11(35)4-2-10/h1-6,15-17,19-21,23-28,31-40,42-47H,7-9H2/t15-,16-,17-,19-,20-,21-,23+,24+,25+,26-,27-,28-,31-,32-,33+/m1/s1

>  <PUBCHEM_IUPAC_INCHIKEY>
HKMIANQUKLXNMN-GZIDCZEMSA-N

>  <PUBCHEM_XLOGP3_AA>
-3.6

>  <PUBCHEM_EXACT_MASS>
772.206

>  <PUBCHEM_MOLECULAR_FORMULA>
C33H40O21

>  <PUBCHEM_MOLECULAR_WEIGHT>
772.662

>  <PUBCHEM_OPENEYE_CAN_SMILES>
C1=CC(=CC=C1C2=C(C(=O)C3=C(C=C(C=C3O2)O)O)OC4C(C(C(C(O4)COC5C(C(C(C(O5)COC6C(C(C(C(O6)CO)O)O)O)O)O)O)O)O)O)O

>  <PUBCHEM_OPENEYE_ISO_SMILES>
C1=CC(=CC=C1C2=C(C(=O)C3=C(C=C(C=C3O2)O)O)O[C@H]4[C@@H]([C@H]([C@@H]([C@H](O4)CO[C@H]5[C@@H]([C@H]([C@@H]([C@H](O5)CO[C@H]6[C@@H]([C@H]([C@@H]([C@H](O6)CO)O)O)O)O)O)O)O)O)O)O

>  <PUBCHEM_CACTVS_TPSA>
345

>  <PUBCHEM_MONOISOTOPIC_WEIGHT>
772.206

>  <PUBCHEM_TOTAL_CHARGE>
0

>  <PUBCHEM_HEAVY_ATOM_COUNT>
54

>  <PUBCHEM_ATOM_DEF_STEREO_COUNT>
15

>  <PUBCHEM_ATOM_UDEF_STEREO_COUNT>
0

>  <PUBCHEM_BOND_DEF_STEREO_COUNT>
0

>  <PUBCHEM_BOND_UDEF_STEREO_COUNT>
0

>  <PUBCHEM_ISOTOPIC_ATOM_COUNT>
0

>  <PUBCHEM_COMPONENT_COUNT>
1

>  <PUBCHEM_CACTVS_TAUTO_COUNT>
45

>  <PUBCHEM_COORDINATE_TYPE>
1
5
255

>  <PUBCHEM_BONDANNOTATIONS>
29  10  5
38  11  5
32  12  5
33  13  6
34  14  6
36  15  5
17  41  8
17  45  8
26  2  5
22  30  5
27  35  5
37  39  6
31  4  6
40  41  8
40  42  8
42  43  8
43  45  8
43  46  8
44  48  8
44  49  8
45  47  8
46  50  8
47  51  8
48  52  8
49  53  8
50  51  8
52  54  8
53  54  8
23  6  6
24  7  5
25  8  6
28  9  6

$$$$
