10190977
 OpenBabel06101807152D

118121  0  0  0  0  0  0  0  0999 V2000
    7.1962   -0.2500    0.0000 O   0  0  0  0  0  0  0  0  0  0  0  0
    7.1962   -2.2500    0.0000 O   0  0  0  0  0  0  0  0  0  0  0  0
    8.9282    3.7500    0.0000 O   0  0  0  0  0  0  0  0  0  0  0  0
   10.6603    2.7500    0.0000 O   0  0  0  0  0  0  0  0  0  0  0  0
    5.4641   -0.2500    0.0000 O   0  0  0  0  0  0  0  0  0  0  0  0
   12.3923   -3.2500    0.0000 O   0  0  0  0  0  0  0  0  0  0  0  0
    3.7320   -0.2500    0.0000 O   0  0  0  0  0  0  0  0  0  0  0  0
   14.1244   -3.2500    0.0000 O   0  0  0  0  0  0  0  0  0  0  0  0
    2.0000    2.7500    0.0000 O   0  0  0  0  0  0  0  0  0  0  0  0
   15.8564   -0.2500    0.0000 O   0  0  0  0  0  0  0  0  0  0  0  0
    8.0622    1.2500    0.0000 C   0  0  0  0  0  0  0  0  0  0  0  0
    8.9282    0.7500    0.0000 C   0  0  0  0  0  0  0  0  0  0  0  0
    8.9282   -0.2500    0.0000 C   0  0  0  0  0  0  0  0  0  0  0  0
    8.0622    2.2500    0.0000 C   0  0  0  0  0  0  0  0  0  0  0  0
    9.7942   -1.7500    0.0000 C   0  0  0  0  0  0  0  0  0  0  0  0
    7.1962    0.7500    0.0000 C   0  0  0  0  0  0  0  0  0  0  0  0
    8.9282   -2.2500    0.0000 C   0  0  0  0  0  0  0  0  0  0  0  0
    9.7942   -0.7500    0.0000 C   0  0  0  0  0  0  0  0  0  0  0  0
   10.6603   -2.2500    0.0000 C   0  0  0  0  0  0  0  0  0  0  0  0
    8.0622   -0.7500    0.0000 C   0  0  0  0  0  0  0  0  0  0  0  0
    7.1962    2.7500    0.0000 C   0  0  0  0  0  0  0  0  0  0  0  0
    8.0622   -1.7500    0.0000 C   0  0  0  0  0  0  0  0  0  0  0  0
    9.7942    1.2500    0.0000 C   0  0  0  0  0  0  0  0  0  0  0  0
    8.9282   -3.2500    0.0000 C   0  0  0  0  0  0  0  0  0  0  0  0
    8.9282    2.7500    0.0000 C   0  0  0  0  0  0  0  0  0  0  0  0
    6.3301    1.2500    0.0000 C   0  0  0  0  0  0  0  0  0  0  0  0
    9.7942    2.2500    0.0000 C   0  0  0  0  0  0  0  0  0  0  0  0
   11.5263   -1.7500    0.0000 C   0  0  0  0  0  0  0  0  0  0  0  0
    7.1962    3.7500    0.0000 C   0  0  0  0  0  0  0  0  0  0  0  0
    9.7942   -3.7500    0.0000 C   0  0  0  0  0  0  0  0  0  0  0  0
    5.4641    0.7500    0.0000 C   0  0  0  0  0  0  0  0  0  0  0  0
    6.3301    4.2500    0.0000 C   0  0  0  0  0  0  0  0  0  0  0  0
    9.7942   -4.7500    0.0000 C   0  0  0  0  0  0  0  0  0  0  0  0
   12.3923   -2.2500    0.0000 C   0  0  0  0  0  0  0  0  0  0  0  0
    6.3301    5.2500    0.0000 C   0  0  0  0  0  0  0  0  0  0  0  0
   10.6603   -5.2500    0.0000 C   0  0  0  0  0  0  0  0  0  0  0  0
    4.5981    1.2500    0.0000 C   0  0  0  0  0  0  0  0  0  0  0  0
    5.4641    5.7500    0.0000 C   0  0  0  0  0  0  0  0  0  0  0  0
    5.4641    3.7500    0.0000 C   0  0  0  0  0  0  0  0  0  0  0  0
   10.6603   -6.2500    0.0000 C   0  0  0  0  0  0  0  0  0  0  0  0
   13.2583   -1.7500    0.0000 C   0  0  0  0  0  0  0  0  0  0  0  0
    8.9282   -5.2500    0.0000 C   0  0  0  0  0  0  0  0  0  0  0  0
    3.7320    0.7500    0.0000 C   0  0  0  0  0  0  0  0  0  0  0  0
    4.5981    2.2500    0.0000 C   0  0  0  0  0  0  0  0  0  0  0  0
    5.4641    6.7500    0.0000 C   0  0  0  0  0  0  0  0  0  0  0  0
   14.1244   -2.2500    0.0000 C   0  0  0  0  0  0  0  0  0  0  0  0
   11.5263   -6.7500    0.0000 C   0  0  0  0  0  0  0  0  0  0  0  0
   13.2583   -0.7500    0.0000 C   0  0  0  0  0  0  0  0  0  0  0  0
    2.8660    1.2500    0.0000 C   0  0  0  0  0  0  0  0  0  0  0  0
    3.7320    2.7500    0.0000 C   0  0  0  0  0  0  0  0  0  0  0  0
    4.5981    7.2500    0.0000 C   0  0  0  0  0  0  0  0  0  0  0  0
   11.5263   -7.7500    0.0000 C   0  0  0  0  0  0  0  0  0  0  0  0
    2.8660    2.2500    0.0000 C   0  0  0  0  0  0  0  0  0  0  0  0
   14.9904   -1.7500    0.0000 C   0  0  0  0  0  0  0  0  0  0  0  0
   14.1244   -0.2500    0.0000 C   0  0  0  0  0  0  0  0  0  0  0  0
   14.9904   -0.7500    0.0000 C   0  0  0  0  0  0  0  0  0  0  0  0
    4.5981    8.2500    0.0000 C   0  0  0  0  0  0  0  0  0  0  0  0
    3.7320    6.7500    0.0000 C   0  0  0  0  0  0  0  0  0  0  0  0
   12.3923   -8.2500    0.0000 C   0  0  0  0  0  0  0  0  0  0  0  0
   10.6603   -8.2500    0.0000 C   0  0  0  0  0  0  0  0  0  0  0  0
    6.7976    0.2751    0.0000 H   0  0  0  0  0  0  0  0  0  0  0  0
    7.5947    0.2751    0.0000 H   0  0  0  0  0  0  0  0  0  0  0  0
   10.3312   -0.4400    0.0000 H   0  0  0  0  0  0  0  0  0  0  0  0
   10.2617   -2.7250    0.0000 H   0  0  0  0  0  0  0  0  0  0  0  0
   11.0588   -2.7250    0.0000 H   0  0  0  0  0  0  0  0  0  0  0  0
    6.5856    2.8577    0.0000 H   0  0  0  0  0  0  0  0  0  0  0  0
    6.9841    2.1674    0.0000 H   0  0  0  0  0  0  0  0  0  0  0  0
   10.3312    0.9400    0.0000 H   0  0  0  0  0  0  0  0  0  0  0  0
    8.3176   -3.1423    0.0000 H   0  0  0  0  0  0  0  0  0  0  0  0
    8.7162   -3.8326    0.0000 H   0  0  0  0  0  0  0  0  0  0  0  0
    6.7287    1.7250    0.0000 H   0  0  0  0  0  0  0  0  0  0  0  0
    5.9316    1.7250    0.0000 H   0  0  0  0  0  0  0  0  0  0  0  0
   11.9248   -1.2750    0.0000 H   0  0  0  0  0  0  0  0  0  0  0  0
   11.1278   -1.2750    0.0000 H   0  0  0  0  0  0  0  0  0  0  0  0
    7.7331    4.0600    0.0000 H   0  0  0  0  0  0  0  0  0  0  0  0
   10.3312   -3.4400    0.0000 H   0  0  0  0  0  0  0  0  0  0  0  0
    6.9407    5.1423    0.0000 H   0  0  0  0  0  0  0  0  0  0  0  0
    6.5422    5.8326    0.0000 H   0  0  0  0  0  0  0  0  0  0  0  0
   11.2708   -5.3577    0.0000 H   0  0  0  0  0  0  0  0  0  0  0  0
   10.8723   -4.6674    0.0000 H   0  0  0  0  0  0  0  0  0  0  0  0
    6.6592   -0.5600    0.0000 H   0  0  0  0  0  0  0  0  0  0  0  0
    7.1962   -2.8700    0.0000 H   0  0  0  0  0  0  0  0  0  0  0  0
    9.4651    4.0600    0.0000 H   0  0  0  0  0  0  0  0  0  0  0  0
    4.8535    5.8577    0.0000 H   0  0  0  0  0  0  0  0  0  0  0  0
    5.2520    5.1674    0.0000 H   0  0  0  0  0  0  0  0  0  0  0  0
    5.1541    4.2869    0.0000 H   0  0  0  0  0  0  0  0  0  0  0  0
    4.9272    3.4400    0.0000 H   0  0  0  0  0  0  0  0  0  0  0  0
    5.7741    3.2131    0.0000 H   0  0  0  0  0  0  0  0  0  0  0  0
   11.1972    2.4400    0.0000 H   0  0  0  0  0  0  0  0  0  0  0  0
   10.0497   -6.1423    0.0000 H   0  0  0  0  0  0  0  0  0  0  0  0
   10.4482   -6.8326    0.0000 H   0  0  0  0  0  0  0  0  0  0  0  0
    8.6182   -4.7131    0.0000 H   0  0  0  0  0  0  0  0  0  0  0  0
    8.3913   -5.5600    0.0000 H   0  0  0  0  0  0  0  0  0  0  0  0
    9.2382   -5.7869    0.0000 H   0  0  0  0  0  0  0  0  0  0  0  0
    5.1350    2.5600    0.0000 H   0  0  0  0  0  0  0  0  0  0  0  0
    6.0010    7.0600    0.0000 H   0  0  0  0  0  0  0  0  0  0  0  0
   12.0632   -6.4400    0.0000 H   0  0  0  0  0  0  0  0  0  0  0  0
   12.7214   -0.4400    0.0000 H   0  0  0  0  0  0  0  0  0  0  0  0
    2.3291    0.9400    0.0000 H   0  0  0  0  0  0  0  0  0  0  0  0
    3.7320    3.3700    0.0000 H   0  0  0  0  0  0  0  0  0  0  0  0
   15.5273   -2.0600    0.0000 H   0  0  0  0  0  0  0  0  0  0  0  0
   14.1244    0.3700    0.0000 H   0  0  0  0  0  0  0  0  0  0  0  0
    3.1951   -0.5600    0.0000 H   0  0  0  0  0  0  0  0  0  0  0  0
    5.2181    8.2500    0.0000 H   0  0  0  0  0  0  0  0  0  0  0  0
    4.5981    8.8700    0.0000 H   0  0  0  0  0  0  0  0  0  0  0  0
    3.9781    8.2500    0.0000 H   0  0  0  0  0  0  0  0  0  0  0  0
    3.4220    7.2869    0.0000 H   0  0  0  0  0  0  0  0  0  0  0  0
    3.1951    6.4400    0.0000 H   0  0  0  0  0  0  0  0  0  0  0  0
    4.0420    6.2131    0.0000 H   0  0  0  0  0  0  0  0  0  0  0  0
   12.0823   -8.7869    0.0000 H   0  0  0  0  0  0  0  0  0  0  0  0
   12.9292   -8.5600    0.0000 H   0  0  0  0  0  0  0  0  0  0  0  0
   12.7023   -7.7131    0.0000 H   0  0  0  0  0  0  0  0  0  0  0  0
   10.3503   -7.7131    0.0000 H   0  0  0  0  0  0  0  0  0  0  0  0
   10.1233   -8.5600    0.0000 H   0  0  0  0  0  0  0  0  0  0  0  0
   10.9703   -8.7869    0.0000 H   0  0  0  0  0  0  0  0  0  0  0  0
   14.6613   -3.5600    0.0000 H   0  0  0  0  0  0  0  0  0  0  0  0
    2.0000    3.3700    0.0000 H   0  0  0  0  0  0  0  0  0  0  0  0
   16.3933   -0.5600    0.0000 H   0  0  0  0  0  0  0  0  0  0  0  0
  1 20  1  0  0  0  0
  1 81  1  0  0  0  0
  2 22  1  0  0  0  0
  2 82  1  0  0  0  0
  3 25  1  0  0  0  0
  3 83  1  0  0  0  0
  4 27  1  0  0  0  0
  4 89  1  0  0  0  0
  5 31  2  0  0  0  0
  6 34  2  0  0  0  0
  7 43  1  0  0  0  0
  7103  1  0  0  0  0
  8 46  1  0  0  0  0
  8116  1  0  0  0  0
  9 53  1  0  0  0  0
  9117  1  0  0  0  0
 10 56  1  0  0  0  0
 10118  1  0  0  0  0
 11 12  1  0  0  0  0
 11 14  2  0  0  0  0
 11 16  1  0  0  0  0
 12 13  1  0  0  0  0
 12 23  2  0  0  0  0
 13 18  1  0  0  0  0
 13 20  2  0  0  0  0
 14 21  1  0  0  0  0
 14 25  1  0  0  0  0
 15 17  1  0  0  0  0
 15 18  2  0  0  0  0
 15 19  1  0  0  0  0
 16 26  1  0  0  0  0
 16 61  1  0  0  0  0
 16 62  1  0  0  0  0
 17 22  2  0  0  0  0
 17 24  1  0  0  0  0
 18 63  1  0  0  0  0
 19 28  1  0  0  0  0
 19 64  1  0  0  0  0
 19 65  1  0  0  0  0
 20 22  1  0  0  0  0
 21 29  1  0  0  0  0
 21 66  1  0  0  0  0
 21 67  1  0  0  0  0
 23 27  1  0  0  0  0
 23 68  1  0  0  0  0
 24 30  1  0  0  0  0
 24 69  1  0  0  0  0
 24 70  1  0  0  0  0
 25 27  2  0  0  0  0
 26 31  1  0  0  0  0
 26 71  1  0  0  0  0
 26 72  1  0  0  0  0
 28 34  1  0  0  0  0
 28 73  1  0  0  0  0
 28 74  1  0  0  0  0
 29 32  2  0  0  0  0
 29 75  1  0  0  0  0
 30 33  2  0  0  0  0
 30 76  1  0  0  0  0
 31 37  1  0  0  0  0
 32 35  1  0  0  0  0
 32 39  1  0  0  0  0
 33 36  1  0  0  0  0
 33 42  1  0  0  0  0
 34 41  1  0  0  0  0
 35 38  1  0  0  0  0
 35 77  1  0  0  0  0
 35 78  1  0  0  0  0
 36 40  1  0  0  0  0
 36 79  1  0  0  0  0
 36 80  1  0  0  0  0
 37 43  2  0  0  0  0
 37 44  1  0  0  0  0
 38 45  1  0  0  0  0
 38 84  1  0  0  0  0
 38 85  1  0  0  0  0
 39 86  1  0  0  0  0
 39 87  1  0  0  0  0
 39 88  1  0  0  0  0
 40 47  1  0  0  0  0
 40 90  1  0  0  0  0
 40 91  1  0  0  0  0
 41 46  2  0  0  0  0
 41 48  1  0  0  0  0
 42 92  1  0  0  0  0
 42 93  1  0  0  0  0
 42 94  1  0  0  0  0
 43 49  1  0  0  0  0
 44 50  2  0  0  0  0
 44 95  1  0  0  0  0
 45 51  2  0  0  0  0
 45 96  1  0  0  0  0
 46 54  1  0  0  0  0
 47 52  2  0  0  0  0
 47 97  1  0  0  0  0
 48 55  2  0  0  0  0
 48 98  1  0  0  0  0
 49 53  2  0  0  0  0
 49 99  1  0  0  0  0
 50 53  1  0  0  0  0
 50100  1  0  0  0  0
 51 57  1  0  0  0  0
 51 58  1  0  0  0  0
 52 59  1  0  0  0  0
 52 60  1  0  0  0  0
 54 56  2  0  0  0  0
 54101  1  0  0  0  0
 55 56  1  0  0  0  0
 55102  1  0  0  0  0
 57104  1  0  0  0  0
 57105  1  0  0  0  0
 57106  1  0  0  0  0
 58107  1  0  0  0  0
 58108  1  0  0  0  0
 58109  1  0  0  0  0
 59110  1  0  0  0  0
 59111  1  0  0  0  0
 59112  1  0  0  0  0
 60113  1  0  0  0  0
 60114  1  0  0  0  0
 60115  1  0  0  0  0
M  END
>  <PUBCHEM_COMPOUND_CID>
10190977

>  <PUBCHEM_COMPOUND_CANONICALIZED>
1

>  <PUBCHEM_CACTVS_COMPLEXITY>
1490

>  <PUBCHEM_CACTVS_HBOND_ACCEPTOR>
10

>  <PUBCHEM_CACTVS_HBOND_DONOR>
8

>  <PUBCHEM_CACTVS_ROTATABLE_BOND>
19

>  <PUBCHEM_CACTVS_SUBSKEYS>
AAADcfB8PAAAAAAAAAAAAAAAAAAAAAAAAAAwYMGAAAAAAAABVAAAGgAACAAADASAmAAyBoAAAgCIAqBSAAACAAAkIAAIiAEGiMgJJzaCFRKAcUEl4BUJmYeI7PTO4AADCAAYQADAAAYQADCAAAAAAAAAAA==

>  <PUBCHEM_IUPAC_OPENEYE_NAME>
1-(2,4-dihydroxyphenyl)-3-[5-[2-[3-(2,4-dihydroxyphenyl)-3-oxo-propyl]-3-[(2E)-3,7-dimethylocta-2,6-dienyl]-4,5-dihydroxy-phenyl]-2-[(2E)-3,7-dimethylocta-2,6-dienyl]-3,4-dihydroxy-phenyl]propan-1-one

>  <PUBCHEM_IUPAC_CAS_NAME>
1-(2,4-dihydroxyphenyl)-3-[5-[2-[3-(2,4-dihydroxyphenyl)-3-oxopropyl]-3-[(2E)-3,7-dimethylocta-2,6-dienyl]-4,5-dihydroxyphenyl]-2-[(2E)-3,7-dimethylocta-2,6-dienyl]-3,4-dihydroxyphenyl]-1-propanone

>  <PUBCHEM_IUPAC_NAME>
1-(2,4-dihydroxyphenyl)-3-[5-[2-[3-(2,4-dihydroxyphenyl)-3-oxopropyl]-3-[(2E)-3,7-dimethylocta-2,6-dienyl]-4,5-dihydroxyphenyl]-2-[(2E)-3,7-dimethylocta-2,6-dienyl]-3,4-dihydroxyphenyl]propan-1-one

>  <PUBCHEM_IUPAC_SYSTEMATIC_NAME>
1-[2,4-bis(oxidanyl)phenyl]-3-[5-[2-[3-[2,4-bis(oxidanyl)phenyl]-3-oxidanylidene-propyl]-3-[(2E)-3,7-dimethylocta-2,6-dienyl]-4,5-bis(oxidanyl)phenyl]-2-[(2E)-3,7-dimethylocta-2,6-dienyl]-3,4-bis(oxidanyl)phenyl]propan-1-one

>  <PUBCHEM_IUPAC_TRADITIONAL_NAME>
1-(2,4-dihydroxyphenyl)-3-[5-[2-[3-(2,4-dihydroxyphenyl)-3-keto-propyl]-3-[(2E)-3,7-dimethylocta-2,6-dienyl]-4,5-dihydroxy-phenyl]-2-[(2E)-3,7-dimethylocta-2,6-dienyl]-3,4-dihydroxy-phenyl]propan-1-one

>  <PUBCHEM_IUPAC_INCHI>
InChI=1S/C50H58O10/c1-29(2)9-7-11-31(5)13-18-36-33(15-23-43(53)39-20-16-34(51)26-45(39)55)25-42(50(60)49(36)59)41-28-47(57)48(58)38(19-14-32(6)12-8-10-30(3)4)37(41)22-24-44(54)40-21-17-35(52)27-46(40)56/h9-10,13-14,16-17,20-21,25-28,51-52,55-60H,7-8,11-12,15,18-19,22-24H2,1-6H3/b31-13+,32-14+

>  <PUBCHEM_IUPAC_INCHIKEY>
BHDBRCJCCXGBOF-GCFMLEDASA-N

>  <PUBCHEM_XLOGP3_AA>
12.5

>  <PUBCHEM_EXACT_MASS>
818.403

>  <PUBCHEM_MOLECULAR_FORMULA>
C50H58O10

>  <PUBCHEM_MOLECULAR_WEIGHT>
819.004

>  <PUBCHEM_OPENEYE_CAN_SMILES>
CC(=CCCC(=CCC1=C(C=C(C(=C1O)O)C2=CC(=C(C(=C2CCC(=O)C3=C(C=C(C=C3)O)O)CC=C(C)CCC=C(C)C)O)O)CCC(=O)C4=C(C=C(C=C4)O)O)C)C

>  <PUBCHEM_OPENEYE_ISO_SMILES>
CC(=CCC/C(=C/CC1=C(C=C(C(=C1O)O)C2=CC(=C(C(=C2CCC(=O)C3=C(C=C(C=C3)O)O)C/C=C(\C)/CCC=C(C)C)O)O)CCC(=O)C4=C(C=C(C=C4)O)O)/C)C

>  <PUBCHEM_CACTVS_TPSA>
196

>  <PUBCHEM_MONOISOTOPIC_WEIGHT>
818.403

>  <PUBCHEM_TOTAL_CHARGE>
0

>  <PUBCHEM_HEAVY_ATOM_COUNT>
60

>  <PUBCHEM_ATOM_DEF_STEREO_COUNT>
0

>  <PUBCHEM_ATOM_UDEF_STEREO_COUNT>
0

>  <PUBCHEM_BOND_DEF_STEREO_COUNT>
2

>  <PUBCHEM_BOND_UDEF_STEREO_COUNT>
0

>  <PUBCHEM_ISOTOPIC_ATOM_COUNT>
0

>  <PUBCHEM_COMPONENT_COUNT>
1

>  <PUBCHEM_CACTVS_TAUTO_COUNT>
986

>  <PUBCHEM_COORDINATE_TYPE>
1
5
255

>  <PUBCHEM_BONDANNOTATIONS>
11  12  8
11  14  8
12  23  8
13  18  8
13  20  8
14  25  8
15  17  8
15  18  8
17  22  8
20  22  8
23  27  8
25  27  8
37  43  8
37  44  8
41  46  8
41  48  8
43  49  8
44  50  8
46  54  8
48  55  8
49  53  8
50  53  8
54  56  8
55  56  8

$$$$
