101949536
 OpenBabel06101807152D

 52 54  0  0  1  0  0  0  0  0999 V2000
    2.3038   -2.4734    0.0000 O   0  0  0  0  0  0  0  0  0  0  0  0
    4.6658    1.9761    0.0000 O   0  0  0  0  0  0  0  0  0  0  0  0
    8.1898   -0.0585    0.0000 O   0  0  0  0  0  0  0  0  0  0  0  0
    6.4318    3.0139    0.0000 O   0  0  0  0  0  0  0  0  0  0  0  0
    4.6876   -1.0554    0.0000 C   0  0  2  0  0  0  0  0  0  0  0  0
    4.6876   -0.0554    0.0000 C   0  0  2  0  0  0  0  0  0  0  0  0
    3.7937   -1.5901    0.0000 C   0  0  2  0  0  0  0  0  0  0  0  0
    3.7937    0.4793    0.0000 C   0  0  0  0  0  0  0  0  0  0  0  0
    2.8876   -1.0762    0.0000 C   0  0  0  0  0  0  0  0  0  0  0  0
    5.5536   -1.5554    0.0000 C   0  0  0  0  0  0  0  0  0  0  0  0
    2.8876   -0.0346    0.0000 C   0  0  0  0  0  0  0  0  0  0  0  0
    5.5536    0.4446    0.0000 C   0  0  0  0  0  0  0  0  0  0  0  0
    6.4196   -1.0554    0.0000 C   0  0  0  0  0  0  0  0  0  0  0  0
    4.6876    0.9446    0.0000 C   0  0  0  0  0  0  0  0  0  0  0  0
    3.3037   -2.4618    0.0000 C   0  0  0  0  0  0  0  0  0  0  0  0
    4.3036   -2.4502    0.0000 C   0  0  0  0  0  0  0  0  0  0  0  0
    6.4196   -0.0554    0.0000 C   0  0  0  0  0  0  0  0  0  0  0  0
    5.5376    1.4861    0.0000 C   0  0  0  0  0  0  0  0  0  0  0  0
    7.3296    0.4514    0.0000 C   0  0  0  0  0  0  0  0  0  0  0  0
    7.3377    1.4930    0.0000 C   0  0  0  0  0  0  0  0  0  0  0  0
    6.4356    2.0139    0.0000 C   0  0  0  0  0  0  0  0  0  0  0  0
    8.2056    1.9897    0.0000 C   0  0  0  0  0  0  0  0  0  0  0  0
    8.2095    2.9897    0.0000 C   0  0  0  0  0  0  0  0  0  0  0  0
    9.0697    1.4864    0.0000 C   0  0  0  0  0  0  0  0  0  0  0  0
    4.6941   -1.9054    0.0000 H   0  0  0  0  0  0  0  0  0  0  0  0
    4.1982    0.9491    0.0000 H   0  0  0  0  0  0  0  0  0  0  0  0
    3.4000    0.9583    0.0000 H   0  0  0  0  0  0  0  0  0  0  0  0
    2.2767   -0.9701    0.0000 H   0  0  0  0  0  0  0  0  0  0  0  0
    2.6785   -1.6599    0.0000 H   0  0  0  0  0  0  0  0  0  0  0  0
    5.1551   -2.0304    0.0000 H   0  0  0  0  0  0  0  0  0  0  0  0
    5.9521   -2.0304    0.0000 H   0  0  0  0  0  0  0  0  0  0  0  0
    2.6785    0.5491    0.0000 H   0  0  0  0  0  0  0  0  0  0  0  0
    2.2767   -0.1407    0.0000 H   0  0  0  0  0  0  0  0  0  0  0  0
    6.6317   -1.6380    0.0000 H   0  0  0  0  0  0  0  0  0  0  0  0
    7.0302   -0.9477    0.0000 H   0  0  0  0  0  0  0  0  0  0  0  0
    5.3076    0.9446    0.0000 H   0  0  0  0  0  0  0  0  0  0  0  0
    4.6876    1.5646    0.0000 H   0  0  0  0  0  0  0  0  0  0  0  0
    4.0676    0.9446    0.0000 H   0  0  0  0  0  0  0  0  0  0  0  0
    3.2031   -3.0736    0.0000 H   0  0  0  0  0  0  0  0  0  0  0  0
    3.8887   -2.6671    0.0000 H   0  0  0  0  0  0  0  0  0  0  0  0
    3.7703   -2.7664    0.0000 H   0  0  0  0  0  0  0  0  0  0  0  0
    4.6198   -2.9836    0.0000 H   0  0  0  0  0  0  0  0  0  0  0  0
    4.8370   -2.1341    0.0000 H   0  0  0  0  0  0  0  0  0  0  0  0
    2.0000   -3.0139    0.0000 H   0  0  0  0  0  0  0  0  0  0  0  0
    8.7438    2.2976    0.0000 H   0  0  0  0  0  0  0  0  0  0  0  0
    8.1827   -0.6785    0.0000 H   0  0  0  0  0  0  0  0  0  0  0  0
    8.7576    0.9506    0.0000 H   0  0  0  0  0  0  0  0  0  0  0  0
    8.8295    2.9873    0.0000 H   0  0  0  0  0  0  0  0  0  0  0  0
    8.2119    3.6097    0.0000 H   0  0  0  0  0  0  0  0  0  0  0  0
    7.5895    2.9921    0.0000 H   0  0  0  0  0  0  0  0  0  0  0  0
    9.6054    1.1743    0.0000 H   0  0  0  0  0  0  0  0  0  0  0  0
    9.3818    2.0221    0.0000 H   0  0  0  0  0  0  0  0  0  0  0  0
  1 15  1  0  0  0  0
  1 44  1  0  0  0  0
  2 18  2  0  0  0  0
  3 19  1  0  0  0  0
  3 46  1  0  0  0  0
  4 21  2  0  0  0  0
  5  6  1  6  0  0  0
  5 10  1  0  0  0  0
  5 25  1  0  0  0  0
  6  8  1  0  0  0  0
  6 12  1  0  0  0  0
  6 14  1  1  0  0  0
  7  5  1  1  0  0  0
  7  9  1  0  0  0  0
  7 15  1  0  0  0  0
  7 16  1  0  0  0  0
  8 11  1  0  0  0  0
  8 26  1  0  0  0  0
  8 27  1  0  0  0  0
  9 11  1  0  0  0  0
  9 28  1  0  0  0  0
  9 29  1  0  0  0  0
 10 13  1  0  0  0  0
 10 30  1  0  0  0  0
 10 31  1  0  0  0  0
 11 32  1  0  0  0  0
 11 33  1  0  0  0  0
 12 17  2  0  0  0  0
 12 18  1  0  0  0  0
 13 17  1  0  0  0  0
 13 34  1  0  0  0  0
 13 35  1  0  0  0  0
 14 36  1  0  0  0  0
 14 37  1  0  0  0  0
 14 38  1  0  0  0  0
 15 39  1  0  0  0  0
 15 40  1  0  0  0  0
 16 41  1  0  0  0  0
 16 42  1  0  0  0  0
 16 43  1  0  0  0  0
 17 19  1  0  0  0  0
 18 21  1  0  0  0  0
 19 20  2  0  0  0  0
 20 21  1  0  0  0  0
 20 22  1  0  0  0  0
 22 23  1  0  0  0  0
 22 24  1  0  0  0  0
 22 45  1  0  0  0  0
 23 48  1  0  0  0  0
 23 49  1  0  0  0  0
 23 50  1  0  0  0  0
 24 47  1  0  0  0  0
 24 51  1  0  0  0  0
 24 52  1  0  0  0  0
M  END
>  <PUBCHEM_COMPOUND_CID>
101949536

>  <PUBCHEM_COMPOUND_CANONICALIZED>
1

>  <PUBCHEM_CACTVS_COMPLEXITY>
669

>  <PUBCHEM_CACTVS_HBOND_ACCEPTOR>
4

>  <PUBCHEM_CACTVS_HBOND_DONOR>
2

>  <PUBCHEM_CACTVS_ROTATABLE_BOND>
2

>  <PUBCHEM_CACTVS_SUBSKEYS>
AAADceB4OAAAAAAAAAAAAAAAAAAAAAAAAAAwQIAAAAAAAACAAAAAGgAACAAADwSggAICAAAAAgCIAoBQAAAAAAAgIAAACAEAAEgIFBIAAAAAUAAEgAAIkQOIyPCPgAAAAAAAAAAAAAQAACAAAAAAAAAAAA==

>  <PUBCHEM_IUPAC_OPENEYE_NAME>
(4bS,8S,8aR)-1-hydroxy-8-(hydroxymethyl)-2-isopropyl-4b,8-dimethyl-5,6,7,8a,9,10-hexahydrophenanthrene-3,4-dione

>  <PUBCHEM_IUPAC_CAS_NAME>
(4bS,8S,8aR)-1-hydroxy-8-(hydroxymethyl)-4b,8-dimethyl-2-propan-2-yl-5,6,7,8a,9,10-hexahydrophenanthrene-3,4-dione

>  <PUBCHEM_IUPAC_NAME>
(4bS,8S,8aR)-1-hydroxy-8-(hydroxymethyl)-4b,8-dimethyl-2-propan-2-yl-5,6,7,8a,9,10-hexahydrophenanthrene-3,4-dione

>  <PUBCHEM_IUPAC_SYSTEMATIC_NAME>
(4bS,8S,8aR)-8-(hydroxymethyl)-4b,8-dimethyl-1-oxidanyl-2-propan-2-yl-5,6,7,8a,9,10-hexahydrophenanthrene-3,4-dione

>  <PUBCHEM_IUPAC_TRADITIONAL_NAME>
(4bS,8S,8aR)-1-hydroxy-2-isopropyl-4b,8-dimethyl-8-methylol-5,6,7,8a,9,10-hexahydrophenanthrene-3,4-quinone

>  <PUBCHEM_IUPAC_INCHI>
InChI=1S/C20H28O4/c1-11(2)14-16(22)12-6-7-13-19(3,10-21)8-5-9-20(13,4)15(12)18(24)17(14)23/h11,13,21-22H,5-10H2,1-4H3/t13-,19+,20-/m0/s1

>  <PUBCHEM_IUPAC_INCHIKEY>
FFYKQBWABLNSLT-SVIJTADQSA-N

>  <PUBCHEM_XLOGP3_AA>
3

>  <PUBCHEM_EXACT_MASS>
332.199

>  <PUBCHEM_MOLECULAR_FORMULA>
C20H28O4

>  <PUBCHEM_MOLECULAR_WEIGHT>
332.44

>  <PUBCHEM_OPENEYE_CAN_SMILES>
CC(C)C1=C(C2=C(C(=O)C1=O)C3(CCCC(C3CC2)(C)CO)C)O

>  <PUBCHEM_OPENEYE_ISO_SMILES>
CC(C)C1=C(C2=C(C(=O)C1=O)[C@]3(CCC[C@]([C@@H]3CC2)(C)CO)C)O

>  <PUBCHEM_CACTVS_TPSA>
74.6

>  <PUBCHEM_MONOISOTOPIC_WEIGHT>
332.199

>  <PUBCHEM_TOTAL_CHARGE>
0

>  <PUBCHEM_HEAVY_ATOM_COUNT>
24

>  <PUBCHEM_ATOM_DEF_STEREO_COUNT>
3

>  <PUBCHEM_ATOM_UDEF_STEREO_COUNT>
0

>  <PUBCHEM_BOND_DEF_STEREO_COUNT>
0

>  <PUBCHEM_BOND_UDEF_STEREO_COUNT>
0

>  <PUBCHEM_ISOTOPIC_ATOM_COUNT>
0

>  <PUBCHEM_COMPONENT_COUNT>
1

>  <PUBCHEM_CACTVS_TAUTO_COUNT>
62

>  <PUBCHEM_COORDINATE_TYPE>
1
5
255

>  <PUBCHEM_BONDANNOTATIONS>
5  25  6
6  14  5
7  16  6

$$$$
