101930088
 OpenBabel06101807152D

120126  0  0  1  0  0  0  0  0999 V2000
   11.1972    0.5724    0.0000 O   0  0  0  0  0  0  0  0  0  0  0  0
   11.1972   -1.4276    0.0000 O   0  0  0  0  0  0  0  0  0  0  0  0
    9.4651    0.5724    0.0000 O   0  0  0  0  0  0  0  0  0  0  0  0
   10.3312   -2.9276    0.0000 O   0  0  0  0  0  0  0  0  0  0  0  0
   12.0632    3.0724    0.0000 O   0  0  0  0  0  0  0  0  0  0  0  0
    9.4651   -2.4276    0.0000 O   0  0  0  0  0  0  0  0  0  0  0  0
    7.7331   -1.4276    0.0000 O   0  0  0  0  0  0  0  0  0  0  0  0
    9.4651    1.5724    0.0000 O   0  0  0  0  0  0  0  0  0  0  0  0
   12.9292    1.5724    0.0000 O   0  0  0  0  0  0  0  0  0  0  0  0
    9.4651    3.5724    0.0000 O   0  0  0  0  0  0  0  0  0  0  0  0
   12.9292   -2.4276    0.0000 O   0  0  0  0  0  0  0  0  0  0  0  0
   12.9292   -4.4276    0.0000 O   0  0  0  0  0  0  0  0  0  0  0  0
   11.1972   -5.4276    0.0000 O   0  0  0  0  0  0  0  0  0  0  0  0
    7.7331    1.5724    0.0000 O   0  0  0  0  0  0  0  0  0  0  0  0
    8.5991   -3.9276    0.0000 O   0  0  0  0  0  0  0  0  0  0  0  0
   10.3312    5.0724    0.0000 O   0  0  0  0  0  0  0  0  0  0  0  0
   15.5273    2.0724    0.0000 O   0  0  0  0  0  0  0  0  0  0  0  0
   12.9292    3.5724    0.0000 O   0  0  0  0  0  0  0  0  0  0  0  0
    7.7331   -5.4276    0.0000 O   0  0  0  0  0  0  0  0  0  0  0  0
   13.7735    5.1039    0.0000 O   0  0  0  0  0  0  0  0  0  0  0  0
   17.3133    5.1175    0.0000 O   0  0  0  0  0  0  0  0  0  0  0  0
   16.3933   -1.4276    0.0000 O   0  0  0  0  0  0  0  0  0  0  0  0
   14.6613   -2.4276    0.0000 O   0  0  0  0  0  0  0  0  0  0  0  0
    4.2690   -1.4276    0.0000 O   0  0  0  0  0  0  0  0  0  0  0  0
    2.5369   -4.4276    0.0000 O   0  0  0  0  0  0  0  0  0  0  0  0
    2.5369   -2.4276    0.0000 O   0  0  0  0  0  0  0  0  0  0  0  0
   10.3312   -0.9276    0.0000 C   0  0  1  0  0  0  0  0  0  0  0  0
   10.3312    0.0725    0.0000 C   0  0  2  0  0  0  0  0  0  0  0  0
    9.4651   -1.4276    0.0000 C   0  0  2  0  0  0  0  0  0  0  0  0
    8.5991   -0.9276    0.0000 C   0  0  1  0  0  0  0  0  0  0  0  0
   11.1972    1.5724    0.0000 C   0  0  2  0  0  0  0  0  0  0  0  0
    8.5991    0.0725    0.0000 C   0  0  1  0  0  0  0  0  0  0  0  0
   10.3312    2.0724    0.0000 C   0  0  2  0  0  0  0  0  0  0  0  0
   11.1972   -2.4276    0.0000 C   0  0  2  0  0  0  0  0  0  0  0  0
   10.3312    3.0724    0.0000 C   0  0  1  0  0  0  0  0  0  0  0  0
   12.0632   -2.9276    0.0000 C   0  0  1  0  0  0  0  0  0  0  0  0
   12.0632    2.0724    0.0000 C   0  0  1  0  0  0  0  0  0  0  0  0
   12.0632   -3.9276    0.0000 C   0  0  2  0  0  0  0  0  0  0  0  0
   11.1972    3.5724    0.0000 C   0  0  1  0  0  0  0  0  0  0  0  0
   11.1972   -4.4276    0.0000 C   0  0  1  0  0  0  0  0  0  0  0  0
   10.3312   -3.9276    0.0000 C   0  0  1  0  0  0  0  0  0  0  0  0
    7.7331    0.5724    0.0000 C   0  0  0  0  0  0  0  0  0  0  0  0
   11.1972    4.5724    0.0000 C   0  0  0  0  0  0  0  0  0  0  0  0
    9.4651   -4.4276    0.0000 C   0  0  0  0  0  0  0  0  0  0  0  0
   13.7953    2.0724    0.0000 C   0  0  0  0  0  0  0  0  0  0  0  0
   14.6613    1.5724    0.0000 C   0  0  0  0  0  0  0  0  0  0  0  0
   13.7953    3.0724    0.0000 C   0  0  0  0  0  0  0  0  0  0  0  0
    7.7331   -4.4276    0.0000 C   0  0  0  0  0  0  0  0  0  0  0  0
   14.6613    3.5724    0.0000 C   0  0  0  0  0  0  0  0  0  0  0  0
   14.6613    0.5724    0.0000 C   0  0  0  0  0  0  0  0  0  0  0  0
   15.5273    3.0724    0.0000 C   0  0  0  0  0  0  0  0  0  0  0  0
   14.6452    4.6140    0.0000 C   0  0  0  0  0  0  0  0  0  0  0  0
    6.8671   -3.9276    0.0000 C   0  0  0  0  0  0  0  0  0  0  0  0
   16.4373    3.5793    0.0000 C   0  0  0  0  0  0  0  0  0  0  0  0
   15.5273    0.0725    0.0000 C   0  0  0  0  0  0  0  0  0  0  0  0
   13.7953    0.0725    0.0000 C   0  0  0  0  0  0  0  0  0  0  0  0
   15.5433    5.1417    0.0000 C   0  0  0  0  0  0  0  0  0  0  0  0
   16.4453    4.6209    0.0000 C   0  0  0  0  0  0  0  0  0  0  0  0
   15.5273   -0.9276    0.0000 C   0  0  0  0  0  0  0  0  0  0  0  0
   13.7953   -0.9276    0.0000 C   0  0  0  0  0  0  0  0  0  0  0  0
    6.0010   -4.4276    0.0000 C   0  0  0  0  0  0  0  0  0  0  0  0
   14.6613   -1.4276    0.0000 C   0  0  0  0  0  0  0  0  0  0  0  0
    5.1350   -3.9276    0.0000 C   0  0  0  0  0  0  0  0  0  0  0  0
    4.2690   -4.4276    0.0000 C   0  0  0  0  0  0  0  0  0  0  0  0
    5.1350   -2.9276    0.0000 C   0  0  0  0  0  0  0  0  0  0  0  0
    4.2690   -2.4276    0.0000 C   0  0  0  0  0  0  0  0  0  0  0  0
    3.4030   -3.9276    0.0000 C   0  0  0  0  0  0  0  0  0  0  0  0
    3.4030   -2.9276    0.0000 C   0  0  0  0  0  0  0  0  0  0  0  0
    3.4030   -0.9276    0.0000 C   0  0  0  0  0  0  0  0  0  0  0  0
    2.5369   -5.4276    0.0000 C   0  0  0  0  0  0  0  0  0  0  0  0
   10.8681   -0.6176    0.0000 H   0  0  0  0  0  0  0  0  0  0  0  0
   10.3312    0.6924    0.0000 H   0  0  0  0  0  0  0  0  0  0  0  0
   10.0021   -1.7376    0.0000 H   0  0  0  0  0  0  0  0  0  0  0  0
    8.5991   -1.5476    0.0000 H   0  0  0  0  0  0  0  0  0  0  0  0
   10.6603    1.2624    0.0000 H   0  0  0  0  0  0  0  0  0  0  0  0
    8.5991    0.6924    0.0000 H   0  0  0  0  0  0  0  0  0  0  0  0
    9.7942    2.3824    0.0000 H   0  0  0  0  0  0  0  0  0  0  0  0
   10.6603   -2.1176    0.0000 H   0  0  0  0  0  0  0  0  0  0  0  0
   10.3312    3.6924    0.0000 H   0  0  0  0  0  0  0  0  0  0  0  0
   12.6002   -3.2376    0.0000 H   0  0  0  0  0  0  0  0  0  0  0  0
   12.0632    1.4524    0.0000 H   0  0  0  0  0  0  0  0  0  0  0  0
   12.0632   -4.5476    0.0000 H   0  0  0  0  0  0  0  0  0  0  0  0
   11.7341    3.8824    0.0000 H   0  0  0  0  0  0  0  0  0  0  0  0
   10.6603   -4.7376    0.0000 H   0  0  0  0  0  0  0  0  0  0  0  0
    9.7942   -3.6176    0.0000 H   0  0  0  0  0  0  0  0  0  0  0  0
    7.1225    0.6801    0.0000 H   0  0  0  0  0  0  0  0  0  0  0  0
    7.5210   -0.0102    0.0000 H   0  0  0  0  0  0  0  0  0  0  0  0
    8.9282   -2.7376    0.0000 H   0  0  0  0  0  0  0  0  0  0  0  0
   11.8078    4.4648    0.0000 H   0  0  0  0  0  0  0  0  0  0  0  0
   11.4092    5.1551    0.0000 H   0  0  0  0  0  0  0  0  0  0  0  0
    9.0666   -4.9025    0.0000 H   0  0  0  0  0  0  0  0  0  0  0  0
    9.8637   -4.9025    0.0000 H   0  0  0  0  0  0  0  0  0  0  0  0
    7.1962   -1.1176    0.0000 H   0  0  0  0  0  0  0  0  0  0  0  0
    8.9282    1.8824    0.0000 H   0  0  0  0  0  0  0  0  0  0  0  0
    9.4651    4.1924    0.0000 H   0  0  0  0  0  0  0  0  0  0  0  0
   13.4662   -2.7376    0.0000 H   0  0  0  0  0  0  0  0  0  0  0  0
   12.9292   -5.0476    0.0000 H   0  0  0  0  0  0  0  0  0  0  0  0
   10.6603   -5.7376    0.0000 H   0  0  0  0  0  0  0  0  0  0  0  0
    7.1962    1.8824    0.0000 H   0  0  0  0  0  0  0  0  0  0  0  0
   10.3312    5.6924    0.0000 H   0  0  0  0  0  0  0  0  0  0  0  0
    6.8671   -3.3076    0.0000 H   0  0  0  0  0  0  0  0  0  0  0  0
   16.9706    3.2631    0.0000 H   0  0  0  0  0  0  0  0  0  0  0  0
   16.0643    0.3824    0.0000 H   0  0  0  0  0  0  0  0  0  0  0  0
   13.2583    0.3824    0.0000 H   0  0  0  0  0  0  0  0  0  0  0  0
   15.5409    5.7617    0.0000 H   0  0  0  0  0  0  0  0  0  0  0  0
   13.2583   -1.2376    0.0000 H   0  0  0  0  0  0  0  0  0  0  0  0
    6.0010   -5.0476    0.0000 H   0  0  0  0  0  0  0  0  0  0  0  0
   13.7663    5.7239    0.0000 H   0  0  0  0  0  0  0  0  0  0  0  0
   17.3157    5.7376    0.0000 H   0  0  0  0  0  0  0  0  0  0  0  0
   16.9303   -1.1176    0.0000 H   0  0  0  0  0  0  0  0  0  0  0  0
   15.1982   -2.7376    0.0000 H   0  0  0  0  0  0  0  0  0  0  0  0
    4.2690   -5.0476    0.0000 H   0  0  0  0  0  0  0  0  0  0  0  0
    5.6720   -2.6176    0.0000 H   0  0  0  0  0  0  0  0  0  0  0  0
    2.0000   -2.7376    0.0000 H   0  0  0  0  0  0  0  0  0  0  0  0
    3.7130   -0.3906    0.0000 H   0  0  0  0  0  0  0  0  0  0  0  0
    2.8660   -0.6176    0.0000 H   0  0  0  0  0  0  0  0  0  0  0  0
    3.0930   -1.4645    0.0000 H   0  0  0  0  0  0  0  0  0  0  0  0
    1.9169   -5.4276    0.0000 H   0  0  0  0  0  0  0  0  0  0  0  0
    2.5369   -6.0476    0.0000 H   0  0  0  0  0  0  0  0  0  0  0  0
    3.1569   -5.4276    0.0000 H   0  0  0  0  0  0  0  0  0  0  0  0
  3 28  1  0  0  0  0
  3 32  1  0  0  0  0
  4 34  1  0  0  0  0
  4 41  1  0  0  0  0
  5 37  1  0  0  0  0
  5 39  1  0  0  0  0
  6 88  1  0  0  0  0
  7 93  1  0  0  0  0
  8 94  1  0  0  0  0
  9 45  1  0  0  0  0
 10 95  1  0  0  0  0
 11 96  1  0  0  0  0
 12 97  1  0  0  0  0
 13 98  1  0  0  0  0
 14 42  1  0  0  0  0
 14 99  1  0  0  0  0
 15 44  1  0  0  0  0
 15 48  1  0  0  0  0
 16 43  1  0  0  0  0
 16100  1  0  0  0  0
 17 46  1  0  0  0  0
 17 51  1  0  0  0  0
 18 47  2  0  0  0  0
 19 48  2  0  0  0  0
 20 52  1  0  0  0  0
 20108  1  0  0  0  0
 21 58  1  0  0  0  0
 21109  1  0  0  0  0
 22 59  1  0  0  0  0
 22110  1  0  0  0  0
 23 62  1  0  0  0  0
 23111  1  0  0  0  0
 24 66  1  0  0  0  0
 24 69  1  0  0  0  0
 25 67  1  0  0  0  0
 25 70  1  0  0  0  0
 26 68  1  0  0  0  0
 26114  1  0  0  0  0
 27  2  1  0  0  0  0
 27 28  1  6  0  0  0
 27 71  1  0  0  0  0
 28  1  1  0  0  0  0
 28 72  1  6  0  0  0
 29  6  1  0  0  0  0
 29 27  1  1  0  0  0
 29 73  1  0  0  0  0
 30  7  1  0  0  0  0
 30 29  1  6  0  0  0
 30 74  1  0  0  0  0
 31  1  1  0  0  0  0
 31 33  1  6  0  0  0
 31 75  1  0  0  0  0
 32 30  1  6  0  0  0
 32 42  1  0  0  0  0
 32 76  1  0  0  0  0
 33  8  1  0  0  0  0
 33 35  1  1  0  0  0
 33 77  1  0  0  0  0
 34  2  1  0  0  0  0
 34 36  1  6  0  0  0
 34 78  1  0  0  0  0
 35 10  1  0  0  0  0
 35 39  1  6  0  0  0
 35 79  1  0  0  0  0
 36 11  1  0  0  0  0
 36 38  1  6  0  0  0
 36 80  1  0  0  0  0
 37  9  1  0  0  0  0
 37 31  1  1  0  0  0
 37 81  1  0  0  0  0
 38 12  1  0  0  0  0
 38 40  1  1  0  0  0
 38 82  1  0  0  0  0
 39 43  1  0  0  0  0
 39 83  1  6  0  0  0
 40 13  1  0  0  0  0
 40 41  1  6  0  0  0
 40 84  1  0  0  0  0
 41 44  1  0  0  0  0
 41 85  1  6  0  0  0
 42 86  1  0  0  0  0
 42 87  1  0  0  0  0
 43 89  1  0  0  0  0
 43 90  1  0  0  0  0
 44 91  1  0  0  0  0
 44 92  1  0  0  0  0
 45 46  2  0  0  0  0
 45 47  1  0  0  0  0
 46 50  1  0  0  0  0
 47 49  1  0  0  0  0
 48 53  1  0  0  0  0
 49 51  1  0  0  0  0
 49 52  2  0  0  0  0
 50 55  2  0  0  0  0
 50 56  1  0  0  0  0
 51 54  2  0  0  0  0
 52 57  1  0  0  0  0
 53 61  2  0  0  0  0
 53101  1  0  0  0  0
 54 58  1  0  0  0  0
 54102  1  0  0  0  0
 55 59  1  0  0  0  0
 55103  1  0  0  0  0
 56 60  2  0  0  0  0
 56104  1  0  0  0  0
 57 58  2  0  0  0  0
 57105  1  0  0  0  0
 59 62  2  0  0  0  0
 60 62  1  0  0  0  0
 60106  1  0  0  0  0
 61 63  1  0  0  0  0
 61107  1  0  0  0  0
 63 64  2  0  0  0  0
 63 65  1  0  0  0  0
 64 67  1  0  0  0  0
 64112  1  0  0  0  0
 65 66  2  0  0  0  0
 65113  1  0  0  0  0
 66 68  1  0  0  0  0
 67 68  2  0  0  0  0
 69115  1  0  0  0  0
 69116  1  0  0  0  0
 69117  1  0  0  0  0
 70118  1  0  0  0  0
 70119  1  0  0  0  0
 70120  1  0  0  0  0
M  END
>  <PUBCHEM_COMPOUND_CID>
101930088

>  <PUBCHEM_COMPOUND_CANONICALIZED>
1

>  <PUBCHEM_CACTVS_COMPLEXITY>
1790

>  <PUBCHEM_CACTVS_HBOND_ACCEPTOR>
26

>  <PUBCHEM_CACTVS_HBOND_DONOR>
14

>  <PUBCHEM_CACTVS_ROTATABLE_BOND>
16

>  <PUBCHEM_CACTVS_SUBSKEYS>
AAADcfB8PgAAAAAAAAAAAAAAAAAAAAAAAAA0aNECAAAAAACBUAAAGgAACAAADBSwmAMyDoAABgCIAqDSCAICCAAkIAAIiAFGiMgdNzaGNR6ieWOl4BUPuYfI7LzOIAABCAAIQABAAAIQABCAAAAAAAAAAA==

>  <PUBCHEM_IUPAC_OPENEYE_NAME>
[(2R,3S,4S,5R,6S)-6-[(2S,3R,4S,5S,6R)-2-[(2S,3R,4S,5S,6R)-2-[2-(3,4-dihydroxyphenyl)-5,7-dihydroxy-4-oxo-chromen-3-yl]oxy-4,5-dihydroxy-6-(hydroxymethyl)tetrahydropyran-3-yl]oxy-4,5-dihydroxy-6-(hydroxymethyl)tetrahydropyran-3-yl]oxy-3,4,5-trihydroxy-tetrahydropyran-2-yl]methyl (E)-3-(4-hydroxy-3,5-dimethoxy-phenyl)prop-2-enoate

>  <PUBCHEM_IUPAC_CAS_NAME>
(E)-3-(4-hydroxy-3,5-dimethoxyphenyl)-2-propenoic acid [(2R,3S,4S,5R,6S)-6-[[(2S,3R,4S,5S,6R)-2-[[(2S,3R,4S,5S,6R)-2-[[2-(3,4-dihydroxyphenyl)-5,7-dihydroxy-4-oxo-1-benzopyran-3-yl]oxy]-4,5-dihydroxy-6-(hydroxymethyl)-3-oxanyl]oxy]-4,5-dihydroxy-6-(hydroxymethyl)-3-oxanyl]oxy]-3,4,5-trihydroxy-2-oxanyl]methyl ester

>  <PUBCHEM_IUPAC_NAME>
[(2R,3S,4S,5R,6S)-6-[(2S,3R,4S,5S,6R)-2-[(2S,3R,4S,5S,6R)-2-[2-(3,4-dihydroxyphenyl)-5,7-dihydroxy-4-oxochromen-3-yl]oxy-4,5-dihydroxy-6-(hydroxymethyl)oxan-3-yl]oxy-4,5-dihydroxy-6-(hydroxymethyl)oxan-3-yl]oxy-3,4,5-trihydroxyoxan-2-yl]methyl (E)-3-(4-hydroxy-3,5-dimethoxyphenyl)prop-2-enoate

>  <PUBCHEM_IUPAC_SYSTEMATIC_NAME>
[(2R,3S,4S,5R,6S)-6-[(2S,3R,4S,5S,6R)-2-[(2S,3R,4S,5S,6R)-2-[2-[3,4-bis(oxidanyl)phenyl]-5,7-bis(oxidanyl)-4-oxidanylidene-chromen-3-yl]oxy-6-(hydroxymethyl)-4,5-bis(oxidanyl)oxan-3-yl]oxy-6-(hydroxymethyl)-4,5-bis(oxidanyl)oxan-3-yl]oxy-3,4,5-tris(oxidanyl)oxan-2-yl]methyl (E)-3-(3,5-dimethoxy-4-oxidanyl-phenyl)prop-2-enoate

>  <PUBCHEM_IUPAC_TRADITIONAL_NAME>
(E)-3-(4-hydroxy-3,5-dimethoxy-phenyl)acrylic acid [(2R,3S,4S,5R,6S)-6-[(2S,3R,4S,5S,6R)-2-[(2S,3R,4S,5S,6R)-2-[2-(3,4-dihydroxyphenyl)-5,7-dihydroxy-4-keto-chromen-3-yl]oxy-4,5-dihydroxy-6-methylol-tetrahydropyran-3-yl]oxy-4,5-dihydroxy-6-methylol-tetrahydropyran-3-yl]oxy-3,4,5-trihydroxy-tetrahydropyran-2-yl]methyl ester

>  <PUBCHEM_IUPAC_INCHI>
InChI=1S/C44H50O26/c1-61-22-7-15(8-23(62-2)29(22)52)3-6-27(51)63-14-26-32(55)34(57)37(60)42(67-26)69-40-35(58)30(53)25(13-46)66-44(40)70-41-36(59)31(54)24(12-45)65-43(41)68-39-33(56)28-20(50)10-17(47)11-21(28)64-38(39)16-4-5-18(48)19(49)9-16/h3-11,24-26,30-32,34-37,40-50,52-55,57-60H,12-14H2,1-2H3/b6-3+/t24-,25-,26-,30-,31-,32-,34+,35+,36+,37-,40-,41-,42+,43+,44+/m1/s1

>  <PUBCHEM_IUPAC_INCHIKEY>
XGPMZWIBBAEMRZ-LMMWVLHISA-N

>  <PUBCHEM_XLOGP3_AA>
-1.1

>  <PUBCHEM_EXACT_MASS>
994.259

>  <PUBCHEM_MOLECULAR_FORMULA>
C44H50O26

>  <PUBCHEM_MOLECULAR_WEIGHT>
994.858

>  <PUBCHEM_OPENEYE_CAN_SMILES>
COC1=CC(=CC(=C1O)OC)C=CC(=O)OCC2C(C(C(C(O2)OC3C(C(C(OC3OC4C(C(C(OC4OC5=C(OC6=CC(=CC(=C6C5=O)O)O)C7=CC(=C(C=C7)O)O)CO)O)O)CO)O)O)O)O)O

>  <PUBCHEM_OPENEYE_ISO_SMILES>
COC1=CC(=CC(=C1O)OC)/C=C/C(=O)OC[C@@H]2[C@H]([C@@H]([C@H]([C@@H](O2)O[C@@H]3[C@H]([C@@H]([C@H](O[C@H]3O[C@@H]4[C@H]([C@@H]([C@H](O[C@H]4OC5=C(OC6=CC(=CC(=C6C5=O)O)O)C7=CC(=C(C=C7)O)O)CO)O)O)CO)O)O)O)O)O

>  <PUBCHEM_CACTVS_TPSA>
410

>  <PUBCHEM_MONOISOTOPIC_WEIGHT>
994.259

>  <PUBCHEM_TOTAL_CHARGE>
0

>  <PUBCHEM_HEAVY_ATOM_COUNT>
70

>  <PUBCHEM_ATOM_DEF_STEREO_COUNT>
15

>  <PUBCHEM_ATOM_UDEF_STEREO_COUNT>
0

>  <PUBCHEM_BOND_DEF_STEREO_COUNT>
1

>  <PUBCHEM_BOND_UDEF_STEREO_COUNT>
0

>  <PUBCHEM_ISOTOPIC_ATOM_COUNT>
0

>  <PUBCHEM_COMPONENT_COUNT>
1

>  <PUBCHEM_CACTVS_TAUTO_COUNT>
342

>  <PUBCHEM_COORDINATE_TYPE>
1
5
255

>  <PUBCHEM_BONDANNOTATIONS>
28  1  5
31  1  6
35  10  6
36  11  6
38  12  5
40  13  6
17  46  8
17  51  8
27  2  6
34  2  5
32  42  5
39  43  5
41  44  5
45  46  8
45  47  8
47  49  8
49  51  8
49  52  8
50  55  8
50  56  8
51  54  8
52  57  8
54  58  8
55  59  8
56  60  8
57  58  8
59  62  8
29  6  5
60  62  8
63  64  8
63  65  8
64  67  8
65  66  8
66  68  8
67  68  8
30  7  6
33  8  5
37  9  5

$$$$
