102022659
 OpenBabel06101807152D

 77 82  0  0  1  0  0  0  0  0999 V2000
    6.4519   -1.3501    0.0000 O   0  0  0  0  0  0  0  0  0  0  0  0
    8.1840   -1.3501    0.0000 O   0  0  0  0  0  0  0  0  0  0  0  0
    6.4519   -4.3501    0.0000 O   0  0  0  0  0  0  0  0  0  0  0  0
    4.7199   -3.3501    0.0000 O   0  0  0  0  0  0  0  0  0  0  0  0
    8.1840   -3.3501    0.0000 O   0  0  0  0  0  0  0  0  0  0  0  0
    3.8538   -1.8501    0.0000 O   0  0  0  0  0  0  0  0  0  0  0  0
    9.8528    0.7029    0.0000 O   0  3  0  0  0  0  0  0  0  0  0  0
    6.5741    1.8735    0.0000 O   0  0  0  0  0  0  0  0  0  0  0  0
    9.2636    4.1836    0.0000 O   0  0  0  0  0  0  0  0  0  0  0  0
   10.1123   -3.6482    0.0000 O   0  0  0  0  0  0  0  0  0  0  0  0
   12.7660   -1.4216    0.0000 O   0  0  0  0  0  0  0  0  0  0  0  0
   12.0819   -3.3009    0.0000 O   0  0  0  0  0  0  0  0  0  0  0  0
    2.9812    2.0537    0.0000 O   0  0  0  0  0  0  0  0  0  0  0  0
    2.3343    0.1613    0.0000 O   0  0  0  0  0  0  0  0  0  0  0  0
    6.4519   -3.3501    0.0000 C   0  0  1  0  0  0  0  0  0  0  0  0
    5.5859   -2.8501    0.0000 C   0  0  1  0  0  0  0  0  0  0  0  0
    7.3179   -2.8501    0.0000 C   0  0  2  0  0  0  0  0  0  0  0  0
    5.5859   -1.8501    0.0000 C   0  0  1  0  0  0  0  0  0  0  0  0
    7.3179   -1.8501    0.0000 C   0  0  1  0  0  0  0  0  0  0  0  0
    4.7199   -1.3501    0.0000 C   0  0  0  0  0  0  0  0  0  0  0  0
    8.5260   -0.4104    0.0000 C   0  0  0  0  0  0  0  0  0  0  0  0
    7.8832    0.3556    0.0000 C   0  0  0  0  0  0  0  0  0  0  0  0
    9.5108   -0.2368    0.0000 C   0  0  0  0  0  0  0  0  0  0  0  0
    8.2252    1.2953    0.0000 C   0  0  0  0  0  0  0  0  0  0  0  0
    9.2100    1.4690    0.0000 C   0  0  0  0  0  0  0  0  0  0  0  0
    6.9068    0.1822    0.0000 C   0  0  0  0  0  0  0  0  0  0  0  0
    7.5434    2.0828    0.0000 C   0  0  0  0  0  0  0  0  0  0  0  0
   10.1536   -1.0028    0.0000 C   0  0  0  0  0  0  0  0  0  0  0  0
    6.2591    0.9332    0.0000 C   0  0  0  0  0  0  0  0  0  0  0  0
    9.5813    2.4422    0.0000 C   0  0  0  0  0  0  0  0  0  0  0  0
    7.8922    3.0644    0.0000 C   0  0  0  0  0  0  0  0  0  0  0  0
    8.9180    3.2452    0.0000 C   0  0  0  0  0  0  0  0  0  0  0  0
   11.1384   -0.8292    0.0000 C   0  0  0  0  0  0  0  0  0  0  0  0
    9.8116   -1.9425    0.0000 C   0  0  0  0  0  0  0  0  0  0  0  0
    5.2779    0.7402    0.0000 C   0  0  0  0  0  0  0  0  0  0  0  0
   10.4543   -2.7085    0.0000 C   0  0  0  0  0  0  0  0  0  0  0  0
   11.7812   -1.5952    0.0000 C   0  0  0  0  0  0  0  0  0  0  0  0
   11.4392   -2.5349    0.0000 C   0  0  0  0  0  0  0  0  0  0  0  0
    4.6201    1.4934    0.0000 C   0  0  0  0  0  0  0  0  0  0  0  0
    4.9545   -0.2060    0.0000 C   0  0  0  0  0  0  0  0  0  0  0  0
    3.6389    1.3004    0.0000 C   0  0  0  0  0  0  0  0  0  0  0  0
    3.9733   -0.3990    0.0000 C   0  0  0  0  0  0  0  0  0  0  0  0
    3.3155    0.3543    0.0000 C   0  0  0  0  0  0  0  0  0  0  0  0
    9.1275   -3.8219    0.0000 C   0  0  0  0  0  0  0  0  0  0  0  0
   13.1080   -0.4819    0.0000 C   0  0  0  0  0  0  0  0  0  0  0  0
    2.0000    1.8606    0.0000 C   0  0  0  0  0  0  0  0  0  0  0  0
    6.9888   -3.6601    0.0000 H   0  0  0  0  0  0  0  0  0  0  0  0
    5.5859   -3.4701    0.0000 H   0  0  0  0  0  0  0  0  0  0  0  0
    7.8549   -2.5401    0.0000 H   0  0  0  0  0  0  0  0  0  0  0  0
    5.5859   -1.2301    0.0000 H   0  0  0  0  0  0  0  0  0  0  0  0
    7.3179   -1.2301    0.0000 H   0  0  0  0  0  0  0  0  0  0  0  0
    5.1184   -0.8752    0.0000 H   0  0  0  0  0  0  0  0  0  0  0  0
    4.3213   -0.8752    0.0000 H   0  0  0  0  0  0  0  0  0  0  0  0
    5.9150   -4.6601    0.0000 H   0  0  0  0  0  0  0  0  0  0  0  0
    4.7199   -3.9701    0.0000 H   0  0  0  0  0  0  0  0  0  0  0  0
    8.1840   -3.9701    0.0000 H   0  0  0  0  0  0  0  0  0  0  0  0
    3.8538   -2.4701    0.0000 H   0  0  0  0  0  0  0  0  0  0  0  0
    6.6990   -0.4020    0.0000 H   0  0  0  0  0  0  0  0  0  0  0  0
   10.1931    2.5428    0.0000 H   0  0  0  0  0  0  0  0  0  0  0  0
    7.4918    3.5378    0.0000 H   0  0  0  0  0  0  0  0  0  0  0  0
   11.3504   -0.2465    0.0000 H   0  0  0  0  0  0  0  0  0  0  0  0
    9.2010   -2.0502    0.0000 H   0  0  0  0  0  0  0  0  0  0  0  0
    4.8207    2.0801    0.0000 H   0  0  0  0  0  0  0  0  0  0  0  0
    5.3623   -0.6730    0.0000 H   0  0  0  0  0  0  0  0  0  0  0  0
    8.8669    4.6601    0.0000 H   0  0  0  0  0  0  0  0  0  0  0  0
    3.7727   -0.9857    0.0000 H   0  0  0  0  0  0  0  0  0  0  0  0
   11.8699   -3.8836    0.0000 H   0  0  0  0  0  0  0  0  0  0  0  0
    9.0198   -3.2113    0.0000 H   0  0  0  0  0  0  0  0  0  0  0  0
    8.5169   -3.9295    0.0000 H   0  0  0  0  0  0  0  0  0  0  0  0
    9.2352   -4.4325    0.0000 H   0  0  0  0  0  0  0  0  0  0  0  0
   13.6906   -0.6939    0.0000 H   0  0  0  0  0  0  0  0  0  0  0  0
   13.3201    0.1007    0.0000 H   0  0  0  0  0  0  0  0  0  0  0  0
   12.5254   -0.2698    0.0000 H   0  0  0  0  0  0  0  0  0  0  0  0
    2.1338   -0.4254    0.0000 H   0  0  0  0  0  0  0  0  0  0  0  0
    1.8803    2.4690    0.0000 H   0  0  0  0  0  0  0  0  0  0  0  0
    1.3917    1.7410    0.0000 H   0  0  0  0  0  0  0  0  0  0  0  0
    2.1197    1.2523    0.0000 H   0  0  0  0  0  0  0  0  0  0  0  0
  1 18  1  0  0  0  0
  1 19  1  0  0  0  0
  2 21  1  0  0  0  0
  3 54  1  0  0  0  0
  4 55  1  0  0  0  0
  5 56  1  0  0  0  0
  6 20  1  0  0  0  0
  6 57  1  0  0  0  0
  7 23  2  0  0  0  0
  7 25  1  0  0  0  0
  8 27  1  0  0  0  0
  8 29  1  0  0  0  0
  9 32  1  0  0  0  0
  9 65  1  0  0  0  0
 10 36  1  0  0  0  0
 10 44  1  0  0  0  0
 11 37  1  0  0  0  0
 11 45  1  0  0  0  0
 12 38  1  0  0  0  0
 12 67  1  0  0  0  0
 13 41  1  0  0  0  0
 13 46  1  0  0  0  0
 14 43  1  0  0  0  0
 14 74  1  0  0  0  0
 15  3  1  0  0  0  0
 15 16  1  6  0  0  0
 15 47  1  0  0  0  0
 16  4  1  0  0  0  0
 16 18  1  1  0  0  0
 16 48  1  0  0  0  0
 17  5  1  0  0  0  0
 17 15  1  1  0  0  0
 17 49  1  0  0  0  0
 18 20  1  0  0  0  0
 18 50  1  6  0  0  0
 19  2  1  0  0  0  0
 19 17  1  6  0  0  0
 19 51  1  0  0  0  0
 20 52  1  0  0  0  0
 20 53  1  0  0  0  0
 21 22  2  0  0  0  0
 21 23  1  0  0  0  0
 22 24  1  0  0  0  0
 22 26  1  0  0  0  0
 23 28  1  0  0  0  0
 24 25  2  0  0  0  0
 24 27  1  0  0  0  0
 25 30  1  0  0  0  0
 26 29  2  0  0  0  0
 26 58  1  0  0  0  0
 27 31  2  0  0  0  0
 28 33  2  0  0  0  0
 28 34  1  0  0  0  0
 29 35  1  0  0  0  0
 30 32  2  0  0  0  0
 30 59  1  0  0  0  0
 31 32  1  0  0  0  0
 31 60  1  0  0  0  0
 33 37  1  0  0  0  0
 33 61  1  0  0  0  0
 34 36  2  0  0  0  0
 34 62  1  0  0  0  0
 35 39  2  0  0  0  0
 35 40  1  0  0  0  0
 36 38  1  0  0  0  0
 37 38  2  0  0  0  0
 39 41  1  0  0  0  0
 39 63  1  0  0  0  0
 40 42  2  0  0  0  0
 40 64  1  0  0  0  0
 41 43  2  0  0  0  0
 42 43  1  0  0  0  0
 42 66  1  0  0  0  0
 44 68  1  0  0  0  0
 44 69  1  0  0  0  0
 44 70  1  0  0  0  0
 45 71  1  0  0  0  0
 45 72  1  0  0  0  0
 45 73  1  0  0  0  0
 46 75  1  0  0  0  0
 46 76  1  0  0  0  0
 46 77  1  0  0  0  0
M  CHG  1   7   1
M  END
>  <PUBCHEM_COMPOUND_CID>
102022659

>  <PUBCHEM_COMPOUND_CANONICALIZED>
1

>  <PUBCHEM_CACTVS_COMPLEXITY>
1030

>  <PUBCHEM_CACTVS_HBOND_ACCEPTOR>
13

>  <PUBCHEM_CACTVS_HBOND_DONOR>
7

>  <PUBCHEM_CACTVS_ROTATABLE_BOND>
8

>  <PUBCHEM_CACTVS_SUBSKEYS>
AAADceB8PAAAAAAAAAAAAAAAAAAAAAAAAAA0aMECAAAAAACR9AAAGgAACAAADBSwmAMyDsAABkCIAqBSAAICCAAkIAAIiAFGiMgdNzaGNR6ieWOl4BUPuYfK7PzOoAABCAAIQABAAAIQABCAAAAAAAAAAA==

>  <PUBCHEM_IUPAC_INCHI>
InChI=1S/C32H30O14/c1-40-19-6-13(4-5-17(19)35)18-11-16-25-20(43-18)9-15(34)10-21(25)44-30(14-7-22(41-2)26(36)23(8-14)42-3)31(16)46-32-29(39)28(38)27(37)24(12-33)45-32/h4-11,24,27-29,32-33,37-39H,12H2,1-3H3,(H2-,34,35,36)/p+1/t24-,27-,28+,29-,32+/m1/s1

>  <PUBCHEM_IUPAC_INCHIKEY>
QARRSDFIUQJIHX-QPZIMESWSA-O

>  <PUBCHEM_EXACT_MASS>
639.171

>  <PUBCHEM_MOLECULAR_FORMULA>
C32H31O14+

>  <PUBCHEM_MOLECULAR_WEIGHT>
639.586

>  <PUBCHEM_OPENEYE_CAN_SMILES>
COC1=CC(=CC(=C1O)OC)C2=[O+]C3=CC(=CC4=C3C(=C2OC5C(C(C(C(O5)CO)O)O)O)C=C(O4)C6=CC(=C(C=C6)O)OC)O

>  <PUBCHEM_OPENEYE_ISO_SMILES>
COC1=CC(=CC(=C1O)OC)C2=[O+]C3=CC(=CC4=C3C(=C2O[C@H]5[C@@H]([C@H]([C@@H]([C@H](O5)CO)O)O)O)C=C(O4)C6=CC(=C(C=C6)O)OC)O

>  <PUBCHEM_CACTVS_TPSA>
198

>  <PUBCHEM_MONOISOTOPIC_WEIGHT>
639.171

>  <PUBCHEM_TOTAL_CHARGE>
1

>  <PUBCHEM_HEAVY_ATOM_COUNT>
46

>  <PUBCHEM_ATOM_DEF_STEREO_COUNT>
5

>  <PUBCHEM_ATOM_UDEF_STEREO_COUNT>
0

>  <PUBCHEM_BOND_DEF_STEREO_COUNT>
0

>  <PUBCHEM_BOND_UDEF_STEREO_COUNT>
0

>  <PUBCHEM_ISOTOPIC_ATOM_COUNT>
0

>  <PUBCHEM_COMPONENT_COUNT>
1

>  <PUBCHEM_CACTVS_TAUTO_COUNT>
94

>  <PUBCHEM_COORDINATE_TYPE>
1
5
255

>  <PUBCHEM_BONDANNOTATIONS>
18  20  5
19  2  5
21  22  8
21  23  8
22  24  8
24  25  8
24  27  8
25  30  8
27  31  8
28  33  8
28  34  8
15  3  5
30  32  8
31  32  8
33  37  8
34  36  8
35  39  8
35  40  8
36  38  8
37  38  8
39  41  8
16  4  6
40  42  8
41  43  8
42  43  8
17  5  6
7  23  8
7  25  8

$$$$
