102068587
 OpenBabel06101807152D

 56 58  0  0  1  0  0  0  0  0999 V2000
    5.1350   -0.1550    0.0000 O   0  0  0  0  0  0  0  0  0  0  0  0
    6.8671   -0.1550    0.0000 O   0  0  0  0  0  0  0  0  0  0  0  0
    5.1350   -3.1550    0.0000 O   0  0  0  0  0  0  0  0  0  0  0  0
    3.4030   -2.1550    0.0000 O   0  0  0  0  0  0  0  0  0  0  0  0
    6.8671   -2.1550    0.0000 O   0  0  0  0  0  0  0  0  0  0  0  0
    2.5369   -0.6550    0.0000 O   0  0  0  0  0  0  0  0  0  0  0  0
    8.5991    2.8450    0.0000 O   0  0  0  0  0  0  0  0  0  0  0  0
    8.5991   -0.1550    0.0000 O   0  0  0  0  0  0  0  0  0  0  0  0
    5.1350    2.8450    0.0000 O   0  0  0  0  0  0  0  0  0  0  0  0
   13.7953    0.8450    0.0000 O   0  0  0  0  0  0  0  0  0  0  0  0
   13.7953    2.8450    0.0000 O   0  0  0  0  0  0  0  0  0  0  0  0
    5.1350   -2.1550    0.0000 C   0  0  1  0  0  0  0  0  0  0  0  0
    4.2690   -1.6550    0.0000 C   0  0  1  0  0  0  0  0  0  0  0  0
    6.0010   -1.6550    0.0000 C   0  0  2  0  0  0  0  0  0  0  0  0
    4.2690   -0.6550    0.0000 C   0  0  1  0  0  0  0  0  0  0  0  0
    6.0010   -0.6550    0.0000 C   0  0  1  0  0  0  0  0  0  0  0  0
    3.4030   -0.1550    0.0000 C   0  0  0  0  0  0  0  0  0  0  0  0
    6.8671    0.8450    0.0000 C   0  0  0  0  0  0  0  0  0  0  0  0
    7.7331    1.3450    0.0000 C   0  0  0  0  0  0  0  0  0  0  0  0
    6.0010    1.3450    0.0000 C   0  0  0  0  0  0  0  0  0  0  0  0
    8.5991    0.8450    0.0000 C   0  0  0  0  0  0  0  0  0  0  0  0
    9.4651    1.3450    0.0000 C   0  0  0  0  0  0  0  0  0  0  0  0
    7.7331    2.3450    0.0000 C   0  0  0  0  0  0  0  0  0  0  0  0
    6.0010    2.3450    0.0000 C   0  0  0  0  0  0  0  0  0  0  0  0
   10.3312    0.8450    0.0000 C   0  0  0  0  0  0  0  0  0  0  0  0
    6.8671    2.8450    0.0000 C   0  0  0  0  0  0  0  0  0  0  0  0
   11.1972    1.3450    0.0000 C   0  0  0  0  0  0  0  0  0  0  0  0
   12.0632    0.8450    0.0000 C   0  0  0  0  0  0  0  0  0  0  0  0
   11.1972    2.3450    0.0000 C   0  0  0  0  0  0  0  0  0  0  0  0
   12.9292    1.3450    0.0000 C   0  0  0  0  0  0  0  0  0  0  0  0
   12.0632    2.8450    0.0000 C   0  0  0  0  0  0  0  0  0  0  0  0
   12.9292    2.3450    0.0000 C   0  0  0  0  0  0  0  0  0  0  0  0
    5.6720   -2.4650    0.0000 H   0  0  0  0  0  0  0  0  0  0  0  0
    4.2690   -2.2750    0.0000 H   0  0  0  0  0  0  0  0  0  0  0  0
    6.5380   -1.3450    0.0000 H   0  0  0  0  0  0  0  0  0  0  0  0
    4.2690   -0.0350    0.0000 H   0  0  0  0  0  0  0  0  0  0  0  0
    6.0010   -0.0350    0.0000 H   0  0  0  0  0  0  0  0  0  0  0  0
    3.8015    0.3199    0.0000 H   0  0  0  0  0  0  0  0  0  0  0  0
    3.0044    0.3199    0.0000 H   0  0  0  0  0  0  0  0  0  0  0  0
    4.5981   -3.4650    0.0000 H   0  0  0  0  0  0  0  0  0  0  0  0
    3.4030   -2.7750    0.0000 H   0  0  0  0  0  0  0  0  0  0  0  0
    6.8671   -2.7750    0.0000 H   0  0  0  0  0  0  0  0  0  0  0  0
    2.0000   -0.3450    0.0000 H   0  0  0  0  0  0  0  0  0  0  0  0
    5.4641    1.0350    0.0000 H   0  0  0  0  0  0  0  0  0  0  0  0
    9.8637    1.8200    0.0000 H   0  0  0  0  0  0  0  0  0  0  0  0
    9.0666    1.8200    0.0000 H   0  0  0  0  0  0  0  0  0  0  0  0
    9.9326    0.3701    0.0000 H   0  0  0  0  0  0  0  0  0  0  0  0
   10.7297    0.3701    0.0000 H   0  0  0  0  0  0  0  0  0  0  0  0
    6.8671    3.4650    0.0000 H   0  0  0  0  0  0  0  0  0  0  0  0
   12.0632    0.2250    0.0000 H   0  0  0  0  0  0  0  0  0  0  0  0
   10.6603    2.6550    0.0000 H   0  0  0  0  0  0  0  0  0  0  0  0
    8.5991    3.4650    0.0000 H   0  0  0  0  0  0  0  0  0  0  0  0
    5.1350    3.4650    0.0000 H   0  0  0  0  0  0  0  0  0  0  0  0
   12.0632    3.4650    0.0000 H   0  0  0  0  0  0  0  0  0  0  0  0
   13.7953    0.2250    0.0000 H   0  0  0  0  0  0  0  0  0  0  0  0
   13.7953    3.4650    0.0000 H   0  0  0  0  0  0  0  0  0  0  0  0
  1 15  1  0  0  0  0
  1 16  1  0  0  0  0
  2 18  1  0  0  0  0
  3 40  1  0  0  0  0
  4 41  1  0  0  0  0
  5 42  1  0  0  0  0
  6 17  1  0  0  0  0
  6 43  1  0  0  0  0
  7 23  1  0  0  0  0
  7 52  1  0  0  0  0
  8 21  2  0  0  0  0
  9 24  1  0  0  0  0
  9 53  1  0  0  0  0
 10 30  1  0  0  0  0
 10 55  1  0  0  0  0
 11 32  1  0  0  0  0
 11 56  1  0  0  0  0
 12  3  1  0  0  0  0
 12 13  1  6  0  0  0
 12 33  1  0  0  0  0
 13  4  1  0  0  0  0
 13 15  1  1  0  0  0
 13 34  1  0  0  0  0
 14  5  1  0  0  0  0
 14 12  1  1  0  0  0
 14 35  1  0  0  0  0
 15 17  1  0  0  0  0
 15 36  1  6  0  0  0
 16  2  1  0  0  0  0
 16 14  1  6  0  0  0
 16 37  1  0  0  0  0
 17 38  1  0  0  0  0
 17 39  1  0  0  0  0
 18 19  1  0  0  0  0
 18 20  2  0  0  0  0
 19 21  1  0  0  0  0
 19 23  2  0  0  0  0
 20 24  1  0  0  0  0
 20 44  1  0  0  0  0
 21 22  1  0  0  0  0
 22 25  1  0  0  0  0
 22 45  1  0  0  0  0
 22 46  1  0  0  0  0
 23 26  1  0  0  0  0
 24 26  2  0  0  0  0
 25 27  1  0  0  0  0
 25 47  1  0  0  0  0
 25 48  1  0  0  0  0
 26 49  1  0  0  0  0
 27 28  2  0  0  0  0
 27 29  1  0  0  0  0
 28 30  1  0  0  0  0
 28 50  1  0  0  0  0
 29 31  2  0  0  0  0
 29 51  1  0  0  0  0
 30 32  2  0  0  0  0
 31 32  1  0  0  0  0
 31 54  1  0  0  0  0
M  END
>  <PUBCHEM_COMPOUND_CID>
102068587

>  <PUBCHEM_COMPOUND_CANONICALIZED>
1

>  <PUBCHEM_CACTVS_COMPLEXITY>
619

>  <PUBCHEM_CACTVS_HBOND_ACCEPTOR>
11

>  <PUBCHEM_CACTVS_HBOND_DONOR>
8

>  <PUBCHEM_CACTVS_ROTATABLE_BOND>
7

>  <PUBCHEM_CACTVS_SUBSKEYS>
AAADceB4PAAAAAAAAAAAAAAAAAAAAAAAAAA0YIAAAAAAAAABQAAAGgAACAAADBSwmAMwDoAABgCIAqBSAAACCAAkIAAIiAEGiMgdNzaGNRqieWGl4BUPuQfI7PzOIAABCAAIQABAAAIQABCAAAAAAAAAAA==

>  <PUBCHEM_IUPAC_OPENEYE_NAME>
3-(3,4-dihydroxyphenyl)-1-[2,4-dihydroxy-6-[(2S,3R,4S,5S,6R)-3,4,5-trihydroxy-6-(hydroxymethyl)tetrahydropyran-2-yl]oxy-phenyl]propan-1-one

>  <PUBCHEM_IUPAC_CAS_NAME>
3-(3,4-dihydroxyphenyl)-1-[2,4-dihydroxy-6-[[(2S,3R,4S,5S,6R)-3,4,5-trihydroxy-6-(hydroxymethyl)-2-oxanyl]oxy]phenyl]-1-propanone

>  <PUBCHEM_IUPAC_NAME>
3-(3,4-dihydroxyphenyl)-1-[2,4-dihydroxy-6-[(2S,3R,4S,5S,6R)-3,4,5-trihydroxy-6-(hydroxymethyl)oxan-2-yl]oxyphenyl]propan-1-one

>  <PUBCHEM_IUPAC_SYSTEMATIC_NAME>
3-[3,4-bis(oxidanyl)phenyl]-1-[2-[(2S,3R,4S,5S,6R)-6-(hydroxymethyl)-3,4,5-tris(oxidanyl)oxan-2-yl]oxy-4,6-bis(oxidanyl)phenyl]propan-1-one

>  <PUBCHEM_IUPAC_TRADITIONAL_NAME>
3-(3,4-dihydroxyphenyl)-1-[2,4-dihydroxy-6-[(2S,3R,4S,5S,6R)-3,4,5-trihydroxy-6-methylol-tetrahydropyran-2-yl]oxy-phenyl]propan-1-one

>  <PUBCHEM_IUPAC_INCHI>
InChI=1S/C21H24O11/c22-8-16-18(28)19(29)20(30)21(32-16)31-15-7-10(23)6-14(27)17(15)12(25)4-2-9-1-3-11(24)13(26)5-9/h1,3,5-7,16,18-24,26-30H,2,4,8H2/t16-,18-,19+,20-,21-/m1/s1

>  <PUBCHEM_IUPAC_INCHIKEY>
AONTYURQWYQJNQ-QNDFHXLGSA-N

>  <PUBCHEM_XLOGP3_AA>
0.5

>  <PUBCHEM_EXACT_MASS>
452.132

>  <PUBCHEM_MOLECULAR_FORMULA>
C21H24O11

>  <PUBCHEM_MOLECULAR_WEIGHT>
452.412

>  <PUBCHEM_OPENEYE_CAN_SMILES>
C1=CC(=C(C=C1CCC(=O)C2=C(C=C(C=C2OC3C(C(C(C(O3)CO)O)O)O)O)O)O)O

>  <PUBCHEM_OPENEYE_ISO_SMILES>
C1=CC(=C(C=C1CCC(=O)C2=C(C=C(C=C2O[C@H]3[C@@H]([C@H]([C@@H]([C@H](O3)CO)O)O)O)O)O)O)O

>  <PUBCHEM_CACTVS_TPSA>
197

>  <PUBCHEM_MONOISOTOPIC_WEIGHT>
452.132

>  <PUBCHEM_TOTAL_CHARGE>
0

>  <PUBCHEM_HEAVY_ATOM_COUNT>
32

>  <PUBCHEM_ATOM_DEF_STEREO_COUNT>
5

>  <PUBCHEM_ATOM_UDEF_STEREO_COUNT>
0

>  <PUBCHEM_BOND_DEF_STEREO_COUNT>
0

>  <PUBCHEM_BOND_UDEF_STEREO_COUNT>
0

>  <PUBCHEM_ISOTOPIC_ATOM_COUNT>
0

>  <PUBCHEM_COMPONENT_COUNT>
1

>  <PUBCHEM_CACTVS_TAUTO_COUNT>
357

>  <PUBCHEM_COORDINATE_TYPE>
1
5
255

>  <PUBCHEM_BONDANNOTATIONS>
15  17  5
18  19  8
18  20  8
19  23  8
16  2  5
20  24  8
23  26  8
24  26  8
27  28  8
27  29  8
28  30  8
29  31  8
12  3  5
30  32  8
31  32  8
13  4  6
14  5  6

$$$$
