102165794
 OpenBabel06101807152D

 69 73  0  0  1  0  0  0  0  0999 V2000
   11.1972   -1.1296    0.0000 O   0  0  0  0  0  0  0  0  0  0  0  0
   12.9292   -1.1296    0.0000 O   0  0  0  0  0  0  0  0  0  0  0  0
    9.4651   -3.1296    0.0000 O   0  0  0  0  0  0  0  0  0  0  0  0
   11.1972   -4.1296    0.0000 O   0  0  0  0  0  0  0  0  0  0  0  0
   12.9292   -3.1296    0.0000 O   0  0  0  0  0  0  0  0  0  0  0  0
    8.5991   -1.6296    0.0000 O   0  0  0  0  0  0  0  0  0  0  0  0
   13.7953    1.3704    0.0000 O   0  0  0  0  0  0  0  0  0  0  0  0
    7.7331   -0.1296    0.0000 O   0  3  0  0  0  0  0  0  0  0  0  0
   10.2930    1.3672    0.0000 O   0  0  0  0  0  0  0  0  0  0  0  0
   12.0511    4.4396    0.0000 O   0  0  0  0  0  0  0  0  0  0  0  0
   17.2594   -1.6296    0.0000 O   0  0  0  0  0  0  0  0  0  0  0  0
    2.5369   -3.1296    0.0000 O   0  0  0  0  0  0  0  0  0  0  0  0
   10.3312   -2.6296    0.0000 C   0  0  1  0  0  0  0  0  0  0  0  0
   11.1972   -3.1296    0.0000 C   0  0  1  0  0  0  0  0  0  0  0  0
   10.3312   -1.6296    0.0000 C   0  0  1  0  0  0  0  0  0  0  0  0
   12.0632   -2.6296    0.0000 C   0  0  2  0  0  0  0  0  0  0  0  0
   12.0632   -1.6296    0.0000 C   0  0  1  0  0  0  0  0  0  0  0  0
    9.4651   -1.1296    0.0000 C   0  0  0  0  0  0  0  0  0  0  0  0
   12.9292   -0.1296    0.0000 C   0  0  0  0  0  0  0  0  0  0  0  0
   13.7953    0.3704    0.0000 C   0  0  0  0  0  0  0  0  0  0  0  0
   12.0632    0.3704    0.0000 C   0  0  0  0  0  0  0  0  0  0  0  0
   12.0632    1.3704    0.0000 C   0  0  0  0  0  0  0  0  0  0  0  0
    7.7331   -1.1296    0.0000 C   0  0  0  0  0  0  0  0  0  0  0  0
   12.9292    1.8704    0.0000 C   0  0  0  0  0  0  0  0  0  0  0  0
   14.6613   -0.1296    0.0000 C   0  0  0  0  0  0  0  0  0  0  0  0
   11.1532    1.8772    0.0000 C   0  0  0  0  0  0  0  0  0  0  0  0
   12.9453    2.9119    0.0000 C   0  0  0  0  0  0  0  0  0  0  0  0
    6.8671   -1.6296    0.0000 C   0  0  0  0  0  0  0  0  0  0  0  0
   14.6613   -1.1296    0.0000 C   0  0  0  0  0  0  0  0  0  0  0  0
   15.5273    0.3704    0.0000 C   0  0  0  0  0  0  0  0  0  0  0  0
   11.1452    2.9188    0.0000 C   0  0  0  0  0  0  0  0  0  0  0  0
   12.0473    3.4396    0.0000 C   0  0  0  0  0  0  0  0  0  0  0  0
   15.5273   -1.6296    0.0000 C   0  0  0  0  0  0  0  0  0  0  0  0
   16.3933   -0.1296    0.0000 C   0  0  0  0  0  0  0  0  0  0  0  0
    6.0010   -1.1296    0.0000 C   0  0  0  0  0  0  0  0  0  0  0  0
   16.3933   -1.1296    0.0000 C   0  0  0  0  0  0  0  0  0  0  0  0
    5.1350   -1.6296    0.0000 C   0  0  0  0  0  0  0  0  0  0  0  0
    4.2690   -1.1296    0.0000 C   0  0  0  0  0  0  0  0  0  0  0  0
    5.1350   -2.6296    0.0000 C   0  0  0  0  0  0  0  0  0  0  0  0
    3.4030   -1.6296    0.0000 C   0  0  0  0  0  0  0  0  0  0  0  0
    4.2690   -3.1296    0.0000 C   0  0  0  0  0  0  0  0  0  0  0  0
    3.4030   -2.6296    0.0000 C   0  0  0  0  0  0  0  0  0  0  0  0
    9.7942   -2.3196    0.0000 H   0  0  0  0  0  0  0  0  0  0  0  0
   11.7341   -3.4396    0.0000 H   0  0  0  0  0  0  0  0  0  0  0  0
   10.3312   -1.0096    0.0000 H   0  0  0  0  0  0  0  0  0  0  0  0
   12.6002   -2.3196    0.0000 H   0  0  0  0  0  0  0  0  0  0  0  0
   12.0632   -1.0096    0.0000 H   0  0  0  0  0  0  0  0  0  0  0  0
    9.8637   -0.6547    0.0000 H   0  0  0  0  0  0  0  0  0  0  0  0
    9.0666   -0.6547    0.0000 H   0  0  0  0  0  0  0  0  0  0  0  0
    9.4651   -3.7496    0.0000 H   0  0  0  0  0  0  0  0  0  0  0  0
   10.6603   -4.4396    0.0000 H   0  0  0  0  0  0  0  0  0  0  0  0
   12.9292   -3.7496    0.0000 H   0  0  0  0  0  0  0  0  0  0  0  0
   11.5263    0.0604    0.0000 H   0  0  0  0  0  0  0  0  0  0  0  0
   13.4858    3.2156    0.0000 H   0  0  0  0  0  0  0  0  0  0  0  0
    6.8671   -2.2496    0.0000 H   0  0  0  0  0  0  0  0  0  0  0  0
   14.1244   -1.4396    0.0000 H   0  0  0  0  0  0  0  0  0  0  0  0
   15.5273    0.9904    0.0000 H   0  0  0  0  0  0  0  0  0  0  0  0
   10.6071    3.2268    0.0000 H   0  0  0  0  0  0  0  0  0  0  0  0
    7.1962    0.1804    0.0000 H   0  0  0  0  0  0  0  0  0  0  0  0
   15.5273   -2.2496    0.0000 H   0  0  0  0  0  0  0  0  0  0  0  0
   16.9303    0.1804    0.0000 H   0  0  0  0  0  0  0  0  0  0  0  0
    6.0010   -0.5096    0.0000 H   0  0  0  0  0  0  0  0  0  0  0  0
    9.7525    1.6710    0.0000 H   0  0  0  0  0  0  0  0  0  0  0  0
    4.2690   -0.5096    0.0000 H   0  0  0  0  0  0  0  0  0  0  0  0
    5.6720   -2.9396    0.0000 H   0  0  0  0  0  0  0  0  0  0  0  0
   17.7963   -1.3196    0.0000 H   0  0  0  0  0  0  0  0  0  0  0  0
    2.8660   -1.3196    0.0000 H   0  0  0  0  0  0  0  0  0  0  0  0
    4.2690   -3.7496    0.0000 H   0  0  0  0  0  0  0  0  0  0  0  0
    2.0000   -2.8196    0.0000 H   0  0  0  0  0  0  0  0  0  0  0  0
  1 15  1  0  0  0  0
  1 17  1  0  0  0  0
  2 19  1  0  0  0  0
  3 50  1  0  0  0  0
  4 51  1  0  0  0  0
  5 52  1  0  0  0  0
  6 18  1  0  0  0  0
  6 23  1  0  0  0  0
  7 20  1  0  0  0  0
  7 24  1  0  0  0  0
  8 23  2  0  0  0  0
  8 59  1  0  0  0  0
  9 26  1  0  0  0  0
  9 63  1  0  0  0  0
 10 32  2  0  0  0  0
 11 36  1  0  0  0  0
 11 66  1  0  0  0  0
 12 42  1  0  0  0  0
 12 69  1  0  0  0  0
 13  3  1  0  0  0  0
 13 14  1  1  0  0  0
 13 43  1  0  0  0  0
 14  4  1  0  0  0  0
 14 16  1  1  0  0  0
 14 44  1  0  0  0  0
 15 13  1  6  0  0  0
 15 18  1  0  0  0  0
 15 45  1  0  0  0  0
 16  5  1  0  0  0  0
 16 17  1  6  0  0  0
 16 46  1  0  0  0  0
 17  2  1  0  0  0  0
 17 47  1  6  0  0  0
 18 48  1  0  0  0  0
 18 49  1  0  0  0  0
 19 20  2  0  0  0  0
 19 21  1  0  0  0  0
 20 25  1  0  0  0  0
 21 22  2  0  0  0  0
 21 53  1  0  0  0  0
 22 24  1  0  0  0  0
 22 26  1  0  0  0  0
 23 28  1  0  0  0  0
 24 27  2  0  0  0  0
 25 29  2  0  0  0  0
 25 30  1  0  0  0  0
 26 31  2  0  0  0  0
 27 32  1  0  0  0  0
 27 54  1  0  0  0  0
 28 35  2  3  0  0  0
 28 55  1  0  0  0  0
 29 33  1  0  0  0  0
 29 56  1  0  0  0  0
 30 34  2  0  0  0  0
 30 57  1  0  0  0  0
 31 32  1  0  0  0  0
 31 58  1  0  0  0  0
 33 36  2  0  0  0  0
 33 60  1  0  0  0  0
 34 36  1  0  0  0  0
 34 61  1  0  0  0  0
 35 37  1  0  0  0  0
 35 62  1  0  0  0  0
 37 38  2  0  0  0  0
 37 39  1  0  0  0  0
 38 40  1  0  0  0  0
 38 64  1  0  0  0  0
 39 41  2  0  0  0  0
 39 65  1  0  0  0  0
 40 42  2  0  0  0  0
 40 67  1  0  0  0  0
 41 42  1  0  0  0  0
 41 68  1  0  0  0  0
M  CHG  1   8   1
M  END
>  <PUBCHEM_COMPOUND_CID>
102165794

>  <PUBCHEM_COMPOUND_CANONICALIZED>
1

>  <PUBCHEM_CACTVS_COMPLEXITY>
1180

>  <PUBCHEM_CACTVS_HBOND_ACCEPTOR>
11

>  <PUBCHEM_CACTVS_HBOND_DONOR>
7

>  <PUBCHEM_CACTVS_ROTATABLE_BOND>
8

>  <PUBCHEM_CACTVS_SUBSKEYS>
AAADceB4PAAAAAAAAAAAAAAAAAAAAAAAAAA0YIECAAAAAACBQAAAGgAACAAADBSwmAMwDoAABgCIAqDSCAACCAAgIAAIiAAGCMgZNiKCMRqicAAlwBEPuYfA4CwOIAAAAAAAAABAAAAAAAAAAAAAAAAAAA==

>  <PUBCHEM_IUPAC_OPENEYE_NAME>
[3-(4-hydroxyphenyl)-1-[[(2R,3S,4S,5R,6S)-3,4,5-trihydroxy-6-[5-hydroxy-2-(4-hydroxyphenyl)-7-oxo-chromen-3-yl]oxy-tetrahydropyran-2-yl]methoxy]prop-2-enylidene]oxonium

>  <PUBCHEM_IUPAC_CAS_NAME>
[3-(4-hydroxyphenyl)-1-[[(2R,3S,4S,5R,6S)-3,4,5-trihydroxy-6-[[5-hydroxy-2-(4-hydroxyphenyl)-7-oxo-1-benzopyran-3-yl]oxy]-2-oxanyl]methoxy]prop-2-enylidene]oxonium

>  <PUBCHEM_IUPAC_NAME>
[3-(4-hydroxyphenyl)-1-[[(2R,3S,4S,5R,6S)-3,4,5-trihydroxy-6-[5-hydroxy-2-(4-hydroxyphenyl)-7-oxochromen-3-yl]oxyoxan-2-yl]methoxy]prop-2-enylidene]oxidanium

>  <PUBCHEM_IUPAC_SYSTEMATIC_NAME>
[3-(4-hydroxyphenyl)-1-[[(2R,3S,4S,5R,6S)-6-[2-(4-hydroxyphenyl)-5-oxidanyl-7-oxidanylidene-chromen-3-yl]oxy-3,4,5-tris(oxidanyl)oxan-2-yl]methoxy]prop-2-enylidene]oxidanium

>  <PUBCHEM_IUPAC_TRADITIONAL_NAME>
[3-(4-hydroxyphenyl)-1-[[(2R,3S,4S,5R,6S)-3,4,5-trihydroxy-6-[5-hydroxy-2-(4-hydroxyphenyl)-7-keto-chromen-3-yl]oxy-tetrahydropyran-2-yl]methoxy]prop-2-enylidene]oxonium

>  <PUBCHEM_IUPAC_INCHI>
InChI=1S/C30H26O12/c31-17-6-1-15(2-7-17)3-10-25(35)39-14-24-26(36)27(37)28(38)30(42-24)41-23-13-20-21(34)11-19(33)12-22(20)40-29(23)16-4-8-18(32)9-5-16/h1-13,24,26-28,30-32,34,36-38H,14H2/p+1/t24-,26-,27+,28-,30-/m1/s1

>  <PUBCHEM_IUPAC_INCHIKEY>
CKTUEGXAYUQFCF-SHPGVJHPSA-O

>  <PUBCHEM_XLOGP3_AA>
0.9

>  <PUBCHEM_EXACT_MASS>
579.15

>  <PUBCHEM_MOLECULAR_FORMULA>
C30H27O12+

>  <PUBCHEM_MOLECULAR_WEIGHT>
579.534

>  <PUBCHEM_OPENEYE_CAN_SMILES>
C1=CC(=CC=C1C=CC(=[OH+])OCC2C(C(C(C(O2)OC3=C(OC4=CC(=O)C=C(C4=C3)O)C5=CC=C(C=C5)O)O)O)O)O

>  <PUBCHEM_OPENEYE_ISO_SMILES>
C1=CC(=CC=C1C=CC(=[OH+])OC[C@@H]2[C@H]([C@@H]([C@H]([C@@H](O2)OC3=C(OC4=CC(=O)C=C(C4=C3)O)C5=CC=C(C=C5)O)O)O)O)O

>  <PUBCHEM_CACTVS_TPSA>
176

>  <PUBCHEM_MONOISOTOPIC_WEIGHT>
579.15

>  <PUBCHEM_TOTAL_CHARGE>
1

>  <PUBCHEM_HEAVY_ATOM_COUNT>
42

>  <PUBCHEM_ATOM_DEF_STEREO_COUNT>
5

>  <PUBCHEM_ATOM_UDEF_STEREO_COUNT>
0

>  <PUBCHEM_BOND_DEF_STEREO_COUNT>
0

>  <PUBCHEM_BOND_UDEF_STEREO_COUNT>
1

>  <PUBCHEM_ISOTOPIC_ATOM_COUNT>
0

>  <PUBCHEM_COMPONENT_COUNT>
1

>  <PUBCHEM_CACTVS_TAUTO_COUNT>
72

>  <PUBCHEM_COORDINATE_TYPE>
1
5
255

>  <PUBCHEM_BONDANNOTATIONS>
15  18  5
19  20  8
19  21  8
17  2  5
21  22  8
22  26  8
24  27  8
25  29  8
25  30  8
26  31  8
27  32  8
28  35  1
29  33  8
13  3  6
30  34  8
31  32  8
33  36  8
34  36  8
37  38  8
37  39  8
38  40  8
39  41  8
14  4  5
40  42  8
41  42  8
16  5  6
7  20  8
7  24  8

$$$$
