102150983
 OpenBabel06101807152D

103105  0  0  1  0  0  0  0  0999 V2000
    5.4646   -4.6208    0.0000 O   0  0  0  0  0  0  0  0  0  0  0  0
    2.0000   -5.6208    0.0000 O   0  0  0  0  0  0  0  0  0  0  0  0
   17.9244    4.6583    0.0000 O   0  0  0  0  0  0  0  0  0  0  0  0
   19.6806    2.5654    0.0000 O   0  0  0  0  0  0  0  0  0  0  0  0
   21.8185    4.8372    0.0000 O   0  0  0  0  0  0  0  0  0  0  0  0
    4.5981   -4.1208    0.0000 C   0  0  2  0  0  0  0  0  0  0  0  0
    4.5981   -5.1208    0.0000 C   0  0  1  0  0  0  0  0  0  0  0  0
    3.7320   -3.6208    0.0000 C   0  0  0  0  0  0  0  0  0  0  0  0
    3.7320   -5.6208    0.0000 C   0  0  0  0  0  0  0  0  0  0  0  0
    2.8660   -4.1208    0.0000 C   0  0  0  0  0  0  0  0  0  0  0  0
    2.8660   -5.1208    0.0000 C   0  0  2  0  0  0  0  0  0  0  0  0
    4.5981   -6.1208    0.0000 C   0  0  0  0  0  0  0  0  0  0  0  0
    5.0981   -3.2547    0.0000 C   0  0  0  0  0  0  0  0  0  0  0  0
    2.8660   -3.1208    0.0000 C   0  0  0  0  0  0  0  0  0  0  0  0
    3.7320   -2.6208    0.0000 C   0  0  0  0  0  0  0  0  0  0  0  0
    6.0981   -3.2547    0.0000 C   0  0  0  0  0  0  0  0  0  0  0  0
    6.5981   -2.3887    0.0000 C   0  0  0  0  0  0  0  0  0  0  0  0
   19.2061    5.2560    0.0000 C   0  0  0  0  0  0  0  0  0  0  0  0
   18.8641    4.3163    0.0000 C   0  0  2  0  0  0  0  0  0  0  0  0
   19.5069    3.5502    0.0000 C   0  0  1  0  0  0  0  0  0  0  0  0
   20.1909    5.4296    0.0000 C   0  0  0  0  0  0  0  0  0  0  0  0
   20.4917    3.7239    0.0000 C   0  0  0  0  0  0  0  0  0  0  0  0
   20.8337    4.6636    0.0000 C   0  0  1  0  0  0  0  0  0  0  0  0
    6.0981   -1.5227    0.0000 C   0  0  0  0  0  0  0  0  0  0  0  0
   19.0325    6.2408    0.0000 C   0  0  0  0  0  0  0  0  0  0  0  0
   18.4401    5.8987    0.0000 C   0  0  0  0  0  0  0  0  0  0  0  0
    7.5981   -2.3887    0.0000 C   0  0  0  0  0  0  0  0  0  0  0  0
   19.0069    2.6842    0.0000 C   0  0  0  0  0  0  0  0  0  0  0  0
   18.0981    3.6735    0.0000 C   0  0  0  0  0  0  0  0  0  0  0  0
    8.0981   -1.5227    0.0000 C   0  0  0  0  0  0  0  0  0  0  0  0
   17.0981    3.6735    0.0000 C   0  0  0  0  0  0  0  0  0  0  0  0
   16.5981    2.8074    0.0000 C   0  0  0  0  0  0  0  0  0  0  0  0
    9.0981   -1.5227    0.0000 C   0  0  0  0  0  0  0  0  0  0  0  0
   17.0981    1.9414    0.0000 C   0  0  0  0  0  0  0  0  0  0  0  0
   15.5981    2.8074    0.0000 C   0  0  0  0  0  0  0  0  0  0  0  0
    9.5981   -0.6567    0.0000 C   0  0  0  0  0  0  0  0  0  0  0  0
   15.0981    1.9414    0.0000 C   0  0  0  0  0  0  0  0  0  0  0  0
    9.0981    0.2094    0.0000 C   0  0  0  0  0  0  0  0  0  0  0  0
   10.5981   -0.6567    0.0000 C   0  0  0  0  0  0  0  0  0  0  0  0
   14.0981    1.9414    0.0000 C   0  0  0  0  0  0  0  0  0  0  0  0
   11.0981    0.2094    0.0000 C   0  0  0  0  0  0  0  0  0  0  0  0
   13.5981    1.0754    0.0000 C   0  0  0  0  0  0  0  0  0  0  0  0
   12.0981    0.2094    0.0000 C   0  0  0  0  0  0  0  0  0  0  0  0
   12.5981    1.0754    0.0000 C   0  0  0  0  0  0  0  0  0  0  0  0
   14.0981    0.2094    0.0000 C   0  0  0  0  0  0  0  0  0  0  0  0
    3.3335   -6.0957    0.0000 H   0  0  0  0  0  0  0  0  0  0  0  0
    4.1306   -6.0957    0.0000 H   0  0  0  0  0  0  0  0  0  0  0  0
    2.6540   -3.5382    0.0000 H   0  0  0  0  0  0  0  0  0  0  0  0
    2.2554   -4.2284    0.0000 H   0  0  0  0  0  0  0  0  0  0  0  0
    2.8660   -5.7408    0.0000 H   0  0  0  0  0  0  0  0  0  0  0  0
    3.9781   -6.1208    0.0000 H   0  0  0  0  0  0  0  0  0  0  0  0
    4.5981   -6.7408    0.0000 H   0  0  0  0  0  0  0  0  0  0  0  0
    5.2181   -6.1208    0.0000 H   0  0  0  0  0  0  0  0  0  0  0  0
    4.7881   -2.7178    0.0000 H   0  0  0  0  0  0  0  0  0  0  0  0
    4.3520   -2.6208    0.0000 H   0  0  0  0  0  0  0  0  0  0  0  0
    3.7320   -2.0008    0.0000 H   0  0  0  0  0  0  0  0  0  0  0  0
    3.1120   -2.6208    0.0000 H   0  0  0  0  0  0  0  0  0  0  0  0
    3.1760   -2.5838    0.0000 H   0  0  0  0  0  0  0  0  0  0  0  0
    2.3291   -2.8108    0.0000 H   0  0  0  0  0  0  0  0  0  0  0  0
    2.5560   -3.6577    0.0000 H   0  0  0  0  0  0  0  0  0  0  0  0
    2.0000   -6.2408    0.0000 H   0  0  0  0  0  0  0  0  0  0  0  0
    6.4081   -3.7917    0.0000 H   0  0  0  0  0  0  0  0  0  0  0  0
   20.7279    5.7396    0.0000 H   0  0  0  0  0  0  0  0  0  0  0  0
   19.9789    6.0122    0.0000 H   0  0  0  0  0  0  0  0  0  0  0  0
   20.4917    3.1039    0.0000 H   0  0  0  0  0  0  0  0  0  0  0  0
   21.1023    3.6162    0.0000 H   0  0  0  0  0  0  0  0  0  0  0  0
   21.2323    4.1886    0.0000 H   0  0  0  0  0  0  0  0  0  0  0  0
    6.6350   -1.2127    0.0000 H   0  0  0  0  0  0  0  0  0  0  0  0
    5.7881   -0.9857    0.0000 H   0  0  0  0  0  0  0  0  0  0  0  0
    5.5611   -1.8327    0.0000 H   0  0  0  0  0  0  0  0  0  0  0  0
   18.8386    6.3737    0.0000 H   0  0  0  0  0  0  0  0  0  0  0  0
   17.9651    6.2973    0.0000 H   0  0  0  0  0  0  0  0  0  0  0  0
   18.0416    5.4238    0.0000 H   0  0  0  0  0  0  0  0  0  0  0  0
   19.6431    6.3484    0.0000 H   0  0  0  0  0  0  0  0  0  0  0  0
   18.9248    6.8513    0.0000 H   0  0  0  0  0  0  0  0  0  0  0  0
   18.4219    6.1331    0.0000 H   0  0  0  0  0  0  0  0  0  0  0  0
    7.9081   -2.9256    0.0000 H   0  0  0  0  0  0  0  0  0  0  0  0
   18.4700    2.9942    0.0000 H   0  0  0  0  0  0  0  0  0  0  0  0
   18.6969    2.1473    0.0000 H   0  0  0  0  0  0  0  0  0  0  0  0
   19.5438    2.3742    0.0000 H   0  0  0  0  0  0  0  0  0  0  0  0
   18.4081    3.1365    0.0000 H   0  0  0  0  0  0  0  0  0  0  0  0
   17.6144    5.1952    0.0000 H   0  0  0  0  0  0  0  0  0  0  0  0
   20.2632    2.3534    0.0000 H   0  0  0  0  0  0  0  0  0  0  0  0
   22.0306    5.4198    0.0000 H   0  0  0  0  0  0  0  0  0  0  0  0
   16.7881    4.2104    0.0000 H   0  0  0  0  0  0  0  0  0  0  0  0
    7.7881   -0.9857    0.0000 H   0  0  0  0  0  0  0  0  0  0  0  0
    9.4081   -2.0596    0.0000 H   0  0  0  0  0  0  0  0  0  0  0  0
   16.5611    1.6314    0.0000 H   0  0  0  0  0  0  0  0  0  0  0  0
   17.4081    1.4045    0.0000 H   0  0  0  0  0  0  0  0  0  0  0  0
   17.6350    2.2514    0.0000 H   0  0  0  0  0  0  0  0  0  0  0  0
   15.2881    3.3444    0.0000 H   0  0  0  0  0  0  0  0  0  0  0  0
   15.4081    1.4045    0.0000 H   0  0  0  0  0  0  0  0  0  0  0  0
    9.6350    0.5194    0.0000 H   0  0  0  0  0  0  0  0  0  0  0  0
    8.7881    0.7463    0.0000 H   0  0  0  0  0  0  0  0  0  0  0  0
    8.5611   -0.1006    0.0000 H   0  0  0  0  0  0  0  0  0  0  0  0
   10.9081   -1.1936    0.0000 H   0  0  0  0  0  0  0  0  0  0  0  0
   13.7881    2.4784    0.0000 H   0  0  0  0  0  0  0  0  0  0  0  0
   10.7881    0.7463    0.0000 H   0  0  0  0  0  0  0  0  0  0  0  0
   12.4081   -0.3276    0.0000 H   0  0  0  0  0  0  0  0  0  0  0  0
   12.2881    1.6123    0.0000 H   0  0  0  0  0  0  0  0  0  0  0  0
   13.5611   -0.1006    0.0000 H   0  0  0  0  0  0  0  0  0  0  0  0
   14.4081   -0.3276    0.0000 H   0  0  0  0  0  0  0  0  0  0  0  0
   14.6350    0.5194    0.0000 H   0  0  0  0  0  0  0  0  0  0  0  0
  1  6  1  0  0  0  0
  1  7  1  0  0  0  0
  2 61  1  0  0  0  0
  3 82  1  0  0  0  0
  4 83  1  0  0  0  0
  5 84  1  0  0  0  0
  6  7  1  1  0  0  0
  6  8  1  0  0  0  0
  6 13  1  0  0  0  0
  7  9  1  0  0  0  0
  7 12  1  1  0  0  0
  8 10  1  0  0  0  0
  8 14  1  0  0  0  0
  8 15  1  0  0  0  0
  9 11  1  0  0  0  0
  9 46  1  0  0  0  0
  9 47  1  0  0  0  0
 10 11  1  0  0  0  0
 10 48  1  0  0  0  0
 10 49  1  0  0  0  0
 11  2  1  0  0  0  0
 11 50  1  6  0  0  0
 12 51  1  0  0  0  0
 12 52  1  0  0  0  0
 12 53  1  0  0  0  0
 13 16  2  0  0  0  0
 13 54  1  0  0  0  0
 14 58  1  0  0  0  0
 14 59  1  0  0  0  0
 14 60  1  0  0  0  0
 15 55  1  0  0  0  0
 15 56  1  0  0  0  0
 15 57  1  0  0  0  0
 16 17  1  0  0  0  0
 16 62  1  0  0  0  0
 17 24  1  0  0  0  0
 17 27  2  0  0  0  0
 18 19  1  0  0  0  0
 18 21  1  0  0  0  0
 18 25  1  0  0  0  0
 18 26  1  0  0  0  0
 19  3  1  0  0  0  0
 19 20  1  6  0  0  0
 19 29  1  0  0  0  0
 20  4  1  1  0  0  0
 20 22  1  0  0  0  0
 20 28  1  0  0  0  0
 21 23  1  0  0  0  0
 21 63  1  0  0  0  0
 21 64  1  0  0  0  0
 22 23  1  0  0  0  0
 22 65  1  0  0  0  0
 22 66  1  0  0  0  0
 23  5  1  0  0  0  0
 23 67  1  1  0  0  0
 24 68  1  0  0  0  0
 24 69  1  0  0  0  0
 24 70  1  0  0  0  0
 25 74  1  0  0  0  0
 25 75  1  0  0  0  0
 25 76  1  0  0  0  0
 26 71  1  0  0  0  0
 26 72  1  0  0  0  0
 26 73  1  0  0  0  0
 27 30  1  0  0  0  0
 27 77  1  0  0  0  0
 28 78  1  0  0  0  0
 28 79  1  0  0  0  0
 28 80  1  0  0  0  0
 29 31  2  0  0  0  0
 29 81  1  0  0  0  0
 30 33  2  0  0  0  0
 30 86  1  0  0  0  0
 31 32  1  0  0  0  0
 31 85  1  0  0  0  0
 32 34  1  0  0  0  0
 32 35  2  0  0  0  0
 33 36  1  0  0  0  0
 33 87  1  0  0  0  0
 34 88  1  0  0  0  0
 34 89  1  0  0  0  0
 34 90  1  0  0  0  0
 35 37  1  0  0  0  0
 35 91  1  0  0  0  0
 36 38  1  0  0  0  0
 36 39  2  0  0  0  0
 37 40  2  0  0  0  0
 37 92  1  0  0  0  0
 38 93  1  0  0  0  0
 38 94  1  0  0  0  0
 38 95  1  0  0  0  0
 39 41  1  0  0  0  0
 39 96  1  0  0  0  0
 40 42  1  0  0  0  0
 40 97  1  0  0  0  0
 41 43  2  0  0  0  0
 41 98  1  0  0  0  0
 42 44  2  0  0  0  0
 42 45  1  0  0  0  0
 43 44  1  0  0  0  0
 43 99  1  0  0  0  0
 44100  1  0  0  0  0
 45101  1  0  0  0  0
 45102  1  0  0  0  0
 45103  1  0  0  0  0
M  END
>  <PUBCHEM_COMPOUND_CID>
102150983

>  <PUBCHEM_COMPOUND_CANONICALIZED>
1

>  <PUBCHEM_CACTVS_COMPLEXITY>
1360

>  <PUBCHEM_CACTVS_HBOND_ACCEPTOR>
5

>  <PUBCHEM_CACTVS_HBOND_DONOR>
4

>  <PUBCHEM_CACTVS_ROTATABLE_BOND>
10

>  <PUBCHEM_CACTVS_SUBSKEYS>
AAADcfB8OAAAAAAAAAAAAAAAEgAAAAAAAAAwYAAABIAAAAAAAAAAGgAACAAADlSggAICAAAABgCAAiBCAAAAAAAgAAAICAAAAAgJFAIAIQACUAAFwAAJsAPA4PQPgAAAAAAAAABCAAYQADCAAAAAAAAAAA==

>  <PUBCHEM_IUPAC_OPENEYE_NAME>
(1R,2R,4S)-1-[(1E,3E,5E,7E,9E,11E,13E,15E,17E)-18-[(1R,3S,6S)-3-hydroxy-1,5,5-trimethyl-7-oxabicyclo[4.1.0]heptan-6-yl]-3,7,12,16-tetramethyl-octadeca-1,3,5,7,9,11,13,15,17-nonaenyl]-2,6,6-trimethyl-cyclohexane-1,2,4-triol

>  <PUBCHEM_IUPAC_CAS_NAME>
(1R,2R,4S)-1-[(1E,3E,5E,7E,9E,11E,13E,15E,17E)-18-[(1R,3S,6S)-3-hydroxy-1,5,5-trimethyl-7-oxabicyclo[4.1.0]heptan-6-yl]-3,7,12,16-tetramethyloctadeca-1,3,5,7,9,11,13,15,17-nonaenyl]-2,6,6-trimethylcyclohexane-1,2,4-triol

>  <PUBCHEM_IUPAC_NAME>
(1R,2R,4S)-1-[(1E,3E,5E,7E,9E,11E,13E,15E,17E)-18-[(1R,3S,6S)-3-hydroxy-1,5,5-trimethyl-7-oxabicyclo[4.1.0]heptan-6-yl]-3,7,12,16-tetramethyloctadeca-1,3,5,7,9,11,13,15,17-nonaenyl]-2,6,6-trimethylcyclohexane-1,2,4-triol

>  <PUBCHEM_IUPAC_SYSTEMATIC_NAME>
(1R,2R,4S)-2,6,6-trimethyl-1-[(1E,3E,5E,7E,9E,11E,13E,15E,17E)-3,7,12,16-tetramethyl-18-[(1R,3S,6S)-1,5,5-trimethyl-3-oxidanyl-7-oxabicyclo[4.1.0]heptan-6-yl]octadeca-1,3,5,7,9,11,13,15,17-nonaenyl]cyclohexane-1,2,4-triol

>  <PUBCHEM_IUPAC_TRADITIONAL_NAME>
(1R,2R,4S)-1-[(1E,3E,5E,7E,9E,11E,13E,15E,17E)-18-[(1R,3S,6S)-3-hydroxy-1,5,5-trimethyl-7-oxabicyclo[4.1.0]heptan-6-yl]-3,7,12,16-tetramethyl-octadeca-1,3,5,7,9,11,13,15,17-nonaenyl]-2,6,6-trimethyl-cyclohexane-1,2,4-triol

>  <PUBCHEM_IUPAC_INCHI>
InChI=1S/C40H58O5/c1-29(17-13-19-31(3)21-23-39(44)35(5,6)25-33(41)27-37(39,9)43)15-11-12-16-30(2)18-14-20-32(4)22-24-40-36(7,8)26-34(42)28-38(40,10)45-40/h11-24,33-34,41-44H,25-28H2,1-10H3/b12-11+,17-13+,18-14+,23-21+,24-22+,29-15+,30-16+,31-19+,32-20+/t33-,34-,37+,38+,39+,40-/m0/s1

>  <PUBCHEM_IUPAC_INCHIKEY>
IHFACKVTKFGBBA-UVAHLJQVSA-N

>  <PUBCHEM_XLOGP3_AA>
8.8

>  <PUBCHEM_EXACT_MASS>
618.428

>  <PUBCHEM_MOLECULAR_FORMULA>
C40H58O5

>  <PUBCHEM_MOLECULAR_WEIGHT>
618.899

>  <PUBCHEM_OPENEYE_CAN_SMILES>
CC(=CC=CC=C(C)C=CC=C(C)C=CC12C(CC(CC1(O2)C)O)(C)C)C=CC=C(C)C=CC3(C(CC(CC3(C)O)O)(C)C)O

>  <PUBCHEM_OPENEYE_ISO_SMILES>
C/C(=C\C=C\C=C(/C)\C=C\C=C(/C)\C=C\[C@]12[C@](O1)(C[C@H](CC2(C)C)O)C)/C=C/C=C(\C)/C=C/[C@@]3([C@](C[C@H](CC3(C)C)O)(C)O)O

>  <PUBCHEM_CACTVS_TPSA>
93.4

>  <PUBCHEM_MONOISOTOPIC_WEIGHT>
618.428

>  <PUBCHEM_TOTAL_CHARGE>
0

>  <PUBCHEM_HEAVY_ATOM_COUNT>
45

>  <PUBCHEM_ATOM_DEF_STEREO_COUNT>
6

>  <PUBCHEM_ATOM_UDEF_STEREO_COUNT>
0

>  <PUBCHEM_BOND_DEF_STEREO_COUNT>
9

>  <PUBCHEM_BOND_UDEF_STEREO_COUNT>
0

>  <PUBCHEM_ISOTOPIC_ATOM_COUNT>
0

>  <PUBCHEM_COMPONENT_COUNT>
1

>  <PUBCHEM_CACTVS_TAUTO_COUNT>
50

>  <PUBCHEM_COORDINATE_TYPE>
1
5
255

>  <PUBCHEM_BONDANNOTATIONS>
11  2  5
19  3  6
20  4  5
23  5  6
6  13  5
7  12  5

$$$$
