102130970
 OpenBabel06101807152D

 77 81  0  0  1  0  0  0  0  0999 V2000
   10.3312   -3.6796    0.0000 O   0  0  0  0  0  0  0  0  0  0  0  0
   11.3017   -2.1850    0.0000 O   0  0  0  0  0  0  0  0  0  0  0  0
    8.5991   -1.6796    0.0000 O   0  0  0  0  0  0  0  0  0  0  0  0
   13.6459   -2.3432    0.0000 O   0  0  0  0  0  0  0  0  0  0  0  0
    8.5991   -4.6796    0.0000 O   0  0  0  0  0  0  0  0  0  0  0  0
   12.3186   -4.5644    0.0000 O   0  0  0  0  0  0  0  0  0  0  0  0
   10.3312   -1.6796    0.0000 O   0  0  0  0  0  0  0  0  0  0  0  0
    6.8671   -3.6796    0.0000 O   0  0  0  0  0  0  0  0  0  0  0  0
   14.4741   -3.2033    0.0000 O   0  0  0  0  0  0  0  0  0  0  0  0
    6.0010   -2.1796    0.0000 O   0  0  0  0  0  0  0  0  0  0  0  0
   12.0871    1.3829    0.0000 O   0  0  0  0  0  0  0  0  0  0  0  0
    5.1350   -0.6796    0.0000 O   0  0  0  0  0  0  0  0  0  0  0  0
    8.5849    1.3996    0.0000 O   0  0  0  0  0  0  0  0  0  0  0  0
    9.4948    2.8930    0.0000 O   0  0  0  0  0  0  0  0  0  0  0  0
    2.5369   -2.1796    0.0000 O   0  0  0  0  0  0  0  0  0  0  0  0
    3.4030   -0.6796    0.0000 O   0  0  0  0  0  0  0  0  0  0  0  0
   15.5551    2.3696    0.0000 O   0  0  0  0  0  0  0  0  0  0  0  0
   15.5628    4.3696    0.0000 O   0  0  0  0  0  0  0  0  0  0  0  0
    9.4651   -3.1796    0.0000 C   0  0  2  0  0  0  0  0  0  0  0  0
   12.7799   -2.8432    0.0000 C   0  0  1  0  0  0  0  0  0  0  0  0
    8.5991   -3.6796    0.0000 C   0  0  2  0  0  0  0  0  0  0  0  0
   12.1107   -3.5863    0.0000 C   0  0  2  0  0  0  0  0  0  0  0  0
   11.1972   -3.1796    0.0000 C   0  0  2  0  0  0  0  0  0  0  0  0
    7.7331   -3.1796    0.0000 C   0  0  1  0  0  0  0  0  0  0  0  0
    9.4651   -2.1796    0.0000 C   0  0  1  0  0  0  0  0  0  0  0  0
    7.7331   -2.1796    0.0000 C   0  0  1  0  0  0  0  0  0  0  0  0
   12.2799   -1.9771    0.0000 C   0  0  0  0  0  0  0  0  0  0  0  0
   13.5230   -3.5123    0.0000 C   0  0  0  0  0  0  0  0  0  0  0  0
    6.8671   -1.6796    0.0000 C   0  0  0  0  0  0  0  0  0  0  0  0
   10.3312   -0.6796    0.0000 C   0  0  0  0  0  0  0  0  0  0  0  0
   11.2312   -0.1553    0.0000 C   0  0  0  0  0  0  0  0  0  0  0  0
    9.4311   -0.1553    0.0000 C   0  0  0  0  0  0  0  0  0  0  0  0
    5.1350   -1.6796    0.0000 C   0  0  0  0  0  0  0  0  0  0  0  0
   11.2192    0.8863    0.0000 C   0  0  0  0  0  0  0  0  0  0  0  0
    9.4431    0.8863    0.0000 C   0  0  0  0  0  0  0  0  0  0  0  0
   10.3551    1.3896    0.0000 C   0  0  0  0  0  0  0  0  0  0  0  0
    4.2690   -2.1796    0.0000 C   0  0  0  0  0  0  0  0  0  0  0  0
   10.3589    2.3896    0.0000 C   0  0  0  0  0  0  0  0  0  0  0  0
   12.0910    2.3829    0.0000 C   0  0  0  0  0  0  0  0  0  0  0  0
   11.2269    2.8863    0.0000 C   0  0  0  0  0  0  0  0  0  0  0  0
    3.4030   -1.6796    0.0000 C   0  0  0  0  0  0  0  0  0  0  0  0
   12.9589    2.8796    0.0000 C   0  0  0  0  0  0  0  0  0  0  0  0
   13.8230    2.3763    0.0000 C   0  0  0  0  0  0  0  0  0  0  0  0
   12.9628    3.8796    0.0000 C   0  0  0  0  0  0  0  0  0  0  0  0
   14.6910    2.8729    0.0000 C   0  0  0  0  0  0  0  0  0  0  0  0
   13.8307    4.3762    0.0000 C   0  0  0  0  0  0  0  0  0  0  0  0
   14.6948    3.8729    0.0000 C   0  0  0  0  0  0  0  0  0  0  0  0
   10.0021   -2.8696    0.0000 H   0  0  0  0  0  0  0  0  0  0  0  0
    8.0622   -3.9896    0.0000 H   0  0  0  0  0  0  0  0  0  0  0  0
   11.6289   -3.9765    0.0000 H   0  0  0  0  0  0  0  0  0  0  0  0
   11.2296   -3.7987    0.0000 H   0  0  0  0  0  0  0  0  0  0  0  0
    7.1962   -2.8696    0.0000 H   0  0  0  0  0  0  0  0  0  0  0  0
    9.4651   -1.5596    0.0000 H   0  0  0  0  0  0  0  0  0  0  0  0
    7.7331   -1.5596    0.0000 H   0  0  0  0  0  0  0  0  0  0  0  0
   12.8463   -1.7250    0.0000 H   0  0  0  0  0  0  0  0  0  0  0  0
   12.0883   -1.3875    0.0000 H   0  0  0  0  0  0  0  0  0  0  0  0
   13.0344   -3.8940    0.0000 H   0  0  0  0  0  0  0  0  0  0  0  0
   13.8141   -4.0597    0.0000 H   0  0  0  0  0  0  0  0  0  0  0  0
    7.2656   -1.2046    0.0000 H   0  0  0  0  0  0  0  0  0  0  0  0
    6.4685   -1.2046    0.0000 H   0  0  0  0  0  0  0  0  0  0  0  0
   13.6459   -1.7232    0.0000 H   0  0  0  0  0  0  0  0  0  0  0  0
    8.0622   -4.9896    0.0000 H   0  0  0  0  0  0  0  0  0  0  0  0
   11.8579   -4.9793    0.0000 H   0  0  0  0  0  0  0  0  0  0  0  0
    6.8671   -4.2996    0.0000 H   0  0  0  0  0  0  0  0  0  0  0  0
   14.9348   -3.6181    0.0000 H   0  0  0  0  0  0  0  0  0  0  0  0
   11.7705   -0.4611    0.0000 H   0  0  0  0  0  0  0  0  0  0  0  0
    8.8918   -0.4611    0.0000 H   0  0  0  0  0  0  0  0  0  0  0  0
    3.8705   -2.6545    0.0000 H   0  0  0  0  0  0  0  0  0  0  0  0
    4.6675   -2.6545    0.0000 H   0  0  0  0  0  0  0  0  0  0  0  0
   11.2293    3.5063    0.0000 H   0  0  0  0  0  0  0  0  0  0  0  0
    8.0433    1.0979    0.0000 H   0  0  0  0  0  0  0  0  0  0  0  0
   13.8206    1.7563    0.0000 H   0  0  0  0  0  0  0  0  0  0  0  0
   12.4270    4.1916    0.0000 H   0  0  0  0  0  0  0  0  0  0  0  0
    2.0000   -1.8696    0.0000 H   0  0  0  0  0  0  0  0  0  0  0  0
   13.8331    4.9962    0.0000 H   0  0  0  0  0  0  0  0  0  0  0  0
   16.0932    2.6775    0.0000 H   0  0  0  0  0  0  0  0  0  0  0  0
   15.5652    4.9896    0.0000 H   0  0  0  0  0  0  0  0  0  0  0  0
  2 23  1  0  0  0  0
  2 27  1  0  0  0  0
  3 25  1  0  0  0  0
  3 26  1  0  0  0  0
  4 61  1  0  0  0  0
  5 62  1  0  0  0  0
  6 63  1  0  0  0  0
  7 30  1  0  0  0  0
  8 64  1  0  0  0  0
  9 28  1  0  0  0  0
  9 65  1  0  0  0  0
 10 29  1  0  0  0  0
 10 33  1  0  0  0  0
 11 34  1  0  0  0  0
 11 39  1  0  0  0  0
 12 33  2  0  0  0  0
 13 35  1  0  0  0  0
 13 71  1  0  0  0  0
 14 38  2  0  0  0  0
 15 41  1  0  0  0  0
 15 74  1  0  0  0  0
 16 41  2  0  0  0  0
 17 45  1  0  0  0  0
 17 76  1  0  0  0  0
 18 47  1  0  0  0  0
 18 77  1  0  0  0  0
 19  1  1  0  0  0  0
 19 21  1  1  0  0  0
 19 48  1  0  0  0  0
 20  4  1  0  0  0  0
 20 22  1  1  0  0  0
 20 27  1  0  0  0  0
 20 28  1  0  0  0  0
 21  5  1  0  0  0  0
 21 24  1  1  0  0  0
 21 49  1  0  0  0  0
 22  6  1  0  0  0  0
 22 23  1  1  0  0  0
 22 50  1  0  0  0  0
 23  1  1  0  0  0  0
 23 51  1  1  0  0  0
 24  8  1  0  0  0  0
 24 26  1  6  0  0  0
 24 52  1  0  0  0  0
 25  7  1  0  0  0  0
 25 19  1  6  0  0  0
 25 53  1  0  0  0  0
 26 29  1  0  0  0  0
 26 54  1  6  0  0  0
 27 55  1  0  0  0  0
 27 56  1  0  0  0  0
 28 57  1  0  0  0  0
 28 58  1  0  0  0  0
 29 59  1  0  0  0  0
 29 60  1  0  0  0  0
 30 31  1  0  0  0  0
 30 32  2  0  0  0  0
 31 34  2  0  0  0  0
 31 66  1  0  0  0  0
 32 35  1  0  0  0  0
 32 67  1  0  0  0  0
 33 37  1  0  0  0  0
 34 36  1  0  0  0  0
 35 36  2  0  0  0  0
 36 38  1  0  0  0  0
 37 41  1  0  0  0  0
 37 68  1  0  0  0  0
 37 69  1  0  0  0  0
 38 40  1  0  0  0  0
 39 40  2  0  0  0  0
 39 42  1  0  0  0  0
 40 70  1  0  0  0  0
 42 43  2  0  0  0  0
 42 44  1  0  0  0  0
 43 45  1  0  0  0  0
 43 72  1  0  0  0  0
 44 46  2  0  0  0  0
 44 73  1  0  0  0  0
 45 47  2  0  0  0  0
 46 47  1  0  0  0  0
 46 75  1  0  0  0  0
M  END
>  <PUBCHEM_COMPOUND_CID>
102130970

>  <PUBCHEM_COMPOUND_CANONICALIZED>
1

>  <PUBCHEM_CACTVS_COMPLEXITY>
1180

>  <PUBCHEM_CACTVS_HBOND_ACCEPTOR>
18

>  <PUBCHEM_CACTVS_HBOND_DONOR>
9

>  <PUBCHEM_CACTVS_ROTATABLE_BOND>
11

>  <PUBCHEM_CACTVS_SUBSKEYS>
AAADceB4PgAAAAAAAAAAAAAAAAAAASAAAAA0YIEAAAAAAACBQAAAGgAACAAADFSwmAMwDoAABgCIAqDSCAACCAAkIAAIiAEGiMgdNzaONRqieWGl4BUPuQfI7LzOIAABCAAIQABAAAIQABCAAAAAAAAAAA==

>  <PUBCHEM_IUPAC_OPENEYE_NAME>
3-[[(2R,3S,4S,5R,6S)-5-[(2S,3R,4R)-3,4-dihydroxy-4-(hydroxymethyl)tetrahydrofuran-2-yl]oxy-6-[2-(3,4-dihydroxyphenyl)-5-hydroxy-4-oxo-chromen-7-yl]oxy-3,4-dihydroxy-tetrahydropyran-2-yl]methoxy]-3-oxo-propanoic acid

>  <PUBCHEM_IUPAC_CAS_NAME>
3-[[(2R,3S,4S,5R,6S)-5-[[(2S,3R,4R)-3,4-dihydroxy-4-(hydroxymethyl)-2-oxolanyl]oxy]-6-[[2-(3,4-dihydroxyphenyl)-5-hydroxy-4-oxo-1-benzopyran-7-yl]oxy]-3,4-dihydroxy-2-oxanyl]methoxy]-3-oxopropanoic acid

>  <PUBCHEM_IUPAC_NAME>
3-[[(2R,3S,4S,5R,6S)-5-[(2S,3R,4R)-3,4-dihydroxy-4-(hydroxymethyl)oxolan-2-yl]oxy-6-[2-(3,4-dihydroxyphenyl)-5-hydroxy-4-oxochromen-7-yl]oxy-3,4-dihydroxyoxan-2-yl]methoxy]-3-oxopropanoic acid

>  <PUBCHEM_IUPAC_SYSTEMATIC_NAME>
3-[[(2R,3S,4S,5R,6S)-6-[2-[3,4-bis(oxidanyl)phenyl]-5-oxidanyl-4-oxidanylidene-chromen-7-yl]oxy-5-[(2S,3R,4R)-4-(hydroxymethyl)-3,4-bis(oxidanyl)oxolan-2-yl]oxy-3,4-bis(oxidanyl)oxan-2-yl]methoxy]-3-oxidanylidene-propanoic acid

>  <PUBCHEM_IUPAC_TRADITIONAL_NAME>
3-[[(2R,3S,4S,5R,6S)-5-[(2S,3R,4R)-3,4-dihydroxy-4-methylol-tetrahydrofuran-2-yl]oxy-6-[2-(3,4-dihydroxyphenyl)-5-hydroxy-4-keto-chromen-7-yl]oxy-3,4-dihydroxy-tetrahydropyran-2-yl]methoxy]-3-keto-propionic acid

>  <PUBCHEM_IUPAC_INCHI>
InChI=1S/C29H30O18/c30-9-29(41)10-43-28(26(29)40)47-25-24(39)23(38)19(8-42-21(37)7-20(35)36)46-27(25)44-12-4-15(33)22-16(34)6-17(45-18(22)5-12)11-1-2-13(31)14(32)3-11/h1-6,19,23-28,30-33,38-41H,7-10H2,(H,35,36)/t19-,23-,24+,25-,26+,27-,28+,29-/m1/s1

>  <PUBCHEM_IUPAC_INCHIKEY>
LPOQROCPKZWCGK-CQRLEKJLSA-N

>  <PUBCHEM_XLOGP3_AA>
-1

>  <PUBCHEM_EXACT_MASS>
666.143

>  <PUBCHEM_MOLECULAR_FORMULA>
C29H30O18

>  <PUBCHEM_MOLECULAR_WEIGHT>
666.541

>  <PUBCHEM_OPENEYE_CAN_SMILES>
C1C(C(C(O1)OC2C(C(C(OC2OC3=CC(=C4C(=C3)OC(=CC4=O)C5=CC(=C(C=C5)O)O)O)COC(=O)CC(=O)O)O)O)O)(CO)O

>  <PUBCHEM_OPENEYE_ISO_SMILES>
C1[C@@]([C@H]([C@@H](O1)O[C@@H]2[C@H]([C@@H]([C@H](O[C@H]2OC3=CC(=C4C(=C3)OC(=CC4=O)C5=CC(=C(C=C5)O)O)O)COC(=O)CC(=O)O)O)O)O)(CO)O

>  <PUBCHEM_CACTVS_TPSA>
289

>  <PUBCHEM_MONOISOTOPIC_WEIGHT>
666.143

>  <PUBCHEM_TOTAL_CHARGE>
0

>  <PUBCHEM_HEAVY_ATOM_COUNT>
47

>  <PUBCHEM_ATOM_DEF_STEREO_COUNT>
8

>  <PUBCHEM_ATOM_UDEF_STEREO_COUNT>
0

>  <PUBCHEM_BOND_DEF_STEREO_COUNT>
0

>  <PUBCHEM_BOND_UDEF_STEREO_COUNT>
0

>  <PUBCHEM_ISOTOPIC_ATOM_COUNT>
0

>  <PUBCHEM_COMPONENT_COUNT>
1

>  <PUBCHEM_CACTVS_TAUTO_COUNT>
174

>  <PUBCHEM_COORDINATE_TYPE>
1
5
255

>  <PUBCHEM_BONDANNOTATIONS>
19  1  6
23  1  6
11  34  8
11  39  8
26  29  5
30  31  8
30  32  8
31  34  8
32  35  8
34  36  8
35  36  8
36  38  8
38  40  8
39  40  8
20  4  5
42  43  8
42  44  8
43  45  8
44  46  8
45  47  8
46  47  8
21  5  5
22  6  5
25  7  5
24  8  6

$$$$
