102232211
 OpenBabel06101807152D

 71 75  0  0  1  0  0  0  0  0999 V2000
    6.3038   -1.9676    0.0000 O   0  0  0  0  0  0  0  0  0  0  0  0
   11.7968   -2.0699    0.0000 O   0  0  0  0  0  0  0  0  0  0  0  0
    8.0250   -2.4288    0.0000 O   0  0  0  0  0  0  0  0  0  0  0  0
    9.9845   -3.2651    0.0000 O   0  0  0  0  0  0  0  0  0  0  0  0
   11.4396    1.2344    0.0000 O   0  0  0  0  0  0  0  0  0  0  0  0
   15.3804   -2.9972    0.0000 O   0  0  0  0  0  0  0  0  0  0  0  0
    3.9470    3.1941    0.0000 O   0  0  0  0  0  0  0  0  0  0  0  0
   16.3804   -1.2651    0.0000 O   0  0  0  0  0  0  0  0  0  0  0  0
    2.4608    1.8558    0.0000 O   0  0  0  0  0  0  0  0  0  0  0  0
    7.3864   -0.7651    0.0000 C   0  0  3  0  0  0  0  0  0  0  0  0
    6.4729   -0.3584    0.0000 C   0  0  3  0  0  0  0  0  0  0  0  0
    8.2525   -0.2651    0.0000 C   0  0  0  0  0  0  0  0  0  0  0  0
   11.7968   -0.4604    0.0000 C   0  0  3  0  0  0  0  0  0  0  0  0
    5.8038   -1.1015    0.0000 C   0  0  0  0  0  0  0  0  0  0  0  0
    6.2650    0.6198    0.0000 C   0  0  0  0  0  0  0  0  0  0  0  0
   10.8505   -0.7651    0.0000 C   0  0  0  0  0  0  0  0  0  0  0  0
   12.3804   -1.2651    0.0000 C   0  0  3  0  0  0  0  0  0  0  0  0
    9.1185   -0.7651    0.0000 C   0  0  0  0  0  0  0  0  0  0  0  0
    7.2819   -1.7597    0.0000 C   0  0  0  0  0  0  0  0  0  0  0  0
   10.8505   -1.7651    0.0000 C   0  0  0  0  0  0  0  0  0  0  0  0
    9.9845   -0.2651    0.0000 C   0  0  0  0  0  0  0  0  0  0  0  0
   12.1074    0.4901    0.0000 C   0  0  0  0  0  0  0  0  0  0  0  0
    9.1185   -1.7651    0.0000 C   0  0  0  0  0  0  0  0  0  0  0  0
    9.9845   -2.2651    0.0000 C   0  0  0  0  0  0  0  0  0  0  0  0
    5.3139    0.9288    0.0000 C   0  0  0  0  0  0  0  0  0  0  0  0
   13.3804   -1.2651    0.0000 C   0  0  0  0  0  0  0  0  0  0  0  0
    5.1060    1.9069    0.0000 C   0  0  0  0  0  0  0  0  0  0  0  0
   13.8804   -2.1312    0.0000 C   0  0  0  0  0  0  0  0  0  0  0  0
    4.5708    0.2596    0.0000 C   0  0  0  0  0  0  0  0  0  0  0  0
   13.8804   -0.3991    0.0000 C   0  0  0  0  0  0  0  0  0  0  0  0
   14.8804   -2.1312    0.0000 C   0  0  0  0  0  0  0  0  0  0  0  0
    4.1550    2.2159    0.0000 C   0  0  0  0  0  0  0  0  0  0  0  0
    3.6197    0.5687    0.0000 C   0  0  0  0  0  0  0  0  0  0  0  0
   14.8804   -0.3991    0.0000 C   0  0  0  0  0  0  0  0  0  0  0  0
   15.3804   -1.2651    0.0000 C   0  0  0  0  0  0  0  0  0  0  0  0
    3.4118    1.5468    0.0000 C   0  0  0  0  0  0  0  0  0  0  0  0
    9.1185   -3.7651    0.0000 C   0  0  0  0  0  0  0  0  0  0  0  0
   14.8804   -3.8632    0.0000 C   0  0  0  0  0  0  0  0  0  0  0  0
    4.6902    3.8632    0.0000 C   0  0  0  0  0  0  0  0  0  0  0  0
    7.3540   -0.1460    0.0000 H   0  0  0  0  0  0  0  0  0  0  0  0
    5.8740   -0.1979    0.0000 H   0  0  0  0  0  0  0  0  0  0  0  0
    8.6510    0.2098    0.0000 H   0  0  0  0  0  0  0  0  0  0  0  0
    7.8539    0.2098    0.0000 H   0  0  0  0  0  0  0  0  0  0  0  0
   12.4092   -0.3642    0.0000 H   0  0  0  0  0  0  0  0  0  0  0  0
    5.3889   -0.6408    0.0000 H   0  0  0  0  0  0  0  0  0  0  0  0
    5.3022   -1.4660    0.0000 H   0  0  0  0  0  0  0  0  0  0  0  0
    6.8846    0.6414    0.0000 H   0  0  0  0  0  0  0  0  0  0  0  0
    6.3513    1.2337    0.0000 H   0  0  0  0  0  0  0  0  0  0  0  0
   12.6621   -0.7128    0.0000 H   0  0  0  0  0  0  0  0  0  0  0  0
    9.9845    0.3549    0.0000 H   0  0  0  0  0  0  0  0  0  0  0  0
   12.6543    0.1981    0.0000 H   0  0  0  0  0  0  0  0  0  0  0  0
   12.4900    0.9780    0.0000 H   0  0  0  0  0  0  0  0  0  0  0  0
    8.5816   -2.0751    0.0000 H   0  0  0  0  0  0  0  0  0  0  0  0
    5.5668    2.3218    0.0000 H   0  0  0  0  0  0  0  0  0  0  0  0
   13.5704   -2.6681    0.0000 H   0  0  0  0  0  0  0  0  0  0  0  0
    4.6997   -0.3468    0.0000 H   0  0  0  0  0  0  0  0  0  0  0  0
   13.5704    0.1378    0.0000 H   0  0  0  0  0  0  0  0  0  0  0  0
   11.6322    1.8237    0.0000 H   0  0  0  0  0  0  0  0  0  0  0  0
   15.1904    0.1378    0.0000 H   0  0  0  0  0  0  0  0  0  0  0  0
    3.1590    0.1538    0.0000 H   0  0  0  0  0  0  0  0  0  0  0  0
    8.8085   -3.2282    0.0000 H   0  0  0  0  0  0  0  0  0  0  0  0
    8.5816   -4.0751    0.0000 H   0  0  0  0  0  0  0  0  0  0  0  0
    9.4285   -4.3021    0.0000 H   0  0  0  0  0  0  0  0  0  0  0  0
   16.6904   -0.7282    0.0000 H   0  0  0  0  0  0  0  0  0  0  0  0
    2.0000    1.4410    0.0000 H   0  0  0  0  0  0  0  0  0  0  0  0
   14.3434   -3.5532    0.0000 H   0  0  0  0  0  0  0  0  0  0  0  0
   14.5704   -4.4002    0.0000 H   0  0  0  0  0  0  0  0  0  0  0  0
   15.4173   -4.1732    0.0000 H   0  0  0  0  0  0  0  0  0  0  0  0
    5.1050    3.4025    0.0000 H   0  0  0  0  0  0  0  0  0  0  0  0
    5.1509    4.2781    0.0000 H   0  0  0  0  0  0  0  0  0  0  0  0
    4.2753    4.3240    0.0000 H   0  0  0  0  0  0  0  0  0  0  0  0
  1 14  1  0  0  0  0
  1 19  1  0  0  0  0
  2 17  1  0  0  0  0
  2 20  1  0  0  0  0
  3 19  2  0  0  0  0
  4 24  1  0  0  0  0
  4 37  1  0  0  0  0
  5 22  1  0  0  0  0
  5 58  1  0  0  0  0
  6 31  1  0  0  0  0
  6 38  1  0  0  0  0
  7 32  1  0  0  0  0
  7 39  1  0  0  0  0
  8 35  1  0  0  0  0
  8 64  1  0  0  0  0
  9 36  1  0  0  0  0
  9 65  1  0  0  0  0
 10 11  1  0  0  0  0
 10 12  1  0  0  0  0
 10 19  1  0  0  0  0
 10 40  1  0  0  0  0
 11 14  1  0  0  0  0
 11 15  1  0  0  0  0
 11 41  1  0  0  0  0
 12 18  1  0  0  0  0
 12 42  1  0  0  0  0
 12 43  1  0  0  0  0
 13 16  1  0  0  0  0
 13 17  1  0  0  0  0
 13 22  1  0  0  0  0
 13 44  1  0  0  0  0
 14 45  1  0  0  0  0
 14 46  1  0  0  0  0
 15 25  1  0  0  0  0
 15 47  1  0  0  0  0
 15 48  1  0  0  0  0
 16 20  2  0  0  0  0
 16 21  1  0  0  0  0
 17 26  1  0  0  0  0
 17 49  1  0  0  0  0
 18 21  2  0  0  0  0
 18 23  1  0  0  0  0
 20 24  1  0  0  0  0
 21 50  1  0  0  0  0
 22 51  1  0  0  0  0
 22 52  1  0  0  0  0
 23 24  2  0  0  0  0
 23 53  1  0  0  0  0
 25 27  2  0  0  0  0
 25 29  1  0  0  0  0
 26 28  2  0  0  0  0
 26 30  1  0  0  0  0
 27 32  1  0  0  0  0
 27 54  1  0  0  0  0
 28 31  1  0  0  0  0
 28 55  1  0  0  0  0
 29 33  2  0  0  0  0
 29 56  1  0  0  0  0
 30 34  2  0  0  0  0
 30 57  1  0  0  0  0
 31 35  2  0  0  0  0
 32 36  2  0  0  0  0
 33 36  1  0  0  0  0
 33 60  1  0  0  0  0
 34 35  1  0  0  0  0
 34 59  1  0  0  0  0
 37 61  1  0  0  0  0
 37 62  1  0  0  0  0
 37 63  1  0  0  0  0
 38 66  1  0  0  0  0
 38 67  1  0  0  0  0
 38 68  1  0  0  0  0
 39 69  1  0  0  0  0
 39 70  1  0  0  0  0
 39 71  1  0  0  0  0
M  END
>  <PUBCHEM_COMPOUND_CID>
102232211

>  <PUBCHEM_COMPOUND_CANONICALIZED>
1

>  <PUBCHEM_CACTVS_COMPLEXITY>
809

>  <PUBCHEM_CACTVS_HBOND_ACCEPTOR>
9

>  <PUBCHEM_CACTVS_HBOND_DONOR>
3

>  <PUBCHEM_CACTVS_ROTATABLE_BOND>
9

>  <PUBCHEM_CACTVS_SUBSKEYS>
AAADcfB4PAAAAAAAAAAAAAAAAAAAASJAAAAwYMAAAAAAAEgBUAAAGgAACAAADRSgmAIyDoAABgCIAiDSCAACCAAgIAAIiAEGiIgNNjKGMRqCeCOlwBELuAfK6PyOoAADAAAIQABAAAYAABCAAAAAAAAAAA==

>  <PUBCHEM_IUPAC_OPENEYE_NAME>
3-[[2-(4-hydroxy-3-methoxy-phenyl)-3-(hydroxymethyl)-7-methoxy-2,3-dihydrobenzofuran-5-yl]methyl]-4-[(4-hydroxy-3-methoxy-phenyl)methyl]tetrahydrofuran-2-one

>  <PUBCHEM_IUPAC_CAS_NAME>
3-[[2-(4-hydroxy-3-methoxyphenyl)-3-(hydroxymethyl)-7-methoxy-2,3-dihydrobenzofuran-5-yl]methyl]-4-[(4-hydroxy-3-methoxyphenyl)methyl]-2-oxolanone

>  <PUBCHEM_IUPAC_NAME>
3-[[2-(4-hydroxy-3-methoxyphenyl)-3-(hydroxymethyl)-7-methoxy-2,3-dihydro-1-benzofuran-5-yl]methyl]-4-[(4-hydroxy-3-methoxyphenyl)methyl]oxolan-2-one

>  <PUBCHEM_IUPAC_SYSTEMATIC_NAME>
3-[[3-(hydroxymethyl)-7-methoxy-2-(3-methoxy-4-oxidanyl-phenyl)-2,3-dihydro-1-benzofuran-5-yl]methyl]-4-[(3-methoxy-4-oxidanyl-phenyl)methyl]oxolan-2-one

>  <PUBCHEM_IUPAC_TRADITIONAL_NAME>
3-[[2-(4-hydroxy-3-methoxy-phenyl)-7-methoxy-3-methylol-coumaran-5-yl]methyl]-4-vanillyl-tetrahydrofuran-2-one

>  <PUBCHEM_IUPAC_INCHI>
InChI=1S/C30H32O9/c1-35-25-11-16(4-6-23(25)32)8-19-15-38-30(34)20(19)9-17-10-21-22(14-31)28(39-29(21)27(12-17)37-3)18-5-7-24(33)26(13-18)36-2/h4-7,10-13,19-20,22,28,31-33H,8-9,14-15H2,1-3H3

>  <PUBCHEM_IUPAC_INCHIKEY>
YMWGUENGTNUIRA-UHFFFAOYSA-N

>  <PUBCHEM_XLOGP3_AA>
3.9

>  <PUBCHEM_EXACT_MASS>
536.205

>  <PUBCHEM_MOLECULAR_FORMULA>
C30H32O9

>  <PUBCHEM_MOLECULAR_WEIGHT>
536.577

>  <PUBCHEM_OPENEYE_CAN_SMILES>
COC1=C(C=CC(=C1)CC2COC(=O)C2CC3=CC(=C4C(=C3)C(C(O4)C5=CC(=C(C=C5)O)OC)CO)OC)O

>  <PUBCHEM_OPENEYE_ISO_SMILES>
COC1=C(C=CC(=C1)CC2COC(=O)C2CC3=CC(=C4C(=C3)C(C(O4)C5=CC(=C(C=C5)O)OC)CO)OC)O

>  <PUBCHEM_CACTVS_TPSA>
124

>  <PUBCHEM_MONOISOTOPIC_WEIGHT>
536.205

>  <PUBCHEM_TOTAL_CHARGE>
0

>  <PUBCHEM_HEAVY_ATOM_COUNT>
39

>  <PUBCHEM_ATOM_DEF_STEREO_COUNT>
0

>  <PUBCHEM_ATOM_UDEF_STEREO_COUNT>
4

>  <PUBCHEM_BOND_DEF_STEREO_COUNT>
0

>  <PUBCHEM_BOND_UDEF_STEREO_COUNT>
0

>  <PUBCHEM_ISOTOPIC_ATOM_COUNT>
0

>  <PUBCHEM_COMPONENT_COUNT>
1

>  <PUBCHEM_CACTVS_TAUTO_COUNT>
412

>  <PUBCHEM_COORDINATE_TYPE>
1
5
255

>  <PUBCHEM_BONDANNOTATIONS>
10  12  3
11  15  3
13  22  3
16  20  8
16  21  8
17  26  3
18  21  8
18  23  8
20  24  8
23  24  8
25  27  8
25  29  8
26  28  8
26  30  8
27  32  8
28  31  8
29  33  8
30  34  8
31  35  8
32  36  8
33  36  8
34  35  8

$$$$
