10228095
 OpenBabel06101807152D

 59 62  0  0  1  0  0  0  0  0999 V2000
    6.3301   -2.7856    0.0000 O   0  0  0  0  0  0  0  0  0  0  0  0
    8.0622   -2.7856    0.0000 O   0  0  0  0  0  0  0  0  0  0  0  0
    4.5981   -4.7857    0.0000 O   0  0  0  0  0  0  0  0  0  0  0  0
    6.3301   -5.7857    0.0000 O   0  0  0  0  0  0  0  0  0  0  0  0
    8.0622   -4.7857    0.0000 O   0  0  0  0  0  0  0  0  0  0  0  0
    3.7320   -3.2856    0.0000 O   0  0  0  0  0  0  0  0  0  0  0  0
    6.3301   -1.7856    0.0000 O   0  0  0  0  0  0  0  0  0  0  0  0
    9.8382    0.2212    0.0000 O   0  0  0  0  0  0  0  0  0  0  0  0
    2.8660   -1.7856    0.0000 O   0  0  0  0  0  0  0  0  0  0  0  0
    7.1744    1.7458    0.0000 O   0  0  0  0  0  0  0  0  0  0  0  0
    8.9287    5.7836    0.0000 O   0  0  0  0  0  0  0  0  0  0  0  0
    5.4641   -4.2857    0.0000 C   0  0  1  0  0  0  0  0  0  0  0  0
    6.3301   -4.7857    0.0000 C   0  0  1  0  0  0  0  0  0  0  0  0
    5.4641   -3.2856    0.0000 C   0  0  1  0  0  0  0  0  0  0  0  0
    7.1962   -4.2857    0.0000 C   0  0  2  0  0  0  0  0  0  0  0  0
    7.1962   -3.2856    0.0000 C   0  0  1  0  0  0  0  0  0  0  0  0
    4.5981   -2.7856    0.0000 C   0  0  0  0  0  0  0  0  0  0  0  0
    8.0622   -1.7856    0.0000 C   0  0  0  0  0  0  0  0  0  0  0  0
    7.1962   -1.2856    0.0000 C   0  0  0  0  0  0  0  0  0  0  0  0
    8.9282   -1.2856    0.0000 C   0  0  0  0  0  0  0  0  0  0  0  0
    8.9282   -0.2856    0.0000 C   0  0  0  0  0  0  0  0  0  0  0  0
    8.0622    0.2144    0.0000 C   0  0  0  0  0  0  0  0  0  0  0  0
    7.1962   -0.2856    0.0000 C   0  0  0  0  0  0  0  0  0  0  0  0
    2.8660   -2.7856    0.0000 C   0  0  0  0  0  0  0  0  0  0  0  0
    8.0461    1.2559    0.0000 C   0  0  0  0  0  0  0  0  0  0  0  0
    8.9442    1.7836    0.0000 C   0  0  0  0  0  0  0  0  0  0  0  0
    2.0000   -3.2856    0.0000 C   0  0  0  0  0  0  0  0  0  0  0  0
    9.8462    1.2628    0.0000 C   0  0  0  0  0  0  0  0  0  0  0  0
    8.9403    2.7836    0.0000 C   0  0  0  0  0  0  0  0  0  0  0  0
    5.4641   -1.2856    0.0000 C   0  0  0  0  0  0  0  0  0  0  0  0
    9.8044    3.2869    0.0000 C   0  0  0  0  0  0  0  0  0  0  0  0
    8.0724    3.2803    0.0000 C   0  0  0  0  0  0  0  0  0  0  0  0
    9.8005    4.2869    0.0000 C   0  0  0  0  0  0  0  0  0  0  0  0
    8.0685    4.2802    0.0000 C   0  0  0  0  0  0  0  0  0  0  0  0
    8.9326    4.7836    0.0000 C   0  0  0  0  0  0  0  0  0  0  0  0
    5.4641   -4.9056    0.0000 H   0  0  0  0  0  0  0  0  0  0  0  0
    6.8671   -5.0956    0.0000 H   0  0  0  0  0  0  0  0  0  0  0  0
    5.4641   -2.6656    0.0000 H   0  0  0  0  0  0  0  0  0  0  0  0
    7.7331   -3.9756    0.0000 H   0  0  0  0  0  0  0  0  0  0  0  0
    7.1962   -2.6656    0.0000 H   0  0  0  0  0  0  0  0  0  0  0  0
    4.9966   -2.3107    0.0000 H   0  0  0  0  0  0  0  0  0  0  0  0
    4.1996   -2.3107    0.0000 H   0  0  0  0  0  0  0  0  0  0  0  0
    4.5981   -5.4056    0.0000 H   0  0  0  0  0  0  0  0  0  0  0  0
    5.7932   -6.0956    0.0000 H   0  0  0  0  0  0  0  0  0  0  0  0
    8.0622   -5.4056    0.0000 H   0  0  0  0  0  0  0  0  0  0  0  0
    9.4651   -1.5956    0.0000 H   0  0  0  0  0  0  0  0  0  0  0  0
    6.6592    0.0244    0.0000 H   0  0  0  0  0  0  0  0  0  0  0  0
    1.6900   -2.7487    0.0000 H   0  0  0  0  0  0  0  0  0  0  0  0
    1.4631   -3.5956    0.0000 H   0  0  0  0  0  0  0  0  0  0  0  0
    2.3100   -3.8226    0.0000 H   0  0  0  0  0  0  0  0  0  0  0  0
   10.3844    1.5707    0.0000 H   0  0  0  0  0  0  0  0  0  0  0  0
    5.7741   -0.7487    0.0000 H   0  0  0  0  0  0  0  0  0  0  0  0
    4.9272   -0.9756    0.0000 H   0  0  0  0  0  0  0  0  0  0  0  0
    5.1541   -1.8226    0.0000 H   0  0  0  0  0  0  0  0  0  0  0  0
   10.3425    2.9790    0.0000 H   0  0  0  0  0  0  0  0  0  0  0  0
    7.5366    2.9682    0.0000 H   0  0  0  0  0  0  0  0  0  0  0  0
   10.3363    4.5990    0.0000 H   0  0  0  0  0  0  0  0  0  0  0  0
    7.5304    4.5882    0.0000 H   0  0  0  0  0  0  0  0  0  0  0  0
    9.4645    6.0956    0.0000 H   0  0  0  0  0  0  0  0  0  0  0  0
  1 14  1  0  0  0  0
  1 16  1  0  0  0  0
  2 18  1  0  0  0  0
  3 43  1  0  0  0  0
  4 44  1  0  0  0  0
  5 45  1  0  0  0  0
  6 17  1  0  0  0  0
  6 24  1  0  0  0  0
  7 19  1  0  0  0  0
  7 30  1  0  0  0  0
  8 21  1  0  0  0  0
  8 28  1  0  0  0  0
  9 24  2  0  0  0  0
 10 25  2  0  0  0  0
 11 35  1  0  0  0  0
 11 59  1  0  0  0  0
 12  3  1  0  0  0  0
 12 13  1  6  0  0  0
 12 36  1  0  0  0  0
 13  4  1  0  0  0  0
 13 15  1  1  0  0  0
 13 37  1  0  0  0  0
 14 12  1  6  0  0  0
 14 17  1  0  0  0  0
 14 38  1  0  0  0  0
 15  5  1  0  0  0  0
 15 16  1  6  0  0  0
 15 39  1  0  0  0  0
 16  2  1  0  0  0  0
 16 40  1  6  0  0  0
 17 41  1  0  0  0  0
 17 42  1  0  0  0  0
 18 19  2  0  0  0  0
 18 20  1  0  0  0  0
 19 23  1  0  0  0  0
 20 21  2  0  0  0  0
 20 46  1  0  0  0  0
 21 22  1  0  0  0  0
 22 23  2  0  0  0  0
 22 25  1  0  0  0  0
 23 47  1  0  0  0  0
 24 27  1  0  0  0  0
 25 26  1  0  0  0  0
 26 28  2  0  0  0  0
 26 29  1  0  0  0  0
 27 48  1  0  0  0  0
 27 49  1  0  0  0  0
 27 50  1  0  0  0  0
 28 51  1  0  0  0  0
 29 31  2  0  0  0  0
 29 32  1  0  0  0  0
 30 52  1  0  0  0  0
 30 53  1  0  0  0  0
 30 54  1  0  0  0  0
 31 33  1  0  0  0  0
 31 55  1  0  0  0  0
 32 34  2  0  0  0  0
 32 56  1  0  0  0  0
 33 35  2  0  0  0  0
 33 57  1  0  0  0  0
 34 35  1  0  0  0  0
 34 58  1  0  0  0  0
M  END
>  <PUBCHEM_COMPOUND_CID>
10228095

>  <PUBCHEM_COMPOUND_CANONICALIZED>
1

>  <PUBCHEM_CACTVS_COMPLEXITY>
792

>  <PUBCHEM_CACTVS_HBOND_ACCEPTOR>
11

>  <PUBCHEM_CACTVS_HBOND_DONOR>
4

>  <PUBCHEM_CACTVS_ROTATABLE_BOND>
7

>  <PUBCHEM_CACTVS_SUBSKEYS>
AAADceB4PAAAAAAAAAAAAAAAAAAAAAAAAAA0YIEAAAAAAACBQAAAGgAACAAADBSwmAMyDoAABgCIAqDSCAACCAAkIAAIiAEGiMgdNzaGNRqieWKl4BUPuYfK7PzOIQABCAAIQABCAAIQABCAAAAAAAAAAA==

>  <PUBCHEM_IUPAC_OPENEYE_NAME>
[(2R,3S,4S,5R,6S)-3,4,5-trihydroxy-6-[3-(4-hydroxyphenyl)-6-methoxy-4-oxo-chromen-7-yl]oxy-tetrahydropyran-2-yl]methyl acetate

>  <PUBCHEM_IUPAC_CAS_NAME>
acetic acid [(2R,3S,4S,5R,6S)-3,4,5-trihydroxy-6-[[3-(4-hydroxyphenyl)-6-methoxy-4-oxo-1-benzopyran-7-yl]oxy]-2-oxanyl]methyl ester

>  <PUBCHEM_IUPAC_NAME>
[(2R,3S,4S,5R,6S)-3,4,5-trihydroxy-6-[3-(4-hydroxyphenyl)-6-methoxy-4-oxochromen-7-yl]oxyoxan-2-yl]methyl acetate

>  <PUBCHEM_IUPAC_SYSTEMATIC_NAME>
[(2R,3S,4S,5R,6S)-6-[3-(4-hydroxyphenyl)-6-methoxy-4-oxidanylidene-chromen-7-yl]oxy-3,4,5-tris(oxidanyl)oxan-2-yl]methyl ethanoate

>  <PUBCHEM_IUPAC_TRADITIONAL_NAME>
acetic acid [(2R,3S,4S,5R,6S)-3,4,5-trihydroxy-6-[3-(4-hydroxyphenyl)-4-keto-6-methoxy-chromen-7-yl]oxy-tetrahydropyran-2-yl]methyl ester

>  <PUBCHEM_IUPAC_INCHI>
InChI=1S/C24H24O11/c1-11(25)32-10-19-21(28)22(29)23(30)24(35-19)34-18-8-16-14(7-17(18)31-2)20(27)15(9-33-16)12-3-5-13(26)6-4-12/h3-9,19,21-24,26,28-30H,10H2,1-2H3/t19-,21-,22+,23-,24-/m1/s1

>  <PUBCHEM_IUPAC_INCHIKEY>
DUBPGEJGGVZKDD-PFKOEMKTSA-N

>  <PUBCHEM_XLOGP3_AA>
0.7

>  <PUBCHEM_EXACT_MASS>
488.132

>  <PUBCHEM_MOLECULAR_FORMULA>
C24H24O11

>  <PUBCHEM_MOLECULAR_WEIGHT>
488.445

>  <PUBCHEM_OPENEYE_CAN_SMILES>
CC(=O)OCC1C(C(C(C(O1)OC2=C(C=C3C(=C2)OC=C(C3=O)C4=CC=C(C=C4)O)OC)O)O)O

>  <PUBCHEM_OPENEYE_ISO_SMILES>
CC(=O)OC[C@@H]1[C@H]([C@@H]([C@H]([C@@H](O1)OC2=C(C=C3C(=C2)OC=C(C3=O)C4=CC=C(C=C4)O)OC)O)O)O

>  <PUBCHEM_CACTVS_TPSA>
161

>  <PUBCHEM_MONOISOTOPIC_WEIGHT>
488.132

>  <PUBCHEM_TOTAL_CHARGE>
0

>  <PUBCHEM_HEAVY_ATOM_COUNT>
35

>  <PUBCHEM_ATOM_DEF_STEREO_COUNT>
5

>  <PUBCHEM_ATOM_UDEF_STEREO_COUNT>
0

>  <PUBCHEM_BOND_DEF_STEREO_COUNT>
0

>  <PUBCHEM_BOND_UDEF_STEREO_COUNT>
0

>  <PUBCHEM_ISOTOPIC_ATOM_COUNT>
0

>  <PUBCHEM_COMPONENT_COUNT>
1

>  <PUBCHEM_CACTVS_TAUTO_COUNT>
2

>  <PUBCHEM_COORDINATE_TYPE>
1
5
255

>  <PUBCHEM_BONDANNOTATIONS>
14  17  5
18  19  8
18  20  8
19  23  8
16  2  5
20  21  8
21  22  8
22  23  8
22  25  8
25  26  8
26  28  8
29  31  8
29  32  8
12  3  6
31  33  8
32  34  8
33  35  8
34  35  8
13  4  5
15  5  6
8  21  8
8  28  8

$$$$
