10228895
 OpenBabel06101807152D

 63 65  0  0  0  0  0  0  0  0999 V2000
    5.1350   -1.2500    0.0000 O   0  0  0  0  0  0  0  0  0  0  0  0
    8.5991   -1.2500    0.0000 O   0  0  0  0  0  0  0  0  0  0  0  0
    8.5991    2.7500    0.0000 O   0  0  0  0  0  0  0  0  0  0  0  0
    4.2690   -2.7500    0.0000 O   0  0  0  0  0  0  0  0  0  0  0  0
    2.5369   -5.7500    0.0000 O   0  0  0  0  0  0  0  0  0  0  0  0
    4.2690   -8.7500    0.0000 O   0  0  0  0  0  0  0  0  0  0  0  0
   10.3312    2.7500    0.0000 O   0  0  0  0  0  0  0  0  0  0  0  0
   10.3312    8.7500    0.0000 O   0  0  0  0  0  0  0  0  0  0  0  0
    6.8671   -1.2500    0.0000 C   0  0  0  0  0  0  0  0  0  0  0  0
    6.8671   -0.2500    0.0000 C   0  0  0  0  0  0  0  0  0  0  0  0
    6.0010   -1.7500    0.0000 C   0  0  0  0  0  0  0  0  0  0  0  0
    6.0010   -2.7500    0.0000 C   0  0  0  0  0  0  0  0  0  0  0  0
    7.7331   -1.7500    0.0000 C   0  0  0  0  0  0  0  0  0  0  0  0
    7.7331    0.2500    0.0000 C   0  0  0  0  0  0  0  0  0  0  0  0
    7.7331    1.2500    0.0000 C   0  0  0  0  0  0  0  0  0  0  0  0
    6.8671   -3.2500    0.0000 C   0  0  0  0  0  0  0  0  0  0  0  0
    7.7331   -2.7500    0.0000 C   0  0  0  0  0  0  0  0  0  0  0  0
    8.5991    1.7500    0.0000 C   0  0  0  0  0  0  0  0  0  0  0  0
    5.1350   -3.2500    0.0000 C   0  0  0  0  0  0  0  0  0  0  0  0
    6.8671    1.7500    0.0000 C   0  0  0  0  0  0  0  0  0  0  0  0
    5.1350   -4.2500    0.0000 C   0  0  0  0  0  0  0  0  0  0  0  0
    4.2690   -4.7500    0.0000 C   0  0  0  0  0  0  0  0  0  0  0  0
    4.2690   -5.7500    0.0000 C   0  0  0  0  0  0  0  0  0  0  0  0
    3.4030   -6.2500    0.0000 C   0  0  0  0  0  0  0  0  0  0  0  0
    5.1350   -6.2500    0.0000 C   0  0  0  0  0  0  0  0  0  0  0  0
    9.4651    3.2500    0.0000 C   0  0  0  0  0  0  0  0  0  0  0  0
    3.4030   -7.2500    0.0000 C   0  0  0  0  0  0  0  0  0  0  0  0
    5.1350   -7.2500    0.0000 C   0  0  0  0  0  0  0  0  0  0  0  0
    4.2690   -7.7500    0.0000 C   0  0  0  0  0  0  0  0  0  0  0  0
   10.3312    5.7500    0.0000 C   0  0  0  0  0  0  0  0  0  0  0  0
    9.4651    4.2500    0.0000 C   0  0  0  0  0  0  0  0  0  0  0  0
   10.3312    4.7500    0.0000 C   0  0  0  0  0  0  0  0  0  0  0  0
   11.1972    6.2500    0.0000 C   0  0  0  0  0  0  0  0  0  0  0  0
    9.4651    6.2500    0.0000 C   0  0  0  0  0  0  0  0  0  0  0  0
   11.1972    7.2500    0.0000 C   0  0  0  0  0  0  0  0  0  0  0  0
    9.4651    7.2500    0.0000 C   0  0  0  0  0  0  0  0  0  0  0  0
   10.3312    7.7500    0.0000 C   0  0  0  0  0  0  0  0  0  0  0  0
    6.6550    0.3326    0.0000 H   0  0  0  0  0  0  0  0  0  0  0  0
    6.2565   -0.3577    0.0000 H   0  0  0  0  0  0  0  0  0  0  0  0
    8.2700   -0.0600    0.0000 H   0  0  0  0  0  0  0  0  0  0  0  0
    6.8671   -3.8700    0.0000 H   0  0  0  0  0  0  0  0  0  0  0  0
    8.2700   -3.0600    0.0000 H   0  0  0  0  0  0  0  0  0  0  0  0
    8.8112    1.1674    0.0000 H   0  0  0  0  0  0  0  0  0  0  0  0
    9.2097    1.8577    0.0000 H   0  0  0  0  0  0  0  0  0  0  0  0
    7.1771    2.2869    0.0000 H   0  0  0  0  0  0  0  0  0  0  0  0
    6.3301    2.0600    0.0000 H   0  0  0  0  0  0  0  0  0  0  0  0
    6.5571    1.2131    0.0000 H   0  0  0  0  0  0  0  0  0  0  0  0
    5.6720   -4.5600    0.0000 H   0  0  0  0  0  0  0  0  0  0  0  0
    5.1350   -0.6300    0.0000 H   0  0  0  0  0  0  0  0  0  0  0  0
    9.1360   -1.5600    0.0000 H   0  0  0  0  0  0  0  0  0  0  0  0
    3.7320   -4.4400    0.0000 H   0  0  0  0  0  0  0  0  0  0  0  0
    5.6720   -5.9400    0.0000 H   0  0  0  0  0  0  0  0  0  0  0  0
    2.8660   -7.5600    0.0000 H   0  0  0  0  0  0  0  0  0  0  0  0
    5.6720   -7.5600    0.0000 H   0  0  0  0  0  0  0  0  0  0  0  0
    8.9282    4.5600    0.0000 H   0  0  0  0  0  0  0  0  0  0  0  0
   10.8681    4.4400    0.0000 H   0  0  0  0  0  0  0  0  0  0  0  0
   11.7341    5.9400    0.0000 H   0  0  0  0  0  0  0  0  0  0  0  0
    8.9282    5.9400    0.0000 H   0  0  0  0  0  0  0  0  0  0  0  0
   11.7341    7.5600    0.0000 H   0  0  0  0  0  0  0  0  0  0  0  0
    8.9282    7.5600    0.0000 H   0  0  0  0  0  0  0  0  0  0  0  0
    2.0000   -6.0600    0.0000 H   0  0  0  0  0  0  0  0  0  0  0  0
    4.8059   -9.0600    0.0000 H   0  0  0  0  0  0  0  0  0  0  0  0
   10.8681    9.0600    0.0000 H   0  0  0  0  0  0  0  0  0  0  0  0
  1 11  1  0  0  0  0
  1 49  1  0  0  0  0
  2 13  1  0  0  0  0
  2 50  1  0  0  0  0
  3 18  1  0  0  0  0
  3 26  1  0  0  0  0
  4 19  2  0  0  0  0
  5 24  1  0  0  0  0
  5 61  1  0  0  0  0
  6 29  1  0  0  0  0
  6 62  1  0  0  0  0
  7 26  2  0  0  0  0
  8 37  1  0  0  0  0
  8 63  1  0  0  0  0
  9 10  1  0  0  0  0
  9 11  1  0  0  0  0
  9 13  2  0  0  0  0
 10 14  1  0  0  0  0
 10 38  1  0  0  0  0
 10 39  1  0  0  0  0
 11 12  2  0  0  0  0
 12 16  1  0  0  0  0
 12 19  1  0  0  0  0
 13 17  1  0  0  0  0
 14 15  2  0  0  0  0
 14 40  1  0  0  0  0
 15 18  1  0  0  0  0
 15 20  1  0  0  0  0
 16 17  2  0  0  0  0
 16 41  1  0  0  0  0
 17 42  1  0  0  0  0
 18 43  1  0  0  0  0
 18 44  1  0  0  0  0
 19 21  1  0  0  0  0
 20 45  1  0  0  0  0
 20 46  1  0  0  0  0
 20 47  1  0  0  0  0
 21 22  2  0  0  0  0
 21 48  1  0  0  0  0
 22 23  1  0  0  0  0
 22 51  1  0  0  0  0
 23 24  2  0  0  0  0
 23 25  1  0  0  0  0
 24 27  1  0  0  0  0
 25 28  2  0  0  0  0
 25 52  1  0  0  0  0
 26 31  1  0  0  0  0
 27 29  2  0  0  0  0
 27 53  1  0  0  0  0
 28 29  1  0  0  0  0
 28 54  1  0  0  0  0
 30 32  1  0  0  0  0
 30 33  2  0  0  0  0
 30 34  1  0  0  0  0
 31 32  2  0  0  0  0
 31 55  1  0  0  0  0
 32 56  1  0  0  0  0
 33 35  1  0  0  0  0
 33 57  1  0  0  0  0
 34 36  2  0  0  0  0
 34 58  1  0  0  0  0
 35 37  2  0  0  0  0
 35 59  1  0  0  0  0
 36 37  1  0  0  0  0
 36 60  1  0  0  0  0
M  END
>  <PUBCHEM_COMPOUND_CID>
10228895

>  <PUBCHEM_COMPOUND_CANONICALIZED>
1

>  <PUBCHEM_CACTVS_COMPLEXITY>
841

>  <PUBCHEM_CACTVS_HBOND_ACCEPTOR>
8

>  <PUBCHEM_CACTVS_HBOND_DONOR>
5

>  <PUBCHEM_CACTVS_ROTATABLE_BOND>
10

>  <PUBCHEM_CACTVS_SUBSKEYS>
AAADceB4PAAAAAAAAAAAAAAAAAAAAAAAAAAwYMAAAAAAAAABUAAAGgAACAAADASgmAIyDoAABgCIAqDSCAACAAAkIAAIiAEGCMgIJzaCNRKCcUAl4BUIuYeI7OTOIAACCAAIAABAAAQQABAAAAAAAAAAAA==

>  <PUBCHEM_IUPAC_OPENEYE_NAME>
[(E)-4-[3-[(E)-3-(2,4-dihydroxyphenyl)prop-2-enoyl]-2,6-dihydroxy-phenyl]-2-methyl-but-2-enyl] (E)-3-(4-hydroxyphenyl)prop-2-enoate

>  <PUBCHEM_IUPAC_CAS_NAME>
(E)-3-(4-hydroxyphenyl)-2-propenoic acid [(E)-4-[3-[(E)-3-(2,4-dihydroxyphenyl)-1-oxoprop-2-enyl]-2,6-dihydroxyphenyl]-2-methylbut-2-enyl] ester

>  <PUBCHEM_IUPAC_NAME>
[(E)-4-[3-[(E)-3-(2,4-dihydroxyphenyl)prop-2-enoyl]-2,6-dihydroxyphenyl]-2-methylbut-2-enyl] (E)-3-(4-hydroxyphenyl)prop-2-enoate

>  <PUBCHEM_IUPAC_SYSTEMATIC_NAME>
[(E)-4-[3-[(E)-3-[2,4-bis(oxidanyl)phenyl]prop-2-enoyl]-2,6-bis(oxidanyl)phenyl]-2-methyl-but-2-enyl] (E)-3-(4-hydroxyphenyl)prop-2-enoate

>  <PUBCHEM_IUPAC_TRADITIONAL_NAME>
(E)-3-(4-hydroxyphenyl)acrylic acid [(E)-4-[3-[(E)-3-(2,4-dihydroxyphenyl)acryloyl]-2,6-dihydroxy-phenyl]-2-methyl-but-2-enyl] ester

>  <PUBCHEM_IUPAC_INCHI>
InChI=1S/C29H26O8/c1-18(17-37-28(35)15-5-19-3-8-21(30)9-4-19)2-11-23-26(33)14-12-24(29(23)36)25(32)13-7-20-6-10-22(31)16-27(20)34/h2-10,12-16,30-31,33-34,36H,11,17H2,1H3/b13-7+,15-5+,18-2+

>  <PUBCHEM_IUPAC_INCHIKEY>
XXQUTHYOIGFGPG-MPKNGZDBSA-N

>  <PUBCHEM_XLOGP3_AA>
5.8

>  <PUBCHEM_EXACT_MASS>
502.163

>  <PUBCHEM_MOLECULAR_FORMULA>
C29H26O8

>  <PUBCHEM_MOLECULAR_WEIGHT>
502.519

>  <PUBCHEM_OPENEYE_CAN_SMILES>
CC(=CCC1=C(C=CC(=C1O)C(=O)C=CC2=C(C=C(C=C2)O)O)O)COC(=O)C=CC3=CC=C(C=C3)O

>  <PUBCHEM_OPENEYE_ISO_SMILES>
C/C(=C\CC1=C(C=CC(=C1O)C(=O)/C=C/C2=C(C=C(C=C2)O)O)O)/COC(=O)/C=C/C3=CC=C(C=C3)O

>  <PUBCHEM_CACTVS_TPSA>
145

>  <PUBCHEM_MONOISOTOPIC_WEIGHT>
502.163

>  <PUBCHEM_TOTAL_CHARGE>
0

>  <PUBCHEM_HEAVY_ATOM_COUNT>
37

>  <PUBCHEM_ATOM_DEF_STEREO_COUNT>
0

>  <PUBCHEM_ATOM_UDEF_STEREO_COUNT>
0

>  <PUBCHEM_BOND_DEF_STEREO_COUNT>
3

>  <PUBCHEM_BOND_UDEF_STEREO_COUNT>
0

>  <PUBCHEM_ISOTOPIC_ATOM_COUNT>
0

>  <PUBCHEM_COMPONENT_COUNT>
1

>  <PUBCHEM_CACTVS_TAUTO_COUNT>
684

>  <PUBCHEM_COORDINATE_TYPE>
1
5
255

>  <PUBCHEM_BONDANNOTATIONS>
11  12  8
12  16  8
13  17  8
16  17  8
23  24  8
23  25  8
24  27  8
25  28  8
27  29  8
28  29  8
30  33  8
30  34  8
33  35  8
34  36  8
35  37  8
36  37  8
9  11  8
9  13  8

$$$$
