102317071
 OpenBabel06101807152D

 65 69  0  0  1  0  0  0  0  0999 V2000
    5.1350   -1.3501    0.0000 O   0  0  0  0  0  0  0  0  0  0  0  0
    6.8671   -1.3501    0.0000 O   0  0  0  0  0  0  0  0  0  0  0  0
    5.1350   -4.3501    0.0000 O   0  0  0  0  0  0  0  0  0  0  0  0
    3.4030   -3.3501    0.0000 O   0  0  0  0  0  0  0  0  0  0  0  0
    6.8671   -3.3501    0.0000 O   0  0  0  0  0  0  0  0  0  0  0  0
    2.5369   -1.8501    0.0000 O   0  0  0  0  0  0  0  0  0  0  0  0
    8.5359    0.7029    0.0000 O   0  3  0  0  0  0  0  0  0  0  0  0
    5.2572    1.8735    0.0000 O   0  0  0  0  0  0  0  0  0  0  0  0
    7.9467    4.1836    0.0000 O   0  0  0  0  0  0  0  0  0  0  0  0
    8.7954   -3.6482    0.0000 O   0  0  0  0  0  0  0  0  0  0  0  0
   11.4491   -1.4216    0.0000 O   0  0  0  0  0  0  0  0  0  0  0  0
   10.7650   -3.3009    0.0000 O   0  0  0  0  0  0  0  0  0  0  0  0
    3.3032    1.4934    0.0000 O   0  0  0  0  0  0  0  0  0  0  0  0
    3.6376   -0.2060    0.0000 O   0  0  0  0  0  0  0  0  0  0  0  0
    5.1350   -3.3501    0.0000 C   0  0  1  0  0  0  0  0  0  0  0  0
    4.2690   -2.8501    0.0000 C   0  0  1  0  0  0  0  0  0  0  0  0
    6.0010   -2.8501    0.0000 C   0  0  2  0  0  0  0  0  0  0  0  0
    4.2690   -1.8501    0.0000 C   0  0  1  0  0  0  0  0  0  0  0  0
    6.0010   -1.8501    0.0000 C   0  0  1  0  0  0  0  0  0  0  0  0
    3.4030   -1.3501    0.0000 C   0  0  0  0  0  0  0  0  0  0  0  0
    7.2091   -0.4104    0.0000 C   0  0  0  0  0  0  0  0  0  0  0  0
    6.5663    0.3556    0.0000 C   0  0  0  0  0  0  0  0  0  0  0  0
    8.1939   -0.2368    0.0000 C   0  0  0  0  0  0  0  0  0  0  0  0
    6.9083    1.2953    0.0000 C   0  0  0  0  0  0  0  0  0  0  0  0
    7.8931    1.4690    0.0000 C   0  0  0  0  0  0  0  0  0  0  0  0
    6.2265    2.0828    0.0000 C   0  0  0  0  0  0  0  0  0  0  0  0
    5.5899    0.1822    0.0000 C   0  0  0  0  0  0  0  0  0  0  0  0
    8.8367   -1.0028    0.0000 C   0  0  0  0  0  0  0  0  0  0  0  0
    8.2644    2.4422    0.0000 C   0  0  0  0  0  0  0  0  0  0  0  0
    4.9422    0.9332    0.0000 C   0  0  0  0  0  0  0  0  0  0  0  0
    6.5752    3.0644    0.0000 C   0  0  0  0  0  0  0  0  0  0  0  0
    7.6010    3.2452    0.0000 C   0  0  0  0  0  0  0  0  0  0  0  0
    9.8215   -0.8292    0.0000 C   0  0  0  0  0  0  0  0  0  0  0  0
    8.4947   -1.9425    0.0000 C   0  0  0  0  0  0  0  0  0  0  0  0
    9.1374   -2.7085    0.0000 C   0  0  0  0  0  0  0  0  0  0  0  0
   10.4643   -1.5952    0.0000 C   0  0  0  0  0  0  0  0  0  0  0  0
   10.1223   -2.5349    0.0000 C   0  0  0  0  0  0  0  0  0  0  0  0
    3.9610    0.7402    0.0000 C   0  0  0  0  0  0  0  0  0  0  0  0
    7.8106   -3.8219    0.0000 C   0  0  0  0  0  0  0  0  0  0  0  0
   11.7911   -0.4819    0.0000 C   0  0  0  0  0  0  0  0  0  0  0  0
    5.6720   -3.6601    0.0000 H   0  0  0  0  0  0  0  0  0  0  0  0
    4.2690   -3.4701    0.0000 H   0  0  0  0  0  0  0  0  0  0  0  0
    6.5380   -2.5401    0.0000 H   0  0  0  0  0  0  0  0  0  0  0  0
    4.2690   -1.2301    0.0000 H   0  0  0  0  0  0  0  0  0  0  0  0
    6.0010   -1.2301    0.0000 H   0  0  0  0  0  0  0  0  0  0  0  0
    3.8015   -0.8752    0.0000 H   0  0  0  0  0  0  0  0  0  0  0  0
    3.0044   -0.8752    0.0000 H   0  0  0  0  0  0  0  0  0  0  0  0
    4.5981   -4.6601    0.0000 H   0  0  0  0  0  0  0  0  0  0  0  0
    3.4030   -3.9701    0.0000 H   0  0  0  0  0  0  0  0  0  0  0  0
    6.8671   -3.9701    0.0000 H   0  0  0  0  0  0  0  0  0  0  0  0
    2.0000   -1.5401    0.0000 H   0  0  0  0  0  0  0  0  0  0  0  0
    5.3821   -0.4020    0.0000 H   0  0  0  0  0  0  0  0  0  0  0  0
    8.8762    2.5428    0.0000 H   0  0  0  0  0  0  0  0  0  0  0  0
    6.1749    3.5378    0.0000 H   0  0  0  0  0  0  0  0  0  0  0  0
   10.0335   -0.2465    0.0000 H   0  0  0  0  0  0  0  0  0  0  0  0
    7.8841   -2.0502    0.0000 H   0  0  0  0  0  0  0  0  0  0  0  0
    7.5500    4.6601    0.0000 H   0  0  0  0  0  0  0  0  0  0  0  0
   10.5530   -3.8836    0.0000 H   0  0  0  0  0  0  0  0  0  0  0  0
    2.6949    1.3738    0.0000 H   0  0  0  0  0  0  0  0  0  0  0  0
    7.7030   -3.2113    0.0000 H   0  0  0  0  0  0  0  0  0  0  0  0
    7.2000   -3.9295    0.0000 H   0  0  0  0  0  0  0  0  0  0  0  0
    7.9183   -4.4325    0.0000 H   0  0  0  0  0  0  0  0  0  0  0  0
   12.3737   -0.6939    0.0000 H   0  0  0  0  0  0  0  0  0  0  0  0
   12.0032    0.1007    0.0000 H   0  0  0  0  0  0  0  0  0  0  0  0
   11.2085   -0.2698    0.0000 H   0  0  0  0  0  0  0  0  0  0  0  0
  1 18  1  0  0  0  0
  1 19  1  0  0  0  0
  2 21  1  0  0  0  0
  3 48  1  0  0  0  0
  4 49  1  0  0  0  0
  5 50  1  0  0  0  0
  6 20  1  0  0  0  0
  6 51  1  0  0  0  0
  7 23  2  0  0  0  0
  7 25  1  0  0  0  0
  8 26  1  0  0  0  0
  8 30  1  0  0  0  0
  9 32  1  0  0  0  0
  9 57  1  0  0  0  0
 10 35  1  0  0  0  0
 10 39  1  0  0  0  0
 11 36  1  0  0  0  0
 11 40  1  0  0  0  0
 12 37  1  0  0  0  0
 12 58  1  0  0  0  0
 13 38  1  0  0  0  0
 13 59  1  0  0  0  0
 14 38  2  0  0  0  0
 15  3  1  0  0  0  0
 15 16  1  6  0  0  0
 15 41  1  0  0  0  0
 16  4  1  0  0  0  0
 16 18  1  1  0  0  0
 16 42  1  0  0  0  0
 17  5  1  0  0  0  0
 17 15  1  1  0  0  0
 17 43  1  0  0  0  0
 18 20  1  0  0  0  0
 18 44  1  6  0  0  0
 19  2  1  0  0  0  0
 19 17  1  6  0  0  0
 19 45  1  0  0  0  0
 20 46  1  0  0  0  0
 20 47  1  0  0  0  0
 21 22  2  0  0  0  0
 21 23  1  0  0  0  0
 22 24  1  0  0  0  0
 22 27  1  0  0  0  0
 23 28  1  0  0  0  0
 24 25  2  0  0  0  0
 24 26  1  0  0  0  0
 25 29  1  0  0  0  0
 26 31  2  0  0  0  0
 27 30  2  0  0  0  0
 27 52  1  0  0  0  0
 28 33  2  0  0  0  0
 28 34  1  0  0  0  0
 29 32  2  0  0  0  0
 29 53  1  0  0  0  0
 30 38  1  0  0  0  0
 31 32  1  0  0  0  0
 31 54  1  0  0  0  0
 33 36  1  0  0  0  0
 33 55  1  0  0  0  0
 34 35  2  0  0  0  0
 34 56  1  0  0  0  0
 35 37  1  0  0  0  0
 36 37  2  0  0  0  0
 39 60  1  0  0  0  0
 39 61  1  0  0  0  0
 39 62  1  0  0  0  0
 40 63  1  0  0  0  0
 40 64  1  0  0  0  0
 40 65  1  0  0  0  0
M  CHG  1   7   1
M  END
>  <PUBCHEM_COMPOUND_CID>
102317071

>  <PUBCHEM_COMPOUND_CANONICALIZED>
1

>  <PUBCHEM_CACTVS_COMPLEXITY>
917

>  <PUBCHEM_CACTVS_HBOND_ACCEPTOR>
13

>  <PUBCHEM_CACTVS_HBOND_DONOR>
7

>  <PUBCHEM_CACTVS_ROTATABLE_BOND>
7

>  <PUBCHEM_CACTVS_SUBSKEYS>
AAADceB4PAAAAAAAAAAAAAAAAAAAAAAAAAA0aIECAAAAAACR9AAAGgAACAAADBSwmAMyDsAABkCIAqDSCAICCAAkIAAAiAFGiMgdNzaGNR6ieWOl4BUPuYfK7PzOoAABCAAIQABAAAIQABCAAAAAAAAAAA==

>  <PUBCHEM_IUPAC_INCHI>
InChI=1S/C26H24O14/c1-35-14-3-9(4-15(36-2)19(14)29)23-24(40-26-22(32)21(31)20(30)17(8-27)39-26)11-7-16(25(33)34)37-12-5-10(28)6-13(38-23)18(11)12/h3-7,17,20-22,26-27,30-32H,8H2,1-2H3,(H2-,28,29,33,34)/p+1/t17-,20-,21+,22-,26+/m1/s1

>  <PUBCHEM_IUPAC_INCHIKEY>
QVULQDHVHOUFCX-AQFMKAHKSA-O

>  <PUBCHEM_EXACT_MASS>
561.124

>  <PUBCHEM_MOLECULAR_FORMULA>
C26H25O14+

>  <PUBCHEM_MOLECULAR_WEIGHT>
561.472

>  <PUBCHEM_OPENEYE_CAN_SMILES>
COC1=CC(=CC(=C1O)OC)C2=[O+]C3=CC(=CC4=C3C(=C2OC5C(C(C(C(O5)CO)O)O)O)C=C(O4)C(=O)O)O

>  <PUBCHEM_OPENEYE_ISO_SMILES>
COC1=CC(=CC(=C1O)OC)C2=[O+]C3=CC(=CC4=C3C(=C2O[C@H]5[C@@H]([C@H]([C@@H]([C@H](O5)CO)O)O)O)C=C(O4)C(=O)O)O

>  <PUBCHEM_CACTVS_TPSA>
206

>  <PUBCHEM_MONOISOTOPIC_WEIGHT>
561.124

>  <PUBCHEM_TOTAL_CHARGE>
1

>  <PUBCHEM_HEAVY_ATOM_COUNT>
40

>  <PUBCHEM_ATOM_DEF_STEREO_COUNT>
5

>  <PUBCHEM_ATOM_UDEF_STEREO_COUNT>
0

>  <PUBCHEM_BOND_DEF_STEREO_COUNT>
0

>  <PUBCHEM_BOND_UDEF_STEREO_COUNT>
0

>  <PUBCHEM_ISOTOPIC_ATOM_COUNT>
0

>  <PUBCHEM_COMPONENT_COUNT>
1

>  <PUBCHEM_CACTVS_TAUTO_COUNT>
19

>  <PUBCHEM_COORDINATE_TYPE>
1
5
255

>  <PUBCHEM_BONDANNOTATIONS>
18  20  5
19  2  5
21  22  8
21  23  8
22  24  8
24  25  8
24  26  8
25  29  8
26  31  8
28  33  8
28  34  8
29  32  8
15  3  5
31  32  8
33  36  8
34  35  8
35  37  8
36  37  8
16  4  6
17  5  6
7  23  8
7  25  8

$$$$
