102316584
 OpenBabel06101807152D

 62 65  0  0  0  0  0  0  0  0999 V2000
    4.5981   -1.6550    0.0000 O   0  0  0  0  0  0  0  0  0  0  0  0
    2.8660    1.3450    0.0000 O   0  0  0  0  0  0  0  0  0  0  0  0
   10.6603    0.8450    0.0000 O   0  0  0  0  0  0  0  0  0  0  0  0
    8.0622    4.3450    0.0000 O   0  0  0  0  0  0  0  0  0  0  0  0
    2.8660   -4.6550    0.0000 O   0  0  0  0  0  0  0  0  0  0  0  0
    5.4641    0.8450    0.0000 C   0  0  0  0  0  0  0  0  0  0  0  0
    4.5981    1.3450    0.0000 C   0  0  0  0  0  0  0  0  0  0  0  0
    6.3301    1.3450    0.0000 C   0  0  0  0  0  0  0  0  0  0  0  0
    3.7320   -0.1550    0.0000 C   0  0  0  0  0  0  0  0  0  0  0  0
    3.7320    0.8450    0.0000 C   0  0  0  0  0  0  0  0  0  0  0  0
    4.5981    2.3450    0.0000 C   0  0  0  0  0  0  0  0  0  0  0  0
    7.1962    0.8450    0.0000 C   0  0  0  0  0  0  0  0  0  0  0  0
    5.4641   -0.1550    0.0000 C   0  0  0  0  0  0  0  0  0  0  0  0
    4.5981   -0.6550    0.0000 C   0  0  0  0  0  0  0  0  0  0  0  0
    2.8660   -0.6550    0.0000 C   0  0  0  0  0  0  0  0  0  0  0  0
    5.4641    2.8450    0.0000 C   0  0  0  0  0  0  0  0  0  0  0  0
    8.0622    1.3450    0.0000 C   0  0  0  0  0  0  0  0  0  0  0  0
    2.8660   -1.6550    0.0000 C   0  0  0  0  0  0  0  0  0  0  0  0
    6.3301    2.3450    0.0000 C   0  0  0  0  0  0  0  0  0  0  0  0
    5.4641    3.8450    0.0000 C   0  0  0  0  0  0  0  0  0  0  0  0
    8.9282    0.8450    0.0000 C   0  0  0  0  0  0  0  0  0  0  0  0
    8.0622    2.3450    0.0000 C   0  0  0  0  0  0  0  0  0  0  0  0
    2.0000   -2.1550    0.0000 C   0  0  0  0  0  0  0  0  0  0  0  0
    3.7320   -2.1550    0.0000 C   0  0  0  0  0  0  0  0  0  0  0  0
    7.1962    2.8450    0.0000 C   0  0  0  0  0  0  0  0  0  0  0  0
    6.3301    4.3450    0.0000 C   0  0  0  0  0  0  0  0  0  0  0  0
    9.7942    1.3450    0.0000 C   0  0  0  0  0  0  0  0  0  0  0  0
    8.9282    2.8450    0.0000 C   0  0  0  0  0  0  0  0  0  0  0  0
    7.1962    3.8450    0.0000 C   0  0  0  0  0  0  0  0  0  0  0  0
    5.4641   -2.1550    0.0000 C   0  0  0  0  0  0  0  0  0  0  0  0
    2.0000   -3.1550    0.0000 C   0  0  0  0  0  0  0  0  0  0  0  0
    3.7320   -3.1550    0.0000 C   0  0  0  0  0  0  0  0  0  0  0  0
    9.7942    2.3450    0.0000 C   0  0  0  0  0  0  0  0  0  0  0  0
    2.8660   -3.6550    0.0000 C   0  0  0  0  0  0  0  0  0  0  0  0
    6.7287    1.8200    0.0000 H   0  0  0  0  0  0  0  0  0  0  0  0
    5.9316    1.8200    0.0000 H   0  0  0  0  0  0  0  0  0  0  0  0
    4.3860    2.9276    0.0000 H   0  0  0  0  0  0  0  0  0  0  0  0
    3.9875    2.2373    0.0000 H   0  0  0  0  0  0  0  0  0  0  0  0
    6.7976    0.3701    0.0000 H   0  0  0  0  0  0  0  0  0  0  0  0
    7.5947    0.3701    0.0000 H   0  0  0  0  0  0  0  0  0  0  0  0
    6.0010   -0.4650    0.0000 H   0  0  0  0  0  0  0  0  0  0  0  0
    2.6540   -0.0724    0.0000 H   0  0  0  0  0  0  0  0  0  0  0  0
    2.2554   -0.7627    0.0000 H   0  0  0  0  0  0  0  0  0  0  0  0
    6.3301    1.7250    0.0000 H   0  0  0  0  0  0  0  0  0  0  0  0
    4.9272    4.1550    0.0000 H   0  0  0  0  0  0  0  0  0  0  0  0
    2.3291    1.0350    0.0000 H   0  0  0  0  0  0  0  0  0  0  0  0
    8.9282    0.2250    0.0000 H   0  0  0  0  0  0  0  0  0  0  0  0
    7.5252    2.6550    0.0000 H   0  0  0  0  0  0  0  0  0  0  0  0
    1.4631   -1.8450    0.0000 H   0  0  0  0  0  0  0  0  0  0  0  0
    4.2690   -1.8450    0.0000 H   0  0  0  0  0  0  0  0  0  0  0  0
    7.7331    2.5350    0.0000 H   0  0  0  0  0  0  0  0  0  0  0  0
    6.3301    4.9650    0.0000 H   0  0  0  0  0  0  0  0  0  0  0  0
    8.9282    3.4650    0.0000 H   0  0  0  0  0  0  0  0  0  0  0  0
    5.1541   -2.6919    0.0000 H   0  0  0  0  0  0  0  0  0  0  0  0
    6.0010   -2.4650    0.0000 H   0  0  0  0  0  0  0  0  0  0  0  0
    5.7741   -1.6181    0.0000 H   0  0  0  0  0  0  0  0  0  0  0  0
    1.4631   -3.4650    0.0000 H   0  0  0  0  0  0  0  0  0  0  0  0
    4.2690   -3.4650    0.0000 H   0  0  0  0  0  0  0  0  0  0  0  0
   10.3312    2.6550    0.0000 H   0  0  0  0  0  0  0  0  0  0  0  0
   11.1972    1.1550    0.0000 H   0  0  0  0  0  0  0  0  0  0  0  0
    8.0622    4.9650    0.0000 H   0  0  0  0  0  0  0  0  0  0  0  0
    2.3291   -4.9650    0.0000 H   0  0  0  0  0  0  0  0  0  0  0  0
  1 14  1  0  0  0  0
  1 30  1  0  0  0  0
  2 10  1  0  0  0  0
  2 46  1  0  0  0  0
  3 27  1  0  0  0  0
  3 60  1  0  0  0  0
  4 29  1  0  0  0  0
  4 61  1  0  0  0  0
  5 34  1  0  0  0  0
  5 62  1  0  0  0  0
  6  7  1  0  0  0  0
  6  8  1  0  0  0  0
  6 13  2  0  0  0  0
  7 10  2  0  0  0  0
  7 11  1  0  0  0  0
  8 12  1  0  0  0  0
  8 35  1  0  0  0  0
  8 36  1  0  0  0  0
  9 10  1  0  0  0  0
  9 14  2  0  0  0  0
  9 15  1  0  0  0  0
 11 16  1  0  0  0  0
 11 37  1  0  0  0  0
 11 38  1  0  0  0  0
 12 17  1  0  0  0  0
 12 39  1  0  0  0  0
 12 40  1  0  0  0  0
 13 14  1  0  0  0  0
 13 41  1  0  0  0  0
 15 18  1  0  0  0  0
 15 42  1  0  0  0  0
 15 43  1  0  0  0  0
 16 19  2  0  0  0  0
 16 20  1  0  0  0  0
 17 21  2  0  0  0  0
 17 22  1  0  0  0  0
 18 23  2  0  0  0  0
 18 24  1  0  0  0  0
 19 25  1  0  0  0  0
 19 44  1  0  0  0  0
 20 26  2  0  0  0  0
 20 45  1  0  0  0  0
 21 27  1  0  0  0  0
 21 47  1  0  0  0  0
 22 28  2  0  0  0  0
 22 48  1  0  0  0  0
 23 31  1  0  0  0  0
 23 49  1  0  0  0  0
 24 32  2  0  0  0  0
 24 50  1  0  0  0  0
 25 29  2  0  0  0  0
 25 51  1  0  0  0  0
 26 29  1  0  0  0  0
 26 52  1  0  0  0  0
 27 33  2  0  0  0  0
 28 33  1  0  0  0  0
 28 53  1  0  0  0  0
 30 54  1  0  0  0  0
 30 55  1  0  0  0  0
 30 56  1  0  0  0  0
 31 34  2  0  0  0  0
 31 57  1  0  0  0  0
 32 34  1  0  0  0  0
 32 58  1  0  0  0  0
 33 59  1  0  0  0  0
M  END
>  <PUBCHEM_COMPOUND_CID>
102316584

>  <PUBCHEM_COMPOUND_CANONICALIZED>
1

>  <PUBCHEM_CACTVS_COMPLEXITY>
583

>  <PUBCHEM_CACTVS_HBOND_ACCEPTOR>
5

>  <PUBCHEM_CACTVS_HBOND_DONOR>
4

>  <PUBCHEM_CACTVS_ROTATABLE_BOND>
8

>  <PUBCHEM_CACTVS_SUBSKEYS>
AAADceB4OAAAAAAAAAAAAAAAAAAAAAAAAAAwYMGAAAAAAAABVAAAGgAACAAADASAmAIyBoAABgCAAiBCAAACCAAgIAAIiAAGCIgMJyKGMRqAcCAlwBUIuAeA4PwO4AADCAAYAADAAAYQADAAAAAAAAAAAA==

>  <PUBCHEM_IUPAC_OPENEYE_NAME>
3-[2-(3-hydroxyphenyl)ethyl]-2,6-bis[(4-hydroxyphenyl)methyl]-5-methoxy-phenol

>  <PUBCHEM_IUPAC_CAS_NAME>
3-[2-(3-hydroxyphenyl)ethyl]-2,6-bis[(4-hydroxyphenyl)methyl]-5-methoxyphenol

>  <PUBCHEM_IUPAC_NAME>
3-[2-(3-hydroxyphenyl)ethyl]-2,6-bis[(4-hydroxyphenyl)methyl]-5-methoxyphenol

>  <PUBCHEM_IUPAC_SYSTEMATIC_NAME>
3-[2-(3-hydroxyphenyl)ethyl]-2,6-bis[(4-hydroxyphenyl)methyl]-5-methoxy-phenol

>  <PUBCHEM_IUPAC_TRADITIONAL_NAME>
2,6-bis(4-hydroxybenzyl)-3-[2-(3-hydroxyphenyl)ethyl]-5-methoxy-phenol

>  <PUBCHEM_IUPAC_INCHI>
InChI=1S/C29H28O5/c1-34-28-18-22(10-5-19-3-2-4-25(32)15-19)26(16-20-6-11-23(30)12-7-20)29(33)27(28)17-21-8-13-24(31)14-9-21/h2-4,6-9,11-15,18,30-33H,5,10,16-17H2,1H3

>  <PUBCHEM_IUPAC_INCHIKEY>
SMIOMOUCRHKNNB-UHFFFAOYSA-N

>  <PUBCHEM_XLOGP3_AA>
6.5

>  <PUBCHEM_EXACT_MASS>
456.194

>  <PUBCHEM_MOLECULAR_FORMULA>
C29H28O5

>  <PUBCHEM_MOLECULAR_WEIGHT>
456.538

>  <PUBCHEM_OPENEYE_CAN_SMILES>
COC1=C(C(=C(C(=C1)CCC2=CC(=CC=C2)O)CC3=CC=C(C=C3)O)O)CC4=CC=C(C=C4)O

>  <PUBCHEM_OPENEYE_ISO_SMILES>
COC1=C(C(=C(C(=C1)CCC2=CC(=CC=C2)O)CC3=CC=C(C=C3)O)O)CC4=CC=C(C=C4)O

>  <PUBCHEM_CACTVS_TPSA>
90.2

>  <PUBCHEM_MONOISOTOPIC_WEIGHT>
456.194

>  <PUBCHEM_TOTAL_CHARGE>
0

>  <PUBCHEM_HEAVY_ATOM_COUNT>
34

>  <PUBCHEM_ATOM_DEF_STEREO_COUNT>
0

>  <PUBCHEM_ATOM_UDEF_STEREO_COUNT>
0

>  <PUBCHEM_BOND_DEF_STEREO_COUNT>
0

>  <PUBCHEM_BOND_UDEF_STEREO_COUNT>
0

>  <PUBCHEM_ISOTOPIC_ATOM_COUNT>
0

>  <PUBCHEM_COMPONENT_COUNT>
1

>  <PUBCHEM_CACTVS_TAUTO_COUNT>
998

>  <PUBCHEM_COORDINATE_TYPE>
1
5
255

>  <PUBCHEM_BONDANNOTATIONS>
13  14  8
16  19  8
16  20  8
17  21  8
17  22  8
18  23  8
18  24  8
19  25  8
20  26  8
21  27  8
22  28  8
23  31  8
24  32  8
25  29  8
26  29  8
27  33  8
28  33  8
31  34  8
32  34  8
6  13  8
6  7  8
7  10  8
9  10  8
9  14  8

$$$$
