102316540
 OpenBabel06101807152D

 51 53  0  0  0  0  0  0  0  0999 V2000
    8.9282   -0.1550    0.0000 O   0  0  0  0  0  0  0  0  0  0  0  0
    7.1962   -3.1550    0.0000 O   0  0  0  0  0  0  0  0  0  0  0  0
    2.8660    2.3450    0.0000 O   0  0  0  0  0  0  0  0  0  0  0  0
   10.6603    2.8450    0.0000 O   0  0  0  0  0  0  0  0  0  0  0  0
    6.3301   -0.6550    0.0000 C   0  0  0  0  0  0  0  0  0  0  0  0
    5.4641   -0.1550    0.0000 C   0  0  0  0  0  0  0  0  0  0  0  0
    7.1962   -0.1550    0.0000 C   0  0  0  0  0  0  0  0  0  0  0  0
    4.5981   -0.6550    0.0000 C   0  0  0  0  0  0  0  0  0  0  0  0
    7.1962    0.8450    0.0000 C   0  0  0  0  0  0  0  0  0  0  0  0
    8.0622   -0.6550    0.0000 C   0  0  0  0  0  0  0  0  0  0  0  0
    6.3301   -1.6550    0.0000 C   0  0  0  0  0  0  0  0  0  0  0  0
    3.7320   -0.1550    0.0000 C   0  0  0  0  0  0  0  0  0  0  0  0
    8.0622    1.3450    0.0000 C   0  0  0  0  0  0  0  0  0  0  0  0
    7.1962   -2.1550    0.0000 C   0  0  0  0  0  0  0  0  0  0  0  0
    8.0622   -1.6550    0.0000 C   0  0  0  0  0  0  0  0  0  0  0  0
    3.7320    0.8450    0.0000 C   0  0  0  0  0  0  0  0  0  0  0  0
    2.8660   -0.6550    0.0000 C   0  0  0  0  0  0  0  0  0  0  0  0
    8.9282    0.8450    0.0000 C   0  0  0  0  0  0  0  0  0  0  0  0
    8.0622    2.3450    0.0000 C   0  0  0  0  0  0  0  0  0  0  0  0
    2.8660    1.3450    0.0000 C   0  0  0  0  0  0  0  0  0  0  0  0
    2.0000   -0.1550    0.0000 C   0  0  0  0  0  0  0  0  0  0  0  0
    9.7942    1.3450    0.0000 C   0  0  0  0  0  0  0  0  0  0  0  0
    8.9282    2.8450    0.0000 C   0  0  0  0  0  0  0  0  0  0  0  0
    2.0000    0.8450    0.0000 C   0  0  0  0  0  0  0  0  0  0  0  0
    9.7942    2.3450    0.0000 C   0  0  0  0  0  0  0  0  0  0  0  0
    9.7942   -0.6550    0.0000 C   0  0  0  0  0  0  0  0  0  0  0  0
    2.0000    2.8450    0.0000 C   0  0  0  0  0  0  0  0  0  0  0  0
    5.8626    0.3199    0.0000 H   0  0  0  0  0  0  0  0  0  0  0  0
    5.0656    0.3199    0.0000 H   0  0  0  0  0  0  0  0  0  0  0  0
    4.1996   -1.1300    0.0000 H   0  0  0  0  0  0  0  0  0  0  0  0
    4.9966   -1.1300    0.0000 H   0  0  0  0  0  0  0  0  0  0  0  0
    6.9841    1.4276    0.0000 H   0  0  0  0  0  0  0  0  0  0  0  0
    6.5856    0.7373    0.0000 H   0  0  0  0  0  0  0  0  0  0  0  0
    5.7932   -1.9650    0.0000 H   0  0  0  0  0  0  0  0  0  0  0  0
    8.5991   -1.9650    0.0000 H   0  0  0  0  0  0  0  0  0  0  0  0
    4.2690    1.1550    0.0000 H   0  0  0  0  0  0  0  0  0  0  0  0
    2.8660   -1.2750    0.0000 H   0  0  0  0  0  0  0  0  0  0  0  0
    8.9282    0.2250    0.0000 H   0  0  0  0  0  0  0  0  0  0  0  0
    7.5252    2.6550    0.0000 H   0  0  0  0  0  0  0  0  0  0  0  0
    1.4631   -0.4650    0.0000 H   0  0  0  0  0  0  0  0  0  0  0  0
   10.3312    1.0350    0.0000 H   0  0  0  0  0  0  0  0  0  0  0  0
    8.9282    3.4650    0.0000 H   0  0  0  0  0  0  0  0  0  0  0  0
    1.4631    1.1550    0.0000 H   0  0  0  0  0  0  0  0  0  0  0  0
    6.6592   -3.4650    0.0000 H   0  0  0  0  0  0  0  0  0  0  0  0
    9.4842   -1.1919    0.0000 H   0  0  0  0  0  0  0  0  0  0  0  0
   10.3312   -0.9650    0.0000 H   0  0  0  0  0  0  0  0  0  0  0  0
   10.1042   -0.1181    0.0000 H   0  0  0  0  0  0  0  0  0  0  0  0
   10.6603    3.4650    0.0000 H   0  0  0  0  0  0  0  0  0  0  0  0
    2.3100    3.3819    0.0000 H   0  0  0  0  0  0  0  0  0  0  0  0
    1.4631    3.1550    0.0000 H   0  0  0  0  0  0  0  0  0  0  0  0
    1.6900    2.3081    0.0000 H   0  0  0  0  0  0  0  0  0  0  0  0
  1 10  1  0  0  0  0
  1 26  1  0  0  0  0
  2 14  1  0  0  0  0
  2 44  1  0  0  0  0
  3 20  1  0  0  0  0
  3 27  1  0  0  0  0
  4 25  1  0  0  0  0
  4 48  1  0  0  0  0
  5  6  1  0  0  0  0
  5  7  2  0  0  0  0
  5 11  1  0  0  0  0
  6  8  1  0  0  0  0
  6 28  1  0  0  0  0
  6 29  1  0  0  0  0
  7  9  1  0  0  0  0
  7 10  1  0  0  0  0
  8 12  1  0  0  0  0
  8 30  1  0  0  0  0
  8 31  1  0  0  0  0
  9 13  1  0  0  0  0
  9 32  1  0  0  0  0
  9 33  1  0  0  0  0
 10 15  2  0  0  0  0
 11 14  2  0  0  0  0
 11 34  1  0  0  0  0
 12 16  2  0  0  0  0
 12 17  1  0  0  0  0
 13 18  2  0  0  0  0
 13 19  1  0  0  0  0
 14 15  1  0  0  0  0
 15 35  1  0  0  0  0
 16 20  1  0  0  0  0
 16 36  1  0  0  0  0
 17 21  2  0  0  0  0
 17 37  1  0  0  0  0
 18 22  1  0  0  0  0
 18 38  1  0  0  0  0
 19 23  2  0  0  0  0
 19 39  1  0  0  0  0
 20 24  2  0  0  0  0
 21 24  1  0  0  0  0
 21 40  1  0  0  0  0
 22 25  2  0  0  0  0
 22 41  1  0  0  0  0
 23 25  1  0  0  0  0
 23 42  1  0  0  0  0
 24 43  1  0  0  0  0
 26 45  1  0  0  0  0
 26 46  1  0  0  0  0
 26 47  1  0  0  0  0
 27 49  1  0  0  0  0
 27 50  1  0  0  0  0
 27 51  1  0  0  0  0
M  END
>  <PUBCHEM_COMPOUND_CID>
102316540

>  <PUBCHEM_COMPOUND_CANONICALIZED>
1

>  <PUBCHEM_CACTVS_COMPLEXITY>
421

>  <PUBCHEM_CACTVS_HBOND_ACCEPTOR>
4

>  <PUBCHEM_CACTVS_HBOND_DONOR>
2

>  <PUBCHEM_CACTVS_ROTATABLE_BOND>
7

>  <PUBCHEM_CACTVS_SUBSKEYS>
AAADceB4OAAAAAAAAAAAAAAAAAAAAAAAAAAwYMAAAAAAAAABUAAAGgAACAAADASAmAIyBoAABgCAAiBCAAACCAAgIAAIiAAGCIgMJyKGMRqAcCAlwBUIuAeA4PwOoAABCAAYAABAAAIQADAAAAAAAAAAAA==

>  <PUBCHEM_IUPAC_OPENEYE_NAME>
4-[(4-hydroxyphenyl)methyl]-3-methoxy-5-[2-(3-methoxyphenyl)ethyl]phenol

>  <PUBCHEM_IUPAC_CAS_NAME>
4-[(4-hydroxyphenyl)methyl]-3-methoxy-5-[2-(3-methoxyphenyl)ethyl]phenol

>  <PUBCHEM_IUPAC_NAME>
4-[(4-hydroxyphenyl)methyl]-3-methoxy-5-[2-(3-methoxyphenyl)ethyl]phenol

>  <PUBCHEM_IUPAC_SYSTEMATIC_NAME>
4-[(4-hydroxyphenyl)methyl]-3-methoxy-5-[2-(3-methoxyphenyl)ethyl]phenol

>  <PUBCHEM_IUPAC_TRADITIONAL_NAME>
4-(4-hydroxybenzyl)-3-methoxy-5-[2-(3-methoxyphenyl)ethyl]phenol

>  <PUBCHEM_IUPAC_INCHI>
InChI=1S/C23H24O4/c1-26-21-5-3-4-16(12-21)6-9-18-14-20(25)15-23(27-2)22(18)13-17-7-10-19(24)11-8-17/h3-5,7-8,10-12,14-15,24-25H,6,9,13H2,1-2H3

>  <PUBCHEM_IUPAC_INCHIKEY>
LNSWJKFQNMFNFL-UHFFFAOYSA-N

>  <PUBCHEM_XLOGP3_AA>
5.3

>  <PUBCHEM_EXACT_MASS>
364.167

>  <PUBCHEM_MOLECULAR_FORMULA>
C23H24O4

>  <PUBCHEM_MOLECULAR_WEIGHT>
364.441

>  <PUBCHEM_OPENEYE_CAN_SMILES>
COC1=CC=CC(=C1)CCC2=CC(=CC(=C2CC3=CC=C(C=C3)O)OC)O

>  <PUBCHEM_OPENEYE_ISO_SMILES>
COC1=CC=CC(=C1)CCC2=CC(=CC(=C2CC3=CC=C(C=C3)O)OC)O

>  <PUBCHEM_CACTVS_TPSA>
58.9

>  <PUBCHEM_MONOISOTOPIC_WEIGHT>
364.167

>  <PUBCHEM_TOTAL_CHARGE>
0

>  <PUBCHEM_HEAVY_ATOM_COUNT>
27

>  <PUBCHEM_ATOM_DEF_STEREO_COUNT>
0

>  <PUBCHEM_ATOM_UDEF_STEREO_COUNT>
0

>  <PUBCHEM_BOND_DEF_STEREO_COUNT>
0

>  <PUBCHEM_BOND_UDEF_STEREO_COUNT>
0

>  <PUBCHEM_ISOTOPIC_ATOM_COUNT>
0

>  <PUBCHEM_COMPONENT_COUNT>
1

>  <PUBCHEM_CACTVS_TAUTO_COUNT>
433

>  <PUBCHEM_COORDINATE_TYPE>
1
5
255

>  <PUBCHEM_BONDANNOTATIONS>
10  15  8
11  14  8
12  16  8
12  17  8
13  18  8
13  19  8
14  15  8
16  20  8
17  21  8
18  22  8
19  23  8
20  24  8
21  24  8
22  25  8
23  25  8
5  11  8
5  7  8
7  10  8

$$$$
