102436
 OpenBabel06101807152D

 66 68  0  0  1  0  0  0  0  0999 V2000
   10.5478   -0.2694    0.0000 O   0  0  0  0  0  0  0  0  0  0  0  0
    9.5478    0.7306    0.0000 O   0  0  0  0  0  0  0  0  0  0  0  0
    8.8158   -0.2694    0.0000 O   0  0  0  0  0  0  0  0  0  0  0  0
    4.3735   -0.0615    0.0000 O   0  0  0  0  0  0  0  0  0  0  0  0
    6.2177   -0.7694    0.0000 O   0  0  0  0  0  0  0  0  0  0  0  0
   11.8079    1.9906    0.0000 O   0  0  0  0  0  0  0  0  0  0  0  0
   10.0478    3.2694    0.0000 O   0  0  0  0  0  0  0  0  0  0  0  0
    7.0837   -2.2694    0.0000 O   0  0  0  0  0  0  0  0  0  0  0  0
   10.5478   -2.2694    0.0000 O   0  0  0  0  0  0  0  0  0  0  0  0
    8.8158   -3.2694    0.0000 O   0  0  0  0  0  0  0  0  0  0  0  0
    6.8462    0.7011    0.0000 O   0  0  0  0  0  0  0  0  0  0  0  0
    5.3904    2.3179    0.0000 O   0  0  0  0  0  0  0  0  0  0  0  0
   12.2420    1.0907    0.0000 O   0  0  0  0  0  0  0  0  0  0  0  0
    4.1927   -1.5566    0.0000 O   0  0  0  0  0  0  0  0  0  0  0  0
    8.0798    2.9688    0.0000 O   0  0  0  0  0  0  0  0  0  0  0  0
    2.5369    0.9330    0.0000 O   0  0  0  0  0  0  0  0  0  0  0  0
   10.5478    0.7306    0.0000 C   0  0  3  0  0  0  0  0  0  0  0  0
   10.8568    1.6816    0.0000 C   0  0  3  0  0  0  0  0  0  0  0  0
    5.3517   -0.2694    0.0000 C   0  0  3  0  0  0  0  0  0  0  0  0
    7.9497   -0.7694    0.0000 C   0  0  3  0  0  0  0  0  0  0  0  0
    9.6818   -0.7694    0.0000 C   0  0  3  0  0  0  0  0  0  0  0  0
   10.0478    2.2694    0.0000 C   0  0  3  0  0  0  0  0  0  0  0  0
    7.9497   -1.7694    0.0000 C   0  0  3  0  0  0  0  0  0  0  0  0
    9.6818   -1.7694    0.0000 C   0  0  3  0  0  0  0  0  0  0  0  0
    8.8158   -2.2694    0.0000 C   0  0  3  0  0  0  0  0  0  0  0  0
    9.2388    1.6816    0.0000 C   0  0  3  0  0  0  0  0  0  0  0  0
    5.8517    0.5966    0.0000 C   0  0  3  0  0  0  0  0  0  0  0  0
    5.1825    1.3398    0.0000 C   0  0  3  0  0  0  0  0  0  0  0  0
    4.2690    0.9330    0.0000 C   0  0  3  0  0  0  0  0  0  0  0  0
    7.0837   -0.2694    0.0000 C   0  0  0  0  0  0  0  0  0  0  0  0
   11.4989    0.4216    0.0000 C   0  0  0  0  0  0  0  0  0  0  0  0
    5.1438   -1.2476    0.0000 C   0  0  0  0  0  0  0  0  0  0  0  0
    8.2877    1.9906    0.0000 C   0  0  0  0  0  0  0  0  0  0  0  0
    3.4030    1.4330    0.0000 C   0  0  0  0  0  0  0  0  0  0  0  0
   11.4579    1.0806    0.0000 H   0  0  0  0  0  0  0  0  0  0  0  0
    7.9497    0.0806    0.0000 H   0  0  0  0  0  0  0  0  0  0  0  0
    9.6818    0.0806    0.0000 H   0  0  0  0  0  0  0  0  0  0  0  0
   10.8052    2.6553    0.0000 H   0  0  0  0  0  0  0  0  0  0  0  0
    7.9497   -2.6194    0.0000 H   0  0  0  0  0  0  0  0  0  0  0  0
    9.6818   -2.6194    0.0000 H   0  0  0  0  0  0  0  0  0  0  0  0
    8.0796   -2.6944    0.0000 H   0  0  0  0  0  0  0  0  0  0  0  0
    8.6378    1.0806    0.0000 H   0  0  0  0  0  0  0  0  0  0  0  0
    6.1563    1.3902    0.0000 H   0  0  0  0  0  0  0  0  0  0  0  0
    4.5220    1.8747    0.0000 H   0  0  0  0  0  0  0  0  0  0  0  0
    3.5561    0.4701    0.0000 H   0  0  0  0  0  0  0  0  0  0  0  0
    7.4822    0.2055    0.0000 H   0  0  0  0  0  0  0  0  0  0  0  0
    6.6852    0.2055    0.0000 H   0  0  0  0  0  0  0  0  0  0  0  0
   11.2078   -0.1259    0.0000 H   0  0  0  0  0  0  0  0  0  0  0  0
   11.9874    0.0399    0.0000 H   0  0  0  0  0  0  0  0  0  0  0  0
    5.2300   -1.8615    0.0000 H   0  0  0  0  0  0  0  0  0  0  0  0
    5.7634   -1.2692    0.0000 H   0  0  0  0  0  0  0  0  0  0  0  0
    7.6681    1.9690    0.0000 H   0  0  0  0  0  0  0  0  0  0  0  0
    8.2014    1.3767    0.0000 H   0  0  0  0  0  0  0  0  0  0  0  0
    3.8015    1.9080    0.0000 H   0  0  0  0  0  0  0  0  0  0  0  0
    3.0044    1.9080    0.0000 H   0  0  0  0  0  0  0  0  0  0  0  0
   11.9368    2.5971    0.0000 H   0  0  0  0  0  0  0  0  0  0  0  0
   10.5848    3.5794    0.0000 H   0  0  0  0  0  0  0  0  0  0  0  0
    7.0837   -2.8894    0.0000 H   0  0  0  0  0  0  0  0  0  0  0  0
   10.5478   -2.8894    0.0000 H   0  0  0  0  0  0  0  0  0  0  0  0
    8.2788   -3.5794    0.0000 H   0  0  0  0  0  0  0  0  0  0  0  0
    7.0984    1.2675    0.0000 H   0  0  0  0  0  0  0  0  0  0  0  0
    4.9297    2.7328    0.0000 H   0  0  0  0  0  0  0  0  0  0  0  0
   12.8317    0.8991    0.0000 H   0  0  0  0  0  0  0  0  0  0  0  0
    4.0638   -2.1630    0.0000 H   0  0  0  0  0  0  0  0  0  0  0  0
    7.4902    3.1604    0.0000 H   0  0  0  0  0  0  0  0  0  0  0  0
    2.0000    1.2430    0.0000 H   0  0  0  0  0  0  0  0  0  0  0  0
  1 17  1  0  0  0  0
  1 21  1  0  0  0  0
  2 17  1  0  0  0  0
  2 26  1  0  0  0  0
  3 20  1  0  0  0  0
  3 21  1  0  0  0  0
  4 19  1  0  0  0  0
  4 29  1  0  0  0  0
  5 19  1  0  0  0  0
  5 30  1  0  0  0  0
  6 18  1  0  0  0  0
  6 56  1  0  0  0  0
  7 22  1  0  0  0  0
  7 57  1  0  0  0  0
  8 23  1  0  0  0  0
  8 58  1  0  0  0  0
  9 24  1  0  0  0  0
  9 59  1  0  0  0  0
 10 25  1  0  0  0  0
 10 60  1  0  0  0  0
 11 27  1  0  0  0  0
 11 61  1  0  0  0  0
 12 28  1  0  0  0  0
 12 62  1  0  0  0  0
 13 31  1  0  0  0  0
 13 63  1  0  0  0  0
 14 32  1  0  0  0  0
 14 64  1  0  0  0  0
 15 33  1  0  0  0  0
 15 65  1  0  0  0  0
 16 34  1  0  0  0  0
 16 66  1  0  0  0  0
 17 18  1  0  0  0  0
 17 31  1  0  0  0  0
 18 22  1  0  0  0  0
 18 35  1  0  0  0  0
 19 27  1  0  0  0  0
 19 32  1  0  0  0  0
 20 23  1  0  0  0  0
 20 30  1  0  0  0  0
 20 36  1  0  0  0  0
 21 24  1  0  0  0  0
 21 37  1  0  0  0  0
 22 26  1  0  0  0  0
 22 38  1  0  0  0  0
 23 25  1  0  0  0  0
 23 39  1  0  0  0  0
 24 25  1  0  0  0  0
 24 40  1  0  0  0  0
 25 41  1  0  0  0  0
 26 33  1  0  0  0  0
 26 42  1  0  0  0  0
 27 28  1  0  0  0  0
 27 43  1  0  0  0  0
 28 29  1  0  0  0  0
 28 44  1  0  0  0  0
 29 34  1  0  0  0  0
 29 45  1  0  0  0  0
 30 46  1  0  0  0  0
 30 47  1  0  0  0  0
 31 48  1  0  0  0  0
 31 49  1  0  0  0  0
 32 50  1  0  0  0  0
 32 51  1  0  0  0  0
 33 52  1  0  0  0  0
 33 53  1  0  0  0  0
 34 54  1  0  0  0  0
 34 55  1  0  0  0  0
M  END
>  <PUBCHEM_COMPOUND_CID>
102436

>  <PUBCHEM_COMPOUND_CANONICALIZED>
1

>  <PUBCHEM_CACTVS_COMPLEXITY>
670

>  <PUBCHEM_CACTVS_HBOND_ACCEPTOR>
16

>  <PUBCHEM_CACTVS_HBOND_DONOR>
11

>  <PUBCHEM_CACTVS_ROTATABLE_BOND>
9

>  <PUBCHEM_CACTVS_SUBSKEYS>
AAADcfB4PgAAAAAAAAAAAAAAAAAAASJAAAAkAAAAAAAAAAAAAAAAGgAACAAACBSwgAMACAAABgAAAAAAAAAAAAAAAAAAAAAAAAAREAIAAAAiQAAFAAAHAAHAYAwAAAAAAAAAAAAAAAAAAAAAAAAAAAAAAA==

>  <PUBCHEM_IUPAC_OPENEYE_NAME>
2-[3,4-dihydroxy-2,5-bis(hydroxymethyl)tetrahydrofuran-2-yl]oxy-6-[[3,4-dihydroxy-2,5-bis(hydroxymethyl)tetrahydrofuran-2-yl]oxymethyl]tetrahydropyran-3,4,5-triol

>  <PUBCHEM_IUPAC_CAS_NAME>
2-[[3,4-dihydroxy-2,5-bis(hydroxymethyl)-2-oxolanyl]oxy]-6-[[3,4-dihydroxy-2,5-bis(hydroxymethyl)-2-oxolanyl]oxymethyl]oxane-3,4,5-triol

>  <PUBCHEM_IUPAC_NAME>
2-[3,4-dihydroxy-2,5-bis(hydroxymethyl)oxolan-2-yl]oxy-6-[[3,4-dihydroxy-2,5-bis(hydroxymethyl)oxolan-2-yl]oxymethyl]oxane-3,4,5-triol

>  <PUBCHEM_IUPAC_SYSTEMATIC_NAME>
2-[2,5-bis(hydroxymethyl)-3,4-bis(oxidanyl)oxolan-2-yl]oxy-6-[[2,5-bis(hydroxymethyl)-3,4-bis(oxidanyl)oxolan-2-yl]oxymethyl]oxane-3,4,5-triol

>  <PUBCHEM_IUPAC_TRADITIONAL_NAME>
2-(3,4-dihydroxy-2,5-dimethylol-tetrahydrofuran-2-yl)oxy-6-[(3,4-dihydroxy-2,5-dimethylol-tetrahydrofuran-2-yl)oxymethyl]tetrahydropyran-3,4,5-triol

>  <PUBCHEM_IUPAC_INCHI>
InChI=1S/C18H32O16/c19-1-6-10(24)14(28)17(4-21,32-6)30-3-8-9(23)12(26)13(27)16(31-8)34-18(5-22)15(29)11(25)7(2-20)33-18/h6-16,19-29H,1-5H2

>  <PUBCHEM_IUPAC_INCHIKEY>
HQFMTRMPFIZQJF-UHFFFAOYSA-N

>  <PUBCHEM_XLOGP3>
-5.5

>  <PUBCHEM_EXACT_MASS>
504.169

>  <PUBCHEM_MOLECULAR_FORMULA>
C18H32O16

>  <PUBCHEM_MOLECULAR_WEIGHT>
504.438

>  <PUBCHEM_OPENEYE_CAN_SMILES>
C(C1C(C(C(O1)(CO)OCC2C(C(C(C(O2)OC3(C(C(C(O3)CO)O)O)CO)O)O)O)O)O)O

>  <PUBCHEM_OPENEYE_ISO_SMILES>
C(C1C(C(C(O1)(CO)OCC2C(C(C(C(O2)OC3(C(C(C(O3)CO)O)O)CO)O)O)O)O)O)O

>  <PUBCHEM_CACTVS_TPSA>
269

>  <PUBCHEM_MONOISOTOPIC_WEIGHT>
504.169

>  <PUBCHEM_TOTAL_CHARGE>
0

>  <PUBCHEM_HEAVY_ATOM_COUNT>
34

>  <PUBCHEM_ATOM_DEF_STEREO_COUNT>
0

>  <PUBCHEM_ATOM_UDEF_STEREO_COUNT>
13

>  <PUBCHEM_BOND_DEF_STEREO_COUNT>
0

>  <PUBCHEM_BOND_UDEF_STEREO_COUNT>
0

>  <PUBCHEM_ISOTOPIC_ATOM_COUNT>
0

>  <PUBCHEM_COMPONENT_COUNT>
1

>  <PUBCHEM_CACTVS_TAUTO_COUNT>
1

>  <PUBCHEM_COORDINATE_TYPE>
1
5
255

>  <PUBCHEM_BONDANNOTATIONS>
17  31  3
18  35  3
19  32  3
20  36  3
21  37  3
22  38  3
23  39  3
24  40  3
25  41  3
26  42  3
27  43  3
28  44  3
29  45  3

$$$$
