102476221
 OpenBabel06101807152D

 60 61  0  0  0  0  0  0  0  0999 V2000
   12.3923    1.2500    0.0000 O   0  0  0  0  0  0  0  0  0  0  0  0
    6.3301   -1.2500    0.0000 O   0  0  0  0  0  0  0  0  0  0  0  0
   15.8564    3.2500    0.0000 O   0  0  0  0  0  0  0  0  0  0  0  0
    2.8660   -3.2500    0.0000 O   0  0  0  0  0  0  0  0  0  0  0  0
   14.1244    4.2500    0.0000 O   0  0  0  0  0  0  0  0  0  0  0  0
    4.5981   -4.2500    0.0000 O   0  0  0  0  0  0  0  0  0  0  0  0
   11.5263   -0.2500    0.0000 N   0  0  0  0  0  0  0  0  0  0  0  0
    7.1962    0.2500    0.0000 N   0  0  0  0  0  0  0  0  0  0  0  0
    8.9282    0.2500    0.0000 C   0  0  0  0  0  0  0  0  0  0  0  0
    9.7942   -0.2500    0.0000 C   0  0  0  0  0  0  0  0  0  0  0  0
    8.0622   -0.2500    0.0000 C   0  0  0  0  0  0  0  0  0  0  0  0
   10.6603    0.2500    0.0000 C   0  0  0  0  0  0  0  0  0  0  0  0
   12.3923    0.2500    0.0000 C   0  0  0  0  0  0  0  0  0  0  0  0
    6.3301   -0.2500    0.0000 C   0  0  0  0  0  0  0  0  0  0  0  0
    5.4641    0.2500    0.0000 C   0  0  0  0  0  0  0  0  0  0  0  0
   13.2583   -0.2500    0.0000 C   0  0  0  0  0  0  0  0  0  0  0  0
    4.5981   -1.2500    0.0000 C   0  0  0  0  0  0  0  0  0  0  0  0
   14.1244    1.2500    0.0000 C   0  0  0  0  0  0  0  0  0  0  0  0
    4.5981   -0.2500    0.0000 C   0  0  0  0  0  0  0  0  0  0  0  0
   14.1244    0.2500    0.0000 C   0  0  0  0  0  0  0  0  0  0  0  0
   14.9904    1.7500    0.0000 C   0  0  0  0  0  0  0  0  0  0  0  0
    3.7320   -1.7500    0.0000 C   0  0  0  0  0  0  0  0  0  0  0  0
   13.2583    1.7500    0.0000 C   0  0  0  0  0  0  0  0  0  0  0  0
    5.4641   -1.7500    0.0000 C   0  0  0  0  0  0  0  0  0  0  0  0
    3.7320   -2.7500    0.0000 C   0  0  0  0  0  0  0  0  0  0  0  0
   14.9904    2.7500    0.0000 C   0  0  0  0  0  0  0  0  0  0  0  0
    4.5981   -3.2500    0.0000 C   0  0  0  0  0  0  0  0  0  0  0  0
   14.1244    3.2500    0.0000 C   0  0  0  0  0  0  0  0  0  0  0  0
   13.2583    2.7500    0.0000 C   0  0  0  0  0  0  0  0  0  0  0  0
    5.4641   -2.7500    0.0000 C   0  0  0  0  0  0  0  0  0  0  0  0
   16.7224    2.7500    0.0000 C   0  0  0  0  0  0  0  0  0  0  0  0
    2.0000   -2.7500    0.0000 C   0  0  0  0  0  0  0  0  0  0  0  0
    9.3957   -0.7249    0.0000 H   0  0  0  0  0  0  0  0  0  0  0  0
    9.3267    0.7249    0.0000 H   0  0  0  0  0  0  0  0  0  0  0  0
    8.5297    0.7249    0.0000 H   0  0  0  0  0  0  0  0  0  0  0  0
   10.1928   -0.7249    0.0000 H   0  0  0  0  0  0  0  0  0  0  0  0
   11.0588    0.7249    0.0000 H   0  0  0  0  0  0  0  0  0  0  0  0
   10.2617    0.7249    0.0000 H   0  0  0  0  0  0  0  0  0  0  0  0
    7.6636   -0.7249    0.0000 H   0  0  0  0  0  0  0  0  0  0  0  0
    8.4607   -0.7249    0.0000 H   0  0  0  0  0  0  0  0  0  0  0  0
   11.5263   -0.8700    0.0000 H   0  0  0  0  0  0  0  0  0  0  0  0
    7.1962    0.8700    0.0000 H   0  0  0  0  0  0  0  0  0  0  0  0
    5.4641    0.8700    0.0000 H   0  0  0  0  0  0  0  0  0  0  0  0
   13.2583   -0.8700    0.0000 H   0  0  0  0  0  0  0  0  0  0  0  0
    4.0611    0.0600    0.0000 H   0  0  0  0  0  0  0  0  0  0  0  0
   14.6613   -0.0600    0.0000 H   0  0  0  0  0  0  0  0  0  0  0  0
   15.5273    1.4400    0.0000 H   0  0  0  0  0  0  0  0  0  0  0  0
    3.1951   -1.4400    0.0000 H   0  0  0  0  0  0  0  0  0  0  0  0
   12.7214    1.4400    0.0000 H   0  0  0  0  0  0  0  0  0  0  0  0
    6.0010   -1.4400    0.0000 H   0  0  0  0  0  0  0  0  0  0  0  0
   12.7214    3.0600    0.0000 H   0  0  0  0  0  0  0  0  0  0  0  0
    6.0010   -3.0600    0.0000 H   0  0  0  0  0  0  0  0  0  0  0  0
   13.5874    4.5600    0.0000 H   0  0  0  0  0  0  0  0  0  0  0  0
    5.1350   -4.5600    0.0000 H   0  0  0  0  0  0  0  0  0  0  0  0
    2.3100   -2.2131    0.0000 H   0  0  0  0  0  0  0  0  0  0  0  0
    1.4631   -2.4400    0.0000 H   0  0  0  0  0  0  0  0  0  0  0  0
    1.6900   -3.2869    0.0000 H   0  0  0  0  0  0  0  0  0  0  0  0
   16.4124    2.2131    0.0000 H   0  0  0  0  0  0  0  0  0  0  0  0
   17.2594    2.4400    0.0000 H   0  0  0  0  0  0  0  0  0  0  0  0
   17.0324    3.2869    0.0000 H   0  0  0  0  0  0  0  0  0  0  0  0
  1 13  2  0  0  0  0
  2 14  2  0  0  0  0
  3 26  1  0  0  0  0
  3 31  1  0  0  0  0
  4 25  1  0  0  0  0
  4 32  1  0  0  0  0
  5 28  1  0  0  0  0
  5 53  1  0  0  0  0
  6 27  1  0  0  0  0
  6 54  1  0  0  0  0
  7 12  1  0  0  0  0
  7 13  1  0  0  0  0
  7 41  1  0  0  0  0
  8 11  1  0  0  0  0
  8 14  1  0  0  0  0
  8 42  1  0  0  0  0
  9 10  1  0  0  0  0
  9 11  1  0  0  0  0
  9 34  1  0  0  0  0
  9 35  1  0  0  0  0
 10 12  1  0  0  0  0
 10 33  1  0  0  0  0
 10 36  1  0  0  0  0
 11 39  1  0  0  0  0
 11 40  1  0  0  0  0
 12 37  1  0  0  0  0
 12 38  1  0  0  0  0
 13 16  1  0  0  0  0
 14 15  1  0  0  0  0
 15 19  2  0  0  0  0
 15 43  1  0  0  0  0
 16 20  2  0  0  0  0
 16 44  1  0  0  0  0
 17 19  1  0  0  0  0
 17 22  2  0  0  0  0
 17 24  1  0  0  0  0
 18 20  1  0  0  0  0
 18 21  2  0  0  0  0
 18 23  1  0  0  0  0
 19 45  1  0  0  0  0
 20 46  1  0  0  0  0
 21 26  1  0  0  0  0
 21 47  1  0  0  0  0
 22 25  1  0  0  0  0
 22 48  1  0  0  0  0
 23 29  2  0  0  0  0
 23 49  1  0  0  0  0
 24 30  2  0  0  0  0
 24 50  1  0  0  0  0
 25 27  2  0  0  0  0
 26 28  2  0  0  0  0
 27 30  1  0  0  0  0
 28 29  1  0  0  0  0
 29 51  1  0  0  0  0
 30 52  1  0  0  0  0
 31 58  1  0  0  0  0
 31 59  1  0  0  0  0
 31 60  1  0  0  0  0
 32 55  1  0  0  0  0
 32 56  1  0  0  0  0
 32 57  1  0  0  0  0
M  END
>  <PUBCHEM_COMPOUND_CID>
102476221

>  <PUBCHEM_COMPOUND_CANONICALIZED>
1

>  <PUBCHEM_CACTVS_COMPLEXITY>
584

>  <PUBCHEM_CACTVS_HBOND_ACCEPTOR>
6

>  <PUBCHEM_CACTVS_HBOND_DONOR>
4

>  <PUBCHEM_CACTVS_ROTATABLE_BOND>
11

>  <PUBCHEM_CACTVS_SUBSKEYS>
AAADceB7OAAAAAAAAAAAAAAAAAAAAAAAAAAwYAAAAAAAAAABQAAAHgAQCAAADATBmAYyBoLABgCIAiFSEACCCAAgIAAIiIAOiMgNJiKGsRqEcCMk1hGLuYeAwBAOIAABAAAAQABAAAIAAACAAAAAAAAAAA==

>  <PUBCHEM_IUPAC_OPENEYE_NAME>
(Z)-3-(4-hydroxy-3-methoxy-phenyl)-N-[4-[[(Z)-3-(4-hydroxy-3-methoxy-phenyl)prop-2-enoyl]amino]butyl]prop-2-enamide

>  <PUBCHEM_IUPAC_CAS_NAME>
(Z)-3-(4-hydroxy-3-methoxyphenyl)-N-[4-[[(Z)-3-(4-hydroxy-3-methoxyphenyl)-1-oxoprop-2-enyl]amino]butyl]-2-propenamide

>  <PUBCHEM_IUPAC_NAME>
(Z)-3-(4-hydroxy-3-methoxyphenyl)-N-[4-[[(Z)-3-(4-hydroxy-3-methoxyphenyl)prop-2-enoyl]amino]butyl]prop-2-enamide

>  <PUBCHEM_IUPAC_SYSTEMATIC_NAME>
(Z)-3-(3-methoxy-4-oxidanyl-phenyl)-N-[4-[[(Z)-3-(3-methoxy-4-oxidanyl-phenyl)prop-2-enoyl]amino]butyl]prop-2-enamide

>  <PUBCHEM_IUPAC_TRADITIONAL_NAME>
(Z)-3-(4-hydroxy-3-methoxy-phenyl)-N-[4-[[(Z)-3-(4-hydroxy-3-methoxy-phenyl)acryloyl]amino]butyl]acrylamide

>  <PUBCHEM_IUPAC_INCHI>
InChI=1S/C24H28N2O6/c1-31-21-15-17(5-9-19(21)27)7-11-23(29)25-13-3-4-14-26-24(30)12-8-18-6-10-20(28)22(16-18)32-2/h5-12,15-16,27-28H,3-4,13-14H2,1-2H3,(H,25,29)(H,26,30)/b11-7-,12-8-

>  <PUBCHEM_IUPAC_INCHIKEY>
CHEMZHJQHCVLFI-OXAWKVHCSA-N

>  <PUBCHEM_XLOGP3_AA>
3

>  <PUBCHEM_EXACT_MASS>
440.195

>  <PUBCHEM_MOLECULAR_FORMULA>
C24H28N2O6

>  <PUBCHEM_MOLECULAR_WEIGHT>
440.496

>  <PUBCHEM_OPENEYE_CAN_SMILES>
COC1=C(C=CC(=C1)C=CC(=O)NCCCCNC(=O)C=CC2=CC(=C(C=C2)O)OC)O

>  <PUBCHEM_OPENEYE_ISO_SMILES>
COC1=C(C=CC(=C1)/C=C\C(=O)NCCCCNC(=O)/C=C\C2=CC(=C(C=C2)O)OC)O

>  <PUBCHEM_CACTVS_TPSA>
117

>  <PUBCHEM_MONOISOTOPIC_WEIGHT>
440.195

>  <PUBCHEM_TOTAL_CHARGE>
0

>  <PUBCHEM_HEAVY_ATOM_COUNT>
32

>  <PUBCHEM_ATOM_DEF_STEREO_COUNT>
0

>  <PUBCHEM_ATOM_UDEF_STEREO_COUNT>
0

>  <PUBCHEM_BOND_DEF_STEREO_COUNT>
2

>  <PUBCHEM_BOND_UDEF_STEREO_COUNT>
0

>  <PUBCHEM_ISOTOPIC_ATOM_COUNT>
0

>  <PUBCHEM_COMPONENT_COUNT>
1

>  <PUBCHEM_CACTVS_TAUTO_COUNT>
28

>  <PUBCHEM_COORDINATE_TYPE>
1
5
255

>  <PUBCHEM_BONDANNOTATIONS>
17  22  8
17  24  8
18  21  8
18  23  8
21  26  8
22  25  8
23  29  8
24  30  8
25  27  8
26  28  8
27  30  8
28  29  8

$$$$
