102445481
 OpenBabel06101807152D

 61 64  0  0  1  0  0  0  0  0999 V2000
    5.1350    0.2143    0.0000 O   0  0  0  0  0  0  0  0  0  0  0  0
    5.1350   -2.7857    0.0000 O   0  0  0  0  0  0  0  0  0  0  0  0
    6.8671    0.2143    0.0000 O   0  0  0  0  0  0  0  0  0  0  0  0
    3.4030   -1.7857    0.0000 O   0  0  0  0  0  0  0  0  0  0  0  0
    6.8671   -1.7857    0.0000 O   0  0  0  0  0  0  0  0  0  0  0  0
    2.5369   -0.2857    0.0000 O   0  0  0  0  0  0  0  0  0  0  0  0
    7.7331    2.7143    0.0000 O   0  3  0  0  0  0  0  0  0  0  0  0
    3.4030   -2.7857    0.0000 O   0  0  0  0  0  0  0  0  0  0  0  0
    4.2308    2.7112    0.0000 O   0  0  0  0  0  0  0  0  0  0  0  0
    3.4030   -5.7857    0.0000 O   0  0  0  0  0  0  0  0  0  0  0  0
    5.9889    5.7836    0.0000 O   0  0  0  0  0  0  0  0  0  0  0  0
    2.5369   -4.2857    0.0000 O   0  0  0  0  0  0  0  0  0  0  0  0
    9.4651   -1.2857    0.0000 O   0  0  0  0  0  0  0  0  0  0  0  0
   11.1972   -0.2857    0.0000 O   0  0  0  0  0  0  0  0  0  0  0  0
    5.1350   -1.7857    0.0000 C   0  0  1  0  0  0  0  0  0  0  0  0
    4.2690   -1.2857    0.0000 C   0  0  1  0  0  0  0  0  0  0  0  0
    6.0010   -1.2857    0.0000 C   0  0  2  0  0  0  0  0  0  0  0  0
    4.2690   -0.2857    0.0000 C   0  0  1  0  0  0  0  0  0  0  0  0
    6.0010   -0.2857    0.0000 C   0  0  1  0  0  0  0  0  0  0  0  0
    3.4030    0.2143    0.0000 C   0  0  0  0  0  0  0  0  0  0  0  0
    6.8671    1.2143    0.0000 C   0  0  0  0  0  0  0  0  0  0  0  0
    4.2690   -3.2857    0.0000 C   0  0  0  0  0  0  0  0  0  0  0  0
    7.7331    1.7143    0.0000 C   0  0  0  0  0  0  0  0  0  0  0  0
    6.0010    1.7143    0.0000 C   0  0  0  0  0  0  0  0  0  0  0  0
    4.2690   -4.2857    0.0000 C   0  0  0  0  0  0  0  0  0  0  0  0
    6.0010    2.7143    0.0000 C   0  0  0  0  0  0  0  0  0  0  0  0
    6.8671    3.2143    0.0000 C   0  0  0  0  0  0  0  0  0  0  0  0
    8.5991    1.2143    0.0000 C   0  0  0  0  0  0  0  0  0  0  0  0
    5.0910    3.2212    0.0000 C   0  0  0  0  0  0  0  0  0  0  0  0
    6.8831    4.2558    0.0000 C   0  0  0  0  0  0  0  0  0  0  0  0
    3.4030   -4.7857    0.0000 C   0  0  0  0  0  0  0  0  0  0  0  0
    8.5991    0.2143    0.0000 C   0  0  0  0  0  0  0  0  0  0  0  0
    9.4651    1.7143    0.0000 C   0  0  0  0  0  0  0  0  0  0  0  0
    5.0830    4.2628    0.0000 C   0  0  0  0  0  0  0  0  0  0  0  0
    5.9851    4.7836    0.0000 C   0  0  0  0  0  0  0  0  0  0  0  0
    9.4651   -0.2857    0.0000 C   0  0  0  0  0  0  0  0  0  0  0  0
   10.3312    1.2143    0.0000 C   0  0  0  0  0  0  0  0  0  0  0  0
   10.3312    0.2143    0.0000 C   0  0  0  0  0  0  0  0  0  0  0  0
    5.6720   -2.0957    0.0000 H   0  0  0  0  0  0  0  0  0  0  0  0
    4.2690   -1.9057    0.0000 H   0  0  0  0  0  0  0  0  0  0  0  0
    6.5380   -0.9757    0.0000 H   0  0  0  0  0  0  0  0  0  0  0  0
    4.2690    0.3343    0.0000 H   0  0  0  0  0  0  0  0  0  0  0  0
    6.0010    0.3343    0.0000 H   0  0  0  0  0  0  0  0  0  0  0  0
    3.8015    0.6893    0.0000 H   0  0  0  0  0  0  0  0  0  0  0  0
    3.0044    0.6893    0.0000 H   0  0  0  0  0  0  0  0  0  0  0  0
    2.8660   -1.4757    0.0000 H   0  0  0  0  0  0  0  0  0  0  0  0
    6.8671   -2.4057    0.0000 H   0  0  0  0  0  0  0  0  0  0  0  0
    2.0000    0.0243    0.0000 H   0  0  0  0  0  0  0  0  0  0  0  0
    5.4641    1.4043    0.0000 H   0  0  0  0  0  0  0  0  0  0  0  0
    4.4810   -4.8683    0.0000 H   0  0  0  0  0  0  0  0  0  0  0  0
    4.8796   -4.1780    0.0000 H   0  0  0  0  0  0  0  0  0  0  0  0
    7.4236    4.5596    0.0000 H   0  0  0  0  0  0  0  0  0  0  0  0
    8.0622   -0.0957    0.0000 H   0  0  0  0  0  0  0  0  0  0  0  0
    9.4651    2.3343    0.0000 H   0  0  0  0  0  0  0  0  0  0  0  0
    4.5449    4.5707    0.0000 H   0  0  0  0  0  0  0  0  0  0  0  0
   10.8681    1.5243    0.0000 H   0  0  0  0  0  0  0  0  0  0  0  0
    3.6904    3.0150    0.0000 H   0  0  0  0  0  0  0  0  0  0  0  0
    2.8660   -6.0957    0.0000 H   0  0  0  0  0  0  0  0  0  0  0  0
    5.4532    6.0957    0.0000 H   0  0  0  0  0  0  0  0  0  0  0  0
   10.0021   -1.5957    0.0000 H   0  0  0  0  0  0  0  0  0  0  0  0
   11.7341    0.0243    0.0000 H   0  0  0  0  0  0  0  0  0  0  0  0
  1 18  1  0  0  0  0
  1 19  1  0  0  0  0
  2 22  1  0  0  0  0
  3 21  1  0  0  0  0
  4 46  1  0  0  0  0
  5 47  1  0  0  0  0
  6 20  1  0  0  0  0
  6 48  1  0  0  0  0
  7 23  2  0  0  0  0
  7 27  1  0  0  0  0
  8 22  2  0  0  0  0
  9 29  1  0  0  0  0
  9 57  1  0  0  0  0
 10 31  1  0  0  0  0
 10 58  1  0  0  0  0
 11 35  1  0  0  0  0
 11 59  1  0  0  0  0
 12 31  2  0  0  0  0
 13 36  1  0  0  0  0
 13 60  1  0  0  0  0
 14 38  1  0  0  0  0
 14 61  1  0  0  0  0
 15  2  1  0  0  0  0
 15 16  1  6  0  0  0
 15 39  1  0  0  0  0
 16  4  1  0  0  0  0
 16 18  1  1  0  0  0
 16 40  1  0  0  0  0
 17  5  1  0  0  0  0
 17 15  1  1  0  0  0
 17 41  1  0  0  0  0
 18 20  1  0  0  0  0
 18 42  1  6  0  0  0
 19  3  1  0  0  0  0
 19 17  1  6  0  0  0
 19 43  1  0  0  0  0
 20 44  1  0  0  0  0
 20 45  1  0  0  0  0
 21 23  1  0  0  0  0
 21 24  2  0  0  0  0
 22 25  1  0  0  0  0
 23 28  1  0  0  0  0
 24 26  1  0  0  0  0
 24 49  1  0  0  0  0
 25 31  1  0  0  0  0
 25 50  1  0  0  0  0
 25 51  1  0  0  0  0
 26 27  1  0  0  0  0
 26 29  2  0  0  0  0
 27 30  2  0  0  0  0
 28 32  2  0  0  0  0
 28 33  1  0  0  0  0
 29 34  1  0  0  0  0
 30 35  1  0  0  0  0
 30 52  1  0  0  0  0
 32 36  1  0  0  0  0
 32 53  1  0  0  0  0
 33 37  2  0  0  0  0
 33 54  1  0  0  0  0
 34 35  2  0  0  0  0
 34 55  1  0  0  0  0
 36 38  2  0  0  0  0
 37 38  1  0  0  0  0
 37 56  1  0  0  0  0
M  CHG  1   7   1
M  END
>  <PUBCHEM_COMPOUND_CID>
102445481

>  <PUBCHEM_COMPOUND_CANONICALIZED>
1

>  <PUBCHEM_CACTVS_COMPLEXITY>
826

>  <PUBCHEM_CACTVS_HBOND_ACCEPTOR>
13

>  <PUBCHEM_CACTVS_HBOND_DONOR>
8

>  <PUBCHEM_CACTVS_ROTATABLE_BOND>
8

>  <PUBCHEM_CACTVS_SUBSKEYS>
AAADceB4PAAAAAAAAAAAAAAAAAAAAAAAAAA0aIEAAAAAAACR9AAAGgAACAAADBSwmAMwDsAABkCIAqDSCAICCAAkIAAIiAFGiMgdNzaONR6ieWOl4BUPuYfK7PzOIAABCAAIQABAAAIQABCAAAAAAAAAAA==

>  <PUBCHEM_IUPAC_OPENEYE_NAME>
3-[(2S,3R,4S,5R,6R)-2-[2-(3,4-dihydroxyphenyl)-5,7-dihydroxy-chromenylium-3-yl]oxy-3,5-dihydroxy-6-(hydroxymethyl)tetrahydropyran-4-yl]oxy-3-oxo-propanoic acid

>  <PUBCHEM_IUPAC_CAS_NAME>
3-[[(2S,3R,4S,5R,6R)-2-[[2-(3,4-dihydroxyphenyl)-5,7-dihydroxy-1-benzopyrylium-3-yl]oxy]-3,5-dihydroxy-6-(hydroxymethyl)-4-oxanyl]oxy]-3-oxopropanoic acid

>  <PUBCHEM_IUPAC_NAME>
3-[(2S,3R,4S,5R,6R)-2-[2-(3,4-dihydroxyphenyl)-5,7-dihydroxychromenylium-3-yl]oxy-3,5-dihydroxy-6-(hydroxymethyl)oxan-4-yl]oxy-3-oxopropanoic acid

>  <PUBCHEM_IUPAC_SYSTEMATIC_NAME>
3-[(2S,3R,4S,5R,6R)-2-[2-[3,4-bis(oxidanyl)phenyl]-5,7-bis(oxidanyl)chromenylium-3-yl]oxy-6-(hydroxymethyl)-3,5-bis(oxidanyl)oxan-4-yl]oxy-3-oxidanylidene-propanoic acid

>  <PUBCHEM_IUPAC_TRADITIONAL_NAME>
3-[(2S,3R,4S,5R,6R)-2-[[2-(3,4-dihydroxyphenyl)-5,7-dihydroxy-1-benzopyrylium-3-yl]oxy]-3,5-dihydroxy-6-methylol-tetrahydropyran-4-yl]oxy-3-keto-propionic acid

>  <PUBCHEM_IUPAC_INCHI>
InChI=1S/C24H22O14/c25-8-17-20(33)23(38-19(32)7-18(30)31)21(34)24(37-17)36-16-6-11-13(28)4-10(26)5-15(11)35-22(16)9-1-2-12(27)14(29)3-9/h1-6,17,20-21,23-25,33-34H,7-8H2,(H4-,26,27,28,29,30,31)/p+1/t17-,20-,21-,23+,24-/m1/s1

>  <PUBCHEM_IUPAC_INCHIKEY>
AWPCCUSBXWEBBS-FYFHWUFJSA-O

>  <PUBCHEM_EXACT_MASS>
535.109

>  <PUBCHEM_MOLECULAR_FORMULA>
C24H23O14+

>  <PUBCHEM_MOLECULAR_WEIGHT>
535.434

>  <PUBCHEM_OPENEYE_CAN_SMILES>
C1=CC(=C(C=C1C2=C(C=C3C(=CC(=CC3=[O+]2)O)O)OC4C(C(C(C(O4)CO)O)OC(=O)CC(=O)O)O)O)O

>  <PUBCHEM_OPENEYE_ISO_SMILES>
C1=CC(=C(C=C1C2=C(C=C3C(=CC(=CC3=[O+]2)O)O)O[C@H]4[C@@H]([C@H]([C@@H]([C@H](O4)CO)O)OC(=O)CC(=O)O)O)O)O

>  <PUBCHEM_CACTVS_TPSA>
225

>  <PUBCHEM_MONOISOTOPIC_WEIGHT>
535.109

>  <PUBCHEM_TOTAL_CHARGE>
1

>  <PUBCHEM_HEAVY_ATOM_COUNT>
38

>  <PUBCHEM_ATOM_DEF_STEREO_COUNT>
5

>  <PUBCHEM_ATOM_UDEF_STEREO_COUNT>
0

>  <PUBCHEM_BOND_DEF_STEREO_COUNT>
0

>  <PUBCHEM_BOND_UDEF_STEREO_COUNT>
0

>  <PUBCHEM_ISOTOPIC_ATOM_COUNT>
0

>  <PUBCHEM_COMPONENT_COUNT>
1

>  <PUBCHEM_CACTVS_TAUTO_COUNT>
441

>  <PUBCHEM_COORDINATE_TYPE>
1
5
255

>  <PUBCHEM_BONDANNOTATIONS>
18  20  5
15  2  5
21  23  8
21  24  8
24  26  8
26  27  8
26  29  8
27  30  8
28  32  8
28  33  8
29  34  8
19  3  5
30  35  8
32  36  8
33  37  8
34  35  8
36  38  8
37  38  8
16  4  6
17  5  6
7  23  8
7  27  8

$$$$
