102470786
 OpenBabel06101807152D

 78 82  0  0  1  0  0  0  0  0999 V2000
    6.3301   -2.7890    0.0000 O   0  0  0  0  0  0  0  0  0  0  0  0
    5.4520    2.7869    0.0000 O   0  0  0  0  0  0  0  0  0  0  0  0
    8.0622   -2.7890    0.0000 O   0  0  0  0  0  0  0  0  0  0  0  0
    4.5981   -4.7890    0.0000 O   0  0  0  0  0  0  0  0  0  0  0  0
    6.3301   -5.7890    0.0000 O   0  0  0  0  0  0  0  0  0  0  0  0
    8.0622   -4.7890    0.0000 O   0  0  0  0  0  0  0  0  0  0  0  0
    7.1840    2.7803    0.0000 O   0  0  0  0  0  0  0  0  0  0  0  0
    5.4636    5.7869    0.0000 O   0  0  0  0  0  0  0  0  0  0  0  0
    3.7277    4.7936    0.0000 O   0  0  0  0  0  0  0  0  0  0  0  0
    7.1918    4.7802    0.0000 O   0  0  0  0  0  0  0  0  0  0  0  0
    3.7320   -3.2890    0.0000 O   0  0  0  0  0  0  0  0  0  0  0  0
    8.9282   -0.2890    0.0000 O   0  0  0  0  0  0  0  0  0  0  0  0
    6.3301   -1.7890    0.0000 O   0  0  0  0  0  0  0  0  0  0  0  0
    5.4260   -0.2921    0.0000 O   0  0  0  0  0  0  0  0  0  0  0  0
    2.8660   -1.7890    0.0000 O   0  0  0  0  0  0  0  0  0  0  0  0
   12.3923   -1.2890    0.0000 O   0  0  0  0  0  0  0  0  0  0  0  0
   12.3923   -3.2890    0.0000 O   0  0  0  0  0  0  0  0  0  0  0  0
    5.4641   -4.2890    0.0000 C   0  0  2  0  0  0  0  0  0  0  0  0
    6.3301   -4.7890    0.0000 C   0  0  1  0  0  0  0  0  0  0  0  0
    5.4641   -3.2890    0.0000 C   0  0  1  0  0  0  0  0  0  0  0  0
    7.1962   -4.2890    0.0000 C   0  0  2  0  0  0  0  0  0  0  0  0
    7.1962   -3.2890    0.0000 C   0  0  1  0  0  0  0  0  0  0  0  0
    5.4597    4.7869    0.0000 C   0  0  2  0  0  0  0  0  0  0  0  0
    4.5918    4.2903    0.0000 C   0  0  2  0  0  0  0  0  0  0  0  0
    6.3238    4.2836    0.0000 C   0  0  2  0  0  0  0  0  0  0  0  0
    4.5879    3.2903    0.0000 C   0  0  2  0  0  0  0  0  0  0  0  0
    6.3200    3.2836    0.0000 C   0  0  1  0  0  0  0  0  0  0  0  0
    4.5981   -2.7890    0.0000 C   0  0  0  0  0  0  0  0  0  0  0  0
    3.7200    2.7936    0.0000 C   0  0  0  0  0  0  0  0  0  0  0  0
    8.0622   -1.7890    0.0000 C   0  0  0  0  0  0  0  0  0  0  0  0
    7.1802    1.7803    0.0000 C   0  0  0  0  0  0  0  0  0  0  0  0
    7.1962   -0.2890    0.0000 C   0  0  0  0  0  0  0  0  0  0  0  0
    7.1962   -1.2890    0.0000 C   0  0  0  0  0  0  0  0  0  0  0  0
    8.9282   -1.2890    0.0000 C   0  0  0  0  0  0  0  0  0  0  0  0
    8.0622    0.2110    0.0000 C   0  0  0  0  0  0  0  0  0  0  0  0
    8.0782    1.2525    0.0000 C   0  0  0  0  0  0  0  0  0  0  0  0
    6.2781    1.2595    0.0000 C   0  0  0  0  0  0  0  0  0  0  0  0
    6.2862    0.2179    0.0000 C   0  0  0  0  0  0  0  0  0  0  0  0
    9.7942   -1.7890    0.0000 C   0  0  0  0  0  0  0  0  0  0  0  0
    2.8660   -2.7890    0.0000 C   0  0  0  0  0  0  0  0  0  0  0  0
   10.6603   -1.2890    0.0000 C   0  0  0  0  0  0  0  0  0  0  0  0
    9.7942   -2.7890    0.0000 C   0  0  0  0  0  0  0  0  0  0  0  0
    2.0000   -3.2890    0.0000 C   0  0  0  0  0  0  0  0  0  0  0  0
   11.5263   -1.7890    0.0000 C   0  0  0  0  0  0  0  0  0  0  0  0
   10.6603   -3.2890    0.0000 C   0  0  0  0  0  0  0  0  0  0  0  0
   11.5263   -2.7890    0.0000 C   0  0  0  0  0  0  0  0  0  0  0  0
    5.4641   -4.9090    0.0000 H   0  0  0  0  0  0  0  0  0  0  0  0
    6.8671   -5.0990    0.0000 H   0  0  0  0  0  0  0  0  0  0  0  0
    5.4641   -2.6690    0.0000 H   0  0  0  0  0  0  0  0  0  0  0  0
    7.7331   -3.9790    0.0000 H   0  0  0  0  0  0  0  0  0  0  0  0
    7.1962   -2.6690    0.0000 H   0  0  0  0  0  0  0  0  0  0  0  0
    5.9978    5.0949    0.0000 H   0  0  0  0  0  0  0  0  0  0  0  0
    4.0536    3.9823    0.0000 H   0  0  0  0  0  0  0  0  0  0  0  0
    6.8596    3.9715    0.0000 H   0  0  0  0  0  0  0  0  0  0  0  0
    4.5855    2.6703    0.0000 H   0  0  0  0  0  0  0  0  0  0  0  0
    6.3176    2.6636    0.0000 H   0  0  0  0  0  0  0  0  0  0  0  0
    4.9966   -2.3140    0.0000 H   0  0  0  0  0  0  0  0  0  0  0  0
    4.1996   -2.3140    0.0000 H   0  0  0  0  0  0  0  0  0  0  0  0
    3.4120    3.3318    0.0000 H   0  0  0  0  0  0  0  0  0  0  0  0
    3.1818    2.4857    0.0000 H   0  0  0  0  0  0  0  0  0  0  0  0
    4.0279    2.2555    0.0000 H   0  0  0  0  0  0  0  0  0  0  0  0
    4.5981   -5.4090    0.0000 H   0  0  0  0  0  0  0  0  0  0  0  0
    5.7932   -6.0990    0.0000 H   0  0  0  0  0  0  0  0  0  0  0  0
    8.0622   -5.4090    0.0000 H   0  0  0  0  0  0  0  0  0  0  0  0
    4.9278    6.0990    0.0000 H   0  0  0  0  0  0  0  0  0  0  0  0
    3.1896    4.4857    0.0000 H   0  0  0  0  0  0  0  0  0  0  0  0
    7.1942    5.4002    0.0000 H   0  0  0  0  0  0  0  0  0  0  0  0
    8.6187    1.5563    0.0000 H   0  0  0  0  0  0  0  0  0  0  0  0
    5.7400    1.5674    0.0000 H   0  0  0  0  0  0  0  0  0  0  0  0
   10.6603   -0.6690    0.0000 H   0  0  0  0  0  0  0  0  0  0  0  0
    9.2573   -3.0990    0.0000 H   0  0  0  0  0  0  0  0  0  0  0  0
    1.6900   -2.7520    0.0000 H   0  0  0  0  0  0  0  0  0  0  0  0
    1.4631   -3.5990    0.0000 H   0  0  0  0  0  0  0  0  0  0  0  0
    2.3100   -3.8259    0.0000 H   0  0  0  0  0  0  0  0  0  0  0  0
    4.8855    0.0116    0.0000 H   0  0  0  0  0  0  0  0  0  0  0  0
   10.6603   -3.9090    0.0000 H   0  0  0  0  0  0  0  0  0  0  0  0
   12.3923   -0.6690    0.0000 H   0  0  0  0  0  0  0  0  0  0  0  0
   12.3923   -3.9090    0.0000 H   0  0  0  0  0  0  0  0  0  0  0  0
  1 20  1  0  0  0  0
  1 22  1  0  0  0  0
  2 26  1  0  0  0  0
  2 27  1  0  0  0  0
  3 30  1  0  0  0  0
  4 62  1  0  0  0  0
  5 63  1  0  0  0  0
  6 64  1  0  0  0  0
  7 31  1  0  0  0  0
  8 65  1  0  0  0  0
  9 66  1  0  0  0  0
 10 67  1  0  0  0  0
 11 28  1  0  0  0  0
 11 40  1  0  0  0  0
 12 34  1  0  0  0  0
 12 35  1  0  0  0  0
 13 33  2  0  0  0  0
 14 38  1  0  0  0  0
 14 75  1  0  0  0  0
 15 40  2  0  0  0  0
 16 44  1  0  0  0  0
 16 77  1  0  0  0  0
 17 46  1  0  0  0  0
 17 78  1  0  0  0  0
 18  4  1  0  0  0  0
 18 19  1  1  0  0  0
 18 47  1  0  0  0  0
 19  5  1  0  0  0  0
 19 21  1  1  0  0  0
 19 48  1  0  0  0  0
 20 18  1  6  0  0  0
 20 28  1  0  0  0  0
 20 49  1  0  0  0  0
 21  6  1  0  0  0  0
 21 22  1  6  0  0  0
 21 50  1  0  0  0  0
 22  3  1  0  0  0  0
 22 51  1  6  0  0  0
 23  8  1  0  0  0  0
 23 24  1  6  0  0  0
 23 52  1  0  0  0  0
 24  9  1  0  0  0  0
 24 26  1  6  0  0  0
 24 53  1  0  0  0  0
 25 10  1  0  0  0  0
 25 23  1  6  0  0  0
 25 54  1  0  0  0  0
 26 29  1  0  0  0  0
 26 55  1  6  0  0  0
 27  7  1  0  0  0  0
 27 25  1  1  0  0  0
 27 56  1  0  0  0  0
 28 57  1  0  0  0  0
 28 58  1  0  0  0  0
 29 59  1  0  0  0  0
 29 60  1  0  0  0  0
 29 61  1  0  0  0  0
 30 33  1  0  0  0  0
 30 34  2  0  0  0  0
 31 36  1  0  0  0  0
 31 37  2  0  0  0  0
 32 33  1  0  0  0  0
 32 35  1  0  0  0  0
 32 38  2  0  0  0  0
 34 39  1  0  0  0  0
 35 36  2  0  0  0  0
 36 68  1  0  0  0  0
 37 38  1  0  0  0  0
 37 69  1  0  0  0  0
 39 41  2  0  0  0  0
 39 42  1  0  0  0  0
 40 43  1  0  0  0  0
 41 44  1  0  0  0  0
 41 70  1  0  0  0  0
 42 45  2  0  0  0  0
 42 71  1  0  0  0  0
 43 72  1  0  0  0  0
 43 73  1  0  0  0  0
 43 74  1  0  0  0  0
 44 46  2  0  0  0  0
 45 46  1  0  0  0  0
 45 76  1  0  0  0  0
M  END
>  <PUBCHEM_COMPOUND_CID>
102470786

>  <PUBCHEM_COMPOUND_CANONICALIZED>
1

>  <PUBCHEM_CACTVS_COMPLEXITY>
1130

>  <PUBCHEM_CACTVS_HBOND_ACCEPTOR>
17

>  <PUBCHEM_CACTVS_HBOND_DONOR>
9

>  <PUBCHEM_CACTVS_ROTATABLE_BOND>
8

>  <PUBCHEM_CACTVS_SUBSKEYS>
AAADcfB4PgAAAAAAAAAAAAAAAAAAAAAAAAA0aIECAAAAAACBQAAAGgAACAAADBSwmAMyDoAABgCIAqDSCAICCAAkIAAIiAFGiMgdNzaGNR6ieWGl4BUPuQfI7LzOIAABCAAIQABAAAIQABCAAAAAAAAAAA==

>  <PUBCHEM_IUPAC_OPENEYE_NAME>
[(2R,3R,4S,5R,6S)-6-[2-(3,4-dihydroxyphenyl)-5-hydroxy-4-oxo-7-[(2S,3R,4R,5R,6S)-3,4,5-trihydroxy-6-methyl-tetrahydropyran-2-yl]oxy-chromen-3-yl]oxy-3,4,5-trihydroxy-tetrahydropyran-2-yl]methyl acetate

>  <PUBCHEM_IUPAC_CAS_NAME>
acetic acid [(2R,3R,4S,5R,6S)-6-[[2-(3,4-dihydroxyphenyl)-5-hydroxy-4-oxo-7-[[(2S,3R,4R,5R,6S)-3,4,5-trihydroxy-6-methyl-2-oxanyl]oxy]-1-benzopyran-3-yl]oxy]-3,4,5-trihydroxy-2-oxanyl]methyl ester

>  <PUBCHEM_IUPAC_NAME>
[(2R,3R,4S,5R,6S)-6-[2-(3,4-dihydroxyphenyl)-5-hydroxy-4-oxo-7-[(2S,3R,4R,5R,6S)-3,4,5-trihydroxy-6-methyloxan-2-yl]oxychromen-3-yl]oxy-3,4,5-trihydroxyoxan-2-yl]methyl acetate

>  <PUBCHEM_IUPAC_SYSTEMATIC_NAME>
[(2R,3R,4S,5R,6S)-6-[2-[3,4-bis(oxidanyl)phenyl]-7-[(2S,3R,4R,5R,6S)-6-methyl-3,4,5-tris(oxidanyl)oxan-2-yl]oxy-5-oxidanyl-4-oxidanylidene-chromen-3-yl]oxy-3,4,5-tris(oxidanyl)oxan-2-yl]methyl ethanoate

>  <PUBCHEM_IUPAC_TRADITIONAL_NAME>
acetic acid [(2R,3R,4S,5R,6S)-6-[2-(3,4-dihydroxyphenyl)-5-hydroxy-4-keto-7-[(2S,3R,4R,5R,6S)-3,4,5-trihydroxy-6-methyl-tetrahydropyran-2-yl]oxy-chromen-3-yl]oxy-3,4,5-trihydroxy-tetrahydropyran-2-yl]methyl ester

>  <PUBCHEM_IUPAC_INCHI>
InChI=1S/C29H32O17/c1-9-19(34)22(37)24(39)28(42-9)43-12-6-15(33)18-16(7-12)44-26(11-3-4-13(31)14(32)5-11)27(21(18)36)46-29-25(40)23(38)20(35)17(45-29)8-41-10(2)30/h3-7,9,17,19-20,22-25,28-29,31-35,37-40H,8H2,1-2H3/t9-,17+,19-,20-,22+,23-,24+,25+,28-,29-/m0/s1

>  <PUBCHEM_IUPAC_INCHIKEY>
QBFLREGYLMFMCL-DAYMEKKUSA-N

>  <PUBCHEM_XLOGP3_AA>
-0.9

>  <PUBCHEM_EXACT_MASS>
652.164

>  <PUBCHEM_MOLECULAR_FORMULA>
C29H32O17

>  <PUBCHEM_MOLECULAR_WEIGHT>
652.558

>  <PUBCHEM_OPENEYE_CAN_SMILES>
CC1C(C(C(C(O1)OC2=CC(=C3C(=C2)OC(=C(C3=O)OC4C(C(C(C(O4)COC(=O)C)O)O)O)C5=CC(=C(C=C5)O)O)O)O)O)O

>  <PUBCHEM_OPENEYE_ISO_SMILES>
C[C@H]1[C@@H]([C@H]([C@H]([C@@H](O1)OC2=CC(=C3C(=C2)OC(=C(C3=O)O[C@H]4[C@@H]([C@H]([C@H]([C@H](O4)COC(=O)C)O)O)O)C5=CC(=C(C=C5)O)O)O)O)O)O

>  <PUBCHEM_CACTVS_TPSA>
272

>  <PUBCHEM_MONOISOTOPIC_WEIGHT>
652.164

>  <PUBCHEM_TOTAL_CHARGE>
0

>  <PUBCHEM_HEAVY_ATOM_COUNT>
46

>  <PUBCHEM_ATOM_DEF_STEREO_COUNT>
10

>  <PUBCHEM_ATOM_UDEF_STEREO_COUNT>
0

>  <PUBCHEM_BOND_DEF_STEREO_COUNT>
0

>  <PUBCHEM_BOND_UDEF_STEREO_COUNT>
0

>  <PUBCHEM_ISOTOPIC_ATOM_COUNT>
0

>  <PUBCHEM_COMPONENT_COUNT>
1

>  <PUBCHEM_CACTVS_TAUTO_COUNT>
96

>  <PUBCHEM_COORDINATE_TYPE>
1
5
255

>  <PUBCHEM_BONDANNOTATIONS>
25  10  5
12  34  8
12  35  8
20  28  5
26  29  5
22  3  5
30  33  8
30  34  8
31  36  8
31  37  8
32  33  8
32  35  8
32  38  8
35  36  8
37  38  8
39  41  8
39  42  8
18  4  5
41  44  8
42  45  8
44  46  8
45  46  8
19  5  5
21  6  6
27  7  6
23  8  5
24  9  6

$$$$
