102444980
 OpenBabel06101807152D

 52 55  0  0  0  0  0  0  0  0999 V2000
    5.3800    1.7403    0.0000 O   0  0  0  0  0  0  0  0  0  0  0  0
    2.8153    0.1914    0.0000 O   0  0  0  0  0  0  0  0  0  0  0  0
    3.6200    4.7750    0.0000 O   0  0  0  0  0  0  0  0  0  0  0  0
    2.6200   -3.3529    0.0000 O   0  0  0  0  0  0  0  0  0  0  0  0
    6.2860    2.2542    0.0000 C   0  0  0  0  0  0  0  0  0  0  0  0
    4.4860    2.2750    0.0000 C   0  0  0  0  0  0  0  0  0  0  0  0
    3.6200    1.7750    0.0000 C   0  0  0  0  0  0  0  0  0  0  0  0
    4.4860    3.2750    0.0000 C   0  0  0  0  0  0  0  0  0  0  0  0
    6.2860    3.2958    0.0000 C   0  0  0  0  0  0  0  0  0  0  0  0
    3.6200    0.7750    0.0000 C   0  0  0  0  0  0  0  0  0  0  0  0
    7.2860    2.2503    0.0000 C   0  0  0  0  0  0  0  0  0  0  0  0
    6.7827    1.3862    0.0000 C   0  0  0  0  0  0  0  0  0  0  0  0
    5.3800    3.8096    0.0000 C   0  0  0  0  0  0  0  0  0  0  0  0
    4.1200   -0.7549    0.0000 C   0  0  0  0  0  0  0  0  0  0  0  0
    3.1200   -0.7549    0.0000 C   0  0  0  0  0  0  0  0  0  0  0  0
    4.4247    0.1914    0.0000 C   0  0  0  0  0  0  0  0  0  0  0  0
    3.6200    3.7750    0.0000 C   0  0  0  0  0  0  0  0  0  0  0  0
    2.7540    2.2750    0.0000 C   0  0  0  0  0  0  0  0  0  0  0  0
    4.1200   -2.4869    0.0000 C   0  0  0  0  0  0  0  0  0  0  0  0
    4.6200   -1.6209    0.0000 C   0  0  0  0  0  0  0  0  0  0  0  0
    2.7540    3.2750    0.0000 C   0  0  0  0  0  0  0  0  0  0  0  0
    2.6200   -1.6209    0.0000 C   0  0  0  0  0  0  0  0  0  0  0  0
    3.1200   -2.4869    0.0000 C   0  0  0  0  0  0  0  0  0  0  0  0
    4.6200   -3.3529    0.0000 C   0  0  0  0  0  0  0  0  0  0  0  0
    5.6200   -3.3529    0.0000 C   0  0  0  0  0  0  0  0  0  0  0  0
    6.1200   -4.2190    0.0000 C   0  0  0  0  0  0  0  0  0  0  0  0
    7.1200   -4.2190    0.0000 C   0  0  0  0  0  0  0  0  0  0  0  0
    5.6200   -5.0850    0.0000 C   0  0  0  0  0  0  0  0  0  0  0  0
    6.8218    3.6079    0.0000 H   0  0  0  0  0  0  0  0  0  0  0  0
    7.2836    1.6303    0.0000 H   0  0  0  0  0  0  0  0  0  0  0  0
    7.9060    2.2479    0.0000 H   0  0  0  0  0  0  0  0  0  0  0  0
    7.2884    2.8703    0.0000 H   0  0  0  0  0  0  0  0  0  0  0  0
    6.2446    1.0783    0.0000 H   0  0  0  0  0  0  0  0  0  0  0  0
    7.0906    0.8481    0.0000 H   0  0  0  0  0  0  0  0  0  0  0  0
    7.3208    1.6941    0.0000 H   0  0  0  0  0  0  0  0  0  0  0  0
    5.3728    4.4296    0.0000 H   0  0  0  0  0  0  0  0  0  0  0  0
    5.0140    0.3840    0.0000 H   0  0  0  0  0  0  0  0  0  0  0  0
    2.2170    1.9650    0.0000 H   0  0  0  0  0  0  0  0  0  0  0  0
    5.2400   -1.6209    0.0000 H   0  0  0  0  0  0  0  0  0  0  0  0
    2.2170    3.5850    0.0000 H   0  0  0  0  0  0  0  0  0  0  0  0
    2.0000   -1.6209    0.0000 H   0  0  0  0  0  0  0  0  0  0  0  0
    4.0374   -3.5650    0.0000 H   0  0  0  0  0  0  0  0  0  0  0  0
    4.7277   -3.9635    0.0000 H   0  0  0  0  0  0  0  0  0  0  0  0
    5.9300   -2.8160    0.0000 H   0  0  0  0  0  0  0  0  0  0  0  0
    3.0831    5.0850    0.0000 H   0  0  0  0  0  0  0  0  0  0  0  0
    2.0000   -3.3529    0.0000 H   0  0  0  0  0  0  0  0  0  0  0  0
    5.0831   -4.7750    0.0000 H   0  0  0  0  0  0  0  0  0  0  0  0
    5.3100   -5.6219    0.0000 H   0  0  0  0  0  0  0  0  0  0  0  0
    7.1200   -4.8390    0.0000 H   0  0  0  0  0  0  0  0  0  0  0  0
    7.7400   -4.2190    0.0000 H   0  0  0  0  0  0  0  0  0  0  0  0
    7.1200   -3.5990    0.0000 H   0  0  0  0  0  0  0  0  0  0  0  0
    6.1569   -5.3950    0.0000 H   0  0  0  0  0  0  0  0  0  0  0  0
  1  5  1  0  0  0  0
  1  6  1  0  0  0  0
  2 10  1  0  0  0  0
  2 15  1  0  0  0  0
  3 17  1  0  0  0  0
  3 45  1  0  0  0  0
  4 23  1  0  0  0  0
  4 46  1  0  0  0  0
  5  9  1  0  0  0  0
  5 11  1  0  0  0  0
  5 12  1  0  0  0  0
  6  7  2  0  0  0  0
  6  8  1  0  0  0  0
  7 10  1  0  0  0  0
  7 18  1  0  0  0  0
  8 13  1  0  0  0  0
  8 17  2  0  0  0  0
  9 13  2  0  0  0  0
  9 29  1  0  0  0  0
 10 16  2  0  0  0  0
 11 30  1  0  0  0  0
 11 31  1  0  0  0  0
 11 32  1  0  0  0  0
 12 33  1  0  0  0  0
 12 34  1  0  0  0  0
 12 35  1  0  0  0  0
 13 36  1  0  0  0  0
 14 15  1  0  0  0  0
 14 16  1  0  0  0  0
 14 20  2  0  0  0  0
 15 22  2  0  0  0  0
 16 37  1  0  0  0  0
 17 21  1  0  0  0  0
 18 21  2  0  0  0  0
 18 38  1  0  0  0  0
 19 20  1  0  0  0  0
 19 23  2  0  0  0  0
 19 24  1  0  0  0  0
 20 39  1  0  0  0  0
 21 40  1  0  0  0  0
 22 23  1  0  0  0  0
 22 41  1  0  0  0  0
 24 25  1  0  0  0  0
 24 42  1  0  0  0  0
 24 43  1  0  0  0  0
 25 26  2  0  0  0  0
 25 44  1  0  0  0  0
 26 27  1  0  0  0  0
 26 28  1  0  0  0  0
 27 49  1  0  0  0  0
 27 50  1  0  0  0  0
 27 51  1  0  0  0  0
 28 47  1  0  0  0  0
 28 48  1  0  0  0  0
 28 52  1  0  0  0  0
M  END
>  <PUBCHEM_COMPOUND_CID>
102444980

>  <PUBCHEM_COMPOUND_CANONICALIZED>
1

>  <PUBCHEM_CACTVS_COMPLEXITY>
620

>  <PUBCHEM_CACTVS_HBOND_ACCEPTOR>
4

>  <PUBCHEM_CACTVS_HBOND_DONOR>
2

>  <PUBCHEM_CACTVS_ROTATABLE_BOND>
3

>  <PUBCHEM_CACTVS_SUBSKEYS>
AAADceB4OAAAAAAAAAAAAAAAAAAAASAAAAAwYIAAAAAAAEiB9AAAGgAACAAADESAmAAyBsAABkCIAqBSAAACCAAkIAAIiAEGCMgMJzaGNRqCeWCl4BUIuYeI7PzOIAACCAAIAABAAAQQABAAAAAAAAAAAA==

>  <PUBCHEM_IUPAC_OPENEYE_NAME>
8-[6-hydroxy-5-(3-methylbut-2-enyl)benzofuran-2-yl]-2,2-dimethyl-chromen-5-ol

>  <PUBCHEM_IUPAC_CAS_NAME>
8-[6-hydroxy-5-(3-methylbut-2-enyl)-2-benzofuranyl]-2,2-dimethyl-1-benzopyran-5-ol

>  <PUBCHEM_IUPAC_NAME>
8-[6-hydroxy-5-(3-methylbut-2-enyl)-1-benzofuran-2-yl]-2,2-dimethylchromen-5-ol

>  <PUBCHEM_IUPAC_SYSTEMATIC_NAME>
2,2-dimethyl-8-[5-(3-methylbut-2-enyl)-6-oxidanyl-1-benzofuran-2-yl]chromen-5-ol

>  <PUBCHEM_IUPAC_TRADITIONAL_NAME>
8-[6-hydroxy-5-(3-methylbut-2-enyl)benzofuran-2-yl]-2,2-dimethyl-chromen-5-ol

>  <PUBCHEM_IUPAC_INCHI>
InChI=1S/C24H24O4/c1-14(2)5-6-15-11-16-12-22(27-21(16)13-20(15)26)18-7-8-19(25)17-9-10-24(3,4)28-23(17)18/h5,7-13,25-26H,6H2,1-4H3

>  <PUBCHEM_IUPAC_INCHIKEY>
AKOSXIFOBUWPLU-UHFFFAOYSA-N

>  <PUBCHEM_XLOGP3_AA>
6.1

>  <PUBCHEM_EXACT_MASS>
376.167

>  <PUBCHEM_MOLECULAR_FORMULA>
C24H24O4

>  <PUBCHEM_MOLECULAR_WEIGHT>
376.452

>  <PUBCHEM_OPENEYE_CAN_SMILES>
CC(=CCC1=C(C=C2C(=C1)C=C(O2)C3=C4C(=C(C=C3)O)C=CC(O4)(C)C)O)C

>  <PUBCHEM_OPENEYE_ISO_SMILES>
CC(=CCC1=C(C=C2C(=C1)C=C(O2)C3=C4C(=C(C=C3)O)C=CC(O4)(C)C)O)C

>  <PUBCHEM_CACTVS_TPSA>
62.8

>  <PUBCHEM_MONOISOTOPIC_WEIGHT>
376.167

>  <PUBCHEM_TOTAL_CHARGE>
0

>  <PUBCHEM_HEAVY_ATOM_COUNT>
28

>  <PUBCHEM_ATOM_DEF_STEREO_COUNT>
0

>  <PUBCHEM_ATOM_UDEF_STEREO_COUNT>
0

>  <PUBCHEM_BOND_DEF_STEREO_COUNT>
0

>  <PUBCHEM_BOND_UDEF_STEREO_COUNT>
0

>  <PUBCHEM_ISOTOPIC_ATOM_COUNT>
0

>  <PUBCHEM_COMPONENT_COUNT>
1

>  <PUBCHEM_CACTVS_TAUTO_COUNT>
216

>  <PUBCHEM_COORDINATE_TYPE>
1
5
255

>  <PUBCHEM_BONDANNOTATIONS>
10  16  8
14  15  8
14  16  8
14  20  8
15  22  8
17  21  8
18  21  8
19  20  8
19  23  8
2  10  8
2  15  8
22  23  8
6  7  8
6  8  8
7  18  8
8  17  8

$$$$
