102476814
 OpenBabel06101807152D

 59 62  0  0  1  0  0  0  0  0999 V2000
    8.9809    1.3410    0.0000 O   0  0  0  0  0  0  0  0  0  0  0  0
    6.8671   -1.1543    0.0000 O   0  0  0  0  0  0  0  0  0  0  0  0
    5.1350   -1.1543    0.0000 O   0  0  0  0  0  0  0  0  0  0  0  0
   10.3457    0.2041    0.0000 O   0  0  0  0  0  0  0  0  0  0  0  0
    6.8671   -3.1543    0.0000 O   0  0  0  0  0  0  0  0  0  0  0  0
    5.1118    3.2932    0.0000 O   0  0  0  0  0  0  0  0  0  0  0  0
    5.1350   -4.1543    0.0000 O   0  0  0  0  0  0  0  0  0  0  0  0
    3.4030   -3.1543    0.0000 O   0  0  0  0  0  0  0  0  0  0  0  0
    8.8285    4.2717    0.0000 O   0  0  0  0  0  0  0  0  0  0  0  0
    2.5369   -1.6543    0.0000 O   0  0  0  0  0  0  0  0  0  0  0  0
    7.7680    0.2796    0.0000 C   0  0  1  0  0  0  0  0  0  0  0  0
    7.9906    1.2545    0.0000 C   0  0  1  0  0  0  0  0  0  0  0  0
    6.8671   -0.1543    0.0000 C   0  0  2  0  0  0  0  0  0  0  0  0
    7.3671    2.0363    0.0000 C   0  0  2  0  0  0  0  0  0  0  0  0
    8.6227   -0.2281    0.0000 C   0  0  1  0  0  0  0  0  0  0  0  0
    5.9661    0.2796    0.0000 C   0  0  0  0  0  0  0  0  0  0  0  0
    6.3671    2.0363    0.0000 C   0  0  0  0  0  0  0  0  0  0  0  0
    5.7436    1.2545    0.0000 C   0  0  0  0  0  0  0  0  0  0  0  0
    7.6718    2.9825    0.0000 C   0  0  0  0  0  0  0  0  0  0  0  0
    9.3708    0.4266    0.0000 C   0  0  0  0  0  0  0  0  0  0  0  0
    8.7141   -1.2239    0.0000 C   0  0  0  0  0  0  0  0  0  0  0  0
    6.0010   -1.6543    0.0000 C   0  0  2  0  0  0  0  0  0  0  0  0
    6.0623    2.9825    0.0000 C   0  0  0  0  0  0  0  0  0  0  0  0
    6.0010   -2.6543    0.0000 C   0  0  1  0  0  0  0  0  0  0  0  0
    6.8671    3.5662    0.0000 C   0  0  0  0  0  0  0  0  0  0  0  0
    5.1350   -3.1543    0.0000 C   0  0  2  0  0  0  0  0  0  0  0  0
    4.7686    1.4770    0.0000 C   0  0  0  0  0  0  0  0  0  0  0  0
    4.2690   -2.6543    0.0000 C   0  0  1  0  0  0  0  0  0  0  0  0
    4.2690   -1.6543    0.0000 C   0  0  1  0  0  0  0  0  0  0  0  0
    8.6223    3.2932    0.0000 C   0  0  0  0  0  0  0  0  0  0  0  0
    3.4030   -1.1543    0.0000 C   0  0  0  0  0  0  0  0  0  0  0  0
    7.7310   -0.5696    0.0000 H   0  0  0  0  0  0  0  0  0  0  0  0
    8.3256    2.0357    0.0000 H   0  0  0  0  0  0  0  0  0  0  0  0
    6.3421   -0.4842    0.0000 H   0  0  0  0  0  0  0  0  0  0  0  0
    8.2032    2.1892    0.0000 H   0  0  0  0  0  0  0  0  0  0  0  0
    9.1984   -0.4582    0.0000 H   0  0  0  0  0  0  0  0  0  0  0  0
    5.3461    0.2796    0.0000 H   0  0  0  0  0  0  0  0  0  0  0  0
    5.8281   -0.3249    0.0000 H   0  0  0  0  0  0  0  0  0  0  0  0
    8.0967   -1.2805    0.0000 H   0  0  0  0  0  0  0  0  0  0  0  0
    8.7707   -1.8413    0.0000 H   0  0  0  0  0  0  0  0  0  0  0  0
    9.3315   -1.1673    0.0000 H   0  0  0  0  0  0  0  0  0  0  0  0
    6.0010   -1.0343    0.0000 H   0  0  0  0  0  0  0  0  0  0  0  0
    6.0010   -3.2743    0.0000 H   0  0  0  0  0  0  0  0  0  0  0  0
    6.8671    4.1861    0.0000 H   0  0  0  0  0  0  0  0  0  0  0  0
    4.5981   -3.4643    0.0000 H   0  0  0  0  0  0  0  0  0  0  0  0
    3.7320   -2.3443    0.0000 H   0  0  0  0  0  0  0  0  0  0  0  0
    4.9066    2.0815    0.0000 H   0  0  0  0  0  0  0  0  0  0  0  0
    4.1642    1.6150    0.0000 H   0  0  0  0  0  0  0  0  0  0  0  0
    4.6307    0.8726    0.0000 H   0  0  0  0  0  0  0  0  0  0  0  0
    4.2690   -1.0343    0.0000 H   0  0  0  0  0  0  0  0  0  0  0  0
    8.7097    2.6794    0.0000 H   0  0  0  0  0  0  0  0  0  0  0  0
    9.2420    3.2726    0.0000 H   0  0  0  0  0  0  0  0  0  0  0  0
    3.8015   -0.6794    0.0000 H   0  0  0  0  0  0  0  0  0  0  0  0
    3.0044   -0.6794    0.0000 H   0  0  0  0  0  0  0  0  0  0  0  0
    6.8671   -3.7743    0.0000 H   0  0  0  0  0  0  0  0  0  0  0  0
    4.5981   -4.4643    0.0000 H   0  0  0  0  0  0  0  0  0  0  0  0
    3.4030   -3.7743    0.0000 H   0  0  0  0  0  0  0  0  0  0  0  0
    9.4179    4.4643    0.0000 H   0  0  0  0  0  0  0  0  0  0  0  0
    2.0000   -1.3443    0.0000 H   0  0  0  0  0  0  0  0  0  0  0  0
  1 12  1  0  0  0  0
  1 20  1  0  0  0  0
  3 22  1  0  0  0  0
  3 29  1  0  0  0  0
  4 20  2  0  0  0  0
  5 55  1  0  0  0  0
  6 23  2  0  0  0  0
  7 56  1  0  0  0  0
  8 57  1  0  0  0  0
  9 30  1  0  0  0  0
  9 58  1  0  0  0  0
 10 31  1  0  0  0  0
 10 59  1  0  0  0  0
 11 12  1  1  0  0  0
 11 32  1  0  0  0  0
 12 14  1  1  0  0  0
 12 33  1  0  0  0  0
 13  2  1  0  0  0  0
 13 11  1  6  0  0  0
 13 16  1  0  0  0  0
 13 34  1  0  0  0  0
 14 17  1  0  0  0  0
 14 19  1  0  0  0  0
 14 35  1  1  0  0  0
 15 11  1  6  0  0  0
 15 20  1  0  0  0  0
 15 21  1  0  0  0  0
 15 36  1  0  0  0  0
 16 18  1  0  0  0  0
 16 37  1  0  0  0  0
 16 38  1  0  0  0  0
 17 18  2  0  0  0  0
 17 23  1  0  0  0  0
 18 27  1  0  0  0  0
 19 25  2  0  0  0  0
 19 30  1  0  0  0  0
 21 39  1  0  0  0  0
 21 40  1  0  0  0  0
 21 41  1  0  0  0  0
 22  2  1  0  0  0  0
 22 24  1  6  0  0  0
 22 42  1  0  0  0  0
 23 25  1  0  0  0  0
 24  5  1  0  0  0  0
 24 26  1  6  0  0  0
 24 43  1  0  0  0  0
 25 44  1  0  0  0  0
 26  7  1  0  0  0  0
 26 28  1  1  0  0  0
 26 45  1  0  0  0  0
 27 47  1  0  0  0  0
 27 48  1  0  0  0  0
 27 49  1  0  0  0  0
 28  8  1  0  0  0  0
 28 29  1  6  0  0  0
 28 46  1  0  0  0  0
 29 31  1  0  0  0  0
 29 50  1  6  0  0  0
 30 51  1  0  0  0  0
 30 52  1  0  0  0  0
 31 53  1  0  0  0  0
 31 54  1  0  0  0  0
M  END
>  <PUBCHEM_COMPOUND_CID>
102476814

>  <PUBCHEM_COMPOUND_CANONICALIZED>
1

>  <PUBCHEM_CACTVS_COMPLEXITY>
819

>  <PUBCHEM_CACTVS_HBOND_ACCEPTOR>
10

>  <PUBCHEM_CACTVS_HBOND_DONOR>
5

>  <PUBCHEM_CACTVS_ROTATABLE_BOND>
4

>  <PUBCHEM_CACTVS_SUBSKEYS>
AAADceB4PAAAAAAAAAAAAAAAAAAAASIAAAAkAAAABAAAAACAAAAAGgAACAAADRSwgAMCCAAABgCIAqDSCAAAAAAgAAAACAEAAEgRFBIAAQAiUAAFwAAPEQPK7PyOgAAAAAAAAAAAAAAAAAAAAAAAAAAAAA==

>  <PUBCHEM_IUPAC_OPENEYE_NAME>
(3S,3aR,4S,9aS,9bR)-9-(hydroxymethyl)-3,6-dimethyl-4-[(2R,3R,4S,5S,6R)-3,4,5-trihydroxy-6-(hydroxymethyl)tetrahydropyran-2-yl]oxy-3,3a,4,5,9a,9b-hexahydroazuleno[4,5-b]furan-2,7-dione

>  <PUBCHEM_IUPAC_CAS_NAME>
(3S,3aR,4S,9aS,9bR)-9-(hydroxymethyl)-3,6-dimethyl-4-[[(2R,3R,4S,5S,6R)-3,4,5-trihydroxy-6-(hydroxymethyl)-2-oxanyl]oxy]-3,3a,4,5,9a,9b-hexahydroazuleno[4,5-b]furan-2,7-dione

>  <PUBCHEM_IUPAC_NAME>
(3S,3aR,4S,9aS,9bR)-9-(hydroxymethyl)-3,6-dimethyl-4-[(2R,3R,4S,5S,6R)-3,4,5-trihydroxy-6-(hydroxymethyl)oxan-2-yl]oxy-3,3a,4,5,9a,9b-hexahydroazuleno[4,5-b]furan-2,7-dione

>  <PUBCHEM_IUPAC_SYSTEMATIC_NAME>
(3S,3aR,4S,9aS,9bR)-9-(hydroxymethyl)-4-[(2R,3R,4S,5S,6R)-6-(hydroxymethyl)-3,4,5-tris(oxidanyl)oxan-2-yl]oxy-3,6-dimethyl-3,3a,4,5,9a,9b-hexahydroazuleno[4,5-b]furan-2,7-dione

>  <PUBCHEM_IUPAC_TRADITIONAL_NAME>
(3S,3aR,4S,9aS,9bR)-3,6-dimethyl-9-methylol-4-[(2R,3R,4S,5S,6R)-3,4,5-trihydroxy-6-methylol-tetrahydropyran-2-yl]oxy-3,3a,4,5,9a,9b-hexahydroazuleno[4,5-b]furan-2,7-quinone

>  <PUBCHEM_IUPAC_INCHI>
InChI=1S/C21H28O10/c1-7-3-11(29-21-18(27)17(26)16(25)12(6-23)30-21)14-8(2)20(28)31-19(14)15-9(5-22)4-10(24)13(7)15/h4,8,11-12,14-19,21-23,25-27H,3,5-6H2,1-2H3/t8-,11-,12+,14+,15-,16+,17-,18+,19-,21+/m0/s1

>  <PUBCHEM_IUPAC_INCHIKEY>
NUAIXFCSBZGUAF-PNSMZNPGSA-N

>  <PUBCHEM_XLOGP3_AA>
-2.2

>  <PUBCHEM_EXACT_MASS>
440.168

>  <PUBCHEM_MOLECULAR_FORMULA>
C21H28O10

>  <PUBCHEM_MOLECULAR_WEIGHT>
440.445

>  <PUBCHEM_OPENEYE_CAN_SMILES>
CC1C2C(CC(=C3C(C2OC1=O)C(=CC3=O)CO)C)OC4C(C(C(C(O4)CO)O)O)O

>  <PUBCHEM_OPENEYE_ISO_SMILES>
C[C@H]1[C@@H]2[C@H](CC(=C3[C@@H]([C@H]2OC1=O)C(=CC3=O)CO)C)O[C@H]4[C@@H]([C@H]([C@@H]([C@H](O4)CO)O)O)O

>  <PUBCHEM_CACTVS_TPSA>
163

>  <PUBCHEM_MONOISOTOPIC_WEIGHT>
440.168

>  <PUBCHEM_TOTAL_CHARGE>
0

>  <PUBCHEM_HEAVY_ATOM_COUNT>
31

>  <PUBCHEM_ATOM_DEF_STEREO_COUNT>
10

>  <PUBCHEM_ATOM_UDEF_STEREO_COUNT>
0

>  <PUBCHEM_BOND_DEF_STEREO_COUNT>
0

>  <PUBCHEM_BOND_UDEF_STEREO_COUNT>
0

>  <PUBCHEM_ISOTOPIC_ATOM_COUNT>
0

>  <PUBCHEM_COMPONENT_COUNT>
1

>  <PUBCHEM_CACTVS_TAUTO_COUNT>
36

>  <PUBCHEM_COORDINATE_TYPE>
1
5
255

>  <PUBCHEM_BONDANNOTATIONS>
11  32  5
12  33  6
14  35  5
15  21  5
13  2  5
22  2  5
29  31  5
24  5  6
26  7  5
28  8  6

$$$$
