102476813
 OpenBabel06101807152D

 59 62  0  0  1  0  0  0  0  0999 V2000
    5.1830    0.9418    0.0000 O   0  0  0  0  0  0  0  0  0  0  0  0
    6.5918   -1.6326    0.0000 O   0  0  0  0  0  0  0  0  0  0  0  0
    6.0047    4.1071    0.0000 O   0  0  0  0  0  0  0  0  0  0  0  0
    5.1779   -1.6033    0.0000 O   0  0  0  0  0  0  0  0  0  0  0  0
    3.4600    1.3739    0.0000 O   0  0  0  0  0  0  0  0  0  0  0  0
    5.8333   -4.1065    0.0000 O   0  0  0  0  0  0  0  0  0  0  0  0
    9.5159    0.8616    0.0000 O   0  0  0  0  0  0  0  0  0  0  0  0
    3.6920   -3.7218    0.0000 O   0  0  0  0  0  0  0  0  0  0  0  0
    6.7832   -3.7968    0.0000 O   0  0  0  0  0  0  0  0  0  0  0  0
    2.5465   -2.0936    0.0000 O   0  0  0  0  0  0  0  0  0  0  0  0
    5.8151    2.4243    0.0000 C   0  0  2  0  0  0  0  0  0  0  0  0
    6.0377    1.4494    0.0000 C   0  0  1  0  0  0  0  0  0  0  0  0
    6.9386    1.0155    0.0000 C   0  0  2  0  0  0  0  0  0  0  0  0
    4.8248    2.5109    0.0000 C   0  0  1  0  0  0  0  0  0  0  0  0
    6.4386    3.2062    0.0000 C   0  0  2  0  0  0  0  0  0  0  0  0
    7.8396    1.4494    0.0000 C   0  0  0  0  0  0  0  0  0  0  0  0
    7.4386    3.2062    0.0000 C   0  0  0  0  0  0  0  0  0  0  0  0
    7.0746    0.0308    0.0000 C   0  0  0  0  0  0  0  0  0  0  0  0
    8.0621    2.4243    0.0000 C   0  0  0  0  0  0  0  0  0  0  0  0
    4.4349    1.5965    0.0000 C   0  0  0  0  0  0  0  0  0  0  0  0
    5.8702   -2.3249    0.0000 C   0  0  2  0  0  0  0  0  0  0  0  0
    4.3104    3.3684    0.0000 C   0  0  0  0  0  0  0  0  0  0  0  0
    6.3530   -0.6615    0.0000 C   0  0  0  0  0  0  0  0  0  0  0  0
    8.5247    0.7291    0.0000 C   0  0  0  0  0  0  0  0  0  0  0  0
    8.0529   -0.1459    0.0000 C   0  0  0  0  0  0  0  0  0  0  0  0
    5.3978   -3.2063    0.0000 C   0  0  2  0  0  0  0  0  0  0  0  0
    4.4136   -3.0295    0.0000 C   0  0  1  0  0  0  0  0  0  0  0  0
    4.2777   -2.0388    0.0000 C   0  0  1  0  0  0  0  0  0  0  0  0
    9.0370    2.6469    0.0000 C   0  0  0  0  0  0  0  0  0  0  0  0
    6.7516   -2.7972    0.0000 C   0  0  0  0  0  0  0  0  0  0  0  0
    3.3962   -1.5664    0.0000 C   0  0  0  0  0  0  0  0  0  0  0  0
    5.4800    3.2055    0.0000 H   0  0  0  0  0  0  0  0  0  0  0  0
    6.0747    0.6002    0.0000 H   0  0  0  0  0  0  0  0  0  0  0  0
    6.2516    0.5150    0.0000 H   0  0  0  0  0  0  0  0  0  0  0  0
    5.1536    3.0366    0.0000 H   0  0  0  0  0  0  0  0  0  0  0  0
    6.7685    3.7311    0.0000 H   0  0  0  0  0  0  0  0  0  0  0  0
    7.9972    3.4752    0.0000 H   0  0  0  0  0  0  0  0  0  0  0  0
    7.3007    3.8106    0.0000 H   0  0  0  0  0  0  0  0  0  0  0  0
    6.0080   -0.1464    0.0000 H   0  0  0  0  0  0  0  0  0  0  0  0
    5.7858   -0.9118    0.0000 H   0  0  0  0  0  0  0  0  0  0  0  0
    4.8421    3.6874    0.0000 H   0  0  0  0  0  0  0  0  0  0  0  0
    3.9915    3.9001    0.0000 H   0  0  0  0  0  0  0  0  0  0  0  0
    3.7788    3.0495    0.0000 H   0  0  0  0  0  0  0  0  0  0  0  0
    8.3219   -0.7045    0.0000 H   0  0  0  0  0  0  0  0  0  0  0  0
    6.0177   -3.2192    0.0000 H   0  0  0  0  0  0  0  0  0  0  0  0
    4.5930   -3.6230    0.0000 H   0  0  0  0  0  0  0  0  0  0  0  0
    4.2905   -1.4189    0.0000 H   0  0  0  0  0  0  0  0  0  0  0  0
    6.3540    4.6194    0.0000 H   0  0  0  0  0  0  0  0  0  0  0  0
    9.1750    2.0424    0.0000 H   0  0  0  0  0  0  0  0  0  0  0  0
    9.6415    2.7848    0.0000 H   0  0  0  0  0  0  0  0  0  0  0  0
    8.8991    3.2513    0.0000 H   0  0  0  0  0  0  0  0  0  0  0  0
    7.3653   -2.8855    0.0000 H   0  0  0  0  0  0  0  0  0  0  0  0
    6.9451   -2.2082    0.0000 H   0  0  0  0  0  0  0  0  0  0  0  0
    3.7795   -1.0791    0.0000 H   0  0  0  0  0  0  0  0  0  0  0  0
    2.9829   -1.1043    0.0000 H   0  0  0  0  0  0  0  0  0  0  0  0
    5.4849   -4.6194    0.0000 H   0  0  0  0  0  0  0  0  0  0  0  0
    3.8400   -4.3238    0.0000 H   0  0  0  0  0  0  0  0  0  0  0  0
    7.3297   -4.0896    0.0000 H   0  0  0  0  0  0  0  0  0  0  0  0
    2.0000   -1.8007    0.0000 H   0  0  0  0  0  0  0  0  0  0  0  0
  1 12  1  0  0  0  0
  1 20  1  0  0  0  0
  2 23  1  0  0  0  0
  3 48  1  0  0  0  0
  4 21  1  0  0  0  0
  4 28  1  0  0  0  0
  5 20  2  0  0  0  0
  6 56  1  0  0  0  0
  7 24  2  0  0  0  0
  8 57  1  0  0  0  0
  9 30  1  0  0  0  0
  9 58  1  0  0  0  0
 10 31  1  0  0  0  0
 10 59  1  0  0  0  0
 11 12  1  1  0  0  0
 11 32  1  0  0  0  0
 12 13  1  1  0  0  0
 12 33  1  0  0  0  0
 13 16  1  0  0  0  0
 13 18  1  0  0  0  0
 13 34  1  1  0  0  0
 14 11  1  1  0  0  0
 14 20  1  0  0  0  0
 14 22  1  0  0  0  0
 14 35  1  0  0  0  0
 15  3  1  0  0  0  0
 15 11  1  6  0  0  0
 15 17  1  0  0  0  0
 15 36  1  0  0  0  0
 16 19  2  0  0  0  0
 16 24  1  0  0  0  0
 17 19  1  0  0  0  0
 17 37  1  0  0  0  0
 17 38  1  0  0  0  0
 18 23  1  0  0  0  0
 18 25  2  0  0  0  0
 19 29  1  0  0  0  0
 21  2  1  0  0  0  0
 21 26  1  1  0  0  0
 21 30  1  0  0  0  0
 22 41  1  0  0  0  0
 22 42  1  0  0  0  0
 22 43  1  0  0  0  0
 23 39  1  0  0  0  0
 23 40  1  0  0  0  0
 24 25  1  0  0  0  0
 25 44  1  0  0  0  0
 26  6  1  0  0  0  0
 26 27  1  6  0  0  0
 26 45  1  0  0  0  0
 27  8  1  0  0  0  0
 27 28  1  1  0  0  0
 27 46  1  0  0  0  0
 28 31  1  0  0  0  0
 28 47  1  6  0  0  0
 29 49  1  0  0  0  0
 29 50  1  0  0  0  0
 29 51  1  0  0  0  0
 30 52  1  0  0  0  0
 30 53  1  0  0  0  0
 31 54  1  0  0  0  0
 31 55  1  0  0  0  0
M  END
>  <PUBCHEM_COMPOUND_CID>
102476813

>  <PUBCHEM_COMPOUND_CANONICALIZED>
1

>  <PUBCHEM_CACTVS_COMPLEXITY>
834

>  <PUBCHEM_CACTVS_HBOND_ACCEPTOR>
10

>  <PUBCHEM_CACTVS_HBOND_DONOR>
5

>  <PUBCHEM_CACTVS_ROTATABLE_BOND>
5

>  <PUBCHEM_CACTVS_SUBSKEYS>
AAADceB4PAAAAAAAAAAAAAAAAAAAASJEAAAAAAAABAAAAACAAAAAGgAACAAADRSggAICCAAABgCIAqDSCAAAAAAgAAAACAEAAEgRFBIAIQAiUAAFwAAPIQPK7PyOgAAAAAAAAAAAAAAAAAAAAAAAAAAAAA==

>  <PUBCHEM_IUPAC_OPENEYE_NAME>
(3S,3aR,4S,9aS,9bR)-9-[[(2R,3S,4S,5R)-3,4-dihydroxy-2,5-bis(hydroxymethyl)tetrahydrofuran-2-yl]oxymethyl]-4-hydroxy-3,6-dimethyl-3,3a,4,5,9a,9b-hexahydroazuleno[4,5-b]furan-2,7-dione

>  <PUBCHEM_IUPAC_CAS_NAME>
(3S,3aR,4S,9aS,9bR)-9-[[(2R,3S,4S,5R)-3,4-dihydroxy-2,5-bis(hydroxymethyl)-2-oxolanyl]oxymethyl]-4-hydroxy-3,6-dimethyl-3,3a,4,5,9a,9b-hexahydroazuleno[4,5-b]furan-2,7-dione

>  <PUBCHEM_IUPAC_NAME>
(3S,3aR,4S,9aS,9bR)-9-[[(2R,3S,4S,5R)-3,4-dihydroxy-2,5-bis(hydroxymethyl)oxolan-2-yl]oxymethyl]-4-hydroxy-3,6-dimethyl-3,3a,4,5,9a,9b-hexahydroazuleno[4,5-b]furan-2,7-dione

>  <PUBCHEM_IUPAC_SYSTEMATIC_NAME>
(3S,3aR,4S,9aS,9bR)-9-[[(2R,3S,4S,5R)-2,5-bis(hydroxymethyl)-3,4-bis(oxidanyl)oxolan-2-yl]oxymethyl]-3,6-dimethyl-4-oxidanyl-3,3a,4,5,9a,9b-hexahydroazuleno[4,5-b]furan-2,7-dione

>  <PUBCHEM_IUPAC_TRADITIONAL_NAME>
(3S,3aR,4S,9aS,9bR)-9-[[(2R,3S,4S,5R)-3,4-dihydroxy-2,5-dimethylol-tetrahydrofuran-2-yl]oxymethyl]-4-hydroxy-3,6-dimethyl-3,3a,4,5,9a,9b-hexahydroazuleno[4,5-b]furan-2,7-quinone

>  <PUBCHEM_IUPAC_INCHI>
InChI=1S/C21H28O10/c1-8-3-11(24)15-9(2)20(28)30-18(15)16-10(4-12(25)14(8)16)6-29-21(7-23)19(27)17(26)13(5-22)31-21/h4,9,11,13,15-19,22-24,26-27H,3,5-7H2,1-2H3/t9-,11-,13+,15+,16-,17+,18-,19-,21+/m0/s1

>  <PUBCHEM_IUPAC_INCHIKEY>
VPJIBVRZDKWNNF-YHMCHQIZSA-N

>  <PUBCHEM_XLOGP3_AA>
-1.9

>  <PUBCHEM_EXACT_MASS>
440.168

>  <PUBCHEM_MOLECULAR_FORMULA>
C21H28O10

>  <PUBCHEM_MOLECULAR_WEIGHT>
440.445

>  <PUBCHEM_OPENEYE_CAN_SMILES>
CC1C2C(CC(=C3C(C2OC1=O)C(=CC3=O)COC4(C(C(C(O4)CO)O)O)CO)C)O

>  <PUBCHEM_OPENEYE_ISO_SMILES>
C[C@H]1[C@@H]2[C@H](CC(=C3[C@@H]([C@H]2OC1=O)C(=CC3=O)CO[C@]4([C@H]([C@@H]([C@H](O4)CO)O)O)CO)C)O

>  <PUBCHEM_CACTVS_TPSA>
163

>  <PUBCHEM_MONOISOTOPIC_WEIGHT>
440.168

>  <PUBCHEM_TOTAL_CHARGE>
0

>  <PUBCHEM_HEAVY_ATOM_COUNT>
31

>  <PUBCHEM_ATOM_DEF_STEREO_COUNT>
9

>  <PUBCHEM_ATOM_UDEF_STEREO_COUNT>
0

>  <PUBCHEM_BOND_DEF_STEREO_COUNT>
0

>  <PUBCHEM_BOND_UDEF_STEREO_COUNT>
0

>  <PUBCHEM_ISOTOPIC_ATOM_COUNT>
0

>  <PUBCHEM_COMPONENT_COUNT>
1

>  <PUBCHEM_CACTVS_TAUTO_COUNT>
36

>  <PUBCHEM_COORDINATE_TYPE>
1
5
255

>  <PUBCHEM_BONDANNOTATIONS>
11  32  5
12  33  6
13  34  5
14  22  5
21  2  5
28  31  5
15  3  5
26  6  5
27  8  6

$$$$
