102587838
 OpenBabel06101807152D

110116  0  0  1  0  0  0  0  0999 V2000
   12.9292   -0.8836    0.0000 O   0  0  0  0  0  0  0  0  0  0  0  0
   13.7953    1.6164    0.0000 O   0  0  0  0  0  0  0  0  0  0  0  0
   11.1972   -0.8836    0.0000 O   0  0  0  0  0  0  0  0  0  0  0  0
   11.1972    0.1164    0.0000 O   0  0  0  0  0  0  0  0  0  0  0  0
   11.1972    2.1164    0.0000 O   0  0  0  0  0  0  0  0  0  0  0  0
   12.9292   -2.8836    0.0000 O   0  0  0  0  0  0  0  0  0  0  0  0
   11.1972   -3.8836    0.0000 O   0  0  0  0  0  0  0  0  0  0  0  0
    9.4651   -2.8836    0.0000 O   0  0  0  0  0  0  0  0  0  0  0  0
   12.0632    3.6164    0.0000 O   0  0  0  0  0  0  0  0  0  0  0  0
    8.5991   -1.3836    0.0000 O   0  0  0  0  0  0  0  0  0  0  0  0
   15.5273    1.6164    0.0000 O   0  0  0  0  0  0  0  0  0  0  0  0
   13.7953   -1.3836    0.0000 O   0  0  0  0  0  0  0  0  0  0  0  0
   22.5215   -1.4211    0.0000 O   0  0  0  0  0  0  0  0  0  0  0  0
   17.2873   -1.4182    0.0000 O   0  0  0  0  0  0  0  0  0  0  0  0
   21.6497   -2.9177    0.0000 O   0  0  0  0  0  0  0  0  0  0  0  0
   25.1138   -2.9311    0.0000 O   0  0  0  0  0  0  0  0  0  0  0  0
   25.1215   -0.9311    0.0000 O   0  0  0  0  0  0  0  0  0  0  0  0
   23.3779   -3.9244    0.0000 O   0  0  0  0  0  0  0  0  0  0  0  0
   17.2757    1.6510    0.0000 O   0  0  0  0  0  0  0  0  0  0  0  0
   24.2613    0.5723    0.0000 O   0  0  0  0  0  0  0  0  0  0  0  0
    7.7331    0.1164    0.0000 O   0  0  0  0  0  0  0  0  0  0  0  0
    2.5369   -2.8836    0.0000 O   0  0  0  0  0  0  0  0  0  0  0  0
   12.9292    0.1164    0.0000 C   0  0  2  0  0  0  0  0  0  0  0  0
   12.0632    0.6164    0.0000 C   0  0  2  0  0  0  0  0  0  0  0  0
   13.7953    0.6164    0.0000 C   0  0  2  0  0  0  0  0  0  0  0  0
   12.0632    1.6164    0.0000 C   0  0  1  0  0  0  0  0  0  0  0  0
   12.9292    2.1164    0.0000 C   0  0  1  0  0  0  0  0  0  0  0  0
   12.0632   -1.3836    0.0000 C   0  0  2  0  0  0  0  0  0  0  0  0
   12.0632   -2.3836    0.0000 C   0  0  1  0  0  0  0  0  0  0  0  0
   11.1972   -2.8836    0.0000 C   0  0  2  0  0  0  0  0  0  0  0  0
   10.3312   -2.3836    0.0000 C   0  0  1  0  0  0  0  0  0  0  0  0
   10.3312   -1.3836    0.0000 C   0  0  1  0  0  0  0  0  0  0  0  0
   14.6613    0.1164    0.0000 C   0  0  0  0  0  0  0  0  0  0  0  0
   12.9292    3.1164    0.0000 C   0  0  0  0  0  0  0  0  0  0  0  0
    9.4651   -0.8836    0.0000 C   0  0  0  0  0  0  0  0  0  0  0  0
   15.5273    0.6164    0.0000 C   0  0  0  0  0  0  0  0  0  0  0  0
   14.6613   -0.8836    0.0000 C   0  0  0  0  0  0  0  0  0  0  0  0
   16.3933    0.1164    0.0000 C   0  0  0  0  0  0  0  0  0  0  0  0
   15.5273   -1.3836    0.0000 C   0  0  0  0  0  0  0  0  0  0  0  0
   16.3933   -0.8836    0.0000 C   0  0  0  0  0  0  0  0  0  0  0  0
   24.2497   -2.4277    0.0000 C   0  0  1  0  0  0  0  0  0  0  0  0
   24.2536   -1.4277    0.0000 C   0  0  1  0  0  0  0  0  0  0  0  0
   23.3818   -2.9244    0.0000 C   0  0  2  0  0  0  0  0  0  0  0  0
   23.3895   -0.9244    0.0000 C   0  0  1  0  0  0  0  0  0  0  0  0
   22.5177   -2.4210    0.0000 C   0  0  1  0  0  0  0  0  0  0  0  0
   17.2873    0.6511    0.0000 C   0  0  0  0  0  0  0  0  0  0  0  0
   23.3933    0.0756    0.0000 C   0  0  0  0  0  0  0  0  0  0  0  0
   18.1934   -0.9044    0.0000 C   0  0  0  0  0  0  0  0  0  0  0  0
   18.1934    0.1373    0.0000 C   0  0  0  0  0  0  0  0  0  0  0  0
    7.7331   -0.8836    0.0000 C   0  0  0  0  0  0  0  0  0  0  0  0
   19.0574   -1.4077    0.0000 C   0  0  0  0  0  0  0  0  0  0  0  0
   20.7856   -2.4144    0.0000 C   0  0  0  0  0  0  0  0  0  0  0  0
   19.9254   -0.9110    0.0000 C   0  0  0  0  0  0  0  0  0  0  0  0
   19.0536   -2.4077    0.0000 C   0  0  0  0  0  0  0  0  0  0  0  0
   20.7895   -1.4144    0.0000 C   0  0  0  0  0  0  0  0  0  0  0  0
   19.9177   -2.9110    0.0000 C   0  0  0  0  0  0  0  0  0  0  0  0
    6.8671   -1.3836    0.0000 C   0  0  0  0  0  0  0  0  0  0  0  0
    6.0010   -0.8836    0.0000 C   0  0  0  0  0  0  0  0  0  0  0  0
    5.1350   -1.3836    0.0000 C   0  0  0  0  0  0  0  0  0  0  0  0
    5.1350   -2.3836    0.0000 C   0  0  0  0  0  0  0  0  0  0  0  0
    4.2690   -0.8836    0.0000 C   0  0  0  0  0  0  0  0  0  0  0  0
    4.2690   -2.8836    0.0000 C   0  0  0  0  0  0  0  0  0  0  0  0
    3.4030   -1.3836    0.0000 C   0  0  0  0  0  0  0  0  0  0  0  0
    3.4030   -2.3836    0.0000 C   0  0  0  0  0  0  0  0  0  0  0  0
   12.3923   -0.1936    0.0000 H   0  0  0  0  0  0  0  0  0  0  0  0
   11.5263    0.9264    0.0000 H   0  0  0  0  0  0  0  0  0  0  0  0
   14.5314    1.0414    0.0000 H   0  0  0  0  0  0  0  0  0  0  0  0
   12.0632    2.2364    0.0000 H   0  0  0  0  0  0  0  0  0  0  0  0
   13.4662    2.4264    0.0000 H   0  0  0  0  0  0  0  0  0  0  0  0
   12.0632   -0.7636    0.0000 H   0  0  0  0  0  0  0  0  0  0  0  0
   12.0632   -3.0036    0.0000 H   0  0  0  0  0  0  0  0  0  0  0  0
   10.6603   -3.1936    0.0000 H   0  0  0  0  0  0  0  0  0  0  0  0
    9.7942   -2.0736    0.0000 H   0  0  0  0  0  0  0  0  0  0  0  0
   10.3312   -0.7636    0.0000 H   0  0  0  0  0  0  0  0  0  0  0  0
   13.5398    3.0088    0.0000 H   0  0  0  0  0  0  0  0  0  0  0  0
   13.1413    3.6990    0.0000 H   0  0  0  0  0  0  0  0  0  0  0  0
    9.8637   -0.4086    0.0000 H   0  0  0  0  0  0  0  0  0  0  0  0
    9.0666   -0.4086    0.0000 H   0  0  0  0  0  0  0  0  0  0  0  0
   10.6603    0.4264    0.0000 H   0  0  0  0  0  0  0  0  0  0  0  0
   10.6603    1.8064    0.0000 H   0  0  0  0  0  0  0  0  0  0  0  0
   13.4662   -2.5736    0.0000 H   0  0  0  0  0  0  0  0  0  0  0  0
   11.7341   -4.1936    0.0000 H   0  0  0  0  0  0  0  0  0  0  0  0
    9.4651   -3.5036    0.0000 H   0  0  0  0  0  0  0  0  0  0  0  0
   15.5273   -2.0036    0.0000 H   0  0  0  0  0  0  0  0  0  0  0  0
   24.2473   -3.0477    0.0000 H   0  0  0  0  0  0  0  0  0  0  0  0
   24.2559   -0.8077    0.0000 H   0  0  0  0  0  0  0  0  0  0  0  0
   22.8436   -3.2323    0.0000 H   0  0  0  0  0  0  0  0  0  0  0  0
   12.0632    4.2364    0.0000 H   0  0  0  0  0  0  0  0  0  0  0  0
   22.8537   -0.6123    0.0000 H   0  0  0  0  0  0  0  0  0  0  0  0
   21.9819   -2.1090    0.0000 H   0  0  0  0  0  0  0  0  0  0  0  0
   16.0643    1.9264    0.0000 H   0  0  0  0  0  0  0  0  0  0  0  0
   13.7953   -2.0036    0.0000 H   0  0  0  0  0  0  0  0  0  0  0  0
   23.1835    0.6590    0.0000 H   0  0  0  0  0  0  0  0  0  0  0  0
   22.7823   -0.0297    0.0000 H   0  0  0  0  0  0  0  0  0  0  0  0
   18.7291    0.4493    0.0000 H   0  0  0  0  0  0  0  0  0  0  0  0
   25.6519   -2.6231    0.0000 H   0  0  0  0  0  0  0  0  0  0  0  0
   25.6572   -1.2431    0.0000 H   0  0  0  0  0  0  0  0  0  0  0  0
   23.9136   -4.2364    0.0000 H   0  0  0  0  0  0  0  0  0  0  0  0
   19.9278   -0.2911    0.0000 H   0  0  0  0  0  0  0  0  0  0  0  0
   18.5155   -2.7156    0.0000 H   0  0  0  0  0  0  0  0  0  0  0  0
   24.2637    1.1922    0.0000 H   0  0  0  0  0  0  0  0  0  0  0  0
   21.3276   -1.1064    0.0000 H   0  0  0  0  0  0  0  0  0  0  0  0
   19.9153   -3.5310    0.0000 H   0  0  0  0  0  0  0  0  0  0  0  0
    6.8671   -2.0036    0.0000 H   0  0  0  0  0  0  0  0  0  0  0  0
    6.0010   -0.2636    0.0000 H   0  0  0  0  0  0  0  0  0  0  0  0
    5.6720   -2.6936    0.0000 H   0  0  0  0  0  0  0  0  0  0  0  0
    4.2690   -0.2636    0.0000 H   0  0  0  0  0  0  0  0  0  0  0  0
    4.2690   -3.5036    0.0000 H   0  0  0  0  0  0  0  0  0  0  0  0
    2.8660   -1.0736    0.0000 H   0  0  0  0  0  0  0  0  0  0  0  0
    2.0000   -2.5736    0.0000 H   0  0  0  0  0  0  0  0  0  0  0  0
  2 25  1  0  0  0  0
  2 27  1  0  0  0  0
  3 28  1  0  0  0  0
  3 32  1  0  0  0  0
  4 79  1  0  0  0  0
  5 80  1  0  0  0  0
  6 81  1  0  0  0  0
  7 82  1  0  0  0  0
  8 83  1  0  0  0  0
  9 34  1  0  0  0  0
  9 88  1  0  0  0  0
 10 35  1  0  0  0  0
 10 50  1  0  0  0  0
 11 36  1  0  0  0  0
 11 91  1  0  0  0  0
 12 37  1  0  0  0  0
 12 92  1  0  0  0  0
 13 44  1  0  0  0  0
 13 45  1  0  0  0  0
 14 40  1  0  0  0  0
 14 48  1  0  0  0  0
 15 52  1  0  0  0  0
 16 96  1  0  0  0  0
 17 97  1  0  0  0  0
 18 98  1  0  0  0  0
 19 46  2  0  0  0  0
 20 47  1  0  0  0  0
 20101  1  0  0  0  0
 21 50  2  0  0  0  0
 22 64  1  0  0  0  0
 22110  1  0  0  0  0
 23  1  1  0  0  0  0
 23 24  1  6  0  0  0
 23 65  1  0  0  0  0
 24  4  1  0  0  0  0
 24 26  1  1  0  0  0
 24 66  1  0  0  0  0
 25 23  1  6  0  0  0
 25 33  1  0  0  0  0
 25 67  1  0  0  0  0
 26  5  1  0  0  0  0
 26 27  1  6  0  0  0
 26 68  1  0  0  0  0
 27 34  1  0  0  0  0
 27 69  1  6  0  0  0
 28  1  1  0  0  0  0
 28 29  1  6  0  0  0
 28 70  1  0  0  0  0
 29  6  1  0  0  0  0
 29 30  1  6  0  0  0
 29 71  1  0  0  0  0
 30  7  1  0  0  0  0
 30 31  1  1  0  0  0
 30 72  1  0  0  0  0
 31  8  1  0  0  0  0
 31 32  1  6  0  0  0
 31 73  1  0  0  0  0
 32 35  1  0  0  0  0
 32 74  1  6  0  0  0
 33 36  2  0  0  0  0
 33 37  1  0  0  0  0
 34 75  1  0  0  0  0
 34 76  1  0  0  0  0
 35 77  1  0  0  0  0
 35 78  1  0  0  0  0
 36 38  1  0  0  0  0
 37 39  2  0  0  0  0
 38 40  2  0  0  0  0
 38 46  1  0  0  0  0
 39 40  1  0  0  0  0
 39 84  1  0  0  0  0
 41 16  1  0  0  0  0
 41 42  1  1  0  0  0
 41 85  1  0  0  0  0
 42 17  1  0  0  0  0
 42 44  1  1  0  0  0
 42 86  1  0  0  0  0
 43 18  1  0  0  0  0
 43 41  1  6  0  0  0
 43 87  1  0  0  0  0
 44 47  1  0  0  0  0
 44 89  1  1  0  0  0
 45 15  1  0  0  0  0
 45 43  1  1  0  0  0
 45 90  1  0  0  0  0
 46 49  1  0  0  0  0
 47 93  1  0  0  0  0
 47 94  1  0  0  0  0
 48 49  2  0  0  0  0
 48 51  1  0  0  0  0
 49 95  1  0  0  0  0
 50 57  1  0  0  0  0
 51 53  2  0  0  0  0
 51 54  1  0  0  0  0
 52 55  2  0  0  0  0
 52 56  1  0  0  0  0
 53 55  1  0  0  0  0
 53 99  1  0  0  0  0
 54 56  2  0  0  0  0
 54100  1  0  0  0  0
 55102  1  0  0  0  0
 56103  1  0  0  0  0
 57 58  2  0  0  0  0
 57104  1  0  0  0  0
 58 59  1  0  0  0  0
 58105  1  0  0  0  0
 59 60  2  0  0  0  0
 59 61  1  0  0  0  0
 60 62  1  0  0  0  0
 60106  1  0  0  0  0
 61 63  2  0  0  0  0
 61107  1  0  0  0  0
 62 64  2  0  0  0  0
 62108  1  0  0  0  0
 63 64  1  0  0  0  0
 63109  1  0  0  0  0
M  END
>  <PUBCHEM_COMPOUND_CID>
102587838

>  <PUBCHEM_COMPOUND_CANONICALIZED>
1

>  <PUBCHEM_CACTVS_COMPLEXITY>
1620

>  <PUBCHEM_CACTVS_HBOND_ACCEPTOR>
22

>  <PUBCHEM_CACTVS_HBOND_DONOR>
13

>  <PUBCHEM_CACTVS_ROTATABLE_BOND>
13

>  <PUBCHEM_CACTVS_SUBSKEYS>
AAADcfB8PgAAAAAAAAAAAAAAAAAAAAAAAAA0aNECAAAAAACBUAAAGgAACAAADBSwmAMwDoAABgCIAqDSCAACCAAkIAAIiAEGCMgdNzaGNRqieWCl4BUPuYfI7PzOIAACCAAIAABAAAQQABAAAAAAAAAAAA==

>  <PUBCHEM_IUPAC_OPENEYE_NAME>
[(2R,3S,4S,5R,6S)-6-[(2S,3R,4S,5S,6R)-2-[5,7-dihydroxy-4-oxo-2-[4-[(2S,3R,4S,5S,6R)-3,4,5-trihydroxy-6-(hydroxymethyl)tetrahydropyran-2-yl]oxyphenyl]chromen-6-yl]-4,5-dihydroxy-6-(hydroxymethyl)tetrahydropyran-3-yl]oxy-3,4,5-trihydroxy-tetrahydropyran-2-yl]methyl (E)-3-(4-hydroxyphenyl)prop-2-enoate

>  <PUBCHEM_IUPAC_CAS_NAME>
(E)-3-(4-hydroxyphenyl)-2-propenoic acid [(2R,3S,4S,5R,6S)-6-[[(2S,3R,4S,5S,6R)-2-[5,7-dihydroxy-4-oxo-2-[4-[[(2S,3R,4S,5S,6R)-3,4,5-trihydroxy-6-(hydroxymethyl)-2-oxanyl]oxy]phenyl]-1-benzopyran-6-yl]-4,5-dihydroxy-6-(hydroxymethyl)-3-oxanyl]oxy]-3,4,5-trihydroxy-2-oxanyl]methyl ester

>  <PUBCHEM_IUPAC_NAME>
[(2R,3S,4S,5R,6S)-6-[(2S,3R,4S,5S,6R)-2-[5,7-dihydroxy-4-oxo-2-[4-[(2S,3R,4S,5S,6R)-3,4,5-trihydroxy-6-(hydroxymethyl)oxan-2-yl]oxyphenyl]chromen-6-yl]-4,5-dihydroxy-6-(hydroxymethyl)oxan-3-yl]oxy-3,4,5-trihydroxyoxan-2-yl]methyl (E)-3-(4-hydroxyphenyl)prop-2-enoate

>  <PUBCHEM_IUPAC_SYSTEMATIC_NAME>
[(2R,3S,4S,5R,6S)-6-[(2S,3R,4S,5S,6R)-6-(hydroxymethyl)-2-[2-[4-[(2S,3R,4S,5S,6R)-6-(hydroxymethyl)-3,4,5-tris(oxidanyl)oxan-2-yl]oxyphenyl]-5,7-bis(oxidanyl)-4-oxidanylidene-chromen-6-yl]-4,5-bis(oxidanyl)oxan-3-yl]oxy-3,4,5-tris(oxidanyl)oxan-2-yl]methyl (E)-3-(4-hydroxyphenyl)prop-2-enoate

>  <PUBCHEM_IUPAC_TRADITIONAL_NAME>
(E)-3-(4-hydroxyphenyl)acrylic acid [(2R,3S,4S,5R,6S)-6-[(2S,3R,4S,5S,6R)-2-[5,7-dihydroxy-4-keto-2-[4-[(2S,3R,4S,5S,6R)-3,4,5-trihydroxy-6-methylol-tetrahydropyran-2-yl]oxyphenyl]chromen-6-yl]-4,5-dihydroxy-6-methylol-tetrahydropyran-3-yl]oxy-3,4,5-trihydroxy-tetrahydropyran-2-yl]methyl ester

>  <PUBCHEM_IUPAC_INCHI>
InChI=1S/C42H46O22/c43-13-24-31(50)36(55)40(64-42-38(57)35(54)32(51)26(63-42)15-58-27(48)10-3-16-1-6-18(45)7-2-16)39(61-24)29-21(47)12-23-28(33(29)52)20(46)11-22(60-23)17-4-8-19(9-5-17)59-41-37(56)34(53)30(49)25(14-44)62-41/h1-12,24-26,30-32,34-45,47,49-57H,13-15H2/b10-3+/t24-,25-,26-,30-,31-,32-,34+,35+,36+,37-,38-,39+,40-,41-,42+/m1/s1

>  <PUBCHEM_IUPAC_INCHIKEY>
QYVCMCHTBHFWCZ-RGXJHXSYSA-N

>  <PUBCHEM_XLOGP3_AA>
-1.4

>  <PUBCHEM_EXACT_MASS>
902.248

>  <PUBCHEM_MOLECULAR_FORMULA>
C42H46O22

>  <PUBCHEM_MOLECULAR_WEIGHT>
902.808

>  <PUBCHEM_OPENEYE_CAN_SMILES>
C1=CC(=CC=C1C=CC(=O)OCC2C(C(C(C(O2)OC3C(C(C(OC3C4=C(C=C5C(=C4O)C(=O)C=C(O5)C6=CC=C(C=C6)OC7C(C(C(C(O7)CO)O)O)O)O)CO)O)O)O)O)O)O

>  <PUBCHEM_OPENEYE_ISO_SMILES>
C1=CC(=CC=C1/C=C/C(=O)OC[C@@H]2[C@H]([C@@H]([C@H]([C@@H](O2)O[C@@H]3[C@H]([C@@H]([C@H](O[C@H]3C4=C(C=C5C(=C4O)C(=O)C=C(O5)C6=CC=C(C=C6)O[C@H]7[C@@H]([C@H]([C@@H]([C@H](O7)CO)O)O)O)O)CO)O)O)O)O)O)O

>  <PUBCHEM_CACTVS_TPSA>
362

>  <PUBCHEM_MONOISOTOPIC_WEIGHT>
902.248

>  <PUBCHEM_TOTAL_CHARGE>
0

>  <PUBCHEM_HEAVY_ATOM_COUNT>
64

>  <PUBCHEM_ATOM_DEF_STEREO_COUNT>
15

>  <PUBCHEM_ATOM_UDEF_STEREO_COUNT>
0

>  <PUBCHEM_BOND_DEF_STEREO_COUNT>
1

>  <PUBCHEM_BOND_UDEF_STEREO_COUNT>
0

>  <PUBCHEM_ISOTOPIC_ATOM_COUNT>
0

>  <PUBCHEM_COMPONENT_COUNT>
1

>  <PUBCHEM_CACTVS_TAUTO_COUNT>
48

>  <PUBCHEM_COORDINATE_TYPE>
1
5
255

>  <PUBCHEM_BONDANNOTATIONS>
23  1  6
28  1  5
14  40  8
14  48  8
45  15  6
41  16  6
42  17  5
43  18  5
25  67  6
27  34  5
32  35  5
33  36  8
33  37  8
36  38  8
37  39  8
38  40  8
38  46  8
39  40  8
24  4  5
44  47  6
46  49  8
48  49  8
26  5  6
51  53  8
51  54  8
52  55  8
52  56  8
53  55  8
54  56  8
59  60  8
59  61  8
29  6  6
60  62  8
61  63  8
62  64  8
63  64  8
30  7  5
31  8  6

$$$$
