10256668
 OpenBabel06101807152D

 96 97  0  0  0  0  0  0  0  0999 V2000
    3.0000   -3.0000    0.0000 C   0  0  0  0  0  0  0  0  0  0  0  0
   16.8564    2.0000    0.0000 C   0  0  0  0  0  0  0  0  0  0  0  0
    3.0000   -4.0000    0.0000 C   0  0  0  0  0  0  0  0  0  0  0  0
   17.7224    1.5000    0.0000 C   0  0  0  0  0  0  0  0  0  0  0  0
    3.8660   -4.5000    0.0000 C   0  0  0  0  0  0  0  0  0  0  0  0
   18.5885    2.0000    0.0000 C   0  0  0  0  0  0  0  0  0  0  0  0
    3.8660   -2.5000    0.0000 C   0  0  0  0  0  0  0  0  0  0  0  0
   16.8564    3.0000    0.0000 C   0  0  0  0  0  0  0  0  0  0  0  0
    4.7320   -4.0000    0.0000 C   0  0  0  0  0  0  0  0  0  0  0  0
   18.5885    3.0000    0.0000 C   0  0  0  0  0  0  0  0  0  0  0  0
    4.7320   -3.0000    0.0000 C   0  0  0  0  0  0  0  0  0  0  0  0
   17.7224    3.5000    0.0000 C   0  0  0  0  0  0  0  0  0  0  0  0
    2.0000   -3.0000    0.0000 C   0  0  0  0  0  0  0  0  0  0  0  0
    2.5000   -2.1340    0.0000 C   0  0  0  0  0  0  0  0  0  0  0  0
   16.3564    1.1340    0.0000 C   0  0  0  0  0  0  0  0  0  0  0  0
   15.8564    2.0000    0.0000 C   0  0  0  0  0  0  0  0  0  0  0  0
    3.8660   -1.5000    0.0000 C   0  0  0  0  0  0  0  0  0  0  0  0
   15.9904    3.5000    0.0000 C   0  0  0  0  0  0  0  0  0  0  0  0
    5.5981   -2.5000    0.0000 C   0  0  0  0  0  0  0  0  0  0  0  0
   17.7224    4.5000    0.0000 C   0  0  0  0  0  0  0  0  0  0  0  0
    4.7320   -1.0000    0.0000 C   0  0  0  0  0  0  0  0  0  0  0  0
   15.1244    3.0000    0.0000 C   0  0  0  0  0  0  0  0  0  0  0  0
    4.7320    0.0000    0.0000 C   0  0  0  0  0  0  0  0  0  0  0  0
   14.2583    3.5000    0.0000 C   0  0  0  0  0  0  0  0  0  0  0  0
    3.8660    0.5000    0.0000 C   0  0  0  0  0  0  0  0  0  0  0  0
   14.2583    4.5000    0.0000 C   0  0  0  0  0  0  0  0  0  0  0  0
    5.5981    0.5000    0.0000 C   0  0  0  0  0  0  0  0  0  0  0  0
   13.3923    3.0000    0.0000 C   0  0  0  0  0  0  0  0  0  0  0  0
    5.5981    1.5000    0.0000 C   0  0  0  0  0  0  0  0  0  0  0  0
   12.5263    3.5000    0.0000 C   0  0  0  0  0  0  0  0  0  0  0  0
    6.4641    2.0000    0.0000 C   0  0  0  0  0  0  0  0  0  0  0  0
   11.6603    3.0000    0.0000 C   0  0  0  0  0  0  0  0  0  0  0  0
    6.4641    3.0000    0.0000 C   0  0  0  0  0  0  0  0  0  0  0  0
   10.7942    3.5000    0.0000 C   0  0  0  0  0  0  0  0  0  0  0  0
    5.5981    3.5000    0.0000 C   0  0  0  0  0  0  0  0  0  0  0  0
   10.7942    4.5000    0.0000 C   0  0  0  0  0  0  0  0  0  0  0  0
    7.3301    3.5000    0.0000 C   0  0  0  0  0  0  0  0  0  0  0  0
    9.9282    3.0000    0.0000 C   0  0  0  0  0  0  0  0  0  0  0  0
    8.1962    3.0000    0.0000 C   0  0  0  0  0  0  0  0  0  0  0  0
    9.0622    3.5000    0.0000 C   0  0  0  0  0  0  0  0  0  0  0  0
    2.3894   -3.8923    0.0000 H   0  0  0  0  0  0  0  0  0  0  0  0
    2.7880   -4.5826    0.0000 H   0  0  0  0  0  0  0  0  0  0  0  0
   17.3239    1.0250    0.0000 H   0  0  0  0  0  0  0  0  0  0  0  0
   18.1210    1.0250    0.0000 H   0  0  0  0  0  0  0  0  0  0  0  0
    3.4675   -4.9750    0.0000 H   0  0  0  0  0  0  0  0  0  0  0  0
    4.2646   -4.9750    0.0000 H   0  0  0  0  0  0  0  0  0  0  0  0
   18.8005    1.4174    0.0000 H   0  0  0  0  0  0  0  0  0  0  0  0
   19.1990    2.1077    0.0000 H   0  0  0  0  0  0  0  0  0  0  0  0
    4.9441   -4.5826    0.0000 H   0  0  0  0  0  0  0  0  0  0  0  0
    5.3426   -3.8923    0.0000 H   0  0  0  0  0  0  0  0  0  0  0  0
   19.1990    2.8923    0.0000 H   0  0  0  0  0  0  0  0  0  0  0  0
   18.8005    3.5826    0.0000 H   0  0  0  0  0  0  0  0  0  0  0  0
    2.0000   -2.3800    0.0000 H   0  0  0  0  0  0  0  0  0  0  0  0
    3.0369   -1.8240    0.0000 H   0  0  0  0  0  0  0  0  0  0  0  0
    2.1900   -1.5970    0.0000 H   0  0  0  0  0  0  0  0  0  0  0  0
    1.9631   -2.4440    0.0000 H   0  0  0  0  0  0  0  0  0  0  0  0
    1.3800   -3.0000    0.0000 H   0  0  0  0  0  0  0  0  0  0  0  0
    2.0000   -3.6200    0.0000 H   0  0  0  0  0  0  0  0  0  0  0  0
   15.8564    2.6200    0.0000 H   0  0  0  0  0  0  0  0  0  0  0  0
   15.2364    2.0000    0.0000 H   0  0  0  0  0  0  0  0  0  0  0  0
   15.8564    1.3800    0.0000 H   0  0  0  0  0  0  0  0  0  0  0  0
   15.8195    1.4440    0.0000 H   0  0  0  0  0  0  0  0  0  0  0  0
   16.0464    0.5970    0.0000 H   0  0  0  0  0  0  0  0  0  0  0  0
   16.8933    0.8240    0.0000 H   0  0  0  0  0  0  0  0  0  0  0  0
    3.3291   -1.1900    0.0000 H   0  0  0  0  0  0  0  0  0  0  0  0
   15.9904    4.1200    0.0000 H   0  0  0  0  0  0  0  0  0  0  0  0
    5.9081   -3.0369    0.0000 H   0  0  0  0  0  0  0  0  0  0  0  0
    6.1350   -2.1900    0.0000 H   0  0  0  0  0  0  0  0  0  0  0  0
    5.2881   -1.9631    0.0000 H   0  0  0  0  0  0  0  0  0  0  0  0
   18.3424    4.5000    0.0000 H   0  0  0  0  0  0  0  0  0  0  0  0
   17.7224    5.1200    0.0000 H   0  0  0  0  0  0  0  0  0  0  0  0
   17.1024    4.5000    0.0000 H   0  0  0  0  0  0  0  0  0  0  0  0
    5.2690   -1.3100    0.0000 H   0  0  0  0  0  0  0  0  0  0  0  0
   15.1244    2.3800    0.0000 H   0  0  0  0  0  0  0  0  0  0  0  0
    4.1760    1.0369    0.0000 H   0  0  0  0  0  0  0  0  0  0  0  0
    3.3291    0.8100    0.0000 H   0  0  0  0  0  0  0  0  0  0  0  0
    3.5560   -0.0369    0.0000 H   0  0  0  0  0  0  0  0  0  0  0  0
   14.8783    4.5000    0.0000 H   0  0  0  0  0  0  0  0  0  0  0  0
   14.2583    5.1200    0.0000 H   0  0  0  0  0  0  0  0  0  0  0  0
   13.6383    4.5000    0.0000 H   0  0  0  0  0  0  0  0  0  0  0  0
    6.1350    0.1900    0.0000 H   0  0  0  0  0  0  0  0  0  0  0  0
   13.3923    2.3800    0.0000 H   0  0  0  0  0  0  0  0  0  0  0  0
    5.0611    1.8100    0.0000 H   0  0  0  0  0  0  0  0  0  0  0  0
   12.5263    4.1200    0.0000 H   0  0  0  0  0  0  0  0  0  0  0  0
    7.0010    1.6900    0.0000 H   0  0  0  0  0  0  0  0  0  0  0  0
   11.6603    2.3800    0.0000 H   0  0  0  0  0  0  0  0  0  0  0  0
    5.9081    4.0369    0.0000 H   0  0  0  0  0  0  0  0  0  0  0  0
    5.0611    3.8100    0.0000 H   0  0  0  0  0  0  0  0  0  0  0  0
    5.2881    2.9631    0.0000 H   0  0  0  0  0  0  0  0  0  0  0  0
   11.4142    4.5000    0.0000 H   0  0  0  0  0  0  0  0  0  0  0  0
   10.7942    5.1200    0.0000 H   0  0  0  0  0  0  0  0  0  0  0  0
   10.1742    4.5000    0.0000 H   0  0  0  0  0  0  0  0  0  0  0  0
    7.3301    4.1200    0.0000 H   0  0  0  0  0  0  0  0  0  0  0  0
    9.9282    2.3800    0.0000 H   0  0  0  0  0  0  0  0  0  0  0  0
    8.1962    2.3800    0.0000 H   0  0  0  0  0  0  0  0  0  0  0  0
    9.0622    4.1200    0.0000 H   0  0  0  0  0  0  0  0  0  0  0  0
  1  3  1  0  0  0  0
  1  7  1  0  0  0  0
  1 13  1  0  0  0  0
  1 14  1  0  0  0  0
  2  4  1  0  0  0  0
  2  8  1  0  0  0  0
  2 15  1  0  0  0  0
  2 16  1  0  0  0  0
  3  5  1  0  0  0  0
  3 41  1  0  0  0  0
  3 42  1  0  0  0  0
  4  6  1  0  0  0  0
  4 43  1  0  0  0  0
  4 44  1  0  0  0  0
  5  9  1  0  0  0  0
  5 45  1  0  0  0  0
  5 46  1  0  0  0  0
  6 10  1  0  0  0  0
  6 47  1  0  0  0  0
  6 48  1  0  0  0  0
  7 11  2  0  0  0  0
  7 17  1  0  0  0  0
  8 12  2  0  0  0  0
  8 18  1  0  0  0  0
  9 11  1  0  0  0  0
  9 49  1  0  0  0  0
  9 50  1  0  0  0  0
 10 12  1  0  0  0  0
 10 51  1  0  0  0  0
 10 52  1  0  0  0  0
 11 19  1  0  0  0  0
 12 20  1  0  0  0  0
 13 53  1  0  0  0  0
 13 57  1  0  0  0  0
 13 58  1  0  0  0  0
 14 54  1  0  0  0  0
 14 55  1  0  0  0  0
 14 56  1  0  0  0  0
 15 62  1  0  0  0  0
 15 63  1  0  0  0  0
 15 64  1  0  0  0  0
 16 59  1  0  0  0  0
 16 60  1  0  0  0  0
 16 61  1  0  0  0  0
 17 21  2  0  0  0  0
 17 65  1  0  0  0  0
 18 22  2  0  0  0  0
 18 66  1  0  0  0  0
 19 67  1  0  0  0  0
 19 68  1  0  0  0  0
 19 69  1  0  0  0  0
 20 70  1  0  0  0  0
 20 71  1  0  0  0  0
 20 72  1  0  0  0  0
 21 23  1  0  0  0  0
 21 73  1  0  0  0  0
 22 24  1  0  0  0  0
 22 74  1  0  0  0  0
 23 25  1  0  0  0  0
 23 27  2  0  0  0  0
 24 26  1  0  0  0  0
 24 28  2  0  0  0  0
 25 75  1  0  0  0  0
 25 76  1  0  0  0  0
 25 77  1  0  0  0  0
 26 78  1  0  0  0  0
 26 79  1  0  0  0  0
 26 80  1  0  0  0  0
 27 29  1  0  0  0  0
 27 81  1  0  0  0  0
 28 30  1  0  0  0  0
 28 82  1  0  0  0  0
 29 31  2  0  0  0  0
 29 83  1  0  0  0  0
 30 32  2  0  0  0  0
 30 84  1  0  0  0  0
 31 33  1  0  0  0  0
 31 85  1  0  0  0  0
 32 34  1  0  0  0  0
 32 86  1  0  0  0  0
 33 35  1  0  0  0  0
 33 37  2  0  0  0  0
 34 36  1  0  0  0  0
 34 38  2  0  0  0  0
 35 87  1  0  0  0  0
 35 88  1  0  0  0  0
 35 89  1  0  0  0  0
 36 90  1  0  0  0  0
 36 91  1  0  0  0  0
 36 92  1  0  0  0  0
 37 39  1  0  0  0  0
 37 93  1  0  0  0  0
 38 40  1  0  0  0  0
 38 94  1  0  0  0  0
 39 40  2  0  0  0  0
 39 95  1  0  0  0  0
 40 96  1  0  0  0  0
M  END
>  <PUBCHEM_COMPOUND_CID>
10256668

>  <PUBCHEM_COMPOUND_CANONICALIZED>
1

>  <PUBCHEM_CACTVS_COMPLEXITY>
1120

>  <PUBCHEM_CACTVS_HBOND_ACCEPTOR>
0

>  <PUBCHEM_CACTVS_HBOND_DONOR>
0

>  <PUBCHEM_CACTVS_ROTATABLE_BOND>
10

>  <PUBCHEM_CACTVS_SUBSKEYS>
AAADcfB8AAAAAAAAAAAAAAAAAAAAAAAAAAAgQAAAAAAAAAAAAAAAGAAAAAAADgCAAAACAAAAAACAAiBCAAAAAAAgAAAICAAAAAgIAAIAAQAAAAAAgAAIgAMAgMAPAAAAAAAAAAAAAAAAAAAAAAAAAAAAAA==

>  <PUBCHEM_IUPAC_OPENEYE_NAME>
1,3,3-trimethyl-2-[(1E,3E,5E,7Z,9E,11E,13E,15E,17E)-3,7,12,16-tetramethyl-18-(2,6,6-trimethylcyclohexen-1-yl)octadeca-1,3,5,7,9,11,13,15,17-nonaenyl]cyclohexene

>  <PUBCHEM_IUPAC_CAS_NAME>
1,3,3-trimethyl-2-[(1E,3E,5E,7Z,9E,11E,13E,15E,17E)-3,7,12,16-tetramethyl-18-(2,6,6-trimethyl-1-cyclohexenyl)octadeca-1,3,5,7,9,11,13,15,17-nonaenyl]cyclohexene

>  <PUBCHEM_IUPAC_NAME>
1,3,3-trimethyl-2-[(1E,3E,5E,7Z,9E,11E,13E,15E,17E)-3,7,12,16-tetramethyl-18-(2,6,6-trimethylcyclohexen-1-yl)octadeca-1,3,5,7,9,11,13,15,17-nonaenyl]cyclohexene

>  <PUBCHEM_IUPAC_SYSTEMATIC_NAME>
1,3,3-trimethyl-2-[(1E,3E,5E,7Z,9E,11E,13E,15E,17E)-3,7,12,16-tetramethyl-18-(2,6,6-trimethylcyclohexen-1-yl)octadeca-1,3,5,7,9,11,13,15,17-nonaenyl]cyclohexene

>  <PUBCHEM_IUPAC_TRADITIONAL_NAME>
1,3,3-trimethyl-2-[(1E,3E,5E,7Z,9E,11E,13E,15E,17E)-3,7,12,16-tetramethyl-18-(2,6,6-trimethylcyclohexen-1-yl)octadeca-1,3,5,7,9,11,13,15,17-nonaenyl]cyclohexene

>  <PUBCHEM_IUPAC_INCHI>
InChI=1S/C40H56/c1-31(19-13-21-33(3)25-27-37-35(5)23-15-29-39(37,7)8)17-11-12-18-32(2)20-14-22-34(4)26-28-38-36(6)24-16-30-40(38,9)10/h11-14,17-22,25-28H,15-16,23-24,29-30H2,1-10H3/b12-11+,19-13+,20-14+,27-25+,28-26+,31-17-,32-18+,33-21+,34-22+

>  <PUBCHEM_IUPAC_INCHIKEY>
OENHQHLEOONYIE-MZMZTKINSA-N

>  <PUBCHEM_XLOGP3>
13.5

>  <PUBCHEM_EXACT_MASS>
536.438

>  <PUBCHEM_MOLECULAR_FORMULA>
C40H56

>  <PUBCHEM_MOLECULAR_WEIGHT>
536.888

>  <PUBCHEM_OPENEYE_CAN_SMILES>
CC1=C(C(CCC1)(C)C)C=CC(=CC=CC(=CC=CC=C(C)C=CC=C(C)C=CC2=C(CCCC2(C)C)C)C)C

>  <PUBCHEM_OPENEYE_ISO_SMILES>
CC1=C(C(CCC1)(C)C)/C=C/C(=C/C=C/C(=C/C=C/C=C(/C)\C=C\C=C(/C)\C=C\C2=C(CCCC2(C)C)C)/C)/C

>  <PUBCHEM_CACTVS_TPSA>
0

>  <PUBCHEM_MONOISOTOPIC_WEIGHT>
536.438

>  <PUBCHEM_TOTAL_CHARGE>
0

>  <PUBCHEM_HEAVY_ATOM_COUNT>
40

>  <PUBCHEM_ATOM_DEF_STEREO_COUNT>
0

>  <PUBCHEM_ATOM_UDEF_STEREO_COUNT>
0

>  <PUBCHEM_BOND_DEF_STEREO_COUNT>
9

>  <PUBCHEM_BOND_UDEF_STEREO_COUNT>
0

>  <PUBCHEM_ISOTOPIC_ATOM_COUNT>
0

>  <PUBCHEM_COMPONENT_COUNT>
1

>  <PUBCHEM_CACTVS_TAUTO_COUNT>
1

>  <PUBCHEM_COORDINATE_TYPE>
1
5
255

$$$$
