10255010
 OpenBabel06101807152D

 70 72  0  0  0  0  0  0  0  0999 V2000
    8.1301   -2.6900    0.0000 O   0  0  0  0  0  0  0  0  0  0  0  0
    6.3817    0.3446    0.0000 O   0  0  0  0  0  0  0  0  0  0  0  0
    8.1301    0.3100    0.0000 O   0  0  0  0  0  0  0  0  0  0  0  0
    4.6000   -2.7142    0.0000 O   0  0  0  0  0  0  0  0  0  0  0  0
    8.9961   -4.1900    0.0000 O   0  0  0  0  0  0  0  0  0  0  0  0
   12.4602   -4.1900    0.0000 O   0  0  0  0  0  0  0  0  0  0  0  0
    8.9961   -1.1900    0.0000 C   0  0  0  0  0  0  0  0  0  0  0  0
    7.2641   -1.1900    0.0000 C   0  0  0  0  0  0  0  0  0  0  0  0
    9.8622   -0.6900    0.0000 C   0  0  0  0  0  0  0  0  0  0  0  0
    8.9961   -2.1900    0.0000 C   0  0  0  0  0  0  0  0  0  0  0  0
    7.2641   -2.1900    0.0000 C   0  0  0  0  0  0  0  0  0  0  0  0
    8.1301   -0.6900    0.0000 C   0  0  0  0  0  0  0  0  0  0  0  0
    5.4641   -1.1692    0.0000 C   0  0  0  0  0  0  0  0  0  0  0  0
    6.3701   -0.6553    0.0000 C   0  0  0  0  0  0  0  0  0  0  0  0
    9.8622    0.3100    0.0000 C   0  0  0  0  0  0  0  0  0  0  0  0
   10.7282    0.8100    0.0000 C   0  0  0  0  0  0  0  0  0  0  0  0
    6.3701   -2.7247    0.0000 C   0  0  0  0  0  0  0  0  0  0  0  0
    5.4641   -2.2108    0.0000 C   0  0  0  0  0  0  0  0  0  0  0  0
    9.8622   -2.6900    0.0000 C   0  0  0  0  0  0  0  0  0  0  0  0
   10.7282    1.8100    0.0000 C   0  0  0  0  0  0  0  0  0  0  0  0
    4.6000   -0.6659    0.0000 C   0  0  0  0  0  0  0  0  0  0  0  0
   11.5942    2.3100    0.0000 C   0  0  0  0  0  0  0  0  0  0  0  0
   11.5942    0.3100    0.0000 C   0  0  0  0  0  0  0  0  0  0  0  0
    9.8622   -3.6900    0.0000 C   0  0  0  0  0  0  0  0  0  0  0  0
   10.7282   -2.1900    0.0000 C   0  0  0  0  0  0  0  0  0  0  0  0
    3.7320   -1.1625    0.0000 C   0  0  0  0  0  0  0  0  0  0  0  0
   11.5942    3.3100    0.0000 C   0  0  0  0  0  0  0  0  0  0  0  0
    2.8680   -0.6592    0.0000 C   0  0  0  0  0  0  0  0  0  0  0  0
   10.7282   -4.1900    0.0000 C   0  0  0  0  0  0  0  0  0  0  0  0
   11.5942   -2.6900    0.0000 C   0  0  0  0  0  0  0  0  0  0  0  0
   11.5942   -3.6900    0.0000 C   0  0  0  0  0  0  0  0  0  0  0  0
   12.4602    3.8100    0.0000 C   0  0  0  0  0  0  0  0  0  0  0  0
    2.0000   -1.1558    0.0000 C   0  0  0  0  0  0  0  0  0  0  0  0
    2.8718    0.3408    0.0000 C   0  0  0  0  0  0  0  0  0  0  0  0
   12.4602    4.8100    0.0000 C   0  0  0  0  0  0  0  0  0  0  0  0
   13.3263    3.3100    0.0000 C   0  0  0  0  0  0  0  0  0  0  0  0
   10.0742   -1.2726    0.0000 H   0  0  0  0  0  0  0  0  0  0  0  0
   10.4727   -0.5823    0.0000 H   0  0  0  0  0  0  0  0  0  0  0  0
    9.3252    0.6200    0.0000 H   0  0  0  0  0  0  0  0  0  0  0  0
    6.3773   -3.3446    0.0000 H   0  0  0  0  0  0  0  0  0  0  0  0
   10.5161    2.3926    0.0000 H   0  0  0  0  0  0  0  0  0  0  0  0
   10.1176    1.7023    0.0000 H   0  0  0  0  0  0  0  0  0  0  0  0
    5.0003   -0.1924    0.0000 H   0  0  0  0  0  0  0  0  0  0  0  0
    4.2033   -0.1894    0.0000 H   0  0  0  0  0  0  0  0  0  0  0  0
   11.8063    1.7274    0.0000 H   0  0  0  0  0  0  0  0  0  0  0  0
   12.2048    2.4177    0.0000 H   0  0  0  0  0  0  0  0  0  0  0  0
   11.2842   -0.2269    0.0000 H   0  0  0  0  0  0  0  0  0  0  0  0
   12.1311   -0.0000    0.0000 H   0  0  0  0  0  0  0  0  0  0  0  0
   11.9042    0.8469    0.0000 H   0  0  0  0  0  0  0  0  0  0  0  0
   10.7282   -1.5700    0.0000 H   0  0  0  0  0  0  0  0  0  0  0  0
    3.7296   -1.7825    0.0000 H   0  0  0  0  0  0  0  0  0  0  0  0
   11.0573    3.6200    0.0000 H   0  0  0  0  0  0  0  0  0  0  0  0
    5.8484    0.6608    0.0000 H   0  0  0  0  0  0  0  0  0  0  0  0
   10.7282   -4.8100    0.0000 H   0  0  0  0  0  0  0  0  0  0  0  0
   12.1311   -2.3800    0.0000 H   0  0  0  0  0  0  0  0  0  0  0  0
    4.6024   -3.3342    0.0000 H   0  0  0  0  0  0  0  0  0  0  0  0
    1.6921   -0.6177    0.0000 H   0  0  0  0  0  0  0  0  0  0  0  0
    1.4619   -1.4638    0.0000 H   0  0  0  0  0  0  0  0  0  0  0  0
    2.3079   -1.6940    0.0000 H   0  0  0  0  0  0  0  0  0  0  0  0
    3.4918    0.3384    0.0000 H   0  0  0  0  0  0  0  0  0  0  0  0
    2.8742    0.9608    0.0000 H   0  0  0  0  0  0  0  0  0  0  0  0
    2.2518    0.3432    0.0000 H   0  0  0  0  0  0  0  0  0  0  0  0
    8.9961   -4.8100    0.0000 H   0  0  0  0  0  0  0  0  0  0  0  0
   13.0802    4.8100    0.0000 H   0  0  0  0  0  0  0  0  0  0  0  0
   12.4602    5.4300    0.0000 H   0  0  0  0  0  0  0  0  0  0  0  0
   11.8402    4.8100    0.0000 H   0  0  0  0  0  0  0  0  0  0  0  0
   13.0163    2.7731    0.0000 H   0  0  0  0  0  0  0  0  0  0  0  0
   13.8632    3.0000    0.0000 H   0  0  0  0  0  0  0  0  0  0  0  0
   13.6363    3.8469    0.0000 H   0  0  0  0  0  0  0  0  0  0  0  0
   12.9972   -3.8800    0.0000 H   0  0  0  0  0  0  0  0  0  0  0  0
  1 10  1  0  0  0  0
  1 11  1  0  0  0  0
  2 14  1  0  0  0  0
  2 53  1  0  0  0  0
  3 12  2  0  0  0  0
  4 18  1  0  0  0  0
  4 56  1  0  0  0  0
  5 24  1  0  0  0  0
  5 63  1  0  0  0  0
  6 31  1  0  0  0  0
  6 70  1  0  0  0  0
  7  9  1  0  0  0  0
  7 10  2  0  0  0  0
  7 12  1  0  0  0  0
  8 11  2  0  0  0  0
  8 12  1  0  0  0  0
  8 14  1  0  0  0  0
  9 15  1  0  0  0  0
  9 37  1  0  0  0  0
  9 38  1  0  0  0  0
 10 19  1  0  0  0  0
 11 17  1  0  0  0  0
 13 14  2  0  0  0  0
 13 18  1  0  0  0  0
 13 21  1  0  0  0  0
 15 16  2  0  0  0  0
 15 39  1  0  0  0  0
 16 20  1  0  0  0  0
 16 23  1  0  0  0  0
 17 18  2  0  0  0  0
 17 40  1  0  0  0  0
 19 24  2  0  0  0  0
 19 25  1  0  0  0  0
 20 22  1  0  0  0  0
 20 41  1  0  0  0  0
 20 42  1  0  0  0  0
 21 26  1  0  0  0  0
 21 43  1  0  0  0  0
 21 44  1  0  0  0  0
 22 27  1  0  0  0  0
 22 45  1  0  0  0  0
 22 46  1  0  0  0  0
 23 47  1  0  0  0  0
 23 48  1  0  0  0  0
 23 49  1  0  0  0  0
 24 29  1  0  0  0  0
 25 30  2  0  0  0  0
 25 50  1  0  0  0  0
 26 28  2  0  0  0  0
 26 51  1  0  0  0  0
 27 32  2  0  0  0  0
 27 52  1  0  0  0  0
 28 33  1  0  0  0  0
 28 34  1  0  0  0  0
 29 31  2  0  0  0  0
 29 54  1  0  0  0  0
 30 31  1  0  0  0  0
 30 55  1  0  0  0  0
 32 35  1  0  0  0  0
 32 36  1  0  0  0  0
 33 57  1  0  0  0  0
 33 58  1  0  0  0  0
 33 59  1  0  0  0  0
 34 60  1  0  0  0  0
 34 61  1  0  0  0  0
 34 62  1  0  0  0  0
 35 64  1  0  0  0  0
 35 65  1  0  0  0  0
 35 66  1  0  0  0  0
 36 67  1  0  0  0  0
 36 68  1  0  0  0  0
 36 69  1  0  0  0  0
M  END
>  <PUBCHEM_COMPOUND_CID>
10255010

>  <PUBCHEM_COMPOUND_CANONICALIZED>
1

>  <PUBCHEM_CACTVS_COMPLEXITY>
904

>  <PUBCHEM_CACTVS_HBOND_ACCEPTOR>
6

>  <PUBCHEM_CACTVS_HBOND_DONOR>
4

>  <PUBCHEM_CACTVS_ROTATABLE_BOND>
8

>  <PUBCHEM_CACTVS_SUBSKEYS>
AAADcfB4OAAAAAAAAAAAAAAAAAAAAAAAAAAwYIAAAAAAAACBQAAAGgAACAAADASAmAAyBoAABgCIAqBSAAACCAAkIAAIiAEGCMgMJzaGNRqCeWCl4BUIuQeI7OzOIAACCAAIAABAAAQQABAAAAAAAAAAAA==

>  <PUBCHEM_IUPAC_OPENEYE_NAME>
2-(2,4-dihydroxyphenyl)-3-[(2E)-3,7-dimethylocta-2,6-dienyl]-5,7-dihydroxy-6-(3-methylbut-2-enyl)chromen-4-one

>  <PUBCHEM_IUPAC_CAS_NAME>
2-(2,4-dihydroxyphenyl)-3-[(2E)-3,7-dimethylocta-2,6-dienyl]-5,7-dihydroxy-6-(3-methylbut-2-enyl)-1-benzopyran-4-one

>  <PUBCHEM_IUPAC_NAME>
2-(2,4-dihydroxyphenyl)-3-[(2E)-3,7-dimethylocta-2,6-dienyl]-5,7-dihydroxy-6-(3-methylbut-2-enyl)chromen-4-one

>  <PUBCHEM_IUPAC_SYSTEMATIC_NAME>
2-[2,4-bis(oxidanyl)phenyl]-3-[(2E)-3,7-dimethylocta-2,6-dienyl]-6-(3-methylbut-2-enyl)-5,7-bis(oxidanyl)chromen-4-one

>  <PUBCHEM_IUPAC_TRADITIONAL_NAME>
2-(2,4-dihydroxyphenyl)-3-[(2E)-3,7-dimethylocta-2,6-dienyl]-5,7-dihydroxy-6-(3-methylbut-2-enyl)chromone

>  <PUBCHEM_IUPAC_INCHI>
InChI=1S/C30H34O6/c1-17(2)7-6-8-19(5)10-13-23-29(35)27-26(16-25(33)21(28(27)34)12-9-18(3)4)36-30(23)22-14-11-20(31)15-24(22)32/h7,9-11,14-16,31-34H,6,8,12-13H2,1-5H3/b19-10+

>  <PUBCHEM_IUPAC_INCHIKEY>
RHAIJKNXAULKGF-VXLYETTFSA-N

>  <PUBCHEM_XLOGP3>
7.4

>  <PUBCHEM_EXACT_MASS>
490.236

>  <PUBCHEM_MOLECULAR_FORMULA>
C30H34O6

>  <PUBCHEM_MOLECULAR_WEIGHT>
490.596

>  <PUBCHEM_OPENEYE_CAN_SMILES>
CC(=CCCC(=CCC1=C(OC2=CC(=C(C(=C2C1=O)O)CC=C(C)C)O)C3=C(C=C(C=C3)O)O)C)C

>  <PUBCHEM_OPENEYE_ISO_SMILES>
CC(=CCC/C(=C/CC1=C(OC2=CC(=C(C(=C2C1=O)O)CC=C(C)C)O)C3=C(C=C(C=C3)O)O)/C)C

>  <PUBCHEM_CACTVS_TPSA>
107

>  <PUBCHEM_MONOISOTOPIC_WEIGHT>
490.236

>  <PUBCHEM_TOTAL_CHARGE>
0

>  <PUBCHEM_HEAVY_ATOM_COUNT>
36

>  <PUBCHEM_ATOM_DEF_STEREO_COUNT>
0

>  <PUBCHEM_ATOM_UDEF_STEREO_COUNT>
0

>  <PUBCHEM_BOND_DEF_STEREO_COUNT>
1

>  <PUBCHEM_BOND_UDEF_STEREO_COUNT>
0

>  <PUBCHEM_ISOTOPIC_ATOM_COUNT>
0

>  <PUBCHEM_COMPONENT_COUNT>
1

>  <PUBCHEM_CACTVS_TAUTO_COUNT>
171

>  <PUBCHEM_COORDINATE_TYPE>
1
5
255

>  <PUBCHEM_BONDANNOTATIONS>
1  10  8
1  11  8
11  17  8
13  14  8
13  18  8
17  18  8
19  24  8
19  25  8
24  29  8
25  30  8
29  31  8
30  31  8
7  10  8
7  12  8
8  11  8
8  12  8
8  14  8

$$$$
