102524408
 OpenBabel06101807152D

113119  0  0  1  0  0  0  0  0999 V2000
    7.7331   -3.5000    0.0000 O   0  0  0  0  0  0  0  0  0  0  0  0
    8.5991   -1.0000    0.0000 O   0  0  0  0  0  0  0  0  0  0  0  0
    6.0010   -3.5000    0.0000 O   0  0  0  0  0  0  0  0  0  0  0  0
    9.4651   -2.5000    0.0000 O   0  0  0  0  0  0  0  0  0  0  0  0
    6.0010   -2.5000    0.0000 O   0  0  0  0  0  0  0  0  0  0  0  0
    6.0010   -0.5000    0.0000 O   0  0  0  0  0  0  0  0  0  0  0  0
    7.7331   -5.5000    0.0000 O   0  0  0  0  0  0  0  0  0  0  0  0
    6.0010   -6.5000    0.0000 O   0  0  0  0  0  0  0  0  0  0  0  0
    4.2690   -5.5000    0.0000 O   0  0  0  0  0  0  0  0  0  0  0  0
    6.8671    1.0000    0.0000 O   0  0  0  0  0  0  0  0  0  0  0  0
    9.4261    2.5214    0.0000 O   0  0  0  0  0  0  0  0  0  0  0  0
    3.4030   -4.0000    0.0000 O   0  0  0  0  0  0  0  0  0  0  0  0
   10.3094    1.0315    0.0000 O   0  0  0  0  0  0  0  0  0  0  0  0
   12.0066    4.0513    0.0000 O   0  0  0  0  0  0  0  0  0  0  0  0
   10.2631    5.0312    0.0000 O   0  0  0  0  0  0  0  0  0  0  0  0
   12.0298    2.0514    0.0000 O   0  0  0  0  0  0  0  0  0  0  0  0
   12.0632   -2.0000    0.0000 O   0  3  0  0  0  0  0  0  0  0  0  0
    8.5312    5.0112    0.0000 O   0  0  0  0  0  0  0  0  0  0  0  0
    7.7331    2.5000    0.0000 O   0  0  0  0  0  0  0  0  0  0  0  0
   13.8492    1.0451    0.0000 O   0  0  0  0  0  0  0  0  0  0  0  0
   12.9292   -5.5000    0.0000 O   0  0  0  0  0  0  0  0  0  0  0  0
   11.1972   -6.5000    0.0000 O   0  0  0  0  0  0  0  0  0  0  0  0
    4.2690    6.5000    0.0000 O   0  0  0  0  0  0  0  0  0  0  0  0
    2.5369    5.5000    0.0000 O   0  0  0  0  0  0  0  0  0  0  0  0
    7.7331   -2.5000    0.0000 C   0  0  2  0  0  0  0  0  0  0  0  0
    6.8671   -2.0000    0.0000 C   0  0  2  0  0  0  0  0  0  0  0  0
    6.8671   -1.0000    0.0000 C   0  0  1  0  0  0  0  0  0  0  0  0
    6.8671   -4.0000    0.0000 C   0  0  2  0  0  0  0  0  0  0  0  0
    8.5991   -2.0000    0.0000 C   0  0  2  0  0  0  0  0  0  0  0  0
    7.7331   -0.5000    0.0000 C   0  0  1  0  0  0  0  0  0  0  0  0
    6.8671   -5.0000    0.0000 C   0  0  1  0  0  0  0  0  0  0  0  0
    6.0010   -5.5000    0.0000 C   0  0  2  0  0  0  0  0  0  0  0  0
    5.1350   -5.0000    0.0000 C   0  0  1  0  0  0  0  0  0  0  0  0
    5.1350   -4.0000    0.0000 C   0  0  1  0  0  0  0  0  0  0  0  0
    7.7331    0.5000    0.0000 C   0  0  0  0  0  0  0  0  0  0  0  0
    4.2690   -3.5000    0.0000 C   0  0  0  0  0  0  0  0  0  0  0  0
   11.1464    3.5413    0.0000 C   0  0  1  0  0  0  0  0  0  0  0  0
   10.2747    4.0313    0.0000 C   0  0  1  0  0  0  0  0  0  0  0  0
   11.1580    2.5414    0.0000 C   0  0  2  0  0  0  0  0  0  0  0  0
    9.4145    3.5213    0.0000 C   0  0  1  0  0  0  0  0  0  0  0  0
   10.2978    2.0314    0.0000 C   0  0  1  0  0  0  0  0  0  0  0  0
   10.3312   -2.0000    0.0000 C   0  0  0  0  0  0  0  0  0  0  0  0
    8.5428    4.0112    0.0000 C   0  0  0  0  0  0  0  0  0  0  0  0
   10.3312   -1.0000    0.0000 C   0  0  0  0  0  0  0  0  0  0  0  0
   11.1972   -2.5000    0.0000 C   0  0  0  0  0  0  0  0  0  0  0  0
   11.1972   -0.5000    0.0000 C   0  0  0  0  0  0  0  0  0  0  0  0
   11.1811    0.5415    0.0000 C   0  0  0  0  0  0  0  0  0  0  0  0
   12.0632   -1.0000    0.0000 C   0  0  0  0  0  0  0  0  0  0  0  0
    6.8671    2.0000    0.0000 C   0  0  0  0  0  0  0  0  0  0  0  0
   11.1972   -3.5000    0.0000 C   0  0  0  0  0  0  0  0  0  0  0  0
   12.0792    1.0693    0.0000 C   0  0  0  0  0  0  0  0  0  0  0  0
   12.9732   -0.4932    0.0000 C   0  0  0  0  0  0  0  0  0  0  0  0
   12.9812    0.5484    0.0000 C   0  0  0  0  0  0  0  0  0  0  0  0
    6.0010    2.5000    0.0000 C   0  0  0  0  0  0  0  0  0  0  0  0
   12.0632   -4.0000    0.0000 C   0  0  0  0  0  0  0  0  0  0  0  0
   10.3312   -4.0000    0.0000 C   0  0  0  0  0  0  0  0  0  0  0  0
   12.0632   -5.0000    0.0000 C   0  0  0  0  0  0  0  0  0  0  0  0
   10.3312   -5.0000    0.0000 C   0  0  0  0  0  0  0  0  0  0  0  0
    6.0010    3.5000    0.0000 C   0  0  0  0  0  0  0  0  0  0  0  0
   11.1972   -5.5000    0.0000 C   0  0  0  0  0  0  0  0  0  0  0  0
    5.1350    4.0000    0.0000 C   0  0  0  0  0  0  0  0  0  0  0  0
    5.1350    5.0000    0.0000 C   0  0  0  0  0  0  0  0  0  0  0  0
    4.2690    3.5000    0.0000 C   0  0  0  0  0  0  0  0  0  0  0  0
    4.2690    5.5000    0.0000 C   0  0  0  0  0  0  0  0  0  0  0  0
    3.4030    4.0000    0.0000 C   0  0  0  0  0  0  0  0  0  0  0  0
    3.4030    5.0000    0.0000 C   0  0  0  0  0  0  0  0  0  0  0  0
    8.2700   -2.8100    0.0000 H   0  0  0  0  0  0  0  0  0  0  0  0
    6.8671   -2.6200    0.0000 H   0  0  0  0  0  0  0  0  0  0  0  0
    6.3301   -1.3100    0.0000 H   0  0  0  0  0  0  0  0  0  0  0  0
    6.8671   -3.3800    0.0000 H   0  0  0  0  0  0  0  0  0  0  0  0
    9.1360   -1.6900    0.0000 H   0  0  0  0  0  0  0  0  0  0  0  0
    8.2700   -0.1900    0.0000 H   0  0  0  0  0  0  0  0  0  0  0  0
    6.8671   -5.6200    0.0000 H   0  0  0  0  0  0  0  0  0  0  0  0
    5.4641   -5.8100    0.0000 H   0  0  0  0  0  0  0  0  0  0  0  0
    4.5981   -4.6900    0.0000 H   0  0  0  0  0  0  0  0  0  0  0  0
    5.1350   -3.3800    0.0000 H   0  0  0  0  0  0  0  0  0  0  0  0
    8.3437    0.3923    0.0000 H   0  0  0  0  0  0  0  0  0  0  0  0
    7.9451    1.0826    0.0000 H   0  0  0  0  0  0  0  0  0  0  0  0
    4.6675   -3.0250    0.0000 H   0  0  0  0  0  0  0  0  0  0  0  0
    3.8705   -3.0250    0.0000 H   0  0  0  0  0  0  0  0  0  0  0  0
    5.4641   -2.1900    0.0000 H   0  0  0  0  0  0  0  0  0  0  0  0
    6.0010    0.1200    0.0000 H   0  0  0  0  0  0  0  0  0  0  0  0
    7.7331   -6.1200    0.0000 H   0  0  0  0  0  0  0  0  0  0  0  0
   11.6869    3.2375    0.0000 H   0  0  0  0  0  0  0  0  0  0  0  0
   10.8080    4.3474    0.0000 H   0  0  0  0  0  0  0  0  0  0  0  0
    5.4641   -6.8100    0.0000 H   0  0  0  0  0  0  0  0  0  0  0  0
   11.1652    1.9214    0.0000 H   0  0  0  0  0  0  0  0  0  0  0  0
    8.8812    3.2051    0.0000 H   0  0  0  0  0  0  0  0  0  0  0  0
    4.2690   -6.1200    0.0000 H   0  0  0  0  0  0  0  0  0  0  0  0
    9.7645    1.7152    0.0000 H   0  0  0  0  0  0  0  0  0  0  0  0
    7.9310    4.1118    0.0000 H   0  0  0  0  0  0  0  0  0  0  0  0
    8.3374    3.4262    0.0000 H   0  0  0  0  0  0  0  0  0  0  0  0
    9.7942   -0.6900    0.0000 H   0  0  0  0  0  0  0  0  0  0  0  0
    2.8660   -3.6900    0.0000 H   0  0  0  0  0  0  0  0  0  0  0  0
   11.9995    4.6712    0.0000 H   0  0  0  0  0  0  0  0  0  0  0  0
   10.7964    5.3474    0.0000 H   0  0  0  0  0  0  0  0  0  0  0  0
   12.5631    2.3676    0.0000 H   0  0  0  0  0  0  0  0  0  0  0  0
   12.0768    1.6893    0.0000 H   0  0  0  0  0  0  0  0  0  0  0  0
   13.5065   -0.8093    0.0000 H   0  0  0  0  0  0  0  0  0  0  0  0
    7.9907    5.3149    0.0000 H   0  0  0  0  0  0  0  0  0  0  0  0
    5.4641    2.1900    0.0000 H   0  0  0  0  0  0  0  0  0  0  0  0
   12.6002   -3.6900    0.0000 H   0  0  0  0  0  0  0  0  0  0  0  0
    9.7942   -3.6900    0.0000 H   0  0  0  0  0  0  0  0  0  0  0  0
    9.7942   -5.3100    0.0000 H   0  0  0  0  0  0  0  0  0  0  0  0
    6.5380    3.8100    0.0000 H   0  0  0  0  0  0  0  0  0  0  0  0
   14.3849    0.7330    0.0000 H   0  0  0  0  0  0  0  0  0  0  0  0
   13.4662   -5.1900    0.0000 H   0  0  0  0  0  0  0  0  0  0  0  0
   10.6603   -6.8100    0.0000 H   0  0  0  0  0  0  0  0  0  0  0  0
    5.6720    5.3100    0.0000 H   0  0  0  0  0  0  0  0  0  0  0  0
    4.2690    2.8800    0.0000 H   0  0  0  0  0  0  0  0  0  0  0  0
    2.8660    3.6900    0.0000 H   0  0  0  0  0  0  0  0  0  0  0  0
    4.8059    6.8100    0.0000 H   0  0  0  0  0  0  0  0  0  0  0  0
    2.0000    5.1900    0.0000 H   0  0  0  0  0  0  0  0  0  0  0  0
  2 29  1  0  0  0  0
  2 30  1  0  0  0  0
  3 28  1  0  0  0  0
  3 34  1  0  0  0  0
  4 42  1  0  0  0  0
  5 81  1  0  0  0  0
  6 82  1  0  0  0  0
  7 83  1  0  0  0  0
  8 86  1  0  0  0  0
  9 89  1  0  0  0  0
 10 35  1  0  0  0  0
 10 49  1  0  0  0  0
 11 40  1  0  0  0  0
 11 41  1  0  0  0  0
 12 36  1  0  0  0  0
 12 94  1  0  0  0  0
 13 47  1  0  0  0  0
 14 95  1  0  0  0  0
 15 96  1  0  0  0  0
 16 97  1  0  0  0  0
 17 45  1  0  0  0  0
 17 48  2  0  0  0  0
 18 43  1  0  0  0  0
 18100  1  0  0  0  0
 19 49  2  0  0  0  0
 20 53  1  0  0  0  0
 20106  1  0  0  0  0
 21 57  1  0  0  0  0
 21107  1  0  0  0  0
 22 60  1  0  0  0  0
 22108  1  0  0  0  0
 23 64  1  0  0  0  0
 23112  1  0  0  0  0
 24 66  1  0  0  0  0
 24113  1  0  0  0  0
 25  1  1  0  0  0  0
 25 26  1  1  0  0  0
 25 67  1  0  0  0  0
 26  5  1  0  0  0  0
 26 27  1  6  0  0  0
 26 68  1  0  0  0  0
 27  6  1  0  0  0  0
 27 30  1  1  0  0  0
 27 69  1  0  0  0  0
 28  1  1  0  0  0  0
 28 31  1  6  0  0  0
 28 70  1  0  0  0  0
 29  4  1  0  0  0  0
 29 25  1  1  0  0  0
 29 71  1  0  0  0  0
 30 35  1  0  0  0  0
 30 72  1  6  0  0  0
 31  7  1  0  0  0  0
 31 32  1  6  0  0  0
 31 73  1  0  0  0  0
 32  8  1  0  0  0  0
 32 33  1  1  0  0  0
 32 74  1  0  0  0  0
 33  9  1  0  0  0  0
 33 34  1  6  0  0  0
 33 75  1  0  0  0  0
 34 36  1  0  0  0  0
 34 76  1  6  0  0  0
 35 77  1  0  0  0  0
 35 78  1  0  0  0  0
 36 79  1  0  0  0  0
 36 80  1  0  0  0  0
 37 14  1  0  0  0  0
 37 38  1  1  0  0  0
 37 84  1  0  0  0  0
 38 15  1  0  0  0  0
 38 40  1  6  0  0  0
 38 85  1  0  0  0  0
 39 16  1  0  0  0  0
 39 37  1  6  0  0  0
 39 87  1  0  0  0  0
 40 43  1  0  0  0  0
 40 88  1  1  0  0  0
 41 13  1  0  0  0  0
 41 39  1  1  0  0  0
 41 90  1  0  0  0  0
 42 44  1  0  0  0  0
 42 45  2  0  0  0  0
 43 91  1  0  0  0  0
 43 92  1  0  0  0  0
 44 46  2  0  0  0  0
 44 93  1  0  0  0  0
 45 50  1  0  0  0  0
 46 47  1  0  0  0  0
 46 48  1  0  0  0  0
 47 51  2  0  0  0  0
 48 52  1  0  0  0  0
 49 54  1  0  0  0  0
 50 55  2  0  0  0  0
 50 56  1  0  0  0  0
 51 53  1  0  0  0  0
 51 98  1  0  0  0  0
 52 53  2  0  0  0  0
 52 99  1  0  0  0  0
 54 59  2  3  0  0  0
 54101  1  0  0  0  0
 55 57  1  0  0  0  0
 55102  1  0  0  0  0
 56 58  2  0  0  0  0
 56103  1  0  0  0  0
 57 60  2  0  0  0  0
 58 60  1  0  0  0  0
 58104  1  0  0  0  0
 59 61  1  0  0  0  0
 59105  1  0  0  0  0
 61 62  2  0  0  0  0
 61 63  1  0  0  0  0
 62 64  1  0  0  0  0
 62109  1  0  0  0  0
 63 65  2  0  0  0  0
 63110  1  0  0  0  0
 64 66  2  0  0  0  0
 65 66  1  0  0  0  0
 65111  1  0  0  0  0
M  CHG  1  17   1
M  END
>  <PUBCHEM_COMPOUND_CID>
102524408

>  <PUBCHEM_COMPOUND_CANONICALIZED>
1

>  <PUBCHEM_CACTVS_COMPLEXITY>
1580

>  <PUBCHEM_CACTVS_HBOND_ACCEPTOR>
23

>  <PUBCHEM_CACTVS_HBOND_DONOR>
15

>  <PUBCHEM_CACTVS_ROTATABLE_BOND>
14

>  <PUBCHEM_CACTVS_SUBSKEYS>
AAADcfB8PgAAAAAAAAAAAAAAAAAAAAAAAAA0aNEiAAAAAACR9AAAGgAACAAADBSwmAMwDsAABkCIAqDSCAICCAAkIAAIiAFGiMgdNzaGNR6ieWOl4BUPuYfK7PzOIAABCAAIQABAAAIQABCAAAAAAAAAAA==

>  <PUBCHEM_IUPAC_OPENEYE_NAME>
[(2R,3S,4S,5R,6R)-6-[2-(3,4-dihydroxyphenyl)-7-hydroxy-5-[(2S,3R,4S,5S,6R)-3,4,5-trihydroxy-6-(hydroxymethyl)tetrahydropyran-2-yl]oxy-chromenylium-3-yl]oxy-3,4-dihydroxy-5-[(2S,3R,4S,5S,6R)-3,4,5-trihydroxy-6-(hydroxymethyl)tetrahydropyran-2-yl]oxy-tetrahydropyran-2-yl]methyl 3-(3,4-dihydroxyphenyl)prop-2-enoate

>  <PUBCHEM_IUPAC_CAS_NAME>
3-(3,4-dihydroxyphenyl)-2-propenoic acid [(2R,3S,4S,5R,6R)-6-[[2-(3,4-dihydroxyphenyl)-7-hydroxy-5-[[(2S,3R,4S,5S,6R)-3,4,5-trihydroxy-6-(hydroxymethyl)-2-oxanyl]oxy]-1-benzopyrylium-3-yl]oxy]-3,4-dihydroxy-5-[[(2S,3R,4S,5S,6R)-3,4,5-trihydroxy-6-(hydroxymethyl)-2-oxanyl]oxy]-2-oxanyl]methyl ester

>  <PUBCHEM_IUPAC_NAME>
[(2R,3S,4S,5R,6R)-6-[2-(3,4-dihydroxyphenyl)-7-hydroxy-5-[(2S,3R,4S,5S,6R)-3,4,5-trihydroxy-6-(hydroxymethyl)oxan-2-yl]oxychromenylium-3-yl]oxy-3,4-dihydroxy-5-[(2S,3R,4S,5S,6R)-3,4,5-trihydroxy-6-(hydroxymethyl)oxan-2-yl]oxyoxan-2-yl]methyl 3-(3,4-dihydroxyphenyl)prop-2-enoate

>  <PUBCHEM_IUPAC_SYSTEMATIC_NAME>
[(2R,3S,4S,5R,6R)-6-[2-[3,4-bis(oxidanyl)phenyl]-5-[(2S,3R,4S,5S,6R)-6-(hydroxymethyl)-3,4,5-tris(oxidanyl)oxan-2-yl]oxy-7-oxidanyl-chromenylium-3-yl]oxy-5-[(2S,3R,4S,5S,6R)-6-(hydroxymethyl)-3,4,5-tris(oxidanyl)oxan-2-yl]oxy-3,4-bis(oxidanyl)oxan-2-yl]methyl 3-[3,4-bis(oxidanyl)phenyl]prop-2-enoate

>  <PUBCHEM_IUPAC_TRADITIONAL_NAME>
3-(3,4-dihydroxyphenyl)acrylic acid [(2R,3S,4S,5R,6R)-6-[[2-(3,4-dihydroxyphenyl)-7-hydroxy-5-[(2S,3R,4S,5S,6R)-3,4,5-trihydroxy-6-methylol-tetrahydropyran-2-yl]oxy-1-benzopyrylium-3-yl]oxy]-3,4-dihydroxy-5-[(2S,3R,4S,5S,6R)-3,4,5-trihydroxy-6-methylol-tetrahydropyran-2-yl]oxy-tetrahydropyran-2-yl]methyl ester

>  <PUBCHEM_IUPAC_INCHI>
InChI=1S/C42H46O24/c43-12-26-30(51)33(54)36(57)40(63-26)61-24-10-17(45)9-23-18(24)11-25(38(60-23)16-3-5-20(47)22(49)8-16)62-42-39(66-41-37(58)34(55)31(52)27(13-44)64-41)35(56)32(53)28(65-42)14-59-29(50)6-2-15-1-4-19(46)21(48)7-15/h1-11,26-28,30-37,39-44,51-58H,12-14H2,(H4-,45,46,47,48,49,50)/p+1/t26-,27-,28-,30-,31-,32-,33+,34+,35+,36-,37-,39-,40-,41+,42+/m1/s1

>  <PUBCHEM_IUPAC_INCHIKEY>
OUIUOTNTXCBQGM-QJZWRCBTSA-O

>  <PUBCHEM_EXACT_MASS>
935.246

>  <PUBCHEM_MOLECULAR_FORMULA>
C42H47O24+

>  <PUBCHEM_MOLECULAR_WEIGHT>
935.814

>  <PUBCHEM_OPENEYE_CAN_SMILES>
C1=CC(=C(C=C1C=CC(=O)OCC2C(C(C(C(O2)OC3=C([O+]=C4C=C(C=C(C4=C3)OC5C(C(C(C(O5)CO)O)O)O)O)C6=CC(=C(C=C6)O)O)OC7C(C(C(C(O7)CO)O)O)O)O)O)O)O

>  <PUBCHEM_OPENEYE_ISO_SMILES>
C1=CC(=C(C=C1C=CC(=O)OC[C@@H]2[C@H]([C@@H]([C@H]([C@H](O2)OC3=C([O+]=C4C=C(C=C(C4=C3)O[C@H]5[C@@H]([C@H]([C@@H]([C@H](O5)CO)O)O)O)O)C6=CC(=C(C=C6)O)O)O[C@H]7[C@@H]([C@H]([C@@H]([C@H](O7)CO)O)O)O)O)O)O)O

>  <PUBCHEM_CACTVS_TPSA>
386

>  <PUBCHEM_MONOISOTOPIC_WEIGHT>
935.246

>  <PUBCHEM_TOTAL_CHARGE>
1

>  <PUBCHEM_HEAVY_ATOM_COUNT>
66

>  <PUBCHEM_ATOM_DEF_STEREO_COUNT>
15

>  <PUBCHEM_ATOM_UDEF_STEREO_COUNT>
0

>  <PUBCHEM_BOND_DEF_STEREO_COUNT>
0

>  <PUBCHEM_BOND_UDEF_STEREO_COUNT>
1

>  <PUBCHEM_ISOTOPIC_ATOM_COUNT>
0

>  <PUBCHEM_COMPONENT_COUNT>
1

>  <PUBCHEM_CACTVS_TAUTO_COUNT>
938

>  <PUBCHEM_COORDINATE_TYPE>
1
5
255

>  <PUBCHEM_BONDANNOTATIONS>
25  1  6
28  1  5
41  13  6
37  14  6
38  15  5
39  16  5
17  45  8
17  48  8
30  35  5
34  36  5
29  4  6
40  43  6
42  44  8
42  45  8
44  46  8
46  47  8
46  48  8
47  51  8
48  52  8
26  5  5
50  55  8
50  56  8
51  53  8
52  53  8
54  59  1
55  57  8
56  58  8
57  60  8
58  60  8
27  6  6
61  62  8
61  63  8
62  64  8
63  65  8
64  66  8
65  66  8
31  7  6
32  8  5
33  9  6

$$$$
