102506214
 OpenBabel06101807152D

130137  0  0  1  0  0  0  0  0999 V2000
   12.3923   -3.1550    0.0000 O   0  0  0  0  0  0  0  0  0  0  0  0
   13.2583   -0.6550    0.0000 O   0  0  0  0  0  0  0  0  0  0  0  0
   10.6603   -3.1550    0.0000 O   0  0  0  0  0  0  0  0  0  0  0  0
   14.1244   -2.1550    0.0000 O   0  0  0  0  0  0  0  0  0  0  0  0
   10.6603   -2.1550    0.0000 O   0  0  0  0  0  0  0  0  0  0  0  0
   10.6603   -0.1550    0.0000 O   0  0  0  0  0  0  0  0  0  0  0  0
   12.3923   -5.1550    0.0000 O   0  0  0  0  0  0  0  0  0  0  0  0
   10.6603   -6.1550    0.0000 O   0  0  0  0  0  0  0  0  0  0  0  0
    8.9282   -5.1550    0.0000 O   0  0  0  0  0  0  0  0  0  0  0  0
   11.5263    1.3450    0.0000 O   0  0  0  0  0  0  0  0  0  0  0  0
    8.0622   -3.6550    0.0000 O   0  0  0  0  0  0  0  0  0  0  0  0
   14.0853    2.8664    0.0000 O   0  0  0  0  0  0  0  0  0  0  0  0
   14.9686    1.3765    0.0000 O   0  0  0  0  0  0  0  0  0  0  0  0
   16.6658    4.3963    0.0000 O   0  0  0  0  0  0  0  0  0  0  0  0
   14.9223    5.3762    0.0000 O   0  0  0  0  0  0  0  0  0  0  0  0
   16.6890    2.3964    0.0000 O   0  0  0  0  0  0  0  0  0  0  0  0
   16.7224   -1.6550    0.0000 O   0  0  0  0  0  0  0  0  0  0  0  0
   13.1904    5.3562    0.0000 O   0  0  0  0  0  0  0  0  0  0  0  0
    7.1962   -2.1550    0.0000 O   0  3  0  0  0  0  0  0  0  0  0  0
   12.3923    2.8450    0.0000 O   0  0  0  0  0  0  0  0  0  0  0  0
   18.5084    1.3901    0.0000 O   0  0  0  0  0  0  0  0  0  0  0  0
   15.8564   -6.1550    0.0000 O   0  0  0  0  0  0  0  0  0  0  0  0
    7.1962    3.8450    0.0000 O   0  0  0  0  0  0  0  0  0  0  0  0
    2.0000   -3.1550    0.0000 O   0  0  0  0  0  0  0  0  0  0  0  0
    7.1962    5.8450    0.0000 O   0  0  0  0  0  0  0  0  0  0  0  0
    2.0000   -5.1550    0.0000 O   0  0  0  0  0  0  0  0  0  0  0  0
   12.3923   -2.1550    0.0000 C   0  0  2  0  0  0  0  0  0  0  0  0
   11.5263   -1.6550    0.0000 C   0  0  2  0  0  0  0  0  0  0  0  0
   11.5263   -0.6550    0.0000 C   0  0  1  0  0  0  0  0  0  0  0  0
   11.5263   -3.6550    0.0000 C   0  0  2  0  0  0  0  0  0  0  0  0
   11.5263   -4.6550    0.0000 C   0  0  1  0  0  0  0  0  0  0  0  0
   13.2583   -1.6550    0.0000 C   0  0  1  0  0  0  0  0  0  0  0  0
   12.3923   -0.1550    0.0000 C   0  0  1  0  0  0  0  0  0  0  0  0
   10.6603   -5.1550    0.0000 C   0  0  2  0  0  0  0  0  0  0  0  0
    9.7942   -4.6550    0.0000 C   0  0  1  0  0  0  0  0  0  0  0  0
    9.7942   -3.6550    0.0000 C   0  0  1  0  0  0  0  0  0  0  0  0
   12.3923    0.8450    0.0000 C   0  0  0  0  0  0  0  0  0  0  0  0
    8.9282   -3.1550    0.0000 C   0  0  0  0  0  0  0  0  0  0  0  0
   15.8057    3.8863    0.0000 C   0  0  1  0  0  0  0  0  0  0  0  0
   14.9339    4.3763    0.0000 C   0  0  1  0  0  0  0  0  0  0  0  0
   14.9904   -1.6550    0.0000 C   0  0  0  0  0  0  0  0  0  0  0  0
   15.8172    2.8864    0.0000 C   0  0  2  0  0  0  0  0  0  0  0  0
   14.0737    3.8663    0.0000 C   0  0  1  0  0  0  0  0  0  0  0  0
   14.9570    2.3764    0.0000 C   0  0  1  0  0  0  0  0  0  0  0  0
   14.9904   -0.6550    0.0000 C   0  0  0  0  0  0  0  0  0  0  0  0
   15.8564   -2.1550    0.0000 C   0  0  0  0  0  0  0  0  0  0  0  0
   15.8564   -0.1550    0.0000 C   0  0  0  0  0  0  0  0  0  0  0  0
   13.2020    4.3562    0.0000 C   0  0  0  0  0  0  0  0  0  0  0  0
   15.8403    0.8865    0.0000 C   0  0  0  0  0  0  0  0  0  0  0  0
   16.7224   -0.6550    0.0000 C   0  0  0  0  0  0  0  0  0  0  0  0
   11.5263    2.3450    0.0000 C   0  0  0  0  0  0  0  0  0  0  0  0
    7.1962   -3.1550    0.0000 C   0  0  0  0  0  0  0  0  0  0  0  0
   15.8564   -3.1550    0.0000 C   0  0  0  0  0  0  0  0  0  0  0  0
   16.7384    1.4143    0.0000 C   0  0  0  0  0  0  0  0  0  0  0  0
   17.6324   -0.1482    0.0000 C   0  0  0  0  0  0  0  0  0  0  0  0
   17.6405    0.8934    0.0000 C   0  0  0  0  0  0  0  0  0  0  0  0
   10.6603    2.8450    0.0000 C   0  0  0  0  0  0  0  0  0  0  0  0
    6.3301   -3.6550    0.0000 C   0  0  0  0  0  0  0  0  0  0  0  0
   16.7224   -3.6550    0.0000 C   0  0  0  0  0  0  0  0  0  0  0  0
   14.9904   -3.6550    0.0000 C   0  0  0  0  0  0  0  0  0  0  0  0
   16.7224   -4.6550    0.0000 C   0  0  0  0  0  0  0  0  0  0  0  0
   14.9904   -4.6550    0.0000 C   0  0  0  0  0  0  0  0  0  0  0  0
   10.6603    3.8450    0.0000 C   0  0  0  0  0  0  0  0  0  0  0  0
    5.4641   -3.1550    0.0000 C   0  0  0  0  0  0  0  0  0  0  0  0
   15.8564   -5.1550    0.0000 C   0  0  0  0  0  0  0  0  0  0  0  0
    9.7942    4.3450    0.0000 C   0  0  0  0  0  0  0  0  0  0  0  0
    4.5981   -3.6550    0.0000 C   0  0  0  0  0  0  0  0  0  0  0  0
    8.9282    3.8450    0.0000 C   0  0  0  0  0  0  0  0  0  0  0  0
    9.7942    5.3450    0.0000 C   0  0  0  0  0  0  0  0  0  0  0  0
    3.7320   -3.1550    0.0000 C   0  0  0  0  0  0  0  0  0  0  0  0
    4.5981   -4.6550    0.0000 C   0  0  0  0  0  0  0  0  0  0  0  0
    8.0622    4.3450    0.0000 C   0  0  0  0  0  0  0  0  0  0  0  0
    8.9282    5.8450    0.0000 C   0  0  0  0  0  0  0  0  0  0  0  0
    2.8660   -3.6550    0.0000 C   0  0  0  0  0  0  0  0  0  0  0  0
    3.7320   -5.1550    0.0000 C   0  0  0  0  0  0  0  0  0  0  0  0
    8.0622    5.3450    0.0000 C   0  0  0  0  0  0  0  0  0  0  0  0
    2.8660   -4.6550    0.0000 C   0  0  0  0  0  0  0  0  0  0  0  0
   12.9292   -2.4650    0.0000 H   0  0  0  0  0  0  0  0  0  0  0  0
   10.9893   -1.3450    0.0000 H   0  0  0  0  0  0  0  0  0  0  0  0
   11.5263   -0.0350    0.0000 H   0  0  0  0  0  0  0  0  0  0  0  0
   11.5263   -3.0350    0.0000 H   0  0  0  0  0  0  0  0  0  0  0  0
   12.0632   -4.3450    0.0000 H   0  0  0  0  0  0  0  0  0  0  0  0
   13.7953   -1.3450    0.0000 H   0  0  0  0  0  0  0  0  0  0  0  0
   12.9292    0.1550    0.0000 H   0  0  0  0  0  0  0  0  0  0  0  0
   11.1972   -5.4650    0.0000 H   0  0  0  0  0  0  0  0  0  0  0  0
    9.2573   -4.3450    0.0000 H   0  0  0  0  0  0  0  0  0  0  0  0
    9.7942   -3.0350    0.0000 H   0  0  0  0  0  0  0  0  0  0  0  0
   13.0029    0.7373    0.0000 H   0  0  0  0  0  0  0  0  0  0  0  0
   12.6044    1.4276    0.0000 H   0  0  0  0  0  0  0  0  0  0  0  0
    9.3267   -2.6800    0.0000 H   0  0  0  0  0  0  0  0  0  0  0  0
    8.5297   -2.6800    0.0000 H   0  0  0  0  0  0  0  0  0  0  0  0
   10.1233   -1.8450    0.0000 H   0  0  0  0  0  0  0  0  0  0  0  0
   10.6603    0.4650    0.0000 H   0  0  0  0  0  0  0  0  0  0  0  0
   12.3923   -5.7750    0.0000 H   0  0  0  0  0  0  0  0  0  0  0  0
   10.1233   -6.4650    0.0000 H   0  0  0  0  0  0  0  0  0  0  0  0
    8.9282   -5.7750    0.0000 H   0  0  0  0  0  0  0  0  0  0  0  0
   15.7985    4.5063    0.0000 H   0  0  0  0  0  0  0  0  0  0  0  0
   14.3934    4.6800    0.0000 H   0  0  0  0  0  0  0  0  0  0  0  0
   15.8244    2.2664    0.0000 H   0  0  0  0  0  0  0  0  0  0  0  0
   13.5404    3.5501    0.0000 H   0  0  0  0  0  0  0  0  0  0  0  0
   14.4237    2.0602    0.0000 H   0  0  0  0  0  0  0  0  0  0  0  0
   14.4534   -0.3450    0.0000 H   0  0  0  0  0  0  0  0  0  0  0  0
   12.5902    4.4568    0.0000 H   0  0  0  0  0  0  0  0  0  0  0  0
   12.9967    3.7712    0.0000 H   0  0  0  0  0  0  0  0  0  0  0  0
   16.6587    5.0162    0.0000 H   0  0  0  0  0  0  0  0  0  0  0  0
   15.4557    5.6924    0.0000 H   0  0  0  0  0  0  0  0  0  0  0  0
   17.2223    2.7126    0.0000 H   0  0  0  0  0  0  0  0  0  0  0  0
   16.7360    2.0343    0.0000 H   0  0  0  0  0  0  0  0  0  0  0  0
   18.1657   -0.4643    0.0000 H   0  0  0  0  0  0  0  0  0  0  0  0
   12.6499    5.6599    0.0000 H   0  0  0  0  0  0  0  0  0  0  0  0
   10.1233    2.5350    0.0000 H   0  0  0  0  0  0  0  0  0  0  0  0
    6.3301   -4.2750    0.0000 H   0  0  0  0  0  0  0  0  0  0  0  0
   17.2594   -3.3450    0.0000 H   0  0  0  0  0  0  0  0  0  0  0  0
   14.4534   -3.3450    0.0000 H   0  0  0  0  0  0  0  0  0  0  0  0
    6.6592   -1.8450    0.0000 H   0  0  0  0  0  0  0  0  0  0  0  0
   17.2594   -4.9650    0.0000 H   0  0  0  0  0  0  0  0  0  0  0  0
   14.4534   -4.9650    0.0000 H   0  0  0  0  0  0  0  0  0  0  0  0
   11.1972    4.1550    0.0000 H   0  0  0  0  0  0  0  0  0  0  0  0
    5.4641   -2.5350    0.0000 H   0  0  0  0  0  0  0  0  0  0  0  0
   16.3933   -6.4650    0.0000 H   0  0  0  0  0  0  0  0  0  0  0  0
    8.9282    3.2250    0.0000 H   0  0  0  0  0  0  0  0  0  0  0  0
   10.3312    5.6550    0.0000 H   0  0  0  0  0  0  0  0  0  0  0  0
    3.7320   -2.5350    0.0000 H   0  0  0  0  0  0  0  0  0  0  0  0
    5.1350   -4.9650    0.0000 H   0  0  0  0  0  0  0  0  0  0  0  0
    8.9282    6.4650    0.0000 H   0  0  0  0  0  0  0  0  0  0  0  0
    3.7320   -5.7750    0.0000 H   0  0  0  0  0  0  0  0  0  0  0  0
    6.6592    4.1550    0.0000 H   0  0  0  0  0  0  0  0  0  0  0  0
    2.0000   -2.5350    0.0000 H   0  0  0  0  0  0  0  0  0  0  0  0
    7.1962    6.4650    0.0000 H   0  0  0  0  0  0  0  0  0  0  0  0
    2.0000   -5.7750    0.0000 H   0  0  0  0  0  0  0  0  0  0  0  0
  2 32  1  0  0  0  0
  2 33  1  0  0  0  0
  3 30  1  0  0  0  0
  3 36  1  0  0  0  0
  4 41  1  0  0  0  0
  5 92  1  0  0  0  0
  6 93  1  0  0  0  0
  7 94  1  0  0  0  0
  8 95  1  0  0  0  0
  9 96  1  0  0  0  0
 10 37  1  0  0  0  0
 10 51  1  0  0  0  0
 11 38  1  0  0  0  0
 11 52  1  0  0  0  0
 12 43  1  0  0  0  0
 12 44  1  0  0  0  0
 13 49  1  0  0  0  0
 14105  1  0  0  0  0
 15106  1  0  0  0  0
 16107  1  0  0  0  0
 17 46  1  0  0  0  0
 17 50  1  0  0  0  0
 18 48  1  0  0  0  0
 18110  1  0  0  0  0
 19 52  2  0  0  0  0
 19115  1  0  0  0  0
 20 51  2  0  0  0  0
 21 56  2  0  0  0  0
 22 65  1  0  0  0  0
 22120  1  0  0  0  0
 23 72  1  0  0  0  0
 23127  1  0  0  0  0
 24 74  1  0  0  0  0
 24128  1  0  0  0  0
 25 76  1  0  0  0  0
 25129  1  0  0  0  0
 26 77  1  0  0  0  0
 26130  1  0  0  0  0
 27  1  1  0  0  0  0
 27 28  1  1  0  0  0
 27 78  1  0  0  0  0
 28  5  1  0  0  0  0
 28 29  1  1  0  0  0
 28 79  1  0  0  0  0
 29  6  1  0  0  0  0
 29 33  1  6  0  0  0
 29 80  1  0  0  0  0
 30  1  1  0  0  0  0
 30 31  1  6  0  0  0
 30 81  1  0  0  0  0
 31  7  1  0  0  0  0
 31 34  1  1  0  0  0
 31 82  1  0  0  0  0
 32  4  1  0  0  0  0
 32 27  1  6  0  0  0
 32 83  1  0  0  0  0
 33 37  1  0  0  0  0
 33 84  1  6  0  0  0
 34  8  1  0  0  0  0
 34 35  1  6  0  0  0
 34 85  1  0  0  0  0
 35  9  1  0  0  0  0
 35 36  1  6  0  0  0
 35 86  1  0  0  0  0
 36 38  1  0  0  0  0
 36 87  1  6  0  0  0
 37 88  1  0  0  0  0
 37 89  1  0  0  0  0
 38 90  1  0  0  0  0
 38 91  1  0  0  0  0
 39 14  1  0  0  0  0
 39 40  1  6  0  0  0
 39 97  1  0  0  0  0
 40 15  1  0  0  0  0
 40 43  1  1  0  0  0
 40 98  1  0  0  0  0
 41 45  1  0  0  0  0
 41 46  2  0  0  0  0
 42 16  1  0  0  0  0
 42 39  1  6  0  0  0
 42 99  1  0  0  0  0
 43 48  1  0  0  0  0
 43100  1  1  0  0  0
 44 13  1  0  0  0  0
 44 42  1  1  0  0  0
 44101  1  0  0  0  0
 45 47  2  0  0  0  0
 45102  1  0  0  0  0
 46 53  1  0  0  0  0
 47 49  1  0  0  0  0
 47 50  1  0  0  0  0
 48103  1  0  0  0  0
 48104  1  0  0  0  0
 49 54  2  0  0  0  0
 50 55  2  0  0  0  0
 51 57  1  0  0  0  0
 52 58  1  0  0  0  0
 53 59  2  0  0  0  0
 53 60  1  0  0  0  0
 54 56  1  0  0  0  0
 54108  1  0  0  0  0
 55 56  1  0  0  0  0
 55109  1  0  0  0  0
 57 63  2  3  0  0  0
 57111  1  0  0  0  0
 58 64  2  3  0  0  0
 58112  1  0  0  0  0
 59 61  1  0  0  0  0
 59113  1  0  0  0  0
 60 62  2  0  0  0  0
 60114  1  0  0  0  0
 61 65  2  0  0  0  0
 61116  1  0  0  0  0
 62 65  1  0  0  0  0
 62117  1  0  0  0  0
 63 66  1  0  0  0  0
 63118  1  0  0  0  0
 64 67  1  0  0  0  0
 64119  1  0  0  0  0
 66 68  2  0  0  0  0
 66 69  1  0  0  0  0
 67 70  2  0  0  0  0
 67 71  1  0  0  0  0
 68 72  1  0  0  0  0
 68121  1  0  0  0  0
 69 73  2  0  0  0  0
 69122  1  0  0  0  0
 70 74  1  0  0  0  0
 70123  1  0  0  0  0
 71 75  2  0  0  0  0
 71124  1  0  0  0  0
 72 76  2  0  0  0  0
 73 76  1  0  0  0  0
 73125  1  0  0  0  0
 74 77  2  0  0  0  0
 75 77  1  0  0  0  0
 75126  1  0  0  0  0
M  CHG  1  19   1
M  END
>  <PUBCHEM_COMPOUND_CID>
102506214

>  <PUBCHEM_COMPOUND_CANONICALIZED>
1

>  <PUBCHEM_CACTVS_COMPLEXITY>
2260

>  <PUBCHEM_CACTVS_HBOND_ACCEPTOR>
25

>  <PUBCHEM_CACTVS_HBOND_DONOR>
15

>  <PUBCHEM_CACTVS_ROTATABLE_BOND>
18

>  <PUBCHEM_CACTVS_SUBSKEYS>
AAADcfB8PgAAAAAAAAAAAAAAAAAAAAAAAAA0aNECAAAAAACBUAAAGgAACAAADBSwmAMwDoAABgCIAqDSCAACCAAgIAAIiAAGiMgZNiKCMRqicAElwBEPuYfA4DwOIAABAAAAQABAAAIAAACAAAAAAAAAAA==

>  <PUBCHEM_IUPAC_OPENEYE_NAME>
[3-(3,4-dihydroxyphenyl)-1-[[(2R,3S,4S,5R,6S)-6-[(2S,3R,4S,5S,6R)-6-[3-(3,4-dihydroxyphenyl)prop-2-enoyloxymethyl]-4,5-dihydroxy-2-[2-(4-hydroxyphenyl)-7-oxo-5-[(2S,3R,4S,5S,6R)-3,4,5-trihydroxy-6-(hydroxymethyl)tetrahydropyran-2-yl]oxy-chromen-3-yl]oxy-tetrahydropyran-3-yl]oxy-3,4,5-trihydroxy-tetrahydropyran-2-yl]methoxy]prop-2-enylidene]oxonium

>  <PUBCHEM_IUPAC_CAS_NAME>
[3-(3,4-dihydroxyphenyl)-1-[[(2R,3S,4S,5R,6S)-6-[[(2S,3R,4S,5S,6R)-6-[[3-(3,4-dihydroxyphenyl)-1-oxoprop-2-enoxy]methyl]-4,5-dihydroxy-2-[[2-(4-hydroxyphenyl)-7-oxo-5-[[(2S,3R,4S,5S,6R)-3,4,5-trihydroxy-6-(hydroxymethyl)-2-oxanyl]oxy]-1-benzopyran-3-yl]oxy]-3-oxanyl]oxy]-3,4,5-trihydroxy-2-oxanyl]methoxy]prop-2-enylidene]oxonium

>  <PUBCHEM_IUPAC_NAME>
[3-(3,4-dihydroxyphenyl)-1-[[(2R,3S,4S,5R,6S)-6-[(2S,3R,4S,5S,6R)-6-[3-(3,4-dihydroxyphenyl)prop-2-enoyloxymethyl]-4,5-dihydroxy-2-[2-(4-hydroxyphenyl)-7-oxo-5-[(2S,3R,4S,5S,6R)-3,4,5-trihydroxy-6-(hydroxymethyl)oxan-2-yl]oxychromen-3-yl]oxyoxan-3-yl]oxy-3,4,5-trihydroxyoxan-2-yl]methoxy]prop-2-enylidene]oxidanium

>  <PUBCHEM_IUPAC_SYSTEMATIC_NAME>
[3-[3,4-bis(oxidanyl)phenyl]-1-[[(2R,3S,4S,5R,6S)-6-[(2S,3R,4S,5S,6R)-6-[3-[3,4-bis(oxidanyl)phenyl]prop-2-enoyloxymethyl]-2-[5-[(2S,3R,4S,5S,6R)-6-(hydroxymethyl)-3,4,5-tris(oxidanyl)oxan-2-yl]oxy-2-(4-hydroxyphenyl)-7-oxidanylidene-chromen-3-yl]oxy-4,5-bis(oxidanyl)oxan-3-yl]oxy-3,4,5-tris(oxidanyl)oxan-2-yl]methoxy]prop-2-enylidene]oxidanium

>  <PUBCHEM_IUPAC_TRADITIONAL_NAME>
[1-[[(2R,3S,4S,5R,6S)-6-[(2S,3R,4S,5S,6R)-6-(caffeoyloxymethyl)-4,5-dihydroxy-2-[2-(4-hydroxyphenyl)-7-keto-5-[(2S,3R,4S,5S,6R)-3,4,5-trihydroxy-6-methylol-tetrahydropyran-2-yl]oxy-chromen-3-yl]oxy-tetrahydropyran-3-yl]oxy-3,4,5-trihydroxy-tetrahydropyran-2-yl]methoxy]-3-(3,4-dihydroxyphenyl)prop-2-enylidene]oxonium

>  <PUBCHEM_IUPAC_INCHI>
InChI=1S/C51H52O26/c52-18-34-39(61)42(64)45(67)49(74-34)72-32-16-25(54)15-31-26(32)17-33(47(71-31)23-5-7-24(53)8-6-23)73-51-48(44(66)41(63)36(76-51)20-70-38(60)12-4-22-2-10-28(56)30(58)14-22)77-50-46(68)43(65)40(62)35(75-50)19-69-37(59)11-3-21-1-9-27(55)29(57)13-21/h1-17,34-36,39-46,48-53,55-58,61-68H,18-20H2/p+1/t34-,35-,36-,39-,40-,41-,42+,43+,44+,45-,46-,48-,49-,50+,51-/m1/s1

>  <PUBCHEM_IUPAC_INCHIKEY>
LNYAEDAEYZAMDO-RPCOPJSUSA-O

>  <PUBCHEM_XLOGP3_AA>
-1.4

>  <PUBCHEM_EXACT_MASS>
1081.283

>  <PUBCHEM_MOLECULAR_FORMULA>
C51H53O26+

>  <PUBCHEM_MOLECULAR_WEIGHT>
1081.959

>  <PUBCHEM_OPENEYE_CAN_SMILES>
C1=CC(=CC=C1C2=C(C=C3C(=CC(=O)C=C3OC4C(C(C(C(O4)CO)O)O)O)O2)OC5C(C(C(C(O5)COC(=O)C=CC6=CC(=C(C=C6)O)O)O)O)OC7C(C(C(C(O7)COC(=[OH+])C=CC8=CC(=C(C=C8)O)O)O)O)O)O

>  <PUBCHEM_OPENEYE_ISO_SMILES>
C1=CC(=CC=C1C2=C(C=C3C(=CC(=O)C=C3O[C@H]4[C@@H]([C@H]([C@@H]([C@H](O4)CO)O)O)O)O2)O[C@H]5[C@@H]([C@H]([C@@H]([C@H](O5)COC(=O)C=CC6=CC(=C(C=C6)O)O)O)O)O[C@H]7[C@@H]([C@H]([C@@H]([C@H](O7)COC(=[OH+])C=CC8=CC(=C(C=C8)O)O)O)O)O)O

>  <PUBCHEM_CACTVS_TPSA>
401

>  <PUBCHEM_MONOISOTOPIC_WEIGHT>
1081.283

>  <PUBCHEM_TOTAL_CHARGE>
1

>  <PUBCHEM_HEAVY_ATOM_COUNT>
77

>  <PUBCHEM_ATOM_DEF_STEREO_COUNT>
15

>  <PUBCHEM_ATOM_UDEF_STEREO_COUNT>
0

>  <PUBCHEM_BOND_DEF_STEREO_COUNT>
0

>  <PUBCHEM_BOND_UDEF_STEREO_COUNT>
2

>  <PUBCHEM_ISOTOPIC_ATOM_COUNT>
0

>  <PUBCHEM_COMPONENT_COUNT>
1

>  <PUBCHEM_CACTVS_TAUTO_COUNT>
998

>  <PUBCHEM_COORDINATE_TYPE>
1
5
255

>  <PUBCHEM_BONDANNOTATIONS>
27  1  6
30  1  5
44  13  6
39  14  6
40  15  5
42  16  5
17  46  8
17  50  8
33  37  5
36  38  5
32  4  5
41  45  8
41  46  8
43  48  6
45  47  8
47  49  8
49  54  8
28  5  5
50  55  8
53  59  8
53  60  8
54  56  8
55  56  8
57  63  1
58  64  1
59  61  8
29  6  6
60  62  8
61  65  8
62  65  8
66  68  8
66  69  8
67  70  8
67  71  8
68  72  8
69  73  8
31  7  6
70  74  8
71  75  8
72  76  8
73  76  8
74  77  8
75  77  8
34  8  5
35  9  6

$$$$
