102520885
 OpenBabel06101807152D

136143  0  0  1  0  0  0  0  0999 V2000
    7.7331   -1.2500    0.0000 O   0  0  0  0  0  0  0  0  0  0  0  0
    6.0010   -1.2500    0.0000 O   0  0  0  0  0  0  0  0  0  0  0  0
    8.5991    1.2500    0.0000 O   0  0  0  0  0  0  0  0  0  0  0  0
    9.4651   -0.2500    0.0000 O   0  0  0  0  0  0  0  0  0  0  0  0
    6.0010   -0.2500    0.0000 O   0  0  0  0  0  0  0  0  0  0  0  0
    7.7331   -3.2500    0.0000 O   0  0  0  0  0  0  0  0  0  0  0  0
    6.0010    1.7500    0.0000 O   0  0  0  0  0  0  0  0  0  0  0  0
    6.0010   -4.2500    0.0000 O   0  0  0  0  0  0  0  0  0  0  0  0
    4.2690   -3.2500    0.0000 O   0  0  0  0  0  0  0  0  0  0  0  0
    6.8671    3.2500    0.0000 O   0  0  0  0  0  0  0  0  0  0  0  0
    3.4030   -1.7500    0.0000 O   0  0  0  0  0  0  0  0  0  0  0  0
    9.4261    4.7714    0.0000 O   0  0  0  0  0  0  0  0  0  0  0  0
   10.3094    3.2815    0.0000 O   0  0  0  0  0  0  0  0  0  0  0  0
   12.0632    0.2500    0.0000 O   0  0  0  0  0  0  0  0  0  0  0  0
   12.0066    6.3013    0.0000 O   0  0  0  0  0  0  0  0  0  0  0  0
   10.2631    7.2812    0.0000 O   0  0  0  0  0  0  0  0  0  0  0  0
   12.0298    4.3014    0.0000 O   0  0  0  0  0  0  0  0  0  0  0  0
    6.8671   -4.7500    0.0000 O   0  0  0  0  0  0  0  0  0  0  0  0
    8.5312    7.2612    0.0000 O   0  0  0  0  0  0  0  0  0  0  0  0
    7.7331    4.7500    0.0000 O   0  3  0  0  0  0  0  0  0  0  0  0
   13.8492    3.2951    0.0000 O   0  0  0  0  0  0  0  0  0  0  0  0
   11.1972   -4.2500    0.0000 O   0  0  0  0  0  0  0  0  0  0  0  0
   10.3312   -8.7500    0.0000 O   0  0  0  0  0  0  0  0  0  0  0  0
   12.0632   -7.7500    0.0000 O   0  0  0  0  0  0  0  0  0  0  0  0
    4.2690    8.7500    0.0000 O   0  0  0  0  0  0  0  0  0  0  0  0
    2.5369    7.7500    0.0000 O   0  0  0  0  0  0  0  0  0  0  0  0
    7.7331   -0.2500    0.0000 C   0  0  2  0  0  0  0  0  0  0  0  0
    6.8671    0.2500    0.0000 C   0  0  2  0  0  0  0  0  0  0  0  0
    6.8671   -1.7500    0.0000 C   0  0  2  0  0  0  0  0  0  0  0  0
    6.8671    1.2500    0.0000 C   0  0  1  0  0  0  0  0  0  0  0  0
    6.8671   -2.7500    0.0000 C   0  0  1  0  0  0  0  0  0  0  0  0
    6.0010   -3.2500    0.0000 C   0  0  2  0  0  0  0  0  0  0  0  0
    8.5991    0.2500    0.0000 C   0  0  1  0  0  0  0  0  0  0  0  0
    7.7331    1.7500    0.0000 C   0  0  1  0  0  0  0  0  0  0  0  0
    5.1350   -2.7500    0.0000 C   0  0  1  0  0  0  0  0  0  0  0  0
    5.1350   -1.7500    0.0000 C   0  0  1  0  0  0  0  0  0  0  0  0
    7.7331    2.7500    0.0000 C   0  0  0  0  0  0  0  0  0  0  0  0
    4.2690   -1.2500    0.0000 C   0  0  0  0  0  0  0  0  0  0  0  0
   10.3312    0.2500    0.0000 C   0  0  0  0  0  0  0  0  0  0  0  0
   11.1464    5.7913    0.0000 C   0  0  1  0  0  0  0  0  0  0  0  0
   10.2747    6.2813    0.0000 C   0  0  1  0  0  0  0  0  0  0  0  0
   11.1580    4.7914    0.0000 C   0  0  2  0  0  0  0  0  0  0  0  0
    9.4145    5.7713    0.0000 C   0  0  1  0  0  0  0  0  0  0  0  0
   10.2978    4.2814    0.0000 C   0  0  1  0  0  0  0  0  0  0  0  0
    7.7331   -4.2500    0.0000 C   0  0  0  0  0  0  0  0  0  0  0  0
   10.3312    1.2500    0.0000 C   0  0  0  0  0  0  0  0  0  0  0  0
   11.1972   -0.2500    0.0000 C   0  0  0  0  0  0  0  0  0  0  0  0
   11.1972    1.7500    0.0000 C   0  0  0  0  0  0  0  0  0  0  0  0
    8.5428    6.2612    0.0000 C   0  0  0  0  0  0  0  0  0  0  0  0
   11.1811    2.7915    0.0000 C   0  0  0  0  0  0  0  0  0  0  0  0
   12.0632    1.2500    0.0000 C   0  0  0  0  0  0  0  0  0  0  0  0
    6.8671    4.2500    0.0000 C   0  0  0  0  0  0  0  0  0  0  0  0
    8.5991   -4.7500    0.0000 C   0  0  0  0  0  0  0  0  0  0  0  0
   11.1972   -1.2500    0.0000 C   0  0  0  0  0  0  0  0  0  0  0  0
   12.0792    3.3193    0.0000 C   0  0  0  0  0  0  0  0  0  0  0  0
   12.9732    1.7568    0.0000 C   0  0  0  0  0  0  0  0  0  0  0  0
   12.9812    2.7984    0.0000 C   0  0  0  0  0  0  0  0  0  0  0  0
    6.0010    4.7500    0.0000 C   0  0  0  0  0  0  0  0  0  0  0  0
    8.5991   -5.7500    0.0000 C   0  0  0  0  0  0  0  0  0  0  0  0
   12.0632   -1.7500    0.0000 C   0  0  0  0  0  0  0  0  0  0  0  0
   10.3312   -1.7500    0.0000 C   0  0  0  0  0  0  0  0  0  0  0  0
   12.0632   -2.7500    0.0000 C   0  0  0  0  0  0  0  0  0  0  0  0
   10.3312   -2.7500    0.0000 C   0  0  0  0  0  0  0  0  0  0  0  0
    9.4651   -6.2500    0.0000 C   0  0  0  0  0  0  0  0  0  0  0  0
    6.0010    5.7500    0.0000 C   0  0  0  0  0  0  0  0  0  0  0  0
   11.1972   -3.2500    0.0000 C   0  0  0  0  0  0  0  0  0  0  0  0
    5.1350    6.2500    0.0000 C   0  0  0  0  0  0  0  0  0  0  0  0
    9.4651   -7.2500    0.0000 C   0  0  0  0  0  0  0  0  0  0  0  0
   10.3312   -5.7500    0.0000 C   0  0  0  0  0  0  0  0  0  0  0  0
   10.3312   -7.7500    0.0000 C   0  0  0  0  0  0  0  0  0  0  0  0
   11.1972   -6.2500    0.0000 C   0  0  0  0  0  0  0  0  0  0  0  0
    5.1350    7.2500    0.0000 C   0  0  0  0  0  0  0  0  0  0  0  0
    4.2690    5.7500    0.0000 C   0  0  0  0  0  0  0  0  0  0  0  0
   11.1972   -7.2500    0.0000 C   0  0  0  0  0  0  0  0  0  0  0  0
    4.2690    7.7500    0.0000 C   0  0  0  0  0  0  0  0  0  0  0  0
    3.4030    6.2500    0.0000 C   0  0  0  0  0  0  0  0  0  0  0  0
    3.4030    7.2500    0.0000 C   0  0  0  0  0  0  0  0  0  0  0  0
    9.4651   -9.2500    0.0000 C   0  0  0  0  0  0  0  0  0  0  0  0
    5.1350    9.2500    0.0000 C   0  0  0  0  0  0  0  0  0  0  0  0
    8.2700   -0.5600    0.0000 H   0  0  0  0  0  0  0  0  0  0  0  0
    6.8671   -0.3700    0.0000 H   0  0  0  0  0  0  0  0  0  0  0  0
    6.8671   -1.1300    0.0000 H   0  0  0  0  0  0  0  0  0  0  0  0
    6.3301    0.9400    0.0000 H   0  0  0  0  0  0  0  0  0  0  0  0
    6.8671   -3.3700    0.0000 H   0  0  0  0  0  0  0  0  0  0  0  0
    5.4641   -3.5600    0.0000 H   0  0  0  0  0  0  0  0  0  0  0  0
    9.1360    0.5600    0.0000 H   0  0  0  0  0  0  0  0  0  0  0  0
    8.2700    2.0600    0.0000 H   0  0  0  0  0  0  0  0  0  0  0  0
    4.5981   -2.4400    0.0000 H   0  0  0  0  0  0  0  0  0  0  0  0
    5.1350   -1.1300    0.0000 H   0  0  0  0  0  0  0  0  0  0  0  0
    8.3437    2.6423    0.0000 H   0  0  0  0  0  0  0  0  0  0  0  0
    7.9451    3.3326    0.0000 H   0  0  0  0  0  0  0  0  0  0  0  0
    4.6675   -0.7751    0.0000 H   0  0  0  0  0  0  0  0  0  0  0  0
    3.8705   -0.7751    0.0000 H   0  0  0  0  0  0  0  0  0  0  0  0
    5.4641    0.0600    0.0000 H   0  0  0  0  0  0  0  0  0  0  0  0
    6.0010    2.3700    0.0000 H   0  0  0  0  0  0  0  0  0  0  0  0
    5.4641   -4.5600    0.0000 H   0  0  0  0  0  0  0  0  0  0  0  0
    4.2690   -3.8700    0.0000 H   0  0  0  0  0  0  0  0  0  0  0  0
   11.6869    5.4875    0.0000 H   0  0  0  0  0  0  0  0  0  0  0  0
   10.8080    6.5974    0.0000 H   0  0  0  0  0  0  0  0  0  0  0  0
   11.1652    4.1714    0.0000 H   0  0  0  0  0  0  0  0  0  0  0  0
    8.8812    5.4551    0.0000 H   0  0  0  0  0  0  0  0  0  0  0  0
    9.7645    3.9652    0.0000 H   0  0  0  0  0  0  0  0  0  0  0  0
    2.8660   -1.4400    0.0000 H   0  0  0  0  0  0  0  0  0  0  0  0
    9.7942    1.5600    0.0000 H   0  0  0  0  0  0  0  0  0  0  0  0
    7.9310    6.3618    0.0000 H   0  0  0  0  0  0  0  0  0  0  0  0
    8.3374    5.6762    0.0000 H   0  0  0  0  0  0  0  0  0  0  0  0
    9.1360   -4.4400    0.0000 H   0  0  0  0  0  0  0  0  0  0  0  0
   11.9995    6.9212    0.0000 H   0  0  0  0  0  0  0  0  0  0  0  0
   10.7964    7.5974    0.0000 H   0  0  0  0  0  0  0  0  0  0  0  0
   12.5631    4.6176    0.0000 H   0  0  0  0  0  0  0  0  0  0  0  0
   12.0768    3.9393    0.0000 H   0  0  0  0  0  0  0  0  0  0  0  0
   13.5065    1.4407    0.0000 H   0  0  0  0  0  0  0  0  0  0  0  0
    5.4641    4.4400    0.0000 H   0  0  0  0  0  0  0  0  0  0  0  0
    7.9907    7.5649    0.0000 H   0  0  0  0  0  0  0  0  0  0  0  0
    8.0622   -6.0600    0.0000 H   0  0  0  0  0  0  0  0  0  0  0  0
   12.6002   -1.4400    0.0000 H   0  0  0  0  0  0  0  0  0  0  0  0
    9.7942   -1.4400    0.0000 H   0  0  0  0  0  0  0  0  0  0  0  0
    7.7331    5.3700    0.0000 H   0  0  0  0  0  0  0  0  0  0  0  0
   12.6002   -3.0600    0.0000 H   0  0  0  0  0  0  0  0  0  0  0  0
    9.7942   -3.0600    0.0000 H   0  0  0  0  0  0  0  0  0  0  0  0
    6.5380    6.0600    0.0000 H   0  0  0  0  0  0  0  0  0  0  0  0
    8.9282   -7.5600    0.0000 H   0  0  0  0  0  0  0  0  0  0  0  0
   10.3312   -5.1300    0.0000 H   0  0  0  0  0  0  0  0  0  0  0  0
   11.7341   -5.9400    0.0000 H   0  0  0  0  0  0  0  0  0  0  0  0
   10.6603   -4.5600    0.0000 H   0  0  0  0  0  0  0  0  0  0  0  0
    5.6720    7.5600    0.0000 H   0  0  0  0  0  0  0  0  0  0  0  0
    4.2690    5.1300    0.0000 H   0  0  0  0  0  0  0  0  0  0  0  0
    2.8660    5.9400    0.0000 H   0  0  0  0  0  0  0  0  0  0  0  0
   12.6002   -7.4400    0.0000 H   0  0  0  0  0  0  0  0  0  0  0  0
    9.1551   -8.7131    0.0000 H   0  0  0  0  0  0  0  0  0  0  0  0
    8.9282   -9.5600    0.0000 H   0  0  0  0  0  0  0  0  0  0  0  0
    9.7751   -9.7869    0.0000 H   0  0  0  0  0  0  0  0  0  0  0  0
    2.0000    7.4400    0.0000 H   0  0  0  0  0  0  0  0  0  0  0  0
    5.4450    8.7131    0.0000 H   0  0  0  0  0  0  0  0  0  0  0  0
    5.6720    9.5600    0.0000 H   0  0  0  0  0  0  0  0  0  0  0  0
    4.8250    9.7869    0.0000 H   0  0  0  0  0  0  0  0  0  0  0  0
  2 29  1  0  0  0  0
  2 36  1  0  0  0  0
  3 33  1  0  0  0  0
  3 34  1  0  0  0  0
  4 39  1  0  0  0  0
  5 94  1  0  0  0  0
  6 45  1  0  0  0  0
  7 95  1  0  0  0  0
  8 96  1  0  0  0  0
  9 97  1  0  0  0  0
 10 37  1  0  0  0  0
 10 52  1  0  0  0  0
 11 38  1  0  0  0  0
 11103  1  0  0  0  0
 12 43  1  0  0  0  0
 12 44  1  0  0  0  0
 13 50  1  0  0  0  0
 14 47  1  0  0  0  0
 14 51  1  0  0  0  0
 15108  1  0  0  0  0
 16109  1  0  0  0  0
 17110  1  0  0  0  0
 18 45  2  0  0  0  0
 19 49  1  0  0  0  0
 19114  1  0  0  0  0
 20 52  2  0  0  0  0
 20118  1  0  0  0  0
 21 57  2  0  0  0  0
 22 66  1  0  0  0  0
 22125  1  0  0  0  0
 23 70  1  0  0  0  0
 23 78  1  0  0  0  0
 24 74  1  0  0  0  0
 24129  1  0  0  0  0
 25 75  1  0  0  0  0
 25 79  1  0  0  0  0
 26 77  1  0  0  0  0
 26133  1  0  0  0  0
 27  1  1  0  0  0  0
 27 28  1  1  0  0  0
 27 80  1  0  0  0  0
 28  5  1  0  0  0  0
 28 30  1  6  0  0  0
 28 81  1  0  0  0  0
 29  1  1  0  0  0  0
 29 31  1  6  0  0  0
 29 82  1  0  0  0  0
 30  7  1  0  0  0  0
 30 34  1  1  0  0  0
 30 83  1  0  0  0  0
 31  6  1  0  0  0  0
 31 32  1  6  0  0  0
 31 84  1  0  0  0  0
 32  8  1  0  0  0  0
 32 35  1  1  0  0  0
 32 85  1  0  0  0  0
 33  4  1  0  0  0  0
 33 27  1  6  0  0  0
 33 86  1  0  0  0  0
 34 37  1  0  0  0  0
 34 87  1  6  0  0  0
 35  9  1  0  0  0  0
 35 36  1  6  0  0  0
 35 88  1  0  0  0  0
 36 38  1  0  0  0  0
 36 89  1  6  0  0  0
 37 90  1  0  0  0  0
 37 91  1  0  0  0  0
 38 92  1  0  0  0  0
 38 93  1  0  0  0  0
 39 46  1  0  0  0  0
 39 47  2  0  0  0  0
 40 15  1  0  0  0  0
 40 41  1  1  0  0  0
 40 98  1  0  0  0  0
 41 16  1  0  0  0  0
 41 43  1  6  0  0  0
 41 99  1  0  0  0  0
 42 17  1  0  0  0  0
 42 40  1  6  0  0  0
 42100  1  0  0  0  0
 43 49  1  0  0  0  0
 43101  1  1  0  0  0
 44 13  1  0  0  0  0
 44 42  1  1  0  0  0
 44102  1  0  0  0  0
 45 53  1  0  0  0  0
 46 48  2  0  0  0  0
 46104  1  0  0  0  0
 47 54  1  0  0  0  0
 48 50  1  0  0  0  0
 48 51  1  0  0  0  0
 49105  1  0  0  0  0
 49106  1  0  0  0  0
 50 55  2  0  0  0  0
 51 56  2  0  0  0  0
 52 58  1  0  0  0  0
 53 59  2  3  0  0  0
 53107  1  0  0  0  0
 54 60  2  0  0  0  0
 54 61  1  0  0  0  0
 55 57  1  0  0  0  0
 55111  1  0  0  0  0
 56 57  1  0  0  0  0
 56112  1  0  0  0  0
 58 65  2  3  0  0  0
 58113  1  0  0  0  0
 59 64  1  0  0  0  0
 59115  1  0  0  0  0
 60 62  1  0  0  0  0
 60116  1  0  0  0  0
 61 63  2  0  0  0  0
 61117  1  0  0  0  0
 62 66  2  0  0  0  0
 62119  1  0  0  0  0
 63 66  1  0  0  0  0
 63120  1  0  0  0  0
 64 68  2  0  0  0  0
 64 69  1  0  0  0  0
 65 67  1  0  0  0  0
 65121  1  0  0  0  0
 67 72  2  0  0  0  0
 67 73  1  0  0  0  0
 68 70  1  0  0  0  0
 68122  1  0  0  0  0
 69 71  2  0  0  0  0
 69123  1  0  0  0  0
 70 74  2  0  0  0  0
 71 74  1  0  0  0  0
 71124  1  0  0  0  0
 72 75  1  0  0  0  0
 72126  1  0  0  0  0
 73 76  2  0  0  0  0
 73127  1  0  0  0  0
 75 77  2  0  0  0  0
 76 77  1  0  0  0  0
 76128  1  0  0  0  0
 78130  1  0  0  0  0
 78131  1  0  0  0  0
 78132  1  0  0  0  0
 79134  1  0  0  0  0
 79135  1  0  0  0  0
 79136  1  0  0  0  0
M  CHG  1  20   1
M  END
>  <PUBCHEM_COMPOUND_CID>
102520885

>  <PUBCHEM_COMPOUND_CANONICALIZED>
1

>  <PUBCHEM_CACTVS_COMPLEXITY>
2290

>  <PUBCHEM_CACTVS_HBOND_ACCEPTOR>
25

>  <PUBCHEM_CACTVS_HBOND_DONOR>
13

>  <PUBCHEM_CACTVS_ROTATABLE_BOND>
20

>  <PUBCHEM_CACTVS_SUBSKEYS>
AAADcfB8PgAAAAAAAAAAAAAAAAAAAAAAAAA0aNECAAAAAACBUAAAGgAACAAADBSwmAMyDoAABgCIAqDSCAACCAAgIAAIiAAGiMgdNiKGMRqicCMlwBEPuYfA4DwOIAABAAAAQABAAAIAAACAAAAAAAAAAA==

>  <PUBCHEM_IUPAC_OPENEYE_NAME>
[1-[[(2R,3S,4S,5R,6S)-5-[(2S,3R,4S,5S,6R)-4,5-dihydroxy-3-[3-(4-hydroxy-3-methoxy-phenyl)prop-2-enoyloxy]-6-(hydroxymethyl)tetrahydropyran-2-yl]oxy-3,4-dihydroxy-6-[2-(4-hydroxyphenyl)-7-oxo-5-[(2S,3R,4S,5S,6R)-3,4,5-trihydroxy-6-(hydroxymethyl)tetrahydropyran-2-yl]oxy-chromen-3-yl]oxy-tetrahydropyran-2-yl]methoxy]-3-(4-hydroxy-3-methoxy-phenyl)prop-2-enylidene]oxonium

>  <PUBCHEM_IUPAC_CAS_NAME>
[1-[[(2R,3S,4S,5R,6S)-5-[[(2S,3R,4S,5S,6R)-4,5-dihydroxy-3-[3-(4-hydroxy-3-methoxyphenyl)-1-oxoprop-2-enoxy]-6-(hydroxymethyl)-2-oxanyl]oxy]-3,4-dihydroxy-6-[[2-(4-hydroxyphenyl)-7-oxo-5-[[(2S,3R,4S,5S,6R)-3,4,5-trihydroxy-6-(hydroxymethyl)-2-oxanyl]oxy]-1-benzopyran-3-yl]oxy]-2-oxanyl]methoxy]-3-(4-hydroxy-3-methoxyphenyl)prop-2-enylidene]oxonium

>  <PUBCHEM_IUPAC_NAME>
[1-[[(2R,3S,4S,5R,6S)-5-[(2S,3R,4S,5S,6R)-4,5-dihydroxy-3-[3-(4-hydroxy-3-methoxyphenyl)prop-2-enoyloxy]-6-(hydroxymethyl)oxan-2-yl]oxy-3,4-dihydroxy-6-[2-(4-hydroxyphenyl)-7-oxo-5-[(2S,3R,4S,5S,6R)-3,4,5-trihydroxy-6-(hydroxymethyl)oxan-2-yl]oxychromen-3-yl]oxyoxan-2-yl]methoxy]-3-(4-hydroxy-3-methoxyphenyl)prop-2-enylidene]oxidanium

>  <PUBCHEM_IUPAC_SYSTEMATIC_NAME>
[1-[[(2R,3S,4S,5R,6S)-5-[(2S,3R,4S,5S,6R)-6-(hydroxymethyl)-3-[3-(3-methoxy-4-oxidanyl-phenyl)prop-2-enoyloxy]-4,5-bis(oxidanyl)oxan-2-yl]oxy-6-[5-[(2S,3R,4S,5S,6R)-6-(hydroxymethyl)-3,4,5-tris(oxidanyl)oxan-2-yl]oxy-2-(4-hydroxyphenyl)-7-oxidanylidene-chromen-3-yl]oxy-3,4-bis(oxidanyl)oxan-2-yl]methoxy]-3-(3-methoxy-4-oxidanyl-phenyl)prop-2-enylidene]oxidanium

>  <PUBCHEM_IUPAC_TRADITIONAL_NAME>
[1-[[(2R,3S,4S,5R,6S)-5-[(2S,3R,4S,5S,6R)-3-feruloyloxy-4,5-dihydroxy-6-methylol-tetrahydropyran-2-yl]oxy-3,4-dihydroxy-6-[2-(4-hydroxyphenyl)-7-keto-5-[(2S,3R,4S,5S,6R)-3,4,5-trihydroxy-6-methylol-tetrahydropyran-2-yl]oxy-chromen-3-yl]oxy-tetrahydropyran-2-yl]methoxy]-3-(4-hydroxy-3-methoxy-phenyl)prop-2-enylidene]oxonium

>  <PUBCHEM_IUPAC_INCHI>
InChI=1S/C53H56O26/c1-69-33-15-23(3-11-29(33)58)5-13-39(60)71-22-38-43(64)46(67)50(79-53-49(45(66)42(63)37(21-55)76-53)78-40(61)14-6-24-4-12-30(59)34(16-24)70-2)52(77-38)74-35-19-28-31(72-48(35)25-7-9-26(56)10-8-25)17-27(57)18-32(28)73-51-47(68)44(65)41(62)36(20-54)75-51/h3-19,36-38,41-47,49-56,58-59,62-68H,20-22H2,1-2H3/p+1/t36-,37-,38-,41-,42-,43-,44+,45+,46+,47-,49-,50-,51-,52-,53+/m1/s1

>  <PUBCHEM_IUPAC_INCHIKEY>
RKKREFQPLKXWHD-RJPLGMEXSA-O

>  <PUBCHEM_XLOGP3_AA>
-0.2

>  <PUBCHEM_EXACT_MASS>
1109.314

>  <PUBCHEM_MOLECULAR_FORMULA>
C53H57O26+

>  <PUBCHEM_MOLECULAR_WEIGHT>
1110.013

>  <PUBCHEM_OPENEYE_CAN_SMILES>
COC1=C(C=CC(=C1)C=CC(=[OH+])OCC2C(C(C(C(O2)OC3=C(OC4=CC(=O)C=C(C4=C3)OC5C(C(C(C(O5)CO)O)O)O)C6=CC=C(C=C6)O)OC7C(C(C(C(O7)CO)O)O)OC(=O)C=CC8=CC(=C(C=C8)O)OC)O)O)O

>  <PUBCHEM_OPENEYE_ISO_SMILES>
COC1=C(C=CC(=C1)C=CC(=[OH+])OC[C@@H]2[C@H]([C@@H]([C@H]([C@@H](O2)OC3=C(OC4=CC(=O)C=C(C4=C3)O[C@H]5[C@@H]([C@H]([C@@H]([C@H](O5)CO)O)O)O)C6=CC=C(C=C6)O)O[C@H]7[C@@H]([C@H]([C@@H]([C@H](O7)CO)O)O)OC(=O)C=CC8=CC(=C(C=C8)O)OC)O)O)O

>  <PUBCHEM_CACTVS_TPSA>
379

>  <PUBCHEM_MONOISOTOPIC_WEIGHT>
1109.314

>  <PUBCHEM_TOTAL_CHARGE>
1

>  <PUBCHEM_HEAVY_ATOM_COUNT>
79

>  <PUBCHEM_ATOM_DEF_STEREO_COUNT>
15

>  <PUBCHEM_ATOM_UDEF_STEREO_COUNT>
0

>  <PUBCHEM_BOND_DEF_STEREO_COUNT>
0

>  <PUBCHEM_BOND_UDEF_STEREO_COUNT>
2

>  <PUBCHEM_ISOTOPIC_ATOM_COUNT>
0

>  <PUBCHEM_COMPONENT_COUNT>
1

>  <PUBCHEM_CACTVS_TAUTO_COUNT>
112

>  <PUBCHEM_COORDINATE_TYPE>
1
5
255

>  <PUBCHEM_BONDANNOTATIONS>
27  1  6
29  1  5
44  13  6
14  47  8
14  51  8
40  15  6
41  16  5
42  17  5
34  37  5
36  38  5
39  46  8
39  47  8
33  4  5
43  49  6
46  48  8
48  50  8
28  5  5
50  55  8
51  56  8
53  59  1
54  60  8
54  61  8
55  57  8
56  57  8
58  65  1
31  6  6
60  62  8
61  63  8
62  66  8
63  66  8
64  68  8
64  69  8
67  72  8
67  73  8
68  70  8
69  71  8
30  7  6
70  74  8
71  74  8
72  75  8
73  76  8
75  77  8
76  77  8
32  8  5
35  9  6

$$$$
