102587839
 OpenBabel06101807152D

114120  0  0  1  0  0  0  0  0999 V2000
   12.9292   -0.8100    0.0000 O   0  0  0  0  0  0  0  0  0  0  0  0
   13.7953    1.6900    0.0000 O   0  0  0  0  0  0  0  0  0  0  0  0
   11.1972   -0.8100    0.0000 O   0  0  0  0  0  0  0  0  0  0  0  0
   11.1972    0.1900    0.0000 O   0  0  0  0  0  0  0  0  0  0  0  0
   11.1972    2.1900    0.0000 O   0  0  0  0  0  0  0  0  0  0  0  0
   12.9292   -2.8100    0.0000 O   0  0  0  0  0  0  0  0  0  0  0  0
   11.1972   -3.8100    0.0000 O   0  0  0  0  0  0  0  0  0  0  0  0
    9.4651   -2.8100    0.0000 O   0  0  0  0  0  0  0  0  0  0  0  0
   12.0632    3.6900    0.0000 O   0  0  0  0  0  0  0  0  0  0  0  0
    8.5991   -1.3100    0.0000 O   0  0  0  0  0  0  0  0  0  0  0  0
   15.5273    1.6900    0.0000 O   0  0  0  0  0  0  0  0  0  0  0  0
   13.7953   -1.3100    0.0000 O   0  0  0  0  0  0  0  0  0  0  0  0
   22.5215   -1.3475    0.0000 O   0  0  0  0  0  0  0  0  0  0  0  0
   17.2873   -1.3447    0.0000 O   0  0  0  0  0  0  0  0  0  0  0  0
   21.6497   -2.8442    0.0000 O   0  0  0  0  0  0  0  0  0  0  0  0
   25.1138   -2.8575    0.0000 O   0  0  0  0  0  0  0  0  0  0  0  0
   25.1215   -0.8575    0.0000 O   0  0  0  0  0  0  0  0  0  0  0  0
   23.3779   -3.8508    0.0000 O   0  0  0  0  0  0  0  0  0  0  0  0
   17.2757    1.7246    0.0000 O   0  0  0  0  0  0  0  0  0  0  0  0
   24.2613    0.6458    0.0000 O   0  0  0  0  0  0  0  0  0  0  0  0
    7.7331    0.1900    0.0000 O   0  0  0  0  0  0  0  0  0  0  0  0
    4.2690   -3.8100    0.0000 O   0  0  0  0  0  0  0  0  0  0  0  0
    2.5369   -2.8100    0.0000 O   0  0  0  0  0  0  0  0  0  0  0  0
   12.9292    0.1900    0.0000 C   0  0  2  0  0  0  0  0  0  0  0  0
   12.0632    0.6900    0.0000 C   0  0  2  0  0  0  0  0  0  0  0  0
   13.7953    0.6900    0.0000 C   0  0  2  0  0  0  0  0  0  0  0  0
   12.0632    1.6900    0.0000 C   0  0  1  0  0  0  0  0  0  0  0  0
   12.9292    2.1900    0.0000 C   0  0  1  0  0  0  0  0  0  0  0  0
   12.0632   -1.3100    0.0000 C   0  0  2  0  0  0  0  0  0  0  0  0
   12.0632   -2.3100    0.0000 C   0  0  1  0  0  0  0  0  0  0  0  0
   11.1972   -2.8100    0.0000 C   0  0  2  0  0  0  0  0  0  0  0  0
   10.3312   -2.3100    0.0000 C   0  0  1  0  0  0  0  0  0  0  0  0
   10.3312   -1.3100    0.0000 C   0  0  1  0  0  0  0  0  0  0  0  0
   14.6613    0.1900    0.0000 C   0  0  0  0  0  0  0  0  0  0  0  0
   12.9292    3.1900    0.0000 C   0  0  0  0  0  0  0  0  0  0  0  0
    9.4651   -0.8100    0.0000 C   0  0  0  0  0  0  0  0  0  0  0  0
   15.5273    0.6900    0.0000 C   0  0  0  0  0  0  0  0  0  0  0  0
   14.6613   -0.8100    0.0000 C   0  0  0  0  0  0  0  0  0  0  0  0
   16.3933    0.1900    0.0000 C   0  0  0  0  0  0  0  0  0  0  0  0
   15.5273   -1.3100    0.0000 C   0  0  0  0  0  0  0  0  0  0  0  0
   16.3933   -0.8100    0.0000 C   0  0  0  0  0  0  0  0  0  0  0  0
   24.2497   -2.3542    0.0000 C   0  0  1  0  0  0  0  0  0  0  0  0
   24.2536   -1.3542    0.0000 C   0  0  1  0  0  0  0  0  0  0  0  0
   23.3818   -2.8508    0.0000 C   0  0  2  0  0  0  0  0  0  0  0  0
   23.3895   -0.8508    0.0000 C   0  0  1  0  0  0  0  0  0  0  0  0
   22.5177   -2.3475    0.0000 C   0  0  1  0  0  0  0  0  0  0  0  0
   17.2873    0.7247    0.0000 C   0  0  0  0  0  0  0  0  0  0  0  0
   23.3933    0.1491    0.0000 C   0  0  0  0  0  0  0  0  0  0  0  0
   18.1934   -0.8308    0.0000 C   0  0  0  0  0  0  0  0  0  0  0  0
   18.1934    0.2108    0.0000 C   0  0  0  0  0  0  0  0  0  0  0  0
    7.7331   -0.8100    0.0000 C   0  0  0  0  0  0  0  0  0  0  0  0
   19.0574   -1.3342    0.0000 C   0  0  0  0  0  0  0  0  0  0  0  0
   20.7856   -2.3408    0.0000 C   0  0  0  0  0  0  0  0  0  0  0  0
   19.9254   -0.8375    0.0000 C   0  0  0  0  0  0  0  0  0  0  0  0
   19.0536   -2.3341    0.0000 C   0  0  0  0  0  0  0  0  0  0  0  0
   20.7895   -1.3408    0.0000 C   0  0  0  0  0  0  0  0  0  0  0  0
   19.9177   -2.8375    0.0000 C   0  0  0  0  0  0  0  0  0  0  0  0
    6.8671   -1.3100    0.0000 C   0  0  0  0  0  0  0  0  0  0  0  0
    6.0010   -0.8100    0.0000 C   0  0  0  0  0  0  0  0  0  0  0  0
    5.1350   -1.3100    0.0000 C   0  0  0  0  0  0  0  0  0  0  0  0
    5.1350   -2.3100    0.0000 C   0  0  0  0  0  0  0  0  0  0  0  0
    4.2690   -0.8100    0.0000 C   0  0  0  0  0  0  0  0  0  0  0  0
    4.2690   -2.8100    0.0000 C   0  0  0  0  0  0  0  0  0  0  0  0
    3.4030   -1.3100    0.0000 C   0  0  0  0  0  0  0  0  0  0  0  0
    3.4030   -2.3100    0.0000 C   0  0  0  0  0  0  0  0  0  0  0  0
    3.4030   -4.3100    0.0000 C   0  0  0  0  0  0  0  0  0  0  0  0
   12.3923   -0.1200    0.0000 H   0  0  0  0  0  0  0  0  0  0  0  0
   11.5263    1.0000    0.0000 H   0  0  0  0  0  0  0  0  0  0  0  0
   14.5314    1.1150    0.0000 H   0  0  0  0  0  0  0  0  0  0  0  0
   12.0632    2.3100    0.0000 H   0  0  0  0  0  0  0  0  0  0  0  0
   13.4662    2.5000    0.0000 H   0  0  0  0  0  0  0  0  0  0  0  0
   12.0632   -0.6900    0.0000 H   0  0  0  0  0  0  0  0  0  0  0  0
   12.0632   -2.9300    0.0000 H   0  0  0  0  0  0  0  0  0  0  0  0
   10.6603   -3.1200    0.0000 H   0  0  0  0  0  0  0  0  0  0  0  0
    9.7942   -2.0000    0.0000 H   0  0  0  0  0  0  0  0  0  0  0  0
   10.3312   -0.6900    0.0000 H   0  0  0  0  0  0  0  0  0  0  0  0
   13.5398    3.0823    0.0000 H   0  0  0  0  0  0  0  0  0  0  0  0
   13.1413    3.7726    0.0000 H   0  0  0  0  0  0  0  0  0  0  0  0
    9.8637   -0.3351    0.0000 H   0  0  0  0  0  0  0  0  0  0  0  0
    9.0666   -0.3351    0.0000 H   0  0  0  0  0  0  0  0  0  0  0  0
   10.6603    0.5000    0.0000 H   0  0  0  0  0  0  0  0  0  0  0  0
   10.6603    1.8800    0.0000 H   0  0  0  0  0  0  0  0  0  0  0  0
   13.4662   -2.5000    0.0000 H   0  0  0  0  0  0  0  0  0  0  0  0
   11.7341   -4.1200    0.0000 H   0  0  0  0  0  0  0  0  0  0  0  0
    9.4651   -3.4300    0.0000 H   0  0  0  0  0  0  0  0  0  0  0  0
   15.5273   -1.9300    0.0000 H   0  0  0  0  0  0  0  0  0  0  0  0
   12.0632    4.3100    0.0000 H   0  0  0  0  0  0  0  0  0  0  0  0
   24.2473   -2.9742    0.0000 H   0  0  0  0  0  0  0  0  0  0  0  0
   24.2559   -0.7342    0.0000 H   0  0  0  0  0  0  0  0  0  0  0  0
   22.8436   -3.1588    0.0000 H   0  0  0  0  0  0  0  0  0  0  0  0
   22.8537   -0.5388    0.0000 H   0  0  0  0  0  0  0  0  0  0  0  0
   21.9819   -2.0354    0.0000 H   0  0  0  0  0  0  0  0  0  0  0  0
   16.0643    2.0000    0.0000 H   0  0  0  0  0  0  0  0  0  0  0  0
   13.7953   -1.9300    0.0000 H   0  0  0  0  0  0  0  0  0  0  0  0
   23.1835    0.7326    0.0000 H   0  0  0  0  0  0  0  0  0  0  0  0
   22.7823    0.0438    0.0000 H   0  0  0  0  0  0  0  0  0  0  0  0
   18.7291    0.5229    0.0000 H   0  0  0  0  0  0  0  0  0  0  0  0
   25.6519   -2.5496    0.0000 H   0  0  0  0  0  0  0  0  0  0  0  0
   25.6572   -1.1696    0.0000 H   0  0  0  0  0  0  0  0  0  0  0  0
   23.9136   -4.1629    0.0000 H   0  0  0  0  0  0  0  0  0  0  0  0
   19.9278   -0.2175    0.0000 H   0  0  0  0  0  0  0  0  0  0  0  0
   18.5155   -2.6421    0.0000 H   0  0  0  0  0  0  0  0  0  0  0  0
   21.3276   -1.0329    0.0000 H   0  0  0  0  0  0  0  0  0  0  0  0
   19.9153   -3.4575    0.0000 H   0  0  0  0  0  0  0  0  0  0  0  0
   24.2637    1.2658    0.0000 H   0  0  0  0  0  0  0  0  0  0  0  0
    6.8671   -1.9300    0.0000 H   0  0  0  0  0  0  0  0  0  0  0  0
    6.0010   -0.1900    0.0000 H   0  0  0  0  0  0  0  0  0  0  0  0
    5.6720   -2.6200    0.0000 H   0  0  0  0  0  0  0  0  0  0  0  0
    4.2690   -0.1900    0.0000 H   0  0  0  0  0  0  0  0  0  0  0  0
    2.8660   -1.0000    0.0000 H   0  0  0  0  0  0  0  0  0  0  0  0
    2.0000   -2.5000    0.0000 H   0  0  0  0  0  0  0  0  0  0  0  0
    3.0930   -3.7731    0.0000 H   0  0  0  0  0  0  0  0  0  0  0  0
    2.8660   -4.6200    0.0000 H   0  0  0  0  0  0  0  0  0  0  0  0
    3.7130   -4.8469    0.0000 H   0  0  0  0  0  0  0  0  0  0  0  0
  2 26  1  0  0  0  0
  2 28  1  0  0  0  0
  3 29  1  0  0  0  0
  3 33  1  0  0  0  0
  4 81  1  0  0  0  0
  5 82  1  0  0  0  0
  6 83  1  0  0  0  0
  7 84  1  0  0  0  0
  8 85  1  0  0  0  0
  9 35  1  0  0  0  0
  9 87  1  0  0  0  0
 10 36  1  0  0  0  0
 10 51  1  0  0  0  0
 11 37  1  0  0  0  0
 11 93  1  0  0  0  0
 12 38  1  0  0  0  0
 12 94  1  0  0  0  0
 13 45  1  0  0  0  0
 13 46  1  0  0  0  0
 14 41  1  0  0  0  0
 14 49  1  0  0  0  0
 15 53  1  0  0  0  0
 16 98  1  0  0  0  0
 17 99  1  0  0  0  0
 18100  1  0  0  0  0
 19 47  2  0  0  0  0
 20 48  1  0  0  0  0
 20105  1  0  0  0  0
 21 51  2  0  0  0  0
 22 63  1  0  0  0  0
 22 66  1  0  0  0  0
 23 65  1  0  0  0  0
 23111  1  0  0  0  0
 24  1  1  0  0  0  0
 24 25  1  6  0  0  0
 24 67  1  0  0  0  0
 25  4  1  0  0  0  0
 25 27  1  1  0  0  0
 25 68  1  0  0  0  0
 26 24  1  6  0  0  0
 26 34  1  0  0  0  0
 26 69  1  0  0  0  0
 27  5  1  0  0  0  0
 27 28  1  6  0  0  0
 27 70  1  0  0  0  0
 28 35  1  0  0  0  0
 28 71  1  6  0  0  0
 29  1  1  0  0  0  0
 29 30  1  6  0  0  0
 29 72  1  0  0  0  0
 30  6  1  0  0  0  0
 30 31  1  6  0  0  0
 30 73  1  0  0  0  0
 31  7  1  0  0  0  0
 31 32  1  1  0  0  0
 31 74  1  0  0  0  0
 32  8  1  0  0  0  0
 32 33  1  6  0  0  0
 32 75  1  0  0  0  0
 33 36  1  0  0  0  0
 33 76  1  6  0  0  0
 34 37  2  0  0  0  0
 34 38  1  0  0  0  0
 35 77  1  0  0  0  0
 35 78  1  0  0  0  0
 36 79  1  0  0  0  0
 36 80  1  0  0  0  0
 37 39  1  0  0  0  0
 38 40  2  0  0  0  0
 39 41  2  0  0  0  0
 39 47  1  0  0  0  0
 40 41  1  0  0  0  0
 40 86  1  0  0  0  0
 42 16  1  0  0  0  0
 42 43  1  1  0  0  0
 42 88  1  0  0  0  0
 43 17  1  0  0  0  0
 43 45  1  1  0  0  0
 43 89  1  0  0  0  0
 44 18  1  0  0  0  0
 44 42  1  6  0  0  0
 44 90  1  0  0  0  0
 45 48  1  0  0  0  0
 45 91  1  1  0  0  0
 46 15  1  0  0  0  0
 46 44  1  1  0  0  0
 46 92  1  0  0  0  0
 47 50  1  0  0  0  0
 48 95  1  0  0  0  0
 48 96  1  0  0  0  0
 49 50  2  0  0  0  0
 49 52  1  0  0  0  0
 50 97  1  0  0  0  0
 51 58  1  0  0  0  0
 52 54  2  0  0  0  0
 52 55  1  0  0  0  0
 53 56  2  0  0  0  0
 53 57  1  0  0  0  0
 54 56  1  0  0  0  0
 54101  1  0  0  0  0
 55 57  2  0  0  0  0
 55102  1  0  0  0  0
 56103  1  0  0  0  0
 57104  1  0  0  0  0
 58 59  2  0  0  0  0
 58106  1  0  0  0  0
 59 60  1  0  0  0  0
 59107  1  0  0  0  0
 60 61  2  0  0  0  0
 60 62  1  0  0  0  0
 61 63  1  0  0  0  0
 61108  1  0  0  0  0
 62 64  2  0  0  0  0
 62109  1  0  0  0  0
 63 65  2  0  0  0  0
 64 65  1  0  0  0  0
 64110  1  0  0  0  0
 66112  1  0  0  0  0
 66113  1  0  0  0  0
 66114  1  0  0  0  0
M  END
>  <PUBCHEM_COMPOUND_CID>
102587839

>  <PUBCHEM_COMPOUND_CANONICALIZED>
1

>  <PUBCHEM_CACTVS_COMPLEXITY>
1680

>  <PUBCHEM_CACTVS_HBOND_ACCEPTOR>
23

>  <PUBCHEM_CACTVS_HBOND_DONOR>
13

>  <PUBCHEM_CACTVS_ROTATABLE_BOND>
14

>  <PUBCHEM_CACTVS_SUBSKEYS>
AAADcfB8PgAAAAAAAAAAAAAAAAAAAAAAAAA0aNECAAAAAACBUAAAGgAACAAADBSwmAMyDoAABgCIAqDSCAACCAAkIAAIiAEGiMgdNzaGNRqieWOl4BUPuYfI7PzOIAADCAAIQABAAAYQABCAAAAAAAAAAA==

>  <PUBCHEM_IUPAC_OPENEYE_NAME>
[(2R,3S,4S,5R,6S)-6-[(2S,3R,4S,5S,6R)-2-[5,7-dihydroxy-4-oxo-2-[4-[(2S,3R,4S,5S,6R)-3,4,5-trihydroxy-6-(hydroxymethyl)tetrahydropyran-2-yl]oxyphenyl]chromen-6-yl]-4,5-dihydroxy-6-(hydroxymethyl)tetrahydropyran-3-yl]oxy-3,4,5-trihydroxy-tetrahydropyran-2-yl]methyl (E)-3-(4-hydroxy-3-methoxy-phenyl)prop-2-enoate

>  <PUBCHEM_IUPAC_CAS_NAME>
(E)-3-(4-hydroxy-3-methoxyphenyl)-2-propenoic acid [(2R,3S,4S,5R,6S)-6-[[(2S,3R,4S,5S,6R)-2-[5,7-dihydroxy-4-oxo-2-[4-[[(2S,3R,4S,5S,6R)-3,4,5-trihydroxy-6-(hydroxymethyl)-2-oxanyl]oxy]phenyl]-1-benzopyran-6-yl]-4,5-dihydroxy-6-(hydroxymethyl)-3-oxanyl]oxy]-3,4,5-trihydroxy-2-oxanyl]methyl ester

>  <PUBCHEM_IUPAC_NAME>
[(2R,3S,4S,5R,6S)-6-[(2S,3R,4S,5S,6R)-2-[5,7-dihydroxy-4-oxo-2-[4-[(2S,3R,4S,5S,6R)-3,4,5-trihydroxy-6-(hydroxymethyl)oxan-2-yl]oxyphenyl]chromen-6-yl]-4,5-dihydroxy-6-(hydroxymethyl)oxan-3-yl]oxy-3,4,5-trihydroxyoxan-2-yl]methyl (E)-3-(4-hydroxy-3-methoxyphenyl)prop-2-enoate

>  <PUBCHEM_IUPAC_SYSTEMATIC_NAME>
[(2R,3S,4S,5R,6S)-6-[(2S,3R,4S,5S,6R)-6-(hydroxymethyl)-2-[2-[4-[(2S,3R,4S,5S,6R)-6-(hydroxymethyl)-3,4,5-tris(oxidanyl)oxan-2-yl]oxyphenyl]-5,7-bis(oxidanyl)-4-oxidanylidene-chromen-6-yl]-4,5-bis(oxidanyl)oxan-3-yl]oxy-3,4,5-tris(oxidanyl)oxan-2-yl]methyl (E)-3-(3-methoxy-4-oxidanyl-phenyl)prop-2-enoate

>  <PUBCHEM_IUPAC_TRADITIONAL_NAME>
(E)-3-(4-hydroxy-3-methoxy-phenyl)acrylic acid [(2R,3S,4S,5R,6S)-6-[(2S,3R,4S,5S,6R)-2-[5,7-dihydroxy-4-keto-2-[4-[(2S,3R,4S,5S,6R)-3,4,5-trihydroxy-6-methylol-tetrahydropyran-2-yl]oxyphenyl]chromen-6-yl]-4,5-dihydroxy-6-methylol-tetrahydropyran-3-yl]oxy-3,4,5-trihydroxy-tetrahydropyran-2-yl]methyl ester

>  <PUBCHEM_IUPAC_INCHI>
InChI=1S/C43H48O23/c1-59-23-10-16(2-8-19(23)46)3-9-28(49)60-15-27-33(52)36(55)39(58)43(65-27)66-41-37(56)32(51)25(13-44)63-40(41)30-21(48)12-24-29(34(30)53)20(47)11-22(62-24)17-4-6-18(7-5-17)61-42-38(57)35(54)31(50)26(14-45)64-42/h2-12,25-27,31-33,35-46,48,50-58H,13-15H2,1H3/b9-3+/t25-,26-,27-,31-,32-,33-,35+,36+,37+,38-,39-,40+,41-,42-,43+/m1/s1

>  <PUBCHEM_IUPAC_INCHIKEY>
NKQNBGQKLCZRCJ-DWUJRBQCSA-N

>  <PUBCHEM_XLOGP3_AA>
-1.5

>  <PUBCHEM_EXACT_MASS>
932.259

>  <PUBCHEM_MOLECULAR_FORMULA>
C43H48O23

>  <PUBCHEM_MOLECULAR_WEIGHT>
932.834

>  <PUBCHEM_OPENEYE_CAN_SMILES>
COC1=C(C=CC(=C1)C=CC(=O)OCC2C(C(C(C(O2)OC3C(C(C(OC3C4=C(C=C5C(=C4O)C(=O)C=C(O5)C6=CC=C(C=C6)OC7C(C(C(C(O7)CO)O)O)O)O)CO)O)O)O)O)O)O

>  <PUBCHEM_OPENEYE_ISO_SMILES>
COC1=C(C=CC(=C1)/C=C/C(=O)OC[C@@H]2[C@H]([C@@H]([C@H]([C@@H](O2)O[C@@H]3[C@H]([C@@H]([C@H](O[C@H]3C4=C(C=C5C(=C4O)C(=O)C=C(O5)C6=CC=C(C=C6)O[C@H]7[C@@H]([C@H]([C@@H]([C@H](O7)CO)O)O)O)O)CO)O)O)O)O)O)O

>  <PUBCHEM_CACTVS_TPSA>
371

>  <PUBCHEM_MONOISOTOPIC_WEIGHT>
932.259

>  <PUBCHEM_TOTAL_CHARGE>
0

>  <PUBCHEM_HEAVY_ATOM_COUNT>
66

>  <PUBCHEM_ATOM_DEF_STEREO_COUNT>
15

>  <PUBCHEM_ATOM_UDEF_STEREO_COUNT>
0

>  <PUBCHEM_BOND_DEF_STEREO_COUNT>
1

>  <PUBCHEM_BOND_UDEF_STEREO_COUNT>
0

>  <PUBCHEM_ISOTOPIC_ATOM_COUNT>
0

>  <PUBCHEM_COMPONENT_COUNT>
1

>  <PUBCHEM_CACTVS_TAUTO_COUNT>
48

>  <PUBCHEM_COORDINATE_TYPE>
1
5
255

>  <PUBCHEM_BONDANNOTATIONS>
24  1  6
29  1  5
14  41  8
14  49  8
46  15  6
42  16  6
43  17  5
44  18  5
26  69  6
28  35  5
33  36  5
34  37  8
34  38  8
37  39  8
38  40  8
39  41  8
39  47  8
25  4  5
40  41  8
45  48  6
47  50  8
49  50  8
27  5  6
52  54  8
52  55  8
53  56  8
53  57  8
54  56  8
55  57  8
30  6  6
60  61  8
60  62  8
61  63  8
62  64  8
63  65  8
64  65  8
31  7  5
32  8  6

$$$$
