10263845
 OpenBabel06101807152D

 30 32  0  0  0  0  0  0  0  0999 V2000
    3.9061   -1.1643    0.0000 O   0  0  0  0  0  0  0  0  0  0  0  0
    7.4420    0.8772    0.0000 O   0  0  0  0  0  0  0  0  0  0  0  0
    5.6660   -2.1296    0.0000 O   0  0  0  0  0  0  0  0  0  0  0  0
    8.3180    2.4155    0.0000 O   0  0  0  0  0  0  0  0  0  0  0  0
    3.0000   -0.6504    0.0000 C   0  0  0  0  0  0  0  0  0  0  0  0
    4.8000    0.3704    0.0000 C   0  0  0  0  0  0  0  0  0  0  0  0
    4.8000   -0.6296    0.0000 C   0  0  0  0  0  0  0  0  0  0  0  0
    3.0000    0.3912    0.0000 C   0  0  0  0  0  0  0  0  0  0  0  0
    3.9061    0.9050    0.0000 C   0  0  0  0  0  0  0  0  0  0  0  0
    2.0000   -0.6543    0.0000 C   0  0  0  0  0  0  0  0  0  0  0  0
    2.5033   -1.5184    0.0000 C   0  0  0  0  0  0  0  0  0  0  0  0
    5.6660    0.8704    0.0000 C   0  0  0  0  0  0  0  0  0  0  0  0
    5.6660   -1.1296    0.0000 C   0  0  0  0  0  0  0  0  0  0  0  0
    6.5320    0.3704    0.0000 C   0  0  0  0  0  0  0  0  0  0  0  0
    6.5320   -0.6296    0.0000 C   0  0  0  0  0  0  0  0  0  0  0  0
    5.6500    1.9119    0.0000 C   0  0  0  0  0  0  0  0  0  0  0  0
    6.5480    2.4396    0.0000 C   0  0  0  0  0  0  0  0  0  0  0  0
    7.4501    1.9188    0.0000 C   0  0  0  0  0  0  0  0  0  0  0  0
    2.4643    0.7033    0.0000 H   0  0  0  0  0  0  0  0  0  0  0  0
    3.9132    1.5250    0.0000 H   0  0  0  0  0  0  0  0  0  0  0  0
    1.9976   -0.0343    0.0000 H   0  0  0  0  0  0  0  0  0  0  0  0
    1.3800   -0.6567    0.0000 H   0  0  0  0  0  0  0  0  0  0  0  0
    2.0024   -1.2743    0.0000 H   0  0  0  0  0  0  0  0  0  0  0  0
    1.9652   -1.2105    0.0000 H   0  0  0  0  0  0  0  0  0  0  0  0
    2.1954   -2.0565    0.0000 H   0  0  0  0  0  0  0  0  0  0  0  0
    3.0415   -1.8263    0.0000 H   0  0  0  0  0  0  0  0  0  0  0  0
    7.0690   -0.9396    0.0000 H   0  0  0  0  0  0  0  0  0  0  0  0
    5.1095    2.2156    0.0000 H   0  0  0  0  0  0  0  0  0  0  0  0
    6.5456    3.0596    0.0000 H   0  0  0  0  0  0  0  0  0  0  0  0
    6.2030   -2.4396    0.0000 H   0  0  0  0  0  0  0  0  0  0  0  0
  1  5  1  0  0  0  0
  1  7  1  0  0  0  0
  2 14  1  0  0  0  0
  2 18  1  0  0  0  0
  3 13  1  0  0  0  0
  3 30  1  0  0  0  0
  4 18  2  0  0  0  0
  5  8  1  0  0  0  0
  5 10  1  0  0  0  0
  5 11  1  0  0  0  0
  6  7  2  0  0  0  0
  6  9  1  0  0  0  0
  6 12  1  0  0  0  0
  7 13  1  0  0  0  0
  8  9  2  0  0  0  0
  8 19  1  0  0  0  0
  9 20  1  0  0  0  0
 10 21  1  0  0  0  0
 10 22  1  0  0  0  0
 10 23  1  0  0  0  0
 11 24  1  0  0  0  0
 11 25  1  0  0  0  0
 11 26  1  0  0  0  0
 12 14  2  0  0  0  0
 12 16  1  0  0  0  0
 13 15  2  0  0  0  0
 14 15  1  0  0  0  0
 15 27  1  0  0  0  0
 16 17  2  0  0  0  0
 16 28  1  0  0  0  0
 17 18  1  0  0  0  0
 17 29  1  0  0  0  0
M  END
>  <PUBCHEM_COMPOUND_CID>
10263845

>  <PUBCHEM_COMPOUND_CANONICALIZED>
1

>  <PUBCHEM_CACTVS_COMPLEXITY>
424

>  <PUBCHEM_CACTVS_HBOND_ACCEPTOR>
4

>  <PUBCHEM_CACTVS_HBOND_DONOR>
1

>  <PUBCHEM_CACTVS_ROTATABLE_BOND>
0

>  <PUBCHEM_CACTVS_SUBSKEYS>
AAADccBwOAAAAAAAAAAAAAAAAAAAAAAAAAAwQIAAAAAAAACBAAAAGgAACAAADESAmAAyDoAABgCIAiDSCAACCAAgIAAIiAAGiMgNJyKGMBqCeiOlwBULuYfA4LwOoQABCAAYQABCAAIQADCAAAAAAAAAAA==

>  <PUBCHEM_IUPAC_OPENEYE_NAME>
5-hydroxy-3,3-dimethyl-pyrano[3,2-f]chromen-8-one

>  <PUBCHEM_IUPAC_CAS_NAME>
5-hydroxy-3,3-dimethyl-8-pyrano[3,2-f][1]benzopyranone

>  <PUBCHEM_IUPAC_NAME>
5-hydroxy-3,3-dimethylpyrano[3,2-f]chromen-8-one

>  <PUBCHEM_IUPAC_SYSTEMATIC_NAME>
3,3-dimethyl-5-oxidanyl-pyrano[3,2-f]chromen-8-one

>  <PUBCHEM_IUPAC_TRADITIONAL_NAME>
5-hydroxy-3,3-dimethyl-pyrano[3,2-f]chromen-8-one

>  <PUBCHEM_IUPAC_INCHI>
InChI=1S/C14H12O4/c1-14(2)6-5-9-8-3-4-12(16)17-11(8)7-10(15)13(9)18-14/h3-7,15H,1-2H3

>  <PUBCHEM_IUPAC_INCHIKEY>
OGTYTYOKQRCQEM-UHFFFAOYSA-N

>  <PUBCHEM_XLOGP3_AA>
2.5

>  <PUBCHEM_EXACT_MASS>
244.074

>  <PUBCHEM_MOLECULAR_FORMULA>
C14H12O4

>  <PUBCHEM_MOLECULAR_WEIGHT>
244.246

>  <PUBCHEM_OPENEYE_CAN_SMILES>
CC1(C=CC2=C3C=CC(=O)OC3=CC(=C2O1)O)C

>  <PUBCHEM_OPENEYE_ISO_SMILES>
CC1(C=CC2=C3C=CC(=O)OC3=CC(=C2O1)O)C

>  <PUBCHEM_CACTVS_TPSA>
55.8

>  <PUBCHEM_MONOISOTOPIC_WEIGHT>
244.074

>  <PUBCHEM_TOTAL_CHARGE>
0

>  <PUBCHEM_HEAVY_ATOM_COUNT>
18

>  <PUBCHEM_ATOM_DEF_STEREO_COUNT>
0

>  <PUBCHEM_ATOM_UDEF_STEREO_COUNT>
0

>  <PUBCHEM_BOND_DEF_STEREO_COUNT>
0

>  <PUBCHEM_BOND_UDEF_STEREO_COUNT>
0

>  <PUBCHEM_ISOTOPIC_ATOM_COUNT>
0

>  <PUBCHEM_COMPONENT_COUNT>
1

>  <PUBCHEM_CACTVS_TAUTO_COUNT>
4

>  <PUBCHEM_COORDINATE_TYPE>
1
5
255

>  <PUBCHEM_BONDANNOTATIONS>
12  14  8
12  16  8
13  15  8
14  15  8
16  17  8
17  18  8
2  14  8
2  18  8
6  12  8
6  7  8
7  13  8

$$$$
