10295791
 OpenBabel06101807152D

 57 59  0  0  0  0  0  0  0  0999 V2000
    6.0682   -2.6900    0.0000 O   0  0  0  0  0  0  0  0  0  0  0  0
    6.0682    0.3100    0.0000 O   0  0  0  0  0  0  0  0  0  0  0  0
    4.3198    0.3446    0.0000 O   0  0  0  0  0  0  0  0  0  0  0  0
    6.9343   -4.1900    0.0000 O   0  0  0  0  0  0  0  0  0  0  0  0
    2.5381   -2.7142    0.0000 O   0  0  0  0  0  0  0  0  0  0  0  0
   10.3984   -4.1900    0.0000 O   0  0  0  0  0  0  0  0  0  0  0  0
    6.9343   -1.1900    0.0000 C   0  0  0  0  0  0  0  0  0  0  0  0
    7.8003   -0.6900    0.0000 C   0  0  0  0  0  0  0  0  0  0  0  0
    6.9343   -2.1900    0.0000 C   0  0  0  0  0  0  0  0  0  0  0  0
    8.6663    0.8100    0.0000 C   0  0  0  0  0  0  0  0  0  0  0  0
    5.2022   -1.1900    0.0000 C   0  0  0  0  0  0  0  0  0  0  0  0
    6.0682   -0.6900    0.0000 C   0  0  0  0  0  0  0  0  0  0  0  0
    8.6663    1.8100    0.0000 C   0  0  0  0  0  0  0  0  0  0  0  0
    7.8003    0.3100    0.0000 C   0  0  0  0  0  0  0  0  0  0  0  0
    5.2022   -2.1900    0.0000 C   0  0  0  0  0  0  0  0  0  0  0  0
    7.8003   -2.6900    0.0000 C   0  0  0  0  0  0  0  0  0  0  0  0
    9.5323    2.3100    0.0000 C   0  0  0  0  0  0  0  0  0  0  0  0
    4.3083   -0.6553    0.0000 C   0  0  0  0  0  0  0  0  0  0  0  0
    9.5323    0.3100    0.0000 C   0  0  0  0  0  0  0  0  0  0  0  0
    4.3083   -2.7247    0.0000 C   0  0  0  0  0  0  0  0  0  0  0  0
    7.8003   -3.6900    0.0000 C   0  0  0  0  0  0  0  0  0  0  0  0
    9.5323    3.3100    0.0000 C   0  0  0  0  0  0  0  0  0  0  0  0
    8.6663   -2.1900    0.0000 C   0  0  0  0  0  0  0  0  0  0  0  0
    3.4022   -1.1692    0.0000 C   0  0  0  0  0  0  0  0  0  0  0  0
    3.4022   -2.2108    0.0000 C   0  0  0  0  0  0  0  0  0  0  0  0
   10.3984    3.8100    0.0000 C   0  0  0  0  0  0  0  0  0  0  0  0
    8.6663   -4.1900    0.0000 C   0  0  0  0  0  0  0  0  0  0  0  0
    9.5323   -2.6900    0.0000 C   0  0  0  0  0  0  0  0  0  0  0  0
    9.5323   -3.6900    0.0000 C   0  0  0  0  0  0  0  0  0  0  0  0
   10.3984    4.8100    0.0000 C   0  0  0  0  0  0  0  0  0  0  0  0
   11.2644    3.3100    0.0000 C   0  0  0  0  0  0  0  0  0  0  0  0
    8.0124   -1.2726    0.0000 H   0  0  0  0  0  0  0  0  0  0  0  0
    8.4109   -0.5823    0.0000 H   0  0  0  0  0  0  0  0  0  0  0  0
    8.4543    2.3926    0.0000 H   0  0  0  0  0  0  0  0  0  0  0  0
    8.0558    1.7023    0.0000 H   0  0  0  0  0  0  0  0  0  0  0  0
    7.2634    0.6200    0.0000 H   0  0  0  0  0  0  0  0  0  0  0  0
    9.7444    1.7274    0.0000 H   0  0  0  0  0  0  0  0  0  0  0  0
   10.1429    2.4177    0.0000 H   0  0  0  0  0  0  0  0  0  0  0  0
    9.2224   -0.2269    0.0000 H   0  0  0  0  0  0  0  0  0  0  0  0
   10.0693    0.0000    0.0000 H   0  0  0  0  0  0  0  0  0  0  0  0
    9.8424    0.8469    0.0000 H   0  0  0  0  0  0  0  0  0  0  0  0
    4.3154   -3.3446    0.0000 H   0  0  0  0  0  0  0  0  0  0  0  0
    8.9954    3.6200    0.0000 H   0  0  0  0  0  0  0  0  0  0  0  0
    8.6663   -1.5700    0.0000 H   0  0  0  0  0  0  0  0  0  0  0  0
    2.8665   -0.8571    0.0000 H   0  0  0  0  0  0  0  0  0  0  0  0
    8.6663   -4.8100    0.0000 H   0  0  0  0  0  0  0  0  0  0  0  0
   10.0693   -2.3800    0.0000 H   0  0  0  0  0  0  0  0  0  0  0  0
    3.7865    0.6608    0.0000 H   0  0  0  0  0  0  0  0  0  0  0  0
   11.0184    4.8100    0.0000 H   0  0  0  0  0  0  0  0  0  0  0  0
   10.3984    5.4300    0.0000 H   0  0  0  0  0  0  0  0  0  0  0  0
   10.9544    2.7731    0.0000 H   0  0  0  0  0  0  0  0  0  0  0  0
   11.8013    3.0000    0.0000 H   0  0  0  0  0  0  0  0  0  0  0  0
   11.5744    3.8469    0.0000 H   0  0  0  0  0  0  0  0  0  0  0  0
    9.7784    4.8100    0.0000 H   0  0  0  0  0  0  0  0  0  0  0  0
    6.9343   -4.8100    0.0000 H   0  0  0  0  0  0  0  0  0  0  0  0
    2.0000   -2.4062    0.0000 H   0  0  0  0  0  0  0  0  0  0  0  0
   10.9353   -3.8800    0.0000 H   0  0  0  0  0  0  0  0  0  0  0  0
  1  9  1  0  0  0  0
  1 15  1  0  0  0  0
  2 12  2  0  0  0  0
  3 18  1  0  0  0  0
  3 48  1  0  0  0  0
  4 21  1  0  0  0  0
  4 55  1  0  0  0  0
  5 25  1  0  0  0  0
  5 56  1  0  0  0  0
  6 29  1  0  0  0  0
  6 57  1  0  0  0  0
  7  8  1  0  0  0  0
  7  9  2  0  0  0  0
  7 12  1  0  0  0  0
  8 14  1  0  0  0  0
  8 32  1  0  0  0  0
  8 33  1  0  0  0  0
  9 16  1  0  0  0  0
 10 13  1  0  0  0  0
 10 14  2  0  0  0  0
 10 19  1  0  0  0  0
 11 12  1  0  0  0  0
 11 15  1  0  0  0  0
 11 18  2  0  0  0  0
 13 17  1  0  0  0  0
 13 34  1  0  0  0  0
 13 35  1  0  0  0  0
 14 36  1  0  0  0  0
 15 20  2  0  0  0  0
 16 21  2  0  0  0  0
 16 23  1  0  0  0  0
 17 22  1  0  0  0  0
 17 37  1  0  0  0  0
 17 38  1  0  0  0  0
 18 24  1  0  0  0  0
 19 39  1  0  0  0  0
 19 40  1  0  0  0  0
 19 41  1  0  0  0  0
 20 25  1  0  0  0  0
 20 42  1  0  0  0  0
 21 27  1  0  0  0  0
 22 26  2  0  0  0  0
 22 43  1  0  0  0  0
 23 28  2  0  0  0  0
 23 44  1  0  0  0  0
 24 25  2  0  0  0  0
 24 45  1  0  0  0  0
 26 30  1  0  0  0  0
 26 31  1  0  0  0  0
 27 29  2  0  0  0  0
 27 46  1  0  0  0  0
 28 29  1  0  0  0  0
 28 47  1  0  0  0  0
 30 49  1  0  0  0  0
 30 50  1  0  0  0  0
 30 54  1  0  0  0  0
 31 51  1  0  0  0  0
 31 52  1  0  0  0  0
 31 53  1  0  0  0  0
M  END
>  <PUBCHEM_COMPOUND_CID>
10295791

>  <PUBCHEM_COMPOUND_CANONICALIZED>
1

>  <PUBCHEM_CACTVS_COMPLEXITY>
747

>  <PUBCHEM_CACTVS_HBOND_ACCEPTOR>
6

>  <PUBCHEM_CACTVS_HBOND_DONOR>
4

>  <PUBCHEM_CACTVS_ROTATABLE_BOND>
6

>  <PUBCHEM_CACTVS_SUBSKEYS>
AAADceB4OAAAAAAAAAAAAAAAAAAAAAAAAAAwYIAAAAAAAACBQAAAGgAACAAADASAmAAyBoAABgCIAqBSAAACCAAkIAAIiAEGCMgMJzaGNRqCeWCl4BUIuQeI7KzOIAAACAAIAABAAAAQABAAAAAAAAAAAA==

>  <PUBCHEM_IUPAC_OPENEYE_NAME>
2-(2,4-dihydroxyphenyl)-3-[(2E)-3,7-dimethylocta-2,6-dienyl]-5,7-dihydroxy-chromen-4-one

>  <PUBCHEM_IUPAC_CAS_NAME>
2-(2,4-dihydroxyphenyl)-3-[(2E)-3,7-dimethylocta-2,6-dienyl]-5,7-dihydroxy-1-benzopyran-4-one

>  <PUBCHEM_IUPAC_NAME>
2-(2,4-dihydroxyphenyl)-3-[(2E)-3,7-dimethylocta-2,6-dienyl]-5,7-dihydroxychromen-4-one

>  <PUBCHEM_IUPAC_SYSTEMATIC_NAME>
2-[2,4-bis(oxidanyl)phenyl]-3-[(2E)-3,7-dimethylocta-2,6-dienyl]-5,7-bis(oxidanyl)chromen-4-one

>  <PUBCHEM_IUPAC_TRADITIONAL_NAME>
2-(2,4-dihydroxyphenyl)-3-[(2E)-3,7-dimethylocta-2,6-dienyl]-5,7-dihydroxy-chromone

>  <PUBCHEM_IUPAC_INCHI>
InChI=1S/C25H26O6/c1-14(2)5-4-6-15(3)7-9-19-24(30)23-21(29)12-17(27)13-22(23)31-25(19)18-10-8-16(26)11-20(18)28/h5,7-8,10-13,26-29H,4,6,9H2,1-3H3/b15-7+

>  <PUBCHEM_IUPAC_INCHIKEY>
GRRICQNASNJYBZ-VIZOYTHASA-N

>  <PUBCHEM_XLOGP3>
5.5

>  <PUBCHEM_EXACT_MASS>
422.173

>  <PUBCHEM_MOLECULAR_FORMULA>
C25H26O6

>  <PUBCHEM_MOLECULAR_WEIGHT>
422.477

>  <PUBCHEM_OPENEYE_CAN_SMILES>
CC(=CCCC(=CCC1=C(OC2=CC(=CC(=C2C1=O)O)O)C3=C(C=C(C=C3)O)O)C)C

>  <PUBCHEM_OPENEYE_ISO_SMILES>
CC(=CCC/C(=C/CC1=C(OC2=CC(=CC(=C2C1=O)O)O)C3=C(C=C(C=C3)O)O)/C)C

>  <PUBCHEM_CACTVS_TPSA>
107

>  <PUBCHEM_MONOISOTOPIC_WEIGHT>
422.173

>  <PUBCHEM_TOTAL_CHARGE>
0

>  <PUBCHEM_HEAVY_ATOM_COUNT>
31

>  <PUBCHEM_ATOM_DEF_STEREO_COUNT>
0

>  <PUBCHEM_ATOM_UDEF_STEREO_COUNT>
0

>  <PUBCHEM_BOND_DEF_STEREO_COUNT>
1

>  <PUBCHEM_BOND_UDEF_STEREO_COUNT>
0

>  <PUBCHEM_ISOTOPIC_ATOM_COUNT>
0

>  <PUBCHEM_COMPONENT_COUNT>
1

>  <PUBCHEM_CACTVS_TAUTO_COUNT>
171

>  <PUBCHEM_COORDINATE_TYPE>
1
5
255

>  <PUBCHEM_BONDANNOTATIONS>
1  15  8
1  9  8
11  12  8
11  15  8
11  18  8
15  20  8
16  21  8
16  23  8
18  24  8
20  25  8
21  27  8
23  28  8
24  25  8
27  29  8
28  29  8
7  12  8
7  9  8

$$$$
