10311044
 OpenBabel06101807152D

 89 90  0  0  0  0  0  0  0  0999 V2000
    7.9244   -4.7471    0.0000 O   0  0  0  0  0  0  0  0  0  0  0  0
    6.2781   -4.2090    0.0000 N   0  0  0  0  0  0  0  0  0  0  0  0
    4.6783   -7.9258    0.0000 N   0  0  0  0  0  0  0  0  0  0  0  0
   13.7024    1.7809    0.0000 C   0  0  0  0  0  0  0  0  0  0  0  0
   14.0131    2.7314    0.0000 C   0  0  0  0  0  0  0  0  0  0  0  0
   12.7239    1.5747    0.0000 C   0  0  0  0  0  0  0  0  0  0  0  0
   14.9916    2.9376    0.0000 C   0  0  0  0  0  0  0  0  0  0  0  0
   12.4133    0.6241    0.0000 C   0  0  0  0  0  0  0  0  0  0  0  0
   15.3023    3.8881    0.0000 C   0  0  0  0  0  0  0  0  0  0  0  0
   11.4348    0.4179    0.0000 C   0  0  0  0  0  0  0  0  0  0  0  0
   16.2808    4.0944    0.0000 C   0  0  0  0  0  0  0  0  0  0  0  0
   11.1241   -0.5326    0.0000 C   0  0  0  0  0  0  0  0  0  0  0  0
   16.5914    5.0449    0.0000 C   0  0  0  0  0  0  0  0  0  0  0  0
   10.1456   -0.7388    0.0000 C   0  0  0  0  0  0  0  0  0  0  0  0
   17.5700    5.2511    0.0000 C   0  0  0  0  0  0  0  0  0  0  0  0
    9.8349   -1.6893    0.0000 C   0  0  0  0  0  0  0  0  0  0  0  0
   17.8806    6.2016    0.0000 C   0  0  0  0  0  0  0  0  0  0  0  0
    8.8564   -1.8956    0.0000 C   0  0  0  0  0  0  0  0  0  0  0  0
   18.8591    6.4078    0.0000 C   0  0  0  0  0  0  0  0  0  0  0  0
    8.5458   -2.8461    0.0000 C   0  0  0  0  0  0  0  0  0  0  0  0
   19.1698    7.3584    0.0000 C   0  0  0  0  0  0  0  0  0  0  0  0
    7.5673   -3.0523    0.0000 C   0  0  0  0  0  0  0  0  0  0  0  0
   20.1483    7.5646    0.0000 C   0  0  0  0  0  0  0  0  0  0  0  0
    7.2566   -4.0028    0.0000 C   0  0  0  0  0  0  0  0  0  0  0  0
   20.4590    8.5151    0.0000 C   0  0  0  0  0  0  0  0  0  0  0  0
    5.9674   -5.1596    0.0000 C   0  0  0  0  0  0  0  0  0  0  0  0
    4.9889   -5.3658    0.0000 C   0  0  0  0  0  0  0  0  0  0  0  0
    4.6783   -6.3163    0.0000 C   0  0  0  0  0  0  0  0  0  0  0  0
    3.7320   -6.6210    0.0000 C   0  0  0  0  0  0  0  0  0  0  0  0
    3.7320   -7.6210    0.0000 C   0  0  0  0  0  0  0  0  0  0  0  0
    5.2619   -7.1210    0.0000 C   0  0  0  0  0  0  0  0  0  0  0  0
    2.8660   -6.1210    0.0000 C   0  0  0  0  0  0  0  0  0  0  0  0
    2.8660   -8.1210    0.0000 C   0  0  0  0  0  0  0  0  0  0  0  0
    2.0000   -6.6210    0.0000 C   0  0  0  0  0  0  0  0  0  0  0  0
    2.0000   -7.6210    0.0000 C   0  0  0  0  0  0  0  0  0  0  0  0
   13.7230    1.1612    0.0000 H   0  0  0  0  0  0  0  0  0  0  0  0
   14.3163    1.6935    0.0000 H   0  0  0  0  0  0  0  0  0  0  0  0
   13.9925    3.3510    0.0000 H   0  0  0  0  0  0  0  0  0  0  0  0
   13.3993    2.8187    0.0000 H   0  0  0  0  0  0  0  0  0  0  0  0
   12.7034    2.1943    0.0000 H   0  0  0  0  0  0  0  0  0  0  0  0
   12.1101    1.6620    0.0000 H   0  0  0  0  0  0  0  0  0  0  0  0
   15.0122    2.3180    0.0000 H   0  0  0  0  0  0  0  0  0  0  0  0
   15.6054    2.8503    0.0000 H   0  0  0  0  0  0  0  0  0  0  0  0
   12.4338    0.0045    0.0000 H   0  0  0  0  0  0  0  0  0  0  0  0
   13.0271    0.5368    0.0000 H   0  0  0  0  0  0  0  0  0  0  0  0
   15.2817    4.5078    0.0000 H   0  0  0  0  0  0  0  0  0  0  0  0
   14.6885    3.9755    0.0000 H   0  0  0  0  0  0  0  0  0  0  0  0
   11.4142    1.0376    0.0000 H   0  0  0  0  0  0  0  0  0  0  0  0
   10.8210    0.5053    0.0000 H   0  0  0  0  0  0  0  0  0  0  0  0
   16.3013    3.4747    0.0000 H   0  0  0  0  0  0  0  0  0  0  0  0
   16.8946    4.0070    0.0000 H   0  0  0  0  0  0  0  0  0  0  0  0
   11.1447   -1.1523    0.0000 H   0  0  0  0  0  0  0  0  0  0  0  0
   11.7379   -0.6200    0.0000 H   0  0  0  0  0  0  0  0  0  0  0  0
   16.5709    5.6645    0.0000 H   0  0  0  0  0  0  0  0  0  0  0  0
   15.9776    5.1322    0.0000 H   0  0  0  0  0  0  0  0  0  0  0  0
   10.1250   -0.1192    0.0000 H   0  0  0  0  0  0  0  0  0  0  0  0
    9.5318   -0.6515    0.0000 H   0  0  0  0  0  0  0  0  0  0  0  0
   17.5905    4.6314    0.0000 H   0  0  0  0  0  0  0  0  0  0  0  0
   18.1838    5.1637    0.0000 H   0  0  0  0  0  0  0  0  0  0  0  0
    9.8555   -2.3090    0.0000 H   0  0  0  0  0  0  0  0  0  0  0  0
   10.4488   -1.7767    0.0000 H   0  0  0  0  0  0  0  0  0  0  0  0
   17.8601    6.8213    0.0000 H   0  0  0  0  0  0  0  0  0  0  0  0
   17.2668    6.2890    0.0000 H   0  0  0  0  0  0  0  0  0  0  0  0
    8.8359   -1.2759    0.0000 H   0  0  0  0  0  0  0  0  0  0  0  0
    8.2426   -1.8082    0.0000 H   0  0  0  0  0  0  0  0  0  0  0  0
   18.8797    5.7882    0.0000 H   0  0  0  0  0  0  0  0  0  0  0  0
   19.4729    6.3205    0.0000 H   0  0  0  0  0  0  0  0  0  0  0  0
    8.5663   -3.4657    0.0000 H   0  0  0  0  0  0  0  0  0  0  0  0
    9.1596   -2.9334    0.0000 H   0  0  0  0  0  0  0  0  0  0  0  0
   19.1492    7.9780    0.0000 H   0  0  0  0  0  0  0  0  0  0  0  0
   18.5560    7.4457    0.0000 H   0  0  0  0  0  0  0  0  0  0  0  0
    7.5467   -2.4326    0.0000 H   0  0  0  0  0  0  0  0  0  0  0  0
    6.9534   -2.9650    0.0000 H   0  0  0  0  0  0  0  0  0  0  0  0
   20.1689    6.9449    0.0000 H   0  0  0  0  0  0  0  0  0  0  0  0
   20.7621    7.4772    0.0000 H   0  0  0  0  0  0  0  0  0  0  0  0
   21.0483    8.3225    0.0000 H   0  0  0  0  0  0  0  0  0  0  0  0
   20.6516    9.1044    0.0000 H   0  0  0  0  0  0  0  0  0  0  0  0
   19.8696    8.7077    0.0000 H   0  0  0  0  0  0  0  0  0  0  0  0
    5.9880   -5.7792    0.0000 H   0  0  0  0  0  0  0  0  0  0  0  0
    6.5812   -5.2469    0.0000 H   0  0  0  0  0  0  0  0  0  0  0  0
    4.9684   -4.7461    0.0000 H   0  0  0  0  0  0  0  0  0  0  0  0
    4.3751   -5.2784    0.0000 H   0  0  0  0  0  0  0  0  0  0  0  0
    5.8640   -3.7476    0.0000 H   0  0  0  0  0  0  0  0  0  0  0  0
    5.8819   -7.1210    0.0000 H   0  0  0  0  0  0  0  0  0  0  0  0
    4.8709   -8.5151    0.0000 H   0  0  0  0  0  0  0  0  0  0  0  0
    2.8660   -5.5010    0.0000 H   0  0  0  0  0  0  0  0  0  0  0  0
    2.8660   -8.7410    0.0000 H   0  0  0  0  0  0  0  0  0  0  0  0
    1.4631   -6.3110    0.0000 H   0  0  0  0  0  0  0  0  0  0  0  0
    1.4631   -7.9310    0.0000 H   0  0  0  0  0  0  0  0  0  0  0  0
  1 24  2  0  0  0  0
  2 24  1  0  0  0  0
  2 26  1  0  0  0  0
  2 83  1  0  0  0  0
  3 30  1  0  0  0  0
  3 31  1  0  0  0  0
  3 85  1  0  0  0  0
  4  5  1  0  0  0  0
  4  6  1  0  0  0  0
  4 36  1  0  0  0  0
  4 37  1  0  0  0  0
  5  7  1  0  0  0  0
  5 38  1  0  0  0  0
  5 39  1  0  0  0  0
  6  8  1  0  0  0  0
  6 40  1  0  0  0  0
  6 41  1  0  0  0  0
  7  9  1  0  0  0  0
  7 42  1  0  0  0  0
  7 43  1  0  0  0  0
  8 10  1  0  0  0  0
  8 44  1  0  0  0  0
  8 45  1  0  0  0  0
  9 11  1  0  0  0  0
  9 46  1  0  0  0  0
  9 47  1  0  0  0  0
 10 12  1  0  0  0  0
 10 48  1  0  0  0  0
 10 49  1  0  0  0  0
 11 13  1  0  0  0  0
 11 50  1  0  0  0  0
 11 51  1  0  0  0  0
 12 14  1  0  0  0  0
 12 52  1  0  0  0  0
 12 53  1  0  0  0  0
 13 15  1  0  0  0  0
 13 54  1  0  0  0  0
 13 55  1  0  0  0  0
 14 16  1  0  0  0  0
 14 56  1  0  0  0  0
 14 57  1  0  0  0  0
 15 17  1  0  0  0  0
 15 58  1  0  0  0  0
 15 59  1  0  0  0  0
 16 18  1  0  0  0  0
 16 60  1  0  0  0  0
 16 61  1  0  0  0  0
 17 19  1  0  0  0  0
 17 62  1  0  0  0  0
 17 63  1  0  0  0  0
 18 20  1  0  0  0  0
 18 64  1  0  0  0  0
 18 65  1  0  0  0  0
 19 21  1  0  0  0  0
 19 66  1  0  0  0  0
 19 67  1  0  0  0  0
 20 22  1  0  0  0  0
 20 68  1  0  0  0  0
 20 69  1  0  0  0  0
 21 23  1  0  0  0  0
 21 70  1  0  0  0  0
 21 71  1  0  0  0  0
 22 24  1  0  0  0  0
 22 72  1  0  0  0  0
 22 73  1  0  0  0  0
 23 25  1  0  0  0  0
 23 74  1  0  0  0  0
 23 75  1  0  0  0  0
 25 76  1  0  0  0  0
 25 77  1  0  0  0  0
 25 78  1  0  0  0  0
 26 27  1  0  0  0  0
 26 79  1  0  0  0  0
 26 80  1  0  0  0  0
 27 28  1  0  0  0  0
 27 81  1  0  0  0  0
 27 82  1  0  0  0  0
 28 29  1  0  0  0  0
 28 31  2  0  0  0  0
 29 30  1  0  0  0  0
 29 32  2  0  0  0  0
 30 33  2  0  0  0  0
 31 84  1  0  0  0  0
 32 34  1  0  0  0  0
 32 86  1  0  0  0  0
 33 35  1  0  0  0  0
 33 87  1  0  0  0  0
 34 35  2  0  0  0  0
 34 88  1  0  0  0  0
 35 89  1  0  0  0  0
M  END
>  <PUBCHEM_COMPOUND_CID>
10311044

>  <PUBCHEM_COMPOUND_CANONICALIZED>
1

>  <PUBCHEM_CACTVS_COMPLEXITY>
494

>  <PUBCHEM_CACTVS_HBOND_ACCEPTOR>
1

>  <PUBCHEM_CACTVS_HBOND_DONOR>
2

>  <PUBCHEM_CACTVS_ROTATABLE_BOND>
23

>  <PUBCHEM_CACTVS_SUBSKEYS>
AAADcfB/IAAAAAAAAAAAAAAAAAAAAWAAAAAwAAAAAAAAAFgB8AAAHgAQAAAADAjBngQ+wPLJkACoAzV3VACCgCAxAiAI2aE4ZJgIIPLAkZGEIAhglgDIyAcYiMCOgAAAAAACAAAAAAAAAAQAAAAAAAAAAA==

>  <PUBCHEM_IUPAC_OPENEYE_NAME>
N-[2-(1H-indol-3-yl)ethyl]docosanamide

>  <PUBCHEM_IUPAC_CAS_NAME>
N-[2-(1H-indol-3-yl)ethyl]docosanamide

>  <PUBCHEM_IUPAC_NAME>
N-[2-(1H-indol-3-yl)ethyl]docosanamide

>  <PUBCHEM_IUPAC_SYSTEMATIC_NAME>
N-[2-(1H-indol-3-yl)ethyl]docosanamide

>  <PUBCHEM_IUPAC_TRADITIONAL_NAME>
N-[2-(1H-indol-3-yl)ethyl]behenamide

>  <PUBCHEM_IUPAC_INCHI>
InChI=1S/C32H54N2O/c1-2-3-4-5-6-7-8-9-10-11-12-13-14-15-16-17-18-19-20-25-32(35)33-27-26-29-28-34-31-24-22-21-23-30(29)31/h21-24,28,34H,2-20,25-27H2,1H3,(H,33,35)

>  <PUBCHEM_IUPAC_INCHIKEY>
HAWFHRQOMIMGFR-UHFFFAOYSA-N

>  <PUBCHEM_XLOGP3>
12.4

>  <PUBCHEM_EXACT_MASS>
482.424

>  <PUBCHEM_MOLECULAR_FORMULA>
C32H54N2O

>  <PUBCHEM_MOLECULAR_WEIGHT>
482.797

>  <PUBCHEM_OPENEYE_CAN_SMILES>
CCCCCCCCCCCCCCCCCCCCCC(=O)NCCC1=CNC2=CC=CC=C21

>  <PUBCHEM_OPENEYE_ISO_SMILES>
CCCCCCCCCCCCCCCCCCCCCC(=O)NCCC1=CNC2=CC=CC=C21

>  <PUBCHEM_CACTVS_TPSA>
44.9

>  <PUBCHEM_MONOISOTOPIC_WEIGHT>
482.424

>  <PUBCHEM_TOTAL_CHARGE>
0

>  <PUBCHEM_HEAVY_ATOM_COUNT>
35

>  <PUBCHEM_ATOM_DEF_STEREO_COUNT>
0

>  <PUBCHEM_ATOM_UDEF_STEREO_COUNT>
0

>  <PUBCHEM_BOND_DEF_STEREO_COUNT>
0

>  <PUBCHEM_BOND_UDEF_STEREO_COUNT>
0

>  <PUBCHEM_ISOTOPIC_ATOM_COUNT>
0

>  <PUBCHEM_COMPONENT_COUNT>
1

>  <PUBCHEM_CACTVS_TAUTO_COUNT>
2

>  <PUBCHEM_COORDINATE_TYPE>
1
5
255

>  <PUBCHEM_BONDANNOTATIONS>
28  29  8
28  31  8
29  30  8
29  32  8
3  30  8
3  31  8
30  33  8
32  34  8
33  35  8
34  35  8

$$$$
