10338075
 OpenBabel06101807152D

 46 48  0  0  0  0  0  0  0  0999 V2000
   11.2251   -1.1897    0.0000 O   0  0  0  0  0  0  0  0  0  0  0  0
    7.7331   -1.1550    0.0000 O   0  0  0  0  0  0  0  0  0  0  0  0
    9.4651    1.8450    0.0000 O   0  0  0  0  0  0  0  0  0  0  0  0
    7.7331    1.8450    0.0000 O   0  0  0  0  0  0  0  0  0  0  0  0
    2.5369   -1.1550    0.0000 O   0  0  0  0  0  0  0  0  0  0  0  0
   12.1312   -0.6758    0.0000 C   0  0  0  0  0  0  0  0  0  0  0  0
   12.1312    0.3658    0.0000 C   0  0  0  0  0  0  0  0  0  0  0  0
   10.3312    0.3450    0.0000 C   0  0  0  0  0  0  0  0  0  0  0  0
   10.3312   -0.6550    0.0000 C   0  0  0  0  0  0  0  0  0  0  0  0
   13.1312   -0.6797    0.0000 C   0  0  0  0  0  0  0  0  0  0  0  0
   12.6278   -1.5438    0.0000 C   0  0  0  0  0  0  0  0  0  0  0  0
   11.2251    0.8797    0.0000 C   0  0  0  0  0  0  0  0  0  0  0  0
    9.4651    0.8450    0.0000 C   0  0  0  0  0  0  0  0  0  0  0  0
    9.4651   -1.1550    0.0000 C   0  0  0  0  0  0  0  0  0  0  0  0
    8.5991    0.3450    0.0000 C   0  0  0  0  0  0  0  0  0  0  0  0
    8.5991   -0.6550    0.0000 C   0  0  0  0  0  0  0  0  0  0  0  0
    7.7331    0.8450    0.0000 C   0  0  0  0  0  0  0  0  0  0  0  0
    6.8671    0.3450    0.0000 C   0  0  0  0  0  0  0  0  0  0  0  0
    6.0010    0.8450    0.0000 C   0  0  0  0  0  0  0  0  0  0  0  0
    7.7331   -2.1550    0.0000 C   0  0  0  0  0  0  0  0  0  0  0  0
    5.1350    0.3450    0.0000 C   0  0  0  0  0  0  0  0  0  0  0  0
    4.2690    0.8450    0.0000 C   0  0  0  0  0  0  0  0  0  0  0  0
    5.1350   -0.6550    0.0000 C   0  0  0  0  0  0  0  0  0  0  0  0
    3.4030    0.3450    0.0000 C   0  0  0  0  0  0  0  0  0  0  0  0
    4.2690   -1.1550    0.0000 C   0  0  0  0  0  0  0  0  0  0  0  0
    3.4030   -0.6550    0.0000 C   0  0  0  0  0  0  0  0  0  0  0  0
   12.6669    0.6779    0.0000 H   0  0  0  0  0  0  0  0  0  0  0  0
   13.1288   -1.2997    0.0000 H   0  0  0  0  0  0  0  0  0  0  0  0
   12.0897   -1.8517    0.0000 H   0  0  0  0  0  0  0  0  0  0  0  0
   12.9358   -2.0819    0.0000 H   0  0  0  0  0  0  0  0  0  0  0  0
   13.1660   -1.2358    0.0000 H   0  0  0  0  0  0  0  0  0  0  0  0
   13.7512   -0.6821    0.0000 H   0  0  0  0  0  0  0  0  0  0  0  0
   13.1336   -0.0597    0.0000 H   0  0  0  0  0  0  0  0  0  0  0  0
   11.2179    1.4996    0.0000 H   0  0  0  0  0  0  0  0  0  0  0  0
    9.4651   -1.7750    0.0000 H   0  0  0  0  0  0  0  0  0  0  0  0
   10.0021    2.1550    0.0000 H   0  0  0  0  0  0  0  0  0  0  0  0
    6.8671   -0.2750    0.0000 H   0  0  0  0  0  0  0  0  0  0  0  0
    6.0010    1.4650    0.0000 H   0  0  0  0  0  0  0  0  0  0  0  0
    7.1131   -2.1550    0.0000 H   0  0  0  0  0  0  0  0  0  0  0  0
    7.7331   -2.7750    0.0000 H   0  0  0  0  0  0  0  0  0  0  0  0
    8.3531   -2.1550    0.0000 H   0  0  0  0  0  0  0  0  0  0  0  0
    4.2690    1.4650    0.0000 H   0  0  0  0  0  0  0  0  0  0  0  0
    5.6720   -0.9650    0.0000 H   0  0  0  0  0  0  0  0  0  0  0  0
    2.8660    0.6550    0.0000 H   0  0  0  0  0  0  0  0  0  0  0  0
    4.2690   -1.7750    0.0000 H   0  0  0  0  0  0  0  0  0  0  0  0
    2.0000   -0.8450    0.0000 H   0  0  0  0  0  0  0  0  0  0  0  0
  1  6  1  0  0  0  0
  1  9  1  0  0  0  0
  2 16  1  0  0  0  0
  2 20  1  0  0  0  0
  3 13  1  0  0  0  0
  3 36  1  0  0  0  0
  4 17  2  0  0  0  0
  5 26  1  0  0  0  0
  5 46  1  0  0  0  0
  6  7  1  0  0  0  0
  6 10  1  0  0  0  0
  6 11  1  0  0  0  0
  7 12  2  0  0  0  0
  7 27  1  0  0  0  0
  8  9  1  0  0  0  0
  8 12  1  0  0  0  0
  8 13  2  0  0  0  0
  9 14  2  0  0  0  0
 10 28  1  0  0  0  0
 10 32  1  0  0  0  0
 10 33  1  0  0  0  0
 11 29  1  0  0  0  0
 11 30  1  0  0  0  0
 11 31  1  0  0  0  0
 12 34  1  0  0  0  0
 13 15  1  0  0  0  0
 14 16  1  0  0  0  0
 14 35  1  0  0  0  0
 15 16  2  0  0  0  0
 15 17  1  0  0  0  0
 17 18  1  0  0  0  0
 18 19  2  0  0  0  0
 18 37  1  0  0  0  0
 19 21  1  0  0  0  0
 19 38  1  0  0  0  0
 20 39  1  0  0  0  0
 20 40  1  0  0  0  0
 20 41  1  0  0  0  0
 21 22  2  0  0  0  0
 21 23  1  0  0  0  0
 22 24  1  0  0  0  0
 22 42  1  0  0  0  0
 23 25  2  0  0  0  0
 23 43  1  0  0  0  0
 24 26  2  0  0  0  0
 24 44  1  0  0  0  0
 25 26  1  0  0  0  0
 25 45  1  0  0  0  0
M  END
>  <PUBCHEM_COMPOUND_CID>
10338075

>  <PUBCHEM_COMPOUND_CANONICALIZED>
1

>  <PUBCHEM_CACTVS_COMPLEXITY>
559

>  <PUBCHEM_CACTVS_HBOND_ACCEPTOR>
5

>  <PUBCHEM_CACTVS_HBOND_DONOR>
2

>  <PUBCHEM_CACTVS_ROTATABLE_BOND>
4

>  <PUBCHEM_CACTVS_SUBSKEYS>
AAADceB4OAAAAAAAAAAAAAAAAAAAAAAAAAAwYIAAAAAAAACBQAAAGgAACAAADESAmAIyBoAABgCIAqBSAAACCAAkIAAIiAEGCMgMJzaGNRqCeWCl4BUIuYeI7OzOIAACCAAIAABAAAQQABAAAAAAAAAAAA==

>  <PUBCHEM_IUPAC_OPENEYE_NAME>
(E)-1-(5-hydroxy-7-methoxy-2,2-dimethyl-chromen-6-yl)-3-(4-hydroxyphenyl)prop-2-en-1-one

>  <PUBCHEM_IUPAC_CAS_NAME>
(E)-1-(5-hydroxy-7-methoxy-2,2-dimethyl-1-benzopyran-6-yl)-3-(4-hydroxyphenyl)-2-propen-1-one

>  <PUBCHEM_IUPAC_NAME>
(E)-1-(5-hydroxy-7-methoxy-2,2-dimethylchromen-6-yl)-3-(4-hydroxyphenyl)prop-2-en-1-one

>  <PUBCHEM_IUPAC_SYSTEMATIC_NAME>
(E)-3-(4-hydroxyphenyl)-1-(7-methoxy-2,2-dimethyl-5-oxidanyl-chromen-6-yl)prop-2-en-1-one

>  <PUBCHEM_IUPAC_TRADITIONAL_NAME>
(E)-1-(5-hydroxy-7-methoxy-2,2-dimethyl-chromen-6-yl)-3-(4-hydroxyphenyl)prop-2-en-1-one

>  <PUBCHEM_IUPAC_INCHI>
InChI=1S/C21H20O5/c1-21(2)11-10-15-17(26-21)12-18(25-3)19(20(15)24)16(23)9-6-13-4-7-14(22)8-5-13/h4-12,22,24H,1-3H3/b9-6+

>  <PUBCHEM_IUPAC_INCHIKEY>
CVMUWVCGBFJJFI-RMKNXTFCSA-N

>  <PUBCHEM_XLOGP3_AA>
4.4

>  <PUBCHEM_EXACT_MASS>
352.131

>  <PUBCHEM_MOLECULAR_FORMULA>
C21H20O5

>  <PUBCHEM_MOLECULAR_WEIGHT>
352.386

>  <PUBCHEM_OPENEYE_CAN_SMILES>
CC1(C=CC2=C(C(=C(C=C2O1)OC)C(=O)C=CC3=CC=C(C=C3)O)O)C

>  <PUBCHEM_OPENEYE_ISO_SMILES>
CC1(C=CC2=C(C(=C(C=C2O1)OC)C(=O)/C=C/C3=CC=C(C=C3)O)O)C

>  <PUBCHEM_CACTVS_TPSA>
76

>  <PUBCHEM_MONOISOTOPIC_WEIGHT>
352.131

>  <PUBCHEM_TOTAL_CHARGE>
0

>  <PUBCHEM_HEAVY_ATOM_COUNT>
26

>  <PUBCHEM_ATOM_DEF_STEREO_COUNT>
0

>  <PUBCHEM_ATOM_UDEF_STEREO_COUNT>
0

>  <PUBCHEM_BOND_DEF_STEREO_COUNT>
1

>  <PUBCHEM_BOND_UDEF_STEREO_COUNT>
0

>  <PUBCHEM_ISOTOPIC_ATOM_COUNT>
0

>  <PUBCHEM_COMPONENT_COUNT>
1

>  <PUBCHEM_CACTVS_TAUTO_COUNT>
24

>  <PUBCHEM_COORDINATE_TYPE>
1
5
255

>  <PUBCHEM_BONDANNOTATIONS>
13  15  8
14  16  8
15  16  8
21  22  8
21  23  8
22  24  8
23  25  8
24  26  8
25  26  8
8  13  8
8  9  8
9  14  8

$$$$
