10334385
 OpenBabel06101807152D

 35 37  0  0  0  0  0  0  0  0999 V2000
    6.1767    1.3156    0.0000 O   0  0  0  0  0  0  0  0  0  0  0  0
    8.2991    1.9147    0.0000 O   0  0  0  0  0  0  0  0  0  0  0  0
    9.6814    0.4031    0.0000 O   0  0  0  0  0  0  0  0  0  0  0  0
    4.0543    1.9147    0.0000 O   0  0  0  0  0  0  0  0  0  0  0  0
    2.6720    0.4031    0.0000 O   0  0  0  0  0  0  0  0  0  0  0  0
    9.0484   -1.5450    0.0000 O   0  0  0  0  0  0  0  0  0  0  0  0
    6.6767   -0.2232    0.0000 C   0  0  0  0  0  0  0  0  0  0  0  0
    5.6767   -0.2232    0.0000 C   0  0  0  0  0  0  0  0  0  0  0  0
    6.9857    0.7278    0.0000 C   0  0  0  0  0  0  0  0  0  0  0  0
    5.3677    0.7278    0.0000 C   0  0  0  0  0  0  0  0  0  0  0  0
    8.0011    0.9601    0.0000 C   0  0  0  0  0  0  0  0  0  0  0  0
    7.3617   -1.0079    0.0000 C   0  0  0  0  0  0  0  0  0  0  0  0
    4.9917   -1.0079    0.0000 C   0  0  0  0  0  0  0  0  0  0  0  0
    4.3523    0.9601    0.0000 C   0  0  0  0  0  0  0  0  0  0  0  0
    8.7040    0.1914    0.0000 C   0  0  0  0  0  0  0  0  0  0  0  0
    8.3822   -0.7992    0.0000 C   0  0  0  0  0  0  0  0  0  0  0  0
    3.6493    0.1914    0.0000 C   0  0  0  0  0  0  0  0  0  0  0  0
    3.9712   -0.7992    0.0000 C   0  0  0  0  0  0  0  0  0  0  0  0
    9.2748    2.1339    0.0000 C   0  0  0  0  0  0  0  0  0  0  0  0
   10.3534   -0.3375    0.0000 C   0  0  0  0  0  0  0  0  0  0  0  0
    2.0000   -0.3375    0.0000 C   0  0  0  0  0  0  0  0  0  0  0  0
    7.1633   -1.5954    0.0000 H   0  0  0  0  0  0  0  0  0  0  0  0
    5.1901   -1.5954    0.0000 H   0  0  0  0  0  0  0  0  0  0  0  0
    3.5581   -1.2616    0.0000 H   0  0  0  0  0  0  0  0  0  0  0  0
    3.4493    2.0506    0.0000 H   0  0  0  0  0  0  0  0  0  0  0  0
    8.8546   -2.1339    0.0000 H   0  0  0  0  0  0  0  0  0  0  0  0
    9.4107    1.5290    0.0000 H   0  0  0  0  0  0  0  0  0  0  0  0
    9.8797    2.2698    0.0000 H   0  0  0  0  0  0  0  0  0  0  0  0
    9.1389    2.7388    0.0000 H   0  0  0  0  0  0  0  0  0  0  0  0
    9.8942   -0.7541    0.0000 H   0  0  0  0  0  0  0  0  0  0  0  0
   10.7700   -0.7966    0.0000 H   0  0  0  0  0  0  0  0  0  0  0  0
   10.8125    0.0792    0.0000 H   0  0  0  0  0  0  0  0  0  0  0  0
    1.5408    0.0792    0.0000 H   0  0  0  0  0  0  0  0  0  0  0  0
    1.5834   -0.7966    0.0000 H   0  0  0  0  0  0  0  0  0  0  0  0
    2.4592   -0.7541    0.0000 H   0  0  0  0  0  0  0  0  0  0  0  0
  1  9  1  0  0  0  0
  1 10  1  0  0  0  0
  2 11  1  0  0  0  0
  2 19  1  0  0  0  0
  3 15  1  0  0  0  0
  3 20  1  0  0  0  0
  4 14  1  0  0  0  0
  4 25  1  0  0  0  0
  5 17  1  0  0  0  0
  5 21  1  0  0  0  0
  6 16  1  0  0  0  0
  6 26  1  0  0  0  0
  7  8  1  0  0  0  0
  7  9  1  0  0  0  0
  7 12  2  0  0  0  0
  8 10  2  0  0  0  0
  8 13  1  0  0  0  0
  9 11  2  0  0  0  0
 10 14  1  0  0  0  0
 11 15  1  0  0  0  0
 12 16  1  0  0  0  0
 12 22  1  0  0  0  0
 13 18  2  0  0  0  0
 13 23  1  0  0  0  0
 14 17  2  0  0  0  0
 15 16  2  0  0  0  0
 17 18  1  0  0  0  0
 18 24  1  0  0  0  0
 19 27  1  0  0  0  0
 19 28  1  0  0  0  0
 19 29  1  0  0  0  0
 20 30  1  0  0  0  0
 20 31  1  0  0  0  0
 20 32  1  0  0  0  0
 21 33  1  0  0  0  0
 21 34  1  0  0  0  0
 21 35  1  0  0  0  0
M  END
>  <PUBCHEM_COMPOUND_CID>
10334385

>  <PUBCHEM_COMPOUND_CANONICALIZED>
1

>  <PUBCHEM_CACTVS_COMPLEXITY>
364

>  <PUBCHEM_CACTVS_HBOND_ACCEPTOR>
6

>  <PUBCHEM_CACTVS_HBOND_DONOR>
2

>  <PUBCHEM_CACTVS_ROTATABLE_BOND>
3

>  <PUBCHEM_CACTVS_SUBSKEYS>
AAADccBwOAAAAAAAAAAAAAAAAAAAASAAAAAwYAAAAAAAAEgB/AAAGgAACAAADASAmAIyBsAABkCIAqBSAAICCAAkIAAIiAFGiMgNJzaGNB6CeWOl4BULuYfK7PzOoQABCAAIQABCAAIQABCAAAAAAAAAAA==

>  <PUBCHEM_IUPAC_OPENEYE_NAME>
3,4,7-trimethoxydibenzofuran-2,6-diol

>  <PUBCHEM_IUPAC_CAS_NAME>
3,4,7-trimethoxydibenzofuran-2,6-diol

>  <PUBCHEM_IUPAC_NAME>
3,4,7-trimethoxydibenzofuran-2,6-diol

>  <PUBCHEM_IUPAC_SYSTEMATIC_NAME>
3,4,7-trimethoxydibenzofuran-2,6-diol

>  <PUBCHEM_IUPAC_TRADITIONAL_NAME>
3,4,7-trimethoxydibenzofuran-2,6-diol

>  <PUBCHEM_IUPAC_INCHI>
InChI=1S/C15H14O6/c1-18-10-5-4-7-8-6-9(16)14(19-2)15(20-3)13(8)21-12(7)11(10)17/h4-6,16-17H,1-3H3

>  <PUBCHEM_IUPAC_INCHIKEY>
BWNWAKZIGLEKRI-UHFFFAOYSA-N

>  <PUBCHEM_XLOGP3_AA>
2.9

>  <PUBCHEM_EXACT_MASS>
290.079

>  <PUBCHEM_MOLECULAR_FORMULA>
C15H14O6

>  <PUBCHEM_MOLECULAR_WEIGHT>
290.271

>  <PUBCHEM_OPENEYE_CAN_SMILES>
COC1=C(C2=C(C=C1)C3=CC(=C(C(=C3O2)OC)OC)O)O

>  <PUBCHEM_OPENEYE_ISO_SMILES>
COC1=C(C2=C(C=C1)C3=CC(=C(C(=C3O2)OC)OC)O)O

>  <PUBCHEM_CACTVS_TPSA>
81.3

>  <PUBCHEM_MONOISOTOPIC_WEIGHT>
290.079

>  <PUBCHEM_TOTAL_CHARGE>
0

>  <PUBCHEM_HEAVY_ATOM_COUNT>
21

>  <PUBCHEM_ATOM_DEF_STEREO_COUNT>
0

>  <PUBCHEM_ATOM_UDEF_STEREO_COUNT>
0

>  <PUBCHEM_BOND_DEF_STEREO_COUNT>
0

>  <PUBCHEM_BOND_UDEF_STEREO_COUNT>
0

>  <PUBCHEM_ISOTOPIC_ATOM_COUNT>
0

>  <PUBCHEM_COMPONENT_COUNT>
1

>  <PUBCHEM_CACTVS_TAUTO_COUNT>
6

>  <PUBCHEM_COORDINATE_TYPE>
1
5
255

>  <PUBCHEM_BONDANNOTATIONS>
1  10  8
1  9  8
10  14  8
11  15  8
12  16  8
13  18  8
14  17  8
15  16  8
17  18  8
7  12  8
7  8  8
7  9  8
8  10  8
8  13  8
9  11  8

$$$$
