10342975
 OpenBabel06101807152D

 56 59  0  0  0  0  0  0  0  0999 V2000
    6.0682   -0.2704    0.0000 O   0  0  0  0  0  0  0  0  0  0  0  0
   10.4263   -1.8050    0.0000 O   0  0  0  0  0  0  0  0  0  0  0  0
    2.5381   -0.2945    0.0000 O   0  0  0  0  0  0  0  0  0  0  0  0
    4.3198    2.7642    0.0000 O   0  0  0  0  0  0  0  0  0  0  0  0
    7.8003    1.7296    0.0000 O   0  0  0  0  0  0  0  0  0  0  0  0
    8.6663   -2.7704    0.0000 O   0  0  0  0  0  0  0  0  0  0  0  0
    6.0682    2.7296    0.0000 O   0  0  0  0  0  0  0  0  0  0  0  0
    4.3198   -1.3050    0.0000 C   0  0  0  0  0  0  0  0  0  0  0  0
    4.3083   -0.3051    0.0000 C   0  0  0  0  0  0  0  0  0  0  0  0
    5.2022    0.2296    0.0000 C   0  0  0  0  0  0  0  0  0  0  0  0
   11.3324   -1.2912    0.0000 C   0  0  0  0  0  0  0  0  0  0  0  0
    3.3199   -1.3166    0.0000 C   0  0  0  0  0  0  0  0  0  0  0  0
    5.3198   -1.2934    0.0000 C   0  0  0  0  0  0  0  0  0  0  0  0
    5.2022    1.2296    0.0000 C   0  0  0  0  0  0  0  0  0  0  0  0
    3.4022    0.2088    0.0000 C   0  0  0  0  0  0  0  0  0  0  0  0
    4.3314   -2.3049    0.0000 C   0  0  0  0  0  0  0  0  0  0  0  0
    6.9343    0.2296    0.0000 C   0  0  0  0  0  0  0  0  0  0  0  0
    9.5323   -0.2704    0.0000 C   0  0  0  0  0  0  0  0  0  0  0  0
    7.8003   -0.2704    0.0000 C   0  0  0  0  0  0  0  0  0  0  0  0
    9.5323   -1.2704    0.0000 C   0  0  0  0  0  0  0  0  0  0  0  0
   11.3324   -0.2496    0.0000 C   0  0  0  0  0  0  0  0  0  0  0  0
    4.3083    1.7643    0.0000 C   0  0  0  0  0  0  0  0  0  0  0  0
    3.4022    1.2504    0.0000 C   0  0  0  0  0  0  0  0  0  0  0  0
    6.0682    1.7296    0.0000 C   0  0  0  0  0  0  0  0  0  0  0  0
    8.6663    0.2296    0.0000 C   0  0  0  0  0  0  0  0  0  0  0  0
    6.9343    1.2296    0.0000 C   0  0  0  0  0  0  0  0  0  0  0  0
   10.4263    0.2643    0.0000 C   0  0  0  0  0  0  0  0  0  0  0  0
   12.3324   -1.2951    0.0000 C   0  0  0  0  0  0  0  0  0  0  0  0
   11.8290   -2.1592    0.0000 C   0  0  0  0  0  0  0  0  0  0  0  0
    8.6663   -1.7704    0.0000 C   0  0  0  0  0  0  0  0  0  0  0  0
    7.8003   -1.2704    0.0000 C   0  0  0  0  0  0  0  0  0  0  0  0
    3.4712   -2.8149    0.0000 C   0  0  0  0  0  0  0  0  0  0  0  0
    5.3270   -1.9134    0.0000 H   0  0  0  0  0  0  0  0  0  0  0  0
    3.3128   -0.6966    0.0000 H   0  0  0  0  0  0  0  0  0  0  0  0
    2.7000   -1.3237    0.0000 H   0  0  0  0  0  0  0  0  0  0  0  0
    3.3271   -1.9365    0.0000 H   0  0  0  0  0  0  0  0  0  0  0  0
    5.9397   -1.2862    0.0000 H   0  0  0  0  0  0  0  0  0  0  0  0
    5.3126   -0.6735    0.0000 H   0  0  0  0  0  0  0  0  0  0  0  0
    4.8719   -2.6087    0.0000 H   0  0  0  0  0  0  0  0  0  0  0  0
   11.8681    0.0625    0.0000 H   0  0  0  0  0  0  0  0  0  0  0  0
    2.8665    1.5625    0.0000 H   0  0  0  0  0  0  0  0  0  0  0  0
    8.6663    0.8496    0.0000 H   0  0  0  0  0  0  0  0  0  0  0  0
   10.4191    0.8842    0.0000 H   0  0  0  0  0  0  0  0  0  0  0  0
   12.3300   -1.9151    0.0000 H   0  0  0  0  0  0  0  0  0  0  0  0
   11.2909   -2.4671    0.0000 H   0  0  0  0  0  0  0  0  0  0  0  0
   12.1369   -2.6973    0.0000 H   0  0  0  0  0  0  0  0  0  0  0  0
   12.3671   -1.8512    0.0000 H   0  0  0  0  0  0  0  0  0  0  0  0
   12.9524   -1.2974    0.0000 H   0  0  0  0  0  0  0  0  0  0  0  0
   12.3347   -0.6751    0.0000 H   0  0  0  0  0  0  0  0  0  0  0  0
    7.2634   -1.5804    0.0000 H   0  0  0  0  0  0  0  0  0  0  0  0
    2.9307   -2.5111    0.0000 H   0  0  0  0  0  0  0  0  0  0  0  0
    3.4784   -3.4349    0.0000 H   0  0  0  0  0  0  0  0  0  0  0  0
    2.0000    0.0134    0.0000 H   0  0  0  0  0  0  0  0  0  0  0  0
    3.7865    3.0804    0.0000 H   0  0  0  0  0  0  0  0  0  0  0  0
    7.8003    2.3496    0.0000 H   0  0  0  0  0  0  0  0  0  0  0  0
    8.1294   -3.0804    0.0000 H   0  0  0  0  0  0  0  0  0  0  0  0
  1 10  1  0  0  0  0
  1 17  1  0  0  0  0
  2 11  1  0  0  0  0
  2 20  1  0  0  0  0
  3 15  1  0  0  0  0
  3 53  1  0  0  0  0
  4 22  1  0  0  0  0
  4 54  1  0  0  0  0
  5 26  1  0  0  0  0
  5 55  1  0  0  0  0
  6 30  1  0  0  0  0
  6 56  1  0  0  0  0
  7 24  2  0  0  0  0
  8  9  1  0  0  0  0
  8 12  1  0  0  0  0
  8 13  1  0  0  0  0
  8 16  1  0  0  0  0
  9 10  1  0  0  0  0
  9 15  2  0  0  0  0
 10 14  2  0  0  0  0
 11 21  1  0  0  0  0
 11 28  1  0  0  0  0
 11 29  1  0  0  0  0
 12 34  1  0  0  0  0
 12 35  1  0  0  0  0
 12 36  1  0  0  0  0
 13 33  1  0  0  0  0
 13 37  1  0  0  0  0
 13 38  1  0  0  0  0
 14 22  1  0  0  0  0
 14 24  1  0  0  0  0
 15 23  1  0  0  0  0
 16 32  2  0  0  0  0
 16 39  1  0  0  0  0
 17 19  1  0  0  0  0
 17 26  2  0  0  0  0
 18 20  2  0  0  0  0
 18 25  1  0  0  0  0
 18 27  1  0  0  0  0
 19 25  2  0  0  0  0
 19 31  1  0  0  0  0
 20 30  1  0  0  0  0
 21 27  2  0  0  0  0
 21 40  1  0  0  0  0
 22 23  2  0  0  0  0
 23 41  1  0  0  0  0
 24 26  1  0  0  0  0
 25 42  1  0  0  0  0
 27 43  1  0  0  0  0
 28 44  1  0  0  0  0
 28 48  1  0  0  0  0
 28 49  1  0  0  0  0
 29 45  1  0  0  0  0
 29 46  1  0  0  0  0
 29 47  1  0  0  0  0
 30 31  2  0  0  0  0
 31 50  1  0  0  0  0
 32 51  1  0  0  0  0
 32 52  1  0  0  0  0
M  END
>  <PUBCHEM_COMPOUND_CID>
10342975

>  <PUBCHEM_COMPOUND_CANONICALIZED>
1

>  <PUBCHEM_CACTVS_COMPLEXITY>
841

>  <PUBCHEM_CACTVS_HBOND_ACCEPTOR>
7

>  <PUBCHEM_CACTVS_HBOND_DONOR>
4

>  <PUBCHEM_CACTVS_ROTATABLE_BOND>
3

>  <PUBCHEM_CACTVS_SUBSKEYS>
AAADceB4OAAAAAAAAAAAAAAAAAAAAAAAAAAwYIEAAAAAAACBQAAAGgAACAAADkSAmAAyBoAABgCIAqBSAAICCAAkIAAIiAFGiMgNJzaGNRqCeWOl4BULuQfI7PzPoAADCAAIQABAAAYQABCAAAAAAAAAAA==

>  <PUBCHEM_IUPAC_OPENEYE_NAME>
8-(1,1-dimethylallyl)-3,5,7-trihydroxy-2-(8-hydroxy-2,2-dimethyl-chromen-6-yl)chromen-4-one

>  <PUBCHEM_IUPAC_CAS_NAME>
3,5,7-trihydroxy-2-(8-hydroxy-2,2-dimethyl-1-benzopyran-6-yl)-8-(2-methylbut-3-en-2-yl)-1-benzopyran-4-one

>  <PUBCHEM_IUPAC_NAME>
3,5,7-trihydroxy-2-(8-hydroxy-2,2-dimethylchromen-6-yl)-8-(2-methylbut-3-en-2-yl)chromen-4-one

>  <PUBCHEM_IUPAC_SYSTEMATIC_NAME>
2-(2,2-dimethyl-8-oxidanyl-chromen-6-yl)-8-(2-methylbut-3-en-2-yl)-3,5,7-tris(oxidanyl)chromen-4-one

>  <PUBCHEM_IUPAC_TRADITIONAL_NAME>
8-(1,1-dimethylallyl)-3,5,7-trihydroxy-2-(8-hydroxy-2,2-dimethyl-chromen-6-yl)chromone

>  <PUBCHEM_IUPAC_INCHI>
InChI=1S/C25H24O7/c1-6-24(2,3)18-15(27)11-14(26)17-19(29)20(30)22(31-23(17)18)13-9-12-7-8-25(4,5)32-21(12)16(28)10-13/h6-11,26-28,30H,1H2,2-5H3

>  <PUBCHEM_IUPAC_INCHIKEY>
PSJXCDCTKCAYCB-UHFFFAOYSA-N

>  <PUBCHEM_XLOGP3_AA>
5.4

>  <PUBCHEM_EXACT_MASS>
436.152

>  <PUBCHEM_MOLECULAR_FORMULA>
C25H24O7

>  <PUBCHEM_MOLECULAR_WEIGHT>
436.46

>  <PUBCHEM_OPENEYE_CAN_SMILES>
CC1(C=CC2=C(O1)C(=CC(=C2)C3=C(C(=O)C4=C(O3)C(=C(C=C4O)O)C(C)(C)C=C)O)O)C

>  <PUBCHEM_OPENEYE_ISO_SMILES>
CC1(C=CC2=C(O1)C(=CC(=C2)C3=C(C(=O)C4=C(O3)C(=C(C=C4O)O)C(C)(C)C=C)O)O)C

>  <PUBCHEM_CACTVS_TPSA>
116

>  <PUBCHEM_MONOISOTOPIC_WEIGHT>
436.152

>  <PUBCHEM_TOTAL_CHARGE>
0

>  <PUBCHEM_HEAVY_ATOM_COUNT>
32

>  <PUBCHEM_ATOM_DEF_STEREO_COUNT>
0

>  <PUBCHEM_ATOM_UDEF_STEREO_COUNT>
0

>  <PUBCHEM_BOND_DEF_STEREO_COUNT>
0

>  <PUBCHEM_BOND_UDEF_STEREO_COUNT>
0

>  <PUBCHEM_ISOTOPIC_ATOM_COUNT>
0

>  <PUBCHEM_COMPONENT_COUNT>
1

>  <PUBCHEM_CACTVS_TAUTO_COUNT>
156

>  <PUBCHEM_COORDINATE_TYPE>
1
5
255

>  <PUBCHEM_BONDANNOTATIONS>
1  10  8
1  17  8
10  14  8
14  22  8
14  24  8
15  23  8
17  26  8
18  20  8
18  25  8
19  25  8
19  31  8
20  30  8
22  23  8
24  26  8
30  31  8
9  10  8
9  15  8

$$$$
