10355969
 OpenBabel06101807152D

 34 36  0  0  0  0  0  0  0  0999 V2000
    6.1767    1.3156    0.0000 O   0  0  0  0  0  0  0  0  0  0  0  0
    8.2991    1.9147    0.0000 O   0  0  0  0  0  0  0  0  0  0  0  0
    9.6814    0.4031    0.0000 O   0  0  0  0  0  0  0  0  0  0  0  0
    2.6720    0.4031    0.0000 O   0  0  0  0  0  0  0  0  0  0  0  0
    9.0484   -1.5450    0.0000 O   0  0  0  0  0  0  0  0  0  0  0  0
    6.6767   -0.2232    0.0000 C   0  0  0  0  0  0  0  0  0  0  0  0
    5.6767   -0.2232    0.0000 C   0  0  0  0  0  0  0  0  0  0  0  0
    6.9857    0.7278    0.0000 C   0  0  0  0  0  0  0  0  0  0  0  0
    5.3677    0.7278    0.0000 C   0  0  0  0  0  0  0  0  0  0  0  0
    8.0011    0.9601    0.0000 C   0  0  0  0  0  0  0  0  0  0  0  0
    7.3617   -1.0079    0.0000 C   0  0  0  0  0  0  0  0  0  0  0  0
    4.9917   -1.0079    0.0000 C   0  0  0  0  0  0  0  0  0  0  0  0
    8.7040    0.1914    0.0000 C   0  0  0  0  0  0  0  0  0  0  0  0
    8.3822   -0.7992    0.0000 C   0  0  0  0  0  0  0  0  0  0  0  0
    4.3523    0.9601    0.0000 C   0  0  0  0  0  0  0  0  0  0  0  0
    3.6493    0.1914    0.0000 C   0  0  0  0  0  0  0  0  0  0  0  0
    3.9712   -0.7992    0.0000 C   0  0  0  0  0  0  0  0  0  0  0  0
    9.2748    2.1339    0.0000 C   0  0  0  0  0  0  0  0  0  0  0  0
   10.3534   -0.3375    0.0000 C   0  0  0  0  0  0  0  0  0  0  0  0
    2.0000   -0.3375    0.0000 C   0  0  0  0  0  0  0  0  0  0  0  0
    7.1633   -1.5954    0.0000 H   0  0  0  0  0  0  0  0  0  0  0  0
    5.1901   -1.5954    0.0000 H   0  0  0  0  0  0  0  0  0  0  0  0
    4.1675    1.5519    0.0000 H   0  0  0  0  0  0  0  0  0  0  0  0
    3.5581   -1.2616    0.0000 H   0  0  0  0  0  0  0  0  0  0  0  0
    8.8546   -2.1339    0.0000 H   0  0  0  0  0  0  0  0  0  0  0  0
    9.4107    1.5290    0.0000 H   0  0  0  0  0  0  0  0  0  0  0  0
    9.8797    2.2698    0.0000 H   0  0  0  0  0  0  0  0  0  0  0  0
    9.1389    2.7388    0.0000 H   0  0  0  0  0  0  0  0  0  0  0  0
    9.8942   -0.7541    0.0000 H   0  0  0  0  0  0  0  0  0  0  0  0
   10.7700   -0.7966    0.0000 H   0  0  0  0  0  0  0  0  0  0  0  0
   10.8125    0.0792    0.0000 H   0  0  0  0  0  0  0  0  0  0  0  0
    1.5408    0.0792    0.0000 H   0  0  0  0  0  0  0  0  0  0  0  0
    1.5834   -0.7966    0.0000 H   0  0  0  0  0  0  0  0  0  0  0  0
    2.4592   -0.7541    0.0000 H   0  0  0  0  0  0  0  0  0  0  0  0
  1  8  1  0  0  0  0
  1  9  1  0  0  0  0
  2 10  1  0  0  0  0
  2 18  1  0  0  0  0
  3 13  1  0  0  0  0
  3 19  1  0  0  0  0
  4 16  1  0  0  0  0
  4 20  1  0  0  0  0
  5 14  1  0  0  0  0
  5 25  1  0  0  0  0
  6  7  1  0  0  0  0
  6  8  1  0  0  0  0
  6 11  2  0  0  0  0
  7  9  2  0  0  0  0
  7 12  1  0  0  0  0
  8 10  2  0  0  0  0
  9 15  1  0  0  0  0
 10 13  1  0  0  0  0
 11 14  1  0  0  0  0
 11 21  1  0  0  0  0
 12 17  2  0  0  0  0
 12 22  1  0  0  0  0
 13 14  2  0  0  0  0
 15 16  2  0  0  0  0
 15 23  1  0  0  0  0
 16 17  1  0  0  0  0
 17 24  1  0  0  0  0
 18 26  1  0  0  0  0
 18 27  1  0  0  0  0
 18 28  1  0  0  0  0
 19 29  1  0  0  0  0
 19 30  1  0  0  0  0
 19 31  1  0  0  0  0
 20 32  1  0  0  0  0
 20 33  1  0  0  0  0
 20 34  1  0  0  0  0
M  END
>  <PUBCHEM_COMPOUND_CID>
10355969

>  <PUBCHEM_COMPOUND_CANONICALIZED>
1

>  <PUBCHEM_CACTVS_COMPLEXITY>
336

>  <PUBCHEM_CACTVS_HBOND_ACCEPTOR>
5

>  <PUBCHEM_CACTVS_HBOND_DONOR>
1

>  <PUBCHEM_CACTVS_ROTATABLE_BOND>
3

>  <PUBCHEM_CACTVS_SUBSKEYS>
AAADccBwOAAAAAAAAAAAAAAAAAAAASAAAAAwYAAAAAAAAEgB/AAAGgAACAAADASAmAIyBsAABkCIAqBSAAICCAAkIAAIiAFGiMgNJzaGNR6CeWOl4BULuYfK7PzOoQABCAAIQABCAAIQABCAAAAAAAAAAA==

>  <PUBCHEM_IUPAC_OPENEYE_NAME>
3,4,7-trimethoxydibenzofuran-2-ol

>  <PUBCHEM_IUPAC_CAS_NAME>
3,4,7-trimethoxy-2-dibenzofuranol

>  <PUBCHEM_IUPAC_NAME>
3,4,7-trimethoxydibenzofuran-2-ol

>  <PUBCHEM_IUPAC_SYSTEMATIC_NAME>
3,4,7-trimethoxydibenzofuran-2-ol

>  <PUBCHEM_IUPAC_TRADITIONAL_NAME>
3,4,7-trimethoxydibenzofuran-2-ol

>  <PUBCHEM_IUPAC_INCHI>
InChI=1S/C15H14O5/c1-17-8-4-5-9-10-7-11(16)14(18-2)15(19-3)13(10)20-12(9)6-8/h4-7,16H,1-3H3

>  <PUBCHEM_IUPAC_INCHIKEY>
PFNUDHMNMHMVIV-UHFFFAOYSA-N

>  <PUBCHEM_XLOGP3_AA>
3.2

>  <PUBCHEM_EXACT_MASS>
274.084

>  <PUBCHEM_MOLECULAR_FORMULA>
C15H14O5

>  <PUBCHEM_MOLECULAR_WEIGHT>
274.272

>  <PUBCHEM_OPENEYE_CAN_SMILES>
COC1=CC2=C(C=C1)C3=CC(=C(C(=C3O2)OC)OC)O

>  <PUBCHEM_OPENEYE_ISO_SMILES>
COC1=CC2=C(C=C1)C3=CC(=C(C(=C3O2)OC)OC)O

>  <PUBCHEM_CACTVS_TPSA>
61.1

>  <PUBCHEM_MONOISOTOPIC_WEIGHT>
274.084

>  <PUBCHEM_TOTAL_CHARGE>
0

>  <PUBCHEM_HEAVY_ATOM_COUNT>
20

>  <PUBCHEM_ATOM_DEF_STEREO_COUNT>
0

>  <PUBCHEM_ATOM_UDEF_STEREO_COUNT>
0

>  <PUBCHEM_BOND_DEF_STEREO_COUNT>
0

>  <PUBCHEM_BOND_UDEF_STEREO_COUNT>
0

>  <PUBCHEM_ISOTOPIC_ATOM_COUNT>
0

>  <PUBCHEM_COMPONENT_COUNT>
1

>  <PUBCHEM_CACTVS_TAUTO_COUNT>
3

>  <PUBCHEM_COORDINATE_TYPE>
1
5
255

>  <PUBCHEM_BONDANNOTATIONS>
1  8  8
1  9  8
10  13  8
11  14  8
12  17  8
13  14  8
15  16  8
16  17  8
6  11  8
6  7  8
6  8  8
7  12  8
7  9  8
8  10  8
9  15  8

$$$$
