10366422
 OpenBabel06101807152D

 69 70  0  0  0  0  0  0  0  0999 V2000
    8.0622   -3.5950    0.0000 O   0  0  0  0  0  0  0  0  0  0  0  0
    8.9282    2.9050    0.0000 O   0  0  0  0  0  0  0  0  0  0  0  0
   11.5263   -3.5950    0.0000 O   0  0  0  0  0  0  0  0  0  0  0  0
   10.6603    3.9050    0.0000 O   0  0  0  0  0  0  0  0  0  0  0  0
    8.0622   -1.5950    0.0000 C   0  0  0  0  0  0  0  0  0  0  0  0
    8.9282   -2.0950    0.0000 C   0  0  0  0  0  0  0  0  0  0  0  0
    5.4641   -2.0950    0.0000 C   0  0  0  0  0  0  0  0  0  0  0  0
    6.3301   -1.5950    0.0000 C   0  0  0  0  0  0  0  0  0  0  0  0
    9.7942   -1.5950    0.0000 C   0  0  0  0  0  0  0  0  0  0  0  0
    7.1962   -2.0950    0.0000 C   0  0  0  0  0  0  0  0  0  0  0  0
    4.5981   -1.5950    0.0000 C   0  0  0  0  0  0  0  0  0  0  0  0
    9.7942    1.4050    0.0000 C   0  0  0  0  0  0  0  0  0  0  0  0
   10.6603    0.9050    0.0000 C   0  0  0  0  0  0  0  0  0  0  0  0
    8.9282   -3.0950    0.0000 C   0  0  0  0  0  0  0  0  0  0  0  0
    9.7942   -0.5950    0.0000 C   0  0  0  0  0  0  0  0  0  0  0  0
    8.9282    0.9050    0.0000 C   0  0  0  0  0  0  0  0  0  0  0  0
   10.6603   -2.0950    0.0000 C   0  0  0  0  0  0  0  0  0  0  0  0
    6.3301   -0.5950    0.0000 C   0  0  0  0  0  0  0  0  0  0  0  0
   10.6603   -0.0950    0.0000 C   0  0  0  0  0  0  0  0  0  0  0  0
    3.7320   -2.0950    0.0000 C   0  0  0  0  0  0  0  0  0  0  0  0
    9.7942   -3.5950    0.0000 C   0  0  0  0  0  0  0  0  0  0  0  0
    9.7942    2.4050    0.0000 C   0  0  0  0  0  0  0  0  0  0  0  0
   10.6603   -3.0950    0.0000 C   0  0  0  0  0  0  0  0  0  0  0  0
   11.5263    1.4050    0.0000 C   0  0  0  0  0  0  0  0  0  0  0  0
    8.0622    1.4050    0.0000 C   0  0  0  0  0  0  0  0  0  0  0  0
   10.6603    2.9050    0.0000 C   0  0  0  0  0  0  0  0  0  0  0  0
    2.8660   -1.5950    0.0000 C   0  0  0  0  0  0  0  0  0  0  0  0
   11.5263    2.4050    0.0000 C   0  0  0  0  0  0  0  0  0  0  0  0
    7.1962    0.9050    0.0000 C   0  0  0  0  0  0  0  0  0  0  0  0
    2.0000   -2.0950    0.0000 C   0  0  0  0  0  0  0  0  0  0  0  0
    2.8660   -0.5950    0.0000 C   0  0  0  0  0  0  0  0  0  0  0  0
    6.3301    1.4050    0.0000 C   0  0  0  0  0  0  0  0  0  0  0  0
    7.1962   -0.0950    0.0000 C   0  0  0  0  0  0  0  0  0  0  0  0
    8.4607   -1.1200    0.0000 H   0  0  0  0  0  0  0  0  0  0  0  0
    7.6636   -1.1200    0.0000 H   0  0  0  0  0  0  0  0  0  0  0  0
    5.0656   -2.5700    0.0000 H   0  0  0  0  0  0  0  0  0  0  0  0
    5.8626   -2.5700    0.0000 H   0  0  0  0  0  0  0  0  0  0  0  0
    7.1962   -2.7150    0.0000 H   0  0  0  0  0  0  0  0  0  0  0  0
    4.9966   -1.1200    0.0000 H   0  0  0  0  0  0  0  0  0  0  0  0
    4.1996   -1.1200    0.0000 H   0  0  0  0  0  0  0  0  0  0  0  0
    9.2573   -0.2850    0.0000 H   0  0  0  0  0  0  0  0  0  0  0  0
    8.5297    0.4301    0.0000 H   0  0  0  0  0  0  0  0  0  0  0  0
    9.3267    0.4301    0.0000 H   0  0  0  0  0  0  0  0  0  0  0  0
   11.1972   -1.7850    0.0000 H   0  0  0  0  0  0  0  0  0  0  0  0
    6.9501   -0.5950    0.0000 H   0  0  0  0  0  0  0  0  0  0  0  0
    6.3301    0.0250    0.0000 H   0  0  0  0  0  0  0  0  0  0  0  0
    5.7101   -0.5950    0.0000 H   0  0  0  0  0  0  0  0  0  0  0  0
   11.1972   -0.4050    0.0000 H   0  0  0  0  0  0  0  0  0  0  0  0
    3.7320   -2.7150    0.0000 H   0  0  0  0  0  0  0  0  0  0  0  0
    9.7942   -4.2150    0.0000 H   0  0  0  0  0  0  0  0  0  0  0  0
   12.0632    1.0950    0.0000 H   0  0  0  0  0  0  0  0  0  0  0  0
    8.0622    2.0250    0.0000 H   0  0  0  0  0  0  0  0  0  0  0  0
   12.0632    2.7150    0.0000 H   0  0  0  0  0  0  0  0  0  0  0  0
    8.0622   -4.2150    0.0000 H   0  0  0  0  0  0  0  0  0  0  0  0
    3.4860   -0.5950    0.0000 H   0  0  0  0  0  0  0  0  0  0  0  0
    2.8660    0.0250    0.0000 H   0  0  0  0  0  0  0  0  0  0  0  0
    2.2460   -0.5950    0.0000 H   0  0  0  0  0  0  0  0  0  0  0  0
    1.6900   -1.5581    0.0000 H   0  0  0  0  0  0  0  0  0  0  0  0
    1.4631   -2.4050    0.0000 H   0  0  0  0  0  0  0  0  0  0  0  0
    2.3100   -2.6319    0.0000 H   0  0  0  0  0  0  0  0  0  0  0  0
    6.6401    1.9419    0.0000 H   0  0  0  0  0  0  0  0  0  0  0  0
    5.7932    1.7150    0.0000 H   0  0  0  0  0  0  0  0  0  0  0  0
    6.0201    0.8681    0.0000 H   0  0  0  0  0  0  0  0  0  0  0  0
    6.5762   -0.0950    0.0000 H   0  0  0  0  0  0  0  0  0  0  0  0
    7.1962   -0.7150    0.0000 H   0  0  0  0  0  0  0  0  0  0  0  0
    7.8162   -0.0950    0.0000 H   0  0  0  0  0  0  0  0  0  0  0  0
    8.9282    3.5250    0.0000 H   0  0  0  0  0  0  0  0  0  0  0  0
   11.5263   -4.2150    0.0000 H   0  0  0  0  0  0  0  0  0  0  0  0
   11.1972    4.2150    0.0000 H   0  0  0  0  0  0  0  0  0  0  0  0
  1 14  1  0  0  0  0
  1 54  1  0  0  0  0
  2 22  1  0  0  0  0
  2 67  1  0  0  0  0
  3 23  1  0  0  0  0
  3 68  1  0  0  0  0
  4 26  1  0  0  0  0
  4 69  1  0  0  0  0
  5  6  1  0  0  0  0
  5 10  1  0  0  0  0
  5 34  1  0  0  0  0
  5 35  1  0  0  0  0
  6  9  2  0  0  0  0
  6 14  1  0  0  0  0
  7  8  1  0  0  0  0
  7 11  1  0  0  0  0
  7 36  1  0  0  0  0
  7 37  1  0  0  0  0
  8 10  2  0  0  0  0
  8 18  1  0  0  0  0
  9 15  1  0  0  0  0
  9 17  1  0  0  0  0
 10 38  1  0  0  0  0
 11 20  1  0  0  0  0
 11 39  1  0  0  0  0
 11 40  1  0  0  0  0
 12 13  2  0  0  0  0
 12 16  1  0  0  0  0
 12 22  1  0  0  0  0
 13 19  1  0  0  0  0
 13 24  1  0  0  0  0
 14 21  2  0  0  0  0
 15 19  2  0  0  0  0
 15 41  1  0  0  0  0
 16 25  1  0  0  0  0
 16 42  1  0  0  0  0
 16 43  1  0  0  0  0
 17 23  2  0  0  0  0
 17 44  1  0  0  0  0
 18 45  1  0  0  0  0
 18 46  1  0  0  0  0
 18 47  1  0  0  0  0
 19 48  1  0  0  0  0
 20 27  2  0  0  0  0
 20 49  1  0  0  0  0
 21 23  1  0  0  0  0
 21 50  1  0  0  0  0
 22 26  2  0  0  0  0
 24 28  2  0  0  0  0
 24 51  1  0  0  0  0
 25 29  2  0  0  0  0
 25 52  1  0  0  0  0
 26 28  1  0  0  0  0
 27 30  1  0  0  0  0
 27 31  1  0  0  0  0
 28 53  1  0  0  0  0
 29 32  1  0  0  0  0
 29 33  1  0  0  0  0
 30 58  1  0  0  0  0
 30 59  1  0  0  0  0
 30 60  1  0  0  0  0
 31 55  1  0  0  0  0
 31 56  1  0  0  0  0
 31 57  1  0  0  0  0
 32 61  1  0  0  0  0
 32 62  1  0  0  0  0
 32 63  1  0  0  0  0
 33 64  1  0  0  0  0
 33 65  1  0  0  0  0
 33 66  1  0  0  0  0
M  END
>  <PUBCHEM_COMPOUND_CID>
10366422

>  <PUBCHEM_COMPOUND_CANONICALIZED>
1

>  <PUBCHEM_CACTVS_COMPLEXITY>
711

>  <PUBCHEM_CACTVS_HBOND_ACCEPTOR>
4

>  <PUBCHEM_CACTVS_HBOND_DONOR>
4

>  <PUBCHEM_CACTVS_ROTATABLE_BOND>
9

>  <PUBCHEM_CACTVS_SUBSKEYS>
AAADcfB4OAAAAAAAAAAAAAAAAAAAAAAAAAAwYAAAAAAAAAABQAAAGgAACAAADASAmAAyBoAAAgCAAiBCAAACAAAgIAAIiAAGiIgJJyKCERKAcAElwBUJmAeA4LQOoAABCAAYQABAAAIQADCAAAAAAAAAAA==

>  <PUBCHEM_IUPAC_OPENEYE_NAME>
4-[(E)-2-[2-[(2E)-3,7-dimethylocta-2,6-dienyl]-3,5-dihydroxy-phenyl]vinyl]-3-(3-methylbut-2-enyl)benzene-1,2-diol

>  <PUBCHEM_IUPAC_CAS_NAME>
4-[(E)-2-[2-[(2E)-3,7-dimethylocta-2,6-dienyl]-3,5-dihydroxyphenyl]ethenyl]-3-(3-methylbut-2-enyl)benzene-1,2-diol

>  <PUBCHEM_IUPAC_NAME>
4-[(E)-2-[2-[(2E)-3,7-dimethylocta-2,6-dienyl]-3,5-dihydroxyphenyl]ethenyl]-3-(3-methylbut-2-enyl)benzene-1,2-diol

>  <PUBCHEM_IUPAC_SYSTEMATIC_NAME>
4-[(E)-2-[2-[(2E)-3,7-dimethylocta-2,6-dienyl]-3,5-bis(oxidanyl)phenyl]ethenyl]-3-(3-methylbut-2-enyl)benzene-1,2-diol

>  <PUBCHEM_IUPAC_TRADITIONAL_NAME>
4-[(E)-2-[2-[(2E)-3,7-dimethylocta-2,6-dienyl]-3,5-dihydroxy-phenyl]vinyl]-3-(3-methylbut-2-enyl)pyrocatechol

>  <PUBCHEM_IUPAC_INCHI>
InChI=1S/C29H36O4/c1-19(2)7-6-8-21(5)10-15-25-23(17-24(30)18-28(25)32)12-11-22-13-16-27(31)29(33)26(22)14-9-20(3)4/h7,9-13,16-18,30-33H,6,8,14-15H2,1-5H3/b12-11+,21-10+

>  <PUBCHEM_IUPAC_INCHIKEY>
LZRXMBPDNILKDO-ZVBRSKEYSA-N

>  <PUBCHEM_XLOGP3_AA>
8.5

>  <PUBCHEM_EXACT_MASS>
448.261

>  <PUBCHEM_MOLECULAR_FORMULA>
C29H36O4

>  <PUBCHEM_MOLECULAR_WEIGHT>
448.603

>  <PUBCHEM_OPENEYE_CAN_SMILES>
CC(=CCCC(=CCC1=C(C=C(C=C1C=CC2=C(C(=C(C=C2)O)O)CC=C(C)C)O)O)C)C

>  <PUBCHEM_OPENEYE_ISO_SMILES>
CC(=CCC/C(=C/CC1=C(C=C(C=C1/C=C/C2=C(C(=C(C=C2)O)O)CC=C(C)C)O)O)/C)C

>  <PUBCHEM_CACTVS_TPSA>
80.9

>  <PUBCHEM_MONOISOTOPIC_WEIGHT>
448.261

>  <PUBCHEM_TOTAL_CHARGE>
0

>  <PUBCHEM_HEAVY_ATOM_COUNT>
33

>  <PUBCHEM_ATOM_DEF_STEREO_COUNT>
0

>  <PUBCHEM_ATOM_UDEF_STEREO_COUNT>
0

>  <PUBCHEM_BOND_DEF_STEREO_COUNT>
2

>  <PUBCHEM_BOND_UDEF_STEREO_COUNT>
0

>  <PUBCHEM_ISOTOPIC_ATOM_COUNT>
0

>  <PUBCHEM_COMPONENT_COUNT>
1

>  <PUBCHEM_CACTVS_TAUTO_COUNT>
998

>  <PUBCHEM_COORDINATE_TYPE>
1
5
255

>  <PUBCHEM_BONDANNOTATIONS>
12  13  8
12  22  8
13  24  8
14  21  8
17  23  8
21  23  8
22  26  8
24  28  8
26  28  8
6  14  8
6  9  8
9  17  8

$$$$
