10368916
 OpenBabel06101807152D

 71 73  0  0  0  0  0  0  0  0999 V2000
    6.0682    0.5746    0.0000 O   0  0  0  0  0  0  0  0  0  0  0  0
   10.3984   -0.9254    0.0000 O   0  0  0  0  0  0  0  0  0  0  0  0
    7.8003    2.5746    0.0000 O   0  0  0  0  0  0  0  0  0  0  0  0
   10.3984    1.0746    0.0000 O   0  0  0  0  0  0  0  0  0  0  0  0
    4.3198    3.6092    0.0000 O   0  0  0  0  0  0  0  0  0  0  0  0
    2.5381    0.5505    0.0000 O   0  0  0  0  0  0  0  0  0  0  0  0
    6.0682    3.5746    0.0000 O   0  0  0  0  0  0  0  0  0  0  0  0
    7.8003   -0.4254    0.0000 C   0  0  0  0  0  0  0  0  0  0  0  0
    7.8003    0.5746    0.0000 C   0  0  0  0  0  0  0  0  0  0  0  0
    8.6663   -0.9254    0.0000 C   0  0  0  0  0  0  0  0  0  0  0  0
    6.9343    1.0746    0.0000 C   0  0  0  0  0  0  0  0  0  0  0  0
    6.9343   -0.9254    0.0000 C   0  0  0  0  0  0  0  0  0  0  0  0
    5.2022    1.0746    0.0000 C   0  0  0  0  0  0  0  0  0  0  0  0
    8.6663   -1.9254    0.0000 C   0  0  0  0  0  0  0  0  0  0  0  0
    5.2022    2.0746    0.0000 C   0  0  0  0  0  0  0  0  0  0  0  0
    9.5323   -0.4254    0.0000 C   0  0  0  0  0  0  0  0  0  0  0  0
    4.3083    0.5399    0.0000 C   0  0  0  0  0  0  0  0  0  0  0  0
    8.6663    1.0746    0.0000 C   0  0  0  0  0  0  0  0  0  0  0  0
    6.9343    2.0746    0.0000 C   0  0  0  0  0  0  0  0  0  0  0  0
    9.5323    0.5746    0.0000 C   0  0  0  0  0  0  0  0  0  0  0  0
    6.0682    2.5746    0.0000 C   0  0  0  0  0  0  0  0  0  0  0  0
    4.3198   -0.4600    0.0000 C   0  0  0  0  0  0  0  0  0  0  0  0
    4.3083    2.6093    0.0000 C   0  0  0  0  0  0  0  0  0  0  0  0
    6.9343   -1.9254    0.0000 C   0  0  0  0  0  0  0  0  0  0  0  0
    3.4022    1.0538    0.0000 C   0  0  0  0  0  0  0  0  0  0  0  0
    9.5323   -2.4254    0.0000 C   0  0  0  0  0  0  0  0  0  0  0  0
    3.4022    2.0954    0.0000 C   0  0  0  0  0  0  0  0  0  0  0  0
    6.0682   -2.4254    0.0000 C   0  0  0  0  0  0  0  0  0  0  0  0
    3.4597   -0.9700    0.0000 C   0  0  0  0  0  0  0  0  0  0  0  0
    9.5323   -3.4254    0.0000 C   0  0  0  0  0  0  0  0  0  0  0  0
    3.4712   -1.9699    0.0000 C   0  0  0  0  0  0  0  0  0  0  0  0
    6.0682   -3.4254    0.0000 C   0  0  0  0  0  0  0  0  0  0  0  0
    5.2022   -1.9254    0.0000 C   0  0  0  0  0  0  0  0  0  0  0  0
   10.3984   -3.9254    0.0000 C   0  0  0  0  0  0  0  0  0  0  0  0
    8.6663   -3.9254    0.0000 C   0  0  0  0  0  0  0  0  0  0  0  0
    2.6110   -2.4799    0.0000 C   0  0  0  0  0  0  0  0  0  0  0  0
    4.3430   -2.4598    0.0000 C   0  0  0  0  0  0  0  0  0  0  0  0
    6.7222   -0.3428    0.0000 H   0  0  0  0  0  0  0  0  0  0  0  0
    6.3237   -1.0330    0.0000 H   0  0  0  0  0  0  0  0  0  0  0  0
    8.0558   -1.8177    0.0000 H   0  0  0  0  0  0  0  0  0  0  0  0
    8.4543   -2.5080    0.0000 H   0  0  0  0  0  0  0  0  0  0  0  0
    8.6663    1.6946    0.0000 H   0  0  0  0  0  0  0  0  0  0  0  0
    4.5386   -1.0401    0.0000 H   0  0  0  0  0  0  0  0  0  0  0  0
    4.9291   -0.3453    0.0000 H   0  0  0  0  0  0  0  0  0  0  0  0
    7.4712   -2.2354    0.0000 H   0  0  0  0  0  0  0  0  0  0  0  0
   10.0693   -2.1154    0.0000 H   0  0  0  0  0  0  0  0  0  0  0  0
    2.8665    2.4075    0.0000 H   0  0  0  0  0  0  0  0  0  0  0  0
    2.9192   -0.6662    0.0000 H   0  0  0  0  0  0  0  0  0  0  0  0
   10.9353   -0.6154    0.0000 H   0  0  0  0  0  0  0  0  0  0  0  0
    7.8003    3.1946    0.0000 H   0  0  0  0  0  0  0  0  0  0  0  0
   10.3984    1.6946    0.0000 H   0  0  0  0  0  0  0  0  0  0  0  0
    5.4482   -3.4254    0.0000 H   0  0  0  0  0  0  0  0  0  0  0  0
    5.5122   -1.3885    0.0000 H   0  0  0  0  0  0  0  0  0  0  0  0
    4.6653   -1.6154    0.0000 H   0  0  0  0  0  0  0  0  0  0  0  0
    4.8922   -2.4623    0.0000 H   0  0  0  0  0  0  0  0  0  0  0  0
    6.0682   -4.0454    0.0000 H   0  0  0  0  0  0  0  0  0  0  0  0
    6.6882   -3.4254    0.0000 H   0  0  0  0  0  0  0  0  0  0  0  0
    8.3563   -3.3885    0.0000 H   0  0  0  0  0  0  0  0  0  0  0  0
    8.1294   -4.2354    0.0000 H   0  0  0  0  0  0  0  0  0  0  0  0
    8.9763   -4.4623    0.0000 H   0  0  0  0  0  0  0  0  0  0  0  0
   10.0884   -4.4623    0.0000 H   0  0  0  0  0  0  0  0  0  0  0  0
   10.9353   -4.2354    0.0000 H   0  0  0  0  0  0  0  0  0  0  0  0
   10.7084   -3.3885    0.0000 H   0  0  0  0  0  0  0  0  0  0  0  0
    3.7865    3.9254    0.0000 H   0  0  0  0  0  0  0  0  0  0  0  0
    2.0000    0.8584    0.0000 H   0  0  0  0  0  0  0  0  0  0  0  0
    2.2948   -1.9466    0.0000 H   0  0  0  0  0  0  0  0  0  0  0  0
    2.0777   -2.7961    0.0000 H   0  0  0  0  0  0  0  0  0  0  0  0
    2.9272   -3.0132    0.0000 H   0  0  0  0  0  0  0  0  0  0  0  0
    4.0392   -3.0003    0.0000 H   0  0  0  0  0  0  0  0  0  0  0  0
    4.8835   -2.7636    0.0000 H   0  0  0  0  0  0  0  0  0  0  0  0
    4.6468   -1.9194    0.0000 H   0  0  0  0  0  0  0  0  0  0  0  0
  1 11  1  0  0  0  0
  1 13  1  0  0  0  0
  2 16  1  0  0  0  0
  2 49  1  0  0  0  0
  3 19  1  0  0  0  0
  3 50  1  0  0  0  0
  4 20  1  0  0  0  0
  4 51  1  0  0  0  0
  5 23  1  0  0  0  0
  5 64  1  0  0  0  0
  6 25  1  0  0  0  0
  6 65  1  0  0  0  0
  7 21  2  0  0  0  0
  8  9  1  0  0  0  0
  8 10  2  0  0  0  0
  8 12  1  0  0  0  0
  9 11  1  0  0  0  0
  9 18  2  0  0  0  0
 10 14  1  0  0  0  0
 10 16  1  0  0  0  0
 11 19  2  0  0  0  0
 12 24  1  0  0  0  0
 12 38  1  0  0  0  0
 12 39  1  0  0  0  0
 13 15  1  0  0  0  0
 13 17  2  0  0  0  0
 14 26  1  0  0  0  0
 14 40  1  0  0  0  0
 14 41  1  0  0  0  0
 15 21  1  0  0  0  0
 15 23  2  0  0  0  0
 16 20  2  0  0  0  0
 17 22  1  0  0  0  0
 17 25  1  0  0  0  0
 18 20  1  0  0  0  0
 18 42  1  0  0  0  0
 19 21  1  0  0  0  0
 22 29  1  0  0  0  0
 22 43  1  0  0  0  0
 22 44  1  0  0  0  0
 23 27  1  0  0  0  0
 24 28  2  0  0  0  0
 24 45  1  0  0  0  0
 25 27  2  0  0  0  0
 26 30  2  0  0  0  0
 26 46  1  0  0  0  0
 27 47  1  0  0  0  0
 28 32  1  0  0  0  0
 28 33  1  0  0  0  0
 29 31  2  0  0  0  0
 29 48  1  0  0  0  0
 30 34  1  0  0  0  0
 30 35  1  0  0  0  0
 31 36  1  0  0  0  0
 31 37  1  0  0  0  0
 32 52  1  0  0  0  0
 32 56  1  0  0  0  0
 32 57  1  0  0  0  0
 33 53  1  0  0  0  0
 33 54  1  0  0  0  0
 33 55  1  0  0  0  0
 34 61  1  0  0  0  0
 34 62  1  0  0  0  0
 34 63  1  0  0  0  0
 35 58  1  0  0  0  0
 35 59  1  0  0  0  0
 35 60  1  0  0  0  0
 36 66  1  0  0  0  0
 36 67  1  0  0  0  0
 36 68  1  0  0  0  0
 37 69  1  0  0  0  0
 37 70  1  0  0  0  0
 37 71  1  0  0  0  0
M  END
>  <PUBCHEM_COMPOUND_CID>
10368916

>  <PUBCHEM_COMPOUND_CANONICALIZED>
1

>  <PUBCHEM_CACTVS_COMPLEXITY>
949

>  <PUBCHEM_CACTVS_HBOND_ACCEPTOR>
7

>  <PUBCHEM_CACTVS_HBOND_DONOR>
5

>  <PUBCHEM_CACTVS_ROTATABLE_BOND>
7

>  <PUBCHEM_CACTVS_SUBSKEYS>
AAADcfB4OAAAAAAAAAAAAAAAAAAAAAAAAAAwYIAAAAAAAACBQAAAGgAACAAADASAmAAyBoAABgCIAqBSAAICCAAkIAAAiAFGiMgNJzaGNRqCeWGl4BUJuQfI7PzOoAADCAAYQABAAAYQADCAAAAAAAAAAA==

>  <PUBCHEM_IUPAC_OPENEYE_NAME>
2-[4,5-dihydroxy-2,3-bis(3-methylbut-2-enyl)phenyl]-3,5,7-trihydroxy-8-(3-methylbut-2-enyl)chromen-4-one

>  <PUBCHEM_IUPAC_CAS_NAME>
2-[4,5-dihydroxy-2,3-bis(3-methylbut-2-enyl)phenyl]-3,5,7-trihydroxy-8-(3-methylbut-2-enyl)-1-benzopyran-4-one

>  <PUBCHEM_IUPAC_NAME>
2-[4,5-dihydroxy-2,3-bis(3-methylbut-2-enyl)phenyl]-3,5,7-trihydroxy-8-(3-methylbut-2-enyl)chromen-4-one

>  <PUBCHEM_IUPAC_SYSTEMATIC_NAME>
2-[2,3-bis(3-methylbut-2-enyl)-4,5-bis(oxidanyl)phenyl]-8-(3-methylbut-2-enyl)-3,5,7-tris(oxidanyl)chromen-4-one

>  <PUBCHEM_IUPAC_TRADITIONAL_NAME>
2-[4,5-dihydroxy-2,3-bis(3-methylbut-2-enyl)phenyl]-3,5,7-trihydroxy-8-(3-methylbut-2-enyl)chromone

>  <PUBCHEM_IUPAC_INCHI>
InChI=1S/C30H34O7/c1-15(2)7-10-18-19(11-8-16(3)4)26(34)24(33)13-21(18)30-28(36)27(35)25-23(32)14-22(31)20(29(25)37-30)12-9-17(5)6/h7-9,13-14,31-34,36H,10-12H2,1-6H3

>  <PUBCHEM_IUPAC_INCHIKEY>
XYNNBNIJZARIJF-UHFFFAOYSA-N

>  <PUBCHEM_XLOGP3_AA>
7.9

>  <PUBCHEM_EXACT_MASS>
506.23

>  <PUBCHEM_MOLECULAR_FORMULA>
C30H34O7

>  <PUBCHEM_MOLECULAR_WEIGHT>
506.595

>  <PUBCHEM_OPENEYE_CAN_SMILES>
CC(=CCC1=C(C(=C(C=C1C2=C(C(=O)C3=C(O2)C(=C(C=C3O)O)CC=C(C)C)O)O)O)CC=C(C)C)C

>  <PUBCHEM_OPENEYE_ISO_SMILES>
CC(=CCC1=C(C(=C(C=C1C2=C(C(=O)C3=C(O2)C(=C(C=C3O)O)CC=C(C)C)O)O)O)CC=C(C)C)C

>  <PUBCHEM_CACTVS_TPSA>
127

>  <PUBCHEM_MONOISOTOPIC_WEIGHT>
506.23

>  <PUBCHEM_TOTAL_CHARGE>
0

>  <PUBCHEM_HEAVY_ATOM_COUNT>
37

>  <PUBCHEM_ATOM_DEF_STEREO_COUNT>
0

>  <PUBCHEM_ATOM_UDEF_STEREO_COUNT>
0

>  <PUBCHEM_BOND_DEF_STEREO_COUNT>
0

>  <PUBCHEM_BOND_UDEF_STEREO_COUNT>
0

>  <PUBCHEM_ISOTOPIC_ATOM_COUNT>
0

>  <PUBCHEM_COMPONENT_COUNT>
1

>  <PUBCHEM_CACTVS_TAUTO_COUNT>
998

>  <PUBCHEM_COORDINATE_TYPE>
1
5
255

>  <PUBCHEM_BONDANNOTATIONS>
1  11  8
1  13  8
10  16  8
11  19  8
13  15  8
13  17  8
15  21  8
15  23  8
16  20  8
17  25  8
18  20  8
19  21  8
23  27  8
25  27  8
8  10  8
8  9  8
9  18  8

$$$$
