10365850
 OpenBabel06101807152D

 58 60  0  0  0  0  0  0  0  0999 V2000
    6.0682    0.5746    0.0000 O   0  0  0  0  0  0  0  0  0  0  0  0
    2.5381    0.5505    0.0000 O   0  0  0  0  0  0  0  0  0  0  0  0
    7.8003    2.5746    0.0000 O   0  0  0  0  0  0  0  0  0  0  0  0
    4.3198    3.6092    0.0000 O   0  0  0  0  0  0  0  0  0  0  0  0
    6.0682    3.5746    0.0000 O   0  0  0  0  0  0  0  0  0  0  0  0
   10.3984   -0.9254    0.0000 O   0  0  0  0  0  0  0  0  0  0  0  0
   10.3984    1.0746    0.0000 O   0  0  0  0  0  0  0  0  0  0  0  0
    5.2022    1.0746    0.0000 C   0  0  0  0  0  0  0  0  0  0  0  0
    4.3083    0.5399    0.0000 C   0  0  0  0  0  0  0  0  0  0  0  0
    5.2022    2.0746    0.0000 C   0  0  0  0  0  0  0  0  0  0  0  0
    6.9343    1.0746    0.0000 C   0  0  0  0  0  0  0  0  0  0  0  0
    4.3198   -0.4600    0.0000 C   0  0  0  0  0  0  0  0  0  0  0  0
    7.8003    0.5746    0.0000 C   0  0  0  0  0  0  0  0  0  0  0  0
    3.4022    1.0538    0.0000 C   0  0  0  0  0  0  0  0  0  0  0  0
    6.0682    2.5746    0.0000 C   0  0  0  0  0  0  0  0  0  0  0  0
    6.9343    2.0746    0.0000 C   0  0  0  0  0  0  0  0  0  0  0  0
    4.3083    2.6093    0.0000 C   0  0  0  0  0  0  0  0  0  0  0  0
    8.6663   -0.9254    0.0000 C   0  0  0  0  0  0  0  0  0  0  0  0
    7.8003   -0.4254    0.0000 C   0  0  0  0  0  0  0  0  0  0  0  0
    3.4022    2.0954    0.0000 C   0  0  0  0  0  0  0  0  0  0  0  0
    8.6663   -1.9254    0.0000 C   0  0  0  0  0  0  0  0  0  0  0  0
    8.6663    1.0746    0.0000 C   0  0  0  0  0  0  0  0  0  0  0  0
    9.5323   -0.4254    0.0000 C   0  0  0  0  0  0  0  0  0  0  0  0
    3.4597   -0.9700    0.0000 C   0  0  0  0  0  0  0  0  0  0  0  0
    9.5323    0.5746    0.0000 C   0  0  0  0  0  0  0  0  0  0  0  0
    3.4712   -1.9699    0.0000 C   0  0  0  0  0  0  0  0  0  0  0  0
    9.5323   -2.4254    0.0000 C   0  0  0  0  0  0  0  0  0  0  0  0
    9.5323   -3.4254    0.0000 C   0  0  0  0  0  0  0  0  0  0  0  0
    2.6110   -2.4799    0.0000 C   0  0  0  0  0  0  0  0  0  0  0  0
    4.3430   -2.4598    0.0000 C   0  0  0  0  0  0  0  0  0  0  0  0
   10.3984   -3.9254    0.0000 C   0  0  0  0  0  0  0  0  0  0  0  0
    8.6663   -3.9254    0.0000 C   0  0  0  0  0  0  0  0  0  0  0  0
    4.5386   -1.0401    0.0000 H   0  0  0  0  0  0  0  0  0  0  0  0
    4.9291   -0.3453    0.0000 H   0  0  0  0  0  0  0  0  0  0  0  0
    7.2634   -0.7354    0.0000 H   0  0  0  0  0  0  0  0  0  0  0  0
    2.8665    2.4075    0.0000 H   0  0  0  0  0  0  0  0  0  0  0  0
    8.0558   -1.8177    0.0000 H   0  0  0  0  0  0  0  0  0  0  0  0
    8.4543   -2.5080    0.0000 H   0  0  0  0  0  0  0  0  0  0  0  0
    8.6663    1.6946    0.0000 H   0  0  0  0  0  0  0  0  0  0  0  0
    2.9192   -0.6662    0.0000 H   0  0  0  0  0  0  0  0  0  0  0  0
   10.0693   -2.1154    0.0000 H   0  0  0  0  0  0  0  0  0  0  0  0
    2.0000    0.8584    0.0000 H   0  0  0  0  0  0  0  0  0  0  0  0
    7.8003    3.1946    0.0000 H   0  0  0  0  0  0  0  0  0  0  0  0
    3.7865    3.9254    0.0000 H   0  0  0  0  0  0  0  0  0  0  0  0
    4.0392   -3.0003    0.0000 H   0  0  0  0  0  0  0  0  0  0  0  0
    4.8835   -2.7636    0.0000 H   0  0  0  0  0  0  0  0  0  0  0  0
    4.6468   -1.9194    0.0000 H   0  0  0  0  0  0  0  0  0  0  0  0
    2.2948   -1.9466    0.0000 H   0  0  0  0  0  0  0  0  0  0  0  0
    2.0777   -2.7961    0.0000 H   0  0  0  0  0  0  0  0  0  0  0  0
    2.9272   -3.0132    0.0000 H   0  0  0  0  0  0  0  0  0  0  0  0
   10.9353   -0.6154    0.0000 H   0  0  0  0  0  0  0  0  0  0  0  0
   10.3984    1.6946    0.0000 H   0  0  0  0  0  0  0  0  0  0  0  0
   10.0884   -4.4623    0.0000 H   0  0  0  0  0  0  0  0  0  0  0  0
   10.9353   -4.2354    0.0000 H   0  0  0  0  0  0  0  0  0  0  0  0
   10.7084   -3.3885    0.0000 H   0  0  0  0  0  0  0  0  0  0  0  0
    8.3563   -3.3885    0.0000 H   0  0  0  0  0  0  0  0  0  0  0  0
    8.1294   -4.2354    0.0000 H   0  0  0  0  0  0  0  0  0  0  0  0
    8.9763   -4.4623    0.0000 H   0  0  0  0  0  0  0  0  0  0  0  0
  1  8  1  0  0  0  0
  1 11  1  0  0  0  0
  2 14  1  0  0  0  0
  2 42  1  0  0  0  0
  3 16  1  0  0  0  0
  3 43  1  0  0  0  0
  4 17  1  0  0  0  0
  4 44  1  0  0  0  0
  5 15  2  0  0  0  0
  6 23  1  0  0  0  0
  6 51  1  0  0  0  0
  7 25  1  0  0  0  0
  7 52  1  0  0  0  0
  8  9  1  0  0  0  0
  8 10  2  0  0  0  0
  9 12  1  0  0  0  0
  9 14  2  0  0  0  0
 10 15  1  0  0  0  0
 10 17  1  0  0  0  0
 11 13  1  0  0  0  0
 11 16  2  0  0  0  0
 12 24  1  0  0  0  0
 12 33  1  0  0  0  0
 12 34  1  0  0  0  0
 13 19  2  0  0  0  0
 13 22  1  0  0  0  0
 14 20  1  0  0  0  0
 15 16  1  0  0  0  0
 17 20  2  0  0  0  0
 18 19  1  0  0  0  0
 18 21  1  0  0  0  0
 18 23  2  0  0  0  0
 19 35  1  0  0  0  0
 20 36  1  0  0  0  0
 21 27  1  0  0  0  0
 21 37  1  0  0  0  0
 21 38  1  0  0  0  0
 22 25  2  0  0  0  0
 22 39  1  0  0  0  0
 23 25  1  0  0  0  0
 24 26  2  0  0  0  0
 24 40  1  0  0  0  0
 26 29  1  0  0  0  0
 26 30  1  0  0  0  0
 27 28  2  0  0  0  0
 27 41  1  0  0  0  0
 28 31  1  0  0  0  0
 28 32  1  0  0  0  0
 29 48  1  0  0  0  0
 29 49  1  0  0  0  0
 29 50  1  0  0  0  0
 30 45  1  0  0  0  0
 30 46  1  0  0  0  0
 30 47  1  0  0  0  0
 31 53  1  0  0  0  0
 31 54  1  0  0  0  0
 31 55  1  0  0  0  0
 32 56  1  0  0  0  0
 32 57  1  0  0  0  0
 32 58  1  0  0  0  0
M  END
>  <PUBCHEM_COMPOUND_CID>
10365850

>  <PUBCHEM_COMPOUND_CANONICALIZED>
1

>  <PUBCHEM_CACTVS_COMPLEXITY>
790

>  <PUBCHEM_CACTVS_HBOND_ACCEPTOR>
7

>  <PUBCHEM_CACTVS_HBOND_DONOR>
5

>  <PUBCHEM_CACTVS_ROTATABLE_BOND>
5

>  <PUBCHEM_CACTVS_SUBSKEYS>
AAADceB4OAAAAAAAAAAAAAAAAAAAAAAAAAAwYIAAAAAAAACBQAAAGgAACAAADASAmAAyBoAABgCIAqBSAAICCAAkIAAAiAFGiMgNJzaGNRqCeWGl4BUJuQfI7PzOIAADCAAIQABAAAYQABCAAAAAAAAAAA==

>  <PUBCHEM_IUPAC_OPENEYE_NAME>
2-[3,4-dihydroxy-5-(3-methylbut-2-enyl)phenyl]-3,5,7-trihydroxy-8-(3-methylbut-2-enyl)chromen-4-one

>  <PUBCHEM_IUPAC_CAS_NAME>
2-[3,4-dihydroxy-5-(3-methylbut-2-enyl)phenyl]-3,5,7-trihydroxy-8-(3-methylbut-2-enyl)-1-benzopyran-4-one

>  <PUBCHEM_IUPAC_NAME>
2-[3,4-dihydroxy-5-(3-methylbut-2-enyl)phenyl]-3,5,7-trihydroxy-8-(3-methylbut-2-enyl)chromen-4-one

>  <PUBCHEM_IUPAC_SYSTEMATIC_NAME>
8-(3-methylbut-2-enyl)-2-[3-(3-methylbut-2-enyl)-4,5-bis(oxidanyl)phenyl]-3,5,7-tris(oxidanyl)chromen-4-one

>  <PUBCHEM_IUPAC_TRADITIONAL_NAME>
2-[3,4-dihydroxy-5-(3-methylbut-2-enyl)phenyl]-3,5,7-trihydroxy-8-(3-methylbut-2-enyl)chromone

>  <PUBCHEM_IUPAC_INCHI>
InChI=1S/C25H26O7/c1-12(2)5-7-14-9-15(10-19(28)21(14)29)24-23(31)22(30)20-18(27)11-17(26)16(25(20)32-24)8-6-13(3)4/h5-6,9-11,26-29,31H,7-8H2,1-4H3

>  <PUBCHEM_IUPAC_INCHIKEY>
XFBBCGNJNJKLKS-UHFFFAOYSA-N

>  <PUBCHEM_XLOGP3_AA>
6

>  <PUBCHEM_EXACT_MASS>
438.168

>  <PUBCHEM_MOLECULAR_FORMULA>
C25H26O7

>  <PUBCHEM_MOLECULAR_WEIGHT>
438.476

>  <PUBCHEM_OPENEYE_CAN_SMILES>
CC(=CCC1=C(C(=CC(=C1)C2=C(C(=O)C3=C(O2)C(=C(C=C3O)O)CC=C(C)C)O)O)O)C

>  <PUBCHEM_OPENEYE_ISO_SMILES>
CC(=CCC1=C(C(=CC(=C1)C2=C(C(=O)C3=C(O2)C(=C(C=C3O)O)CC=C(C)C)O)O)O)C

>  <PUBCHEM_CACTVS_TPSA>
127

>  <PUBCHEM_MONOISOTOPIC_WEIGHT>
438.168

>  <PUBCHEM_TOTAL_CHARGE>
0

>  <PUBCHEM_HEAVY_ATOM_COUNT>
32

>  <PUBCHEM_ATOM_DEF_STEREO_COUNT>
0

>  <PUBCHEM_ATOM_UDEF_STEREO_COUNT>
0

>  <PUBCHEM_BOND_DEF_STEREO_COUNT>
0

>  <PUBCHEM_BOND_UDEF_STEREO_COUNT>
0

>  <PUBCHEM_ISOTOPIC_ATOM_COUNT>
0

>  <PUBCHEM_COMPONENT_COUNT>
1

>  <PUBCHEM_CACTVS_TAUTO_COUNT>
998

>  <PUBCHEM_COORDINATE_TYPE>
1
5
255

>  <PUBCHEM_BONDANNOTATIONS>
1  11  8
1  8  8
10  15  8
10  17  8
11  16  8
13  19  8
13  22  8
14  20  8
15  16  8
17  20  8
18  19  8
18  23  8
22  25  8
23  25  8
8  10  8
8  9  8
9  14  8

$$$$
