10379136
 OpenBabel06101807152D

 37 38  0  0  0  0  0  0  0  0999 V2000
    2.8660   -0.5950    0.0000 O   0  0  0  0  0  0  0  0  0  0  0  0
    6.3301   -0.5950    0.0000 O   0  0  0  0  0  0  0  0  0  0  0  0
    4.5981   -3.5950    0.0000 O   0  0  0  0  0  0  0  0  0  0  0  0
    3.7320    0.9050    0.0000 O   0  0  0  0  0  0  0  0  0  0  0  0
    4.5981   -0.5950    0.0000 C   0  0  0  0  0  0  0  0  0  0  0  0
    3.7320   -2.0950    0.0000 C   0  0  0  0  0  0  0  0  0  0  0  0
    3.7320   -1.0950    0.0000 C   0  0  0  0  0  0  0  0  0  0  0  0
    5.4641   -1.0950    0.0000 C   0  0  0  0  0  0  0  0  0  0  0  0
    4.5981   -2.5950    0.0000 C   0  0  0  0  0  0  0  0  0  0  0  0
    5.4641   -2.0950    0.0000 C   0  0  0  0  0  0  0  0  0  0  0  0
    4.5981    0.4050    0.0000 C   0  0  0  0  0  0  0  0  0  0  0  0
    2.8660   -2.5950    0.0000 C   0  0  0  0  0  0  0  0  0  0  0  0
    5.4641    0.9050    0.0000 C   0  0  0  0  0  0  0  0  0  0  0  0
    6.3301    2.4050    0.0000 C   0  0  0  0  0  0  0  0  0  0  0  0
    5.4641    1.9050    0.0000 C   0  0  0  0  0  0  0  0  0  0  0  0
    2.0000   -1.0950    0.0000 C   0  0  0  0  0  0  0  0  0  0  0  0
    6.3301    3.4050    0.0000 C   0  0  0  0  0  0  0  0  0  0  0  0
    7.1962    1.9050    0.0000 C   0  0  0  0  0  0  0  0  0  0  0  0
    7.1962    3.9050    0.0000 C   0  0  0  0  0  0  0  0  0  0  0  0
    8.0622    2.4050    0.0000 C   0  0  0  0  0  0  0  0  0  0  0  0
    8.0622    3.4050    0.0000 C   0  0  0  0  0  0  0  0  0  0  0  0
    6.0010   -2.4050    0.0000 H   0  0  0  0  0  0  0  0  0  0  0  0
    2.5560   -2.0581    0.0000 H   0  0  0  0  0  0  0  0  0  0  0  0
    2.3291   -2.9050    0.0000 H   0  0  0  0  0  0  0  0  0  0  0  0
    3.1760   -3.1319    0.0000 H   0  0  0  0  0  0  0  0  0  0  0  0
    6.0010    0.5950    0.0000 H   0  0  0  0  0  0  0  0  0  0  0  0
    4.9272    2.2150    0.0000 H   0  0  0  0  0  0  0  0  0  0  0  0
    6.8671   -0.9050    0.0000 H   0  0  0  0  0  0  0  0  0  0  0  0
    5.1350   -3.9050    0.0000 H   0  0  0  0  0  0  0  0  0  0  0  0
    1.6900   -0.5581    0.0000 H   0  0  0  0  0  0  0  0  0  0  0  0
    1.4631   -1.4050    0.0000 H   0  0  0  0  0  0  0  0  0  0  0  0
    2.3100   -1.6319    0.0000 H   0  0  0  0  0  0  0  0  0  0  0  0
    5.7932    3.7150    0.0000 H   0  0  0  0  0  0  0  0  0  0  0  0
    7.1962    1.2850    0.0000 H   0  0  0  0  0  0  0  0  0  0  0  0
    7.1962    4.5250    0.0000 H   0  0  0  0  0  0  0  0  0  0  0  0
    8.5991    2.0950    0.0000 H   0  0  0  0  0  0  0  0  0  0  0  0
    8.5991    3.7150    0.0000 H   0  0  0  0  0  0  0  0  0  0  0  0
  1  7  1  0  0  0  0
  1 16  1  0  0  0  0
  2  8  1  0  0  0  0
  2 28  1  0  0  0  0
  3  9  1  0  0  0  0
  3 29  1  0  0  0  0
  4 11  2  0  0  0  0
  5  7  1  0  0  0  0
  5  8  2  0  0  0  0
  5 11  1  0  0  0  0
  6  7  2  0  0  0  0
  6  9  1  0  0  0  0
  6 12  1  0  0  0  0
  8 10  1  0  0  0  0
  9 10  2  0  0  0  0
 10 22  1  0  0  0  0
 11 13  1  0  0  0  0
 12 23  1  0  0  0  0
 12 24  1  0  0  0  0
 12 25  1  0  0  0  0
 13 15  2  0  0  0  0
 13 26  1  0  0  0  0
 14 15  1  0  0  0  0
 14 17  2  0  0  0  0
 14 18  1  0  0  0  0
 15 27  1  0  0  0  0
 16 30  1  0  0  0  0
 16 31  1  0  0  0  0
 16 32  1  0  0  0  0
 17 19  1  0  0  0  0
 17 33  1  0  0  0  0
 18 20  2  0  0  0  0
 18 34  1  0  0  0  0
 19 21  2  0  0  0  0
 19 35  1  0  0  0  0
 20 21  1  0  0  0  0
 20 36  1  0  0  0  0
 21 37  1  0  0  0  0
M  END
>  <PUBCHEM_COMPOUND_CID>
10379136

>  <PUBCHEM_COMPOUND_CANONICALIZED>
1

>  <PUBCHEM_CACTVS_COMPLEXITY>
373

>  <PUBCHEM_CACTVS_HBOND_ACCEPTOR>
4

>  <PUBCHEM_CACTVS_HBOND_DONOR>
2

>  <PUBCHEM_CACTVS_ROTATABLE_BOND>
4

>  <PUBCHEM_CACTVS_SUBSKEYS>
AAADceB4OAAAAAAAAAAAAAAAAAAAAAAAAAAwYAAAAAAAAAABQAAAGgAACAAADASAmAIyBoAABgCIAqBSAAACCAAkIAAIiAEGCMgMJzaGNRqAcWAl4BUIuYeI7OzOIAACCAAIAABAAAQQABAAAAAAAAAAAA==

>  <PUBCHEM_IUPAC_OPENEYE_NAME>
(E)-1-(4,6-dihydroxy-2-methoxy-3-methyl-phenyl)-3-phenyl-prop-2-en-1-one

>  <PUBCHEM_IUPAC_CAS_NAME>
(E)-1-(4,6-dihydroxy-2-methoxy-3-methylphenyl)-3-phenyl-2-propen-1-one

>  <PUBCHEM_IUPAC_NAME>
(E)-1-(4,6-dihydroxy-2-methoxy-3-methylphenyl)-3-phenylprop-2-en-1-one

>  <PUBCHEM_IUPAC_SYSTEMATIC_NAME>
(E)-1-[2-methoxy-3-methyl-4,6-bis(oxidanyl)phenyl]-3-phenyl-prop-2-en-1-one

>  <PUBCHEM_IUPAC_TRADITIONAL_NAME>
(E)-1-(4,6-dihydroxy-2-methoxy-3-methyl-phenyl)-3-phenyl-prop-2-en-1-one

>  <PUBCHEM_IUPAC_INCHI>
InChI=1S/C17H16O4/c1-11-14(19)10-15(20)16(17(11)21-2)13(18)9-8-12-6-4-3-5-7-12/h3-10,19-20H,1-2H3/b9-8+

>  <PUBCHEM_IUPAC_INCHIKEY>
PVTAUQXAGOXGNJ-CMDGGOBGSA-N

>  <PUBCHEM_XLOGP3_AA>
3.9

>  <PUBCHEM_EXACT_MASS>
284.105

>  <PUBCHEM_MOLECULAR_FORMULA>
C17H16O4

>  <PUBCHEM_MOLECULAR_WEIGHT>
284.311

>  <PUBCHEM_OPENEYE_CAN_SMILES>
CC1=C(C=C(C(=C1OC)C(=O)C=CC2=CC=CC=C2)O)O

>  <PUBCHEM_OPENEYE_ISO_SMILES>
CC1=C(C=C(C(=C1OC)C(=O)/C=C/C2=CC=CC=C2)O)O

>  <PUBCHEM_CACTVS_TPSA>
66.8

>  <PUBCHEM_MONOISOTOPIC_WEIGHT>
284.105

>  <PUBCHEM_TOTAL_CHARGE>
0

>  <PUBCHEM_HEAVY_ATOM_COUNT>
21

>  <PUBCHEM_ATOM_DEF_STEREO_COUNT>
0

>  <PUBCHEM_ATOM_UDEF_STEREO_COUNT>
0

>  <PUBCHEM_BOND_DEF_STEREO_COUNT>
1

>  <PUBCHEM_BOND_UDEF_STEREO_COUNT>
0

>  <PUBCHEM_ISOTOPIC_ATOM_COUNT>
0

>  <PUBCHEM_COMPONENT_COUNT>
1

>  <PUBCHEM_CACTVS_TAUTO_COUNT>
12

>  <PUBCHEM_COORDINATE_TYPE>
1
5
255

>  <PUBCHEM_BONDANNOTATIONS>
14  17  8
14  18  8
17  19  8
18  20  8
19  21  8
20  21  8
5  7  8
5  8  8
6  7  8
6  9  8
8  10  8
9  10  8

$$$$
