10374706
 OpenBabel06101807152D

 18 18  0  0  0  0  0  0  0  0999 V2000
    4.8913    1.0272    0.0000 S   0  0  0  0  0  0  0  0  0  0  0  0
    4.5691   -0.9374    0.0000 S   0  0  0  0  0  0  0  0  0  0  0  0
    2.8090   -1.2162    0.0000 N   0  0  0  0  0  0  0  0  0  0  0  0
    2.3090    0.3227    0.0000 C   0  0  0  0  0  0  0  0  0  0  0  0
    2.0000   -0.6284    0.0000 C   0  0  0  0  0  0  0  0  0  0  0  0
    3.3090    0.3227    0.0000 C   0  0  0  0  0  0  0  0  0  0  0  0
    3.6180   -0.6284    0.0000 C   0  0  0  0  0  0  0  0  0  0  0  0
    3.8968    1.1317    0.0000 C   0  0  0  0  0  0  0  0  0  0  0  0
    5.4791    1.8362    0.0000 C   0  0  0  0  0  0  0  0  0  0  0  0
    2.3738    0.9393    0.0000 H   0  0  0  0  0  0  0  0  0  0  0  0
    1.7026    0.4516    0.0000 H   0  0  0  0  0  0  0  0  0  0  0  0
    1.4336   -0.3762    0.0000 H   0  0  0  0  0  0  0  0  0  0  0  0
    1.6900   -1.1653    0.0000 H   0  0  0  0  0  0  0  0  0  0  0  0
    2.8090   -1.8362    0.0000 H   0  0  0  0  0  0  0  0  0  0  0  0
    3.6446    1.6981    0.0000 H   0  0  0  0  0  0  0  0  0  0  0  0
    5.9807    1.4717    0.0000 H   0  0  0  0  0  0  0  0  0  0  0  0
    5.8435    2.3378    0.0000 H   0  0  0  0  0  0  0  0  0  0  0  0
    4.9775    2.2006    0.0000 H   0  0  0  0  0  0  0  0  0  0  0  0
  1  8  1  0  0  0  0
  1  9  1  0  0  0  0
  2  7  2  0  0  0  0
  3  5  1  0  0  0  0
  3  7  1  0  0  0  0
  3 14  1  0  0  0  0
  4  5  1  0  0  0  0
  4  6  1  0  0  0  0
  4 10  1  0  0  0  0
  4 11  1  0  0  0  0
  5 12  1  0  0  0  0
  5 13  1  0  0  0  0
  6  7  1  0  0  0  0
  6  8  2  0  0  0  0
  8 15  1  0  0  0  0
  9 16  1  0  0  0  0
  9 17  1  0  0  0  0
  9 18  1  0  0  0  0
M  END
>  <PUBCHEM_COMPOUND_CID>
10374706

>  <PUBCHEM_COMPOUND_CANONICALIZED>
1

>  <PUBCHEM_CACTVS_COMPLEXITY>
151

>  <PUBCHEM_CACTVS_HBOND_ACCEPTOR>
2

>  <PUBCHEM_CACTVS_HBOND_DONOR>
1

>  <PUBCHEM_CACTVS_ROTATABLE_BOND>
1

>  <PUBCHEM_CACTVS_SUBSKEYS>
AAADccBiAABgAAAAAAAAAAAAAAAAAWAAAAAAAAAAAAAAAAAAAAAAHAQQAAAADADFQASCAALAAAiEAgBCAACAAAAgAAkAAIAIAAgAAAAAgQAEAAAAEACAAAAAAAAAAAAAAAAAAAAAAAAAAAAAAAAAAAAAAA==

>  <PUBCHEM_IUPAC_OPENEYE_NAME>
(3Z)-3-(methylsulfanylmethylene)pyrrolidine-2-thione

>  <PUBCHEM_IUPAC_CAS_NAME>
(3Z)-3-[(methylthio)methylidene]-2-pyrrolidinethione

>  <PUBCHEM_IUPAC_NAME>
(3Z)-3-(methylsulfanylmethylidene)pyrrolidine-2-thione

>  <PUBCHEM_IUPAC_SYSTEMATIC_NAME>
(3Z)-3-(methylsulfanylmethylidene)pyrrolidine-2-thione

>  <PUBCHEM_IUPAC_TRADITIONAL_NAME>
(3Z)-3-[(methylthio)methylene]pyrrolidine-2-thione

>  <PUBCHEM_IUPAC_INCHI>
InChI=1S/C6H9NS2/c1-9-4-5-2-3-7-6(5)8/h4H,2-3H2,1H3,(H,7,8)/b5-4-

>  <PUBCHEM_IUPAC_INCHIKEY>
BVYUPEKENRMVJK-PLNGDYQASA-N

>  <PUBCHEM_XLOGP3_AA>
0.9

>  <PUBCHEM_EXACT_MASS>
159.018

>  <PUBCHEM_MOLECULAR_FORMULA>
C6H9NS2

>  <PUBCHEM_MOLECULAR_WEIGHT>
159.265

>  <PUBCHEM_OPENEYE_CAN_SMILES>
CSC=C1CCNC1=S

>  <PUBCHEM_OPENEYE_ISO_SMILES>
CS/C=C\1/CCNC1=S

>  <PUBCHEM_CACTVS_TPSA>
69.4

>  <PUBCHEM_MONOISOTOPIC_WEIGHT>
159.018

>  <PUBCHEM_TOTAL_CHARGE>
0

>  <PUBCHEM_HEAVY_ATOM_COUNT>
9

>  <PUBCHEM_ATOM_DEF_STEREO_COUNT>
0

>  <PUBCHEM_ATOM_UDEF_STEREO_COUNT>
0

>  <PUBCHEM_BOND_DEF_STEREO_COUNT>
1

>  <PUBCHEM_BOND_UDEF_STEREO_COUNT>
0

>  <PUBCHEM_ISOTOPIC_ATOM_COUNT>
0

>  <PUBCHEM_COMPONENT_COUNT>
1

>  <PUBCHEM_CACTVS_TAUTO_COUNT>
2

>  <PUBCHEM_COORDINATE_TYPE>
1
5
255

$$$$
