10383349
 OpenBabel06101807152D

 42 45  0  0  0  0  0  0  0  0999 V2000
    8.6503   -1.1329    0.0000 O   0  0  0  0  0  0  0  0  0  0  0  0
    6.0682   -1.5914    0.0000 O   0  0  0  0  0  0  0  0  0  0  0  0
   10.3984    1.9086    0.0000 O   0  0  0  0  0  0  0  0  0  0  0  0
    6.0682    1.4086    0.0000 O   0  0  0  0  0  0  0  0  0  0  0  0
    4.3198    1.4432    0.0000 O   0  0  0  0  0  0  0  0  0  0  0  0
    2.5381   -1.6156    0.0000 O   0  0  0  0  0  0  0  0  0  0  0  0
    9.5483   -1.6607    0.0000 C   0  0  0  0  0  0  0  0  0  0  0  0
    8.6663   -0.0914    0.0000 C   0  0  0  0  0  0  0  0  0  0  0  0
    9.5323    0.4086    0.0000 C   0  0  0  0  0  0  0  0  0  0  0  0
   10.4504   -1.1398    0.0000 C   0  0  0  0  0  0  0  0  0  0  0  0
    7.8003    0.4086    0.0000 C   0  0  0  0  0  0  0  0  0  0  0  0
   10.0450   -2.5286    0.0000 C   0  0  0  0  0  0  0  0  0  0  0  0
    9.0450   -2.5248    0.0000 C   0  0  0  0  0  0  0  0  0  0  0  0
   10.4424   -0.0982    0.0000 C   0  0  0  0  0  0  0  0  0  0  0  0
    6.9343   -0.0914    0.0000 C   0  0  0  0  0  0  0  0  0  0  0  0
    9.5323    1.4086    0.0000 C   0  0  0  0  0  0  0  0  0  0  0  0
    7.8003    1.4086    0.0000 C   0  0  0  0  0  0  0  0  0  0  0  0
    8.6663    1.9086    0.0000 C   0  0  0  0  0  0  0  0  0  0  0  0
    6.0682    0.4086    0.0000 C   0  0  0  0  0  0  0  0  0  0  0  0
    5.2022   -0.0914    0.0000 C   0  0  0  0  0  0  0  0  0  0  0  0
    6.9343   -1.0914    0.0000 C   0  0  0  0  0  0  0  0  0  0  0  0
    5.2022   -1.0914    0.0000 C   0  0  0  0  0  0  0  0  0  0  0  0
    4.3083    0.4433    0.0000 C   0  0  0  0  0  0  0  0  0  0  0  0
    4.3083   -1.6261    0.0000 C   0  0  0  0  0  0  0  0  0  0  0  0
    3.4022   -0.0706    0.0000 C   0  0  0  0  0  0  0  0  0  0  0  0
    3.4022   -1.1122    0.0000 C   0  0  0  0  0  0  0  0  0  0  0  0
   10.9885   -1.4478    0.0000 H   0  0  0  0  0  0  0  0  0  0  0  0
    9.5068   -2.8365    0.0000 H   0  0  0  0  0  0  0  0  0  0  0  0
   10.3529   -3.0667    0.0000 H   0  0  0  0  0  0  0  0  0  0  0  0
    8.5092   -2.2127    0.0000 H   0  0  0  0  0  0  0  0  0  0  0  0
    8.7329   -3.0605    0.0000 H   0  0  0  0  0  0  0  0  0  0  0  0
    9.5807   -2.8368    0.0000 H   0  0  0  0  0  0  0  0  0  0  0  0
   10.5831   -2.2207    0.0000 H   0  0  0  0  0  0  0  0  0  0  0  0
   10.9757    0.2179    0.0000 H   0  0  0  0  0  0  0  0  0  0  0  0
    7.2634    1.7186    0.0000 H   0  0  0  0  0  0  0  0  0  0  0  0
    8.6663    2.5286    0.0000 H   0  0  0  0  0  0  0  0  0  0  0  0
    7.4712   -1.4014    0.0000 H   0  0  0  0  0  0  0  0  0  0  0  0
    4.3154   -2.2460    0.0000 H   0  0  0  0  0  0  0  0  0  0  0  0
    2.8665    0.2415    0.0000 H   0  0  0  0  0  0  0  0  0  0  0  0
   10.3984    2.5286    0.0000 H   0  0  0  0  0  0  0  0  0  0  0  0
    3.7865    1.7594    0.0000 H   0  0  0  0  0  0  0  0  0  0  0  0
    2.0000   -1.3076    0.0000 H   0  0  0  0  0  0  0  0  0  0  0  0
  1  7  1  0  0  0  0
  1  8  1  0  0  0  0
  2 21  1  0  0  0  0
  2 22  1  0  0  0  0
  3 16  1  0  0  0  0
  3 40  1  0  0  0  0
  4 19  2  0  0  0  0
  5 23  1  0  0  0  0
  5 41  1  0  0  0  0
  6 26  1  0  0  0  0
  6 42  1  0  0  0  0
  7 10  1  0  0  0  0
  7 12  1  0  0  0  0
  7 13  1  0  0  0  0
  8  9  1  0  0  0  0
  8 11  2  0  0  0  0
  9 14  1  0  0  0  0
  9 16  2  0  0  0  0
 10 14  2  0  0  0  0
 10 27  1  0  0  0  0
 11 15  1  0  0  0  0
 11 17  1  0  0  0  0
 12 28  1  0  0  0  0
 12 29  1  0  0  0  0
 12 33  1  0  0  0  0
 13 30  1  0  0  0  0
 13 31  1  0  0  0  0
 13 32  1  0  0  0  0
 14 34  1  0  0  0  0
 15 19  1  0  0  0  0
 15 21  2  0  0  0  0
 16 18  1  0  0  0  0
 17 18  2  0  0  0  0
 17 35  1  0  0  0  0
 18 36  1  0  0  0  0
 19 20  1  0  0  0  0
 20 22  1  0  0  0  0
 20 23  2  0  0  0  0
 21 37  1  0  0  0  0
 22 24  2  0  0  0  0
 23 25  1  0  0  0  0
 24 26  1  0  0  0  0
 24 38  1  0  0  0  0
 25 26  2  0  0  0  0
 25 39  1  0  0  0  0
M  END
>  <PUBCHEM_COMPOUND_CID>
10383349

>  <PUBCHEM_COMPOUND_CANONICALIZED>
1

>  <PUBCHEM_CACTVS_COMPLEXITY>
638

>  <PUBCHEM_CACTVS_HBOND_ACCEPTOR>
6

>  <PUBCHEM_CACTVS_HBOND_DONOR>
3

>  <PUBCHEM_CACTVS_ROTATABLE_BOND>
1

>  <PUBCHEM_CACTVS_SUBSKEYS>
AAADceB4OAAAAAAAAAAAAAAAAAAAAAAAAAAwYIEAAAAAAACBQAAAGgAACAAADESgmAIyBoAABgCIAqBSAAACCAAkIAAIiAEGCMgMJzaGNRqCeWCl4BUIuYeK7PzOIAACCAAIAABAAAQQABAAAAAAAAAAAA==

>  <PUBCHEM_IUPAC_OPENEYE_NAME>
5,7-dihydroxy-3-(5-hydroxy-2,2-dimethyl-chromen-8-yl)chromen-4-one

>  <PUBCHEM_IUPAC_CAS_NAME>
5,7-dihydroxy-3-(5-hydroxy-2,2-dimethyl-1-benzopyran-8-yl)-1-benzopyran-4-one

>  <PUBCHEM_IUPAC_NAME>
5,7-dihydroxy-3-(5-hydroxy-2,2-dimethylchromen-8-yl)chromen-4-one

>  <PUBCHEM_IUPAC_SYSTEMATIC_NAME>
3-(2,2-dimethyl-5-oxidanyl-chromen-8-yl)-5,7-bis(oxidanyl)chromen-4-one

>  <PUBCHEM_IUPAC_TRADITIONAL_NAME>
5,7-dihydroxy-3-(5-hydroxy-2,2-dimethyl-chromen-8-yl)chromone

>  <PUBCHEM_IUPAC_INCHI>
InChI=1S/C20H16O6/c1-20(2)6-5-12-14(22)4-3-11(19(12)26-20)13-9-25-16-8-10(21)7-15(23)17(16)18(13)24/h3-9,21-23H,1-2H3

>  <PUBCHEM_IUPAC_INCHIKEY>
RIDRQWKYWXHAOD-UHFFFAOYSA-N

>  <PUBCHEM_XLOGP3_AA>
3.6

>  <PUBCHEM_EXACT_MASS>
352.095

>  <PUBCHEM_MOLECULAR_FORMULA>
C20H16O6

>  <PUBCHEM_MOLECULAR_WEIGHT>
352.342

>  <PUBCHEM_OPENEYE_CAN_SMILES>
CC1(C=CC2=C(C=CC(=C2O1)C3=COC4=CC(=CC(=C4C3=O)O)O)O)C

>  <PUBCHEM_OPENEYE_ISO_SMILES>
CC1(C=CC2=C(C=CC(=C2O1)C3=COC4=CC(=CC(=C4C3=O)O)O)O)C

>  <PUBCHEM_CACTVS_TPSA>
96.2

>  <PUBCHEM_MONOISOTOPIC_WEIGHT>
352.095

>  <PUBCHEM_TOTAL_CHARGE>
0

>  <PUBCHEM_HEAVY_ATOM_COUNT>
26

>  <PUBCHEM_ATOM_DEF_STEREO_COUNT>
0

>  <PUBCHEM_ATOM_UDEF_STEREO_COUNT>
0

>  <PUBCHEM_BOND_DEF_STEREO_COUNT>
0

>  <PUBCHEM_BOND_UDEF_STEREO_COUNT>
0

>  <PUBCHEM_ISOTOPIC_ATOM_COUNT>
0

>  <PUBCHEM_COMPONENT_COUNT>
1

>  <PUBCHEM_CACTVS_TAUTO_COUNT>
24

>  <PUBCHEM_COORDINATE_TYPE>
1
5
255

>  <PUBCHEM_BONDANNOTATIONS>
11  17  8
15  19  8
15  21  8
16  18  8
17  18  8
19  20  8
2  21  8
2  22  8
20  22  8
20  23  8
22  24  8
23  25  8
24  26  8
25  26  8
8  11  8
8  9  8
9  16  8

$$$$
