10429470
 OpenBabel06101807152D

 45 47  0  0  0  0  0  0  0  0999 V2000
    6.3580   -0.6126    0.0000 O   0  0  0  0  0  0  0  0  0  0  0  0
    4.5981   -1.5779    0.0000 O   0  0  0  0  0  0  0  0  0  0  0  0
    8.1282    1.4462    0.0000 O   0  0  0  0  0  0  0  0  0  0  0  0
    2.8660   -0.5779    0.0000 O   0  0  0  0  0  0  0  0  0  0  0  0
    2.8660    1.4221    0.0000 O   0  0  0  0  0  0  0  0  0  0  0  0
    4.5981    2.4221    0.0000 O   0  0  0  0  0  0  0  0  0  0  0  0
    6.3465    2.4567    0.0000 O   0  0  0  0  0  0  0  0  0  0  0  0
   10.7205   -2.1121    0.0000 O   0  0  0  0  0  0  0  0  0  0  0  0
    5.4641    0.9221    0.0000 C   0  0  0  0  0  0  0  0  0  0  0  0
    5.4641   -0.0779    0.0000 C   0  0  0  0  0  0  0  0  0  0  0  0
    4.5981   -0.5779    0.0000 C   0  0  0  0  0  0  0  0  0  0  0  0
    7.2641   -0.0987    0.0000 C   0  0  0  0  0  0  0  0  0  0  0  0
    4.5981    1.4221    0.0000 C   0  0  0  0  0  0  0  0  0  0  0  0
    6.3580    1.4567    0.0000 C   0  0  0  0  0  0  0  0  0  0  0  0
    7.2641    0.9429    0.0000 C   0  0  0  0  0  0  0  0  0  0  0  0
    3.7320   -0.0779    0.0000 C   0  0  0  0  0  0  0  0  0  0  0  0
    3.7320    0.9221    0.0000 C   0  0  0  0  0  0  0  0  0  0  0  0
    8.1282   -0.6021    0.0000 C   0  0  0  0  0  0  0  0  0  0  0  0
    8.1244   -1.6021    0.0000 C   0  0  0  0  0  0  0  0  0  0  0  0
    8.9962   -0.1054    0.0000 C   0  0  0  0  0  0  0  0  0  0  0  0
    8.9884   -2.1054    0.0000 C   0  0  0  0  0  0  0  0  0  0  0  0
    9.8602   -0.6088    0.0000 C   0  0  0  0  0  0  0  0  0  0  0  0
    9.8564   -1.6087    0.0000 C   0  0  0  0  0  0  0  0  0  0  0  0
    3.7320   -2.0779    0.0000 C   0  0  0  0  0  0  0  0  0  0  0  0
    8.1244    2.4462    0.0000 C   0  0  0  0  0  0  0  0  0  0  0  0
    2.0000   -0.0779    0.0000 C   0  0  0  0  0  0  0  0  0  0  0  0
    2.0000    0.9221    0.0000 C   0  0  0  0  0  0  0  0  0  0  0  0
    7.5862   -1.9100    0.0000 H   0  0  0  0  0  0  0  0  0  0  0  0
    8.9985    0.5146    0.0000 H   0  0  0  0  0  0  0  0  0  0  0  0
    4.0611    2.7321    0.0000 H   0  0  0  0  0  0  0  0  0  0  0  0
    8.9860   -2.7254    0.0000 H   0  0  0  0  0  0  0  0  0  0  0  0
   10.3984   -0.3008    0.0000 H   0  0  0  0  0  0  0  0  0  0  0  0
    3.4220   -1.5410    0.0000 H   0  0  0  0  0  0  0  0  0  0  0  0
    3.1951   -2.3879    0.0000 H   0  0  0  0  0  0  0  0  0  0  0  0
    4.0420   -2.6149    0.0000 H   0  0  0  0  0  0  0  0  0  0  0  0
    8.7443    2.4486    0.0000 H   0  0  0  0  0  0  0  0  0  0  0  0
    8.1220    3.0662    0.0000 H   0  0  0  0  0  0  0  0  0  0  0  0
    7.5044    2.4438    0.0000 H   0  0  0  0  0  0  0  0  0  0  0  0
    2.3100    0.4590    0.0000 H   0  0  0  0  0  0  0  0  0  0  0  0
    1.4631    0.2321    0.0000 H   0  0  0  0  0  0  0  0  0  0  0  0
    1.6900   -0.6149    0.0000 H   0  0  0  0  0  0  0  0  0  0  0  0
    1.6900    1.4590    0.0000 H   0  0  0  0  0  0  0  0  0  0  0  0
    1.4631    0.6121    0.0000 H   0  0  0  0  0  0  0  0  0  0  0  0
    2.3100    0.3851    0.0000 H   0  0  0  0  0  0  0  0  0  0  0  0
   10.7181   -2.7321    0.0000 H   0  0  0  0  0  0  0  0  0  0  0  0
  1 10  1  0  0  0  0
  1 12  1  0  0  0  0
  2 11  1  0  0  0  0
  2 24  1  0  0  0  0
  3 15  1  0  0  0  0
  3 25  1  0  0  0  0
  4 16  1  0  0  0  0
  4 26  1  0  0  0  0
  5 17  1  0  0  0  0
  5 27  1  0  0  0  0
  6 13  1  0  0  0  0
  6 30  1  0  0  0  0
  7 14  2  0  0  0  0
  8 23  1  0  0  0  0
  8 45  1  0  0  0  0
  9 10  1  0  0  0  0
  9 13  2  0  0  0  0
  9 14  1  0  0  0  0
 10 11  2  0  0  0  0
 11 16  1  0  0  0  0
 12 15  2  0  0  0  0
 12 18  1  0  0  0  0
 13 17  1  0  0  0  0
 14 15  1  0  0  0  0
 16 17  2  0  0  0  0
 18 19  2  0  0  0  0
 18 20  1  0  0  0  0
 19 21  1  0  0  0  0
 19 28  1  0  0  0  0
 20 22  2  0  0  0  0
 20 29  1  0  0  0  0
 21 23  2  0  0  0  0
 21 31  1  0  0  0  0
 22 23  1  0  0  0  0
 22 32  1  0  0  0  0
 24 33  1  0  0  0  0
 24 34  1  0  0  0  0
 24 35  1  0  0  0  0
 25 36  1  0  0  0  0
 25 37  1  0  0  0  0
 25 38  1  0  0  0  0
 26 39  1  0  0  0  0
 26 40  1  0  0  0  0
 26 41  1  0  0  0  0
 27 42  1  0  0  0  0
 27 43  1  0  0  0  0
 27 44  1  0  0  0  0
M  END
>  <PUBCHEM_COMPOUND_CID>
10429470

>  <PUBCHEM_COMPOUND_CANONICALIZED>
1

>  <PUBCHEM_CACTVS_COMPLEXITY>
568

>  <PUBCHEM_CACTVS_HBOND_ACCEPTOR>
8

>  <PUBCHEM_CACTVS_HBOND_DONOR>
2

>  <PUBCHEM_CACTVS_ROTATABLE_BOND>
5

>  <PUBCHEM_CACTVS_SUBSKEYS>
AAADceB4PAAAAAAAAAAAAAAAAAAAAAAAAAAwYIAAAAAAAACBQAAAGgAACAAADASAmAIyBoAABgCIAqBSAAICCAAkIAAIiAFGiMgNJzaGNR6CeWOl4BULuQfK7LzOIQABCAAIQABCAAIQABCAAAAAAAAAAA==

>  <PUBCHEM_IUPAC_OPENEYE_NAME>
5-hydroxy-2-(4-hydroxyphenyl)-3,6,7,8-tetramethoxy-chromen-4-one

>  <PUBCHEM_IUPAC_CAS_NAME>
5-hydroxy-2-(4-hydroxyphenyl)-3,6,7,8-tetramethoxy-1-benzopyran-4-one

>  <PUBCHEM_IUPAC_NAME>
5-hydroxy-2-(4-hydroxyphenyl)-3,6,7,8-tetramethoxychromen-4-one

>  <PUBCHEM_IUPAC_SYSTEMATIC_NAME>
2-(4-hydroxyphenyl)-3,6,7,8-tetramethoxy-5-oxidanyl-chromen-4-one

>  <PUBCHEM_IUPAC_TRADITIONAL_NAME>
5-hydroxy-2-(4-hydroxyphenyl)-3,6,7,8-tetramethoxy-chromone

>  <PUBCHEM_IUPAC_INCHI>
InChI=1S/C19H18O8/c1-23-16-12(21)11-13(22)17(24-2)19(26-4)18(25-3)15(11)27-14(16)9-5-7-10(20)8-6-9/h5-8,20,22H,1-4H3

>  <PUBCHEM_IUPAC_INCHIKEY>
PIUSRRUXGNYCSS-UHFFFAOYSA-N

>  <PUBCHEM_XLOGP3_AA>
3.1

>  <PUBCHEM_EXACT_MASS>
374.1

>  <PUBCHEM_MOLECULAR_FORMULA>
C19H18O8

>  <PUBCHEM_MOLECULAR_WEIGHT>
374.345

>  <PUBCHEM_OPENEYE_CAN_SMILES>
COC1=C(C2=C(C(=C1OC)OC)OC(=C(C2=O)OC)C3=CC=C(C=C3)O)O

>  <PUBCHEM_OPENEYE_ISO_SMILES>
COC1=C(C2=C(C(=C1OC)OC)OC(=C(C2=O)OC)C3=CC=C(C=C3)O)O

>  <PUBCHEM_CACTVS_TPSA>
104

>  <PUBCHEM_MONOISOTOPIC_WEIGHT>
374.1

>  <PUBCHEM_TOTAL_CHARGE>
0

>  <PUBCHEM_HEAVY_ATOM_COUNT>
27

>  <PUBCHEM_ATOM_DEF_STEREO_COUNT>
0

>  <PUBCHEM_ATOM_UDEF_STEREO_COUNT>
0

>  <PUBCHEM_BOND_DEF_STEREO_COUNT>
0

>  <PUBCHEM_BOND_UDEF_STEREO_COUNT>
0

>  <PUBCHEM_ISOTOPIC_ATOM_COUNT>
0

>  <PUBCHEM_COMPONENT_COUNT>
1

>  <PUBCHEM_CACTVS_TAUTO_COUNT>
19

>  <PUBCHEM_COORDINATE_TYPE>
1
5
255

>  <PUBCHEM_BONDANNOTATIONS>
1  10  8
1  12  8
10  11  8
11  16  8
12  15  8
13  17  8
14  15  8
16  17  8
18  19  8
18  20  8
19  21  8
20  22  8
21  23  8
22  23  8
9  10  8
9  13  8
9  14  8

$$$$
