10431955
 OpenBabel06101807152D

 68 69  0  0  0  0  0  0  0  0999 V2000
    5.4641   -7.7500    0.0000 O   0  0  0  0  0  0  0  0  0  0  0  0
    8.0622    7.7500    0.0000 O   0  0  0  0  0  0  0  0  0  0  0  0
    2.0000   -7.7500    0.0000 O   0  0  0  0  0  0  0  0  0  0  0  0
   11.5263    7.7500    0.0000 O   0  0  0  0  0  0  0  0  0  0  0  0
    6.3301   -0.2500    0.0000 C   0  0  0  0  0  0  0  0  0  0  0  0
    7.1962    0.2500    0.0000 C   0  0  0  0  0  0  0  0  0  0  0  0
    6.3301   -1.2500    0.0000 C   0  0  0  0  0  0  0  0  0  0  0  0
    7.1962    1.2500    0.0000 C   0  0  0  0  0  0  0  0  0  0  0  0
    8.0622    1.7500    0.0000 C   0  0  0  0  0  0  0  0  0  0  0  0
    5.4641   -1.7500    0.0000 C   0  0  0  0  0  0  0  0  0  0  0  0
    5.4641   -2.7500    0.0000 C   0  0  0  0  0  0  0  0  0  0  0  0
    8.0622    2.7500    0.0000 C   0  0  0  0  0  0  0  0  0  0  0  0
    4.5981   -3.2500    0.0000 C   0  0  0  0  0  0  0  0  0  0  0  0
    8.9282    3.2500    0.0000 C   0  0  0  0  0  0  0  0  0  0  0  0
    4.5981   -4.2500    0.0000 C   0  0  0  0  0  0  0  0  0  0  0  0
    8.9282    4.2500    0.0000 C   0  0  0  0  0  0  0  0  0  0  0  0
    9.7942    4.7500    0.0000 C   0  0  0  0  0  0  0  0  0  0  0  0
    3.7320   -4.7500    0.0000 C   0  0  0  0  0  0  0  0  0  0  0  0
    3.7320   -5.7500    0.0000 C   0  0  0  0  0  0  0  0  0  0  0  0
    9.7942    5.7500    0.0000 C   0  0  0  0  0  0  0  0  0  0  0  0
    2.8660   -6.2500    0.0000 C   0  0  0  0  0  0  0  0  0  0  0  0
   10.6603    6.2500    0.0000 C   0  0  0  0  0  0  0  0  0  0  0  0
    4.5981   -6.2500    0.0000 C   0  0  0  0  0  0  0  0  0  0  0  0
    8.9282    6.2500    0.0000 C   0  0  0  0  0  0  0  0  0  0  0  0
    4.5981   -7.2500    0.0000 C   0  0  0  0  0  0  0  0  0  0  0  0
    8.9282    7.2500    0.0000 C   0  0  0  0  0  0  0  0  0  0  0  0
    2.8660   -7.2500    0.0000 C   0  0  0  0  0  0  0  0  0  0  0  0
   10.6603    7.2500    0.0000 C   0  0  0  0  0  0  0  0  0  0  0  0
    9.7942    7.7500    0.0000 C   0  0  0  0  0  0  0  0  0  0  0  0
    3.7320   -7.7500    0.0000 C   0  0  0  0  0  0  0  0  0  0  0  0
    6.1181    0.3326    0.0000 H   0  0  0  0  0  0  0  0  0  0  0  0
    5.7196   -0.3577    0.0000 H   0  0  0  0  0  0  0  0  0  0  0  0
    7.4082   -0.3326    0.0000 H   0  0  0  0  0  0  0  0  0  0  0  0
    7.8067    0.3577    0.0000 H   0  0  0  0  0  0  0  0  0  0  0  0
    6.5422   -1.8326    0.0000 H   0  0  0  0  0  0  0  0  0  0  0  0
    6.9407   -1.1423    0.0000 H   0  0  0  0  0  0  0  0  0  0  0  0
    6.9841    1.8326    0.0000 H   0  0  0  0  0  0  0  0  0  0  0  0
    6.5856    1.1423    0.0000 H   0  0  0  0  0  0  0  0  0  0  0  0
    8.2742    1.1674    0.0000 H   0  0  0  0  0  0  0  0  0  0  0  0
    8.6728    1.8577    0.0000 H   0  0  0  0  0  0  0  0  0  0  0  0
    5.2520   -1.1674    0.0000 H   0  0  0  0  0  0  0  0  0  0  0  0
    4.8535   -1.8577    0.0000 H   0  0  0  0  0  0  0  0  0  0  0  0
    5.6762   -3.3326    0.0000 H   0  0  0  0  0  0  0  0  0  0  0  0
    6.0747   -2.6423    0.0000 H   0  0  0  0  0  0  0  0  0  0  0  0
    7.8501    3.3326    0.0000 H   0  0  0  0  0  0  0  0  0  0  0  0
    7.4516    2.6423    0.0000 H   0  0  0  0  0  0  0  0  0  0  0  0
    9.1403    2.6674    0.0000 H   0  0  0  0  0  0  0  0  0  0  0  0
    9.5388    3.3577    0.0000 H   0  0  0  0  0  0  0  0  0  0  0  0
    4.3860   -2.6674    0.0000 H   0  0  0  0  0  0  0  0  0  0  0  0
    3.9875   -3.3577    0.0000 H   0  0  0  0  0  0  0  0  0  0  0  0
    4.8101   -4.8326    0.0000 H   0  0  0  0  0  0  0  0  0  0  0  0
    5.2087   -4.1423    0.0000 H   0  0  0  0  0  0  0  0  0  0  0  0
    8.7162    4.8326    0.0000 H   0  0  0  0  0  0  0  0  0  0  0  0
    8.3176    4.1423    0.0000 H   0  0  0  0  0  0  0  0  0  0  0  0
    3.5200   -4.1674    0.0000 H   0  0  0  0  0  0  0  0  0  0  0  0
    3.1215   -4.8577    0.0000 H   0  0  0  0  0  0  0  0  0  0  0  0
   10.0063    4.1674    0.0000 H   0  0  0  0  0  0  0  0  0  0  0  0
   10.4048    4.8577    0.0000 H   0  0  0  0  0  0  0  0  0  0  0  0
    2.3291   -5.9400    0.0000 H   0  0  0  0  0  0  0  0  0  0  0  0
   11.1972    5.9400    0.0000 H   0  0  0  0  0  0  0  0  0  0  0  0
    5.1350   -5.9400    0.0000 H   0  0  0  0  0  0  0  0  0  0  0  0
    8.3913    5.9400    0.0000 H   0  0  0  0  0  0  0  0  0  0  0  0
    3.7320   -8.3700    0.0000 H   0  0  0  0  0  0  0  0  0  0  0  0
    9.7942    8.3700    0.0000 H   0  0  0  0  0  0  0  0  0  0  0  0
    5.4641   -8.3700    0.0000 H   0  0  0  0  0  0  0  0  0  0  0  0
    8.0622    8.3700    0.0000 H   0  0  0  0  0  0  0  0  0  0  0  0
    2.0000   -8.3700    0.0000 H   0  0  0  0  0  0  0  0  0  0  0  0
   11.5263    8.3700    0.0000 H   0  0  0  0  0  0  0  0  0  0  0  0
  1 25  1  0  0  0  0
  1 65  1  0  0  0  0
  2 26  1  0  0  0  0
  2 66  1  0  0  0  0
  3 27  1  0  0  0  0
  3 67  1  0  0  0  0
  4 28  1  0  0  0  0
  4 68  1  0  0  0  0
  5  6  1  0  0  0  0
  5  7  1  0  0  0  0
  5 31  1  0  0  0  0
  5 32  1  0  0  0  0
  6  8  1  0  0  0  0
  6 33  1  0  0  0  0
  6 34  1  0  0  0  0
  7 10  1  0  0  0  0
  7 35  1  0  0  0  0
  7 36  1  0  0  0  0
  8  9  1  0  0  0  0
  8 37  1  0  0  0  0
  8 38  1  0  0  0  0
  9 12  1  0  0  0  0
  9 39  1  0  0  0  0
  9 40  1  0  0  0  0
 10 11  1  0  0  0  0
 10 41  1  0  0  0  0
 10 42  1  0  0  0  0
 11 13  1  0  0  0  0
 11 43  1  0  0  0  0
 11 44  1  0  0  0  0
 12 14  1  0  0  0  0
 12 45  1  0  0  0  0
 12 46  1  0  0  0  0
 13 15  1  0  0  0  0
 13 49  1  0  0  0  0
 13 50  1  0  0  0  0
 14 16  1  0  0  0  0
 14 47  1  0  0  0  0
 14 48  1  0  0  0  0
 15 18  1  0  0  0  0
 15 51  1  0  0  0  0
 15 52  1  0  0  0  0
 16 17  1  0  0  0  0
 16 53  1  0  0  0  0
 16 54  1  0  0  0  0
 17 20  1  0  0  0  0
 17 57  1  0  0  0  0
 17 58  1  0  0  0  0
 18 19  1  0  0  0  0
 18 55  1  0  0  0  0
 18 56  1  0  0  0  0
 19 21  2  0  0  0  0
 19 23  1  0  0  0  0
 20 22  2  0  0  0  0
 20 24  1  0  0  0  0
 21 27  1  0  0  0  0
 21 59  1  0  0  0  0
 22 28  1  0  0  0  0
 22 60  1  0  0  0  0
 23 25  2  0  0  0  0
 23 61  1  0  0  0  0
 24 26  2  0  0  0  0
 24 62  1  0  0  0  0
 25 30  1  0  0  0  0
 26 29  1  0  0  0  0
 27 30  2  0  0  0  0
 28 29  2  0  0  0  0
 29 64  1  0  0  0  0
 30 63  1  0  0  0  0
M  END
>  <PUBCHEM_COMPOUND_CID>
10431955

>  <PUBCHEM_COMPOUND_CANONICALIZED>
1

>  <PUBCHEM_CACTVS_COMPLEXITY>
358

>  <PUBCHEM_CACTVS_HBOND_ACCEPTOR>
4

>  <PUBCHEM_CACTVS_HBOND_DONOR>
4

>  <PUBCHEM_CACTVS_ROTATABLE_BOND>
15

>  <PUBCHEM_CACTVS_SUBSKEYS>
AAADcfB4OAAAAAAAAAAAAAAAAAAAAAAAAAAwYAAAAAAAAAABQAAAGgAACAAADASAmAAwBoAAAgCAAiBCAAACAAAgIAAAiAAGCIgIJyKCERKAcAAlwBUImAeA4PQOAAABCAAAAAAAAAIQAAAAAAAAAAAAAA==

>  <PUBCHEM_IUPAC_OPENEYE_NAME>
5-[14-(3,5-dihydroxyphenyl)tetradecyl]benzene-1,3-diol

>  <PUBCHEM_IUPAC_CAS_NAME>
5-[14-(3,5-dihydroxyphenyl)tetradecyl]benzene-1,3-diol

>  <PUBCHEM_IUPAC_NAME>
5-[14-(3,5-dihydroxyphenyl)tetradecyl]benzene-1,3-diol

>  <PUBCHEM_IUPAC_SYSTEMATIC_NAME>
5-[14-[3,5-bis(oxidanyl)phenyl]tetradecyl]benzene-1,3-diol

>  <PUBCHEM_IUPAC_TRADITIONAL_NAME>
5-[14-(3,5-dihydroxyphenyl)tetradecyl]resorcinol

>  <PUBCHEM_IUPAC_INCHI>
InChI=1S/C26H38O4/c27-23-15-21(16-24(28)19-23)13-11-9-7-5-3-1-2-4-6-8-10-12-14-22-17-25(29)20-26(30)18-22/h15-20,27-30H,1-14H2

>  <PUBCHEM_IUPAC_INCHIKEY>
QUXULJDSRDXUCR-UHFFFAOYSA-N

>  <PUBCHEM_XLOGP3_AA>
9.2

>  <PUBCHEM_EXACT_MASS>
414.277

>  <PUBCHEM_MOLECULAR_FORMULA>
C26H38O4

>  <PUBCHEM_MOLECULAR_WEIGHT>
414.586

>  <PUBCHEM_OPENEYE_CAN_SMILES>
C1=C(C=C(C=C1O)O)CCCCCCCCCCCCCCC2=CC(=CC(=C2)O)O

>  <PUBCHEM_OPENEYE_ISO_SMILES>
C1=C(C=C(C=C1O)O)CCCCCCCCCCCCCCC2=CC(=CC(=C2)O)O

>  <PUBCHEM_CACTVS_TPSA>
80.9

>  <PUBCHEM_MONOISOTOPIC_WEIGHT>
414.277

>  <PUBCHEM_TOTAL_CHARGE>
0

>  <PUBCHEM_HEAVY_ATOM_COUNT>
30

>  <PUBCHEM_ATOM_DEF_STEREO_COUNT>
0

>  <PUBCHEM_ATOM_UDEF_STEREO_COUNT>
0

>  <PUBCHEM_BOND_DEF_STEREO_COUNT>
0

>  <PUBCHEM_BOND_UDEF_STEREO_COUNT>
0

>  <PUBCHEM_ISOTOPIC_ATOM_COUNT>
0

>  <PUBCHEM_COMPONENT_COUNT>
1

>  <PUBCHEM_CACTVS_TAUTO_COUNT>
55

>  <PUBCHEM_COORDINATE_TYPE>
1
5
255

>  <PUBCHEM_BONDANNOTATIONS>
19  21  8
19  23  8
20  22  8
20  24  8
21  27  8
22  28  8
23  25  8
24  26  8
25  30  8
26  29  8
27  30  8
28  29  8

$$$$
