10450920
 OpenBabel06101807152D

 50 51  0  0  0  0  0  0  0  0999 V2000
    7.1962   -0.3100    0.0000 O   0  0  0  0  0  0  0  0  0  0  0  0
    3.7320   -0.3100    0.0000 O   0  0  0  0  0  0  0  0  0  0  0  0
    5.4641   -3.3100    0.0000 O   0  0  0  0  0  0  0  0  0  0  0  0
    4.5981    1.1900    0.0000 O   0  0  0  0  0  0  0  0  0  0  0  0
    9.7942    4.1900    0.0000 O   0  0  0  0  0  0  0  0  0  0  0  0
    5.4641   -0.3100    0.0000 C   0  0  0  0  0  0  0  0  0  0  0  0
    6.3301    1.1900    0.0000 C   0  0  0  0  0  0  0  0  0  0  0  0
    4.5981   -1.8100    0.0000 C   0  0  0  0  0  0  0  0  0  0  0  0
    6.3301    2.1900    0.0000 C   0  0  0  0  0  0  0  0  0  0  0  0
    4.5981   -0.8100    0.0000 C   0  0  0  0  0  0  0  0  0  0  0  0
    5.4641    0.6900    0.0000 C   0  0  0  0  0  0  0  0  0  0  0  0
    3.7320   -2.3100    0.0000 C   0  0  0  0  0  0  0  0  0  0  0  0
    6.3301   -0.8100    0.0000 C   0  0  0  0  0  0  0  0  0  0  0  0
    5.4641   -2.3100    0.0000 C   0  0  0  0  0  0  0  0  0  0  0  0
    7.1962    2.6900    0.0000 C   0  0  0  0  0  0  0  0  0  0  0  0
    6.3301   -1.8100    0.0000 C   0  0  0  0  0  0  0  0  0  0  0  0
    3.7320   -3.3100    0.0000 C   0  0  0  0  0  0  0  0  0  0  0  0
    8.0622    2.1900    0.0000 C   0  0  0  0  0  0  0  0  0  0  0  0
    7.1962    3.6900    0.0000 C   0  0  0  0  0  0  0  0  0  0  0  0
    2.8660   -3.8100    0.0000 C   0  0  0  0  0  0  0  0  0  0  0  0
    8.9282    2.6900    0.0000 C   0  0  0  0  0  0  0  0  0  0  0  0
    8.0622    4.1900    0.0000 C   0  0  0  0  0  0  0  0  0  0  0  0
    8.9282    3.6900    0.0000 C   0  0  0  0  0  0  0  0  0  0  0  0
    2.8660   -4.8100    0.0000 C   0  0  0  0  0  0  0  0  0  0  0  0
    2.0000   -3.3100    0.0000 C   0  0  0  0  0  0  0  0  0  0  0  0
    8.0622   -0.8100    0.0000 C   0  0  0  0  0  0  0  0  0  0  0  0
    6.5422    0.6074    0.0000 H   0  0  0  0  0  0  0  0  0  0  0  0
    6.9407    1.2977    0.0000 H   0  0  0  0  0  0  0  0  0  0  0  0
    6.1181    2.7726    0.0000 H   0  0  0  0  0  0  0  0  0  0  0  0
    5.7196    2.0823    0.0000 H   0  0  0  0  0  0  0  0  0  0  0  0
    3.5200   -1.7274    0.0000 H   0  0  0  0  0  0  0  0  0  0  0  0
    3.1215   -2.4177    0.0000 H   0  0  0  0  0  0  0  0  0  0  0  0
    6.8671   -2.1200    0.0000 H   0  0  0  0  0  0  0  0  0  0  0  0
    4.2690   -3.6200    0.0000 H   0  0  0  0  0  0  0  0  0  0  0  0
    8.0622    1.5700    0.0000 H   0  0  0  0  0  0  0  0  0  0  0  0
    6.6592    4.0000    0.0000 H   0  0  0  0  0  0  0  0  0  0  0  0
    3.1951   -0.6200    0.0000 H   0  0  0  0  0  0  0  0  0  0  0  0
    9.4651    2.3800    0.0000 H   0  0  0  0  0  0  0  0  0  0  0  0
    8.0622    4.8100    0.0000 H   0  0  0  0  0  0  0  0  0  0  0  0
    6.0010   -3.6200    0.0000 H   0  0  0  0  0  0  0  0  0  0  0  0
    2.2460   -4.8100    0.0000 H   0  0  0  0  0  0  0  0  0  0  0  0
    2.3100   -2.7731    0.0000 H   0  0  0  0  0  0  0  0  0  0  0  0
    1.4631   -3.0000    0.0000 H   0  0  0  0  0  0  0  0  0  0  0  0
    1.6900   -3.8469    0.0000 H   0  0  0  0  0  0  0  0  0  0  0  0
    2.8660   -5.4300    0.0000 H   0  0  0  0  0  0  0  0  0  0  0  0
    3.4860   -4.8100    0.0000 H   0  0  0  0  0  0  0  0  0  0  0  0
    7.7522   -1.3469    0.0000 H   0  0  0  0  0  0  0  0  0  0  0  0
    8.5991   -1.1200    0.0000 H   0  0  0  0  0  0  0  0  0  0  0  0
    8.3722   -0.2731    0.0000 H   0  0  0  0  0  0  0  0  0  0  0  0
    9.7942    4.8100    0.0000 H   0  0  0  0  0  0  0  0  0  0  0  0
  1 13  1  0  0  0  0
  1 26  1  0  0  0  0
  2 10  1  0  0  0  0
  2 37  1  0  0  0  0
  3 14  1  0  0  0  0
  3 40  1  0  0  0  0
  4 11  2  0  0  0  0
  5 23  1  0  0  0  0
  5 50  1  0  0  0  0
  6 10  1  0  0  0  0
  6 11  1  0  0  0  0
  6 13  2  0  0  0  0
  7  9  1  0  0  0  0
  7 11  1  0  0  0  0
  7 27  1  0  0  0  0
  7 28  1  0  0  0  0
  8 10  2  0  0  0  0
  8 12  1  0  0  0  0
  8 14  1  0  0  0  0
  9 15  1  0  0  0  0
  9 29  1  0  0  0  0
  9 30  1  0  0  0  0
 12 17  1  0  0  0  0
 12 31  1  0  0  0  0
 12 32  1  0  0  0  0
 13 16  1  0  0  0  0
 14 16  2  0  0  0  0
 15 18  2  0  0  0  0
 15 19  1  0  0  0  0
 16 33  1  0  0  0  0
 17 20  2  0  0  0  0
 17 34  1  0  0  0  0
 18 21  1  0  0  0  0
 18 35  1  0  0  0  0
 19 22  2  0  0  0  0
 19 36  1  0  0  0  0
 20 24  1  0  0  0  0
 20 25  1  0  0  0  0
 21 23  2  0  0  0  0
 21 38  1  0  0  0  0
 22 23  1  0  0  0  0
 22 39  1  0  0  0  0
 24 41  1  0  0  0  0
 24 45  1  0  0  0  0
 24 46  1  0  0  0  0
 25 42  1  0  0  0  0
 25 43  1  0  0  0  0
 25 44  1  0  0  0  0
 26 47  1  0  0  0  0
 26 48  1  0  0  0  0
 26 49  1  0  0  0  0
M  END
>  <PUBCHEM_COMPOUND_CID>
10450920

>  <PUBCHEM_COMPOUND_CANONICALIZED>
1

>  <PUBCHEM_CACTVS_COMPLEXITY>
477

>  <PUBCHEM_CACTVS_HBOND_ACCEPTOR>
5

>  <PUBCHEM_CACTVS_HBOND_DONOR>
3

>  <PUBCHEM_CACTVS_ROTATABLE_BOND>
7

>  <PUBCHEM_CACTVS_SUBSKEYS>
AAADceB4OAAAAAAAAAAAAAAAAAAAAAAAAAAwYAAAAAAAAAABQAAAGgAACAAADASAmAIyBoAABgCIAqBSAAACCAAkIAAIiAEGCMgMJzaGNRqAcWAl4BUIuQeI7OzOIAACCAAIAABAAAQQABAAAAAAAAAAAA==

>  <PUBCHEM_IUPAC_OPENEYE_NAME>
1-[2,4-dihydroxy-6-methoxy-3-(3-methylbut-2-enyl)phenyl]-3-(4-hydroxyphenyl)propan-1-one

>  <PUBCHEM_IUPAC_CAS_NAME>
1-[2,4-dihydroxy-6-methoxy-3-(3-methylbut-2-enyl)phenyl]-3-(4-hydroxyphenyl)-1-propanone

>  <PUBCHEM_IUPAC_NAME>
1-[2,4-dihydroxy-6-methoxy-3-(3-methylbut-2-enyl)phenyl]-3-(4-hydroxyphenyl)propan-1-one

>  <PUBCHEM_IUPAC_SYSTEMATIC_NAME>
3-(4-hydroxyphenyl)-1-[6-methoxy-3-(3-methylbut-2-enyl)-2,4-bis(oxidanyl)phenyl]propan-1-one

>  <PUBCHEM_IUPAC_TRADITIONAL_NAME>
1-[2,4-dihydroxy-6-methoxy-3-(3-methylbut-2-enyl)phenyl]-3-(4-hydroxyphenyl)propan-1-one

>  <PUBCHEM_IUPAC_INCHI>
InChI=1S/C21H24O5/c1-13(2)4-10-16-18(24)12-19(26-3)20(21(16)25)17(23)11-7-14-5-8-15(22)9-6-14/h4-6,8-9,12,22,24-25H,7,10-11H2,1-3H3

>  <PUBCHEM_IUPAC_INCHIKEY>
SVTCZHIDEDUTBH-UHFFFAOYSA-N

>  <PUBCHEM_XLOGP3_AA>
4.9

>  <PUBCHEM_EXACT_MASS>
356.162

>  <PUBCHEM_MOLECULAR_FORMULA>
C21H24O5

>  <PUBCHEM_MOLECULAR_WEIGHT>
356.418

>  <PUBCHEM_OPENEYE_CAN_SMILES>
CC(=CCC1=C(C=C(C(=C1O)C(=O)CCC2=CC=C(C=C2)O)OC)O)C

>  <PUBCHEM_OPENEYE_ISO_SMILES>
CC(=CCC1=C(C=C(C(=C1O)C(=O)CCC2=CC=C(C=C2)O)OC)O)C

>  <PUBCHEM_CACTVS_TPSA>
87

>  <PUBCHEM_MONOISOTOPIC_WEIGHT>
356.162

>  <PUBCHEM_TOTAL_CHARGE>
0

>  <PUBCHEM_HEAVY_ATOM_COUNT>
26

>  <PUBCHEM_ATOM_DEF_STEREO_COUNT>
0

>  <PUBCHEM_ATOM_UDEF_STEREO_COUNT>
0

>  <PUBCHEM_BOND_DEF_STEREO_COUNT>
0

>  <PUBCHEM_BOND_UDEF_STEREO_COUNT>
0

>  <PUBCHEM_ISOTOPIC_ATOM_COUNT>
0

>  <PUBCHEM_COMPONENT_COUNT>
1

>  <PUBCHEM_CACTVS_TAUTO_COUNT>
42

>  <PUBCHEM_COORDINATE_TYPE>
1
5
255

>  <PUBCHEM_BONDANNOTATIONS>
13  16  8
14  16  8
15  18  8
15  19  8
18  21  8
19  22  8
21  23  8
22  23  8
6  10  8
6  13  8
8  10  8
8  14  8

$$$$
