10488522
 OpenBabel06101807152D

 24 25  0  0  1  0  0  0  0  0999 V2000
    4.3709    0.6589    0.0000 O   0  0  0  0  0  0  0  0  0  0  0  0
    6.2619   -1.0974    0.0000 O   0  0  0  0  0  0  0  0  0  0  0  0
    6.1955    1.8748    0.0000 O   0  0  0  0  0  0  0  0  0  0  0  0
    4.4727    1.6967    0.0000 O   0  0  0  0  0  0  0  0  0  0  0  0
    4.6783   -1.9022    0.0000 N   0  0  0  0  0  0  0  0  0  0  0  0
    4.6783   -0.2927    0.0000 C   0  0  3  0  0  0  0  0  0  0  0  0
    3.7320   -0.5974    0.0000 C   0  0  0  0  0  0  0  0  0  0  0  0
    5.4883    0.2937    0.0000 C   0  0  0  0  0  0  0  0  0  0  0  0
    3.7320   -1.5974    0.0000 C   0  0  0  0  0  0  0  0  0  0  0  0
    5.2619   -1.0974    0.0000 C   0  0  0  0  0  0  0  0  0  0  0  0
    2.8660   -0.0974    0.0000 C   0  0  0  0  0  0  0  0  0  0  0  0
    2.8660   -2.0974    0.0000 C   0  0  0  0  0  0  0  0  0  0  0  0
    2.0000   -0.5974    0.0000 C   0  0  0  0  0  0  0  0  0  0  0  0
    5.3855    1.2884    0.0000 C   0  0  0  0  0  0  0  0  0  0  0  0
    2.0000   -1.5974    0.0000 C   0  0  0  0  0  0  0  0  0  0  0  0
    5.7591   -0.2640    0.0000 H   0  0  0  0  0  0  0  0  0  0  0  0
    6.0846    0.4635    0.0000 H   0  0  0  0  0  0  0  0  0  0  0  0
    4.8709   -2.4915    0.0000 H   0  0  0  0  0  0  0  0  0  0  0  0
    2.8660    0.5226    0.0000 H   0  0  0  0  0  0  0  0  0  0  0  0
    2.8660   -2.7174    0.0000 H   0  0  0  0  0  0  0  0  0  0  0  0
    3.7647    0.7888    0.0000 H   0  0  0  0  0  0  0  0  0  0  0  0
    1.4631   -0.2874    0.0000 H   0  0  0  0  0  0  0  0  0  0  0  0
    1.4631   -1.9074    0.0000 H   0  0  0  0  0  0  0  0  0  0  0  0
    6.1318    2.4915    0.0000 H   0  0  0  0  0  0  0  0  0  0  0  0
  1  6  1  0  0  0  0
  1 21  1  0  0  0  0
  2 10  2  0  0  0  0
  3 14  1  0  0  0  0
  3 24  1  0  0  0  0
  4 14  2  0  0  0  0
  5  9  1  0  0  0  0
  5 10  1  0  0  0  0
  5 18  1  0  0  0  0
  6  7  1  0  0  0  0
  6  8  1  0  0  0  0
  6 10  1  0  0  0  0
  7  9  1  0  0  0  0
  7 11  2  0  0  0  0
  8 14  1  0  0  0  0
  8 16  1  0  0  0  0
  8 17  1  0  0  0  0
  9 12  2  0  0  0  0
 11 13  1  0  0  0  0
 11 19  1  0  0  0  0
 12 15  1  0  0  0  0
 12 20  1  0  0  0  0
 13 15  2  0  0  0  0
 13 22  1  0  0  0  0
 15 23  1  0  0  0  0
M  END
>  <PUBCHEM_COMPOUND_CID>
10488522

>  <PUBCHEM_COMPOUND_CANONICALIZED>
1

>  <PUBCHEM_CACTVS_COMPLEXITY>
304

>  <PUBCHEM_CACTVS_HBOND_ACCEPTOR>
4

>  <PUBCHEM_CACTVS_HBOND_DONOR>
3

>  <PUBCHEM_CACTVS_ROTATABLE_BOND>
2

>  <PUBCHEM_CACTVS_SUBSKEYS>
AAADccByOAAAAAAAAAAAAAAAAAAAAWAAAAAwAAAAAAAAAFgBAAAAHgAQCAAADEyBmAAwyILAAgCIAiXSWAKCAAAhAgAIiAFAbIgKJjbAlZGEcAhn9AHY2Ae/2eOegAAAAAACAAAAAAAAAAQAAAAAAAAAAA==

>  <PUBCHEM_IUPAC_OPENEYE_NAME>
2-(3-hydroxy-2-oxo-indolin-3-yl)acetic acid

>  <PUBCHEM_IUPAC_CAS_NAME>
2-(3-hydroxy-2-oxo-1H-indol-3-yl)acetic acid

>  <PUBCHEM_IUPAC_NAME>
2-(3-hydroxy-2-oxo-1H-indol-3-yl)acetic acid

>  <PUBCHEM_IUPAC_SYSTEMATIC_NAME>
2-(3-oxidanyl-2-oxidanylidene-1H-indol-3-yl)ethanoic acid

>  <PUBCHEM_IUPAC_TRADITIONAL_NAME>
2-(3-hydroxy-2-keto-indolin-3-yl)acetic acid

>  <PUBCHEM_IUPAC_INCHI>
InChI=1S/C10H9NO4/c12-8(13)5-10(15)6-3-1-2-4-7(6)11-9(10)14/h1-4,15H,5H2,(H,11,14)(H,12,13)

>  <PUBCHEM_IUPAC_INCHIKEY>
MHLHEINWUCSPTL-UHFFFAOYSA-N

>  <PUBCHEM_XLOGP3_AA>
0.1

>  <PUBCHEM_EXACT_MASS>
207.053

>  <PUBCHEM_MOLECULAR_FORMULA>
C10H9NO4

>  <PUBCHEM_MOLECULAR_WEIGHT>
207.185

>  <PUBCHEM_OPENEYE_CAN_SMILES>
C1=CC=C2C(=C1)C(C(=O)N2)(CC(=O)O)O

>  <PUBCHEM_OPENEYE_ISO_SMILES>
C1=CC=C2C(=C1)C(C(=O)N2)(CC(=O)O)O

>  <PUBCHEM_CACTVS_TPSA>
86.6

>  <PUBCHEM_MONOISOTOPIC_WEIGHT>
207.053

>  <PUBCHEM_TOTAL_CHARGE>
0

>  <PUBCHEM_HEAVY_ATOM_COUNT>
15

>  <PUBCHEM_ATOM_DEF_STEREO_COUNT>
0

>  <PUBCHEM_ATOM_UDEF_STEREO_COUNT>
1

>  <PUBCHEM_BOND_DEF_STEREO_COUNT>
0

>  <PUBCHEM_BOND_UDEF_STEREO_COUNT>
0

>  <PUBCHEM_ISOTOPIC_ATOM_COUNT>
0

>  <PUBCHEM_COMPONENT_COUNT>
1

>  <PUBCHEM_CACTVS_TAUTO_COUNT>
2

>  <PUBCHEM_COORDINATE_TYPE>
1
5
255

>  <PUBCHEM_BONDANNOTATIONS>
6  1  3
11  13  8
12  15  8
13  15  8
7  11  8
7  9  8
9  12  8

$$$$
