10495590
 OpenBabel06101807152D

 35 37  0  0  0  0  0  0  0  0999 V2000
    6.3580   -1.8017    0.0000 O   0  0  0  0  0  0  0  0  0  0  0  0
    2.8660    0.2329    0.0000 O   0  0  0  0  0  0  0  0  0  0  0  0
    4.5981    1.2329    0.0000 O   0  0  0  0  0  0  0  0  0  0  0  0
    6.3465    1.2675    0.0000 O   0  0  0  0  0  0  0  0  0  0  0  0
    2.8660   -1.7671    0.0000 O   0  0  0  0  0  0  0  0  0  0  0  0
   10.7282   -0.2329    0.0000 O   0  0  0  0  0  0  0  0  0  0  0  0
   10.7205    1.7671    0.0000 O   0  0  0  0  0  0  0  0  0  0  0  0
    5.4641   -0.2671    0.0000 C   0  0  0  0  0  0  0  0  0  0  0  0
    7.2641   -0.2463    0.0000 C   0  0  0  0  0  0  0  0  0  0  0  0
    5.4641   -1.2671    0.0000 C   0  0  0  0  0  0  0  0  0  0  0  0
    6.3580    0.2676    0.0000 C   0  0  0  0  0  0  0  0  0  0  0  0
    4.5981    0.2329    0.0000 C   0  0  0  0  0  0  0  0  0  0  0  0
    8.1282    0.2571    0.0000 C   0  0  0  0  0  0  0  0  0  0  0  0
    3.7320   -0.2671    0.0000 C   0  0  0  0  0  0  0  0  0  0  0  0
    4.5981   -1.7671    0.0000 C   0  0  0  0  0  0  0  0  0  0  0  0
    7.2641   -1.2879    0.0000 C   0  0  0  0  0  0  0  0  0  0  0  0
    3.7320   -1.2671    0.0000 C   0  0  0  0  0  0  0  0  0  0  0  0
    8.9962   -0.2396    0.0000 C   0  0  0  0  0  0  0  0  0  0  0  0
    8.1244    1.2571    0.0000 C   0  0  0  0  0  0  0  0  0  0  0  0
    9.8602    0.2638    0.0000 C   0  0  0  0  0  0  0  0  0  0  0  0
    8.9884    1.7604    0.0000 C   0  0  0  0  0  0  0  0  0  0  0  0
    9.8564    1.2637    0.0000 C   0  0  0  0  0  0  0  0  0  0  0  0
    2.0000   -0.2671    0.0000 C   0  0  0  0  0  0  0  0  0  0  0  0
    4.5981   -2.3871    0.0000 H   0  0  0  0  0  0  0  0  0  0  0  0
    7.7998   -1.6000    0.0000 H   0  0  0  0  0  0  0  0  0  0  0  0
    8.9985   -0.8596    0.0000 H   0  0  0  0  0  0  0  0  0  0  0  0
    7.5862    1.5650    0.0000 H   0  0  0  0  0  0  0  0  0  0  0  0
    8.9860    2.3804    0.0000 H   0  0  0  0  0  0  0  0  0  0  0  0
    4.0611    1.5429    0.0000 H   0  0  0  0  0  0  0  0  0  0  0  0
    2.8660   -2.3871    0.0000 H   0  0  0  0  0  0  0  0  0  0  0  0
    1.6900    0.2699    0.0000 H   0  0  0  0  0  0  0  0  0  0  0  0
    1.4631   -0.5771    0.0000 H   0  0  0  0  0  0  0  0  0  0  0  0
    2.3100   -0.8040    0.0000 H   0  0  0  0  0  0  0  0  0  0  0  0
   10.7306   -0.8529    0.0000 H   0  0  0  0  0  0  0  0  0  0  0  0
   10.7181    2.3871    0.0000 H   0  0  0  0  0  0  0  0  0  0  0  0
  1 10  1  0  0  0  0
  1 16  1  0  0  0  0
  2 14  1  0  0  0  0
  2 23  1  0  0  0  0
  3 12  1  0  0  0  0
  3 29  1  0  0  0  0
  4 11  2  0  0  0  0
  5 17  1  0  0  0  0
  5 30  1  0  0  0  0
  6 20  1  0  0  0  0
  6 34  1  0  0  0  0
  7 22  1  0  0  0  0
  7 35  1  0  0  0  0
  8 10  2  0  0  0  0
  8 11  1  0  0  0  0
  8 12  1  0  0  0  0
  9 11  1  0  0  0  0
  9 13  1  0  0  0  0
  9 16  2  0  0  0  0
 10 15  1  0  0  0  0
 12 14  2  0  0  0  0
 13 18  2  0  0  0  0
 13 19  1  0  0  0  0
 14 17  1  0  0  0  0
 15 17  2  0  0  0  0
 15 24  1  0  0  0  0
 16 25  1  0  0  0  0
 18 20  1  0  0  0  0
 18 26  1  0  0  0  0
 19 21  2  0  0  0  0
 19 27  1  0  0  0  0
 20 22  2  0  0  0  0
 21 22  1  0  0  0  0
 21 28  1  0  0  0  0
 23 31  1  0  0  0  0
 23 32  1  0  0  0  0
 23 33  1  0  0  0  0
M  END
>  <PUBCHEM_COMPOUND_CID>
10495590

>  <PUBCHEM_COMPOUND_CANONICALIZED>
1

>  <PUBCHEM_CACTVS_COMPLEXITY>
491

>  <PUBCHEM_CACTVS_HBOND_ACCEPTOR>
7

>  <PUBCHEM_CACTVS_HBOND_DONOR>
4

>  <PUBCHEM_CACTVS_ROTATABLE_BOND>
2

>  <PUBCHEM_CACTVS_SUBSKEYS>
AAADccB4OAAAAAAAAAAAAAAAAAAAAAAAAAAwYIAAAAAAAACBQAAAGgAACAAADASgmAIyBoAABgCIAqBSAAACCAAkIAAIiAEGiMgNJzaGNRqAcWMl4BULuYfK7PzOIQABCAAIQABCAAIQABCAAAAAAAAAAA==

>  <PUBCHEM_IUPAC_OPENEYE_NAME>
3-(3,4-dihydroxyphenyl)-5,7-dihydroxy-6-methoxy-chromen-4-one

>  <PUBCHEM_IUPAC_CAS_NAME>
3-(3,4-dihydroxyphenyl)-5,7-dihydroxy-6-methoxy-1-benzopyran-4-one

>  <PUBCHEM_IUPAC_NAME>
3-(3,4-dihydroxyphenyl)-5,7-dihydroxy-6-methoxychromen-4-one

>  <PUBCHEM_IUPAC_SYSTEMATIC_NAME>
3-[3,4-bis(oxidanyl)phenyl]-6-methoxy-5,7-bis(oxidanyl)chromen-4-one

>  <PUBCHEM_IUPAC_TRADITIONAL_NAME>
3-(3,4-dihydroxyphenyl)-5,7-dihydroxy-6-methoxy-chromone

>  <PUBCHEM_IUPAC_INCHI>
InChI=1S/C16H12O7/c1-22-16-11(19)5-12-13(15(16)21)14(20)8(6-23-12)7-2-3-9(17)10(18)4-7/h2-6,17-19,21H,1H3

>  <PUBCHEM_IUPAC_INCHIKEY>
VYCWOMOGAIPFPW-UHFFFAOYSA-N

>  <PUBCHEM_XLOGP3_AA>
2.3

>  <PUBCHEM_EXACT_MASS>
316.058

>  <PUBCHEM_MOLECULAR_FORMULA>
C16H12O7

>  <PUBCHEM_MOLECULAR_WEIGHT>
316.265

>  <PUBCHEM_OPENEYE_CAN_SMILES>
COC1=C(C=C2C(=C1O)C(=O)C(=CO2)C3=CC(=C(C=C3)O)O)O

>  <PUBCHEM_OPENEYE_ISO_SMILES>
COC1=C(C=C2C(=C1O)C(=O)C(=CO2)C3=CC(=C(C=C3)O)O)O

>  <PUBCHEM_CACTVS_TPSA>
116

>  <PUBCHEM_MONOISOTOPIC_WEIGHT>
316.058

>  <PUBCHEM_TOTAL_CHARGE>
0

>  <PUBCHEM_HEAVY_ATOM_COUNT>
23

>  <PUBCHEM_ATOM_DEF_STEREO_COUNT>
0

>  <PUBCHEM_ATOM_UDEF_STEREO_COUNT>
0

>  <PUBCHEM_BOND_DEF_STEREO_COUNT>
0

>  <PUBCHEM_BOND_UDEF_STEREO_COUNT>
0

>  <PUBCHEM_ISOTOPIC_ATOM_COUNT>
0

>  <PUBCHEM_COMPONENT_COUNT>
1

>  <PUBCHEM_CACTVS_TAUTO_COUNT>
120

>  <PUBCHEM_COORDINATE_TYPE>
1
5
255

>  <PUBCHEM_BONDANNOTATIONS>
1  10  8
1  16  8
10  15  8
12  14  8
13  18  8
13  19  8
14  17  8
15  17  8
18  20  8
19  21  8
20  22  8
21  22  8
8  10  8
8  11  8
8  12  8
9  11  8
9  16  8

$$$$
