105118
 OpenBabel06101807152D

 35 38  0  0  0  0  0  0  0  0999 V2000
    7.4714   -0.0057    0.0000 O   0  0  0  0  0  0  0  0  0  0  0  0
    3.9271    1.7991    0.0000 O   0  0  0  0  0  0  0  0  0  0  0  0
    5.6591    2.7991    0.0000 O   0  0  0  0  0  0  0  0  0  0  0  0
    3.8831   -0.2078    0.0000 C   0  0  0  0  0  0  0  0  0  0  0  0
    2.9562    0.3563    0.0000 C   0  0  0  0  0  0  0  0  0  0  0  0
    2.0084   -0.1716    0.0000 C   0  0  0  0  0  0  0  0  0  0  0  0
    3.8751   -1.2494    0.0000 C   0  0  0  0  0  0  0  0  0  0  0  0
    4.7931    0.2991    0.0000 C   0  0  0  0  0  0  0  0  0  0  0  0
    2.0000   -1.2566    0.0000 C   0  0  0  0  0  0  0  0  0  0  0  0
    5.6591   -0.2009    0.0000 C   0  0  0  0  0  0  0  0  0  0  0  0
    2.9396   -1.7991    0.0000 C   0  0  0  0  0  0  0  0  0  0  0  0
    6.5251    0.2991    0.0000 C   0  0  0  0  0  0  0  0  0  0  0  0
    4.7771   -1.7702    0.0000 C   0  0  0  0  0  0  0  0  0  0  0  0
    6.5251    1.2991    0.0000 C   0  0  0  0  0  0  0  0  0  0  0  0
    5.6752   -1.2424    0.0000 C   0  0  0  0  0  0  0  0  0  0  0  0
    4.7931    1.2991    0.0000 C   0  0  0  0  0  0  0  0  0  0  0  0
    5.6591    1.7991    0.0000 C   0  0  0  0  0  0  0  0  0  0  0  0
    7.4714    1.6038    0.0000 C   0  0  0  0  0  0  0  0  0  0  0  0
    2.9435   -2.7991    0.0000 C   0  0  0  0  0  0  0  0  0  0  0  0
    8.0550    0.7991    0.0000 C   0  0  0  0  0  0  0  0  0  0  0  0
    7.7820    2.5543    0.0000 C   0  0  0  0  0  0  0  0  0  0  0  0
    3.3645    0.8230    0.0000 H   0  0  0  0  0  0  0  0  0  0  0  0
    2.5663    0.8384    0.0000 H   0  0  0  0  0  0  0  0  0  0  0  0
    1.8038    0.4137    0.0000 H   0  0  0  0  0  0  0  0  0  0  0  0
    1.3967   -0.2730    0.0000 H   0  0  0  0  0  0  0  0  0  0  0  0
    1.3900   -1.1458    0.0000 H   0  0  0  0  0  0  0  0  0  0  0  0
    1.7864   -1.8386    0.0000 H   0  0  0  0  0  0  0  0  0  0  0  0
    4.7795   -2.3902    0.0000 H   0  0  0  0  0  0  0  0  0  0  0  0
    6.2157   -1.5462    0.0000 H   0  0  0  0  0  0  0  0  0  0  0  0
    2.4078   -3.1112    0.0000 H   0  0  0  0  0  0  0  0  0  0  0  0
    3.4816   -3.1070    0.0000 H   0  0  0  0  0  0  0  0  0  0  0  0
    8.6750    0.7991    0.0000 H   0  0  0  0  0  0  0  0  0  0  0  0
    8.3713    2.3617    0.0000 H   0  0  0  0  0  0  0  0  0  0  0  0
    7.9746    3.1437    0.0000 H   0  0  0  0  0  0  0  0  0  0  0  0
    7.1927    2.7469    0.0000 H   0  0  0  0  0  0  0  0  0  0  0  0
  1 12  1  0  0  0  0
  1 20  1  0  0  0  0
  2 16  2  0  0  0  0
  3 17  2  0  0  0  0
  4  5  1  0  0  0  0
  4  7  2  0  0  0  0
  4  8  1  0  0  0  0
  5  6  1  0  0  0  0
  5 22  1  0  0  0  0
  5 23  1  0  0  0  0
  6  9  1  0  0  0  0
  6 24  1  0  0  0  0
  6 25  1  0  0  0  0
  7 11  1  0  0  0  0
  7 13  1  0  0  0  0
  8 10  2  0  0  0  0
  8 16  1  0  0  0  0
  9 11  1  0  0  0  0
  9 26  1  0  0  0  0
  9 27  1  0  0  0  0
 10 12  1  0  0  0  0
 10 15  1  0  0  0  0
 11 19  2  0  0  0  0
 12 14  2  0  0  0  0
 13 15  2  0  0  0  0
 13 28  1  0  0  0  0
 14 17  1  0  0  0  0
 14 18  1  0  0  0  0
 15 29  1  0  0  0  0
 16 17  1  0  0  0  0
 18 20  2  0  0  0  0
 18 21  1  0  0  0  0
 19 30  1  0  0  0  0
 19 31  1  0  0  0  0
 20 32  1  0  0  0  0
 21 33  1  0  0  0  0
 21 34  1  0  0  0  0
 21 35  1  0  0  0  0
M  END
>  <PUBCHEM_COMPOUND_CID>
105118

>  <PUBCHEM_COMPOUND_CANONICALIZED>
1

>  <PUBCHEM_CACTVS_COMPLEXITY>
509

>  <PUBCHEM_CACTVS_HBOND_ACCEPTOR>
3

>  <PUBCHEM_CACTVS_HBOND_DONOR>
0

>  <PUBCHEM_CACTVS_ROTATABLE_BOND>
0

>  <PUBCHEM_CACTVS_SUBSKEYS>
AAADccB4MAAAAAAAAAAAAAAAAAAAASAAAAAwYMAAAAAAAEjBwAAAGgAAAAAADASgmAIyBIAABECIAqhSgAACCAAkIAAIiAEECMgMJjaMNRqCOWCk4BEIqYeLzvDuwAACAAAQAACAAAYAADAAAAAAAAAAAA==

>  <PUBCHEM_IUPAC_OPENEYE_NAME>
1-methyl-6-methylene-8,9-dihydro-7H-naphtho[1,2-g]benzofuran-10,11-dione

>  <PUBCHEM_IUPAC_CAS_NAME>
1-methyl-6-methylene-8,9-dihydro-7H-naphtho[1,2-g]benzofuran-10,11-dione

>  <PUBCHEM_IUPAC_NAME>
1-methyl-6-methylidene-8,9-dihydro-7H-naphtho[1,2-g][1]benzofuran-10,11-dione

>  <PUBCHEM_IUPAC_SYSTEMATIC_NAME>
1-methyl-6-methylidene-8,9-dihydro-7H-naphtho[1,2-g][1]benzofuran-10,11-dione

>  <PUBCHEM_IUPAC_TRADITIONAL_NAME>
1-methyl-6-methylene-8,9-dihydro-7H-naphtho[1,2-g]benzofuran-10,11-quinone

>  <PUBCHEM_IUPAC_INCHI>
InChI=1S/C18H14O3/c1-9-4-3-5-12-11(9)6-7-13-15(12)17(20)16(19)14-10(2)8-21-18(13)14/h6-8H,1,3-5H2,2H3

>  <PUBCHEM_IUPAC_INCHIKEY>
QDFFAXSMLUUJSG-UHFFFAOYSA-N

>  <PUBCHEM_XLOGP3_AA>
3.3

>  <PUBCHEM_EXACT_MASS>
278.094

>  <PUBCHEM_MOLECULAR_FORMULA>
C18H14O3

>  <PUBCHEM_MOLECULAR_WEIGHT>
278.307

>  <PUBCHEM_OPENEYE_CAN_SMILES>
CC1=COC2=C1C(=O)C(=O)C3=C2C=CC4=C3CCCC4=C

>  <PUBCHEM_OPENEYE_ISO_SMILES>
CC1=COC2=C1C(=O)C(=O)C3=C2C=CC4=C3CCCC4=C

>  <PUBCHEM_CACTVS_TPSA>
47.3

>  <PUBCHEM_MONOISOTOPIC_WEIGHT>
278.094

>  <PUBCHEM_TOTAL_CHARGE>
0

>  <PUBCHEM_HEAVY_ATOM_COUNT>
21

>  <PUBCHEM_ATOM_DEF_STEREO_COUNT>
0

>  <PUBCHEM_ATOM_UDEF_STEREO_COUNT>
0

>  <PUBCHEM_BOND_DEF_STEREO_COUNT>
0

>  <PUBCHEM_BOND_UDEF_STEREO_COUNT>
0

>  <PUBCHEM_ISOTOPIC_ATOM_COUNT>
0

>  <PUBCHEM_COMPONENT_COUNT>
1

>  <PUBCHEM_CACTVS_TAUTO_COUNT>
1

>  <PUBCHEM_COORDINATE_TYPE>
1
5
255

>  <PUBCHEM_BONDANNOTATIONS>
1  12  8
1  20  8
10  15  8
12  14  8
13  15  8
14  18  8
18  20  8
4  7  8
4  8  8
7  13  8
8  10  8

$$$$
