1051542
 OpenBabel06101807152D

 25 26  0  0  0  0  0  0  0  0999 V2000
    6.3580    0.0080    0.0000 O   0  0  0  0  0  0  0  0  0  0  0  0
    2.8660    0.0427    0.0000 O   0  0  0  0  0  0  0  0  0  0  0  0
    3.7320   -1.4573    0.0000 O   0  0  0  0  0  0  0  0  0  0  0  0
    8.1282    0.0185    0.0000 O   0  0  0  0  0  0  0  0  0  0  0  0
    4.5981    0.0427    0.0000 C   0  0  0  0  0  0  0  0  0  0  0  0
    5.4641    0.5427    0.0000 C   0  0  0  0  0  0  0  0  0  0  0  0
    5.4641    1.5427    0.0000 C   0  0  0  0  0  0  0  0  0  0  0  0
    3.7320    0.5427    0.0000 C   0  0  0  0  0  0  0  0  0  0  0  0
    4.5981    2.0427    0.0000 C   0  0  0  0  0  0  0  0  0  0  0  0
    4.5981   -0.9573    0.0000 C   0  0  0  0  0  0  0  0  0  0  0  0
    3.7320    1.5427    0.0000 C   0  0  0  0  0  0  0  0  0  0  0  0
    6.3580    2.0773    0.0000 C   0  0  0  0  0  0  0  0  0  0  0  0
    7.2641    1.5635    0.0000 C   0  0  0  0  0  0  0  0  0  0  0  0
    7.2641    0.5219    0.0000 C   0  0  0  0  0  0  0  0  0  0  0  0
    2.0000    0.5427    0.0000 C   0  0  0  0  0  0  0  0  0  0  0  0
    4.5981    2.6627    0.0000 H   0  0  0  0  0  0  0  0  0  0  0  0
    4.8101   -1.5399    0.0000 H   0  0  0  0  0  0  0  0  0  0  0  0
    5.2087   -0.8497    0.0000 H   0  0  0  0  0  0  0  0  0  0  0  0
    3.1951    1.8527    0.0000 H   0  0  0  0  0  0  0  0  0  0  0  0
    6.3509    2.6973    0.0000 H   0  0  0  0  0  0  0  0  0  0  0  0
    7.7998    1.8756    0.0000 H   0  0  0  0  0  0  0  0  0  0  0  0
    3.7320   -2.0773    0.0000 H   0  0  0  0  0  0  0  0  0  0  0  0
    2.3100    1.0796    0.0000 H   0  0  0  0  0  0  0  0  0  0  0  0
    1.4631    0.8527    0.0000 H   0  0  0  0  0  0  0  0  0  0  0  0
    1.6900    0.0057    0.0000 H   0  0  0  0  0  0  0  0  0  0  0  0
  1  6  1  0  0  0  0
  1 14  1  0  0  0  0
  2  8  1  0  0  0  0
  2 15  1  0  0  0  0
  3 10  1  0  0  0  0
  3 22  1  0  0  0  0
  4 14  2  0  0  0  0
  5  6  1  0  0  0  0
  5  8  2  0  0  0  0
  5 10  1  0  0  0  0
  6  7  2  0  0  0  0
  7  9  1  0  0  0  0
  7 12  1  0  0  0  0
  8 11  1  0  0  0  0
  9 11  2  0  0  0  0
  9 16  1  0  0  0  0
 10 17  1  0  0  0  0
 10 18  1  0  0  0  0
 11 19  1  0  0  0  0
 12 13  2  0  0  0  0
 12 20  1  0  0  0  0
 13 14  1  0  0  0  0
 13 21  1  0  0  0  0
 15 23  1  0  0  0  0
 15 24  1  0  0  0  0
 15 25  1  0  0  0  0
M  END
>  <PUBCHEM_COMPOUND_CID>
1051542

>  <PUBCHEM_COMPOUND_CANONICALIZED>
1

>  <PUBCHEM_CACTVS_COMPLEXITY>
274

>  <PUBCHEM_CACTVS_HBOND_ACCEPTOR>
4

>  <PUBCHEM_CACTVS_HBOND_DONOR>
1

>  <PUBCHEM_CACTVS_ROTATABLE_BOND>
2

>  <PUBCHEM_CACTVS_SUBSKEYS>
AAADccBwOAAAAAAAAAAAAAAAAAAAAAAAAAAwQAAAAAAAAACBAAAAGgAACAAADASgmAIyDoAABgCIAiDSCAACCAAgIAAIiAAGCMgMNyKEMRqCeiClwBUIuYeA4GwOIAACCAAIAABAAAQQABAAAAAAAAAAAA==

>  <PUBCHEM_IUPAC_OPENEYE_NAME>
8-(hydroxymethyl)-7-methoxy-chromen-2-one

>  <PUBCHEM_IUPAC_CAS_NAME>
8-(hydroxymethyl)-7-methoxy-1-benzopyran-2-one

>  <PUBCHEM_IUPAC_NAME>
8-(hydroxymethyl)-7-methoxychromen-2-one

>  <PUBCHEM_IUPAC_SYSTEMATIC_NAME>
8-(hydroxymethyl)-7-methoxy-chromen-2-one

>  <PUBCHEM_IUPAC_TRADITIONAL_NAME>
7-methoxy-8-methylol-coumarin

>  <PUBCHEM_IUPAC_INCHI>
InChI=1S/C11H10O4/c1-14-9-4-2-7-3-5-10(13)15-11(7)8(9)6-12/h2-5,12H,6H2,1H3

>  <PUBCHEM_IUPAC_INCHIKEY>
LKHUOTSOCUDANT-UHFFFAOYSA-N

>  <PUBCHEM_XLOGP3_AA>
1

>  <PUBCHEM_EXACT_MASS>
206.058

>  <PUBCHEM_MOLECULAR_FORMULA>
C11H10O4

>  <PUBCHEM_MOLECULAR_WEIGHT>
206.197

>  <PUBCHEM_OPENEYE_CAN_SMILES>
COC1=C(C2=C(C=C1)C=CC(=O)O2)CO

>  <PUBCHEM_OPENEYE_ISO_SMILES>
COC1=C(C2=C(C=C1)C=CC(=O)O2)CO

>  <PUBCHEM_CACTVS_TPSA>
55.8

>  <PUBCHEM_MONOISOTOPIC_WEIGHT>
206.058

>  <PUBCHEM_TOTAL_CHARGE>
0

>  <PUBCHEM_HEAVY_ATOM_COUNT>
15

>  <PUBCHEM_ATOM_DEF_STEREO_COUNT>
0

>  <PUBCHEM_ATOM_UDEF_STEREO_COUNT>
0

>  <PUBCHEM_BOND_DEF_STEREO_COUNT>
0

>  <PUBCHEM_BOND_UDEF_STEREO_COUNT>
0

>  <PUBCHEM_ISOTOPIC_ATOM_COUNT>
0

>  <PUBCHEM_COMPONENT_COUNT>
1

>  <PUBCHEM_CACTVS_TAUTO_COUNT>
1

>  <PUBCHEM_COORDINATE_TYPE>
1
5
255

>  <PUBCHEM_BONDANNOTATIONS>
1  14  8
1  6  8
12  13  8
13  14  8
5  6  8
5  8  8
6  7  8
7  12  8
7  9  8
8  11  8
9  11  8

$$$$
