10530465
 OpenBabel06101807152D

101102  0  0  0  0  0  0  0  0999 V2000
    7.9244   -5.9039    0.0000 O   0  0  0  0  0  0  0  0  0  0  0  0
    6.2781   -5.3658    0.0000 N   0  0  0  0  0  0  0  0  0  0  0  0
    4.6783   -9.0825    0.0000 N   0  0  0  0  0  0  0  0  0  0  0  0
   14.9916    1.7809    0.0000 C   0  0  0  0  0  0  0  0  0  0  0  0
   15.3023    2.7314    0.0000 C   0  0  0  0  0  0  0  0  0  0  0  0
   14.0131    1.5747    0.0000 C   0  0  0  0  0  0  0  0  0  0  0  0
   16.2808    2.9376    0.0000 C   0  0  0  0  0  0  0  0  0  0  0  0
   13.7024    0.6241    0.0000 C   0  0  0  0  0  0  0  0  0  0  0  0
   16.5914    3.8881    0.0000 C   0  0  0  0  0  0  0  0  0  0  0  0
   12.7239    0.4179    0.0000 C   0  0  0  0  0  0  0  0  0  0  0  0
   17.5700    4.0944    0.0000 C   0  0  0  0  0  0  0  0  0  0  0  0
   12.4133   -0.5326    0.0000 C   0  0  0  0  0  0  0  0  0  0  0  0
   17.8806    5.0449    0.0000 C   0  0  0  0  0  0  0  0  0  0  0  0
   11.4348   -0.7388    0.0000 C   0  0  0  0  0  0  0  0  0  0  0  0
   18.8591    5.2511    0.0000 C   0  0  0  0  0  0  0  0  0  0  0  0
   11.1241   -1.6893    0.0000 C   0  0  0  0  0  0  0  0  0  0  0  0
   19.1698    6.2016    0.0000 C   0  0  0  0  0  0  0  0  0  0  0  0
   10.1456   -1.8956    0.0000 C   0  0  0  0  0  0  0  0  0  0  0  0
   20.1483    6.4078    0.0000 C   0  0  0  0  0  0  0  0  0  0  0  0
    9.8349   -2.8461    0.0000 C   0  0  0  0  0  0  0  0  0  0  0  0
   20.4590    7.3584    0.0000 C   0  0  0  0  0  0  0  0  0  0  0  0
    8.8564   -3.0523    0.0000 C   0  0  0  0  0  0  0  0  0  0  0  0
   21.4375    7.5646    0.0000 C   0  0  0  0  0  0  0  0  0  0  0  0
    8.5458   -4.0028    0.0000 C   0  0  0  0  0  0  0  0  0  0  0  0
   21.7481    8.5151    0.0000 C   0  0  0  0  0  0  0  0  0  0  0  0
    7.5673   -4.2090    0.0000 C   0  0  0  0  0  0  0  0  0  0  0  0
   22.7266    8.7213    0.0000 C   0  0  0  0  0  0  0  0  0  0  0  0
    7.2566   -5.1596    0.0000 C   0  0  0  0  0  0  0  0  0  0  0  0
   23.0373    9.6718    0.0000 C   0  0  0  0  0  0  0  0  0  0  0  0
    5.9674   -6.3163    0.0000 C   0  0  0  0  0  0  0  0  0  0  0  0
    4.9889   -6.5225    0.0000 C   0  0  0  0  0  0  0  0  0  0  0  0
    4.6783   -7.4730    0.0000 C   0  0  0  0  0  0  0  0  0  0  0  0
    3.7320   -7.7778    0.0000 C   0  0  0  0  0  0  0  0  0  0  0  0
    3.7320   -8.7778    0.0000 C   0  0  0  0  0  0  0  0  0  0  0  0
    5.2619   -8.2778    0.0000 C   0  0  0  0  0  0  0  0  0  0  0  0
    2.8660   -7.2778    0.0000 C   0  0  0  0  0  0  0  0  0  0  0  0
    2.8660   -9.2778    0.0000 C   0  0  0  0  0  0  0  0  0  0  0  0
    2.0000   -7.7778    0.0000 C   0  0  0  0  0  0  0  0  0  0  0  0
    2.0000   -8.7778    0.0000 C   0  0  0  0  0  0  0  0  0  0  0  0
   15.0122    1.1612    0.0000 H   0  0  0  0  0  0  0  0  0  0  0  0
   15.6054    1.6935    0.0000 H   0  0  0  0  0  0  0  0  0  0  0  0
   15.2817    3.3510    0.0000 H   0  0  0  0  0  0  0  0  0  0  0  0
   14.6885    2.8187    0.0000 H   0  0  0  0  0  0  0  0  0  0  0  0
   13.9925    2.1943    0.0000 H   0  0  0  0  0  0  0  0  0  0  0  0
   13.3993    1.6620    0.0000 H   0  0  0  0  0  0  0  0  0  0  0  0
   16.3013    2.3180    0.0000 H   0  0  0  0  0  0  0  0  0  0  0  0
   16.8946    2.8503    0.0000 H   0  0  0  0  0  0  0  0  0  0  0  0
   13.7230    0.0045    0.0000 H   0  0  0  0  0  0  0  0  0  0  0  0
   14.3163    0.5368    0.0000 H   0  0  0  0  0  0  0  0  0  0  0  0
   16.5709    4.5078    0.0000 H   0  0  0  0  0  0  0  0  0  0  0  0
   15.9776    3.9755    0.0000 H   0  0  0  0  0  0  0  0  0  0  0  0
   12.7034    1.0376    0.0000 H   0  0  0  0  0  0  0  0  0  0  0  0
   12.1101    0.5053    0.0000 H   0  0  0  0  0  0  0  0  0  0  0  0
   17.5905    3.4747    0.0000 H   0  0  0  0  0  0  0  0  0  0  0  0
   18.1838    4.0070    0.0000 H   0  0  0  0  0  0  0  0  0  0  0  0
   12.4338   -1.1523    0.0000 H   0  0  0  0  0  0  0  0  0  0  0  0
   13.0271   -0.6200    0.0000 H   0  0  0  0  0  0  0  0  0  0  0  0
   17.8601    5.6645    0.0000 H   0  0  0  0  0  0  0  0  0  0  0  0
   17.2668    5.1322    0.0000 H   0  0  0  0  0  0  0  0  0  0  0  0
   11.4142   -0.1192    0.0000 H   0  0  0  0  0  0  0  0  0  0  0  0
   10.8210   -0.6515    0.0000 H   0  0  0  0  0  0  0  0  0  0  0  0
   18.8797    4.6314    0.0000 H   0  0  0  0  0  0  0  0  0  0  0  0
   19.4729    5.1637    0.0000 H   0  0  0  0  0  0  0  0  0  0  0  0
   11.1447   -2.3090    0.0000 H   0  0  0  0  0  0  0  0  0  0  0  0
   11.7379   -1.7767    0.0000 H   0  0  0  0  0  0  0  0  0  0  0  0
   19.1492    6.8213    0.0000 H   0  0  0  0  0  0  0  0  0  0  0  0
   18.5560    6.2890    0.0000 H   0  0  0  0  0  0  0  0  0  0  0  0
   10.1250   -1.2759    0.0000 H   0  0  0  0  0  0  0  0  0  0  0  0
    9.5318   -1.8082    0.0000 H   0  0  0  0  0  0  0  0  0  0  0  0
   20.1689    5.7882    0.0000 H   0  0  0  0  0  0  0  0  0  0  0  0
   20.7621    6.3205    0.0000 H   0  0  0  0  0  0  0  0  0  0  0  0
    9.8555   -3.4657    0.0000 H   0  0  0  0  0  0  0  0  0  0  0  0
   10.4488   -2.9334    0.0000 H   0  0  0  0  0  0  0  0  0  0  0  0
   20.4384    7.9780    0.0000 H   0  0  0  0  0  0  0  0  0  0  0  0
   19.8451    7.4457    0.0000 H   0  0  0  0  0  0  0  0  0  0  0  0
    8.8359   -2.4326    0.0000 H   0  0  0  0  0  0  0  0  0  0  0  0
    8.2426   -2.9650    0.0000 H   0  0  0  0  0  0  0  0  0  0  0  0
   21.4580    6.9449    0.0000 H   0  0  0  0  0  0  0  0  0  0  0  0
   22.0513    7.4772    0.0000 H   0  0  0  0  0  0  0  0  0  0  0  0
    8.5663   -4.6225    0.0000 H   0  0  0  0  0  0  0  0  0  0  0  0
    9.1596   -4.0902    0.0000 H   0  0  0  0  0  0  0  0  0  0  0  0
   21.7276    9.1348    0.0000 H   0  0  0  0  0  0  0  0  0  0  0  0
   21.1343    8.6024    0.0000 H   0  0  0  0  0  0  0  0  0  0  0  0
    7.5467   -3.5894    0.0000 H   0  0  0  0  0  0  0  0  0  0  0  0
    6.9534   -4.1217    0.0000 H   0  0  0  0  0  0  0  0  0  0  0  0
   22.7472    8.1016    0.0000 H   0  0  0  0  0  0  0  0  0  0  0  0
   23.3404    8.6340    0.0000 H   0  0  0  0  0  0  0  0  0  0  0  0
   23.6266    9.4792    0.0000 H   0  0  0  0  0  0  0  0  0  0  0  0
   23.2299   10.2611    0.0000 H   0  0  0  0  0  0  0  0  0  0  0  0
   22.4480    9.8644    0.0000 H   0  0  0  0  0  0  0  0  0  0  0  0
    5.9880   -6.9360    0.0000 H   0  0  0  0  0  0  0  0  0  0  0  0
    6.5812   -6.4036    0.0000 H   0  0  0  0  0  0  0  0  0  0  0  0
    5.8640   -4.9043    0.0000 H   0  0  0  0  0  0  0  0  0  0  0  0
    4.9684   -5.9029    0.0000 H   0  0  0  0  0  0  0  0  0  0  0  0
    4.3751   -6.4352    0.0000 H   0  0  0  0  0  0  0  0  0  0  0  0
    5.8819   -8.2778    0.0000 H   0  0  0  0  0  0  0  0  0  0  0  0
    4.8709   -9.6718    0.0000 H   0  0  0  0  0  0  0  0  0  0  0  0
    2.8660   -6.6578    0.0000 H   0  0  0  0  0  0  0  0  0  0  0  0
    2.8660   -9.8978    0.0000 H   0  0  0  0  0  0  0  0  0  0  0  0
    1.4631   -7.4678    0.0000 H   0  0  0  0  0  0  0  0  0  0  0  0
    1.4631   -9.0878    0.0000 H   0  0  0  0  0  0  0  0  0  0  0  0
  1 28  2  0  0  0  0
  2 28  1  0  0  0  0
  2 30  1  0  0  0  0
  2 93  1  0  0  0  0
  3 34  1  0  0  0  0
  3 35  1  0  0  0  0
  3 97  1  0  0  0  0
  4  5  1  0  0  0  0
  4  6  1  0  0  0  0
  4 40  1  0  0  0  0
  4 41  1  0  0  0  0
  5  7  1  0  0  0  0
  5 42  1  0  0  0  0
  5 43  1  0  0  0  0
  6  8  1  0  0  0  0
  6 44  1  0  0  0  0
  6 45  1  0  0  0  0
  7  9  1  0  0  0  0
  7 46  1  0  0  0  0
  7 47  1  0  0  0  0
  8 10  1  0  0  0  0
  8 48  1  0  0  0  0
  8 49  1  0  0  0  0
  9 11  1  0  0  0  0
  9 50  1  0  0  0  0
  9 51  1  0  0  0  0
 10 12  1  0  0  0  0
 10 52  1  0  0  0  0
 10 53  1  0  0  0  0
 11 13  1  0  0  0  0
 11 54  1  0  0  0  0
 11 55  1  0  0  0  0
 12 14  1  0  0  0  0
 12 56  1  0  0  0  0
 12 57  1  0  0  0  0
 13 15  1  0  0  0  0
 13 58  1  0  0  0  0
 13 59  1  0  0  0  0
 14 16  1  0  0  0  0
 14 60  1  0  0  0  0
 14 61  1  0  0  0  0
 15 17  1  0  0  0  0
 15 62  1  0  0  0  0
 15 63  1  0  0  0  0
 16 18  1  0  0  0  0
 16 64  1  0  0  0  0
 16 65  1  0  0  0  0
 17 19  1  0  0  0  0
 17 66  1  0  0  0  0
 17 67  1  0  0  0  0
 18 20  1  0  0  0  0
 18 68  1  0  0  0  0
 18 69  1  0  0  0  0
 19 21  1  0  0  0  0
 19 70  1  0  0  0  0
 19 71  1  0  0  0  0
 20 22  1  0  0  0  0
 20 72  1  0  0  0  0
 20 73  1  0  0  0  0
 21 23  1  0  0  0  0
 21 74  1  0  0  0  0
 21 75  1  0  0  0  0
 22 24  1  0  0  0  0
 22 76  1  0  0  0  0
 22 77  1  0  0  0  0
 23 25  1  0  0  0  0
 23 78  1  0  0  0  0
 23 79  1  0  0  0  0
 24 26  1  0  0  0  0
 24 80  1  0  0  0  0
 24 81  1  0  0  0  0
 25 27  1  0  0  0  0
 25 82  1  0  0  0  0
 25 83  1  0  0  0  0
 26 28  1  0  0  0  0
 26 84  1  0  0  0  0
 26 85  1  0  0  0  0
 27 29  1  0  0  0  0
 27 86  1  0  0  0  0
 27 87  1  0  0  0  0
 29 88  1  0  0  0  0
 29 89  1  0  0  0  0
 29 90  1  0  0  0  0
 30 31  1  0  0  0  0
 30 91  1  0  0  0  0
 30 92  1  0  0  0  0
 31 32  1  0  0  0  0
 31 94  1  0  0  0  0
 31 95  1  0  0  0  0
 32 33  1  0  0  0  0
 32 35  2  0  0  0  0
 33 34  1  0  0  0  0
 33 36  2  0  0  0  0
 34 37  2  0  0  0  0
 35 96  1  0  0  0  0
 36 38  1  0  0  0  0
 36 98  1  0  0  0  0
 37 39  1  0  0  0  0
 37 99  1  0  0  0  0
 38 39  2  0  0  0  0
 38100  1  0  0  0  0
 39101  1  0  0  0  0
M  END
>  <PUBCHEM_COMPOUND_CID>
10530465

>  <PUBCHEM_COMPOUND_CANONICALIZED>
1

>  <PUBCHEM_CACTVS_COMPLEXITY>
550

>  <PUBCHEM_CACTVS_HBOND_ACCEPTOR>
1

>  <PUBCHEM_CACTVS_HBOND_DONOR>
2

>  <PUBCHEM_CACTVS_ROTATABLE_BOND>
27

>  <PUBCHEM_CACTVS_SUBSKEYS>
AAADcfB/IAAAAAAAAAAAAAAAAAAAAWAAAAAwAAAAAAAAAFgB8AAAHgAQAAAADAjBngQ+wPLJkACoAzV3VACCgCAxAiAI2aE4ZJgIIPLAkZGEIAhglgDIyAcYiMCOgAAAAAACAAAAAAAAAAQAAAAAAAAAAA==

>  <PUBCHEM_IUPAC_OPENEYE_NAME>
N-[2-(1H-indol-3-yl)ethyl]hexacosanamide

>  <PUBCHEM_IUPAC_CAS_NAME>
N-[2-(1H-indol-3-yl)ethyl]hexacosanamide

>  <PUBCHEM_IUPAC_NAME>
N-[2-(1H-indol-3-yl)ethyl]hexacosanamide

>  <PUBCHEM_IUPAC_SYSTEMATIC_NAME>
N-[2-(1H-indol-3-yl)ethyl]hexacosanamide

>  <PUBCHEM_IUPAC_TRADITIONAL_NAME>
N-[2-(1H-indol-3-yl)ethyl]cerotamide

>  <PUBCHEM_IUPAC_INCHI>
InChI=1S/C36H62N2O/c1-2-3-4-5-6-7-8-9-10-11-12-13-14-15-16-17-18-19-20-21-22-23-24-29-36(39)37-31-30-33-32-38-35-28-26-25-27-34(33)35/h25-28,32,38H,2-24,29-31H2,1H3,(H,37,39)

>  <PUBCHEM_IUPAC_INCHIKEY>
RBGZJJPNEDSXQH-UHFFFAOYSA-N

>  <PUBCHEM_XLOGP3>
14.5

>  <PUBCHEM_EXACT_MASS>
538.486

>  <PUBCHEM_MOLECULAR_FORMULA>
C36H62N2O

>  <PUBCHEM_MOLECULAR_WEIGHT>
538.905

>  <PUBCHEM_OPENEYE_CAN_SMILES>
CCCCCCCCCCCCCCCCCCCCCCCCCC(=O)NCCC1=CNC2=CC=CC=C21

>  <PUBCHEM_OPENEYE_ISO_SMILES>
CCCCCCCCCCCCCCCCCCCCCCCCCC(=O)NCCC1=CNC2=CC=CC=C21

>  <PUBCHEM_CACTVS_TPSA>
44.9

>  <PUBCHEM_MONOISOTOPIC_WEIGHT>
538.486

>  <PUBCHEM_TOTAL_CHARGE>
0

>  <PUBCHEM_HEAVY_ATOM_COUNT>
39

>  <PUBCHEM_ATOM_DEF_STEREO_COUNT>
0

>  <PUBCHEM_ATOM_UDEF_STEREO_COUNT>
0

>  <PUBCHEM_BOND_DEF_STEREO_COUNT>
0

>  <PUBCHEM_BOND_UDEF_STEREO_COUNT>
0

>  <PUBCHEM_ISOTOPIC_ATOM_COUNT>
0

>  <PUBCHEM_COMPONENT_COUNT>
1

>  <PUBCHEM_CACTVS_TAUTO_COUNT>
2

>  <PUBCHEM_COORDINATE_TYPE>
1
5
255

>  <PUBCHEM_BONDANNOTATIONS>
3  34  8
3  35  8
32  33  8
32  35  8
33  34  8
33  36  8
34  37  8
36  38  8
37  39  8
38  39  8

$$$$
