10534
 OpenBabel06101807152D

 39 40  0  0  1  0  0  0  0  0999 V2000
    6.0315    1.0639    0.0000 C   0  0  3  0  0  0  0  0  0  0  0  0
    4.6588    0.4719    0.0000 C   0  0  3  0  0  0  0  0  0  0  0  0
    6.2903    2.0298    0.0000 C   0  0  3  0  0  0  0  0  0  0  0  0
    5.5537    3.0125    0.0000 C   0  0  0  0  0  0  0  0  0  0  0  0
    7.4304    0.5551    0.0000 C   0  0  0  0  0  0  0  0  0  0  0  0
    4.3167    1.4116    0.0000 C   0  0  0  0  0  0  0  0  0  0  0  0
    7.6892    1.5210    0.0000 C   0  0  0  0  0  0  0  0  0  0  0  0
    3.7841   -0.0129    0.0000 C   0  0  0  0  0  0  0  0  0  0  0  0
    4.8496   -0.5097    0.0000 C   0  0  0  0  0  0  0  0  0  0  0  0
    3.4104    1.8342    0.0000 C   0  0  0  0  0  0  0  0  0  0  0  0
    3.7667   -1.0128    0.0000 C   0  0  0  0  0  0  0  0  0  0  0  0
    2.8921   -1.4976    0.0000 C   0  0  0  0  0  0  0  0  0  0  0  0
    2.8746   -2.4974    0.0000 C   0  0  0  0  0  0  0  0  0  0  0  0
    2.0000   -2.9822    0.0000 C   0  0  0  0  0  0  0  0  0  0  0  0
    3.7318   -3.0125    0.0000 C   0  0  0  0  0  0  0  0  0  0  0  0
    6.0496    0.4442    0.0000 H   0  0  0  0  0  0  0  0  0  0  0  0
    6.2763    1.4100    0.0000 H   0  0  0  0  0  0  0  0  0  0  0  0
    5.8715    3.5448    0.0000 H   0  0  0  0  0  0  0  0  0  0  0  0
    4.9405    3.1044    0.0000 H   0  0  0  0  0  0  0  0  0  0  0  0
    7.2355   -0.0335    0.0000 H   0  0  0  0  0  0  0  0  0  0  0  0
    8.0244    0.3773    0.0000 H   0  0  0  0  0  0  0  0  0  0  0  0
    8.2832    1.3432    0.0000 H   0  0  0  0  0  0  0  0  0  0  0  0
    7.8842    2.1096    0.0000 H   0  0  0  0  0  0  0  0  0  0  0  0
    3.5823    0.5733    0.0000 H   0  0  0  0  0  0  0  0  0  0  0  0
    3.1718   -0.1099    0.0000 H   0  0  0  0  0  0  0  0  0  0  0  0
    4.2410   -0.6280    0.0000 H   0  0  0  0  0  0  0  0  0  0  0  0
    4.9679   -1.1183    0.0000 H   0  0  0  0  0  0  0  0  0  0  0  0
    5.4582   -0.3914    0.0000 H   0  0  0  0  0  0  0  0  0  0  0  0
    3.3564    2.4518    0.0000 H   0  0  0  0  0  0  0  0  0  0  0  0
    2.9026    1.4786    0.0000 H   0  0  0  0  0  0  0  0  0  0  0  0
    3.9685   -1.5990    0.0000 H   0  0  0  0  0  0  0  0  0  0  0  0
    4.3791   -0.9158    0.0000 H   0  0  0  0  0  0  0  0  0  0  0  0
    2.3606   -1.1782    0.0000 H   0  0  0  0  0  0  0  0  0  0  0  0
    3.4125   -3.5439    0.0000 H   0  0  0  0  0  0  0  0  0  0  0  0
    4.2632   -3.3318    0.0000 H   0  0  0  0  0  0  0  0  0  0  0  0
    4.0511   -2.4810    0.0000 H   0  0  0  0  0  0  0  0  0  0  0  0
    1.6994   -2.4400    0.0000 H   0  0  0  0  0  0  0  0  0  0  0  0
    1.4577   -3.2828    0.0000 H   0  0  0  0  0  0  0  0  0  0  0  0
    2.3006   -3.5245    0.0000 H   0  0  0  0  0  0  0  0  0  0  0  0
  1  2  1  0  0  0  0
  1  4  1  0  0  0  0
  1  5  1  0  0  0  0
  1 16  1  0  0  0  0
  2  6  1  0  0  0  0
  2  8  1  0  0  0  0
  2  9  1  0  0  0  0
  3  4  1  0  0  0  0
  3  6  1  0  0  0  0
  3  7  1  0  0  0  0
  3 17  1  0  0  0  0
  4 18  1  0  0  0  0
  4 19  1  0  0  0  0
  5  7  1  0  0  0  0
  5 20  1  0  0  0  0
  5 21  1  0  0  0  0
  6 10  2  0  0  0  0
  7 22  1  0  0  0  0
  7 23  1  0  0  0  0
  8 11  1  0  0  0  0
  8 24  1  0  0  0  0
  8 25  1  0  0  0  0
  9 26  1  0  0  0  0
  9 27  1  0  0  0  0
  9 28  1  0  0  0  0
 10 29  1  0  0  0  0
 10 30  1  0  0  0  0
 11 12  1  0  0  0  0
 11 31  1  0  0  0  0
 11 32  1  0  0  0  0
 12 13  2  0  0  0  0
 12 33  1  0  0  0  0
 13 14  1  0  0  0  0
 13 15  1  0  0  0  0
 14 37  1  0  0  0  0
 14 38  1  0  0  0  0
 14 39  1  0  0  0  0
 15 34  1  0  0  0  0
 15 35  1  0  0  0  0
 15 36  1  0  0  0  0
M  END
>  <PUBCHEM_COMPOUND_CID>
10534

>  <PUBCHEM_COMPOUND_CANONICALIZED>
1

>  <PUBCHEM_CACTVS_COMPLEXITY>
293

>  <PUBCHEM_CACTVS_HBOND_ACCEPTOR>
0

>  <PUBCHEM_CACTVS_HBOND_DONOR>
0

>  <PUBCHEM_CACTVS_ROTATABLE_BOND>
3

>  <PUBCHEM_CACTVS_SUBSKEYS>
AAADceBwAAAAAAAAAAAAAAAAAAAAAYMAAAAwAAAAAAAAAAAAAAAAGAAAAAAADwCAAAACAAAAAACAAiBCAAAAAAAgAAAACAAAAAgAAAIAAQAAAAAAgAAIAAMAgMAPgAAAAAAAAAAAAAQAACAAAQAACAAAAA==

>  <PUBCHEM_IUPAC_OPENEYE_NAME>
2-methyl-3-methylene-2-(4-methylpent-3-enyl)norbornane

>  <PUBCHEM_IUPAC_CAS_NAME>
3-methyl-2-methylene-3-(4-methylpent-3-enyl)bicyclo[2.2.1]heptane

>  <PUBCHEM_IUPAC_NAME>
3-methyl-2-methylidene-3-(4-methylpent-3-enyl)bicyclo[2.2.1]heptane

>  <PUBCHEM_IUPAC_SYSTEMATIC_NAME>
3-methyl-2-methylidene-3-(4-methylpent-3-enyl)bicyclo[2.2.1]heptane

>  <PUBCHEM_IUPAC_TRADITIONAL_NAME>
2-methyl-3-methylene-2-(4-methylpent-3-enyl)norbornane

>  <PUBCHEM_IUPAC_INCHI>
InChI=1S/C15H24/c1-11(2)6-5-9-15(4)12(3)13-7-8-14(15)10-13/h6,13-14H,3,5,7-10H2,1-2,4H3

>  <PUBCHEM_IUPAC_INCHIKEY>
PGBNIHXXFQBCPU-UHFFFAOYSA-N

>  <PUBCHEM_XLOGP3_AA>
5.3

>  <PUBCHEM_EXACT_MASS>
204.188

>  <PUBCHEM_MOLECULAR_FORMULA>
C15H24

>  <PUBCHEM_MOLECULAR_WEIGHT>
204.357

>  <PUBCHEM_OPENEYE_CAN_SMILES>
CC(=CCCC1(C2CCC(C2)C1=C)C)C

>  <PUBCHEM_OPENEYE_ISO_SMILES>
CC(=CCCC1(C2CCC(C2)C1=C)C)C

>  <PUBCHEM_CACTVS_TPSA>
0

>  <PUBCHEM_MONOISOTOPIC_WEIGHT>
204.188

>  <PUBCHEM_TOTAL_CHARGE>
0

>  <PUBCHEM_HEAVY_ATOM_COUNT>
15

>  <PUBCHEM_ATOM_DEF_STEREO_COUNT>
0

>  <PUBCHEM_ATOM_UDEF_STEREO_COUNT>
3

>  <PUBCHEM_BOND_DEF_STEREO_COUNT>
0

>  <PUBCHEM_BOND_UDEF_STEREO_COUNT>
0

>  <PUBCHEM_ISOTOPIC_ATOM_COUNT>
0

>  <PUBCHEM_COMPONENT_COUNT>
1

>  <PUBCHEM_CACTVS_TAUTO_COUNT>
1

>  <PUBCHEM_COORDINATE_TYPE>
1
5
255

>  <PUBCHEM_BONDANNOTATIONS>
1  5  3
2  9  3
3  4  3

$$$$
