10542808
 OpenBabel06101807152D

 39 42  0  0  0  0  0  0  0  0999 V2000
    4.7600    1.1428    0.0000 O   0  0  0  0  0  0  0  0  0  0  0  0
    3.8047   -0.4062    0.0000 O   0  0  0  0  0  0  0  0  0  0  0  0
    3.0000    4.1774    0.0000 O   0  0  0  0  0  0  0  0  0  0  0  0
    4.0000   -3.9505    0.0000 O   0  0  0  0  0  0  0  0  0  0  0  0
    5.6660    1.6566    0.0000 C   0  0  0  0  0  0  0  0  0  0  0  0
    3.8660    1.6774    0.0000 C   0  0  0  0  0  0  0  0  0  0  0  0
    3.8660    2.6774    0.0000 C   0  0  0  0  0  0  0  0  0  0  0  0
    5.6660    2.6982    0.0000 C   0  0  0  0  0  0  0  0  0  0  0  0
    3.0000    1.1774    0.0000 C   0  0  0  0  0  0  0  0  0  0  0  0
    6.6660    1.6528    0.0000 C   0  0  0  0  0  0  0  0  0  0  0  0
    6.1627    0.7887    0.0000 C   0  0  0  0  0  0  0  0  0  0  0  0
    4.7600    3.2121    0.0000 C   0  0  0  0  0  0  0  0  0  0  0  0
    3.0000    0.1774    0.0000 C   0  0  0  0  0  0  0  0  0  0  0  0
    3.0000    3.1774    0.0000 C   0  0  0  0  0  0  0  0  0  0  0  0
    2.1340    1.6774    0.0000 C   0  0  0  0  0  0  0  0  0  0  0  0
    2.1953   -0.4062    0.0000 C   0  0  0  0  0  0  0  0  0  0  0  0
    2.5000   -1.3524    0.0000 C   0  0  0  0  0  0  0  0  0  0  0  0
    2.1340    2.6774    0.0000 C   0  0  0  0  0  0  0  0  0  0  0  0
    3.5000   -1.3524    0.0000 C   0  0  0  0  0  0  0  0  0  0  0  0
    2.0000   -2.2184    0.0000 C   0  0  0  0  0  0  0  0  0  0  0  0
    4.0000   -2.2184    0.0000 C   0  0  0  0  0  0  0  0  0  0  0  0
    3.5000   -3.0845    0.0000 C   0  0  0  0  0  0  0  0  0  0  0  0
    2.5000   -3.0845    0.0000 C   0  0  0  0  0  0  0  0  0  0  0  0
    6.2018    3.0103    0.0000 H   0  0  0  0  0  0  0  0  0  0  0  0
    5.6246    0.4807    0.0000 H   0  0  0  0  0  0  0  0  0  0  0  0
    6.4706    0.2505    0.0000 H   0  0  0  0  0  0  0  0  0  0  0  0
    6.6636    1.0328    0.0000 H   0  0  0  0  0  0  0  0  0  0  0  0
    7.2860    1.6504    0.0000 H   0  0  0  0  0  0  0  0  0  0  0  0
    6.6684    2.2728    0.0000 H   0  0  0  0  0  0  0  0  0  0  0  0
    6.7008    1.0966    0.0000 H   0  0  0  0  0  0  0  0  0  0  0  0
    4.7528    3.8320    0.0000 H   0  0  0  0  0  0  0  0  0  0  0  0
    1.5970    1.3674    0.0000 H   0  0  0  0  0  0  0  0  0  0  0  0
    1.6060   -0.2136    0.0000 H   0  0  0  0  0  0  0  0  0  0  0  0
    1.5970    2.9874    0.0000 H   0  0  0  0  0  0  0  0  0  0  0  0
    1.3800   -2.2184    0.0000 H   0  0  0  0  0  0  0  0  0  0  0  0
    4.6200   -2.2184    0.0000 H   0  0  0  0  0  0  0  0  0  0  0  0
    2.1900   -3.6214    0.0000 H   0  0  0  0  0  0  0  0  0  0  0  0
    2.4631    4.4874    0.0000 H   0  0  0  0  0  0  0  0  0  0  0  0
    3.6900   -4.4874    0.0000 H   0  0  0  0  0  0  0  0  0  0  0  0
  1  5  1  0  0  0  0
  1  6  1  0  0  0  0
  2 13  1  0  0  0  0
  2 19  1  0  0  0  0
  3 14  1  0  0  0  0
  3 38  1  0  0  0  0
  4 22  1  0  0  0  0
  4 39  1  0  0  0  0
  5  8  1  0  0  0  0
  5 10  1  0  0  0  0
  5 11  1  0  0  0  0
  6  7  1  0  0  0  0
  6  9  2  0  0  0  0
  7 12  1  0  0  0  0
  7 14  2  0  0  0  0
  8 12  2  0  0  0  0
  8 24  1  0  0  0  0
  9 13  1  0  0  0  0
  9 15  1  0  0  0  0
 10 27  1  0  0  0  0
 10 28  1  0  0  0  0
 10 29  1  0  0  0  0
 11 25  1  0  0  0  0
 11 26  1  0  0  0  0
 11 30  1  0  0  0  0
 12 31  1  0  0  0  0
 13 16  2  0  0  0  0
 14 18  1  0  0  0  0
 15 18  2  0  0  0  0
 15 32  1  0  0  0  0
 16 17  1  0  0  0  0
 16 33  1  0  0  0  0
 17 19  2  0  0  0  0
 17 20  1  0  0  0  0
 18 34  1  0  0  0  0
 19 21  1  0  0  0  0
 20 23  2  0  0  0  0
 20 35  1  0  0  0  0
 21 22  2  0  0  0  0
 21 36  1  0  0  0  0
 22 23  1  0  0  0  0
 23 37  1  0  0  0  0
M  END
>  <PUBCHEM_COMPOUND_CID>
10542808

>  <PUBCHEM_COMPOUND_CANONICALIZED>
1

>  <PUBCHEM_CACTVS_COMPLEXITY>
474

>  <PUBCHEM_CACTVS_HBOND_ACCEPTOR>
4

>  <PUBCHEM_CACTVS_HBOND_DONOR>
2

>  <PUBCHEM_CACTVS_ROTATABLE_BOND>
1

>  <PUBCHEM_CACTVS_SUBSKEYS>
AAADceB4OAAAAAAAAAAAAAAAAAAAASAAAAAwYIAAAAAAAEiB9AAAGgAACAAADESAmAAyBsAABkCIAqBSAAACCAAkIAAIiAEGCMgMJzaGNRqCeWCl4BUIuYeI7PzOIAACCAAIAABAAAQQABAAAAAAAAAAAA==

>  <PUBCHEM_IUPAC_OPENEYE_NAME>
8-(6-hydroxybenzofuran-2-yl)-2,2-dimethyl-chromen-5-ol

>  <PUBCHEM_IUPAC_CAS_NAME>
8-(6-hydroxy-2-benzofuranyl)-2,2-dimethyl-1-benzopyran-5-ol

>  <PUBCHEM_IUPAC_NAME>
8-(6-hydroxy-1-benzofuran-2-yl)-2,2-dimethylchromen-5-ol

>  <PUBCHEM_IUPAC_SYSTEMATIC_NAME>
2,2-dimethyl-8-(6-oxidanyl-1-benzofuran-2-yl)chromen-5-ol

>  <PUBCHEM_IUPAC_TRADITIONAL_NAME>
8-(6-hydroxybenzofuran-2-yl)-2,2-dimethyl-chromen-5-ol

>  <PUBCHEM_IUPAC_INCHI>
InChI=1S/C19H16O4/c1-19(2)8-7-13-15(21)6-5-14(18(13)23-19)17-9-11-3-4-12(20)10-16(11)22-17/h3-10,20-21H,1-2H3

>  <PUBCHEM_IUPAC_INCHIKEY>
SJIZTMNAKZAOTA-UHFFFAOYSA-N

>  <PUBCHEM_XLOGP3_AA>
4.2

>  <PUBCHEM_EXACT_MASS>
308.105

>  <PUBCHEM_MOLECULAR_FORMULA>
C19H16O4

>  <PUBCHEM_MOLECULAR_WEIGHT>
308.333

>  <PUBCHEM_OPENEYE_CAN_SMILES>
CC1(C=CC2=C(C=CC(=C2O1)C3=CC4=C(O3)C=C(C=C4)O)O)C

>  <PUBCHEM_OPENEYE_ISO_SMILES>
CC1(C=CC2=C(C=CC(=C2O1)C3=CC4=C(O3)C=C(C=C4)O)O)C

>  <PUBCHEM_CACTVS_TPSA>
62.8

>  <PUBCHEM_MONOISOTOPIC_WEIGHT>
308.105

>  <PUBCHEM_TOTAL_CHARGE>
0

>  <PUBCHEM_HEAVY_ATOM_COUNT>
23

>  <PUBCHEM_ATOM_DEF_STEREO_COUNT>
0

>  <PUBCHEM_ATOM_UDEF_STEREO_COUNT>
0

>  <PUBCHEM_BOND_DEF_STEREO_COUNT>
0

>  <PUBCHEM_BOND_UDEF_STEREO_COUNT>
0

>  <PUBCHEM_ISOTOPIC_ATOM_COUNT>
0

>  <PUBCHEM_COMPONENT_COUNT>
1

>  <PUBCHEM_CACTVS_TAUTO_COUNT>
8

>  <PUBCHEM_COORDINATE_TYPE>
1
5
255

>  <PUBCHEM_BONDANNOTATIONS>
13  16  8
14  18  8
15  18  8
16  17  8
17  19  8
17  20  8
19  21  8
2  13  8
2  19  8
20  23  8
21  22  8
22  23  8
6  7  8
6  9  8
7  14  8
9  15  8

$$$$
