10558949
 OpenBabel06101807152D

 19 18  0  0  1  0  0  0  0  0999 V2000
    4.5981   -0.0600    0.0000 S   0  0  3  0  0  0  0  0  0  0  0  0
    5.4641    0.4400    0.0000 S   0  0  0  0  0  0  0  0  0  0  0  0
    4.5981   -1.0600    0.0000 O   0  0  0  0  0  0  0  0  0  0  0  0
    3.7320    0.4400    0.0000 C   0  0  0  0  0  0  0  0  0  0  0  0
    2.8660   -0.0600    0.0000 C   0  0  0  0  0  0  0  0  0  0  0  0
    6.3301   -0.0600    0.0000 C   0  0  0  0  0  0  0  0  0  0  0  0
    7.1962    0.4400    0.0000 C   0  0  0  0  0  0  0  0  0  0  0  0
    8.0622   -0.0600    0.0000 C   0  0  0  0  0  0  0  0  0  0  0  0
    2.0000    0.4400    0.0000 C   0  0  0  0  0  0  0  0  0  0  0  0
    4.1306    0.9149    0.0000 H   0  0  0  0  0  0  0  0  0  0  0  0
    3.3335    0.9149    0.0000 H   0  0  0  0  0  0  0  0  0  0  0  0
    2.8660   -0.6800    0.0000 H   0  0  0  0  0  0  0  0  0  0  0  0
    6.3301   -0.6800    0.0000 H   0  0  0  0  0  0  0  0  0  0  0  0
    7.1962    1.0600    0.0000 H   0  0  0  0  0  0  0  0  0  0  0  0
    7.7522   -0.5969    0.0000 H   0  0  0  0  0  0  0  0  0  0  0  0
    8.5991   -0.3700    0.0000 H   0  0  0  0  0  0  0  0  0  0  0  0
    8.3722    0.4769    0.0000 H   0  0  0  0  0  0  0  0  0  0  0  0
    2.0000    1.0600    0.0000 H   0  0  0  0  0  0  0  0  0  0  0  0
    1.4631    0.1300    0.0000 H   0  0  0  0  0  0  0  0  0  0  0  0
  1  2  1  0  0  0  0
  1  3  2  0  0  0  0
  1  4  1  0  0  0  0
  2  6  1  0  0  0  0
  4  5  1  0  0  0  0
  4 10  1  0  0  0  0
  4 11  1  0  0  0  0
  5  9  2  0  0  0  0
  5 12  1  0  0  0  0
  6  7  2  0  0  0  0
  6 13  1  0  0  0  0
  7  8  1  0  0  0  0
  7 14  1  0  0  0  0
  8 15  1  0  0  0  0
  8 16  1  0  0  0  0
  8 17  1  0  0  0  0
  9 18  1  0  0  0  0
  9 19  1  0  0  0  0
M  END
>  <PUBCHEM_COMPOUND_CID>
10558949

>  <PUBCHEM_COMPOUND_CANONICALIZED>
1

>  <PUBCHEM_CACTVS_COMPLEXITY>
129

>  <PUBCHEM_CACTVS_HBOND_ACCEPTOR>
3

>  <PUBCHEM_CACTVS_HBOND_DONOR>
0

>  <PUBCHEM_CACTVS_ROTATABLE_BOND>
4

>  <PUBCHEM_CACTVS_SUBSKEYS>
AAADccBgIABgAAAAAAAAAAAAAAAAAAAAAAAAAAAAAAAAAAAAAAAAGAQAAAAACACEQACCAAAAAAKAACBCAEBAAAAAAAAIAAAAAAAAAAAAAQAAAAAAAAAAAAAAAAAAAAAAAAAAAAAAAAAAAAAAAAAAAAAAAA==

>  <PUBCHEM_IUPAC_OPENEYE_NAME>
(E)-1-allylsulfinylsulfanylprop-1-ene

>  <PUBCHEM_IUPAC_CAS_NAME>
(E)-1-(prop-2-enylsulfinylthio)-1-propene

>  <PUBCHEM_IUPAC_NAME>
(E)-1-prop-2-enylsulfinylsulfanylprop-1-ene

>  <PUBCHEM_IUPAC_SYSTEMATIC_NAME>
(E)-1-prop-2-enylsulfinylsulfanylprop-1-ene

>  <PUBCHEM_IUPAC_TRADITIONAL_NAME>
(E)-1-(allylsulfinylthio)prop-1-ene

>  <PUBCHEM_IUPAC_INCHI>
InChI=1S/C6H10OS2/c1-3-5-8-9(7)6-4-2/h3-5H,2,6H2,1H3/b5-3+

>  <PUBCHEM_IUPAC_INCHIKEY>
UALJWNWDDJRJTL-HWKANZROSA-N

>  <PUBCHEM_XLOGP3_AA>
1.4

>  <PUBCHEM_EXACT_MASS>
162.017

>  <PUBCHEM_MOLECULAR_FORMULA>
C6H10OS2

>  <PUBCHEM_MOLECULAR_WEIGHT>
162.265

>  <PUBCHEM_OPENEYE_CAN_SMILES>
CC=CSS(=O)CC=C

>  <PUBCHEM_OPENEYE_ISO_SMILES>
C/C=C/SS(=O)CC=C

>  <PUBCHEM_CACTVS_TPSA>
61.6

>  <PUBCHEM_MONOISOTOPIC_WEIGHT>
162.017

>  <PUBCHEM_TOTAL_CHARGE>
0

>  <PUBCHEM_HEAVY_ATOM_COUNT>
9

>  <PUBCHEM_ATOM_DEF_STEREO_COUNT>
0

>  <PUBCHEM_ATOM_UDEF_STEREO_COUNT>
1

>  <PUBCHEM_BOND_DEF_STEREO_COUNT>
1

>  <PUBCHEM_BOND_UDEF_STEREO_COUNT>
0

>  <PUBCHEM_ISOTOPIC_ATOM_COUNT>
0

>  <PUBCHEM_COMPONENT_COUNT>
1

>  <PUBCHEM_CACTVS_TAUTO_COUNT>
1

>  <PUBCHEM_COORDINATE_TYPE>
1
5
255

>  <PUBCHEM_BONDANNOTATIONS>
1  4  3

$$$$
