10575445
 OpenBabel06101807152D

 57 61  0  0  1  0  0  0  0  0999 V2000
   11.0050   -1.5106    0.0000 O   0  0  0  0  0  0  0  0  0  0  0  0
    6.5130    0.0311    0.0000 O   0  0  0  0  0  0  0  0  0  0  0  0
   10.9092    0.5689    0.0000 O   0  0  0  0  0  0  0  0  0  0  0  0
    7.3852   -1.4657    0.0000 O   0  0  0  0  0  0  0  0  0  0  0  0
    6.5246    3.1004    0.0000 O   0  0  0  0  0  0  0  0  0  0  0  0
    4.6874    3.1435    0.0000 O   0  0  0  0  0  0  0  0  0  0  0  0
    2.8680    0.0200    0.0000 O   0  0  0  0  0  0  0  0  0  0  0  0
    9.1390    1.5658    0.0000 C   0  0  3  0  0  0  0  0  0  0  0  0
    9.1390    0.5658    0.0000 C   0  0  0  0  0  0  0  0  0  0  0  0
    8.2730    2.0658    0.0000 C   0  0  0  0  0  0  0  0  0  0  0  0
    8.2730    0.0658    0.0000 C   0  0  0  0  0  0  0  0  0  0  0  0
    7.4070    1.5658    0.0000 C   0  0  0  0  0  0  0  0  0  0  0  0
    7.4070    0.5658    0.0000 C   0  0  0  0  0  0  0  0  0  0  0  0
   10.0490    0.0589    0.0000 C   0  0  0  0  0  0  0  0  0  0  0  0
   10.0571   -0.9827    0.0000 C   0  0  0  0  0  0  0  0  0  0  0  0
   10.0051    2.0658    0.0000 C   0  0  0  0  0  0  0  0  0  0  0  0
    8.2570   -0.9757    0.0000 C   0  0  0  0  0  0  0  0  0  0  0  0
    9.1550   -1.5035    0.0000 C   0  0  0  0  0  0  0  0  0  0  0  0
   11.0133   -2.5956    0.0000 C   0  0  0  0  0  0  0  0  0  0  0  0
    6.5130    2.1005    0.0000 C   0  0  0  0  0  0  0  0  0  0  0  0
    9.1383   -2.5883    0.0000 C   0  0  0  0  0  0  0  0  0  0  0  0
    5.6070    1.5866    0.0000 C   0  0  0  0  0  0  0  0  0  0  0  0
   10.0737   -3.1381    0.0000 C   0  0  0  0  0  0  0  0  0  0  0  0
    5.6070    0.5450    0.0000 C   0  0  0  0  0  0  0  0  0  0  0  0
   10.0051    3.0658    0.0000 C   0  0  0  0  0  0  0  0  0  0  0  0
   11.5167   -3.4596    0.0000 C   0  0  0  0  0  0  0  0  0  0  0  0
   12.0133   -2.5917    0.0000 C   0  0  0  0  0  0  0  0  0  0  0  0
   10.8711    1.5658    0.0000 C   0  0  0  0  0  0  0  0  0  0  0  0
    4.6758    2.1435    0.0000 C   0  0  0  0  0  0  0  0  0  0  0  0
    4.6758   -0.0119    0.0000 C   0  0  0  0  0  0  0  0  0  0  0  0
    3.7320    0.5233    0.0000 C   0  0  0  0  0  0  0  0  0  0  0  0
    3.7320    1.6083    0.0000 C   0  0  0  0  0  0  0  0  0  0  0  0
    2.0000    0.5166    0.0000 C   0  0  0  0  0  0  0  0  0  0  0  0
    9.1390    2.1858    0.0000 H   0  0  0  0  0  0  0  0  0  0  0  0
    8.6716    2.5407    0.0000 H   0  0  0  0  0  0  0  0  0  0  0  0
    7.8745    2.5407    0.0000 H   0  0  0  0  0  0  0  0  0  0  0  0
    8.5978   -2.8921    0.0000 H   0  0  0  0  0  0  0  0  0  0  0  0
   10.0713   -3.7580    0.0000 H   0  0  0  0  0  0  0  0  0  0  0  0
   10.6251    3.0658    0.0000 H   0  0  0  0  0  0  0  0  0  0  0  0
   10.0051    3.6858    0.0000 H   0  0  0  0  0  0  0  0  0  0  0  0
    9.3851    3.0658    0.0000 H   0  0  0  0  0  0  0  0  0  0  0  0
   10.9809   -3.7717    0.0000 H   0  0  0  0  0  0  0  0  0  0  0  0
   11.8287   -3.9954    0.0000 H   0  0  0  0  0  0  0  0  0  0  0  0
   12.0524   -3.1476    0.0000 H   0  0  0  0  0  0  0  0  0  0  0  0
   12.0157   -3.2117    0.0000 H   0  0  0  0  0  0  0  0  0  0  0  0
   12.6333   -2.5893    0.0000 H   0  0  0  0  0  0  0  0  0  0  0  0
   12.0109   -1.9717    0.0000 H   0  0  0  0  0  0  0  0  0  0  0  0
   10.8711    0.9458    0.0000 H   0  0  0  0  0  0  0  0  0  0  0  0
   11.4080    1.8758    0.0000 H   0  0  0  0  0  0  0  0  0  0  0  0
   11.4497    0.2652    0.0000 H   0  0  0  0  0  0  0  0  0  0  0  0
    7.3780   -2.0856    0.0000 H   0  0  0  0  0  0  0  0  0  0  0  0
    4.6830   -0.6319    0.0000 H   0  0  0  0  0  0  0  0  0  0  0  0
    3.1963    1.9204    0.0000 H   0  0  0  0  0  0  0  0  0  0  0  0
    4.1541    3.4596    0.0000 H   0  0  0  0  0  0  0  0  0  0  0  0
    2.3079    1.0548    0.0000 H   0  0  0  0  0  0  0  0  0  0  0  0
    1.4619    0.8245    0.0000 H   0  0  0  0  0  0  0  0  0  0  0  0
    1.6921   -0.0215    0.0000 H   0  0  0  0  0  0  0  0  0  0  0  0
  1 15  1  0  0  0  0
  1 19  1  0  0  0  0
  2 13  1  0  0  0  0
  2 24  1  0  0  0  0
  3 14  1  0  0  0  0
  3 50  1  0  0  0  0
  4 17  1  0  0  0  0
  4 51  1  0  0  0  0
  5 20  2  0  0  0  0
  6 29  1  0  0  0  0
  6 54  1  0  0  0  0
  7 31  1  0  0  0  0
  7 33  1  0  0  0  0
  8  9  1  0  0  0  0
  8 10  1  0  0  0  0
  8 16  1  0  0  0  0
  8 34  1  0  0  0  0
  9 11  2  0  0  0  0
  9 14  1  0  0  0  0
 10 12  1  0  0  0  0
 10 35  1  0  0  0  0
 10 36  1  0  0  0  0
 11 13  1  0  0  0  0
 11 17  1  0  0  0  0
 12 13  2  0  0  0  0
 12 20  1  0  0  0  0
 14 15  2  0  0  0  0
 15 18  1  0  0  0  0
 16 25  1  0  0  0  0
 16 28  2  0  0  0  0
 17 18  2  0  0  0  0
 18 21  1  0  0  0  0
 19 23  1  0  0  0  0
 19 26  1  0  0  0  0
 19 27  1  0  0  0  0
 20 22  1  0  0  0  0
 21 23  2  0  0  0  0
 21 37  1  0  0  0  0
 22 24  1  0  0  0  0
 22 29  2  0  0  0  0
 23 38  1  0  0  0  0
 24 30  2  0  0  0  0
 25 39  1  0  0  0  0
 25 40  1  0  0  0  0
 25 41  1  0  0  0  0
 26 42  1  0  0  0  0
 26 43  1  0  0  0  0
 26 44  1  0  0  0  0
 27 45  1  0  0  0  0
 27 46  1  0  0  0  0
 27 47  1  0  0  0  0
 28 48  1  0  0  0  0
 28 49  1  0  0  0  0
 29 32  1  0  0  0  0
 30 31  1  0  0  0  0
 30 52  1  0  0  0  0
 31 32  2  0  0  0  0
 32 53  1  0  0  0  0
 33 55  1  0  0  0  0
 33 56  1  0  0  0  0
 33 57  1  0  0  0  0
M  END
>  <PUBCHEM_COMPOUND_CID>
10575445

>  <PUBCHEM_COMPOUND_CANONICALIZED>
1

>  <PUBCHEM_CACTVS_COMPLEXITY>
904

>  <PUBCHEM_CACTVS_HBOND_ACCEPTOR>
7

>  <PUBCHEM_CACTVS_HBOND_DONOR>
3

>  <PUBCHEM_CACTVS_ROTATABLE_BOND>
2

>  <PUBCHEM_CACTVS_SUBSKEYS>
AAADceB4OAAAAAAAAAAAAAAAAAAAAAAAAAAwYIECAAAAAACRQAAAGgAACAAADUSAmAIyBoAABgCIAqBSAAACCAAkIAAIiAEGiMgNJzaGNRqCeWOl4BULuQfI7PzO4QADCAAYQADCAAYQADCAAAAAAAAAAA==

>  <PUBCHEM_IUPAC_OPENEYE_NAME>
5,9,14-trihydroxy-6-isopropenyl-11-methoxy-3,3-dimethyl-6,7-dihydrochromeno[7,6-c]xanthen-8-one

>  <PUBCHEM_IUPAC_CAS_NAME>
5,9,14-trihydroxy-11-methoxy-3,3-dimethyl-6-(1-methylethenyl)-6,7-dihydro[1]benzopyrano[7,6-c]xanthen-8-one

>  <PUBCHEM_IUPAC_NAME>
5,9,14-trihydroxy-11-methoxy-3,3-dimethyl-6-prop-1-en-2-yl-6,7-dihydrochromeno[7,6-c]xanthen-8-one

>  <PUBCHEM_IUPAC_SYSTEMATIC_NAME>
11-methoxy-3,3-dimethyl-5,9,14-tris(oxidanyl)-6-prop-1-en-2-yl-6,7-dihydrochromeno[7,6-c]xanthen-8-one

>  <PUBCHEM_IUPAC_TRADITIONAL_NAME>
5,9,14-trihydroxy-6-isopropenyl-11-methoxy-3,3-dimethyl-6,7-dihydrochromeno[7,6-c]xanthen-8-one

>  <PUBCHEM_IUPAC_INCHI>
InChI=1S/C26H24O7/c1-11(2)14-10-15-22(29)19-16(27)8-12(31-5)9-17(19)32-24(15)20-18(14)23(30)25-13(21(20)28)6-7-26(3,4)33-25/h6-9,14,27-28,30H,1,10H2,2-5H3

>  <PUBCHEM_IUPAC_INCHIKEY>
CNWSDOLXOOXOCZ-UHFFFAOYSA-N

>  <PUBCHEM_XLOGP3_AA>
5.1

>  <PUBCHEM_EXACT_MASS>
448.152

>  <PUBCHEM_MOLECULAR_FORMULA>
C26H24O7

>  <PUBCHEM_MOLECULAR_WEIGHT>
448.471

>  <PUBCHEM_OPENEYE_CAN_SMILES>
CC(=C)C1CC2=C(C3=C1C(=C4C(=C3O)C=CC(O4)(C)C)O)OC5=CC(=CC(=C5C2=O)O)OC

>  <PUBCHEM_OPENEYE_ISO_SMILES>
CC(=C)C1CC2=C(C3=C1C(=C4C(=C3O)C=CC(O4)(C)C)O)OC5=CC(=CC(=C5C2=O)O)OC

>  <PUBCHEM_CACTVS_TPSA>
105

>  <PUBCHEM_MONOISOTOPIC_WEIGHT>
448.152

>  <PUBCHEM_TOTAL_CHARGE>
0

>  <PUBCHEM_HEAVY_ATOM_COUNT>
33

>  <PUBCHEM_ATOM_DEF_STEREO_COUNT>
0

>  <PUBCHEM_ATOM_UDEF_STEREO_COUNT>
1

>  <PUBCHEM_BOND_DEF_STEREO_COUNT>
0

>  <PUBCHEM_BOND_UDEF_STEREO_COUNT>
0

>  <PUBCHEM_ISOTOPIC_ATOM_COUNT>
0

>  <PUBCHEM_COMPONENT_COUNT>
1

>  <PUBCHEM_CACTVS_TAUTO_COUNT>
680

>  <PUBCHEM_COORDINATE_TYPE>
1
5
255

>  <PUBCHEM_BONDANNOTATIONS>
11  17  8
12  13  8
12  20  8
14  15  8
15  18  8
17  18  8
2  13  8
2  24  8
20  22  8
22  24  8
22  29  8
24  30  8
29  32  8
30  31  8
31  32  8
8  16  3
9  11  8
9  14  8

$$$$
