10599507
 OpenBabel06101807152D

 67 69  0  0  0  0  0  0  0  0999 V2000
    6.0812    3.9584    0.0000 O   0  0  0  0  0  0  0  0  0  0  0  0
    9.6648    3.0311    0.0000 O   0  0  0  0  0  0  0  0  0  0  0  0
    9.6648    6.4952    0.0000 O   0  0  0  0  0  0  0  0  0  0  0  0
    2.5369    3.7631    0.0000 O   0  0  0  0  0  0  0  0  0  0  0  0
    8.1648    0.4330    0.0000 C   0  0  0  0  0  0  0  0  0  0  0  0
    8.1648    3.8971    0.0000 C   0  0  0  0  0  0  0  0  0  0  0  0
    7.6648    3.0311    0.0000 C   0  0  0  0  0  0  0  0  0  0  0  0
    7.6648   -0.4330    0.0000 C   0  0  0  0  0  0  0  0  0  0  0  0
    7.6648    1.2990    0.0000 C   0  0  0  0  0  0  0  0  0  0  0  0
    7.6648    4.7631    0.0000 C   0  0  0  0  0  0  0  0  0  0  0  0
    8.1648    2.1651    0.0000 C   0  0  0  0  0  0  0  0  0  0  0  0
    7.6648   -2.1651    0.0000 C   0  0  0  0  0  0  0  0  0  0  0  0
    6.6648    4.7631    0.0000 C   0  0  0  0  0  0  0  0  0  0  0  0
    8.1648   -3.0311    0.0000 C   0  0  0  0  0  0  0  0  0  0  0  0
    8.1648   -1.2990    0.0000 C   0  0  0  0  0  0  0  0  0  0  0  0
    9.1648    3.8971    0.0000 C   0  0  0  0  0  0  0  0  0  0  0  0
    7.6648   -3.8971    0.0000 C   0  0  0  0  0  0  0  0  0  0  0  0
    8.1648    5.6292    0.0000 C   0  0  0  0  0  0  0  0  0  0  0  0
    5.1350    5.2631    0.0000 C   0  0  0  0  0  0  0  0  0  0  0  0
    6.0812    5.5679    0.0000 C   0  0  0  0  0  0  0  0  0  0  0  0
    6.6648    1.2990    0.0000 C   0  0  0  0  0  0  0  0  0  0  0  0
    5.1350    4.2631    0.0000 C   0  0  0  0  0  0  0  0  0  0  0  0
    9.6648    4.7631    0.0000 C   0  0  0  0  0  0  0  0  0  0  0  0
    9.1648    5.6292    0.0000 C   0  0  0  0  0  0  0  0  0  0  0  0
    6.6648   -2.1651    0.0000 C   0  0  0  0  0  0  0  0  0  0  0  0
    8.1648   -4.7631    0.0000 C   0  0  0  0  0  0  0  0  0  0  0  0
    4.2690    5.7631    0.0000 C   0  0  0  0  0  0  0  0  0  0  0  0
    4.2690    3.7631    0.0000 C   0  0  0  0  0  0  0  0  0  0  0  0
    7.6648   -5.6292    0.0000 C   0  0  0  0  0  0  0  0  0  0  0  0
    3.4030    4.2631    0.0000 C   0  0  0  0  0  0  0  0  0  0  0  0
    3.4030    5.2631    0.0000 C   0  0  0  0  0  0  0  0  0  0  0  0
    8.1648   -6.4952    0.0000 C   0  0  0  0  0  0  0  0  0  0  0  0
    6.6648   -5.6292    0.0000 C   0  0  0  0  0  0  0  0  0  0  0  0
    8.6398    0.0345    0.0000 H   0  0  0  0  0  0  0  0  0  0  0  0
    8.6398    0.8315    0.0000 H   0  0  0  0  0  0  0  0  0  0  0  0
    7.1899    3.4296    0.0000 H   0  0  0  0  0  0  0  0  0  0  0  0
    7.1899    2.6326    0.0000 H   0  0  0  0  0  0  0  0  0  0  0  0
    7.1899   -0.0345    0.0000 H   0  0  0  0  0  0  0  0  0  0  0  0
    7.1899   -0.8315    0.0000 H   0  0  0  0  0  0  0  0  0  0  0  0
    8.7848    2.1651    0.0000 H   0  0  0  0  0  0  0  0  0  0  0  0
    8.6398   -3.4296    0.0000 H   0  0  0  0  0  0  0  0  0  0  0  0
    8.6398   -2.6326    0.0000 H   0  0  0  0  0  0  0  0  0  0  0  0
    8.7848   -1.2990    0.0000 H   0  0  0  0  0  0  0  0  0  0  0  0
    7.1899   -3.4986    0.0000 H   0  0  0  0  0  0  0  0  0  0  0  0
    7.1899   -4.2956    0.0000 H   0  0  0  0  0  0  0  0  0  0  0  0
    7.8548    6.1661    0.0000 H   0  0  0  0  0  0  0  0  0  0  0  0
    6.2738    6.1572    0.0000 H   0  0  0  0  0  0  0  0  0  0  0  0
    6.6648    1.9190    0.0000 H   0  0  0  0  0  0  0  0  0  0  0  0
    6.0448    1.2990    0.0000 H   0  0  0  0  0  0  0  0  0  0  0  0
    6.6648    0.6790    0.0000 H   0  0  0  0  0  0  0  0  0  0  0  0
   10.2848    4.7631    0.0000 H   0  0  0  0  0  0  0  0  0  0  0  0
    6.6648   -1.5451    0.0000 H   0  0  0  0  0  0  0  0  0  0  0  0
    6.0448   -2.1651    0.0000 H   0  0  0  0  0  0  0  0  0  0  0  0
    6.6648   -2.7851    0.0000 H   0  0  0  0  0  0  0  0  0  0  0  0
    8.7848   -4.7631    0.0000 H   0  0  0  0  0  0  0  0  0  0  0  0
    4.2690    6.3831    0.0000 H   0  0  0  0  0  0  0  0  0  0  0  0
    4.2690    3.1431    0.0000 H   0  0  0  0  0  0  0  0  0  0  0  0
    2.8660    5.5731    0.0000 H   0  0  0  0  0  0  0  0  0  0  0  0
   10.2848    3.0311    0.0000 H   0  0  0  0  0  0  0  0  0  0  0  0
    7.6279   -6.8052    0.0000 H   0  0  0  0  0  0  0  0  0  0  0  0
    8.4748   -7.0321    0.0000 H   0  0  0  0  0  0  0  0  0  0  0  0
    8.7018   -6.1852    0.0000 H   0  0  0  0  0  0  0  0  0  0  0  0
    6.6648   -5.0092    0.0000 H   0  0  0  0  0  0  0  0  0  0  0  0
    6.0448   -5.6292    0.0000 H   0  0  0  0  0  0  0  0  0  0  0  0
    6.6648   -6.2492    0.0000 H   0  0  0  0  0  0  0  0  0  0  0  0
   10.2848    6.4952    0.0000 H   0  0  0  0  0  0  0  0  0  0  0  0
    2.0000    4.0731    0.0000 H   0  0  0  0  0  0  0  0  0  0  0  0
  1 13  1  0  0  0  0
  1 22  1  0  0  0  0
  2 16  1  0  0  0  0
  2 59  1  0  0  0  0
  3 24  1  0  0  0  0
  3 66  1  0  0  0  0
  4 30  1  0  0  0  0
  4 67  1  0  0  0  0
  5  8  1  0  0  0  0
  5  9  1  0  0  0  0
  5 34  1  0  0  0  0
  5 35  1  0  0  0  0
  6  7  1  0  0  0  0
  6 10  2  0  0  0  0
  6 16  1  0  0  0  0
  7 11  1  0  0  0  0
  7 36  1  0  0  0  0
  7 37  1  0  0  0  0
  8 15  1  0  0  0  0
  8 38  1  0  0  0  0
  8 39  1  0  0  0  0
  9 11  2  0  0  0  0
  9 21  1  0  0  0  0
 10 13  1  0  0  0  0
 10 18  1  0  0  0  0
 11 40  1  0  0  0  0
 12 14  1  0  0  0  0
 12 15  2  0  0  0  0
 12 25  1  0  0  0  0
 13 20  2  0  0  0  0
 14 17  1  0  0  0  0
 14 41  1  0  0  0  0
 14 42  1  0  0  0  0
 15 43  1  0  0  0  0
 16 23  2  0  0  0  0
 17 26  1  0  0  0  0
 17 44  1  0  0  0  0
 17 45  1  0  0  0  0
 18 24  2  0  0  0  0
 18 46  1  0  0  0  0
 19 20  1  0  0  0  0
 19 22  2  0  0  0  0
 19 27  1  0  0  0  0
 20 47  1  0  0  0  0
 21 48  1  0  0  0  0
 21 49  1  0  0  0  0
 21 50  1  0  0  0  0
 22 28  1  0  0  0  0
 23 24  1  0  0  0  0
 23 51  1  0  0  0  0
 25 52  1  0  0  0  0
 25 53  1  0  0  0  0
 25 54  1  0  0  0  0
 26 29  2  0  0  0  0
 26 55  1  0  0  0  0
 27 31  2  0  0  0  0
 27 56  1  0  0  0  0
 28 30  2  0  0  0  0
 28 57  1  0  0  0  0
 29 32  1  0  0  0  0
 29 33  1  0  0  0  0
 30 31  1  0  0  0  0
 31 58  1  0  0  0  0
 32 60  1  0  0  0  0
 32 61  1  0  0  0  0
 32 62  1  0  0  0  0
 33 63  1  0  0  0  0
 33 64  1  0  0  0  0
 33 65  1  0  0  0  0
M  END
>  <PUBCHEM_COMPOUND_CID>
10599507

>  <PUBCHEM_COMPOUND_CANONICALIZED>
1

>  <PUBCHEM_CACTVS_COMPLEXITY>
704

>  <PUBCHEM_CACTVS_HBOND_ACCEPTOR>
4

>  <PUBCHEM_CACTVS_HBOND_DONOR>
3

>  <PUBCHEM_CACTVS_ROTATABLE_BOND>
9

>  <PUBCHEM_CACTVS_SUBSKEYS>
AAADcfB4OAAAAAAAAAAAAAAAAAAAASAAAAAwYAAAAAAAAEgB9AAAGgAACAAADASAmAAyBsAABkCIAqBSAAACCAAkIAAIiAEGCMgMJzaGNRqCeWCl4BUIuYfK7PzOoAABCAAYAABAAAIQADAAAAAAAAAAAA==

>  <PUBCHEM_IUPAC_OPENEYE_NAME>
5-(6-hydroxybenzofuran-2-yl)-4-[(2E,6E)-3,7,11-trimethyldodeca-2,6,10-trienyl]benzene-1,3-diol

>  <PUBCHEM_IUPAC_CAS_NAME>
5-(6-hydroxy-2-benzofuranyl)-4-[(2E,6E)-3,7,11-trimethyldodeca-2,6,10-trienyl]benzene-1,3-diol

>  <PUBCHEM_IUPAC_NAME>
5-(6-hydroxy-1-benzofuran-2-yl)-4-[(2E,6E)-3,7,11-trimethyldodeca-2,6,10-trienyl]benzene-1,3-diol

>  <PUBCHEM_IUPAC_SYSTEMATIC_NAME>
5-(6-oxidanyl-1-benzofuran-2-yl)-4-[(2E,6E)-3,7,11-trimethyldodeca-2,6,10-trienyl]benzene-1,3-diol

>  <PUBCHEM_IUPAC_TRADITIONAL_NAME>
5-(6-hydroxybenzofuran-2-yl)-4-[(2E,6E)-3,7,11-trimethyldodeca-2,6,10-trienyl]resorcinol

>  <PUBCHEM_IUPAC_INCHI>
InChI=1S/C29H34O4/c1-19(2)7-5-8-20(3)9-6-10-21(4)11-14-25-26(16-24(31)17-27(25)32)29-15-22-12-13-23(30)18-28(22)33-29/h7,9,11-13,15-18,30-32H,5-6,8,10,14H2,1-4H3/b20-9+,21-11+

>  <PUBCHEM_IUPAC_INCHIKEY>
YUFBSQFJPYHMTK-SICDNOCMSA-N

>  <PUBCHEM_XLOGP3_AA>
8.6

>  <PUBCHEM_EXACT_MASS>
446.246

>  <PUBCHEM_MOLECULAR_FORMULA>
C29H34O4

>  <PUBCHEM_MOLECULAR_WEIGHT>
446.587

>  <PUBCHEM_OPENEYE_CAN_SMILES>
CC(=CCCC(=CCCC(=CCC1=C(C=C(C=C1C2=CC3=C(O2)C=C(C=C3)O)O)O)C)C)C

>  <PUBCHEM_OPENEYE_ISO_SMILES>
CC(=CCC/C(=C/CC/C(=C/CC1=C(C=C(C=C1C2=CC3=C(O2)C=C(C=C3)O)O)O)/C)/C)C

>  <PUBCHEM_CACTVS_TPSA>
73.8

>  <PUBCHEM_MONOISOTOPIC_WEIGHT>
446.246

>  <PUBCHEM_TOTAL_CHARGE>
0

>  <PUBCHEM_HEAVY_ATOM_COUNT>
33

>  <PUBCHEM_ATOM_DEF_STEREO_COUNT>
0

>  <PUBCHEM_ATOM_UDEF_STEREO_COUNT>
0

>  <PUBCHEM_BOND_DEF_STEREO_COUNT>
2

>  <PUBCHEM_BOND_UDEF_STEREO_COUNT>
0

>  <PUBCHEM_ISOTOPIC_ATOM_COUNT>
0

>  <PUBCHEM_COMPONENT_COUNT>
1

>  <PUBCHEM_CACTVS_TAUTO_COUNT>
44

>  <PUBCHEM_COORDINATE_TYPE>
1
5
255

>  <PUBCHEM_BONDANNOTATIONS>
1  13  8
1  22  8
10  18  8
13  20  8
16  23  8
18  24  8
19  20  8
19  22  8
19  27  8
22  28  8
23  24  8
27  31  8
28  30  8
30  31  8
6  10  8
6  16  8

$$$$
