106216
 OpenBabel06101807152D

 23 23  0  0  0  0  0  0  0  0999 V2000
    2.8660    1.0000    0.0000 S   0  0  0  0  0  0  0  0  0  0  0  0
    4.5981   -1.0000    0.0000 N   0  0  0  0  0  0  0  0  0  0  0  0
    4.5981    1.0000    0.0000 N   0  0  0  0  0  0  0  0  0  0  0  0
    2.8660   -1.0000    0.0000 C   0  0  0  0  0  0  0  0  0  0  0  0
    3.7320   -0.5000    0.0000 C   0  0  0  0  0  0  0  0  0  0  0  0
    2.8660   -2.0000    0.0000 C   0  0  0  0  0  0  0  0  0  0  0  0
    2.0000   -0.5000    0.0000 C   0  0  0  0  0  0  0  0  0  0  0  0
    3.7320    0.5000    0.0000 C   0  0  0  0  0  0  0  0  0  0  0  0
    5.4641   -0.5000    0.0000 C   0  0  0  0  0  0  0  0  0  0  0  0
    5.4641    0.5000    0.0000 C   0  0  0  0  0  0  0  0  0  0  0  0
    2.8660    2.0000    0.0000 C   0  0  0  0  0  0  0  0  0  0  0  0
    2.8660   -0.3800    0.0000 H   0  0  0  0  0  0  0  0  0  0  0  0
    2.2460   -2.0000    0.0000 H   0  0  0  0  0  0  0  0  0  0  0  0
    2.8660   -2.6200    0.0000 H   0  0  0  0  0  0  0  0  0  0  0  0
    3.4860   -2.0000    0.0000 H   0  0  0  0  0  0  0  0  0  0  0  0
    2.3100    0.0369    0.0000 H   0  0  0  0  0  0  0  0  0  0  0  0
    1.4631   -0.1900    0.0000 H   0  0  0  0  0  0  0  0  0  0  0  0
    1.6900   -1.0369    0.0000 H   0  0  0  0  0  0  0  0  0  0  0  0
    6.0010   -0.8100    0.0000 H   0  0  0  0  0  0  0  0  0  0  0  0
    6.0010    0.8100    0.0000 H   0  0  0  0  0  0  0  0  0  0  0  0
    3.4860    2.0000    0.0000 H   0  0  0  0  0  0  0  0  0  0  0  0
    2.8660    2.6200    0.0000 H   0  0  0  0  0  0  0  0  0  0  0  0
    2.2460    2.0000    0.0000 H   0  0  0  0  0  0  0  0  0  0  0  0
  1  8  1  0  0  0  0
  1 11  1  0  0  0  0
  2  5  2  0  0  0  0
  2  9  1  0  0  0  0
  3  8  2  0  0  0  0
  3 10  1  0  0  0  0
  4  5  1  0  0  0  0
  4  6  1  0  0  0  0
  4  7  1  0  0  0  0
  4 12  1  0  0  0  0
  5  8  1  0  0  0  0
  6 13  1  0  0  0  0
  6 14  1  0  0  0  0
  6 15  1  0  0  0  0
  7 16  1  0  0  0  0
  7 17  1  0  0  0  0
  7 18  1  0  0  0  0
  9 10  2  0  0  0  0
  9 19  1  0  0  0  0
 10 20  1  0  0  0  0
 11 21  1  0  0  0  0
 11 22  1  0  0  0  0
 11 23  1  0  0  0  0
M  END
>  <PUBCHEM_COMPOUND_CID>
106216

>  <PUBCHEM_COMPOUND_CANONICALIZED>
1

>  <PUBCHEM_CACTVS_COMPLEXITY>
117

>  <PUBCHEM_CACTVS_HBOND_ACCEPTOR>
3

>  <PUBCHEM_CACTVS_HBOND_DONOR>
0

>  <PUBCHEM_CACTVS_ROTATABLE_BOND>
2

>  <PUBCHEM_CACTVS_SUBSKEYS>
AAADccBzAABAAAAAAAAAAAAAAAAAAAAAAAAsAAAAAAAAAAABgAAAHAQAAAAADQjBVgSugRIIEAigARRnRAAA0CRxGjAIUBQ4cAgAYEBggAAUAAAAAADAQAAAAAAIAAAAAAAAAAAAAAAAAAAAAAAAAAAAAA==

>  <PUBCHEM_IUPAC_OPENEYE_NAME>
2-isopropyl-3-methylsulfanyl-pyrazine

>  <PUBCHEM_IUPAC_CAS_NAME>
2-(methylthio)-3-propan-2-ylpyrazine

>  <PUBCHEM_IUPAC_NAME>
2-methylsulfanyl-3-propan-2-ylpyrazine

>  <PUBCHEM_IUPAC_SYSTEMATIC_NAME>
2-methylsulfanyl-3-propan-2-yl-pyrazine

>  <PUBCHEM_IUPAC_TRADITIONAL_NAME>
2-isopropyl-3-(methylthio)pyrazine

>  <PUBCHEM_IUPAC_INCHI>
InChI=1S/C8H12N2S/c1-6(2)7-8(11-3)10-5-4-9-7/h4-6H,1-3H3

>  <PUBCHEM_IUPAC_INCHIKEY>
MUSIVZZZFRJWGI-UHFFFAOYSA-N

>  <PUBCHEM_XLOGP3>
2.6

>  <PUBCHEM_EXACT_MASS>
168.072

>  <PUBCHEM_MOLECULAR_FORMULA>
C8H12N2S

>  <PUBCHEM_MOLECULAR_WEIGHT>
168.258

>  <PUBCHEM_OPENEYE_CAN_SMILES>
CC(C)C1=NC=CN=C1SC

>  <PUBCHEM_OPENEYE_ISO_SMILES>
CC(C)C1=NC=CN=C1SC

>  <PUBCHEM_CACTVS_TPSA>
51.1

>  <PUBCHEM_MONOISOTOPIC_WEIGHT>
168.072

>  <PUBCHEM_TOTAL_CHARGE>
0

>  <PUBCHEM_HEAVY_ATOM_COUNT>
11

>  <PUBCHEM_ATOM_DEF_STEREO_COUNT>
0

>  <PUBCHEM_ATOM_UDEF_STEREO_COUNT>
0

>  <PUBCHEM_BOND_DEF_STEREO_COUNT>
0

>  <PUBCHEM_BOND_UDEF_STEREO_COUNT>
0

>  <PUBCHEM_ISOTOPIC_ATOM_COUNT>
0

>  <PUBCHEM_COMPONENT_COUNT>
1

>  <PUBCHEM_CACTVS_TAUTO_COUNT>
2

>  <PUBCHEM_COORDINATE_TYPE>
1
5
255

>  <PUBCHEM_BONDANNOTATIONS>
2  5  8
2  9  8
3  10  8
3  8  8
5  8  8
9  10  8

$$$$
