10652679
 OpenBabel06101807152D

 93 98  0  0  1  0  0  0  0  0999 V2000
   10.4037    0.0950    0.0000 O   0  0  0  0  0  0  0  0  0  0  0  0
    7.8056   -2.4050    0.0000 O   0  0  0  0  0  0  0  0  0  0  0  0
    9.5376   -2.4050    0.0000 O   0  0  0  0  0  0  0  0  0  0  0  0
   11.2697   -2.4050    0.0000 O   0  0  0  0  0  0  0  0  0  0  0  0
   11.2697    1.5950    0.0000 O   0  0  0  0  0  0  0  0  0  0  0  0
   13.0017   -1.4050    0.0000 O   0  0  0  0  0  0  0  0  0  0  0  0
   13.0017    0.5950    0.0000 O   0  0  0  0  0  0  0  0  0  0  0  0
    9.5376   -4.4050    0.0000 O   0  0  0  0  0  0  0  0  0  0  0  0
    7.8056   -5.4050    0.0000 O   0  0  0  0  0  0  0  0  0  0  0  0
    6.0736   -4.4050    0.0000 O   0  0  0  0  0  0  0  0  0  0  0  0
    4.2755    3.6258    0.0000 O   0  0  0  0  0  0  0  0  0  0  0  0
    6.0075    3.6192    0.0000 O   0  0  0  0  0  0  0  0  0  0  0  0
    4.2639    0.6258    0.0000 O   0  0  0  0  0  0  0  0  0  0  0  0
    2.5357    1.6325    0.0000 O   0  0  0  0  0  0  0  0  0  0  0  0
    6.0736   -1.4050    0.0000 O   0  0  0  0  0  0  0  0  0  0  0  0
    5.9998    1.6192    0.0000 O   0  0  0  0  0  0  0  0  0  0  0  0
    9.5376    3.5950    0.0000 O   0  0  0  0  0  0  0  0  0  0  0  0
    9.5376    0.5950    0.0000 O   0  0  0  0  0  0  0  0  0  0  0  0
    7.7892    0.5604    0.0000 O   0  0  0  0  0  0  0  0  0  0  0  0
   13.8678    5.0950    0.0000 O   0  0  0  0  0  0  0  0  0  0  0  0
   10.4037   -0.9050    0.0000 C   0  0  1  0  0  0  0  0  0  0  0  0
   11.2697   -1.4050    0.0000 C   0  0  2  0  0  0  0  0  0  0  0  0
   12.1357   -0.9050    0.0000 C   0  0  1  0  0  0  0  0  0  0  0  0
   12.1357    0.0950    0.0000 C   0  0  2  0  0  0  0  0  0  0  0  0
    8.6716   -3.9050    0.0000 C   0  0  1  0  0  0  0  0  0  0  0  0
    8.6716   -2.9050    0.0000 C   0  0  1  0  0  0  0  0  0  0  0  0
    7.8056   -4.4050    0.0000 C   0  0  2  0  0  0  0  0  0  0  0  0
    6.9396   -3.9050    0.0000 C   0  0  1  0  0  0  0  0  0  0  0  0
    6.9396   -2.9050    0.0000 C   0  0  1  0  0  0  0  0  0  0  0  0
   11.2697    0.5950    0.0000 C   0  0  1  0  0  0  0  0  0  0  0  0
    9.5376   -1.4050    0.0000 C   0  0  0  0  0  0  0  0  0  0  0  0
    4.2678    1.6258    0.0000 C   0  0  2  0  0  0  0  0  0  0  0  0
    3.4037    2.1292    0.0000 C   0  0  2  0  0  0  0  0  0  0  0  0
    6.0736   -2.4050    0.0000 C   0  0  0  0  0  0  0  0  0  0  0  0
    5.1357    2.1225    0.0000 C   0  0  2  0  0  0  0  0  0  0  0  0
    3.4075    3.1292    0.0000 C   0  0  2  0  0  0  0  0  0  0  0  0
    5.1396    3.1225    0.0000 C   0  0  1  0  0  0  0  0  0  0  0  0
    2.5434    3.6325    0.0000 C   0  0  0  0  0  0  0  0  0  0  0  0
   10.4037    2.0950    0.0000 C   0  0  0  0  0  0  0  0  0  0  0  0
   10.4037    3.0950    0.0000 C   0  0  0  0  0  0  0  0  0  0  0  0
    9.5376    1.5950    0.0000 C   0  0  0  0  0  0  0  0  0  0  0  0
    6.8716    3.1158    0.0000 C   0  0  0  0  0  0  0  0  0  0  0  0
    8.6716    2.0950    0.0000 C   0  0  0  0  0  0  0  0  0  0  0  0
    8.6716    3.0950    0.0000 C   0  0  0  0  0  0  0  0  0  0  0  0
    7.7777    3.6297    0.0000 C   0  0  0  0  0  0  0  0  0  0  0  0
    6.8716    2.0742    0.0000 C   0  0  0  0  0  0  0  0  0  0  0  0
    7.7777    1.5603    0.0000 C   0  0  0  0  0  0  0  0  0  0  0  0
   11.2697    3.5950    0.0000 C   0  0  0  0  0  0  0  0  0  0  0  0
   12.1357    3.0950    0.0000 C   0  0  0  0  0  0  0  0  0  0  0  0
   11.2697    4.5950    0.0000 C   0  0  0  0  0  0  0  0  0  0  0  0
   13.0017    3.5950    0.0000 C   0  0  0  0  0  0  0  0  0  0  0  0
   12.1357    5.0950    0.0000 C   0  0  0  0  0  0  0  0  0  0  0  0
   13.0017    4.5950    0.0000 C   0  0  0  0  0  0  0  0  0  0  0  0
    9.8667   -0.5950    0.0000 H   0  0  0  0  0  0  0  0  0  0  0  0
   10.7328   -1.7150    0.0000 H   0  0  0  0  0  0  0  0  0  0  0  0
   12.6727   -0.5950    0.0000 H   0  0  0  0  0  0  0  0  0  0  0  0
   12.1357    0.7150    0.0000 H   0  0  0  0  0  0  0  0  0  0  0  0
    9.2086   -3.5950    0.0000 H   0  0  0  0  0  0  0  0  0  0  0  0
    8.6716   -2.2850    0.0000 H   0  0  0  0  0  0  0  0  0  0  0  0
    8.3425   -4.7150    0.0000 H   0  0  0  0  0  0  0  0  0  0  0  0
    6.4026   -3.5950    0.0000 H   0  0  0  0  0  0  0  0  0  0  0  0
    6.9396   -2.2850    0.0000 H   0  0  0  0  0  0  0  0  0  0  0  0
   10.7328    0.9050    0.0000 H   0  0  0  0  0  0  0  0  0  0  0  0
    9.3256   -0.8224    0.0000 H   0  0  0  0  0  0  0  0  0  0  0  0
    8.9271   -1.5127    0.0000 H   0  0  0  0  0  0  0  0  0  0  0  0
    3.7296    1.3179    0.0000 H   0  0  0  0  0  0  0  0  0  0  0  0
    2.8680    2.4412    0.0000 H   0  0  0  0  0  0  0  0  0  0  0  0
    5.4630   -2.2973    0.0000 H   0  0  0  0  0  0  0  0  0  0  0  0
    5.8615   -2.9876    0.0000 H   0  0  0  0  0  0  0  0  0  0  0  0
    5.6738    2.4304    0.0000 H   0  0  0  0  0  0  0  0  0  0  0  0
    3.4099    3.7492    0.0000 H   0  0  0  0  0  0  0  0  0  0  0  0
    5.1420    3.7425    0.0000 H   0  0  0  0  0  0  0  0  0  0  0  0
   10.7328   -2.7150    0.0000 H   0  0  0  0  0  0  0  0  0  0  0  0
   13.0017   -2.0250    0.0000 H   0  0  0  0  0  0  0  0  0  0  0  0
   13.5387    0.2850    0.0000 H   0  0  0  0  0  0  0  0  0  0  0  0
   10.0746   -4.0950    0.0000 H   0  0  0  0  0  0  0  0  0  0  0  0
    7.2687   -5.7150    0.0000 H   0  0  0  0  0  0  0  0  0  0  0  0
    5.5366   -4.0950    0.0000 H   0  0  0  0  0  0  0  0  0  0  0  0
    2.8555    4.1682    0.0000 H   0  0  0  0  0  0  0  0  0  0  0  0
    2.0077    3.9446    0.0000 H   0  0  0  0  0  0  0  0  0  0  0  0
    2.2314    3.0968    0.0000 H   0  0  0  0  0  0  0  0  0  0  0  0
    3.7258    0.3179    0.0000 H   0  0  0  0  0  0  0  0  0  0  0  0
    2.0000    1.9446    0.0000 H   0  0  0  0  0  0  0  0  0  0  0  0
    5.9974    0.9992    0.0000 H   0  0  0  0  0  0  0  0  0  0  0  0
    5.5366   -1.0950    0.0000 H   0  0  0  0  0  0  0  0  0  0  0  0
    7.7848    4.2496    0.0000 H   0  0  0  0  0  0  0  0  0  0  0  0
    6.3359    1.7621    0.0000 H   0  0  0  0  0  0  0  0  0  0  0  0
   12.1357    2.4750    0.0000 H   0  0  0  0  0  0  0  0  0  0  0  0
   10.7328    4.9050    0.0000 H   0  0  0  0  0  0  0  0  0  0  0  0
    7.2559    0.2442    0.0000 H   0  0  0  0  0  0  0  0  0  0  0  0
   13.5387    3.2850    0.0000 H   0  0  0  0  0  0  0  0  0  0  0  0
   12.1357    5.7150    0.0000 H   0  0  0  0  0  0  0  0  0  0  0  0
   13.8678    5.7150    0.0000 H   0  0  0  0  0  0  0  0  0  0  0  0
  1 21  1  0  0  0  0
  1 30  1  0  0  0  0
  2 26  1  0  0  0  0
  2 29  1  0  0  0  0
  3 31  1  0  0  0  0
  4 73  1  0  0  0  0
  5 39  1  0  0  0  0
  6 74  1  0  0  0  0
  7 75  1  0  0  0  0
  8 76  1  0  0  0  0
  9 77  1  0  0  0  0
 10 78  1  0  0  0  0
 11 36  1  0  0  0  0
 11 37  1  0  0  0  0
 12 42  1  0  0  0  0
 13 82  1  0  0  0  0
 14 83  1  0  0  0  0
 15 34  1  0  0  0  0
 15 85  1  0  0  0  0
 16 84  1  0  0  0  0
 17 40  1  0  0  0  0
 17 44  1  0  0  0  0
 18 41  2  0  0  0  0
 19 47  1  0  0  0  0
 19 90  1  0  0  0  0
 20 53  1  0  0  0  0
 20 93  1  0  0  0  0
 21 22  1  6  0  0  0
 21 31  1  0  0  0  0
 21 54  1  0  0  0  0
 22  4  1  0  0  0  0
 22 23  1  1  0  0  0
 22 55  1  0  0  0  0
 23  6  1  0  0  0  0
 23 24  1  1  0  0  0
 23 56  1  0  0  0  0
 24  7  1  0  0  0  0
 24 30  1  6  0  0  0
 24 57  1  0  0  0  0
 25  8  1  0  0  0  0
 25 26  1  6  0  0  0
 25 58  1  0  0  0  0
 26  3  1  0  0  0  0
 26 59  1  6  0  0  0
 27  9  1  0  0  0  0
 27 25  1  1  0  0  0
 27 60  1  0  0  0  0
 28 10  1  0  0  0  0
 28 27  1  1  0  0  0
 28 61  1  0  0  0  0
 29 28  1  6  0  0  0
 29 34  1  0  0  0  0
 29 62  1  0  0  0  0
 30  5  1  0  0  0  0
 30 63  1  6  0  0  0
 31 64  1  0  0  0  0
 31 65  1  0  0  0  0
 32 13  1  0  0  0  0
 32 33  1  6  0  0  0
 32 66  1  0  0  0  0
 33 14  1  0  0  0  0
 33 36  1  1  0  0  0
 33 67  1  0  0  0  0
 34 68  1  0  0  0  0
 34 69  1  0  0  0  0
 35 16  1  0  0  0  0
 35 32  1  1  0  0  0
 35 70  1  0  0  0  0
 36 38  1  0  0  0  0
 36 71  1  1  0  0  0
 37 12  1  0  0  0  0
 37 35  1  6  0  0  0
 37 72  1  0  0  0  0
 38 79  1  0  0  0  0
 38 80  1  0  0  0  0
 38 81  1  0  0  0  0
 39 40  2  0  0  0  0
 39 41  1  0  0  0  0
 40 48  1  0  0  0  0
 41 43  1  0  0  0  0
 42 45  1  0  0  0  0
 42 46  2  0  0  0  0
 43 44  1  0  0  0  0
 43 47  2  0  0  0  0
 44 45  2  0  0  0  0
 45 86  1  0  0  0  0
 46 47  1  0  0  0  0
 46 87  1  0  0  0  0
 48 49  2  0  0  0  0
 48 50  1  0  0  0  0
 49 51  1  0  0  0  0
 49 88  1  0  0  0  0
 50 52  2  0  0  0  0
 50 89  1  0  0  0  0
 51 53  2  0  0  0  0
 51 91  1  0  0  0  0
 52 53  1  0  0  0  0
 52 92  1  0  0  0  0
M  END
>  <PUBCHEM_COMPOUND_CID>
10652679

>  <PUBCHEM_COMPOUND_CANONICALIZED>
1

>  <PUBCHEM_CACTVS_COMPLEXITY>
1280

>  <PUBCHEM_CACTVS_HBOND_ACCEPTOR>
20

>  <PUBCHEM_CACTVS_HBOND_DONOR>
12

>  <PUBCHEM_CACTVS_ROTATABLE_BOND>
9

>  <PUBCHEM_CACTVS_SUBSKEYS>
AAADcfB8PgAAAAAAAAAAAAAAAAAAAAAAAAA0aJECAAAAAACBQAAAGgAACAAADBSwmAMyDoAABgCIAqBSAAICCAAkIAAIiAFGCMgdNzaGNR6ieWCl4BUPuQfI7KzOIAAACAAIAABAAAAQABAAAAAAAAAAAA==

>  <PUBCHEM_IUPAC_OPENEYE_NAME>
5-hydroxy-2-(4-hydroxyphenyl)-7-[(2S,3R,4R,5R,6S)-3,4,5-trihydroxy-6-methyl-tetrahydropyran-2-yl]oxy-3-[(2S,3R,4S,5S,6R)-3,4,5-trihydroxy-6-[[(2R,3R,4S,5S,6R)-3,4,5-trihydroxy-6-(hydroxymethyl)tetrahydropyran-2-yl]oxymethyl]tetrahydropyran-2-yl]oxy-chromen-4-one

>  <PUBCHEM_IUPAC_CAS_NAME>
5-hydroxy-2-(4-hydroxyphenyl)-7-[[(2S,3R,4R,5R,6S)-3,4,5-trihydroxy-6-methyl-2-oxanyl]oxy]-3-[[(2S,3R,4S,5S,6R)-3,4,5-trihydroxy-6-[[(2R,3R,4S,5S,6R)-3,4,5-trihydroxy-6-(hydroxymethyl)-2-oxanyl]oxymethyl]-2-oxanyl]oxy]-1-benzopyran-4-one

>  <PUBCHEM_IUPAC_NAME>
5-hydroxy-2-(4-hydroxyphenyl)-7-[(2S,3R,4R,5R,6S)-3,4,5-trihydroxy-6-methyloxan-2-yl]oxy-3-[(2S,3R,4S,5S,6R)-3,4,5-trihydroxy-6-[[(2R,3R,4S,5S,6R)-3,4,5-trihydroxy-6-(hydroxymethyl)oxan-2-yl]oxymethyl]oxan-2-yl]oxychromen-4-one

>  <PUBCHEM_IUPAC_SYSTEMATIC_NAME>
3-[(2S,3R,4S,5S,6R)-6-[[(2R,3R,4S,5S,6R)-6-(hydroxymethyl)-3,4,5-tris(oxidanyl)oxan-2-yl]oxymethyl]-3,4,5-tris(oxidanyl)oxan-2-yl]oxy-2-(4-hydroxyphenyl)-7-[(2S,3R,4R,5R,6S)-6-methyl-3,4,5-tris(oxidanyl)oxan-2-yl]oxy-5-oxidanyl-chromen-4-one

>  <PUBCHEM_IUPAC_TRADITIONAL_NAME>
5-hydroxy-2-(4-hydroxyphenyl)-7-[(2S,3R,4R,5R,6S)-3,4,5-trihydroxy-6-methyl-tetrahydropyran-2-yl]oxy-3-[(2S,3R,4S,5S,6R)-3,4,5-trihydroxy-6-[[(2R,3R,4S,5S,6R)-3,4,5-trihydroxy-6-methylol-tetrahydropyran-2-yl]oxymethyl]tetrahydropyran-2-yl]oxy-chromone

>  <PUBCHEM_IUPAC_INCHI>
InChI=1S/C33H40O20/c1-10-19(37)23(41)27(45)32(48-10)49-13-6-14(36)18-15(7-13)50-29(11-2-4-12(35)5-3-11)30(22(18)40)53-33-28(46)25(43)21(39)17(52-33)9-47-31-26(44)24(42)20(38)16(8-34)51-31/h2-7,10,16-17,19-21,23-28,31-39,41-46H,8-9H2,1H3/t10-,16+,17+,19-,20+,21+,23+,24-,25-,26+,27+,28+,31+,32-,33-/m0/s1

>  <PUBCHEM_IUPAC_INCHIKEY>
QFSDWLPMRWDFID-CSNYLUTCSA-N

>  <PUBCHEM_XLOGP3_AA>
-2.7

>  <PUBCHEM_EXACT_MASS>
756.211

>  <PUBCHEM_MOLECULAR_FORMULA>
C33H40O20

>  <PUBCHEM_MOLECULAR_WEIGHT>
756.663

>  <PUBCHEM_OPENEYE_CAN_SMILES>
CC1C(C(C(C(O1)OC2=CC(=C3C(=C2)OC(=C(C3=O)OC4C(C(C(C(O4)COC5C(C(C(C(O5)CO)O)O)O)O)O)O)C6=CC=C(C=C6)O)O)O)O)O

>  <PUBCHEM_OPENEYE_ISO_SMILES>
C[C@H]1[C@@H]([C@H]([C@H]([C@@H](O1)OC2=CC(=C3C(=C2)OC(=C(C3=O)O[C@H]4[C@@H]([C@H]([C@@H]([C@H](O4)CO[C@H]5[C@@H]([C@H]([C@@H]([C@H](O5)CO)O)O)O)O)O)O)C6=CC=C(C=C6)O)O)O)O)O

>  <PUBCHEM_CACTVS_TPSA>
324

>  <PUBCHEM_MONOISOTOPIC_WEIGHT>
756.211

>  <PUBCHEM_TOTAL_CHARGE>
0

>  <PUBCHEM_HEAVY_ATOM_COUNT>
53

>  <PUBCHEM_ATOM_DEF_STEREO_COUNT>
15

>  <PUBCHEM_ATOM_UDEF_STEREO_COUNT>
0

>  <PUBCHEM_BOND_DEF_STEREO_COUNT>
0

>  <PUBCHEM_BOND_UDEF_STEREO_COUNT>
0

>  <PUBCHEM_ISOTOPIC_ATOM_COUNT>
0

>  <PUBCHEM_COMPONENT_COUNT>
1

>  <PUBCHEM_CACTVS_TAUTO_COUNT>
24

>  <PUBCHEM_COORDINATE_TYPE>
1
5
255

>  <PUBCHEM_BONDANNOTATIONS>
28  10  6
37  12  5
32  13  6
33  14  5
35  16  6
17  40  8
17  44  8
21  31  5
29  34  5
26  3  5
36  38  6
39  40  8
39  41  8
22  4  6
41  43  8
42  45  8
42  46  8
43  44  8
43  47  8
44  45  8
46  47  8
48  49  8
48  50  8
49  51  8
30  5  5
50  52  8
51  53  8
52  53  8
23  6  5
24  7  6
25  8  6
27  9  5

$$$$
