10672941
 OpenBabel06101807152D

 63 68  0  0  1  0  0  0  0  0999 V2000
    6.3821    1.3042    0.0000 O   0  0  0  0  0  0  0  0  0  0  0  0
    5.5567   -3.5226    0.0000 O   0  0  0  0  0  0  0  0  0  0  0  0
    8.2356    4.4024    0.0000 O   0  0  0  0  0  0  0  0  0  0  0  0
    3.7578   -2.3466    0.0000 O   0  0  0  0  0  0  0  0  0  0  0  0
    7.3403   -0.2413    0.0000 O   0  0  0  0  0  0  0  0  0  0  0  0
    3.7840    2.8042    0.0000 O   0  0  0  0  0  0  0  0  0  0  0  0
    4.6283    4.3357    0.0000 O   0  0  0  0  0  0  0  0  0  0  0  0
    3.7320   -0.2442    0.0000 C   0  0  3  0  0  0  0  0  0  0  0  0
    3.7401    0.7974    0.0000 C   0  0  0  0  0  0  0  0  0  0  0  0
    4.6341   -0.7650    0.0000 C   0  0  0  0  0  0  0  0  0  0  0  0
    4.6501    1.3042    0.0000 C   0  0  0  0  0  0  0  0  0  0  0  0
    5.5322   -0.2373    0.0000 C   0  0  0  0  0  0  0  0  0  0  0  0
    5.5161    0.8042    0.0000 C   0  0  0  0  0  0  0  0  0  0  0  0
    4.6258   -1.8500    0.0000 C   0  0  0  0  0  0  0  0  0  0  0  0
    2.8641   -0.7409    0.0000 C   0  0  0  0  0  0  0  0  0  0  0  0
    6.4841   -0.7579    0.0000 C   0  0  0  0  0  0  0  0  0  0  0  0
    5.5654   -2.3925    0.0000 C   0  0  0  0  0  0  0  0  0  0  0  0
    4.6501    2.3042    0.0000 C   0  0  0  0  0  0  0  0  0  0  0  0
    6.5008   -1.8428    0.0000 C   0  0  0  0  0  0  0  0  0  0  0  0
    5.5161    2.8042    0.0000 C   0  0  0  0  0  0  0  0  0  0  0  0
    6.3821    2.3042    0.0000 C   0  0  0  0  0  0  0  0  0  0  0  0
    6.5354   -4.0877    0.0000 C   0  0  0  0  0  0  0  0  0  0  0  0
    7.2921    2.8111    0.0000 C   0  0  0  0  0  0  0  0  0  0  0  0
    9.1752    3.8599    0.0000 C   0  0  0  0  0  0  0  0  0  0  0  0
    7.4924   -2.3851    0.0000 C   0  0  0  0  0  0  0  0  0  0  0  0
    7.3002    3.8527    0.0000 C   0  0  0  0  0  0  0  0  0  0  0  0
    7.5098   -3.5151    0.0000 C   0  0  0  0  0  0  0  0  0  0  0  0
    5.5000    3.8457    0.0000 C   0  0  0  0  0  0  0  0  0  0  0  0
    2.0000   -0.2375    0.0000 C   0  0  0  0  0  0  0  0  0  0  0  0
    8.2190    2.2470    0.0000 C   0  0  0  0  0  0  0  0  0  0  0  0
    6.3981    4.3735    0.0000 C   0  0  0  0  0  0  0  0  0  0  0  0
    7.0388   -4.9518    0.0000 C   0  0  0  0  0  0  0  0  0  0  0  0
    6.0388   -4.9556    0.0000 C   0  0  0  0  0  0  0  0  0  0  0  0
    9.1668    2.7749    0.0000 C   0  0  0  0  0  0  0  0  0  0  0  0
    2.8602   -1.7409    0.0000 C   0  0  0  0  0  0  0  0  0  0  0  0
   10.1752    3.8560    0.0000 C   0  0  0  0  0  0  0  0  0  0  0  0
    9.6785    4.7240    0.0000 C   0  0  0  0  0  0  0  0  0  0  0  0
    3.7304   -1.0942    0.0000 H   0  0  0  0  0  0  0  0  0  0  0  0
    3.5355    1.3827    0.0000 H   0  0  0  0  0  0  0  0  0  0  0  0
    3.1284    0.6960    0.0000 H   0  0  0  0  0  0  0  0  0  0  0  0
    8.0232   -2.0648    0.0000 H   0  0  0  0  0  0  0  0  0  0  0  0
    8.0503   -3.8189    0.0000 H   0  0  0  0  0  0  0  0  0  0  0  0
    2.3121    0.2982    0.0000 H   0  0  0  0  0  0  0  0  0  0  0  0
    1.4643    0.0745    0.0000 H   0  0  0  0  0  0  0  0  0  0  0  0
    1.6879   -0.7733    0.0000 H   0  0  0  0  0  0  0  0  0  0  0  0
    8.2070    1.6271    0.0000 H   0  0  0  0  0  0  0  0  0  0  0  0
    6.3957    4.9935    0.0000 H   0  0  0  0  0  0  0  0  0  0  0  0
    6.5030   -5.2639    0.0000 H   0  0  0  0  0  0  0  0  0  0  0  0
    7.3508   -5.4875    0.0000 H   0  0  0  0  0  0  0  0  0  0  0  0
    7.5745   -4.6397    0.0000 H   0  0  0  0  0  0  0  0  0  0  0  0
    5.5006   -4.6477    0.0000 H   0  0  0  0  0  0  0  0  0  0  0  0
    5.7308   -5.4938    0.0000 H   0  0  0  0  0  0  0  0  0  0  0  0
    6.5769   -5.2636    0.0000 H   0  0  0  0  0  0  0  0  0  0  0  0
    9.7002    2.4588    0.0000 H   0  0  0  0  0  0  0  0  0  0  0  0
    2.3221   -2.0488    0.0000 H   0  0  0  0  0  0  0  0  0  0  0  0
    3.3960   -2.0529    0.0000 H   0  0  0  0  0  0  0  0  0  0  0  0
   10.2143    4.4119    0.0000 H   0  0  0  0  0  0  0  0  0  0  0  0
    9.9906    5.2597    0.0000 H   0  0  0  0  0  0  0  0  0  0  0  0
    9.1428    5.0361    0.0000 H   0  0  0  0  0  0  0  0  0  0  0  0
   10.1728    3.2360    0.0000 H   0  0  0  0  0  0  0  0  0  0  0  0
   10.7952    3.8537    0.0000 H   0  0  0  0  0  0  0  0  0  0  0  0
   10.1776    4.4760    0.0000 H   0  0  0  0  0  0  0  0  0  0  0  0
    4.6211    4.9556    0.0000 H   0  0  0  0  0  0  0  0  0  0  0  0
  1 13  1  0  0  0  0
  1 21  1  0  0  0  0
  2 17  1  0  0  0  0
  2 22  1  0  0  0  0
  3 24  1  0  0  0  0
  3 26  1  0  0  0  0
  4 14  2  0  0  0  0
  5 16  2  0  0  0  0
  6 18  2  0  0  0  0
  7 28  1  0  0  0  0
  7 63  1  0  0  0  0
  8  9  1  0  0  0  0
  8 10  1  0  0  0  0
  8 15  1  0  0  0  0
  8 38  1  0  0  0  0
  9 11  1  0  0  0  0
  9 39  1  0  0  0  0
  9 40  1  0  0  0  0
 10 12  2  0  0  0  0
 10 14  1  0  0  0  0
 11 13  2  0  0  0  0
 11 18  1  0  0  0  0
 12 13  1  0  0  0  0
 12 16  1  0  0  0  0
 14 17  1  0  0  0  0
 15 29  1  0  0  0  0
 15 35  2  0  0  0  0
 16 19  1  0  0  0  0
 17 19  2  0  0  0  0
 18 20  1  0  0  0  0
 19 25  1  0  0  0  0
 20 21  1  0  0  0  0
 20 28  2  0  0  0  0
 21 23  2  0  0  0  0
 22 27  1  0  0  0  0
 22 32  1  0  0  0  0
 22 33  1  0  0  0  0
 23 26  1  0  0  0  0
 23 30  1  0  0  0  0
 24 34  1  0  0  0  0
 24 36  1  0  0  0  0
 24 37  1  0  0  0  0
 25 27  2  0  0  0  0
 25 41  1  0  0  0  0
 26 31  2  0  0  0  0
 27 42  1  0  0  0  0
 28 31  1  0  0  0  0
 29 43  1  0  0  0  0
 29 44  1  0  0  0  0
 29 45  1  0  0  0  0
 30 34  2  0  0  0  0
 30 46  1  0  0  0  0
 31 47  1  0  0  0  0
 32 48  1  0  0  0  0
 32 49  1  0  0  0  0
 32 50  1  0  0  0  0
 33 51  1  0  0  0  0
 33 52  1  0  0  0  0
 33 53  1  0  0  0  0
 34 54  1  0  0  0  0
 35 55  1  0  0  0  0
 35 56  1  0  0  0  0
 36 60  1  0  0  0  0
 36 61  1  0  0  0  0
 36 62  1  0  0  0  0
 37 57  1  0  0  0  0
 37 58  1  0  0  0  0
 37 59  1  0  0  0  0
M  END
>  <PUBCHEM_COMPOUND_CID>
10672941

>  <PUBCHEM_COMPOUND_CANONICALIZED>
1

>  <PUBCHEM_CACTVS_COMPLEXITY>
1330

>  <PUBCHEM_CACTVS_HBOND_ACCEPTOR>
7

>  <PUBCHEM_CACTVS_HBOND_DONOR>
1

>  <PUBCHEM_CACTVS_ROTATABLE_BOND>
1

>  <PUBCHEM_CACTVS_SUBSKEYS>
AAADceB4OAAAAAAAAAAAAAAAAAAAAAAAAAAwQIECAAAAAACBAAAAGgAACAAADUSAmAAyBoAABgCIAqBSAAICCAAkIAAIiAFGCMgMJzaGNR6CeWCl4BUIuQeI7OzOIAACCAAIAABAAAQQABAAAAAAAAAAAA==

>  <PUBCHEM_IUPAC_INCHI>
InChI=1S/C30H26O7/c1-13(2)16-11-17-24(33)21-18(31)12-19-14(7-9-29(3,4)36-19)26(21)35-27(17)22-20(16)25(34)28-15(23(22)32)8-10-30(5,6)37-28/h7-10,12,16,31H,1,11H2,2-6H3

>  <PUBCHEM_IUPAC_INCHIKEY>
BPBNMDXSLVPNFT-UHFFFAOYSA-N

>  <PUBCHEM_XLOGP3_AA>
5.1

>  <PUBCHEM_EXACT_MASS>
498.168

>  <PUBCHEM_MOLECULAR_FORMULA>
C30H26O7

>  <PUBCHEM_MOLECULAR_WEIGHT>
498.531

>  <PUBCHEM_OPENEYE_CAN_SMILES>
CC(=C)C1CC2=C(C3=C1C(=O)C4=C(C3=O)C=CC(O4)(C)C)OC5=C6C=CC(OC6=CC(=C5C2=O)O)(C)C

>  <PUBCHEM_OPENEYE_ISO_SMILES>
CC(=C)C1CC2=C(C3=C1C(=O)C4=C(C3=O)C=CC(O4)(C)C)OC5=C6C=CC(OC6=CC(=C5C2=O)O)(C)C

>  <PUBCHEM_CACTVS_TPSA>
99.1

>  <PUBCHEM_MONOISOTOPIC_WEIGHT>
498.168

>  <PUBCHEM_TOTAL_CHARGE>
0

>  <PUBCHEM_HEAVY_ATOM_COUNT>
37

>  <PUBCHEM_ATOM_DEF_STEREO_COUNT>
0

>  <PUBCHEM_ATOM_UDEF_STEREO_COUNT>
1

>  <PUBCHEM_BOND_DEF_STEREO_COUNT>
0

>  <PUBCHEM_BOND_UDEF_STEREO_COUNT>
0

>  <PUBCHEM_ISOTOPIC_ATOM_COUNT>
0

>  <PUBCHEM_COMPONENT_COUNT>
1

>  <PUBCHEM_CACTVS_TAUTO_COUNT>
111

>  <PUBCHEM_COORDINATE_TYPE>
1
5
255

>  <PUBCHEM_BONDANNOTATIONS>
1  13  8
1  21  8
11  13  8
11  18  8
18  20  8
20  21  8
20  28  8
21  23  8
23  26  8
26  31  8
28  31  8
8  38  3

$$$$
