10746291
 OpenBabel06101807152D

 73 77  0  0  1  0  0  0  0  0999 V2000
    8.5991   -1.2857    0.0000 O   0  0  0  0  0  0  0  0  0  0  0  0
    6.0010   -1.7857    0.0000 O   0  0  0  0  0  0  0  0  0  0  0  0
    4.2690   -1.7857    0.0000 O   0  0  0  0  0  0  0  0  0  0  0  0
    6.8671   -3.2857    0.0000 O   0  0  0  0  0  0  0  0  0  0  0  0
    8.5991   -4.2857    0.0000 O   0  0  0  0  0  0  0  0  0  0  0  0
   10.3312   -1.2857    0.0000 O   0  0  0  0  0  0  0  0  0  0  0  0
   10.3312   -3.2857    0.0000 O   0  0  0  0  0  0  0  0  0  0  0  0
    6.0010    0.2143    0.0000 O   0  0  0  0  0  0  0  0  0  0  0  0
    4.2690    1.2143    0.0000 O   0  0  0  0  0  0  0  0  0  0  0  0
    2.5369    0.2143    0.0000 O   0  0  0  0  0  0  0  0  0  0  0  0
   11.1972    1.2143    0.0000 O   0  0  0  0  0  0  0  0  0  0  0  0
    8.5991   -0.2857    0.0000 O   0  0  0  0  0  0  0  0  0  0  0  0
    7.6950    1.2112    0.0000 O   0  0  0  0  0  0  0  0  0  0  0  0
    9.4530    4.2836    0.0000 O   0  0  0  0  0  0  0  0  0  0  0  0
   14.6613    0.2143    0.0000 O   0  0  0  0  0  0  0  0  0  0  0  0
   14.6613   -1.7857    0.0000 O   0  0  0  0  0  0  0  0  0  0  0  0
    7.7331   -1.7857    0.0000 C   0  0  1  0  0  0  0  0  0  0  0  0
    7.7331   -2.7857    0.0000 C   0  0  2  0  0  0  0  0  0  0  0  0
    8.5991   -3.2857    0.0000 C   0  0  1  0  0  0  0  0  0  0  0  0
    9.4651   -2.7857    0.0000 C   0  0  2  0  0  0  0  0  0  0  0  0
    9.4651   -1.7857    0.0000 C   0  0  1  0  0  0  0  0  0  0  0  0
    6.8671   -1.2857    0.0000 C   0  0  0  0  0  0  0  0  0  0  0  0
    5.1350   -1.2857    0.0000 C   0  0  2  0  0  0  0  0  0  0  0  0
    5.1350   -0.2857    0.0000 C   0  0  1  0  0  0  0  0  0  0  0  0
    4.2690    0.2143    0.0000 C   0  0  1  0  0  0  0  0  0  0  0  0
    3.4030   -0.2857    0.0000 C   0  0  2  0  0  0  0  0  0  0  0  0
    3.4030   -1.2857    0.0000 C   0  0  0  0  0  0  0  0  0  0  0  0
   10.3312   -0.2857    0.0000 C   0  0  0  0  0  0  0  0  0  0  0  0
   11.1972    0.2143    0.0000 C   0  0  0  0  0  0  0  0  0  0  0  0
    9.4651    0.2143    0.0000 C   0  0  0  0  0  0  0  0  0  0  0  0
    9.4651    1.2143    0.0000 C   0  0  0  0  0  0  0  0  0  0  0  0
   12.0632   -0.2857    0.0000 C   0  0  0  0  0  0  0  0  0  0  0  0
   10.3312    1.7143    0.0000 C   0  0  0  0  0  0  0  0  0  0  0  0
    8.5551    1.7212    0.0000 C   0  0  0  0  0  0  0  0  0  0  0  0
   10.3472    2.7558    0.0000 C   0  0  0  0  0  0  0  0  0  0  0  0
   12.9292    0.2143    0.0000 C   0  0  0  0  0  0  0  0  0  0  0  0
   12.0632   -1.2857    0.0000 C   0  0  0  0  0  0  0  0  0  0  0  0
    8.5471    2.7628    0.0000 C   0  0  0  0  0  0  0  0  0  0  0  0
    9.4492    3.2836    0.0000 C   0  0  0  0  0  0  0  0  0  0  0  0
   13.7953   -0.2857    0.0000 C   0  0  0  0  0  0  0  0  0  0  0  0
   12.9292   -1.7857    0.0000 C   0  0  0  0  0  0  0  0  0  0  0  0
   13.7953   -1.2857    0.0000 C   0  0  0  0  0  0  0  0  0  0  0  0
   14.6613    1.2143    0.0000 C   0  0  0  0  0  0  0  0  0  0  0  0
    7.7331   -1.1657    0.0000 H   0  0  0  0  0  0  0  0  0  0  0  0
    7.7331   -3.4057    0.0000 H   0  0  0  0  0  0  0  0  0  0  0  0
    9.1360   -3.5957    0.0000 H   0  0  0  0  0  0  0  0  0  0  0  0
   10.0021   -2.4757    0.0000 H   0  0  0  0  0  0  0  0  0  0  0  0
    9.4651   -1.1657    0.0000 H   0  0  0  0  0  0  0  0  0  0  0  0
    7.2656   -0.8107    0.0000 H   0  0  0  0  0  0  0  0  0  0  0  0
    6.4685   -0.8107    0.0000 H   0  0  0  0  0  0  0  0  0  0  0  0
    5.6720   -0.9757    0.0000 H   0  0  0  0  0  0  0  0  0  0  0  0
    5.1350    0.3343    0.0000 H   0  0  0  0  0  0  0  0  0  0  0  0
    3.7320    0.5243    0.0000 H   0  0  0  0  0  0  0  0  0  0  0  0
    3.9650    0.3343    0.0000 H   0  0  0  0  0  0  0  0  0  0  0  0
    2.7924   -1.1780    0.0000 H   0  0  0  0  0  0  0  0  0  0  0  0
    3.1909   -1.8683    0.0000 H   0  0  0  0  0  0  0  0  0  0  0  0
    6.8671   -3.9057    0.0000 H   0  0  0  0  0  0  0  0  0  0  0  0
    8.0622   -4.5957    0.0000 H   0  0  0  0  0  0  0  0  0  0  0  0
   10.3312   -3.9057    0.0000 H   0  0  0  0  0  0  0  0  0  0  0  0
    6.0010    0.8343    0.0000 H   0  0  0  0  0  0  0  0  0  0  0  0
    3.7320    1.5243    0.0000 H   0  0  0  0  0  0  0  0  0  0  0  0
    2.0000   -0.0957    0.0000 H   0  0  0  0  0  0  0  0  0  0  0  0
   10.8877    3.0596    0.0000 H   0  0  0  0  0  0  0  0  0  0  0  0
   12.9292    0.8343    0.0000 H   0  0  0  0  0  0  0  0  0  0  0  0
   11.5263   -1.5957    0.0000 H   0  0  0  0  0  0  0  0  0  0  0  0
    8.0090    3.0707    0.0000 H   0  0  0  0  0  0  0  0  0  0  0  0
   12.9292   -2.4057    0.0000 H   0  0  0  0  0  0  0  0  0  0  0  0
    7.1545    1.5150    0.0000 H   0  0  0  0  0  0  0  0  0  0  0  0
    8.9173    4.5957    0.0000 H   0  0  0  0  0  0  0  0  0  0  0  0
   14.6613   -2.4057    0.0000 H   0  0  0  0  0  0  0  0  0  0  0  0
   15.2813    1.2143    0.0000 H   0  0  0  0  0  0  0  0  0  0  0  0
   14.6613    1.8343    0.0000 H   0  0  0  0  0  0  0  0  0  0  0  0
   14.0413    1.2143    0.0000 H   0  0  0  0  0  0  0  0  0  0  0  0
  1 17  1  0  0  0  0
  1 21  1  0  0  0  0
  2 22  1  0  0  0  0
  3 23  1  0  0  0  0
  3 27  1  0  0  0  0
  4 57  1  0  0  0  0
  5 58  1  0  0  0  0
  6 28  1  0  0  0  0
  7 59  1  0  0  0  0
  8 60  1  0  0  0  0
  9 61  1  0  0  0  0
 10 62  1  0  0  0  0
 11 29  1  0  0  0  0
 11 33  1  0  0  0  0
 12 30  2  0  0  0  0
 13 34  1  0  0  0  0
 13 68  1  0  0  0  0
 14 39  1  0  0  0  0
 14 69  1  0  0  0  0
 15 40  1  0  0  0  0
 15 43  1  0  0  0  0
 16 42  1  0  0  0  0
 16 70  1  0  0  0  0
 17 18  1  6  0  0  0
 17 22  1  0  0  0  0
 17 44  1  0  0  0  0
 18  4  1  0  0  0  0
 18 19  1  6  0  0  0
 18 45  1  0  0  0  0
 19  5  1  0  0  0  0
 19 20  1  1  0  0  0
 19 46  1  0  0  0  0
 20  7  1  0  0  0  0
 20 21  1  6  0  0  0
 20 47  1  0  0  0  0
 21  6  1  0  0  0  0
 21 48  1  6  0  0  0
 22 49  1  0  0  0  0
 22 50  1  0  0  0  0
 23  2  1  0  0  0  0
 23 24  1  6  0  0  0
 23 51  1  0  0  0  0
 24  8  1  0  0  0  0
 24 25  1  1  0  0  0
 24 52  1  0  0  0  0
 25  9  1  0  0  0  0
 25 26  1  1  0  0  0
 25 53  1  0  0  0  0
 26 10  1  0  0  0  0
 26 27  1  0  0  0  0
 26 54  1  1  0  0  0
 27 55  1  0  0  0  0
 27 56  1  0  0  0  0
 28 29  2  0  0  0  0
 28 30  1  0  0  0  0
 29 32  1  0  0  0  0
 30 31  1  0  0  0  0
 31 33  1  0  0  0  0
 31 34  2  0  0  0  0
 32 36  2  0  0  0  0
 32 37  1  0  0  0  0
 33 35  2  0  0  0  0
 34 38  1  0  0  0  0
 35 39  1  0  0  0  0
 35 63  1  0  0  0  0
 36 40  1  0  0  0  0
 36 64  1  0  0  0  0
 37 41  2  0  0  0  0
 37 65  1  0  0  0  0
 38 39  2  0  0  0  0
 38 66  1  0  0  0  0
 40 42  2  0  0  0  0
 41 42  1  0  0  0  0
 41 67  1  0  0  0  0
 43 71  1  0  0  0  0
 43 72  1  0  0  0  0
 43 73  1  0  0  0  0
M  END
>  <PUBCHEM_COMPOUND_CID>
10746291

>  <PUBCHEM_COMPOUND_CANONICALIZED>
1

>  <PUBCHEM_CACTVS_COMPLEXITY>
1010

>  <PUBCHEM_CACTVS_HBOND_ACCEPTOR>
16

>  <PUBCHEM_CACTVS_HBOND_DONOR>
9

>  <PUBCHEM_CACTVS_ROTATABLE_BOND>
7

>  <PUBCHEM_CACTVS_SUBSKEYS>
AAADceB4PgAAAAAAAAAAAAAAAAAAAAAAAAA0aIECAAAAAACBQAAAGgAACAAADBSwmAMyDoAABgCIAqBSAAICCAAkIAAIiAFGiMgdNzaGNR6ieWOl4BUPuQfI7LzOIAABCAAIQABAAAIQABCAAAAAAAAAAA==

>  <PUBCHEM_IUPAC_OPENEYE_NAME>
5,7-dihydroxy-2-(4-hydroxy-3-methoxy-phenyl)-3-[(2S,3R,4S,5S,6R)-3,4,5-trihydroxy-6-[[(2S,3R,4R,5S)-3,4,5-trihydroxytetrahydropyran-2-yl]oxymethyl]tetrahydropyran-2-yl]oxy-chromen-4-one

>  <PUBCHEM_IUPAC_CAS_NAME>
5,7-dihydroxy-2-(4-hydroxy-3-methoxyphenyl)-3-[[(2S,3R,4S,5S,6R)-3,4,5-trihydroxy-6-[[(2S,3R,4R,5S)-3,4,5-trihydroxy-2-oxanyl]oxymethyl]-2-oxanyl]oxy]-1-benzopyran-4-one

>  <PUBCHEM_IUPAC_NAME>
5,7-dihydroxy-2-(4-hydroxy-3-methoxyphenyl)-3-[(2S,3R,4S,5S,6R)-3,4,5-trihydroxy-6-[[(2S,3R,4R,5S)-3,4,5-trihydroxyoxan-2-yl]oxymethyl]oxan-2-yl]oxychromen-4-one

>  <PUBCHEM_IUPAC_SYSTEMATIC_NAME>
2-(3-methoxy-4-oxidanyl-phenyl)-5,7-bis(oxidanyl)-3-[(2S,3R,4S,5S,6R)-3,4,5-tris(oxidanyl)-6-[[(2S,3R,4R,5S)-3,4,5-tris(oxidanyl)oxan-2-yl]oxymethyl]oxan-2-yl]oxy-chromen-4-one

>  <PUBCHEM_IUPAC_TRADITIONAL_NAME>
5,7-dihydroxy-2-(4-hydroxy-3-methoxy-phenyl)-3-[(2S,3R,4S,5S,6R)-3,4,5-trihydroxy-6-[[(2S,3R,4R,5S)-3,4,5-trihydroxytetrahydropyran-2-yl]oxymethyl]tetrahydropyran-2-yl]oxy-chromone

>  <PUBCHEM_IUPAC_INCHI>
InChI=1S/C27H30O16/c1-38-14-4-9(2-3-11(14)29)24-25(20(34)17-12(30)5-10(28)6-15(17)41-24)43-27-23(37)21(35)19(33)16(42-27)8-40-26-22(36)18(32)13(31)7-39-26/h2-6,13,16,18-19,21-23,26-33,35-37H,7-8H2,1H3/t13-,16+,18+,19+,21-,22+,23+,26-,27-/m0/s1

>  <PUBCHEM_IUPAC_INCHIKEY>
HIRWMGZVIYIRJM-ROVRKGIZSA-N

>  <PUBCHEM_XLOGP3_AA>
-1.4

>  <PUBCHEM_EXACT_MASS>
610.153

>  <PUBCHEM_MOLECULAR_FORMULA>
C27H30O16

>  <PUBCHEM_MOLECULAR_WEIGHT>
610.521

>  <PUBCHEM_OPENEYE_CAN_SMILES>
COC1=C(C=CC(=C1)C2=C(C(=O)C3=C(C=C(C=C3O2)O)O)OC4C(C(C(C(O4)COC5C(C(C(CO5)O)O)O)O)O)O)O

>  <PUBCHEM_OPENEYE_ISO_SMILES>
COC1=C(C=CC(=C1)C2=C(C(=O)C3=C(C=C(C=C3O2)O)O)O[C@H]4[C@@H]([C@H]([C@@H]([C@H](O4)CO[C@H]5[C@@H]([C@@H]([C@H](CO5)O)O)O)O)O)O)O

>  <PUBCHEM_CACTVS_TPSA>
255

>  <PUBCHEM_MONOISOTOPIC_WEIGHT>
610.153

>  <PUBCHEM_TOTAL_CHARGE>
0

>  <PUBCHEM_HEAVY_ATOM_COUNT>
43

>  <PUBCHEM_ATOM_DEF_STEREO_COUNT>
9

>  <PUBCHEM_ATOM_UDEF_STEREO_COUNT>
0

>  <PUBCHEM_BOND_DEF_STEREO_COUNT>
0

>  <PUBCHEM_BOND_UDEF_STEREO_COUNT>
0

>  <PUBCHEM_ISOTOPIC_ATOM_COUNT>
0

>  <PUBCHEM_COMPONENT_COUNT>
1

>  <PUBCHEM_CACTVS_TAUTO_COUNT>
69

>  <PUBCHEM_COORDINATE_TYPE>
1
5
255

>  <PUBCHEM_BONDANNOTATIONS>
26  10  6
11  29  8
11  33  8
17  22  5
23  2  6
28  29  8
28  30  8
30  31  8
31  33  8
31  34  8
32  36  8
32  37  8
33  35  8
34  38  8
35  39  8
36  40  8
37  41  8
38  39  8
18  4  6
40  42  8
41  42  8
19  5  5
21  6  5
20  7  6
24  8  5
25  9  5

$$$$
