10740797
 OpenBabel06101807152D

 51 55  0  0  0  0  0  0  0  0999 V2000
    7.3065    3.9331    0.0000 O   0  0  0  0  0  0  0  0  0  0  0  0
    6.0427   -0.2558    0.0000 O   0  0  0  0  0  0  0  0  0  0  0  0
    4.2864   -3.4100    0.0000 O   0  0  0  0  0  0  0  0  0  0  0  0
    8.7070    2.7813    0.0000 O   0  0  0  0  0  0  0  0  0  0  0  0
    3.4446    1.2442    0.0000 O   0  0  0  0  0  0  0  0  0  0  0  0
    2.5405   -0.2526    0.0000 O   0  0  0  0  0  0  0  0  0  0  0  0
    8.6847    1.2310    0.0000 O   0  0  0  0  0  0  0  0  0  0  0  0
    6.2766    3.8258    0.0000 C   0  0  0  0  0  0  0  0  0  0  0  0
    6.0587    2.8135    0.0000 C   0  0  0  0  0  0  0  0  0  0  0  0
    6.9608    2.2927    0.0000 C   0  0  0  0  0  0  0  0  0  0  0  0
    5.1767    1.2442    0.0000 C   0  0  0  0  0  0  0  0  0  0  0  0
    6.9527    1.2511    0.0000 C   0  0  0  0  0  0  0  0  0  0  0  0
    5.1606    2.2857    0.0000 C   0  0  0  0  0  0  0  0  0  0  0  0
    6.0427    0.7442    0.0000 C   0  0  0  0  0  0  0  0  0  0  0  0
    6.1738    4.8204    0.0000 C   0  0  0  0  0  0  0  0  0  0  0  0
    5.2988    4.0354    0.0000 C   0  0  0  0  0  0  0  0  0  0  0  0
    7.7284    2.9875    0.0000 C   0  0  0  0  0  0  0  0  0  0  0  0
    5.1767   -0.7558    0.0000 C   0  0  0  0  0  0  0  0  0  0  0  0
    4.3107   -0.2558    0.0000 C   0  0  0  0  0  0  0  0  0  0  0  0
    5.2260   -3.9525    0.0000 C   0  0  0  0  0  0  0  0  0  0  0  0
    5.1928   -1.7973    0.0000 C   0  0  0  0  0  0  0  0  0  0  0  0
    4.3107    0.7442    0.0000 C   0  0  0  0  0  0  0  0  0  0  0  0
    4.2947   -2.3250    0.0000 C   0  0  0  0  0  0  0  0  0  0  0  0
    3.4007   -0.7626    0.0000 C   0  0  0  0  0  0  0  0  0  0  0  0
    6.1614   -3.4028    0.0000 C   0  0  0  0  0  0  0  0  0  0  0  0
    6.1447   -2.3179    0.0000 C   0  0  0  0  0  0  0  0  0  0  0  0
    7.8129    0.7411    0.0000 C   0  0  0  0  0  0  0  0  0  0  0  0
    3.3926   -1.8042    0.0000 C   0  0  0  0  0  0  0  0  0  0  0  0
    5.7293   -4.8166    0.0000 C   0  0  0  0  0  0  0  0  0  0  0  0
    4.7293   -4.8204    0.0000 C   0  0  0  0  0  0  0  0  0  0  0  0
    7.8014   -0.2589    0.0000 C   0  0  0  0  0  0  0  0  0  0  0  0
    4.6202    2.5895    0.0000 H   0  0  0  0  0  0  0  0  0  0  0  0
    5.4288    4.6416    0.0000 H   0  0  0  0  0  0  0  0  0  0  0  0
    6.7905    4.8842    0.0000 H   0  0  0  0  0  0  0  0  0  0  0  0
    6.1100    5.4372    0.0000 H   0  0  0  0  0  0  0  0  0  0  0  0
    5.5571    4.7567    0.0000 H   0  0  0  0  0  0  0  0  0  0  0  0
    4.6926    4.1653    0.0000 H   0  0  0  0  0  0  0  0  0  0  0  0
    5.1688    3.4291    0.0000 H   0  0  0  0  0  0  0  0  0  0  0  0
    6.7019   -3.7066    0.0000 H   0  0  0  0  0  0  0  0  0  0  0  0
    6.6756   -1.9976    0.0000 H   0  0  0  0  0  0  0  0  0  0  0  0
    2.8545   -2.1122    0.0000 H   0  0  0  0  0  0  0  0  0  0  0  0
    5.1936   -5.1287    0.0000 H   0  0  0  0  0  0  0  0  0  0  0  0
    6.0414   -5.3523    0.0000 H   0  0  0  0  0  0  0  0  0  0  0  0
    6.2651   -4.5045    0.0000 H   0  0  0  0  0  0  0  0  0  0  0  0
    4.1912   -4.5125    0.0000 H   0  0  0  0  0  0  0  0  0  0  0  0
    4.4214   -5.3586    0.0000 H   0  0  0  0  0  0  0  0  0  0  0  0
    5.2675   -5.1284    0.0000 H   0  0  0  0  0  0  0  0  0  0  0  0
    7.1814   -0.2517    0.0000 H   0  0  0  0  0  0  0  0  0  0  0  0
    7.7942   -0.8788    0.0000 H   0  0  0  0  0  0  0  0  0  0  0  0
    8.4213   -0.2660    0.0000 H   0  0  0  0  0  0  0  0  0  0  0  0
    2.0000   -0.5564    0.0000 H   0  0  0  0  0  0  0  0  0  0  0  0
  1  8  1  0  0  0  0
  1 17  1  0  0  0  0
  2 14  1  0  0  0  0
  2 18  1  0  0  0  0
  3 20  1  0  0  0  0
  3 23  1  0  0  0  0
  4 17  2  0  0  0  0
  5 22  2  0  0  0  0
  6 24  1  0  0  0  0
  6 51  1  0  0  0  0
  7 27  2  0  0  0  0
  8  9  1  0  0  0  0
  8 15  1  0  0  0  0
  8 16  1  0  0  0  0
  9 10  2  0  0  0  0
  9 13  1  0  0  0  0
 10 12  1  0  0  0  0
 10 17  1  0  0  0  0
 11 13  2  0  0  0  0
 11 14  1  0  0  0  0
 11 22  1  0  0  0  0
 12 14  2  0  0  0  0
 12 27  1  0  0  0  0
 13 32  1  0  0  0  0
 15 34  1  0  0  0  0
 15 35  1  0  0  0  0
 15 36  1  0  0  0  0
 16 33  1  0  0  0  0
 16 37  1  0  0  0  0
 16 38  1  0  0  0  0
 18 19  2  0  0  0  0
 18 21  1  0  0  0  0
 19 22  1  0  0  0  0
 19 24  1  0  0  0  0
 20 25  1  0  0  0  0
 20 29  1  0  0  0  0
 20 30  1  0  0  0  0
 21 23  2  0  0  0  0
 21 26  1  0  0  0  0
 23 28  1  0  0  0  0
 24 28  2  0  0  0  0
 25 26  2  0  0  0  0
 25 39  1  0  0  0  0
 26 40  1  0  0  0  0
 27 31  1  0  0  0  0
 28 41  1  0  0  0  0
 29 42  1  0  0  0  0
 29 43  1  0  0  0  0
 29 44  1  0  0  0  0
 30 45  1  0  0  0  0
 30 46  1  0  0  0  0
 30 47  1  0  0  0  0
 31 48  1  0  0  0  0
 31 49  1  0  0  0  0
 31 50  1  0  0  0  0
M  END
>  <PUBCHEM_COMPOUND_CID>
10740797

>  <PUBCHEM_COMPOUND_CANONICALIZED>
1

>  <PUBCHEM_CACTVS_COMPLEXITY>
858

>  <PUBCHEM_CACTVS_HBOND_ACCEPTOR>
7

>  <PUBCHEM_CACTVS_HBOND_DONOR>
1

>  <PUBCHEM_CACTVS_ROTATABLE_BOND>
1

>  <PUBCHEM_CACTVS_SUBSKEYS>
AAADceB4OAAAAAAAAAAAAAAAAAAAASAAAAA0YIEAAAAAAEiRQAAAGgAACAAADESAmAAyDoAABgCIAqDSCAACCAAkIAAIiAEGCMgMJzaGNBqCeWCl4BUIuYfL7vzu4AADCAAYAADAAAYQADAAAAAAAAAAAA==

>  <PUBCHEM_IUPAC_INCHI>
InChI=1S/C24H20O7/c1-10(25)16-17-13(24(4,5)31-22(17)28)8-12-19(27)18-14(26)9-15-11(20(18)29-21(12)16)6-7-23(2,3)30-15/h6-9,26H,1-5H3

>  <PUBCHEM_IUPAC_INCHIKEY>
LWJBUOOKYYTUDX-UHFFFAOYSA-N

>  <PUBCHEM_XLOGP3_AA>
3.8

>  <PUBCHEM_EXACT_MASS>
420.121

>  <PUBCHEM_MOLECULAR_FORMULA>
C24H20O7

>  <PUBCHEM_MOLECULAR_WEIGHT>
420.417

>  <PUBCHEM_OPENEYE_CAN_SMILES>
CC(=O)C1=C2C(=CC3=C1C(=O)OC3(C)C)C(=O)C4=C(C=C5C(=C4O2)C=CC(O5)(C)C)O

>  <PUBCHEM_OPENEYE_ISO_SMILES>
CC(=O)C1=C2C(=CC3=C1C(=O)OC3(C)C)C(=O)C4=C(C=C5C(=C4O2)C=CC(O5)(C)C)O

>  <PUBCHEM_CACTVS_TPSA>
99.1

>  <PUBCHEM_MONOISOTOPIC_WEIGHT>
420.121

>  <PUBCHEM_TOTAL_CHARGE>
0

>  <PUBCHEM_HEAVY_ATOM_COUNT>
31

>  <PUBCHEM_ATOM_DEF_STEREO_COUNT>
0

>  <PUBCHEM_ATOM_UDEF_STEREO_COUNT>
0

>  <PUBCHEM_BOND_DEF_STEREO_COUNT>
0

>  <PUBCHEM_BOND_UDEF_STEREO_COUNT>
0

>  <PUBCHEM_ISOTOPIC_ATOM_COUNT>
0

>  <PUBCHEM_COMPONENT_COUNT>
1

>  <PUBCHEM_CACTVS_TAUTO_COUNT>
12

>  <PUBCHEM_COORDINATE_TYPE>
1
5
255

>  <PUBCHEM_BONDANNOTATIONS>
10  12  8
11  13  8
11  14  8
11  22  8
12  14  8
18  19  8
18  21  8
19  22  8
19  24  8
2  14  8
2  18  8
21  23  8
23  28  8
24  28  8
9  10  8
9  13  8

$$$$
