10743213
 OpenBabel06101807152D

 71 73  0  0  0  0  0  0  0  0999 V2000
    7.2764   -2.1397    0.0000 O   0  0  0  0  0  0  0  0  0  0  0  0
    3.7320   -0.3349    0.0000 O   0  0  0  0  0  0  0  0  0  0  0  0
    3.7320   -2.3349    0.0000 O   0  0  0  0  0  0  0  0  0  0  0  0
   10.8600   -3.0670    0.0000 O   0  0  0  0  0  0  0  0  0  0  0  0
   10.8600    0.3971    0.0000 O   0  0  0  0  0  0  0  0  0  0  0  0
    6.3301   -0.8349    0.0000 C   0  0  0  0  0  0  0  0  0  0  0  0
    5.4641   -0.3349    0.0000 C   0  0  0  0  0  0  0  0  0  0  0  0
    6.3301   -1.8349    0.0000 C   0  0  0  0  0  0  0  0  0  0  0  0
    5.4641    0.6651    0.0000 C   0  0  0  0  0  0  0  0  0  0  0  0
    7.8600   -1.3349    0.0000 C   0  0  0  0  0  0  0  0  0  0  0  0
    7.2764   -0.5302    0.0000 C   0  0  0  0  0  0  0  0  0  0  0  0
    8.8600   -1.3349    0.0000 C   0  0  0  0  0  0  0  0  0  0  0  0
    4.5981   -0.8349    0.0000 C   0  0  0  0  0  0  0  0  0  0  0  0
    9.3600   -2.2010    0.0000 C   0  0  0  0  0  0  0  0  0  0  0  0
    5.4641   -2.3349    0.0000 C   0  0  0  0  0  0  0  0  0  0  0  0
    4.5981    1.1651    0.0000 C   0  0  0  0  0  0  0  0  0  0  0  0
    4.5981   -1.8349    0.0000 C   0  0  0  0  0  0  0  0  0  0  0  0
    4.5981    2.1651    0.0000 C   0  0  0  0  0  0  0  0  0  0  0  0
    3.7320    2.6651    0.0000 C   0  0  0  0  0  0  0  0  0  0  0  0
    8.8600   -3.0670    0.0000 C   0  0  0  0  0  0  0  0  0  0  0  0
    9.3600   -0.4689    0.0000 C   0  0  0  0  0  0  0  0  0  0  0  0
   10.3600   -2.2010    0.0000 C   0  0  0  0  0  0  0  0  0  0  0  0
    3.7320    3.6651    0.0000 C   0  0  0  0  0  0  0  0  0  0  0  0
   10.3600   -0.4689    0.0000 C   0  0  0  0  0  0  0  0  0  0  0  0
    5.4641    2.6651    0.0000 C   0  0  0  0  0  0  0  0  0  0  0  0
   10.8600   -1.3349    0.0000 C   0  0  0  0  0  0  0  0  0  0  0  0
    9.3600   -3.9330    0.0000 C   0  0  0  0  0  0  0  0  0  0  0  0
    2.8660    4.1651    0.0000 C   0  0  0  0  0  0  0  0  0  0  0  0
    8.8600   -4.7990    0.0000 C   0  0  0  0  0  0  0  0  0  0  0  0
    2.8660    5.1651    0.0000 C   0  0  0  0  0  0  0  0  0  0  0  0
    2.8660   -0.8349    0.0000 C   0  0  0  0  0  0  0  0  0  0  0  0
    9.3600   -5.6651    0.0000 C   0  0  0  0  0  0  0  0  0  0  0  0
    7.8600   -4.7990    0.0000 C   0  0  0  0  0  0  0  0  0  0  0  0
    2.0000    5.6651    0.0000 C   0  0  0  0  0  0  0  0  0  0  0  0
    3.7320    5.6651    0.0000 C   0  0  0  0  0  0  0  0  0  0  0  0
    6.0747    0.5574    0.0000 H   0  0  0  0  0  0  0  0  0  0  0  0
    5.6762    1.2477    0.0000 H   0  0  0  0  0  0  0  0  0  0  0  0
    7.4690    0.0591    0.0000 H   0  0  0  0  0  0  0  0  0  0  0  0
    5.4641   -2.9549    0.0000 H   0  0  0  0  0  0  0  0  0  0  0  0
    4.0611    0.8551    0.0000 H   0  0  0  0  0  0  0  0  0  0  0  0
    3.1215    2.7727    0.0000 H   0  0  0  0  0  0  0  0  0  0  0  0
    3.5200    2.0824    0.0000 H   0  0  0  0  0  0  0  0  0  0  0  0
    8.3850   -2.6685    0.0000 H   0  0  0  0  0  0  0  0  0  0  0  0
    8.3850   -3.4655    0.0000 H   0  0  0  0  0  0  0  0  0  0  0  0
    9.0500    0.0680    0.0000 H   0  0  0  0  0  0  0  0  0  0  0  0
    4.3426    3.5574    0.0000 H   0  0  0  0  0  0  0  0  0  0  0  0
    3.9441    4.2477    0.0000 H   0  0  0  0  0  0  0  0  0  0  0  0
    5.7741    2.1281    0.0000 H   0  0  0  0  0  0  0  0  0  0  0  0
    6.0010    2.9751    0.0000 H   0  0  0  0  0  0  0  0  0  0  0  0
    5.1541    3.2020    0.0000 H   0  0  0  0  0  0  0  0  0  0  0  0
   11.4800   -1.3349    0.0000 H   0  0  0  0  0  0  0  0  0  0  0  0
    9.9800   -3.9330    0.0000 H   0  0  0  0  0  0  0  0  0  0  0  0
    2.3291    3.8551    0.0000 H   0  0  0  0  0  0  0  0  0  0  0  0
    3.7320   -2.9549    0.0000 H   0  0  0  0  0  0  0  0  0  0  0  0
    2.5560   -0.2980    0.0000 H   0  0  0  0  0  0  0  0  0  0  0  0
    2.3291   -1.1449    0.0000 H   0  0  0  0  0  0  0  0  0  0  0  0
    3.1760   -1.3719    0.0000 H   0  0  0  0  0  0  0  0  0  0  0  0
   11.4800   -3.0670    0.0000 H   0  0  0  0  0  0  0  0  0  0  0  0
    8.8230   -5.9751    0.0000 H   0  0  0  0  0  0  0  0  0  0  0  0
    9.6700   -6.2020    0.0000 H   0  0  0  0  0  0  0  0  0  0  0  0
    9.8969   -5.3551    0.0000 H   0  0  0  0  0  0  0  0  0  0  0  0
    7.8600   -4.1790    0.0000 H   0  0  0  0  0  0  0  0  0  0  0  0
    7.2400   -4.7990    0.0000 H   0  0  0  0  0  0  0  0  0  0  0  0
    7.8600   -5.4190    0.0000 H   0  0  0  0  0  0  0  0  0  0  0  0
   11.4800    0.3971    0.0000 H   0  0  0  0  0  0  0  0  0  0  0  0
    4.0420    5.1281    0.0000 H   0  0  0  0  0  0  0  0  0  0  0  0
    4.2690    5.9751    0.0000 H   0  0  0  0  0  0  0  0  0  0  0  0
    3.4220    6.2020    0.0000 H   0  0  0  0  0  0  0  0  0  0  0  0
    2.3100    6.2020    0.0000 H   0  0  0  0  0  0  0  0  0  0  0  0
    1.4631    5.9751    0.0000 H   0  0  0  0  0  0  0  0  0  0  0  0
    1.6900    5.1281    0.0000 H   0  0  0  0  0  0  0  0  0  0  0  0
  1  8  1  0  0  0  0
  1 10  1  0  0  0  0
  2 13  1  0  0  0  0
  2 31  1  0  0  0  0
  3 17  1  0  0  0  0
  3 54  1  0  0  0  0
  4 22  1  0  0  0  0
  4 58  1  0  0  0  0
  5 24  1  0  0  0  0
  5 65  1  0  0  0  0
  6  7  1  0  0  0  0
  6  8  2  0  0  0  0
  6 11  1  0  0  0  0
  7  9  1  0  0  0  0
  7 13  2  0  0  0  0
  8 15  1  0  0  0  0
  9 16  1  0  0  0  0
  9 36  1  0  0  0  0
  9 37  1  0  0  0  0
 10 11  2  0  0  0  0
 10 12  1  0  0  0  0
 11 38  1  0  0  0  0
 12 14  2  0  0  0  0
 12 21  1  0  0  0  0
 13 17  1  0  0  0  0
 14 20  1  0  0  0  0
 14 22  1  0  0  0  0
 15 17  2  0  0  0  0
 15 39  1  0  0  0  0
 16 18  2  0  0  0  0
 16 40  1  0  0  0  0
 18 19  1  0  0  0  0
 18 25  1  0  0  0  0
 19 23  1  0  0  0  0
 19 41  1  0  0  0  0
 19 42  1  0  0  0  0
 20 27  1  0  0  0  0
 20 43  1  0  0  0  0
 20 44  1  0  0  0  0
 21 24  2  0  0  0  0
 21 45  1  0  0  0  0
 22 26  2  0  0  0  0
 23 28  1  0  0  0  0
 23 46  1  0  0  0  0
 23 47  1  0  0  0  0
 24 26  1  0  0  0  0
 25 48  1  0  0  0  0
 25 49  1  0  0  0  0
 25 50  1  0  0  0  0
 26 51  1  0  0  0  0
 27 29  2  0  0  0  0
 27 52  1  0  0  0  0
 28 30  2  0  0  0  0
 28 53  1  0  0  0  0
 29 32  1  0  0  0  0
 29 33  1  0  0  0  0
 30 34  1  0  0  0  0
 30 35  1  0  0  0  0
 31 55  1  0  0  0  0
 31 56  1  0  0  0  0
 31 57  1  0  0  0  0
 32 59  1  0  0  0  0
 32 60  1  0  0  0  0
 32 61  1  0  0  0  0
 33 62  1  0  0  0  0
 33 63  1  0  0  0  0
 33 64  1  0  0  0  0
 34 69  1  0  0  0  0
 34 70  1  0  0  0  0
 34 71  1  0  0  0  0
 35 66  1  0  0  0  0
 35 67  1  0  0  0  0
 35 68  1  0  0  0  0
M  END
>  <PUBCHEM_COMPOUND_CID>
10743213

>  <PUBCHEM_COMPOUND_CANONICALIZED>
1

>  <PUBCHEM_CACTVS_COMPLEXITY>
763

>  <PUBCHEM_CACTVS_HBOND_ACCEPTOR>
5

>  <PUBCHEM_CACTVS_HBOND_DONOR>
3

>  <PUBCHEM_CACTVS_ROTATABLE_BOND>
9

>  <PUBCHEM_CACTVS_SUBSKEYS>
AAADcfB4OAAAAAAAAAAAAAAAAAAAASAAAAAwYAAAAAAAAEgB9AAAGgAACAAADASAmAIyBsAABkCIAqBSAAACCAAkIAAAiAEGiMgNJzaGNRqCeWOl4BULuYfK7PzOoQABCAAYQABCAAIQADCAAAAAAAAAAA==

>  <PUBCHEM_IUPAC_OPENEYE_NAME>
5-[4-[(2E)-3,7-dimethylocta-2,6-dienyl]-6-hydroxy-5-methoxy-benzofuran-2-yl]-4-(3-methylbut-2-enyl)benzene-1,3-diol

>  <PUBCHEM_IUPAC_CAS_NAME>
5-[4-[(2E)-3,7-dimethylocta-2,6-dienyl]-6-hydroxy-5-methoxy-2-benzofuranyl]-4-(3-methylbut-2-enyl)benzene-1,3-diol

>  <PUBCHEM_IUPAC_NAME>
5-[4-[(2E)-3,7-dimethylocta-2,6-dienyl]-6-hydroxy-5-methoxy-1-benzofuran-2-yl]-4-(3-methylbut-2-enyl)benzene-1,3-diol

>  <PUBCHEM_IUPAC_SYSTEMATIC_NAME>
5-[4-[(2E)-3,7-dimethylocta-2,6-dienyl]-5-methoxy-6-oxidanyl-1-benzofuran-2-yl]-4-(3-methylbut-2-enyl)benzene-1,3-diol

>  <PUBCHEM_IUPAC_TRADITIONAL_NAME>
5-[4-[(2E)-3,7-dimethylocta-2,6-dienyl]-6-hydroxy-5-methoxy-benzofuran-2-yl]-4-(3-methylbut-2-enyl)resorcinol

>  <PUBCHEM_IUPAC_INCHI>
InChI=1S/C30H36O5/c1-18(2)8-7-9-20(5)11-13-23-25-16-28(35-29(25)17-27(33)30(23)34-6)24-14-21(31)15-26(32)22(24)12-10-19(3)4/h8,10-11,14-17,31-33H,7,9,12-13H2,1-6H3/b20-11+

>  <PUBCHEM_IUPAC_INCHIKEY>
GXPANDQTASJGIX-RGVLZGJSSA-N

>  <PUBCHEM_XLOGP3_AA>
8.6

>  <PUBCHEM_EXACT_MASS>
476.256

>  <PUBCHEM_MOLECULAR_FORMULA>
C30H36O5

>  <PUBCHEM_MOLECULAR_WEIGHT>
476.613

>  <PUBCHEM_OPENEYE_CAN_SMILES>
CC(=CCCC(=CCC1=C2C=C(OC2=CC(=C1OC)O)C3=CC(=CC(=C3CC=C(C)C)O)O)C)C

>  <PUBCHEM_OPENEYE_ISO_SMILES>
CC(=CCC/C(=C/CC1=C2C=C(OC2=CC(=C1OC)O)C3=CC(=CC(=C3CC=C(C)C)O)O)/C)C

>  <PUBCHEM_CACTVS_TPSA>
83.1

>  <PUBCHEM_MONOISOTOPIC_WEIGHT>
476.256

>  <PUBCHEM_TOTAL_CHARGE>
0

>  <PUBCHEM_HEAVY_ATOM_COUNT>
35

>  <PUBCHEM_ATOM_DEF_STEREO_COUNT>
0

>  <PUBCHEM_ATOM_UDEF_STEREO_COUNT>
0

>  <PUBCHEM_BOND_DEF_STEREO_COUNT>
1

>  <PUBCHEM_BOND_UDEF_STEREO_COUNT>
0

>  <PUBCHEM_ISOTOPIC_ATOM_COUNT>
0

>  <PUBCHEM_COMPONENT_COUNT>
1

>  <PUBCHEM_CACTVS_TAUTO_COUNT>
149

>  <PUBCHEM_COORDINATE_TYPE>
1
5
255

>  <PUBCHEM_BONDANNOTATIONS>
1  10  8
1  8  8
10  11  8
12  14  8
12  21  8
13  17  8
14  22  8
15  17  8
21  24  8
22  26  8
24  26  8
6  11  8
6  7  8
6  8  8
7  13  8
8  15  8

$$$$
