107674
 OpenBabel06101807152D

  1  0  0  0  0  0  0  0  0  0999 V2000
    2.0000    0.0000    0.0000 Se  0  6  0  0  0  0  0  0  0  0  0  0
M  CHG  1   1  -2
M  END
>  <PUBCHEM_COMPOUND_CID>
107674

>  <PUBCHEM_COMPOUND_CANONICALIZED>
1

>  <PUBCHEM_CACTVS_COMPLEXITY>
0

>  <PUBCHEM_CACTVS_HBOND_ACCEPTOR>
1

>  <PUBCHEM_CACTVS_HBOND_DONOR>
0

>  <PUBCHEM_CACTVS_ROTATABLE_BOND>
0

>  <PUBCHEM_CACTVS_SUBSKEYS>
AAADcQAAAAAAAAAAIAAAAAAAAAAAAAAAAAAAAAAAAAAAAAAAAAAAAAAAAAAAAAAAAAAAAAAAAAAAAAAAAAAAAAAAAAAAAAAAAAAAAAAAAAAAAAAAAAAAAAAAAAAAAAAAAAAAAAAAAAAAAAAAAAAAAAAAAA==

>  <PUBCHEM_IUPAC_OPENEYE_NAME>
selenium(2-)

>  <PUBCHEM_IUPAC_CAS_NAME>
selenium(2-)

>  <PUBCHEM_IUPAC_NAME>
selenium(2-)

>  <PUBCHEM_IUPAC_SYSTEMATIC_NAME>
selenium(2-)

>  <PUBCHEM_IUPAC_TRADITIONAL_NAME>
selenium(2-)

>  <PUBCHEM_IUPAC_INCHI>
InChI=1S/Se/q-2

>  <PUBCHEM_IUPAC_INCHIKEY>
HMUBNCUQSSTAIB-UHFFFAOYSA-N

>  <PUBCHEM_EXACT_MASS>
79.917

>  <PUBCHEM_MOLECULAR_FORMULA>
Se-2

>  <PUBCHEM_MOLECULAR_WEIGHT>
78.971

>  <PUBCHEM_OPENEYE_CAN_SMILES>
[Se-2]

>  <PUBCHEM_OPENEYE_ISO_SMILES>
[Se-2]

>  <PUBCHEM_CACTVS_TPSA>
0

>  <PUBCHEM_MONOISOTOPIC_WEIGHT>
79.917

>  <PUBCHEM_TOTAL_CHARGE>
-2

>  <PUBCHEM_HEAVY_ATOM_COUNT>
1

>  <PUBCHEM_ATOM_DEF_STEREO_COUNT>
0

>  <PUBCHEM_ATOM_UDEF_STEREO_COUNT>
0

>  <PUBCHEM_BOND_DEF_STEREO_COUNT>
0

>  <PUBCHEM_BOND_UDEF_STEREO_COUNT>
0

>  <PUBCHEM_ISOTOPIC_ATOM_COUNT>
0

>  <PUBCHEM_COMPONENT_COUNT>
1

>  <PUBCHEM_CACTVS_TAUTO_COUNT>
1

>  <PUBCHEM_COORDINATE_TYPE>
1
5
255

$$$$
