10778640
 OpenBabel06101807152D

 39 40  0  0  0  0  0  0  0  0999 V2000
    4.6660    1.7500    0.0000 O   0  0  0  0  0  0  0  0  0  0  0  0
    6.3981   -1.2500    0.0000 O   0  0  0  0  0  0  0  0  0  0  0  0
    7.2641   -0.7500    0.0000 O   0  0  0  0  0  0  0  0  0  0  0  0
    4.6660   -1.2500    0.0000 N   0  0  0  0  0  0  0  0  0  0  0  0
    5.5321    0.2500    0.0000 C   0  0  0  0  0  0  0  0  0  0  0  0
    6.3981    0.7500    0.0000 C   0  0  0  0  0  0  0  0  0  0  0  0
    3.8000    0.2500    0.0000 C   0  0  0  0  0  0  0  0  0  0  0  0
    4.6660    0.7500    0.0000 C   0  0  0  0  0  0  0  0  0  0  0  0
    3.8000   -0.7500    0.0000 C   0  0  0  0  0  0  0  0  0  0  0  0
    8.1301    0.7500    0.0000 C   0  0  0  0  0  0  0  0  0  0  0  0
    5.5321   -0.7500    0.0000 C   0  0  0  0  0  0  0  0  0  0  0  0
    7.2641    0.2500    0.0000 C   0  0  0  0  0  0  0  0  0  0  0  0
    2.9061    0.7847    0.0000 C   0  0  0  0  0  0  0  0  0  0  0  0
    2.9061   -1.2847    0.0000 C   0  0  0  0  0  0  0  0  0  0  0  0
    8.9962    0.2500    0.0000 C   0  0  0  0  0  0  0  0  0  0  0  0
    8.1301    1.7500    0.0000 C   0  0  0  0  0  0  0  0  0  0  0  0
    4.6660   -2.2500    0.0000 C   0  0  0  0  0  0  0  0  0  0  0  0
    2.0000    0.2708    0.0000 C   0  0  0  0  0  0  0  0  0  0  0  0
    2.0000   -0.7708    0.0000 C   0  0  0  0  0  0  0  0  0  0  0  0
    5.5321    2.2500    0.0000 C   0  0  0  0  0  0  0  0  0  0  0  0
    6.7966    1.2250    0.0000 H   0  0  0  0  0  0  0  0  0  0  0  0
    5.9996    1.2250    0.0000 H   0  0  0  0  0  0  0  0  0  0  0  0
    7.5932    1.0600    0.0000 H   0  0  0  0  0  0  0  0  0  0  0  0
    2.9132    1.4046    0.0000 H   0  0  0  0  0  0  0  0  0  0  0  0
    2.9132   -1.9046    0.0000 H   0  0  0  0  0  0  0  0  0  0  0  0
    8.7501    1.7500    0.0000 H   0  0  0  0  0  0  0  0  0  0  0  0
    8.6862   -0.2869    0.0000 H   0  0  0  0  0  0  0  0  0  0  0  0
    9.5331   -0.0600    0.0000 H   0  0  0  0  0  0  0  0  0  0  0  0
    9.3062    0.7869    0.0000 H   0  0  0  0  0  0  0  0  0  0  0  0
    8.1301    2.3700    0.0000 H   0  0  0  0  0  0  0  0  0  0  0  0
    7.5101    1.7500    0.0000 H   0  0  0  0  0  0  0  0  0  0  0  0
    4.0460   -2.2500    0.0000 H   0  0  0  0  0  0  0  0  0  0  0  0
    4.6660   -2.8700    0.0000 H   0  0  0  0  0  0  0  0  0  0  0  0
    5.2860   -2.2500    0.0000 H   0  0  0  0  0  0  0  0  0  0  0  0
    1.4643    0.5829    0.0000 H   0  0  0  0  0  0  0  0  0  0  0  0
    1.4643   -1.0829    0.0000 H   0  0  0  0  0  0  0  0  0  0  0  0
    5.8421    1.7131    0.0000 H   0  0  0  0  0  0  0  0  0  0  0  0
    6.0690    2.5600    0.0000 H   0  0  0  0  0  0  0  0  0  0  0  0
    5.2221    2.7869    0.0000 H   0  0  0  0  0  0  0  0  0  0  0  0
  1  8  1  0  0  0  0
  1 20  1  0  0  0  0
  2 11  2  0  0  0  0
  3 12  2  0  0  0  0
  4  9  1  0  0  0  0
  4 11  1  0  0  0  0
  4 17  1  0  0  0  0
  5  6  1  0  0  0  0
  5  8  2  0  0  0  0
  5 11  1  0  0  0  0
  6 12  1  0  0  0  0
  6 21  1  0  0  0  0
  6 22  1  0  0  0  0
  7  8  1  0  0  0  0
  7  9  1  0  0  0  0
  7 13  2  0  0  0  0
  9 14  2  0  0  0  0
 10 12  1  0  0  0  0
 10 15  1  0  0  0  0
 10 16  1  0  0  0  0
 10 23  1  0  0  0  0
 13 18  1  0  0  0  0
 13 24  1  0  0  0  0
 14 19  1  0  0  0  0
 14 25  1  0  0  0  0
 15 27  1  0  0  0  0
 15 28  1  0  0  0  0
 15 29  1  0  0  0  0
 16 26  1  0  0  0  0
 16 30  1  0  0  0  0
 16 31  1  0  0  0  0
 17 32  1  0  0  0  0
 17 33  1  0  0  0  0
 17 34  1  0  0  0  0
 18 19  2  0  0  0  0
 18 35  1  0  0  0  0
 19 36  1  0  0  0  0
 20 37  1  0  0  0  0
 20 38  1  0  0  0  0
 20 39  1  0  0  0  0
M  END
>  <PUBCHEM_COMPOUND_CID>
10778640

>  <PUBCHEM_COMPOUND_CANONICALIZED>
1

>  <PUBCHEM_CACTVS_COMPLEXITY>
439

>  <PUBCHEM_CACTVS_HBOND_ACCEPTOR>
3

>  <PUBCHEM_CACTVS_HBOND_DONOR>
0

>  <PUBCHEM_CACTVS_ROTATABLE_BOND>
4

>  <PUBCHEM_CACTVS_SUBSKEYS>
AAADceB6MAAAAAAAAAAAAAAAAAAAAAAAAAAwQAAAAAAAAACBAAAAHgAAAAAADQyBmAYywIMABACIAqVSUACCCAAhIgAIiAEIbMgIJjLAsZmEMAhmxgHI6QedyCAOAAAAAAACAAAAAAAAAAQAAAAAAAAAAA==

>  <PUBCHEM_IUPAC_OPENEYE_NAME>
4-methoxy-1-methyl-3-(3-methyl-2-oxo-butyl)quinolin-2-one

>  <PUBCHEM_IUPAC_CAS_NAME>
4-methoxy-1-methyl-3-(3-methyl-2-oxobutyl)-2-quinolinone

>  <PUBCHEM_IUPAC_NAME>
4-methoxy-1-methyl-3-(3-methyl-2-oxobutyl)quinolin-2-one

>  <PUBCHEM_IUPAC_SYSTEMATIC_NAME>
4-methoxy-1-methyl-3-(3-methyl-2-oxidanylidene-butyl)quinolin-2-one

>  <PUBCHEM_IUPAC_TRADITIONAL_NAME>
3-(2-keto-3-methyl-butyl)-4-methoxy-1-methyl-carbostyril

>  <PUBCHEM_IUPAC_INCHI>
InChI=1S/C16H19NO3/c1-10(2)14(18)9-12-15(20-4)11-7-5-6-8-13(11)17(3)16(12)19/h5-8,10H,9H2,1-4H3

>  <PUBCHEM_IUPAC_INCHIKEY>
YXGHKWZVZFYPKC-UHFFFAOYSA-N

>  <PUBCHEM_XLOGP3_AA>
1.9

>  <PUBCHEM_EXACT_MASS>
273.136

>  <PUBCHEM_MOLECULAR_FORMULA>
C16H19NO3

>  <PUBCHEM_MOLECULAR_WEIGHT>
273.332

>  <PUBCHEM_OPENEYE_CAN_SMILES>
CC(C)C(=O)CC1=C(C2=CC=CC=C2N(C1=O)C)OC

>  <PUBCHEM_OPENEYE_ISO_SMILES>
CC(C)C(=O)CC1=C(C2=CC=CC=C2N(C1=O)C)OC

>  <PUBCHEM_CACTVS_TPSA>
46.6

>  <PUBCHEM_MONOISOTOPIC_WEIGHT>
273.136

>  <PUBCHEM_TOTAL_CHARGE>
0

>  <PUBCHEM_HEAVY_ATOM_COUNT>
20

>  <PUBCHEM_ATOM_DEF_STEREO_COUNT>
0

>  <PUBCHEM_ATOM_UDEF_STEREO_COUNT>
0

>  <PUBCHEM_BOND_DEF_STEREO_COUNT>
0

>  <PUBCHEM_BOND_UDEF_STEREO_COUNT>
0

>  <PUBCHEM_ISOTOPIC_ATOM_COUNT>
0

>  <PUBCHEM_COMPONENT_COUNT>
1

>  <PUBCHEM_CACTVS_TAUTO_COUNT>
3

>  <PUBCHEM_COORDINATE_TYPE>
1
5
255

>  <PUBCHEM_BONDANNOTATIONS>
13  18  8
14  19  8
18  19  8
4  11  8
4  9  8
5  11  8
5  8  8
7  13  8
7  8  8
7  9  8
9  14  8

$$$$
