108410
 OpenBabel06101807152D

 47 47  0  0  1  0  0  0  0  0999 V2000
    7.1962    0.6160    0.0000 O   0  0  0  0  0  0  0  0  0  0  0  0
    8.0622    2.1160    0.0000 O   0  0  0  0  0  0  0  0  0  0  0  0
    4.5981    1.1160    0.0000 C   0  0  0  0  0  0  0  0  0  0  0  0
    3.7320    0.6160    0.0000 C   0  0  3  0  0  0  0  0  0  0  0  0
    3.7320   -0.3840    0.0000 C   0  0  3  0  0  0  0  0  0  0  0  0
    5.4641    0.6160    0.0000 C   0  0  3  0  0  0  0  0  0  0  0  0
    4.5981   -0.8840    0.0000 C   0  0  0  0  0  0  0  0  0  0  0  0
    5.4641   -0.3840    0.0000 C   0  0  0  0  0  0  0  0  0  0  0  0
    5.0981    1.9820    0.0000 C   0  0  0  0  0  0  0  0  0  0  0  0
    4.0981    1.9820    0.0000 C   0  0  0  0  0  0  0  0  0  0  0  0
    2.8660    1.1160    0.0000 C   0  0  0  0  0  0  0  0  0  0  0  0
    6.3301    1.1160    0.0000 C   0  0  0  0  0  0  0  0  0  0  0  0
    2.7320   -0.3840    0.0000 C   0  0  0  0  0  0  0  0  0  0  0  0
    3.2320   -1.2500    0.0000 C   0  0  0  0  0  0  0  0  0  0  0  0
    2.0000    0.6160    0.0000 C   0  0  0  0  0  0  0  0  0  0  0  0
    2.8660    2.1160    0.0000 C   0  0  0  0  0  0  0  0  0  0  0  0
    3.7320   -2.1160    0.0000 C   0  0  0  0  0  0  0  0  0  0  0  0
    8.0622    1.1160    0.0000 C   0  0  0  0  0  0  0  0  0  0  0  0
    8.9282    0.6160    0.0000 C   0  0  0  0  0  0  0  0  0  0  0  0
    3.1951    0.3060    0.0000 H   0  0  0  0  0  0  0  0  0  0  0  0
    6.0010    0.3060    0.0000 H   0  0  0  0  0  0  0  0  0  0  0  0
    4.1996   -1.3589    0.0000 H   0  0  0  0  0  0  0  0  0  0  0  0
    4.9966   -1.3589    0.0000 H   0  0  0  0  0  0  0  0  0  0  0  0
    5.6762   -0.9666    0.0000 H   0  0  0  0  0  0  0  0  0  0  0  0
    6.0747   -0.2763    0.0000 H   0  0  0  0  0  0  0  0  0  0  0  0
    5.6350    1.6720    0.0000 H   0  0  0  0  0  0  0  0  0  0  0  0
    5.4081    2.5190    0.0000 H   0  0  0  0  0  0  0  0  0  0  0  0
    4.5611    2.2920    0.0000 H   0  0  0  0  0  0  0  0  0  0  0  0
    4.6350    2.2920    0.0000 H   0  0  0  0  0  0  0  0  0  0  0  0
    3.7881    2.5190    0.0000 H   0  0  0  0  0  0  0  0  0  0  0  0
    3.5611    1.6720    0.0000 H   0  0  0  0  0  0  0  0  0  0  0  0
    6.7287    1.5910    0.0000 H   0  0  0  0  0  0  0  0  0  0  0  0
    5.9316    1.5910    0.0000 H   0  0  0  0  0  0  0  0  0  0  0  0
    2.7320    0.2360    0.0000 H   0  0  0  0  0  0  0  0  0  0  0  0
    2.1120   -0.3840    0.0000 H   0  0  0  0  0  0  0  0  0  0  0  0
    2.7320   -1.0040    0.0000 H   0  0  0  0  0  0  0  0  0  0  0  0
    2.6120   -1.2500    0.0000 H   0  0  0  0  0  0  0  0  0  0  0  0
    1.6900    1.1530    0.0000 H   0  0  0  0  0  0  0  0  0  0  0  0
    1.4631    0.3060    0.0000 H   0  0  0  0  0  0  0  0  0  0  0  0
    2.3100    0.0791    0.0000 H   0  0  0  0  0  0  0  0  0  0  0  0
    3.4030    2.4260    0.0000 H   0  0  0  0  0  0  0  0  0  0  0  0
    2.3291    2.4260    0.0000 H   0  0  0  0  0  0  0  0  0  0  0  0
    3.4220   -2.6530    0.0000 H   0  0  0  0  0  0  0  0  0  0  0  0
    4.3520   -2.1160    0.0000 H   0  0  0  0  0  0  0  0  0  0  0  0
    8.6182    0.0791    0.0000 H   0  0  0  0  0  0  0  0  0  0  0  0
    9.4651    0.3060    0.0000 H   0  0  0  0  0  0  0  0  0  0  0  0
    9.2382    1.1530    0.0000 H   0  0  0  0  0  0  0  0  0  0  0  0
  1 12  1  0  0  0  0
  1 18  1  0  0  0  0
  2 18  2  0  0  0  0
  3  4  1  0  0  0  0
  3  6  1  0  0  0  0
  3  9  1  0  0  0  0
  3 10  1  0  0  0  0
  4  5  1  0  0  0  0
  4 11  1  0  0  0  0
  4 20  1  0  0  0  0
  5  7  1  0  0  0  0
  5 13  1  0  0  0  0
  5 14  1  0  0  0  0
  6  8  1  0  0  0  0
  6 12  1  0  0  0  0
  6 21  1  0  0  0  0
  7  8  1  0  0  0  0
  7 22  1  0  0  0  0
  7 23  1  0  0  0  0
  8 24  1  0  0  0  0
  8 25  1  0  0  0  0
  9 26  1  0  0  0  0
  9 27  1  0  0  0  0
  9 28  1  0  0  0  0
 10 29  1  0  0  0  0
 10 30  1  0  0  0  0
 10 31  1  0  0  0  0
 11 15  1  0  0  0  0
 11 16  2  0  0  0  0
 12 32  1  0  0  0  0
 12 33  1  0  0  0  0
 13 34  1  0  0  0  0
 13 35  1  0  0  0  0
 13 36  1  0  0  0  0
 14 17  2  0  0  0  0
 14 37  1  0  0  0  0
 15 38  1  0  0  0  0
 15 39  1  0  0  0  0
 15 40  1  0  0  0  0
 16 41  1  0  0  0  0
 16 42  1  0  0  0  0
 17 43  1  0  0  0  0
 17 44  1  0  0  0  0
 18 19  1  0  0  0  0
 19 45  1  0  0  0  0
 19 46  1  0  0  0  0
 19 47  1  0  0  0  0
M  END
>  <PUBCHEM_COMPOUND_CID>
108410

>  <PUBCHEM_COMPOUND_CANONICALIZED>
1

>  <PUBCHEM_CACTVS_COMPLEXITY>
381

>  <PUBCHEM_CACTVS_HBOND_ACCEPTOR>
2

>  <PUBCHEM_CACTVS_HBOND_DONOR>
0

>  <PUBCHEM_CACTVS_ROTATABLE_BOND>
5

>  <PUBCHEM_CACTVS_SUBSKEYS>
AAADceB4MAAAAAAAAAAAAAAAAAAAAAAAAAAwAAAAAAAAAAAAAAAAGgAAAAAADwCggAICCAAABACIAiDSCAAAAAAgAAAIAAAAAAgAAAIAAQACAAAEgAAAAAGAwPAPgAAAAAAAAACAAAQAACAAAAAAAAAAAA==

>  <PUBCHEM_IUPAC_OPENEYE_NAME>
(3-isopropenyl-2,2,4-trimethyl-4-vinyl-cyclohexyl)methyl acetate

>  <PUBCHEM_IUPAC_CAS_NAME>
acetic acid [4-ethenyl-2,2,4-trimethyl-3-(1-methylethenyl)cyclohexyl]methyl ester

>  <PUBCHEM_IUPAC_NAME>
(4-ethenyl-2,2,4-trimethyl-3-prop-1-en-2-ylcyclohexyl)methyl acetate

>  <PUBCHEM_IUPAC_SYSTEMATIC_NAME>
(4-ethenyl-2,2,4-trimethyl-3-prop-1-en-2-yl-cyclohexyl)methyl ethanoate

>  <PUBCHEM_IUPAC_TRADITIONAL_NAME>
acetic acid (3-isopropenyl-2,2,4-trimethyl-4-vinyl-cyclohexyl)methyl ester

>  <PUBCHEM_IUPAC_INCHI>
InChI=1S/C17H28O2/c1-8-17(7)10-9-14(11-19-13(4)18)16(5,6)15(17)12(2)3/h8,14-15H,1-2,9-11H2,3-7H3

>  <PUBCHEM_IUPAC_INCHIKEY>
WVBWGEUOGUDKGD-UHFFFAOYSA-N

>  <PUBCHEM_XLOGP3_AA>
5.2

>  <PUBCHEM_EXACT_MASS>
264.209

>  <PUBCHEM_MOLECULAR_FORMULA>
C17H28O2

>  <PUBCHEM_MOLECULAR_WEIGHT>
264.409

>  <PUBCHEM_OPENEYE_CAN_SMILES>
CC(=C)C1C(C(CCC1(C)C=C)COC(=O)C)(C)C

>  <PUBCHEM_OPENEYE_ISO_SMILES>
CC(=C)C1C(C(CCC1(C)C=C)COC(=O)C)(C)C

>  <PUBCHEM_CACTVS_TPSA>
26.3

>  <PUBCHEM_MONOISOTOPIC_WEIGHT>
264.209

>  <PUBCHEM_TOTAL_CHARGE>
0

>  <PUBCHEM_HEAVY_ATOM_COUNT>
19

>  <PUBCHEM_ATOM_DEF_STEREO_COUNT>
0

>  <PUBCHEM_ATOM_UDEF_STEREO_COUNT>
3

>  <PUBCHEM_BOND_DEF_STEREO_COUNT>
0

>  <PUBCHEM_BOND_UDEF_STEREO_COUNT>
0

>  <PUBCHEM_ISOTOPIC_ATOM_COUNT>
0

>  <PUBCHEM_COMPONENT_COUNT>
1

>  <PUBCHEM_CACTVS_TAUTO_COUNT>
1

>  <PUBCHEM_COORDINATE_TYPE>
1
5
255

>  <PUBCHEM_BONDANNOTATIONS>
4  11  3
5  13  3
6  12  3

$$$$
