10865804
 OpenBabel06101807152D

101109  0  0  1  0  0  0  0  0999 V2000
    9.5905   -2.5148    0.0000 O   0  0  0  0  0  0  0  0  0  0  0  0
   11.3505    0.4506    0.0000 O   0  0  0  0  0  0  0  0  0  0  0  0
   11.3226   -0.5148    0.0000 O   0  0  0  0  0  0  0  0  0  0  0  0
    4.3322    0.5161    0.0000 O   0  0  0  0  0  0  0  0  0  0  0  0
    6.5676    1.3735    0.0000 O   0  0  0  0  0  0  0  0  0  0  0  0
    8.4822    0.2785    0.0000 O   0  0  0  0  0  0  0  0  0  0  0  0
    6.5861   -2.9766    0.0000 O   0  0  0  0  0  0  0  0  0  0  0  0
   13.1207    2.5094    0.0000 O   0  0  0  0  0  0  0  0  0  0  0  0
    7.7245    0.9853    0.0000 O   0  0  0  0  0  0  0  0  0  0  0  0
    9.5905    3.4852    0.0000 O   0  0  0  0  0  0  0  0  0  0  0  0
    5.5538   -2.9658    0.0000 O   0  0  0  0  0  0  0  0  0  0  0  0
    2.5345   -2.5221    0.0000 O   0  0  0  0  0  0  0  0  0  0  0  0
   12.1886   -5.0148    0.0000 O   0  0  0  0  0  0  0  0  0  0  0  0
   13.9207   -4.0148    0.0000 O   0  0  0  0  0  0  0  0  0  0  0  0
    6.9438    4.0060    0.0000 O   0  0  0  0  0  0  0  0  0  0  0  0
    5.2156    5.0127    0.0000 O   0  0  0  0  0  0  0  0  0  0  0  0
   13.9770   -2.0422    0.0000 O   0  0  0  0  0  0  0  0  0  0  0  0
   15.7129   -1.0489    0.0000 O   0  0  0  0  0  0  0  0  0  0  0  0
    9.5905   -0.5148    0.0000 C   0  0  2  0  0  0  0  0  0  0  0  0
   10.4566   -1.0148    0.0000 C   0  0  2  0  0  0  0  0  0  0  0  0
    8.7245   -1.0148    0.0000 C   0  0  0  0  0  0  0  0  0  0  0  0
    6.0604   -0.4906    0.0000 C   0  0  2  0  0  0  0  0  0  0  0  0
   10.4566   -2.0148    0.0000 C   0  0  1  0  0  0  0  0  0  0  0  0
    9.5905    0.4852    0.0000 C   0  0  0  0  0  0  0  0  0  0  0  0
    6.9245   -0.9939    0.0000 C   0  0  0  0  0  0  0  0  0  0  0  0
    6.0643    0.5094    0.0000 C   0  0  2  0  0  0  0  0  0  0  0  0
    8.7245   -2.0148    0.0000 C   0  0  0  0  0  0  0  0  0  0  0  0
    7.8306   -0.4801    0.0000 C   0  0  0  0  0  0  0  0  0  0  0  0
   10.4566    0.9852    0.0000 C   0  0  0  0  0  0  0  0  0  0  0  0
    5.2002    1.0127    0.0000 C   0  0  1  0  0  0  0  0  0  0  0  0
    5.1925   -0.9873    0.0000 C   0  0  0  0  0  0  0  0  0  0  0  0
   10.4566    1.9852    0.0000 C   0  0  0  0  0  0  0  0  0  0  0  0
    6.9245   -2.0356    0.0000 C   0  0  0  0  0  0  0  0  0  0  0  0
   11.3505    2.5199    0.0000 C   0  0  0  0  0  0  0  0  0  0  0  0
    7.8306   -2.5494    0.0000 C   0  0  0  0  0  0  0  0  0  0  0  0
   12.2566    2.0061    0.0000 C   0  0  2  0  0  0  0  0  0  0  0  0
   12.2566    0.9644    0.0000 C   0  0  1  0  0  0  0  0  0  0  0  0
   11.3226   -2.5148    0.0000 C   0  0  0  0  0  0  0  0  0  0  0  0
    8.7245    0.9852    0.0000 C   0  0  0  0  0  0  0  0  0  0  0  0
    4.3284   -0.4839    0.0000 C   0  0  0  0  0  0  0  0  0  0  0  0
    9.5905    2.4852    0.0000 C   0  0  0  0  0  0  0  0  0  0  0  0
    5.2040    2.0127    0.0000 C   0  0  0  0  0  0  0  0  0  0  0  0
    8.7245    1.9852    0.0000 C   0  0  0  0  0  0  0  0  0  0  0  0
    5.2045   -2.0288    0.0000 C   0  0  0  0  0  0  0  0  0  0  0  0
   13.1207    0.4611    0.0000 C   0  0  0  0  0  0  0  0  0  0  0  0
   11.3226   -3.5148    0.0000 C   0  0  0  0  0  0  0  0  0  0  0  0
    3.4164   -0.9873    0.0000 C   0  0  0  0  0  0  0  0  0  0  0  0
   12.1886   -2.0148    0.0000 C   0  0  0  0  0  0  0  0  0  0  0  0
    4.3044   -2.5531    0.0000 C   0  0  0  0  0  0  0  0  0  0  0  0
    3.4044   -2.0288    0.0000 C   0  0  0  0  0  0  0  0  0  0  0  0
    6.0720    2.5094    0.0000 C   0  0  0  0  0  0  0  0  0  0  0  0
    4.3399    2.5160    0.0000 C   0  0  0  0  0  0  0  0  0  0  0  0
   12.1886   -4.0148    0.0000 C   0  0  0  0  0  0  0  0  0  0  0  0
   13.0546   -2.5148    0.0000 C   0  0  0  0  0  0  0  0  0  0  0  0
   13.1168   -0.5389    0.0000 C   0  0  0  0  0  0  0  0  0  0  0  0
   13.9886    0.9578    0.0000 C   0  0  0  0  0  0  0  0  0  0  0  0
   13.0546   -3.5148    0.0000 C   0  0  0  0  0  0  0  0  0  0  0  0
    6.0758    3.5094    0.0000 C   0  0  0  0  0  0  0  0  0  0  0  0
    4.3438    3.5160    0.0000 C   0  0  0  0  0  0  0  0  0  0  0  0
    5.2117    4.0127    0.0000 C   0  0  0  0  0  0  0  0  0  0  0  0
   13.9809   -1.0422    0.0000 C   0  0  0  0  0  0  0  0  0  0  0  0
   14.8527    0.4544    0.0000 C   0  0  0  0  0  0  0  0  0  0  0  0
   14.8489   -0.5456    0.0000 C   0  0  0  0  0  0  0  0  0  0  0  0
   10.3267   -0.0898    0.0000 H   0  0  0  0  0  0  0  0  0  0  0  0
   10.9935   -1.3248    0.0000 H   0  0  0  0  0  0  0  0  0  0  0  0
    6.7982   -0.0684    0.0000 H   0  0  0  0  0  0  0  0  0  0  0  0
   10.4566   -2.6348    0.0000 H   0  0  0  0  0  0  0  0  0  0  0  0
    6.6625    0.3466    0.0000 H   0  0  0  0  0  0  0  0  0  0  0  0
    5.7383    1.3207    0.0000 H   0  0  0  0  0  0  0  0  0  0  0  0
   11.7441    2.9989    0.0000 H   0  0  0  0  0  0  0  0  0  0  0  0
   10.9459    2.9897    0.0000 H   0  0  0  0  0  0  0  0  0  0  0  0
    7.8377   -3.1694    0.0000 H   0  0  0  0  0  0  0  0  0  0  0  0
   12.7941    1.6971    0.0000 H   0  0  0  0  0  0  0  0  0  0  0  0
   12.2530    0.3444    0.0000 H   0  0  0  0  0  0  0  0  0  0  0  0
   11.8595   -0.8248    0.0000 H   0  0  0  0  0  0  0  0  0  0  0  0
    8.1876    2.2952    0.0000 H   0  0  0  0  0  0  0  0  0  0  0  0
    6.2597    1.9116    0.0000 H   0  0  0  0  0  0  0  0  0  0  0  0
    8.9525   -0.1255    0.0000 H   0  0  0  0  0  0  0  0  0  0  0  0
   10.7857   -3.8248    0.0000 H   0  0  0  0  0  0  0  0  0  0  0  0
    2.8843   -0.6690    0.0000 H   0  0  0  0  0  0  0  0  0  0  0  0
   12.1886   -1.3948    0.0000 H   0  0  0  0  0  0  0  0  0  0  0  0
    4.3044   -3.1731    0.0000 H   0  0  0  0  0  0  0  0  0  0  0  0
    6.9864   -3.4500    0.0000 H   0  0  0  0  0  0  0  0  0  0  0  0
    6.6077    2.1973    0.0000 H   0  0  0  0  0  0  0  0  0  0  0  0
    3.8018    2.2081    0.0000 H   0  0  0  0  0  0  0  0  0  0  0  0
   13.1183    3.1294    0.0000 H   0  0  0  0  0  0  0  0  0  0  0  0
    7.4146    1.5223    0.0000 H   0  0  0  0  0  0  0  0  0  0  0  0
   13.5916   -2.2048    0.0000 H   0  0  0  0  0  0  0  0  0  0  0  0
   12.5787   -0.8468    0.0000 H   0  0  0  0  0  0  0  0  0  0  0  0
   13.9910    1.5778    0.0000 H   0  0  0  0  0  0  0  0  0  0  0  0
   10.1275    3.7952    0.0000 H   0  0  0  0  0  0  0  0  0  0  0  0
    5.1589   -3.4439    0.0000 H   0  0  0  0  0  0  0  0  0  0  0  0
    3.8081    3.8281    0.0000 H   0  0  0  0  0  0  0  0  0  0  0  0
   15.3908    0.7623    0.0000 H   0  0  0  0  0  0  0  0  0  0  0  0
    2.0000   -2.2080    0.0000 H   0  0  0  0  0  0  0  0  0  0  0  0
   12.7256   -5.3248    0.0000 H   0  0  0  0  0  0  0  0  0  0  0  0
   14.4576   -3.7048    0.0000 H   0  0  0  0  0  0  0  0  0  0  0  0
    6.9462    4.6260    0.0000 H   0  0  0  0  0  0  0  0  0  0  0  0
    4.6799    5.3248    0.0000 H   0  0  0  0  0  0  0  0  0  0  0  0
   14.5128   -2.3543    0.0000 H   0  0  0  0  0  0  0  0  0  0  0  0
   16.2511   -0.7410    0.0000 H   0  0  0  0  0  0  0  0  0  0  0  0
  1 23  1  0  0  0  0
  1 27  1  0  0  0  0
  2 29  1  0  0  0  0
  2 37  1  0  0  0  0
  3 75  1  0  0  0  0
  4 30  1  0  0  0  0
  4 40  1  0  0  0  0
  5 77  1  0  0  0  0
  6 28  1  0  0  0  0
  6 78  1  0  0  0  0
  7 33  1  0  0  0  0
  7 83  1  0  0  0  0
  8 86  1  0  0  0  0
  9 39  1  0  0  0  0
  9 87  1  0  0  0  0
 10 41  1  0  0  0  0
 10 91  1  0  0  0  0
 11 44  1  0  0  0  0
 11 92  1  0  0  0  0
 12 50  1  0  0  0  0
 12 95  1  0  0  0  0
 13 53  1  0  0  0  0
 13 96  1  0  0  0  0
 14 57  1  0  0  0  0
 14 97  1  0  0  0  0
 15 58  1  0  0  0  0
 15 98  1  0  0  0  0
 16 60  1  0  0  0  0
 16 99  1  0  0  0  0
 17 61  1  0  0  0  0
 17100  1  0  0  0  0
 18 63  1  0  0  0  0
 18101  1  0  0  0  0
 19 20  1  6  0  0  0
 19 21  1  0  0  0  0
 19 24  1  0  0  0  0
 19 64  1  0  0  0  0
 20  3  1  0  0  0  0
 20 23  1  1  0  0  0
 20 65  1  0  0  0  0
 21 27  2  0  0  0  0
 21 28  1  0  0  0  0
 22 25  1  0  0  0  0
 22 26  1  1  0  0  0
 22 31  1  0  0  0  0
 22 66  1  0  0  0  0
 23 38  1  0  0  0  0
 23 67  1  6  0  0  0
 24 29  1  0  0  0  0
 24 39  2  0  0  0  0
 25 28  2  0  0  0  0
 25 33  1  0  0  0  0
 26  5  1  0  0  0  0
 26 30  1  1  0  0  0
 26 68  1  0  0  0  0
 27 35  1  0  0  0  0
 29 32  2  0  0  0  0
 30 42  1  0  0  0  0
 30 69  1  1  0  0  0
 31 40  1  0  0  0  0
 31 44  2  0  0  0  0
 32 34  1  0  0  0  0
 32 41  1  0  0  0  0
 33 35  2  0  0  0  0
 34 36  1  0  0  0  0
 34 70  1  0  0  0  0
 34 71  1  0  0  0  0
 35 72  1  0  0  0  0
 36  8  1  0  0  0  0
 36 37  1  1  0  0  0
 36 73  1  0  0  0  0
 37 45  1  0  0  0  0
 37 74  1  6  0  0  0
 38 46  2  0  0  0  0
 38 48  1  0  0  0  0
 39 43  1  0  0  0  0
 40 47  2  0  0  0  0
 41 43  2  0  0  0  0
 42 51  2  0  0  0  0
 42 52  1  0  0  0  0
 43 76  1  0  0  0  0
 44 49  1  0  0  0  0
 45 55  2  0  0  0  0
 45 56  1  0  0  0  0
 46 53  1  0  0  0  0
 46 79  1  0  0  0  0
 47 50  1  0  0  0  0
 47 80  1  0  0  0  0
 48 54  2  0  0  0  0
 48 81  1  0  0  0  0
 49 50  2  0  0  0  0
 49 82  1  0  0  0  0
 51 58  1  0  0  0  0
 51 84  1  0  0  0  0
 52 59  2  0  0  0  0
 52 85  1  0  0  0  0
 53 57  2  0  0  0  0
 54 57  1  0  0  0  0
 54 88  1  0  0  0  0
 55 61  1  0  0  0  0
 55 89  1  0  0  0  0
 56 62  2  0  0  0  0
 56 90  1  0  0  0  0
 58 60  2  0  0  0  0
 59 60  1  0  0  0  0
 59 93  1  0  0  0  0
 61 63  2  0  0  0  0
 62 63  1  0  0  0  0
 62 94  1  0  0  0  0
M  END
>  <PUBCHEM_COMPOUND_CID>
10865804

>  <PUBCHEM_COMPOUND_CANONICALIZED>
1

>  <PUBCHEM_CACTVS_COMPLEXITY>
1550

>  <PUBCHEM_CACTVS_HBOND_ACCEPTOR>
18

>  <PUBCHEM_CACTVS_HBOND_DONOR>
15

>  <PUBCHEM_CACTVS_ROTATABLE_BOND>
5

>  <PUBCHEM_CACTVS_SUBSKEYS>
AAADcfB8PgAAAAAAAAAAAAAAAAAAAAAAAAA0aNGDAAAAAACRVAAAGgAACAAADRSgmAIwBoAABgCAAiBCAAACCAAgIAAIiAAGiIgNNyKGMRqCeCGlwBULuAfA4PwOoAADCAAIQABAAAYQABCAAAAAAAAAAA==

>  <PUBCHEM_IUPAC_OPENEYE_NAME>
(2R,3R,4R)-2-(3,4-dihydroxyphenyl)-4-[(2R,3R)-2-(3,4-dihydroxyphenyl)-3,5,7-trihydroxy-chroman-8-yl]-6-[(2R,3R,4S)-2-(3,4-dihydroxyphenyl)-3,5,7-trihydroxy-chroman-4-yl]chromane-3,5,7-triol

>  <PUBCHEM_IUPAC_CAS_NAME>
(2R,3R,4R)-2-(3,4-dihydroxyphenyl)-4-[(2R,3R)-2-(3,4-dihydroxyphenyl)-3,5,7-trihydroxy-3,4-dihydro-2H-1-benzopyran-8-yl]-6-[(2R,3R,4S)-2-(3,4-dihydroxyphenyl)-3,5,7-trihydroxy-3,4-dihydro-2H-1-benzopyran-4-yl]-3,4-dihydro-2H-1-benzopyran-3,5,7-triol

>  <PUBCHEM_IUPAC_NAME>
(2R,3R,4R)-2-(3,4-dihydroxyphenyl)-4-[(2R,3R)-2-(3,4-dihydroxyphenyl)-3,5,7-trihydroxy-3,4-dihydro-2H-chromen-8-yl]-6-[(2R,3R,4S)-2-(3,4-dihydroxyphenyl)-3,5,7-trihydroxy-3,4-dihydro-2H-chromen-4-yl]-3,4-dihydro-2H-chromene-3,5,7-triol

>  <PUBCHEM_IUPAC_SYSTEMATIC_NAME>
(2R,3R,4R)-2-[3,4-bis(oxidanyl)phenyl]-4-[(2R,3R)-2-[3,4-bis(oxidanyl)phenyl]-3,5,7-tris(oxidanyl)-3,4-dihydro-2H-chromen-8-yl]-6-[(2R,3R,4S)-2-[3,4-bis(oxidanyl)phenyl]-3,5,7-tris(oxidanyl)-3,4-dihydro-2H-chromen-4-yl]-3,4-dihydro-2H-chromene-3,5,7-triol

>  <PUBCHEM_IUPAC_TRADITIONAL_NAME>
(2R,3R,4R)-2-(3,4-dihydroxyphenyl)-4-[(2R,3R)-2-(3,4-dihydroxyphenyl)-3,5,7-trihydroxy-chroman-8-yl]-6-[(2R,3R,4S)-2-(3,4-dihydroxyphenyl)-3,5,7-trihydroxy-chroman-4-yl]chroman-3,5,7-triol

>  <PUBCHEM_IUPAC_INCHI>
InChI=1S/C45H38O18/c46-18-10-27(54)33-31(11-18)61-43(16-2-5-21(48)25(52)8-16)40(59)37(33)34-29(56)14-32-36(39(34)58)38(41(60)44(62-32)17-3-6-22(49)26(53)9-17)35-28(55)13-23(50)19-12-30(57)42(63-45(19)35)15-1-4-20(47)24(51)7-15/h1-11,13-14,30,37-38,40-44,46-60H,12H2/t30-,37-,38+,40-,41-,42-,43-,44-/m1/s1

>  <PUBCHEM_IUPAC_INCHIKEY>
SXEONTJNLWOUBB-KCXYZFMFSA-N

>  <PUBCHEM_XLOGP3_AA>
3.3

>  <PUBCHEM_EXACT_MASS>
866.206

>  <PUBCHEM_MOLECULAR_FORMULA>
C45H38O18

>  <PUBCHEM_MOLECULAR_WEIGHT>
866.781

>  <PUBCHEM_OPENEYE_CAN_SMILES>
C1C(C(OC2=C1C(=CC(=C2C3C(C(OC4=CC(=C(C(=C34)O)C5C(C(OC6=CC(=CC(=C56)O)O)C7=CC(=C(C=C7)O)O)O)O)C8=CC(=C(C=C8)O)O)O)O)O)C9=CC(=C(C=C9)O)O)O

>  <PUBCHEM_OPENEYE_ISO_SMILES>
C1[C@H]([C@H](OC2=C1C(=CC(=C2[C@@H]3[C@H]([C@H](OC4=CC(=C(C(=C34)O)[C@@H]5[C@H]([C@H](OC6=CC(=CC(=C56)O)O)C7=CC(=C(C=C7)O)O)O)O)C8=CC(=C(C=C8)O)O)O)O)O)C9=CC(=C(C=C9)O)O)O

>  <PUBCHEM_CACTVS_TPSA>
331

>  <PUBCHEM_MONOISOTOPIC_WEIGHT>
866.206

>  <PUBCHEM_TOTAL_CHARGE>
0

>  <PUBCHEM_HEAVY_ATOM_COUNT>
63

>  <PUBCHEM_ATOM_DEF_STEREO_COUNT>
8

>  <PUBCHEM_ATOM_UDEF_STEREO_COUNT>
0

>  <PUBCHEM_BOND_DEF_STEREO_COUNT>
0

>  <PUBCHEM_BOND_UDEF_STEREO_COUNT>
0

>  <PUBCHEM_ISOTOPIC_ATOM_COUNT>
0

>  <PUBCHEM_COMPONENT_COUNT>
1

>  <PUBCHEM_CACTVS_TAUTO_COUNT>
938

>  <PUBCHEM_COORDINATE_TYPE>
1
5
255

>  <PUBCHEM_BONDANNOTATIONS>
19  64  5
21  27  8
21  28  8
22  66  6
23  38  5
24  29  8
24  39  8
25  28  8
25  33  8
27  35  8
29  32  8
20  3  5
30  42  6
31  40  8
31  44  8
32  41  8
33  35  8
37  45  5
38  46  8
38  48  8
39  43  8
40  47  8
41  43  8
42  51  8
42  52  8
44  49  8
45  55  8
45  56  8
46  53  8
47  50  8
48  54  8
49  50  8
26  5  6
51  58  8
52  59  8
53  57  8
54  57  8
55  61  8
56  62  8
58  60  8
59  60  8
61  63  8
62  63  8
36  8  5

$$$$
