10879760
 OpenBabel06101807152D

 33 34  0  0  0  0  0  0  0  0999 V2000
    4.2690   -2.3100    0.0000 O   0  0  0  0  0  0  0  0  0  0  0  0
    2.5369   -1.3100    0.0000 O   0  0  0  0  0  0  0  0  0  0  0  0
    8.5991    2.1900    0.0000 O   0  0  0  0  0  0  0  0  0  0  0  0
    6.8671   -0.8100    0.0000 O   0  0  0  0  0  0  0  0  0  0  0  0
    4.2690    0.6900    0.0000 C   0  0  0  0  0  0  0  0  0  0  0  0
    6.0010    1.6900    0.0000 C   0  0  0  0  0  0  0  0  0  0  0  0
    4.2690    1.6900    0.0000 C   0  0  0  0  0  0  0  0  0  0  0  0
    3.4030    0.1900    0.0000 C   0  0  0  0  0  0  0  0  0  0  0  0
    5.1350    2.1900    0.0000 C   0  0  0  0  0  0  0  0  0  0  0  0
    5.1350    0.1900    0.0000 C   0  0  0  0  0  0  0  0  0  0  0  0
    3.4030   -0.8100    0.0000 C   0  0  0  0  0  0  0  0  0  0  0  0
    4.2690   -1.3100    0.0000 C   0  0  0  0  0  0  0  0  0  0  0  0
    5.1350   -0.8100    0.0000 C   0  0  0  0  0  0  0  0  0  0  0  0
    6.0010    0.6900    0.0000 C   0  0  0  0  0  0  0  0  0  0  0  0
    6.8671    2.1900    0.0000 C   0  0  0  0  0  0  0  0  0  0  0  0
    7.7331    1.6900    0.0000 C   0  0  0  0  0  0  0  0  0  0  0  0
    6.8671    0.1900    0.0000 C   0  0  0  0  0  0  0  0  0  0  0  0
    7.7331    0.6900    0.0000 C   0  0  0  0  0  0  0  0  0  0  0  0
    5.1350   -2.8100    0.0000 C   0  0  0  0  0  0  0  0  0  0  0  0
    3.7320    2.0000    0.0000 H   0  0  0  0  0  0  0  0  0  0  0  0
    2.8660    0.5000    0.0000 H   0  0  0  0  0  0  0  0  0  0  0  0
    5.1350    2.8100    0.0000 H   0  0  0  0  0  0  0  0  0  0  0  0
    5.6720    0.5000    0.0000 H   0  0  0  0  0  0  0  0  0  0  0  0
    5.6720   -1.1200    0.0000 H   0  0  0  0  0  0  0  0  0  0  0  0
    5.4641    0.3800    0.0000 H   0  0  0  0  0  0  0  0  0  0  0  0
    6.8671    2.8100    0.0000 H   0  0  0  0  0  0  0  0  0  0  0  0
    8.2700    0.3800    0.0000 H   0  0  0  0  0  0  0  0  0  0  0  0
    2.0000   -1.0000    0.0000 H   0  0  0  0  0  0  0  0  0  0  0  0
    4.8250   -3.3469    0.0000 H   0  0  0  0  0  0  0  0  0  0  0  0
    5.6720   -3.1200    0.0000 H   0  0  0  0  0  0  0  0  0  0  0  0
    5.4450   -2.2731    0.0000 H   0  0  0  0  0  0  0  0  0  0  0  0
    9.1360    1.8800    0.0000 H   0  0  0  0  0  0  0  0  0  0  0  0
    7.4040   -1.1200    0.0000 H   0  0  0  0  0  0  0  0  0  0  0  0
  1 12  1  0  0  0  0
  1 19  1  0  0  0  0
  2 11  1  0  0  0  0
  2 28  1  0  0  0  0
  3 16  1  0  0  0  0
  3 32  1  0  0  0  0
  4 17  1  0  0  0  0
  4 33  1  0  0  0  0
  5  7  1  0  0  0  0
  5  8  2  0  0  0  0
  5 10  1  0  0  0  0
  6  9  1  0  0  0  0
  6 14  2  0  0  0  0
  6 15  1  0  0  0  0
  7  9  2  0  0  0  0
  7 20  1  0  0  0  0
  8 11  1  0  0  0  0
  8 21  1  0  0  0  0
  9 22  1  0  0  0  0
 10 13  2  0  0  0  0
 10 23  1  0  0  0  0
 11 12  2  0  0  0  0
 12 13  1  0  0  0  0
 13 24  1  0  0  0  0
 14 17  1  0  0  0  0
 14 25  1  0  0  0  0
 15 16  2  0  0  0  0
 15 26  1  0  0  0  0
 16 18  1  0  0  0  0
 17 18  2  0  0  0  0
 18 27  1  0  0  0  0
 19 29  1  0  0  0  0
 19 30  1  0  0  0  0
 19 31  1  0  0  0  0
M  END
>  <PUBCHEM_COMPOUND_CID>
10879760

>  <PUBCHEM_COMPOUND_CANONICALIZED>
1

>  <PUBCHEM_CACTVS_COMPLEXITY>
295

>  <PUBCHEM_CACTVS_HBOND_ACCEPTOR>
4

>  <PUBCHEM_CACTVS_HBOND_DONOR>
3

>  <PUBCHEM_CACTVS_ROTATABLE_BOND>
3

>  <PUBCHEM_CACTVS_SUBSKEYS>
AAADccBwOAAAAAAAAAAAAAAAAAAAAAAAAAAwYAAAAAAAAAABQAAAGgAACAAADASAmAIyBoAABgCAAiBCAAACCAAgIAAIiAAGiIgNJyKGMRqAcCMlwBULuAeA4BQOIAABCAAAQABAAAIQAACAAAAAAAAAAA==

>  <PUBCHEM_IUPAC_OPENEYE_NAME>
5-[(Z)-2-(3-hydroxy-4-methoxy-phenyl)vinyl]benzene-1,3-diol

>  <PUBCHEM_IUPAC_CAS_NAME>
5-[(Z)-2-(3-hydroxy-4-methoxyphenyl)ethenyl]benzene-1,3-diol

>  <PUBCHEM_IUPAC_NAME>
5-[(Z)-2-(3-hydroxy-4-methoxyphenyl)ethenyl]benzene-1,3-diol

>  <PUBCHEM_IUPAC_SYSTEMATIC_NAME>
5-[(Z)-2-(4-methoxy-3-oxidanyl-phenyl)ethenyl]benzene-1,3-diol

>  <PUBCHEM_IUPAC_TRADITIONAL_NAME>
5-[(Z)-2-(3-hydroxy-4-methoxy-phenyl)vinyl]resorcinol

>  <PUBCHEM_IUPAC_INCHI>
InChI=1S/C15H14O4/c1-19-15-5-4-10(8-14(15)18)2-3-11-6-12(16)9-13(17)7-11/h2-9,16-18H,1H3/b3-2-

>  <PUBCHEM_IUPAC_INCHIKEY>
PHMHDRYYFAYWEG-IHWYPQMZSA-N

>  <PUBCHEM_XLOGP3_AA>
3.1

>  <PUBCHEM_EXACT_MASS>
258.089

>  <PUBCHEM_MOLECULAR_FORMULA>
C15H14O4

>  <PUBCHEM_MOLECULAR_WEIGHT>
258.273

>  <PUBCHEM_OPENEYE_CAN_SMILES>
COC1=C(C=C(C=C1)C=CC2=CC(=CC(=C2)O)O)O

>  <PUBCHEM_OPENEYE_ISO_SMILES>
COC1=C(C=C(C=C1)/C=C\C2=CC(=CC(=C2)O)O)O

>  <PUBCHEM_CACTVS_TPSA>
69.9

>  <PUBCHEM_MONOISOTOPIC_WEIGHT>
258.089

>  <PUBCHEM_TOTAL_CHARGE>
0

>  <PUBCHEM_HEAVY_ATOM_COUNT>
19

>  <PUBCHEM_ATOM_DEF_STEREO_COUNT>
0

>  <PUBCHEM_ATOM_UDEF_STEREO_COUNT>
0

>  <PUBCHEM_BOND_DEF_STEREO_COUNT>
1

>  <PUBCHEM_BOND_UDEF_STEREO_COUNT>
0

>  <PUBCHEM_ISOTOPIC_ATOM_COUNT>
0

>  <PUBCHEM_COMPONENT_COUNT>
1

>  <PUBCHEM_CACTVS_TAUTO_COUNT>
15

>  <PUBCHEM_COORDINATE_TYPE>
1
5
255

>  <PUBCHEM_BONDANNOTATIONS>
10  13  8
11  12  8
12  13  8
14  17  8
15  16  8
16  18  8
17  18  8
5  10  8
5  8  8
6  14  8
6  15  8
8  11  8

$$$$
