10874207
 OpenBabel06101807152D

 62 66  0  0  0  0  0  0  0  0999 V2000
   11.1382    0.2259    0.0000 O   0  0  0  0  0  0  0  0  0  0  0  0
    7.5410   -1.8518    0.0000 O   0  0  0  0  0  0  0  0  0  0  0  0
    3.9438   -1.9296    0.0000 O   0  0  0  0  0  0  0  0  0  0  0  0
    9.2894   -2.8864    0.0000 O   0  0  0  0  0  0  0  0  0  0  0  0
    5.7926    1.1827    0.0000 O   0  0  0  0  0  0  0  0  0  0  0  0
    7.5410    1.1482    0.0000 O   0  0  0  0  0  0  0  0  0  0  0  0
   12.0820   -0.3094    0.0000 C   0  0  0  0  0  0  0  0  0  0  0  0
    9.3009    0.1828    0.0000 C   0  0  0  0  0  0  0  0  0  0  0  0
   10.2070   -0.3310    0.0000 C   0  0  0  0  0  0  0  0  0  0  0  0
    8.4070   -0.3519    0.0000 C   0  0  0  0  0  0  0  0  0  0  0  0
   10.2070   -1.3727    0.0000 C   0  0  0  0  0  0  0  0  0  0  0  0
    8.4070   -1.3518    0.0000 C   0  0  0  0  0  0  0  0  0  0  0  0
    6.6750   -0.3519    0.0000 C   0  0  0  0  0  0  0  0  0  0  0  0
    3.0000   -1.3944    0.0000 C   0  0  0  0  0  0  0  0  0  0  0  0
    9.3009   -1.8865    0.0000 C   0  0  0  0  0  0  0  0  0  0  0  0
    7.5410    0.1481    0.0000 C   0  0  0  0  0  0  0  0  0  0  0  0
    6.6750   -1.3518    0.0000 C   0  0  0  0  0  0  0  0  0  0  0  0
   12.0820   -1.3944    0.0000 C   0  0  0  0  0  0  0  0  0  0  0  0
    9.2894    1.1827    0.0000 C   0  0  0  0  0  0  0  0  0  0  0  0
    4.8749   -0.3310    0.0000 C   0  0  0  0  0  0  0  0  0  0  0  0
   11.1382   -1.9296    0.0000 C   0  0  0  0  0  0  0  0  0  0  0  0
    4.8749   -1.3727    0.0000 C   0  0  0  0  0  0  0  0  0  0  0  0
    5.7810    0.1828    0.0000 C   0  0  0  0  0  0  0  0  0  0  0  0
   13.0819   -0.3055    0.0000 C   0  0  0  0  0  0  0  0  0  0  0  0
   12.5786    0.5586    0.0000 C   0  0  0  0  0  0  0  0  0  0  0  0
    5.7810   -1.8865    0.0000 C   0  0  0  0  0  0  0  0  0  0  0  0
    3.0000   -0.3094    0.0000 C   0  0  0  0  0  0  0  0  0  0  0  0
    3.9438    0.2259    0.0000 C   0  0  0  0  0  0  0  0  0  0  0  0
    2.0000   -1.3982    0.0000 C   0  0  0  0  0  0  0  0  0  0  0  0
    2.5033   -2.2623    0.0000 C   0  0  0  0  0  0  0  0  0  0  0  0
   10.1496    1.6927    0.0000 C   0  0  0  0  0  0  0  0  0  0  0  0
   10.1380    2.6927    0.0000 C   0  0  0  0  0  0  0  0  0  0  0  0
   10.9982    3.2026    0.0000 C   0  0  0  0  0  0  0  0  0  0  0  0
    9.2662    3.1826    0.0000 C   0  0  0  0  0  0  0  0  0  0  0  0
   12.6177   -1.7064    0.0000 H   0  0  0  0  0  0  0  0  0  0  0  0
    9.0706    1.7629    0.0000 H   0  0  0  0  0  0  0  0  0  0  0  0
    8.6801    1.0680    0.0000 H   0  0  0  0  0  0  0  0  0  0  0  0
   11.1310   -2.5496    0.0000 H   0  0  0  0  0  0  0  0  0  0  0  0
   13.1167    0.2507    0.0000 H   0  0  0  0  0  0  0  0  0  0  0  0
   13.0843   -0.9255    0.0000 H   0  0  0  0  0  0  0  0  0  0  0  0
   13.7019   -0.3031    0.0000 H   0  0  0  0  0  0  0  0  0  0  0  0
   13.0796    0.3145    0.0000 H   0  0  0  0  0  0  0  0  0  0  0  0
   12.8865    1.0967    0.0000 H   0  0  0  0  0  0  0  0  0  0  0  0
   12.0405    0.8665    0.0000 H   0  0  0  0  0  0  0  0  0  0  0  0
    5.7882   -2.5065    0.0000 H   0  0  0  0  0  0  0  0  0  0  0  0
    2.4643    0.0027    0.0000 H   0  0  0  0  0  0  0  0  0  0  0  0
    3.9510    0.8458    0.0000 H   0  0  0  0  0  0  0  0  0  0  0  0
    1.9976   -0.7782    0.0000 H   0  0  0  0  0  0  0  0  0  0  0  0
    1.3800   -1.4006    0.0000 H   0  0  0  0  0  0  0  0  0  0  0  0
    2.0024   -2.0182    0.0000 H   0  0  0  0  0  0  0  0  0  0  0  0
    1.9652   -1.9544    0.0000 H   0  0  0  0  0  0  0  0  0  0  0  0
    2.1954   -2.8004    0.0000 H   0  0  0  0  0  0  0  0  0  0  0  0
    3.0415   -2.5702    0.0000 H   0  0  0  0  0  0  0  0  0  0  0  0
   10.6900    1.3889    0.0000 H   0  0  0  0  0  0  0  0  0  0  0  0
    9.8227   -3.2026    0.0000 H   0  0  0  0  0  0  0  0  0  0  0  0
    5.2592    1.4989    0.0000 H   0  0  0  0  0  0  0  0  0  0  0  0
   11.3144    2.6693    0.0000 H   0  0  0  0  0  0  0  0  0  0  0  0
    9.5700    3.7231    0.0000 H   0  0  0  0  0  0  0  0  0  0  0  0
    8.7258    3.4864    0.0000 H   0  0  0  0  0  0  0  0  0  0  0  0
    8.9625    2.6421    0.0000 H   0  0  0  0  0  0  0  0  0  0  0  0
   11.5315    3.5188    0.0000 H   0  0  0  0  0  0  0  0  0  0  0  0
   10.6820    3.7360    0.0000 H   0  0  0  0  0  0  0  0  0  0  0  0
  1  7  1  0  0  0  0
  1  9  1  0  0  0  0
  2 12  1  0  0  0  0
  2 17  1  0  0  0  0
  3 14  1  0  0  0  0
  3 22  1  0  0  0  0
  4 15  1  0  0  0  0
  4 55  1  0  0  0  0
  5 23  1  0  0  0  0
  5 56  1  0  0  0  0
  6 16  2  0  0  0  0
  7 18  1  0  0  0  0
  7 24  1  0  0  0  0
  7 25  1  0  0  0  0
  8  9  2  0  0  0  0
  8 10  1  0  0  0  0
  8 19  1  0  0  0  0
  9 11  1  0  0  0  0
 10 12  2  0  0  0  0
 10 16  1  0  0  0  0
 11 15  2  0  0  0  0
 11 21  1  0  0  0  0
 12 15  1  0  0  0  0
 13 16  1  0  0  0  0
 13 17  1  0  0  0  0
 13 23  2  0  0  0  0
 14 27  1  0  0  0  0
 14 29  1  0  0  0  0
 14 30  1  0  0  0  0
 17 26  2  0  0  0  0
 18 21  2  0  0  0  0
 18 35  1  0  0  0  0
 19 31  1  0  0  0  0
 19 36  1  0  0  0  0
 19 37  1  0  0  0  0
 20 22  2  0  0  0  0
 20 23  1  0  0  0  0
 20 28  1  0  0  0  0
 21 38  1  0  0  0  0
 22 26  1  0  0  0  0
 24 40  1  0  0  0  0
 24 41  1  0  0  0  0
 24 42  1  0  0  0  0
 25 39  1  0  0  0  0
 25 43  1  0  0  0  0
 25 44  1  0  0  0  0
 26 45  1  0  0  0  0
 27 28  2  0  0  0  0
 27 46  1  0  0  0  0
 28 47  1  0  0  0  0
 29 48  1  0  0  0  0
 29 49  1  0  0  0  0
 29 50  1  0  0  0  0
 30 51  1  0  0  0  0
 30 52  1  0  0  0  0
 30 53  1  0  0  0  0
 31 32  2  0  0  0  0
 31 54  1  0  0  0  0
 32 33  1  0  0  0  0
 32 34  1  0  0  0  0
 33 57  1  0  0  0  0
 33 61  1  0  0  0  0
 33 62  1  0  0  0  0
 34 58  1  0  0  0  0
 34 59  1  0  0  0  0
 34 60  1  0  0  0  0
M  END
>  <PUBCHEM_COMPOUND_CID>
10874207

>  <PUBCHEM_COMPOUND_CANONICALIZED>
1

>  <PUBCHEM_CACTVS_COMPLEXITY>
912

>  <PUBCHEM_CACTVS_HBOND_ACCEPTOR>
6

>  <PUBCHEM_CACTVS_HBOND_DONOR>
2

>  <PUBCHEM_CACTVS_ROTATABLE_BOND>
2

>  <PUBCHEM_CACTVS_SUBSKEYS>
AAADceB4OAAAAAAAAAAAAAAAAAAAAAAAAAA0YIECAAAAAACRQAAAGgAACAAADESAmAAyBoAABgCIAqBSAAACCAAkIAAIiAEGiMgNJzaGNRqCeWOl4BULuQfK7PzO4QADCAAYQADCAAYQADCAAAAAAAAAAA==

>  <PUBCHEM_IUPAC_INCHI>
InChI=1S/C28H28O6/c1-14(2)7-8-16-20-24(31)21-19(13-18-15(22(21)29)9-11-27(3,4)33-18)32-26(20)23(30)17-10-12-28(5,6)34-25(16)17/h7,9-13,29-30H,8H2,1-6H3

>  <PUBCHEM_IUPAC_INCHIKEY>
SSITWAPGVBPANU-UHFFFAOYSA-N

>  <PUBCHEM_XLOGP3_AA>
6.6

>  <PUBCHEM_EXACT_MASS>
460.189

>  <PUBCHEM_MOLECULAR_FORMULA>
C28H28O6

>  <PUBCHEM_MOLECULAR_WEIGHT>
460.526

>  <PUBCHEM_OPENEYE_CAN_SMILES>
CC(=CCC1=C2C(=C(C3=C1OC(C=C3)(C)C)O)OC4=CC5=C(C=CC(O5)(C)C)C(=C4C2=O)O)C

>  <PUBCHEM_OPENEYE_ISO_SMILES>
CC(=CCC1=C2C(=C(C3=C1OC(C=C3)(C)C)O)OC4=CC5=C(C=CC(O5)(C)C)C(=C4C2=O)O)C

>  <PUBCHEM_CACTVS_TPSA>
85.2

>  <PUBCHEM_MONOISOTOPIC_WEIGHT>
460.189

>  <PUBCHEM_TOTAL_CHARGE>
0

>  <PUBCHEM_HEAVY_ATOM_COUNT>
34

>  <PUBCHEM_ATOM_DEF_STEREO_COUNT>
0

>  <PUBCHEM_ATOM_UDEF_STEREO_COUNT>
0

>  <PUBCHEM_BOND_DEF_STEREO_COUNT>
0

>  <PUBCHEM_BOND_UDEF_STEREO_COUNT>
0

>  <PUBCHEM_ISOTOPIC_ATOM_COUNT>
0

>  <PUBCHEM_COMPONENT_COUNT>
1

>  <PUBCHEM_CACTVS_TAUTO_COUNT>
5

>  <PUBCHEM_COORDINATE_TYPE>
1
5
255

>  <PUBCHEM_BONDANNOTATIONS>
10  12  8
10  16  8
11  15  8
12  15  8
13  16  8
13  17  8
13  23  8
17  26  8
2  12  8
2  17  8
20  22  8
20  23  8
22  26  8
8  10  8
8  9  8
9  11  8

$$$$
