10878174
 OpenBabel06101807152D

 31 32  0  0  0  0  0  0  0  0999 V2000
    6.3961    1.2741    0.0000 O   0  0  0  0  0  0  0  0  0  0  0  0
    2.8660   -1.7500    0.0000 C   0  0  0  0  0  0  0  0  0  0  0  0
    2.8660   -0.7500    0.0000 C   0  0  0  0  0  0  0  0  0  0  0  0
    3.7320   -0.2500    0.0000 C   0  0  0  0  0  0  0  0  0  0  0  0
    3.7320    0.7500    0.0000 C   0  0  0  0  0  0  0  0  0  0  0  0
    2.8660    1.2500    0.0000 C   0  0  0  0  0  0  0  0  0  0  0  0
    2.0000   -0.2500    0.0000 C   0  0  0  0  0  0  0  0  0  0  0  0
    2.0000   -2.2500    0.0000 C   0  0  0  0  0  0  0  0  0  0  0  0
    3.7320   -2.2500    0.0000 C   0  0  0  0  0  0  0  0  0  0  0  0
    2.0000    0.7500    0.0000 C   0  0  0  0  0  0  0  0  0  0  0  0
    4.6260   -0.7847    0.0000 C   0  0  0  0  0  0  0  0  0  0  0  0
    4.6260    1.2847    0.0000 C   0  0  0  0  0  0  0  0  0  0  0  0
    2.8660    2.2500    0.0000 C   0  0  0  0  0  0  0  0  0  0  0  0
    5.5321   -0.2708    0.0000 C   0  0  0  0  0  0  0  0  0  0  0  0
    5.5321    0.7708    0.0000 C   0  0  0  0  0  0  0  0  0  0  0  0
    2.8660   -2.3700    0.0000 H   0  0  0  0  0  0  0  0  0  0  0  0
    1.4631   -0.5600    0.0000 H   0  0  0  0  0  0  0  0  0  0  0  0
    1.6900   -1.7131    0.0000 H   0  0  0  0  0  0  0  0  0  0  0  0
    1.4631   -2.5600    0.0000 H   0  0  0  0  0  0  0  0  0  0  0  0
    2.3100   -2.7869    0.0000 H   0  0  0  0  0  0  0  0  0  0  0  0
    3.4220   -2.7869    0.0000 H   0  0  0  0  0  0  0  0  0  0  0  0
    4.2690   -2.5600    0.0000 H   0  0  0  0  0  0  0  0  0  0  0  0
    4.0420   -1.7131    0.0000 H   0  0  0  0  0  0  0  0  0  0  0  0
    1.4631    1.0600    0.0000 H   0  0  0  0  0  0  0  0  0  0  0  0
    4.6188   -1.4046    0.0000 H   0  0  0  0  0  0  0  0  0  0  0  0
    4.6188    1.9046    0.0000 H   0  0  0  0  0  0  0  0  0  0  0  0
    3.4860    2.2500    0.0000 H   0  0  0  0  0  0  0  0  0  0  0  0
    2.8660    2.8700    0.0000 H   0  0  0  0  0  0  0  0  0  0  0  0
    2.2460    2.2500    0.0000 H   0  0  0  0  0  0  0  0  0  0  0  0
    6.0678   -0.5829    0.0000 H   0  0  0  0  0  0  0  0  0  0  0  0
    6.9343    0.9662    0.0000 H   0  0  0  0  0  0  0  0  0  0  0  0
  1 15  1  0  0  0  0
  1 31  1  0  0  0  0
  2  3  1  0  0  0  0
  2  8  1  0  0  0  0
  2  9  1  0  0  0  0
  2 16  1  0  0  0  0
  3  4  2  0  0  0  0
  3  7  1  0  0  0  0
  4  5  1  0  0  0  0
  4 11  1  0  0  0  0
  5  6  2  0  0  0  0
  5 12  1  0  0  0  0
  6 10  1  0  0  0  0
  6 13  1  0  0  0  0
  7 10  2  0  0  0  0
  7 17  1  0  0  0  0
  8 18  1  0  0  0  0
  8 19  1  0  0  0  0
  8 20  1  0  0  0  0
  9 21  1  0  0  0  0
  9 22  1  0  0  0  0
  9 23  1  0  0  0  0
 10 24  1  0  0  0  0
 11 14  2  0  0  0  0
 11 25  1  0  0  0  0
 12 15  2  0  0  0  0
 12 26  1  0  0  0  0
 13 27  1  0  0  0  0
 13 28  1  0  0  0  0
 13 29  1  0  0  0  0
 14 15  1  0  0  0  0
 14 30  1  0  0  0  0
M  END
>  <PUBCHEM_COMPOUND_CID>
10878174

>  <PUBCHEM_COMPOUND_CANONICALIZED>
1

>  <PUBCHEM_CACTVS_COMPLEXITY>
211

>  <PUBCHEM_CACTVS_HBOND_ACCEPTOR>
1

>  <PUBCHEM_CACTVS_HBOND_DONOR>
1

>  <PUBCHEM_CACTVS_ROTATABLE_BOND>
1

>  <PUBCHEM_CACTVS_SUBSKEYS>
AAADceBwIAAAAAAAAAAAAAAAAAAAAAAAAAAwYAAAAAAAAADBUAAAGgAACAAADQSAmAAyBsAAAgCAAiBCAAACAAAgIAAIiAAGCIgIJiKCERKAcAAkwBEImAeAwPAO4AADAAAQAADAAAYAACAAAAAAAAAAAA==

>  <PUBCHEM_IUPAC_OPENEYE_NAME>
5-isopropyl-8-methyl-naphthalen-2-ol

>  <PUBCHEM_IUPAC_CAS_NAME>
8-methyl-5-propan-2-yl-2-naphthalenol

>  <PUBCHEM_IUPAC_NAME>
8-methyl-5-propan-2-ylnaphthalen-2-ol

>  <PUBCHEM_IUPAC_SYSTEMATIC_NAME>
8-methyl-5-propan-2-yl-naphthalen-2-ol

>  <PUBCHEM_IUPAC_TRADITIONAL_NAME>
5-isopropyl-8-methyl-2-naphthol

>  <PUBCHEM_IUPAC_INCHI>
InChI=1S/C14H16O/c1-9(2)12-6-4-10(3)14-8-11(15)5-7-13(12)14/h4-9,15H,1-3H3

>  <PUBCHEM_IUPAC_INCHIKEY>
IUYVYWGWLYHKNT-UHFFFAOYSA-N

>  <PUBCHEM_XLOGP3_AA>
4.3

>  <PUBCHEM_EXACT_MASS>
200.12

>  <PUBCHEM_MOLECULAR_FORMULA>
C14H16O

>  <PUBCHEM_MOLECULAR_WEIGHT>
200.281

>  <PUBCHEM_OPENEYE_CAN_SMILES>
CC1=C2C=C(C=CC2=C(C=C1)C(C)C)O

>  <PUBCHEM_OPENEYE_ISO_SMILES>
CC1=C2C=C(C=CC2=C(C=C1)C(C)C)O

>  <PUBCHEM_CACTVS_TPSA>
20.2

>  <PUBCHEM_MONOISOTOPIC_WEIGHT>
200.12

>  <PUBCHEM_TOTAL_CHARGE>
0

>  <PUBCHEM_HEAVY_ATOM_COUNT>
15

>  <PUBCHEM_ATOM_DEF_STEREO_COUNT>
0

>  <PUBCHEM_ATOM_UDEF_STEREO_COUNT>
0

>  <PUBCHEM_BOND_DEF_STEREO_COUNT>
0

>  <PUBCHEM_BOND_UDEF_STEREO_COUNT>
0

>  <PUBCHEM_ISOTOPIC_ATOM_COUNT>
0

>  <PUBCHEM_COMPONENT_COUNT>
1

>  <PUBCHEM_CACTVS_TAUTO_COUNT>
18

>  <PUBCHEM_COORDINATE_TYPE>
1
5
255

>  <PUBCHEM_BONDANNOTATIONS>
11  14  8
12  15  8
14  15  8
3  4  8
3  7  8
4  11  8
4  5  8
5  12  8
5  6  8
6  10  8
7  10  8

$$$$
