10879399
 OpenBabel06101807152D

 32 33  0  0  0  0  0  0  0  0999 V2000
    8.6270   -1.9747    0.0000 O   0  0  0  0  0  0  0  0  0  0  0  0
    5.1350   -1.9400    0.0000 O   0  0  0  0  0  0  0  0  0  0  0  0
    2.5369    1.5600    0.0000 O   0  0  0  0  0  0  0  0  0  0  0  0
   10.3972   -1.9642    0.0000 O   0  0  0  0  0  0  0  0  0  0  0  0
    6.0010   -0.4400    0.0000 C   0  0  0  0  0  0  0  0  0  0  0  0
    5.1350    0.0600    0.0000 C   0  0  0  0  0  0  0  0  0  0  0  0
    7.7331   -0.4400    0.0000 C   0  0  0  0  0  0  0  0  0  0  0  0
    6.8671    0.0600    0.0000 C   0  0  0  0  0  0  0  0  0  0  0  0
    6.0010   -1.4400    0.0000 C   0  0  0  0  0  0  0  0  0  0  0  0
    7.7331   -1.4400    0.0000 C   0  0  0  0  0  0  0  0  0  0  0  0
    5.1350    1.0600    0.0000 C   0  0  0  0  0  0  0  0  0  0  0  0
    6.8671   -1.9400    0.0000 C   0  0  0  0  0  0  0  0  0  0  0  0
    4.2690    1.5600    0.0000 C   0  0  0  0  0  0  0  0  0  0  0  0
    8.6270    0.0947    0.0000 C   0  0  0  0  0  0  0  0  0  0  0  0
    3.4030    1.0600    0.0000 C   0  0  0  0  0  0  0  0  0  0  0  0
    4.2690    2.5600    0.0000 C   0  0  0  0  0  0  0  0  0  0  0  0
    9.5331   -0.4192    0.0000 C   0  0  0  0  0  0  0  0  0  0  0  0
    9.5331   -1.4608    0.0000 C   0  0  0  0  0  0  0  0  0  0  0  0
    4.5244    0.1677    0.0000 H   0  0  0  0  0  0  0  0  0  0  0  0
    4.9230   -0.5226    0.0000 H   0  0  0  0  0  0  0  0  0  0  0  0
    6.8671    0.6800    0.0000 H   0  0  0  0  0  0  0  0  0  0  0  0
    5.6720    1.3700    0.0000 H   0  0  0  0  0  0  0  0  0  0  0  0
    6.8671   -2.5600    0.0000 H   0  0  0  0  0  0  0  0  0  0  0  0
    8.6199    0.7146    0.0000 H   0  0  0  0  0  0  0  0  0  0  0  0
    3.0044    0.5851    0.0000 H   0  0  0  0  0  0  0  0  0  0  0  0
    3.8015    0.5851    0.0000 H   0  0  0  0  0  0  0  0  0  0  0  0
    4.8890    2.5600    0.0000 H   0  0  0  0  0  0  0  0  0  0  0  0
    4.2690    3.1800    0.0000 H   0  0  0  0  0  0  0  0  0  0  0  0
    3.6490    2.5600    0.0000 H   0  0  0  0  0  0  0  0  0  0  0  0
   10.0688   -0.1071    0.0000 H   0  0  0  0  0  0  0  0  0  0  0  0
    5.1350   -2.5600    0.0000 H   0  0  0  0  0  0  0  0  0  0  0  0
    2.0000    1.2500    0.0000 H   0  0  0  0  0  0  0  0  0  0  0  0
  1 10  1  0  0  0  0
  1 18  1  0  0  0  0
  2  9  1  0  0  0  0
  2 31  1  0  0  0  0
  3 15  1  0  0  0  0
  3 32  1  0  0  0  0
  4 18  2  0  0  0  0
  5  6  1  0  0  0  0
  5  8  1  0  0  0  0
  5  9  2  0  0  0  0
  6 11  1  0  0  0  0
  6 19  1  0  0  0  0
  6 20  1  0  0  0  0
  7  8  2  0  0  0  0
  7 10  1  0  0  0  0
  7 14  1  0  0  0  0
  8 21  1  0  0  0  0
  9 12  1  0  0  0  0
 10 12  2  0  0  0  0
 11 13  2  0  0  0  0
 11 22  1  0  0  0  0
 12 23  1  0  0  0  0
 13 15  1  0  0  0  0
 13 16  1  0  0  0  0
 14 17  2  0  0  0  0
 14 24  1  0  0  0  0
 15 25  1  0  0  0  0
 15 26  1  0  0  0  0
 16 27  1  0  0  0  0
 16 28  1  0  0  0  0
 16 29  1  0  0  0  0
 17 18  1  0  0  0  0
 17 30  1  0  0  0  0
M  END
>  <PUBCHEM_COMPOUND_CID>
10879399

>  <PUBCHEM_COMPOUND_CANONICALIZED>
1

>  <PUBCHEM_CACTVS_COMPLEXITY>
372

>  <PUBCHEM_CACTVS_HBOND_ACCEPTOR>
4

>  <PUBCHEM_CACTVS_HBOND_DONOR>
2

>  <PUBCHEM_CACTVS_ROTATABLE_BOND>
3

>  <PUBCHEM_CACTVS_SUBSKEYS>
AAADccBwOAAAAAAAAAAAAAAAAAAAAAAAAAAwQAAAAAAAAACBAAAAGgAACAAADASgmAIyDoAABgCIAiDSCAACCAAgIAAIiAAGCMgMNyKGMRqCeiClwBUIuYeA4OwOIAACCAAIAABAAAQQABAAAAAAAAAAAA==

>  <PUBCHEM_IUPAC_OPENEYE_NAME>
7-hydroxy-6-[(Z)-4-hydroxy-3-methyl-but-2-enyl]chromen-2-one

>  <PUBCHEM_IUPAC_CAS_NAME>
7-hydroxy-6-[(Z)-4-hydroxy-3-methylbut-2-enyl]-1-benzopyran-2-one

>  <PUBCHEM_IUPAC_NAME>
7-hydroxy-6-[(Z)-4-hydroxy-3-methylbut-2-enyl]chromen-2-one

>  <PUBCHEM_IUPAC_SYSTEMATIC_NAME>
6-[(Z)-3-methyl-4-oxidanyl-but-2-enyl]-7-oxidanyl-chromen-2-one

>  <PUBCHEM_IUPAC_TRADITIONAL_NAME>
7-hydroxy-6-[(Z)-4-hydroxy-3-methyl-but-2-enyl]coumarin

>  <PUBCHEM_IUPAC_INCHI>
InChI=1S/C14H14O4/c1-9(8-15)2-3-10-6-11-4-5-14(17)18-13(11)7-12(10)16/h2,4-7,15-16H,3,8H2,1H3/b9-2-

>  <PUBCHEM_IUPAC_INCHIKEY>
JUOLTTLEQHQQED-MBXJOHMKSA-N

>  <PUBCHEM_XLOGP3_AA>
2.2

>  <PUBCHEM_EXACT_MASS>
246.089

>  <PUBCHEM_MOLECULAR_FORMULA>
C14H14O4

>  <PUBCHEM_MOLECULAR_WEIGHT>
246.262

>  <PUBCHEM_OPENEYE_CAN_SMILES>
CC(=CCC1=C(C=C2C(=C1)C=CC(=O)O2)O)CO

>  <PUBCHEM_OPENEYE_ISO_SMILES>
C/C(=C/CC1=C(C=C2C(=C1)C=CC(=O)O2)O)/CO

>  <PUBCHEM_CACTVS_TPSA>
66.8

>  <PUBCHEM_MONOISOTOPIC_WEIGHT>
246.089

>  <PUBCHEM_TOTAL_CHARGE>
0

>  <PUBCHEM_HEAVY_ATOM_COUNT>
18

>  <PUBCHEM_ATOM_DEF_STEREO_COUNT>
0

>  <PUBCHEM_ATOM_UDEF_STEREO_COUNT>
0

>  <PUBCHEM_BOND_DEF_STEREO_COUNT>
1

>  <PUBCHEM_BOND_UDEF_STEREO_COUNT>
0

>  <PUBCHEM_ISOTOPIC_ATOM_COUNT>
0

>  <PUBCHEM_COMPONENT_COUNT>
1

>  <PUBCHEM_CACTVS_TAUTO_COUNT>
5

>  <PUBCHEM_COORDINATE_TYPE>
1
5
255

>  <PUBCHEM_BONDANNOTATIONS>
1  10  8
1  18  8
10  12  8
14  17  8
17  18  8
5  8  8
5  9  8
7  10  8
7  14  8
7  8  8
9  12  8

$$$$
