10878223
 OpenBabel06101807152D

 29 30  0  0  0  0  0  0  0  0999 V2000
    5.2619   -0.9505    0.0000 O   0  0  0  0  0  0  0  0  0  0  0  0
    4.9889   -2.7058    0.0000 O   0  0  0  0  0  0  0  0  0  0  0  0
    6.2781    1.9615    0.0000 C   0  0  0  0  0  0  0  0  0  0  0  0
    5.9674    1.0110    0.0000 C   0  0  0  0  0  0  0  0  0  0  0  0
    4.9889    0.8047    0.0000 C   0  0  0  0  0  0  0  0  0  0  0  0
    4.6783   -0.1458    0.0000 C   0  0  0  0  0  0  0  0  0  0  0  0
    7.2566    2.1677    0.0000 C   0  0  0  0  0  0  0  0  0  0  0  0
    5.6103    2.7058    0.0000 C   0  0  0  0  0  0  0  0  0  0  0  0
    3.7320   -0.4505    0.0000 C   0  0  0  0  0  0  0  0  0  0  0  0
    3.7320   -1.4505    0.0000 C   0  0  0  0  0  0  0  0  0  0  0  0
    4.6783   -1.7552    0.0000 C   0  0  0  0  0  0  0  0  0  0  0  0
    2.8660    0.0495    0.0000 C   0  0  0  0  0  0  0  0  0  0  0  0
    2.8660   -1.9505    0.0000 C   0  0  0  0  0  0  0  0  0  0  0  0
    2.0000   -0.4505    0.0000 C   0  0  0  0  0  0  0  0  0  0  0  0
    2.0000   -1.4505    0.0000 C   0  0  0  0  0  0  0  0  0  0  0  0
    5.6714    1.8336    0.0000 H   0  0  0  0  0  0  0  0  0  0  0  0
    5.9880    0.3913    0.0000 H   0  0  0  0  0  0  0  0  0  0  0  0
    6.5812    0.9236    0.0000 H   0  0  0  0  0  0  0  0  0  0  0  0
    4.5749    1.2662    0.0000 H   0  0  0  0  0  0  0  0  0  0  0  0
    6.0717    3.1198    0.0000 H   0  0  0  0  0  0  0  0  0  0  0  0
    5.1962    3.1672    0.0000 H   0  0  0  0  0  0  0  0  0  0  0  0
    7.3845    1.5610    0.0000 H   0  0  0  0  0  0  0  0  0  0  0  0
    7.8633    2.2956    0.0000 H   0  0  0  0  0  0  0  0  0  0  0  0
    7.1288    2.7744    0.0000 H   0  0  0  0  0  0  0  0  0  0  0  0
    5.1488    2.2917    0.0000 H   0  0  0  0  0  0  0  0  0  0  0  0
    2.8660    0.6695    0.0000 H   0  0  0  0  0  0  0  0  0  0  0  0
    2.8660   -2.5705    0.0000 H   0  0  0  0  0  0  0  0  0  0  0  0
    1.4631   -0.1405    0.0000 H   0  0  0  0  0  0  0  0  0  0  0  0
    1.4631   -1.7605    0.0000 H   0  0  0  0  0  0  0  0  0  0  0  0
  1  6  1  0  0  0  0
  1 11  1  0  0  0  0
  2 11  2  0  0  0  0
  3  4  1  0  0  0  0
  3  7  1  0  0  0  0
  3  8  1  0  0  0  0
  3 16  1  0  0  0  0
  4  5  1  0  0  0  0
  4 17  1  0  0  0  0
  4 18  1  0  0  0  0
  5  6  2  0  0  0  0
  5 19  1  0  0  0  0
  6  9  1  0  0  0  0
  7 22  1  0  0  0  0
  7 23  1  0  0  0  0
  7 24  1  0  0  0  0
  8 20  1  0  0  0  0
  8 21  1  0  0  0  0
  8 25  1  0  0  0  0
  9 10  1  0  0  0  0
  9 12  2  0  0  0  0
 10 11  1  0  0  0  0
 10 13  2  0  0  0  0
 12 14  1  0  0  0  0
 12 26  1  0  0  0  0
 13 15  1  0  0  0  0
 13 27  1  0  0  0  0
 14 15  2  0  0  0  0
 14 28  1  0  0  0  0
 15 29  1  0  0  0  0
M  END
>  <PUBCHEM_COMPOUND_CID>
10878223

>  <PUBCHEM_COMPOUND_CANONICALIZED>
1

>  <PUBCHEM_CACTVS_COMPLEXITY>
278

>  <PUBCHEM_CACTVS_HBOND_ACCEPTOR>
2

>  <PUBCHEM_CACTVS_HBOND_DONOR>
0

>  <PUBCHEM_CACTVS_ROTATABLE_BOND>
2

>  <PUBCHEM_CACTVS_SUBSKEYS>
AAADccBwMAAAAAAAAAAAAAAAAAAAASAAAAAwAAAAAAAAAEgBAAAAGgAAAAAADQSAmAAyCIAABACIAiDSCAACCAAkIAAIiAEACMgIJjKANRiCMQAkwAEIqYeKyKCOgAAAAAAQAAAAAAAAACAAAAAAAAAAAA==

>  <PUBCHEM_IUPAC_OPENEYE_NAME>
(3Z)-3-(3-methylbutylidene)isobenzofuran-1-one

>  <PUBCHEM_IUPAC_CAS_NAME>
(3Z)-3-(3-methylbutylidene)-1-isobenzofuranone

>  <PUBCHEM_IUPAC_NAME>
(3Z)-3-(3-methylbutylidene)-2-benzofuran-1-one

>  <PUBCHEM_IUPAC_SYSTEMATIC_NAME>
(3Z)-3-(3-methylbutylidene)-2-benzofuran-1-one

>  <PUBCHEM_IUPAC_TRADITIONAL_NAME>
(3Z)-3-(3-methylbutylidene)phthalide

>  <PUBCHEM_IUPAC_INCHI>
InChI=1S/C13H14O2/c1-9(2)7-8-12-10-5-3-4-6-11(10)13(14)15-12/h3-6,8-9H,7H2,1-2H3/b12-8-

>  <PUBCHEM_IUPAC_INCHIKEY>
LLCYNDRFWDIIQS-WQLSENKSSA-N

>  <PUBCHEM_XLOGP3_AA>
3.4

>  <PUBCHEM_EXACT_MASS>
202.099

>  <PUBCHEM_MOLECULAR_FORMULA>
C13H14O2

>  <PUBCHEM_MOLECULAR_WEIGHT>
202.253

>  <PUBCHEM_OPENEYE_CAN_SMILES>
CC(C)CC=C1C2=CC=CC=C2C(=O)O1

>  <PUBCHEM_OPENEYE_ISO_SMILES>
CC(C)C/C=C\1/C2=CC=CC=C2C(=O)O1

>  <PUBCHEM_CACTVS_TPSA>
26.3

>  <PUBCHEM_MONOISOTOPIC_WEIGHT>
202.099

>  <PUBCHEM_TOTAL_CHARGE>
0

>  <PUBCHEM_HEAVY_ATOM_COUNT>
15

>  <PUBCHEM_ATOM_DEF_STEREO_COUNT>
0

>  <PUBCHEM_ATOM_UDEF_STEREO_COUNT>
0

>  <PUBCHEM_BOND_DEF_STEREO_COUNT>
1

>  <PUBCHEM_BOND_UDEF_STEREO_COUNT>
0

>  <PUBCHEM_ISOTOPIC_ATOM_COUNT>
0

>  <PUBCHEM_COMPONENT_COUNT>
1

>  <PUBCHEM_CACTVS_TAUTO_COUNT>
3

>  <PUBCHEM_COORDINATE_TYPE>
1
5
255

>  <PUBCHEM_BONDANNOTATIONS>
10  13  8
12  14  8
13  15  8
14  15  8
9  10  8
9  12  8

$$$$
