10895435
 OpenBabel06101807152D

 58 60  0  0  0  0  0  0  0  0999 V2000
   11.5942   -0.2704    0.0000 O   0  0  0  0  0  0  0  0  0  0  0  0
    9.8458    2.7642    0.0000 O   0  0  0  0  0  0  0  0  0  0  0  0
    8.0641   -0.2945    0.0000 O   0  0  0  0  0  0  0  0  0  0  0  0
   13.3262    1.7296    0.0000 O   0  0  0  0  0  0  0  0  0  0  0  0
   11.5942    2.7296    0.0000 O   0  0  0  0  0  0  0  0  0  0  0  0
   14.1923   -2.7704    0.0000 O   0  0  0  0  0  0  0  0  0  0  0  0
   15.9243   -1.7704    0.0000 O   0  0  0  0  0  0  0  0  0  0  0  0
    8.9282    1.2504    0.0000 C   0  0  0  0  0  0  0  0  0  0  0  0
    8.0641    1.7538    0.0000 C   0  0  0  0  0  0  0  0  0  0  0  0
   10.7282    1.2296    0.0000 C   0  0  0  0  0  0  0  0  0  0  0  0
    9.8342    1.7643    0.0000 C   0  0  0  0  0  0  0  0  0  0  0  0
    6.3320    1.7604    0.0000 C   0  0  0  0  0  0  0  0  0  0  0  0
   10.7282    0.2296    0.0000 C   0  0  0  0  0  0  0  0  0  0  0  0
    5.4641    1.2638    0.0000 C   0  0  0  0  0  0  0  0  0  0  0  0
    7.1961    1.2571    0.0000 C   0  0  0  0  0  0  0  0  0  0  0  0
    8.9282    0.2088    0.0000 C   0  0  0  0  0  0  0  0  0  0  0  0
    9.8342   -0.3051    0.0000 C   0  0  0  0  0  0  0  0  0  0  0  0
    4.6000    1.7671    0.0000 C   0  0  0  0  0  0  0  0  0  0  0  0
   11.5942    1.7296    0.0000 C   0  0  0  0  0  0  0  0  0  0  0  0
   12.4602    0.2296    0.0000 C   0  0  0  0  0  0  0  0  0  0  0  0
   12.4602    1.2296    0.0000 C   0  0  0  0  0  0  0  0  0  0  0  0
    6.3359    2.7604    0.0000 C   0  0  0  0  0  0  0  0  0  0  0  0
   13.3262   -0.2704    0.0000 C   0  0  0  0  0  0  0  0  0  0  0  0
    3.7320    1.2704    0.0000 C   0  0  0  0  0  0  0  0  0  0  0  0
    2.8680    1.7738    0.0000 C   0  0  0  0  0  0  0  0  0  0  0  0
   13.3262   -1.2704    0.0000 C   0  0  0  0  0  0  0  0  0  0  0  0
   14.1923    0.2296    0.0000 C   0  0  0  0  0  0  0  0  0  0  0  0
   14.1923   -1.7704    0.0000 C   0  0  0  0  0  0  0  0  0  0  0  0
   15.0583   -0.2704    0.0000 C   0  0  0  0  0  0  0  0  0  0  0  0
    2.0000    1.2771    0.0000 C   0  0  0  0  0  0  0  0  0  0  0  0
    2.8718    2.7738    0.0000 C   0  0  0  0  0  0  0  0  0  0  0  0
   15.0583   -1.2704    0.0000 C   0  0  0  0  0  0  0  0  0  0  0  0
    8.4644    2.2272    0.0000 H   0  0  0  0  0  0  0  0  0  0  0  0
    7.6674    2.2302    0.0000 H   0  0  0  0  0  0  0  0  0  0  0  0
    5.0637    0.7904    0.0000 H   0  0  0  0  0  0  0  0  0  0  0  0
    5.8608    0.7873    0.0000 H   0  0  0  0  0  0  0  0  0  0  0  0
    7.1937    0.6371    0.0000 H   0  0  0  0  0  0  0  0  0  0  0  0
    9.8414   -0.9250    0.0000 H   0  0  0  0  0  0  0  0  0  0  0  0
    5.0003    2.2405    0.0000 H   0  0  0  0  0  0  0  0  0  0  0  0
    4.2033    2.2436    0.0000 H   0  0  0  0  0  0  0  0  0  0  0  0
    6.9559    2.7580    0.0000 H   0  0  0  0  0  0  0  0  0  0  0  0
    6.3383    3.3804    0.0000 H   0  0  0  0  0  0  0  0  0  0  0  0
    5.7159    2.7628    0.0000 H   0  0  0  0  0  0  0  0  0  0  0  0
    3.7296    0.6505    0.0000 H   0  0  0  0  0  0  0  0  0  0  0  0
    9.3125    3.0804    0.0000 H   0  0  0  0  0  0  0  0  0  0  0  0
   12.7893   -1.5804    0.0000 H   0  0  0  0  0  0  0  0  0  0  0  0
   14.1923    0.8496    0.0000 H   0  0  0  0  0  0  0  0  0  0  0  0
    8.0664   -0.9145    0.0000 H   0  0  0  0  0  0  0  0  0  0  0  0
   15.5952    0.0396    0.0000 H   0  0  0  0  0  0  0  0  0  0  0  0
   13.3262    2.3496    0.0000 H   0  0  0  0  0  0  0  0  0  0  0  0
    3.4918    2.7714    0.0000 H   0  0  0  0  0  0  0  0  0  0  0  0
    2.8742    3.3938    0.0000 H   0  0  0  0  0  0  0  0  0  0  0  0
    2.2518    2.7762    0.0000 H   0  0  0  0  0  0  0  0  0  0  0  0
    1.6921    1.8153    0.0000 H   0  0  0  0  0  0  0  0  0  0  0  0
    1.4619    0.9692    0.0000 H   0  0  0  0  0  0  0  0  0  0  0  0
    2.3079    0.7390    0.0000 H   0  0  0  0  0  0  0  0  0  0  0  0
   14.7292   -3.0804    0.0000 H   0  0  0  0  0  0  0  0  0  0  0  0
   16.4612   -1.4604    0.0000 H   0  0  0  0  0  0  0  0  0  0  0  0
  1 13  1  0  0  0  0
  1 20  1  0  0  0  0
  2 11  1  0  0  0  0
  2 45  1  0  0  0  0
  3 16  1  0  0  0  0
  3 48  1  0  0  0  0
  4 21  1  0  0  0  0
  4 50  1  0  0  0  0
  5 19  2  0  0  0  0
  6 28  1  0  0  0  0
  6 57  1  0  0  0  0
  7 32  1  0  0  0  0
  7 58  1  0  0  0  0
  8  9  1  0  0  0  0
  8 11  1  0  0  0  0
  8 16  2  0  0  0  0
  9 15  1  0  0  0  0
  9 33  1  0  0  0  0
  9 34  1  0  0  0  0
 10 11  2  0  0  0  0
 10 13  1  0  0  0  0
 10 19  1  0  0  0  0
 12 14  1  0  0  0  0
 12 15  2  0  0  0  0
 12 22  1  0  0  0  0
 13 17  2  0  0  0  0
 14 18  1  0  0  0  0
 14 35  1  0  0  0  0
 14 36  1  0  0  0  0
 15 37  1  0  0  0  0
 16 17  1  0  0  0  0
 17 38  1  0  0  0  0
 18 24  1  0  0  0  0
 18 39  1  0  0  0  0
 18 40  1  0  0  0  0
 19 21  1  0  0  0  0
 20 21  2  0  0  0  0
 20 23  1  0  0  0  0
 22 41  1  0  0  0  0
 22 42  1  0  0  0  0
 22 43  1  0  0  0  0
 23 26  2  0  0  0  0
 23 27  1  0  0  0  0
 24 25  2  0  0  0  0
 24 44  1  0  0  0  0
 25 30  1  0  0  0  0
 25 31  1  0  0  0  0
 26 28  1  0  0  0  0
 26 46  1  0  0  0  0
 27 29  2  0  0  0  0
 27 47  1  0  0  0  0
 28 32  2  0  0  0  0
 29 32  1  0  0  0  0
 29 49  1  0  0  0  0
 30 54  1  0  0  0  0
 30 55  1  0  0  0  0
 30 56  1  0  0  0  0
 31 51  1  0  0  0  0
 31 52  1  0  0  0  0
 31 53  1  0  0  0  0
M  END
>  <PUBCHEM_COMPOUND_CID>
10895435

>  <PUBCHEM_COMPOUND_CANONICALIZED>
1

>  <PUBCHEM_CACTVS_COMPLEXITY>
779

>  <PUBCHEM_CACTVS_HBOND_ACCEPTOR>
7

>  <PUBCHEM_CACTVS_HBOND_DONOR>
5

>  <PUBCHEM_CACTVS_ROTATABLE_BOND>
6

>  <PUBCHEM_CACTVS_SUBSKEYS>
AAADceB4OAAAAAAAAAAAAAAAAAAAAAAAAAAwYIAAAAAAAACBQAAAGgAACAAADASAmAAyBoAABgCIAqBSAAICCAAkIAAIiAFGiMgNJzaGNRqCeWGl4BUJuQfI7PzOIAADCAAIQABAAAYQABCAAAAAAAAAAA==

>  <PUBCHEM_IUPAC_OPENEYE_NAME>
2-(3,4-dihydroxyphenyl)-6-[(2E)-3,7-dimethylocta-2,6-dienyl]-3,5,7-trihydroxy-chromen-4-one

>  <PUBCHEM_IUPAC_CAS_NAME>
2-(3,4-dihydroxyphenyl)-6-[(2E)-3,7-dimethylocta-2,6-dienyl]-3,5,7-trihydroxy-1-benzopyran-4-one

>  <PUBCHEM_IUPAC_NAME>
2-(3,4-dihydroxyphenyl)-6-[(2E)-3,7-dimethylocta-2,6-dienyl]-3,5,7-trihydroxychromen-4-one

>  <PUBCHEM_IUPAC_SYSTEMATIC_NAME>
2-[3,4-bis(oxidanyl)phenyl]-6-[(2E)-3,7-dimethylocta-2,6-dienyl]-3,5,7-tris(oxidanyl)chromen-4-one

>  <PUBCHEM_IUPAC_TRADITIONAL_NAME>
2-(3,4-dihydroxyphenyl)-6-[(2E)-3,7-dimethylocta-2,6-dienyl]-3,5,7-trihydroxy-chromone

>  <PUBCHEM_IUPAC_INCHI>
InChI=1S/C25H26O7/c1-13(2)5-4-6-14(3)7-9-16-18(27)12-20-21(22(16)29)23(30)24(31)25(32-20)15-8-10-17(26)19(28)11-15/h5,7-8,10-12,26-29,31H,4,6,9H2,1-3H3/b14-7+

>  <PUBCHEM_IUPAC_INCHIKEY>
DMSHSZYADCTYHE-VGOFMYFVSA-N

>  <PUBCHEM_XLOGP3_AA>
5.9

>  <PUBCHEM_EXACT_MASS>
438.168

>  <PUBCHEM_MOLECULAR_FORMULA>
C25H26O7

>  <PUBCHEM_MOLECULAR_WEIGHT>
438.476

>  <PUBCHEM_OPENEYE_CAN_SMILES>
CC(=CCCC(=CCC1=C(C=C2C(=C1O)C(=O)C(=C(O2)C3=CC(=C(C=C3)O)O)O)O)C)C

>  <PUBCHEM_OPENEYE_ISO_SMILES>
CC(=CCC/C(=C/CC1=C(C=C2C(=C1O)C(=O)C(=C(O2)C3=CC(=C(C=C3)O)O)O)O)/C)C

>  <PUBCHEM_CACTVS_TPSA>
127

>  <PUBCHEM_MONOISOTOPIC_WEIGHT>
438.168

>  <PUBCHEM_TOTAL_CHARGE>
0

>  <PUBCHEM_HEAVY_ATOM_COUNT>
32

>  <PUBCHEM_ATOM_DEF_STEREO_COUNT>
0

>  <PUBCHEM_ATOM_UDEF_STEREO_COUNT>
0

>  <PUBCHEM_BOND_DEF_STEREO_COUNT>
1

>  <PUBCHEM_BOND_UDEF_STEREO_COUNT>
0

>  <PUBCHEM_ISOTOPIC_ATOM_COUNT>
0

>  <PUBCHEM_COMPONENT_COUNT>
1

>  <PUBCHEM_CACTVS_TAUTO_COUNT>
998

>  <PUBCHEM_COORDINATE_TYPE>
1
5
255

>  <PUBCHEM_BONDANNOTATIONS>
1  13  8
1  20  8
10  11  8
10  13  8
10  19  8
13  17  8
16  17  8
19  21  8
20  21  8
23  26  8
23  27  8
26  28  8
27  29  8
28  32  8
29  32  8
8  11  8
8  16  8

$$$$
