10935815
 OpenBabel06101807152D

 52 52  0  0  1  0  0  0  0  0999 V2000
    9.4282   -4.3380    0.0000 O   0  0  0  0  0  0  0  0  0  0  0  0
    8.0622   -1.9720    0.0000 O   0  0  0  0  0  0  0  0  0  0  0  0
    2.8660    4.0280    0.0000 O   0  0  0  0  0  0  0  0  0  0  0  0
    2.0000    2.5280    0.0000 O   0  0  0  0  0  0  0  0  0  0  0  0
    8.9282   -3.4720    0.0000 C   0  0  2  0  0  0  0  0  0  0  0  0
    9.9282   -3.4720    0.0000 C   0  0  2  0  0  0  0  0  0  0  0  0
    8.0622   -2.9720    0.0000 C   0  0  1  0  0  0  0  0  0  0  0  0
   10.7942   -2.9720    0.0000 C   0  0  0  0  0  0  0  0  0  0  0  0
    7.1962   -3.4720    0.0000 C   0  0  0  0  0  0  0  0  0  0  0  0
   11.6603   -3.4720    0.0000 C   0  0  0  0  0  0  0  0  0  0  0  0
    6.3301   -2.9720    0.0000 C   0  0  0  0  0  0  0  0  0  0  0  0
    6.3301   -1.9720    0.0000 C   0  0  0  0  0  0  0  0  0  0  0  0
    5.4641   -1.4720    0.0000 C   0  0  0  0  0  0  0  0  0  0  0  0
    5.4641   -0.4720    0.0000 C   0  0  0  0  0  0  0  0  0  0  0  0
    4.5981    0.0280    0.0000 C   0  0  0  0  0  0  0  0  0  0  0  0
    4.5981    1.0280    0.0000 C   0  0  0  0  0  0  0  0  0  0  0  0
   12.5263   -2.9720    0.0000 C   0  0  0  0  0  0  0  0  0  0  0  0
    3.7320    1.5280    0.0000 C   0  0  0  0  0  0  0  0  0  0  0  0
   12.5263   -1.9720    0.0000 C   0  0  0  0  0  0  0  0  0  0  0  0
    3.7320    2.5280    0.0000 C   0  0  0  0  0  0  0  0  0  0  0  0
   13.3923   -1.4720    0.0000 C   0  0  0  0  0  0  0  0  0  0  0  0
    2.8660    3.0280    0.0000 C   0  0  0  0  0  0  0  0  0  0  0  0
    8.4898   -3.9104    0.0000 H   0  0  0  0  0  0  0  0  0  0  0  0
   10.3666   -3.9104    0.0000 H   0  0  0  0  0  0  0  0  0  0  0  0
    7.5252   -2.6620    0.0000 H   0  0  0  0  0  0  0  0  0  0  0  0
   11.1928   -2.4970    0.0000 H   0  0  0  0  0  0  0  0  0  0  0  0
   10.3957   -2.4970    0.0000 H   0  0  0  0  0  0  0  0  0  0  0  0
    7.1962   -4.0920    0.0000 H   0  0  0  0  0  0  0  0  0  0  0  0
   11.6603   -4.0920    0.0000 H   0  0  0  0  0  0  0  0  0  0  0  0
    7.5252   -1.6620    0.0000 H   0  0  0  0  0  0  0  0  0  0  0  0
    5.7932   -3.2820    0.0000 H   0  0  0  0  0  0  0  0  0  0  0  0
    6.9407   -2.0796    0.0000 H   0  0  0  0  0  0  0  0  0  0  0  0
    6.5422   -1.3894    0.0000 H   0  0  0  0  0  0  0  0  0  0  0  0
    4.8535   -1.3643    0.0000 H   0  0  0  0  0  0  0  0  0  0  0  0
    5.2520   -2.0546    0.0000 H   0  0  0  0  0  0  0  0  0  0  0  0
    6.0747   -0.5796    0.0000 H   0  0  0  0  0  0  0  0  0  0  0  0
    5.6762    0.1106    0.0000 H   0  0  0  0  0  0  0  0  0  0  0  0
    3.9875    0.1357    0.0000 H   0  0  0  0  0  0  0  0  0  0  0  0
    4.3860   -0.5546    0.0000 H   0  0  0  0  0  0  0  0  0  0  0  0
    5.2087    0.9204    0.0000 H   0  0  0  0  0  0  0  0  0  0  0  0
    4.8101    1.6106    0.0000 H   0  0  0  0  0  0  0  0  0  0  0  0
   13.0632   -3.2820    0.0000 H   0  0  0  0  0  0  0  0  0  0  0  0
    3.1215    1.6357    0.0000 H   0  0  0  0  0  0  0  0  0  0  0  0
    3.5200    0.9454    0.0000 H   0  0  0  0  0  0  0  0  0  0  0  0
   12.3142   -1.3894    0.0000 H   0  0  0  0  0  0  0  0  0  0  0  0
   11.9157   -2.0796    0.0000 H   0  0  0  0  0  0  0  0  0  0  0  0
    4.3426    2.4204    0.0000 H   0  0  0  0  0  0  0  0  0  0  0  0
    3.9441    3.1106    0.0000 H   0  0  0  0  0  0  0  0  0  0  0  0
   13.7023   -2.0089    0.0000 H   0  0  0  0  0  0  0  0  0  0  0  0
   13.9292   -1.1620    0.0000 H   0  0  0  0  0  0  0  0  0  0  0  0
   13.0823   -0.9351    0.0000 H   0  0  0  0  0  0  0  0  0  0  0  0
    2.3291    4.3380    0.0000 H   0  0  0  0  0  0  0  0  0  0  0  0
  1  6  1  0  0  0  0
  2 30  1  0  0  0  0
  3 22  1  0  0  0  0
  3 52  1  0  0  0  0
  4 22  2  0  0  0  0
  5  1  1  0  0  0  0
  5  6  1  6  0  0  0
  5  7  1  0  0  0  0
  5 23  1  0  0  0  0
  6  8  1  0  0  0  0
  6 24  1  1  0  0  0
  7  2  1  0  0  0  0
  7  9  1  0  0  0  0
  7 25  1  6  0  0  0
  8 10  1  0  0  0  0
  8 26  1  0  0  0  0
  8 27  1  0  0  0  0
  9 11  2  0  0  0  0
  9 28  1  0  0  0  0
 10 17  2  0  0  0  0
 10 29  1  0  0  0  0
 11 12  1  0  0  0  0
 11 31  1  0  0  0  0
 12 13  1  0  0  0  0
 12 32  1  0  0  0  0
 12 33  1  0  0  0  0
 13 14  1  0  0  0  0
 13 34  1  0  0  0  0
 13 35  1  0  0  0  0
 14 15  1  0  0  0  0
 14 36  1  0  0  0  0
 14 37  1  0  0  0  0
 15 16  1  0  0  0  0
 15 38  1  0  0  0  0
 15 39  1  0  0  0  0
 16 18  1  0  0  0  0
 16 40  1  0  0  0  0
 16 41  1  0  0  0  0
 17 19  1  0  0  0  0
 17 42  1  0  0  0  0
 18 20  1  0  0  0  0
 18 43  1  0  0  0  0
 18 44  1  0  0  0  0
 19 21  1  0  0  0  0
 19 45  1  0  0  0  0
 19 46  1  0  0  0  0
 20 22  1  0  0  0  0
 20 47  1  0  0  0  0
 20 48  1  0  0  0  0
 21 49  1  0  0  0  0
 21 50  1  0  0  0  0
 21 51  1  0  0  0  0
M  END
>  <PUBCHEM_COMPOUND_CID>
10935815

>  <PUBCHEM_COMPOUND_CANONICALIZED>
1

>  <PUBCHEM_CACTVS_COMPLEXITY>
362

>  <PUBCHEM_CACTVS_HBOND_ACCEPTOR>
4

>  <PUBCHEM_CACTVS_HBOND_DONOR>
2

>  <PUBCHEM_CACTVS_ROTATABLE_BOND>
13

>  <PUBCHEM_CACTVS_SUBSKEYS>
AAADceB4OAAAAAAAAAAAAAAAEgAAAAAAAAAAAAAAAAAAAAAAAAAAGgAACAAACBSggAICCAAABgCIACDSCAAAAAAgAAAICAEAAAgBFBIAAQACUAAFwAALEAOIyKCAAAAAAAAAAAAAAAAAAAAAAAAAAAAAAA==

>  <PUBCHEM_IUPAC_OPENEYE_NAME>
(Z,11R)-11-hydroxy-11-[(2S,3S)-3-[(Z)-pent-2-enyl]oxiran-2-yl]undec-9-enoic acid

>  <PUBCHEM_IUPAC_CAS_NAME>
(Z,11R)-11-hydroxy-11-[(2S,3S)-3-[(Z)-pent-2-enyl]-2-oxiranyl]-9-undecenoic acid

>  <PUBCHEM_IUPAC_NAME>
(Z,11R)-11-hydroxy-11-[(2S,3S)-3-[(Z)-pent-2-enyl]oxiran-2-yl]undec-9-enoic acid

>  <PUBCHEM_IUPAC_SYSTEMATIC_NAME>
(Z,11R)-11-oxidanyl-11-[(2S,3S)-3-[(Z)-pent-2-enyl]oxiran-2-yl]undec-9-enoic acid

>  <PUBCHEM_IUPAC_TRADITIONAL_NAME>
(Z,11R)-11-hydroxy-11-[(2S,3S)-3-[(Z)-pent-2-enyl]oxiran-2-yl]undec-9-enoic acid

>  <PUBCHEM_IUPAC_INCHI>
InChI=1S/C18H30O4/c1-2-3-9-13-16-18(22-16)15(19)12-10-7-5-4-6-8-11-14-17(20)21/h3,9-10,12,15-16,18-19H,2,4-8,11,13-14H2,1H3,(H,20,21)/b9-3-,12-10-/t15-,16+,18+/m1/s1

>  <PUBCHEM_IUPAC_INCHIKEY>
XHMGEKKHSKIGMI-BDBJOHPESA-N

>  <PUBCHEM_XLOGP3_AA>
3.9

>  <PUBCHEM_EXACT_MASS>
310.214

>  <PUBCHEM_MOLECULAR_FORMULA>
C18H30O4

>  <PUBCHEM_MOLECULAR_WEIGHT>
310.434

>  <PUBCHEM_OPENEYE_CAN_SMILES>
CCC=CCC1C(O1)C(C=CCCCCCCCC(=O)O)O

>  <PUBCHEM_OPENEYE_ISO_SMILES>
CC/C=C\C[C@H]1[C@@H](O1)[C@@H](/C=C\CCCCCCCC(=O)O)O

>  <PUBCHEM_CACTVS_TPSA>
70.1

>  <PUBCHEM_MONOISOTOPIC_WEIGHT>
310.214

>  <PUBCHEM_TOTAL_CHARGE>
0

>  <PUBCHEM_HEAVY_ATOM_COUNT>
22

>  <PUBCHEM_ATOM_DEF_STEREO_COUNT>
3

>  <PUBCHEM_ATOM_UDEF_STEREO_COUNT>
0

>  <PUBCHEM_BOND_DEF_STEREO_COUNT>
2

>  <PUBCHEM_BOND_UDEF_STEREO_COUNT>
0

>  <PUBCHEM_ISOTOPIC_ATOM_COUNT>
0

>  <PUBCHEM_COMPONENT_COUNT>
1

>  <PUBCHEM_CACTVS_TAUTO_COUNT>
1

>  <PUBCHEM_COORDINATE_TYPE>
1
5
255

>  <PUBCHEM_BONDANNOTATIONS>
5  1  5
7  2  5
6  8  6

$$$$
