10947079
 OpenBabel06101807152D

 37 39  0  0  0  0  0  0  0  0999 V2000
    6.3981   -0.9031    0.0000 O   0  0  0  0  0  0  0  0  0  0  0  0
    8.1465   -1.9377    0.0000 O   0  0  0  0  0  0  0  0  0  0  0  0
    9.9282    1.1211    0.0000 O   0  0  0  0  0  0  0  0  0  0  0  0
    8.1465    2.1315    0.0000 O   0  0  0  0  0  0  0  0  0  0  0  0
    6.3981    2.0969    0.0000 O   0  0  0  0  0  0  0  0  0  0  0  0
    9.9282   -0.9273    0.0000 O   0  0  0  0  0  0  0  0  0  0  0  0
    2.8680    1.1211    0.0000 O   0  0  0  0  0  0  0  0  0  0  0  0
    7.2641    0.5969    0.0000 C   0  0  0  0  0  0  0  0  0  0  0  0
    7.2641   -0.4031    0.0000 C   0  0  0  0  0  0  0  0  0  0  0  0
    5.5320    0.5969    0.0000 C   0  0  0  0  0  0  0  0  0  0  0  0
    6.3981    1.0969    0.0000 C   0  0  0  0  0  0  0  0  0  0  0  0
    5.5320   -0.4031    0.0000 C   0  0  0  0  0  0  0  0  0  0  0  0
    8.1580    1.1316    0.0000 C   0  0  0  0  0  0  0  0  0  0  0  0
    8.1580   -0.9378    0.0000 C   0  0  0  0  0  0  0  0  0  0  0  0
    9.0641    0.6177    0.0000 C   0  0  0  0  0  0  0  0  0  0  0  0
    9.0641   -0.4239    0.0000 C   0  0  0  0  0  0  0  0  0  0  0  0
    4.6381    1.1316    0.0000 C   0  0  0  0  0  0  0  0  0  0  0  0
    4.6381   -0.9378    0.0000 C   0  0  0  0  0  0  0  0  0  0  0  0
    3.7320    0.6177    0.0000 C   0  0  0  0  0  0  0  0  0  0  0  0
    3.7320   -0.4239    0.0000 C   0  0  0  0  0  0  0  0  0  0  0  0
    9.0067   -2.4477    0.0000 C   0  0  0  0  0  0  0  0  0  0  0  0
   10.7961    0.6244    0.0000 C   0  0  0  0  0  0  0  0  0  0  0  0
    2.0000    0.6244    0.0000 C   0  0  0  0  0  0  0  0  0  0  0  0
    4.6453    1.7515    0.0000 H   0  0  0  0  0  0  0  0  0  0  0  0
    4.6453   -1.5577    0.0000 H   0  0  0  0  0  0  0  0  0  0  0  0
    3.1963   -0.7360    0.0000 H   0  0  0  0  0  0  0  0  0  0  0  0
    8.6798    2.4477    0.0000 H   0  0  0  0  0  0  0  0  0  0  0  0
   10.4663   -0.6193    0.0000 H   0  0  0  0  0  0  0  0  0  0  0  0
    8.6905   -2.9810    0.0000 H   0  0  0  0  0  0  0  0  0  0  0  0
    9.5400   -2.7639    0.0000 H   0  0  0  0  0  0  0  0  0  0  0  0
    9.3229   -1.9144    0.0000 H   0  0  0  0  0  0  0  0  0  0  0  0
   10.4882    0.0863    0.0000 H   0  0  0  0  0  0  0  0  0  0  0  0
   11.3343    0.3165    0.0000 H   0  0  0  0  0  0  0  0  0  0  0  0
   11.1041    1.1625    0.0000 H   0  0  0  0  0  0  0  0  0  0  0  0
    1.6921    1.1625    0.0000 H   0  0  0  0  0  0  0  0  0  0  0  0
    1.4619    0.3165    0.0000 H   0  0  0  0  0  0  0  0  0  0  0  0
    2.3079    0.0863    0.0000 H   0  0  0  0  0  0  0  0  0  0  0  0
  1  9  1  0  0  0  0
  1 12  1  0  0  0  0
  2 14  1  0  0  0  0
  2 21  1  0  0  0  0
  3 15  1  0  0  0  0
  3 22  1  0  0  0  0
  4 13  1  0  0  0  0
  4 27  1  0  0  0  0
  5 11  2  0  0  0  0
  6 16  1  0  0  0  0
  6 28  1  0  0  0  0
  7 19  1  0  0  0  0
  7 23  1  0  0  0  0
  8  9  1  0  0  0  0
  8 11  1  0  0  0  0
  8 13  2  0  0  0  0
  9 14  2  0  0  0  0
 10 11  1  0  0  0  0
 10 12  2  0  0  0  0
 10 17  1  0  0  0  0
 12 18  1  0  0  0  0
 13 15  1  0  0  0  0
 14 16  1  0  0  0  0
 15 16  2  0  0  0  0
 17 19  2  0  0  0  0
 17 24  1  0  0  0  0
 18 20  2  0  0  0  0
 18 25  1  0  0  0  0
 19 20  1  0  0  0  0
 20 26  1  0  0  0  0
 21 29  1  0  0  0  0
 21 30  1  0  0  0  0
 21 31  1  0  0  0  0
 22 32  1  0  0  0  0
 22 33  1  0  0  0  0
 22 34  1  0  0  0  0
 23 35  1  0  0  0  0
 23 36  1  0  0  0  0
 23 37  1  0  0  0  0
M  END
>  <PUBCHEM_COMPOUND_CID>
10947079

>  <PUBCHEM_COMPOUND_CANONICALIZED>
1

>  <PUBCHEM_CACTVS_COMPLEXITY>
442

>  <PUBCHEM_CACTVS_HBOND_ACCEPTOR>
7

>  <PUBCHEM_CACTVS_HBOND_DONOR>
2

>  <PUBCHEM_CACTVS_ROTATABLE_BOND>
3

>  <PUBCHEM_CACTVS_SUBSKEYS>
AAADccB4OAAAAAAAAAAAAAAAAAAAAAAAAAA0YIAAAAAAAACRQAAAGgAACAAADASAmAIyBoAABgCIAqBSAAACCAAkIAAIiAEGiMgNJzaGNRqCeWOl4BULuYfK7PzOIQABCAAIQABCAAIQABCAAAAAAAAAAA==

>  <PUBCHEM_IUPAC_OPENEYE_NAME>
1,3-dihydroxy-2,4,7-trimethoxy-xanthen-9-one

>  <PUBCHEM_IUPAC_CAS_NAME>
1,3-dihydroxy-2,4,7-trimethoxy-9-xanthenone

>  <PUBCHEM_IUPAC_NAME>
1,3-dihydroxy-2,4,7-trimethoxyxanthen-9-one

>  <PUBCHEM_IUPAC_SYSTEMATIC_NAME>
2,4,7-trimethoxy-1,3-bis(oxidanyl)xanthen-9-one

>  <PUBCHEM_IUPAC_TRADITIONAL_NAME>
1,3-dihydroxy-2,4,7-trimethoxy-xanthone

>  <PUBCHEM_IUPAC_INCHI>
InChI=1S/C16H14O7/c1-20-7-4-5-9-8(6-7)11(17)10-12(18)15(21-2)13(19)16(22-3)14(10)23-9/h4-6,18-19H,1-3H3

>  <PUBCHEM_IUPAC_INCHIKEY>
DDZOJPRABMAJAZ-UHFFFAOYSA-N

>  <PUBCHEM_XLOGP3_AA>
2.7

>  <PUBCHEM_EXACT_MASS>
318.074

>  <PUBCHEM_MOLECULAR_FORMULA>
C16H14O7

>  <PUBCHEM_MOLECULAR_WEIGHT>
318.281

>  <PUBCHEM_OPENEYE_CAN_SMILES>
COC1=CC2=C(C=C1)OC3=C(C2=O)C(=C(C(=C3OC)O)OC)O

>  <PUBCHEM_OPENEYE_ISO_SMILES>
COC1=CC2=C(C=C1)OC3=C(C2=O)C(=C(C(=C3OC)O)OC)O

>  <PUBCHEM_CACTVS_TPSA>
94.4

>  <PUBCHEM_MONOISOTOPIC_WEIGHT>
318.074

>  <PUBCHEM_TOTAL_CHARGE>
0

>  <PUBCHEM_HEAVY_ATOM_COUNT>
23

>  <PUBCHEM_ATOM_DEF_STEREO_COUNT>
0

>  <PUBCHEM_ATOM_UDEF_STEREO_COUNT>
0

>  <PUBCHEM_BOND_DEF_STEREO_COUNT>
0

>  <PUBCHEM_BOND_UDEF_STEREO_COUNT>
0

>  <PUBCHEM_ISOTOPIC_ATOM_COUNT>
0

>  <PUBCHEM_COMPONENT_COUNT>
1

>  <PUBCHEM_CACTVS_TAUTO_COUNT>
12

>  <PUBCHEM_COORDINATE_TYPE>
1
5
255

>  <PUBCHEM_BONDANNOTATIONS>
1  12  8
1  9  8
10  11  8
10  12  8
10  17  8
12  18  8
13  15  8
14  16  8
15  16  8
17  19  8
18  20  8
19  20  8
8  11  8
8  13  8
8  9  8
9  14  8

$$$$
