10983
 OpenBabel06101807152D

 22 21  0  0  0  0  0  0  0  0999 V2000
    5.4641    0.5950    0.0000 N   0  0  0  0  0  0  0  0  0  0  0  0
    7.1962    0.5950    0.0000 N   0  0  0  0  0  0  0  0  0  0  0  0
    6.3301   -0.9050    0.0000 N   0  0  0  0  0  0  0  0  0  0  0  0
    2.8660    0.0950    0.0000 C   0  0  0  0  0  0  0  0  0  0  0  0
    3.7320    0.5950    0.0000 C   0  0  0  0  0  0  0  0  0  0  0  0
    4.5981    0.0950    0.0000 C   0  0  0  0  0  0  0  0  0  0  0  0
    2.0000    0.5950    0.0000 C   0  0  0  0  0  0  0  0  0  0  0  0
    2.8660   -0.9050    0.0000 C   0  0  0  0  0  0  0  0  0  0  0  0
    6.3301    0.0950    0.0000 C   0  0  0  0  0  0  0  0  0  0  0  0
    3.7320    1.2150    0.0000 H   0  0  0  0  0  0  0  0  0  0  0  0
    4.1996   -0.3799    0.0000 H   0  0  0  0  0  0  0  0  0  0  0  0
    4.9966   -0.3799    0.0000 H   0  0  0  0  0  0  0  0  0  0  0  0
    2.3100    1.1319    0.0000 H   0  0  0  0  0  0  0  0  0  0  0  0
    1.4631    0.9050    0.0000 H   0  0  0  0  0  0  0  0  0  0  0  0
    1.6900    0.0581    0.0000 H   0  0  0  0  0  0  0  0  0  0  0  0
    2.2460   -0.9050    0.0000 H   0  0  0  0  0  0  0  0  0  0  0  0
    2.8660   -1.5250    0.0000 H   0  0  0  0  0  0  0  0  0  0  0  0
    3.4860   -0.9050    0.0000 H   0  0  0  0  0  0  0  0  0  0  0  0
    6.8671   -1.2150    0.0000 H   0  0  0  0  0  0  0  0  0  0  0  0
    5.7932   -1.2150    0.0000 H   0  0  0  0  0  0  0  0  0  0  0  0
    7.7331    0.2850    0.0000 H   0  0  0  0  0  0  0  0  0  0  0  0
    7.1962    1.2150    0.0000 H   0  0  0  0  0  0  0  0  0  0  0  0
  1  6  1  0  0  0  0
  1  9  2  0  0  0  0
  2  9  1  0  0  0  0
  2 21  1  0  0  0  0
  2 22  1  0  0  0  0
  3  9  1  0  0  0  0
  3 19  1  0  0  0  0
  3 20  1  0  0  0  0
  4  5  2  0  0  0  0
  4  7  1  0  0  0  0
  4  8  1  0  0  0  0
  5  6  1  0  0  0  0
  5 10  1  0  0  0  0
  6 11  1  0  0  0  0
  6 12  1  0  0  0  0
  7 13  1  0  0  0  0
  7 14  1  0  0  0  0
  7 15  1  0  0  0  0
  8 16  1  0  0  0  0
  8 17  1  0  0  0  0
  8 18  1  0  0  0  0
M  END
>  <PUBCHEM_COMPOUND_CID>
10983

>  <PUBCHEM_COMPOUND_CANONICALIZED>
1

>  <PUBCHEM_CACTVS_COMPLEXITY>
127

>  <PUBCHEM_CACTVS_HBOND_ACCEPTOR>
1

>  <PUBCHEM_CACTVS_HBOND_DONOR>
2

>  <PUBCHEM_CACTVS_ROTATABLE_BOND>
2

>  <PUBCHEM_CACTVS_SUBSKEYS>
AAADccBjAAAAAAAAAAAAAAAAAAAAAAAAAAAAAAAAAAAAAAAAAAAAHAAQAAAADADBAAQDAAJAAACgAiBCJACAAAEAAAAACAAAAAAAAAAAAQAAAAAAAAAAAAAAAAAAAAAAAAAAAAAAAAAAAAAAAAAAAAAAAA==

>  <PUBCHEM_IUPAC_OPENEYE_NAME>
2-(3-methylbut-2-enyl)guanidine

>  <PUBCHEM_IUPAC_CAS_NAME>
2-(3-methylbut-2-enyl)guanidine

>  <PUBCHEM_IUPAC_NAME>
2-(3-methylbut-2-enyl)guanidine

>  <PUBCHEM_IUPAC_SYSTEMATIC_NAME>
2-(3-methylbut-2-enyl)guanidine

>  <PUBCHEM_IUPAC_TRADITIONAL_NAME>
2-(3-methylbut-2-enyl)guanidine

>  <PUBCHEM_IUPAC_INCHI>
InChI=1S/C6H13N3/c1-5(2)3-4-9-6(7)8/h3H,4H2,1-2H3,(H4,7,8,9)

>  <PUBCHEM_IUPAC_INCHIKEY>
UVMLHMAIUVSYOL-UHFFFAOYSA-N

>  <PUBCHEM_XLOGP3_AA>
0.3

>  <PUBCHEM_EXACT_MASS>
127.111

>  <PUBCHEM_MOLECULAR_FORMULA>
C6H13N3

>  <PUBCHEM_MOLECULAR_WEIGHT>
127.191

>  <PUBCHEM_OPENEYE_CAN_SMILES>
CC(=CCN=C(N)N)C

>  <PUBCHEM_OPENEYE_ISO_SMILES>
CC(=CCN=C(N)N)C

>  <PUBCHEM_CACTVS_TPSA>
64.4

>  <PUBCHEM_MONOISOTOPIC_WEIGHT>
127.111

>  <PUBCHEM_TOTAL_CHARGE>
0

>  <PUBCHEM_HEAVY_ATOM_COUNT>
9

>  <PUBCHEM_ATOM_DEF_STEREO_COUNT>
0

>  <PUBCHEM_ATOM_UDEF_STEREO_COUNT>
0

>  <PUBCHEM_BOND_DEF_STEREO_COUNT>
0

>  <PUBCHEM_BOND_UDEF_STEREO_COUNT>
0

>  <PUBCHEM_ISOTOPIC_ATOM_COUNT>
0

>  <PUBCHEM_COMPONENT_COUNT>
1

>  <PUBCHEM_CACTVS_TAUTO_COUNT>
2

>  <PUBCHEM_COORDINATE_TYPE>
1
5
255

$$$$
