10999431
 OpenBabel06101807152D

 45 45  0  0  0  0  0  0  0  0999 V2000
    8.0622    2.2306    0.0000 O   0  0  0  0  0  0  0  0  0  0  0  0
    7.1962    3.7306    0.0000 N   0  0  0  0  0  0  0  0  0  0  0  0
    6.6962    5.2694    0.0000 C   0  0  0  0  0  0  0  0  0  0  0  0
    7.6962    5.2694    0.0000 C   0  0  0  0  0  0  0  0  0  0  0  0
    8.0052    4.3184    0.0000 C   0  0  0  0  0  0  0  0  0  0  0  0
    6.3871    4.3184    0.0000 C   0  0  0  0  0  0  0  0  0  0  0  0
    3.7320   -2.2694    0.0000 C   0  0  0  0  0  0  0  0  0  0  0  0
    3.7320   -3.2694    0.0000 C   0  0  0  0  0  0  0  0  0  0  0  0
    7.1962    2.7306    0.0000 C   0  0  0  0  0  0  0  0  0  0  0  0
    4.5981   -1.7694    0.0000 C   0  0  0  0  0  0  0  0  0  0  0  0
    2.8660   -3.7694    0.0000 C   0  0  0  0  0  0  0  0  0  0  0  0
    4.5981   -0.7694    0.0000 C   0  0  0  0  0  0  0  0  0  0  0  0
    2.8660   -4.7694    0.0000 C   0  0  0  0  0  0  0  0  0  0  0  0
    6.3301    2.2306    0.0000 C   0  0  0  0  0  0  0  0  0  0  0  0
    5.4641   -0.2694    0.0000 C   0  0  0  0  0  0  0  0  0  0  0  0
    2.0000   -5.2694    0.0000 C   0  0  0  0  0  0  0  0  0  0  0  0
    6.3301    1.2306    0.0000 C   0  0  0  0  0  0  0  0  0  0  0  0
    5.4641    0.7306    0.0000 C   0  0  0  0  0  0  0  0  0  0  0  0
    6.7610    5.8860    0.0000 H   0  0  0  0  0  0  0  0  0  0  0  0
    6.0897    5.3983    0.0000 H   0  0  0  0  0  0  0  0  0  0  0  0
    8.3026    5.3983    0.0000 H   0  0  0  0  0  0  0  0  0  0  0  0
    7.6313    5.8860    0.0000 H   0  0  0  0  0  0  0  0  0  0  0  0
    5.8207    4.5705    0.0000 H   0  0  0  0  0  0  0  0  0  0  0  0
    6.0771    3.7814    0.0000 H   0  0  0  0  0  0  0  0  0  0  0  0
    8.3152    3.7814    0.0000 H   0  0  0  0  0  0  0  0  0  0  0  0
    8.5716    4.5705    0.0000 H   0  0  0  0  0  0  0  0  0  0  0  0
    3.5200   -1.6868    0.0000 H   0  0  0  0  0  0  0  0  0  0  0  0
    3.1215   -2.3771    0.0000 H   0  0  0  0  0  0  0  0  0  0  0  0
    3.9441   -3.8520    0.0000 H   0  0  0  0  0  0  0  0  0  0  0  0
    4.3426   -3.1618    0.0000 H   0  0  0  0  0  0  0  0  0  0  0  0
    4.8101   -2.3520    0.0000 H   0  0  0  0  0  0  0  0  0  0  0  0
    5.2087   -1.6618    0.0000 H   0  0  0  0  0  0  0  0  0  0  0  0
    2.6540   -3.1868    0.0000 H   0  0  0  0  0  0  0  0  0  0  0  0
    2.2554   -3.8771    0.0000 H   0  0  0  0  0  0  0  0  0  0  0  0
    4.3860   -0.1868    0.0000 H   0  0  0  0  0  0  0  0  0  0  0  0
    3.9875   -0.8771    0.0000 H   0  0  0  0  0  0  0  0  0  0  0  0
    3.0781   -5.3520    0.0000 H   0  0  0  0  0  0  0  0  0  0  0  0
    3.4766   -4.6618    0.0000 H   0  0  0  0  0  0  0  0  0  0  0  0
    5.7932    2.5406    0.0000 H   0  0  0  0  0  0  0  0  0  0  0  0
    6.0010   -0.5794    0.0000 H   0  0  0  0  0  0  0  0  0  0  0  0
    1.6900   -4.7325    0.0000 H   0  0  0  0  0  0  0  0  0  0  0  0
    1.4631   -5.5794    0.0000 H   0  0  0  0  0  0  0  0  0  0  0  0
    2.3100   -5.8064    0.0000 H   0  0  0  0  0  0  0  0  0  0  0  0
    6.8671    0.9206    0.0000 H   0  0  0  0  0  0  0  0  0  0  0  0
    4.9272    1.0406    0.0000 H   0  0  0  0  0  0  0  0  0  0  0  0
  1  9  2  0  0  0  0
  2  5  1  0  0  0  0
  2  6  1  0  0  0  0
  2  9  1  0  0  0  0
  3  4  1  0  0  0  0
  3  6  1  0  0  0  0
  3 19  1  0  0  0  0
  3 20  1  0  0  0  0
  4  5  1  0  0  0  0
  4 21  1  0  0  0  0
  4 22  1  0  0  0  0
  5 25  1  0  0  0  0
  5 26  1  0  0  0  0
  6 23  1  0  0  0  0
  6 24  1  0  0  0  0
  7  8  1  0  0  0  0
  7 10  1  0  0  0  0
  7 27  1  0  0  0  0
  7 28  1  0  0  0  0
  8 11  1  0  0  0  0
  8 29  1  0  0  0  0
  8 30  1  0  0  0  0
  9 14  1  0  0  0  0
 10 12  1  0  0  0  0
 10 31  1  0  0  0  0
 10 32  1  0  0  0  0
 11 13  1  0  0  0  0
 11 33  1  0  0  0  0
 11 34  1  0  0  0  0
 12 15  1  0  0  0  0
 12 35  1  0  0  0  0
 12 36  1  0  0  0  0
 13 16  1  0  0  0  0
 13 37  1  0  0  0  0
 13 38  1  0  0  0  0
 14 17  2  0  0  0  0
 14 39  1  0  0  0  0
 15 18  2  0  0  0  0
 15 40  1  0  0  0  0
 16 41  1  0  0  0  0
 16 42  1  0  0  0  0
 16 43  1  0  0  0  0
 17 18  1  0  0  0  0
 17 44  1  0  0  0  0
 18 45  1  0  0  0  0
M  END
>  <PUBCHEM_COMPOUND_CID>
10999431

>  <PUBCHEM_COMPOUND_CANONICALIZED>
1

>  <PUBCHEM_CACTVS_COMPLEXITY>
275

>  <PUBCHEM_CACTVS_HBOND_ACCEPTOR>
1

>  <PUBCHEM_CACTVS_HBOND_DONOR>
0

>  <PUBCHEM_CACTVS_ROTATABLE_BOND>
8

>  <PUBCHEM_CACTVS_SUBSKEYS>
AAADceB6IAAAAAAAAAAAAAAAAAAAAWAAAAAAAAAAAAAAAAAAAAAAHgAAAAAACADBgAQCAAMAAACIACFSEACAAAAgAAAICAAIAEgIAAIAgQAEAAAAhgCIgYMAgIAAAAAAAAAAAAAAAAAAAAAAAAAAAAAAAA==

>  <PUBCHEM_IUPAC_OPENEYE_NAME>
(2E,4E)-1-pyrrolidin-1-yldodeca-2,4-dien-1-one

>  <PUBCHEM_IUPAC_CAS_NAME>
(2E,4E)-1-(1-pyrrolidinyl)-1-dodeca-2,4-dienone

>  <PUBCHEM_IUPAC_NAME>
(2E,4E)-1-pyrrolidin-1-yldodeca-2,4-dien-1-one

>  <PUBCHEM_IUPAC_SYSTEMATIC_NAME>
(2E,4E)-1-pyrrolidin-1-yldodeca-2,4-dien-1-one

>  <PUBCHEM_IUPAC_TRADITIONAL_NAME>
(2E,4E)-1-pyrrolidinododeca-2,4-dien-1-one

>  <PUBCHEM_IUPAC_INCHI>
InChI=1S/C16H27NO/c1-2-3-4-5-6-7-8-9-10-13-16(18)17-14-11-12-15-17/h8-10,13H,2-7,11-12,14-15H2,1H3/b9-8+,13-10+

>  <PUBCHEM_IUPAC_INCHIKEY>
UAIYHWLHQSKQLW-PEGOPYGQSA-N

>  <PUBCHEM_XLOGP3_AA>
4.8

>  <PUBCHEM_EXACT_MASS>
249.209

>  <PUBCHEM_MOLECULAR_FORMULA>
C16H27NO

>  <PUBCHEM_MOLECULAR_WEIGHT>
249.398

>  <PUBCHEM_OPENEYE_CAN_SMILES>
CCCCCCCC=CC=CC(=O)N1CCCC1

>  <PUBCHEM_OPENEYE_ISO_SMILES>
CCCCCCC/C=C/C=C/C(=O)N1CCCC1

>  <PUBCHEM_CACTVS_TPSA>
20.3

>  <PUBCHEM_MONOISOTOPIC_WEIGHT>
249.209

>  <PUBCHEM_TOTAL_CHARGE>
0

>  <PUBCHEM_HEAVY_ATOM_COUNT>
18

>  <PUBCHEM_ATOM_DEF_STEREO_COUNT>
0

>  <PUBCHEM_ATOM_UDEF_STEREO_COUNT>
0

>  <PUBCHEM_BOND_DEF_STEREO_COUNT>
2

>  <PUBCHEM_BOND_UDEF_STEREO_COUNT>
0

>  <PUBCHEM_ISOTOPIC_ATOM_COUNT>
0

>  <PUBCHEM_COMPONENT_COUNT>
1

>  <PUBCHEM_CACTVS_TAUTO_COUNT>
3

>  <PUBCHEM_COORDINATE_TYPE>
1
5
255

$$$$
