11002377
 OpenBabel06101807152D

 43 45  0  0  0  0  0  0  0  0999 V2000
    6.0290   -0.1743    0.0000 O   0  0  0  0  0  0  0  0  0  0  0  0
    4.2690    2.8604    0.0000 O   0  0  0  0  0  0  0  0  0  0  0  0
    2.5369   -0.1396    0.0000 O   0  0  0  0  0  0  0  0  0  0  0  0
    6.0174    2.8950    0.0000 O   0  0  0  0  0  0  0  0  0  0  0  0
    8.6555   -2.6671    0.0000 O   0  0  0  0  0  0  0  0  0  0  0  0
   10.3914   -1.6738    0.0000 O   0  0  0  0  0  0  0  0  0  0  0  0
    5.1350    0.3604    0.0000 C   0  0  0  0  0  0  0  0  0  0  0  0
    5.1350    1.3604    0.0000 C   0  0  0  0  0  0  0  0  0  0  0  0
    4.2690   -0.1396    0.0000 C   0  0  0  0  0  0  0  0  0  0  0  0
    3.4030    1.3604    0.0000 C   0  0  0  0  0  0  0  0  0  0  0  0
    4.2690    1.8604    0.0000 C   0  0  0  0  0  0  0  0  0  0  0  0
    3.4030    0.3604    0.0000 C   0  0  0  0  0  0  0  0  0  0  0  0
    6.9350    0.3396    0.0000 C   0  0  0  0  0  0  0  0  0  0  0  0
    6.0290    1.8951    0.0000 C   0  0  0  0  0  0  0  0  0  0  0  0
    7.7991   -0.1637    0.0000 C   0  0  0  0  0  0  0  0  0  0  0  0
    6.9350    1.3812    0.0000 C   0  0  0  0  0  0  0  0  0  0  0  0
    4.2690   -1.1396    0.0000 C   0  0  0  0  0  0  0  0  0  0  0  0
    2.5369    1.8604    0.0000 C   0  0  0  0  0  0  0  0  0  0  0  0
    7.7953   -1.1637    0.0000 C   0  0  0  0  0  0  0  0  0  0  0  0
    8.6671    0.3329    0.0000 C   0  0  0  0  0  0  0  0  0  0  0  0
    8.6594   -1.6671    0.0000 C   0  0  0  0  0  0  0  0  0  0  0  0
    9.5273   -1.1704    0.0000 C   0  0  0  0  0  0  0  0  0  0  0  0
    9.5312   -0.1704    0.0000 C   0  0  0  0  0  0  0  0  0  0  0  0
    9.5196   -3.1704    0.0000 C   0  0  0  0  0  0  0  0  0  0  0  0
   11.2593   -1.1771    0.0000 C   0  0  0  0  0  0  0  0  0  0  0  0
    7.4708    1.6933    0.0000 H   0  0  0  0  0  0  0  0  0  0  0  0
    3.6490   -1.1396    0.0000 H   0  0  0  0  0  0  0  0  0  0  0  0
    4.2690   -1.7596    0.0000 H   0  0  0  0  0  0  0  0  0  0  0  0
    4.8890   -1.1396    0.0000 H   0  0  0  0  0  0  0  0  0  0  0  0
    2.8469    2.3973    0.0000 H   0  0  0  0  0  0  0  0  0  0  0  0
    2.0000    2.1704    0.0000 H   0  0  0  0  0  0  0  0  0  0  0  0
    2.2269    1.3235    0.0000 H   0  0  0  0  0  0  0  0  0  0  0  0
    7.2571   -1.4717    0.0000 H   0  0  0  0  0  0  0  0  0  0  0  0
    8.6694    0.9529    0.0000 H   0  0  0  0  0  0  0  0  0  0  0  0
   10.0693    0.1375    0.0000 H   0  0  0  0  0  0  0  0  0  0  0  0
    3.7320    3.1704    0.0000 H   0  0  0  0  0  0  0  0  0  0  0  0
    2.0000    0.1704    0.0000 H   0  0  0  0  0  0  0  0  0  0  0  0
    9.2075   -3.7061    0.0000 H   0  0  0  0  0  0  0  0  0  0  0  0
   10.0553   -3.4825    0.0000 H   0  0  0  0  0  0  0  0  0  0  0  0
    9.8316   -2.6347    0.0000 H   0  0  0  0  0  0  0  0  0  0  0  0
   11.5673   -1.7152    0.0000 H   0  0  0  0  0  0  0  0  0  0  0  0
   11.7975   -0.8692    0.0000 H   0  0  0  0  0  0  0  0  0  0  0  0
   10.9514   -0.6390    0.0000 H   0  0  0  0  0  0  0  0  0  0  0  0
  1  7  1  0  0  0  0
  1 13  1  0  0  0  0
  2 11  1  0  0  0  0
  2 36  1  0  0  0  0
  3 12  1  0  0  0  0
  3 37  1  0  0  0  0
  4 14  2  0  0  0  0
  5 21  1  0  0  0  0
  5 24  1  0  0  0  0
  6 22  1  0  0  0  0
  6 25  1  0  0  0  0
  7  8  1  0  0  0  0
  7  9  2  0  0  0  0
  8 11  2  0  0  0  0
  8 14  1  0  0  0  0
  9 12  1  0  0  0  0
  9 17  1  0  0  0  0
 10 11  1  0  0  0  0
 10 12  2  0  0  0  0
 10 18  1  0  0  0  0
 13 15  1  0  0  0  0
 13 16  2  0  0  0  0
 14 16  1  0  0  0  0
 15 19  2  0  0  0  0
 15 20  1  0  0  0  0
 16 26  1  0  0  0  0
 17 27  1  0  0  0  0
 17 28  1  0  0  0  0
 17 29  1  0  0  0  0
 18 30  1  0  0  0  0
 18 31  1  0  0  0  0
 18 32  1  0  0  0  0
 19 21  1  0  0  0  0
 19 33  1  0  0  0  0
 20 23  2  0  0  0  0
 20 34  1  0  0  0  0
 21 22  2  0  0  0  0
 22 23  1  0  0  0  0
 23 35  1  0  0  0  0
 24 38  1  0  0  0  0
 24 39  1  0  0  0  0
 24 40  1  0  0  0  0
 25 41  1  0  0  0  0
 25 42  1  0  0  0  0
 25 43  1  0  0  0  0
M  END
>  <PUBCHEM_COMPOUND_CID>
11002377

>  <PUBCHEM_COMPOUND_CANONICALIZED>
1

>  <PUBCHEM_CACTVS_COMPLEXITY>
532

>  <PUBCHEM_CACTVS_HBOND_ACCEPTOR>
6

>  <PUBCHEM_CACTVS_HBOND_DONOR>
2

>  <PUBCHEM_CACTVS_ROTATABLE_BOND>
3

>  <PUBCHEM_CACTVS_SUBSKEYS>
AAADceB4OAAAAAAAAAAAAAAAAAAAAAAAAAAwYIAAAAAAAACBQAAAGgAACAAADASAmAIyBoAABgCIAqBSAAACCAAkIAAIiAEGiMgNJzaGNRqCeWKl4BUKuQfI7PzOIAADCAAIQABAAAYQABCAAAAAAAAAAA==

>  <PUBCHEM_IUPAC_OPENEYE_NAME>
2-(3,4-dimethoxyphenyl)-5,7-dihydroxy-6,8-dimethyl-chromen-4-one

>  <PUBCHEM_IUPAC_CAS_NAME>
2-(3,4-dimethoxyphenyl)-5,7-dihydroxy-6,8-dimethyl-1-benzopyran-4-one

>  <PUBCHEM_IUPAC_NAME>
2-(3,4-dimethoxyphenyl)-5,7-dihydroxy-6,8-dimethylchromen-4-one

>  <PUBCHEM_IUPAC_SYSTEMATIC_NAME>
2-(3,4-dimethoxyphenyl)-6,8-dimethyl-5,7-bis(oxidanyl)chromen-4-one

>  <PUBCHEM_IUPAC_TRADITIONAL_NAME>
2-(3,4-dimethoxyphenyl)-5,7-dihydroxy-6,8-dimethyl-chromone

>  <PUBCHEM_IUPAC_INCHI>
InChI=1S/C19H18O6/c1-9-17(21)10(2)19-16(18(9)22)12(20)8-14(25-19)11-5-6-13(23-3)15(7-11)24-4/h5-8,21-22H,1-4H3

>  <PUBCHEM_IUPAC_INCHIKEY>
UIFRXEHXPRFGTF-UHFFFAOYSA-N

>  <PUBCHEM_XLOGP3_AA>
3.7

>  <PUBCHEM_EXACT_MASS>
342.11

>  <PUBCHEM_MOLECULAR_FORMULA>
C19H18O6

>  <PUBCHEM_MOLECULAR_WEIGHT>
342.347

>  <PUBCHEM_OPENEYE_CAN_SMILES>
CC1=C(C2=C(C(=C1O)C)OC(=CC2=O)C3=CC(=C(C=C3)OC)OC)O

>  <PUBCHEM_OPENEYE_ISO_SMILES>
CC1=C(C2=C(C(=C1O)C)OC(=CC2=O)C3=CC(=C(C=C3)OC)OC)O

>  <PUBCHEM_CACTVS_TPSA>
85.2

>  <PUBCHEM_MONOISOTOPIC_WEIGHT>
342.11

>  <PUBCHEM_TOTAL_CHARGE>
0

>  <PUBCHEM_HEAVY_ATOM_COUNT>
25

>  <PUBCHEM_ATOM_DEF_STEREO_COUNT>
0

>  <PUBCHEM_ATOM_UDEF_STEREO_COUNT>
0

>  <PUBCHEM_BOND_DEF_STEREO_COUNT>
0

>  <PUBCHEM_BOND_UDEF_STEREO_COUNT>
0

>  <PUBCHEM_ISOTOPIC_ATOM_COUNT>
0

>  <PUBCHEM_COMPONENT_COUNT>
1

>  <PUBCHEM_CACTVS_TAUTO_COUNT>
12

>  <PUBCHEM_COORDINATE_TYPE>
1
5
255

>  <PUBCHEM_BONDANNOTATIONS>
1  13  8
1  7  8
10  11  8
10  12  8
13  16  8
14  16  8
15  19  8
15  20  8
19  21  8
20  23  8
21  22  8
22  23  8
7  8  8
7  9  8
8  11  8
8  14  8
9  12  8

$$$$
