11010948
 OpenBabel06101807152D

 31 32  0  0  0  0  0  0  0  0999 V2000
    7.2566    1.7809    0.0000 S   0  0  0  0  0  0  0  0  0  0  0  0
    5.6103    2.3190    0.0000 S   0  0  0  0  0  0  0  0  0  0  0  0
    2.8660    0.6627    0.0000 O   0  0  0  0  0  0  0  0  0  0  0  0
    4.6783   -2.1421    0.0000 N   0  0  0  0  0  0  0  0  0  0  0  0
    5.9674    0.6241    0.0000 N   0  0  0  0  0  0  0  0  0  0  0  0
    3.7320   -0.8373    0.0000 C   0  0  0  0  0  0  0  0  0  0  0  0
    4.6783   -0.5326    0.0000 C   0  0  0  0  0  0  0  0  0  0  0  0
    3.7320   -1.8373    0.0000 C   0  0  0  0  0  0  0  0  0  0  0  0
    4.9889    0.4179    0.0000 C   0  0  0  0  0  0  0  0  0  0  0  0
    5.2619   -1.3373    0.0000 C   0  0  0  0  0  0  0  0  0  0  0  0
    2.8660   -0.3373    0.0000 C   0  0  0  0  0  0  0  0  0  0  0  0
    2.8660   -2.3373    0.0000 C   0  0  0  0  0  0  0  0  0  0  0  0
    2.0000   -0.8373    0.0000 C   0  0  0  0  0  0  0  0  0  0  0  0
    2.0000   -1.8373    0.0000 C   0  0  0  0  0  0  0  0  0  0  0  0
    6.2781    1.5747    0.0000 C   0  0  0  0  0  0  0  0  0  0  0  0
    2.0000    1.1627    0.0000 C   0  0  0  0  0  0  0  0  0  0  0  0
    7.5673    2.7314    0.0000 C   0  0  0  0  0  0  0  0  0  0  0  0
    4.9684    1.0376    0.0000 H   0  0  0  0  0  0  0  0  0  0  0  0
    4.3751    0.5053    0.0000 H   0  0  0  0  0  0  0  0  0  0  0  0
    5.8819   -1.3373    0.0000 H   0  0  0  0  0  0  0  0  0  0  0  0
    4.8709   -2.7314    0.0000 H   0  0  0  0  0  0  0  0  0  0  0  0
    2.8660   -2.9573    0.0000 H   0  0  0  0  0  0  0  0  0  0  0  0
    1.4631   -0.5273    0.0000 H   0  0  0  0  0  0  0  0  0  0  0  0
    1.4631   -2.1473    0.0000 H   0  0  0  0  0  0  0  0  0  0  0  0
    6.3815    0.1627    0.0000 H   0  0  0  0  0  0  0  0  0  0  0  0
    2.3100    1.6996    0.0000 H   0  0  0  0  0  0  0  0  0  0  0  0
    1.4631    1.4727    0.0000 H   0  0  0  0  0  0  0  0  0  0  0  0
    1.6900    0.6257    0.0000 H   0  0  0  0  0  0  0  0  0  0  0  0
    8.1566    2.5388    0.0000 H   0  0  0  0  0  0  0  0  0  0  0  0
    7.7599    3.3207    0.0000 H   0  0  0  0  0  0  0  0  0  0  0  0
    6.9780    2.9240    0.0000 H   0  0  0  0  0  0  0  0  0  0  0  0
  1 15  1  0  0  0  0
  1 17  1  0  0  0  0
  2 15  2  0  0  0  0
  3 11  1  0  0  0  0
  3 16  1  0  0  0  0
  4  8  1  0  0  0  0
  4 10  1  0  0  0  0
  4 21  1  0  0  0  0
  5  9  1  0  0  0  0
  5 15  1  0  0  0  0
  5 25  1  0  0  0  0
  6  7  1  0  0  0  0
  6  8  2  0  0  0  0
  6 11  1  0  0  0  0
  7  9  1  0  0  0  0
  7 10  2  0  0  0  0
  8 12  1  0  0  0  0
  9 18  1  0  0  0  0
  9 19  1  0  0  0  0
 10 20  1  0  0  0  0
 11 13  2  0  0  0  0
 12 14  2  0  0  0  0
 12 22  1  0  0  0  0
 13 14  1  0  0  0  0
 13 23  1  0  0  0  0
 14 24  1  0  0  0  0
 16 26  1  0  0  0  0
 16 27  1  0  0  0  0
 16 28  1  0  0  0  0
 17 29  1  0  0  0  0
 17 30  1  0  0  0  0
 17 31  1  0  0  0  0
M  END
>  <PUBCHEM_COMPOUND_CID>
11010948

>  <PUBCHEM_COMPOUND_CANONICALIZED>
1

>  <PUBCHEM_CACTVS_COMPLEXITY>
275

>  <PUBCHEM_CACTVS_HBOND_ACCEPTOR>
3

>  <PUBCHEM_CACTVS_HBOND_DONOR>
2

>  <PUBCHEM_CACTVS_ROTATABLE_BOND>
4

>  <PUBCHEM_CACTVS_SUBSKEYS>
AAADccBzIABgAAAAAAAAAAAAAAAAAWAAAAAwAAAAAAAAAFgB8AAAHgQQAAAADAzBnga+xvLJlAikAzRnRACCiCBxIikI2aA+bJgMJuLE8ZuEMChm0BnI6Aew0OMOgAAAAgAKAAAAAAAEABQAAAAAAAAAAA==

>  <PUBCHEM_IUPAC_OPENEYE_NAME>
methyl N-[(4-methoxy-1H-indol-3-yl)methyl]carbamodithioate

>  <PUBCHEM_IUPAC_CAS_NAME>
N-[(4-methoxy-1H-indol-3-yl)methyl]carbamodithioic acid methyl ester

>  <PUBCHEM_IUPAC_NAME>
methyl N-[(4-methoxy-1H-indol-3-yl)methyl]carbamodithioate

>  <PUBCHEM_IUPAC_SYSTEMATIC_NAME>
methyl N-[(4-methoxy-1H-indol-3-yl)methyl]carbamodithioate

>  <PUBCHEM_IUPAC_TRADITIONAL_NAME>
N-[(4-methoxy-1H-indol-3-yl)methyl]carbamodithioic acid methyl ester

>  <PUBCHEM_IUPAC_INCHI>
InChI=1S/C12H14N2OS2/c1-15-10-5-3-4-9-11(10)8(6-13-9)7-14-12(16)17-2/h3-6,13H,7H2,1-2H3,(H,14,16)

>  <PUBCHEM_IUPAC_INCHIKEY>
JVKOHVNWMQYCIN-UHFFFAOYSA-N

>  <PUBCHEM_XLOGP3_AA>
2.7

>  <PUBCHEM_EXACT_MASS>
266.055

>  <PUBCHEM_MOLECULAR_FORMULA>
C12H14N2OS2

>  <PUBCHEM_MOLECULAR_WEIGHT>
266.377

>  <PUBCHEM_OPENEYE_CAN_SMILES>
COC1=CC=CC2=C1C(=CN2)CNC(=S)SC

>  <PUBCHEM_OPENEYE_ISO_SMILES>
COC1=CC=CC2=C1C(=CN2)CNC(=S)SC

>  <PUBCHEM_CACTVS_TPSA>
94.4

>  <PUBCHEM_MONOISOTOPIC_WEIGHT>
266.055

>  <PUBCHEM_TOTAL_CHARGE>
0

>  <PUBCHEM_HEAVY_ATOM_COUNT>
17

>  <PUBCHEM_ATOM_DEF_STEREO_COUNT>
0

>  <PUBCHEM_ATOM_UDEF_STEREO_COUNT>
0

>  <PUBCHEM_BOND_DEF_STEREO_COUNT>
0

>  <PUBCHEM_BOND_UDEF_STEREO_COUNT>
0

>  <PUBCHEM_ISOTOPIC_ATOM_COUNT>
0

>  <PUBCHEM_COMPONENT_COUNT>
1

>  <PUBCHEM_CACTVS_TAUTO_COUNT>
2

>  <PUBCHEM_COORDINATE_TYPE>
1
5
255

>  <PUBCHEM_BONDANNOTATIONS>
11  13  8
12  14  8
13  14  8
4  10  8
4  8  8
6  11  8
6  7  8
6  8  8
7  10  8
8  12  8

$$$$
