11044132
 OpenBabel06101807152D

 34 37  0  0  0  0  0  0  0  0999 V2000
    9.0764   -0.6953    0.0000 O   0  0  0  0  0  0  0  0  0  0  0  0
    9.0764   -2.3047    0.0000 O   0  0  0  0  0  0  0  0  0  0  0  0
    4.6660    2.0000    0.0000 O   0  0  0  0  0  0  0  0  0  0  0  0
    4.6660   -1.0000    0.0000 N   0  0  0  0  0  0  0  0  0  0  0  0
    6.3981   -1.0000    0.0000 C   0  0  0  0  0  0  0  0  0  0  0  0
    5.5321   -0.5000    0.0000 C   0  0  0  0  0  0  0  0  0  0  0  0
    3.8000    0.5000    0.0000 C   0  0  0  0  0  0  0  0  0  0  0  0
    8.1301   -1.0000    0.0000 C   0  0  0  0  0  0  0  0  0  0  0  0
    3.8000   -0.5000    0.0000 C   0  0  0  0  0  0  0  0  0  0  0  0
    7.2641   -0.5000    0.0000 C   0  0  0  0  0  0  0  0  0  0  0  0
    8.1301   -2.0000    0.0000 C   0  0  0  0  0  0  0  0  0  0  0  0
    4.6660    1.0000    0.0000 C   0  0  0  0  0  0  0  0  0  0  0  0
    5.5321    0.5000    0.0000 C   0  0  0  0  0  0  0  0  0  0  0  0
    6.3981   -2.0000    0.0000 C   0  0  0  0  0  0  0  0  0  0  0  0
    7.2641   -2.5000    0.0000 C   0  0  0  0  0  0  0  0  0  0  0  0
    2.9061    1.0347    0.0000 C   0  0  0  0  0  0  0  0  0  0  0  0
    9.6600   -1.5000    0.0000 C   0  0  0  0  0  0  0  0  0  0  0  0
    2.9061   -1.0347    0.0000 C   0  0  0  0  0  0  0  0  0  0  0  0
    2.0000    0.5208    0.0000 C   0  0  0  0  0  0  0  0  0  0  0  0
    2.0000   -0.5208    0.0000 C   0  0  0  0  0  0  0  0  0  0  0  0
    5.5321    2.5000    0.0000 C   0  0  0  0  0  0  0  0  0  0  0  0
    7.2641    0.1200    0.0000 H   0  0  0  0  0  0  0  0  0  0  0  0
    6.0690    0.8100    0.0000 H   0  0  0  0  0  0  0  0  0  0  0  0
    5.8612   -2.3100    0.0000 H   0  0  0  0  0  0  0  0  0  0  0  0
    7.2641   -3.1200    0.0000 H   0  0  0  0  0  0  0  0  0  0  0  0
    2.9132    1.6546    0.0000 H   0  0  0  0  0  0  0  0  0  0  0  0
   10.1208   -1.9147    0.0000 H   0  0  0  0  0  0  0  0  0  0  0  0
   10.1208   -1.0853    0.0000 H   0  0  0  0  0  0  0  0  0  0  0  0
    2.9132   -1.6546    0.0000 H   0  0  0  0  0  0  0  0  0  0  0  0
    1.4643    0.8329    0.0000 H   0  0  0  0  0  0  0  0  0  0  0  0
    1.4643   -0.8329    0.0000 H   0  0  0  0  0  0  0  0  0  0  0  0
    5.8421    1.9631    0.0000 H   0  0  0  0  0  0  0  0  0  0  0  0
    6.0690    2.8100    0.0000 H   0  0  0  0  0  0  0  0  0  0  0  0
    5.2221    3.0369    0.0000 H   0  0  0  0  0  0  0  0  0  0  0  0
  1  8  1  0  0  0  0
  1 17  1  0  0  0  0
  2 11  1  0  0  0  0
  2 17  1  0  0  0  0
  3 12  1  0  0  0  0
  3 21  1  0  0  0  0
  4  6  2  0  0  0  0
  4  9  1  0  0  0  0
  5  6  1  0  0  0  0
  5 10  2  0  0  0  0
  5 14  1  0  0  0  0
  6 13  1  0  0  0  0
  7  9  1  0  0  0  0
  7 12  1  0  0  0  0
  7 16  2  0  0  0  0
  8 10  1  0  0  0  0
  8 11  2  0  0  0  0
  9 18  2  0  0  0  0
 10 22  1  0  0  0  0
 11 15  1  0  0  0  0
 12 13  2  0  0  0  0
 13 23  1  0  0  0  0
 14 15  2  0  0  0  0
 14 24  1  0  0  0  0
 15 25  1  0  0  0  0
 16 19  1  0  0  0  0
 16 26  1  0  0  0  0
 17 27  1  0  0  0  0
 17 28  1  0  0  0  0
 18 20  1  0  0  0  0
 18 29  1  0  0  0  0
 19 20  2  0  0  0  0
 19 30  1  0  0  0  0
 20 31  1  0  0  0  0
 21 32  1  0  0  0  0
 21 33  1  0  0  0  0
 21 34  1  0  0  0  0
M  END
>  <PUBCHEM_COMPOUND_CID>
11044132

>  <PUBCHEM_COMPOUND_CANONICALIZED>
1

>  <PUBCHEM_CACTVS_COMPLEXITY>
364

>  <PUBCHEM_CACTVS_HBOND_ACCEPTOR>
4

>  <PUBCHEM_CACTVS_HBOND_DONOR>
0

>  <PUBCHEM_CACTVS_ROTATABLE_BOND>
2

>  <PUBCHEM_CACTVS_SUBSKEYS>
AAADccB6MAAAAAAAAAAAAAAAAAAAASAAAAA8YIAAAAAAAEix9AAAHgAAAAAADAyBngMyzvIIFACgAyRiRACCiCAhIiAImCA27JgdJuLEsZukMCpmwBnO6Aew0PMOIAABAAACQABAAAIAAASAAAAAAAAAAA==

>  <PUBCHEM_IUPAC_OPENEYE_NAME>
2-(1,3-benzodioxol-5-yl)-4-methoxy-quinoline

>  <PUBCHEM_IUPAC_CAS_NAME>
2-(1,3-benzodioxol-5-yl)-4-methoxyquinoline

>  <PUBCHEM_IUPAC_NAME>
2-(1,3-benzodioxol-5-yl)-4-methoxyquinoline

>  <PUBCHEM_IUPAC_SYSTEMATIC_NAME>
2-(1,3-benzodioxol-5-yl)-4-methoxy-quinoline

>  <PUBCHEM_IUPAC_TRADITIONAL_NAME>
2-(1,3-benzodioxol-5-yl)-4-methoxy-quinoline

>  <PUBCHEM_IUPAC_INCHI>
InChI=1S/C17H13NO3/c1-19-16-9-14(18-13-5-3-2-4-12(13)16)11-6-7-15-17(8-11)21-10-20-15/h2-9H,10H2,1H3

>  <PUBCHEM_IUPAC_INCHIKEY>
QGCORDIPOBZNKC-UHFFFAOYSA-N

>  <PUBCHEM_XLOGP3>
3.9

>  <PUBCHEM_EXACT_MASS>
279.09

>  <PUBCHEM_MOLECULAR_FORMULA>
C17H13NO3

>  <PUBCHEM_MOLECULAR_WEIGHT>
279.295

>  <PUBCHEM_OPENEYE_CAN_SMILES>
COC1=CC(=NC2=CC=CC=C21)C3=CC4=C(C=C3)OCO4

>  <PUBCHEM_OPENEYE_ISO_SMILES>
COC1=CC(=NC2=CC=CC=C21)C3=CC4=C(C=C3)OCO4

>  <PUBCHEM_CACTVS_TPSA>
40.6

>  <PUBCHEM_MONOISOTOPIC_WEIGHT>
279.09

>  <PUBCHEM_TOTAL_CHARGE>
0

>  <PUBCHEM_HEAVY_ATOM_COUNT>
21

>  <PUBCHEM_ATOM_DEF_STEREO_COUNT>
0

>  <PUBCHEM_ATOM_UDEF_STEREO_COUNT>
0

>  <PUBCHEM_BOND_DEF_STEREO_COUNT>
0

>  <PUBCHEM_BOND_UDEF_STEREO_COUNT>
0

>  <PUBCHEM_ISOTOPIC_ATOM_COUNT>
0

>  <PUBCHEM_COMPONENT_COUNT>
1

>  <PUBCHEM_CACTVS_TAUTO_COUNT>
1

>  <PUBCHEM_COORDINATE_TYPE>
1
5
255

>  <PUBCHEM_BONDANNOTATIONS>
11  15  8
12  13  8
14  15  8
16  19  8
18  20  8
19  20  8
4  6  8
4  9  8
5  10  8
5  14  8
6  13  8
7  12  8
7  16  8
7  9  8
8  10  8
8  11  8
9  18  8

$$$$
