11046403
 OpenBabel06101807152D

 54 53  0  0  0  0  0  0  0  0999 V2000
   12.3923   -5.0000    0.0000 O   0  0  0  0  0  0  0  0  0  0  0  0
    2.0000    6.0000    0.0000 O   0  0  0  0  0  0  0  0  0  0  0  0
   11.5263   -3.5000    0.0000 O   0  0  0  0  0  0  0  0  0  0  0  0
    7.1962   -2.0000    0.0000 C   0  0  0  0  0  0  0  0  0  0  0  0
    4.5981    1.5000    0.0000 C   0  0  0  0  0  0  0  0  0  0  0  0
    7.1962   -3.0000    0.0000 C   0  0  0  0  0  0  0  0  0  0  0  0
    6.3301   -1.5000    0.0000 C   0  0  0  0  0  0  0  0  0  0  0  0
    8.9282   -5.0000    0.0000 C   0  0  0  0  0  0  0  0  0  0  0  0
    5.4641    1.0000    0.0000 C   0  0  0  0  0  0  0  0  0  0  0  0
    8.0622   -3.5000    0.0000 C   0  0  0  0  0  0  0  0  0  0  0  0
    8.0622   -1.5000    0.0000 C   0  0  0  0  0  0  0  0  0  0  0  0
    8.0622   -4.5000    0.0000 C   0  0  0  0  0  0  0  0  0  0  0  0
    6.3301   -0.5000    0.0000 C   0  0  0  0  0  0  0  0  0  0  0  0
    5.4641   -0.0000    0.0000 C   0  0  0  0  0  0  0  0  0  0  0  0
    4.5981    2.5000    0.0000 C   0  0  0  0  0  0  0  0  0  0  0  0
    3.7320    1.0000    0.0000 C   0  0  0  0  0  0  0  0  0  0  0  0
    8.9282   -6.0000    0.0000 C   0  0  0  0  0  0  0  0  0  0  0  0
    3.7320    3.0000    0.0000 C   0  0  0  0  0  0  0  0  0  0  0  0
    9.7942   -4.5000    0.0000 C   0  0  0  0  0  0  0  0  0  0  0  0
    3.7320    4.0000    0.0000 C   0  0  0  0  0  0  0  0  0  0  0  0
    2.8660    4.5000    0.0000 C   0  0  0  0  0  0  0  0  0  0  0  0
   10.6603   -5.0000    0.0000 C   0  0  0  0  0  0  0  0  0  0  0  0
    2.0000    4.0000    0.0000 C   0  0  0  0  0  0  0  0  0  0  0  0
    2.8660    5.5000    0.0000 C   0  0  0  0  0  0  0  0  0  0  0  0
   11.5263   -4.5000    0.0000 C   0  0  0  0  0  0  0  0  0  0  0  0
   13.2583   -4.5000    0.0000 C   0  0  0  0  0  0  0  0  0  0  0  0
    6.6592   -3.3100    0.0000 H   0  0  0  0  0  0  0  0  0  0  0  0
    5.7932   -1.8100    0.0000 H   0  0  0  0  0  0  0  0  0  0  0  0
    6.0010    1.3100    0.0000 H   0  0  0  0  0  0  0  0  0  0  0  0
    8.5991   -3.1900    0.0000 H   0  0  0  0  0  0  0  0  0  0  0  0
    7.5252   -4.8100    0.0000 H   0  0  0  0  0  0  0  0  0  0  0  0
    8.3722   -2.0369    0.0000 H   0  0  0  0  0  0  0  0  0  0  0  0
    8.5991   -1.1900    0.0000 H   0  0  0  0  0  0  0  0  0  0  0  0
    7.7522   -0.9631    0.0000 H   0  0  0  0  0  0  0  0  0  0  0  0
    6.8671   -0.1900    0.0000 H   0  0  0  0  0  0  0  0  0  0  0  0
    4.9272   -0.3100    0.0000 H   0  0  0  0  0  0  0  0  0  0  0  0
    5.1350    2.8100    0.0000 H   0  0  0  0  0  0  0  0  0  0  0  0
    3.4220    1.5369    0.0000 H   0  0  0  0  0  0  0  0  0  0  0  0
    3.1951    0.6900    0.0000 H   0  0  0  0  0  0  0  0  0  0  0  0
    4.0420    0.4631    0.0000 H   0  0  0  0  0  0  0  0  0  0  0  0
    8.3082   -6.0000    0.0000 H   0  0  0  0  0  0  0  0  0  0  0  0
    8.9282   -6.6200    0.0000 H   0  0  0  0  0  0  0  0  0  0  0  0
    9.5482   -6.0000    0.0000 H   0  0  0  0  0  0  0  0  0  0  0  0
    3.1951    2.6900    0.0000 H   0  0  0  0  0  0  0  0  0  0  0  0
    9.7942   -3.8800    0.0000 H   0  0  0  0  0  0  0  0  0  0  0  0
    4.2690    4.3100    0.0000 H   0  0  0  0  0  0  0  0  0  0  0  0
   10.6603   -5.6200    0.0000 H   0  0  0  0  0  0  0  0  0  0  0  0
    1.6900    4.5369    0.0000 H   0  0  0  0  0  0  0  0  0  0  0  0
    1.4631    3.6900    0.0000 H   0  0  0  0  0  0  0  0  0  0  0  0
    2.3100    3.4631    0.0000 H   0  0  0  0  0  0  0  0  0  0  0  0
    3.4030    5.8100    0.0000 H   0  0  0  0  0  0  0  0  0  0  0  0
   13.5683   -5.0369    0.0000 H   0  0  0  0  0  0  0  0  0  0  0  0
   13.7953   -4.1900    0.0000 H   0  0  0  0  0  0  0  0  0  0  0  0
   12.9483   -3.9631    0.0000 H   0  0  0  0  0  0  0  0  0  0  0  0
  1 25  1  0  0  0  0
  1 26  1  0  0  0  0
  2 24  2  0  0  0  0
  3 25  2  0  0  0  0
  4  6  1  0  0  0  0
  4  7  2  0  0  0  0
  4 11  1  0  0  0  0
  5  9  2  0  0  0  0
  5 15  1  0  0  0  0
  5 16  1  0  0  0  0
  6 10  2  0  0  0  0
  6 27  1  0  0  0  0
  7 13  1  0  0  0  0
  7 28  1  0  0  0  0
  8 12  2  0  0  0  0
  8 17  1  0  0  0  0
  8 19  1  0  0  0  0
  9 14  1  0  0  0  0
  9 29  1  0  0  0  0
 10 12  1  0  0  0  0
 10 30  1  0  0  0  0
 11 32  1  0  0  0  0
 11 33  1  0  0  0  0
 11 34  1  0  0  0  0
 12 31  1  0  0  0  0
 13 14  2  0  0  0  0
 13 35  1  0  0  0  0
 14 36  1  0  0  0  0
 15 18  2  0  0  0  0
 15 37  1  0  0  0  0
 16 38  1  0  0  0  0
 16 39  1  0  0  0  0
 16 40  1  0  0  0  0
 17 41  1  0  0  0  0
 17 42  1  0  0  0  0
 17 43  1  0  0  0  0
 18 20  1  0  0  0  0
 18 44  1  0  0  0  0
 19 22  2  0  0  0  0
 19 45  1  0  0  0  0
 20 21  2  0  0  0  0
 20 46  1  0  0  0  0
 21 23  1  0  0  0  0
 21 24  1  0  0  0  0
 22 25  1  0  0  0  0
 22 47  1  0  0  0  0
 23 48  1  0  0  0  0
 23 49  1  0  0  0  0
 23 50  1  0  0  0  0
 24 51  1  0  0  0  0
 26 52  1  0  0  0  0
 26 53  1  0  0  0  0
 26 54  1  0  0  0  0
M  END
>  <PUBCHEM_COMPOUND_CID>
11046403

>  <PUBCHEM_COMPOUND_CANONICALIZED>
1

>  <PUBCHEM_CACTVS_COMPLEXITY>
706

>  <PUBCHEM_CACTVS_HBOND_ACCEPTOR>
3

>  <PUBCHEM_CACTVS_HBOND_DONOR>
0

>  <PUBCHEM_CACTVS_ROTATABLE_BOND>
10

>  <PUBCHEM_CACTVS_SUBSKEYS>
AAADceB4MAAAAAAAAAAAAAAAAAAAAAAAAAAAAAAAAAAAAAAAAAAAGgAAAAAADACggAICCAAABACIAijSiAAAAAAgAAAICAEAAEgIBAAAIQAAEAAAAAAIoYIAAAAAAAAAAAAAAAAAAAAAAAAAAAAAAAAAAA==

>  <PUBCHEM_IUPAC_OPENEYE_NAME>
methyl (2E,4Z,6E,8E,10E,12E,14E,16E)-4,8,13,17-tetramethyl-18-oxo-octadeca-2,4,6,8,10,12,14,16-octaenoate

>  <PUBCHEM_IUPAC_CAS_NAME>
(2E,4Z,6E,8E,10E,12E,14E,16E)-4,8,13,17-tetramethyl-18-oxooctadeca-2,4,6,8,10,12,14,16-octaenoic acid methyl ester

>  <PUBCHEM_IUPAC_NAME>
methyl (2E,4Z,6E,8E,10E,12E,14E,16E)-4,8,13,17-tetramethyl-18-oxooctadeca-2,4,6,8,10,12,14,16-octaenoate

>  <PUBCHEM_IUPAC_SYSTEMATIC_NAME>
methyl (2E,4Z,6E,8E,10E,12E,14E,16E)-4,8,13,17-tetramethyl-18-oxidanylidene-octadeca-2,4,6,8,10,12,14,16-octaenoate

>  <PUBCHEM_IUPAC_TRADITIONAL_NAME>
(2E,4Z,6E,8E,10E,12E,14E,16E)-18-keto-4,8,13,17-tetramethyl-octadeca-2,4,6,8,10,12,14,16-octaenoic acid methyl ester

>  <PUBCHEM_IUPAC_INCHI>
InChI=1S/C23H28O3/c1-19(12-8-14-21(3)16-17-23(25)26-5)10-6-7-11-20(2)13-9-15-22(4)18-24/h6-18H,1-5H3/b7-6+,12-8+,13-9+,17-16+,19-10+,20-11+,21-14-,22-15+

>  <PUBCHEM_IUPAC_INCHIKEY>
JMFNGSBVJBPGQR-IWRWKHRWSA-N

>  <PUBCHEM_XLOGP3_AA>
6.6

>  <PUBCHEM_EXACT_MASS>
352.204

>  <PUBCHEM_MOLECULAR_FORMULA>
C23H28O3

>  <PUBCHEM_MOLECULAR_WEIGHT>
352.474

>  <PUBCHEM_OPENEYE_CAN_SMILES>
CC(=CC=CC=C(C)C=CC=C(C)C=O)C=CC=C(C)C=CC(=O)OC

>  <PUBCHEM_OPENEYE_ISO_SMILES>
C/C(=C\C=C\C=C(/C)\C=C\C=C(/C)\C=O)/C=C/C=C(/C)\C=C\C(=O)OC

>  <PUBCHEM_CACTVS_TPSA>
43.4

>  <PUBCHEM_MONOISOTOPIC_WEIGHT>
352.204

>  <PUBCHEM_TOTAL_CHARGE>
0

>  <PUBCHEM_HEAVY_ATOM_COUNT>
26

>  <PUBCHEM_ATOM_DEF_STEREO_COUNT>
0

>  <PUBCHEM_ATOM_UDEF_STEREO_COUNT>
0

>  <PUBCHEM_BOND_DEF_STEREO_COUNT>
8

>  <PUBCHEM_BOND_UDEF_STEREO_COUNT>
0

>  <PUBCHEM_ISOTOPIC_ATOM_COUNT>
0

>  <PUBCHEM_COMPONENT_COUNT>
1

>  <PUBCHEM_CACTVS_TAUTO_COUNT>
1

>  <PUBCHEM_COORDINATE_TYPE>
1
5
255

$$$$
