11052947
 OpenBabel06101807152D

 29 31  0  0  0  0  0  0  0  0999 V2000
    8.0321    0.2078    0.0000 O   0  0  0  0  0  0  0  0  0  0  0  0
    4.5274    1.1203    0.0000 N   0  0  0  0  0  0  0  0  0  0  0  0
    5.0274   -0.4185    0.0000 C   0  0  0  0  0  0  0  0  0  0  0  0
    5.3364    0.5325    0.0000 C   0  0  0  0  0  0  0  0  0  0  0  0
    4.0274   -0.4185    0.0000 C   0  0  0  0  0  0  0  0  0  0  0  0
    3.7183    0.5325    0.0000 C   0  0  0  0  0  0  0  0  0  0  0  0
    5.7123   -1.2033    0.0000 C   0  0  0  0  0  0  0  0  0  0  0  0
    6.7328   -0.9946    0.0000 C   0  0  0  0  0  0  0  0  0  0  0  0
    6.3518    0.7648    0.0000 C   0  0  0  0  0  0  0  0  0  0  0  0
    7.0547   -0.0039    0.0000 C   0  0  0  0  0  0  0  0  0  0  0  0
    3.3424   -1.2033    0.0000 C   0  0  0  0  0  0  0  0  0  0  0  0
    2.7029    0.7648    0.0000 C   0  0  0  0  0  0  0  0  0  0  0  0
    7.3991   -1.7403    0.0000 C   0  0  0  0  0  0  0  0  0  0  0  0
    2.3219   -0.9946    0.0000 C   0  0  0  0  0  0  0  0  0  0  0  0
    2.0000   -0.0039    0.0000 C   0  0  0  0  0  0  0  0  0  0  0  0
    8.3374    1.1600    0.0000 C   0  0  0  0  0  0  0  0  0  0  0  0
    4.5274    1.7403    0.0000 H   0  0  0  0  0  0  0  0  0  0  0  0
    5.5139   -1.7907    0.0000 H   0  0  0  0  0  0  0  0  0  0  0  0
    6.5365    1.3566    0.0000 H   0  0  0  0  0  0  0  0  0  0  0  0
    3.5408   -1.7907    0.0000 H   0  0  0  0  0  0  0  0  0  0  0  0
    2.5182    1.3566    0.0000 H   0  0  0  0  0  0  0  0  0  0  0  0
    6.9368   -2.1534    0.0000 H   0  0  0  0  0  0  0  0  0  0  0  0
    7.8122   -2.2026    0.0000 H   0  0  0  0  0  0  0  0  0  0  0  0
    7.8614   -1.3272    0.0000 H   0  0  0  0  0  0  0  0  0  0  0  0
    1.9088   -1.4569    0.0000 H   0  0  0  0  0  0  0  0  0  0  0  0
    1.3940    0.1273    0.0000 H   0  0  0  0  0  0  0  0  0  0  0  0
    8.9278    0.9707    0.0000 H   0  0  0  0  0  0  0  0  0  0  0  0
    8.5267    1.7504    0.0000 H   0  0  0  0  0  0  0  0  0  0  0  0
    7.7470    1.3493    0.0000 H   0  0  0  0  0  0  0  0  0  0  0  0
  1 10  1  0  0  0  0
  1 16  1  0  0  0  0
  2  4  1  0  0  0  0
  2  6  1  0  0  0  0
  2 17  1  0  0  0  0
  3  4  2  0  0  0  0
  3  5  1  0  0  0  0
  3  7  1  0  0  0  0
  4  9  1  0  0  0  0
  5  6  1  0  0  0  0
  5 11  2  0  0  0  0
  6 12  2  0  0  0  0
  7  8  2  0  0  0  0
  7 18  1  0  0  0  0
  8 10  1  0  0  0  0
  8 13  1  0  0  0  0
  9 10  2  0  0  0  0
  9 19  1  0  0  0  0
 11 14  1  0  0  0  0
 11 20  1  0  0  0  0
 12 15  1  0  0  0  0
 12 21  1  0  0  0  0
 13 22  1  0  0  0  0
 13 23  1  0  0  0  0
 13 24  1  0  0  0  0
 14 15  2  0  0  0  0
 14 25  1  0  0  0  0
 15 26  1  0  0  0  0
 16 27  1  0  0  0  0
 16 28  1  0  0  0  0
 16 29  1  0  0  0  0
M  END
>  <PUBCHEM_COMPOUND_CID>
11052947

>  <PUBCHEM_COMPOUND_CANONICALIZED>
1

>  <PUBCHEM_CACTVS_COMPLEXITY>
255

>  <PUBCHEM_CACTVS_HBOND_ACCEPTOR>
1

>  <PUBCHEM_CACTVS_HBOND_DONOR>
1

>  <PUBCHEM_CACTVS_ROTATABLE_BOND>
1

>  <PUBCHEM_CACTVS_SUBSKEYS>
AAADccByIAAAAAAAAAAAAAAAAAAAAWAAAAAwYAAAAAAAAFgB/AAAHgAQAAAADAyBngIyxvLJlACgAyRiRACCiCAhIiAImSA2bJgMJuLEsZuEMChm0BnI6AeQ0PMOqAACAgAKAABQAAQEABQAAAAAAAAAAA==

>  <PUBCHEM_IUPAC_OPENEYE_NAME>
2-methoxy-3-methyl-9H-carbazole

>  <PUBCHEM_IUPAC_CAS_NAME>
2-methoxy-3-methyl-9H-carbazole

>  <PUBCHEM_IUPAC_NAME>
2-methoxy-3-methyl-9H-carbazole

>  <PUBCHEM_IUPAC_SYSTEMATIC_NAME>
2-methoxy-3-methyl-9H-carbazole

>  <PUBCHEM_IUPAC_TRADITIONAL_NAME>
2-methoxy-3-methyl-9H-carbazole

>  <PUBCHEM_IUPAC_INCHI>
InChI=1S/C14H13NO/c1-9-7-11-10-5-3-4-6-12(10)15-13(11)8-14(9)16-2/h3-8,15H,1-2H3

>  <PUBCHEM_IUPAC_INCHIKEY>
XYYYPIAQQFQTAN-UHFFFAOYSA-N

>  <PUBCHEM_XLOGP3_AA>
3.7

>  <PUBCHEM_EXACT_MASS>
211.1

>  <PUBCHEM_MOLECULAR_FORMULA>
C14H13NO

>  <PUBCHEM_MOLECULAR_WEIGHT>
211.264

>  <PUBCHEM_OPENEYE_CAN_SMILES>
CC1=C(C=C2C(=C1)C3=CC=CC=C3N2)OC

>  <PUBCHEM_OPENEYE_ISO_SMILES>
CC1=C(C=C2C(=C1)C3=CC=CC=C3N2)OC

>  <PUBCHEM_CACTVS_TPSA>
25

>  <PUBCHEM_MONOISOTOPIC_WEIGHT>
211.1

>  <PUBCHEM_TOTAL_CHARGE>
0

>  <PUBCHEM_HEAVY_ATOM_COUNT>
16

>  <PUBCHEM_ATOM_DEF_STEREO_COUNT>
0

>  <PUBCHEM_ATOM_UDEF_STEREO_COUNT>
0

>  <PUBCHEM_BOND_DEF_STEREO_COUNT>
0

>  <PUBCHEM_BOND_UDEF_STEREO_COUNT>
0

>  <PUBCHEM_ISOTOPIC_ATOM_COUNT>
0

>  <PUBCHEM_COMPONENT_COUNT>
1

>  <PUBCHEM_CACTVS_TAUTO_COUNT>
1

>  <PUBCHEM_COORDINATE_TYPE>
1
5
255

>  <PUBCHEM_BONDANNOTATIONS>
11  14  8
12  15  8
14  15  8
2  4  8
2  6  8
3  4  8
3  5  8
3  7  8
4  9  8
5  11  8
5  6  8
6  12  8
7  8  8
8  10  8
9  10  8

$$$$
