11096
 OpenBabel06101807152D

 26 27  0  0  1  0  0  0  0  0999 V2000
    2.0000   -1.6229    0.0000 O   0  0  0  0  0  0  0  0  0  0  0  0
    4.5120    0.9741    0.0000 N   0  0  0  0  0  0  0  0  0  0  0  0
    4.9898   -0.9745    0.0000 C   0  0  3  0  0  0  0  0  0  0  0  0
    5.2486   -0.0085    0.0000 C   0  0  3  0  0  0  0  0  0  0  0  0
    6.2614   -1.7691    0.0000 C   0  0  0  0  0  0  0  0  0  0  0  0
    6.6802   -0.2062    0.0000 C   0  0  0  0  0  0  0  0  0  0  0  0
    7.0386   -1.1398    0.0000 C   0  0  0  0  0  0  0  0  0  0  0  0
    3.7687   -1.8401    0.0000 C   0  0  0  0  0  0  0  0  0  0  0  0
    3.2153   -0.3197    0.0000 C   0  0  0  0  0  0  0  0  0  0  0  0
    2.9397   -1.2809    0.0000 C   0  0  0  0  0  0  0  0  0  0  0  0
    4.0120    1.8401    0.0000 C   0  0  0  0  0  0  0  0  0  0  0  0
    5.6784   -0.4762    0.0000 H   0  0  0  0  0  0  0  0  0  0  0  0
    5.2548   -0.8585    0.0000 H   0  0  0  0  0  0  0  0  0  0  0  0
    7.2880   -0.0839    0.0000 H   0  0  0  0  0  0  0  0  0  0  0  0
    6.6612    0.4135    0.0000 H   0  0  0  0  0  0  0  0  0  0  0  0
    5.8769   -2.2554    0.0000 H   0  0  0  0  0  0  0  0  0  0  0  0
    6.7024   -2.2049    0.0000 H   0  0  0  0  0  0  0  0  0  0  0  0
    7.3763   -1.6598    0.0000 H   0  0  0  0  0  0  0  0  0  0  0  0
    7.5910   -0.8583    0.0000 H   0  0  0  0  0  0  0  0  0  0  0  0
    3.3629   -2.3088    0.0000 H   0  0  0  0  0  0  0  0  0  0  0  0
    4.1854   -2.2992    0.0000 H   0  0  0  0  0  0  0  0  0  0  0  0
    3.2103    0.3003    0.0000 H   0  0  0  0  0  0  0  0  0  0  0  0
    2.6010   -0.2359    0.0000 H   0  0  0  0  0  0  0  0  0  0  0  0
    4.5489    2.1501    0.0000 H   0  0  0  0  0  0  0  0  0  0  0  0
    3.7020    2.3770    0.0000 H   0  0  0  0  0  0  0  0  0  0  0  0
    3.4750    1.5301    0.0000 H   0  0  0  0  0  0  0  0  0  0  0  0
  1 10  2  0  0  0  0
  2  3  1  0  0  0  0
  2  4  1  0  0  0  0
  2 11  1  0  0  0  0
  3  5  1  0  0  0  0
  3  8  1  0  0  0  0
  3 12  1  0  0  0  0
  4  6  1  0  0  0  0
  4  9  1  0  0  0  0
  4 13  1  0  0  0  0
  5  7  1  0  0  0  0
  5 16  1  0  0  0  0
  5 17  1  0  0  0  0
  6  7  1  0  0  0  0
  6 14  1  0  0  0  0
  6 15  1  0  0  0  0
  7 18  1  0  0  0  0
  7 19  1  0  0  0  0
  8 10  1  0  0  0  0
  8 20  1  0  0  0  0
  8 21  1  0  0  0  0
  9 10  1  0  0  0  0
  9 22  1  0  0  0  0
  9 23  1  0  0  0  0
 11 24  1  0  0  0  0
 11 25  1  0  0  0  0
 11 26  1  0  0  0  0
M  END
>  <PUBCHEM_COMPOUND_CID>
11096

>  <PUBCHEM_COMPOUND_CANONICALIZED>
1

>  <PUBCHEM_CACTVS_COMPLEXITY>
162

>  <PUBCHEM_CACTVS_HBOND_ACCEPTOR>
2

>  <PUBCHEM_CACTVS_HBOND_DONOR>
0

>  <PUBCHEM_CACTVS_ROTATABLE_BOND>
0

>  <PUBCHEM_CACTVS_SUBSKEYS>
AAADccByIAAAAAAAAAAAAAAAAAAAAAAAAAAsWAAAAAAYAAAAAAAAHgAAAAAACCzBgAQCAAMAAAAIAIAQAAAAAAAAAAAAAAEIAAAAABoAgAAEAAAAAACAAAEYiICAAAAAAAAAAAAAAAAAAAAAAAAAAAAAAA==

>  <PUBCHEM_IUPAC_OPENEYE_NAME>
9-methyl-9-azabicyclo[3.3.1]nonan-3-one

>  <PUBCHEM_IUPAC_CAS_NAME>
9-methyl-9-azabicyclo[3.3.1]nonan-3-one

>  <PUBCHEM_IUPAC_NAME>
9-methyl-9-azabicyclo[3.3.1]nonan-3-one

>  <PUBCHEM_IUPAC_SYSTEMATIC_NAME>
9-methyl-9-azabicyclo[3.3.1]nonan-3-one

>  <PUBCHEM_IUPAC_TRADITIONAL_NAME>
9-methyl-9-azabicyclo[3.3.1]nonan-3-one

>  <PUBCHEM_IUPAC_INCHI>
InChI=1S/C9H15NO/c1-10-7-3-2-4-8(10)6-9(11)5-7/h7-8H,2-6H2,1H3

>  <PUBCHEM_IUPAC_INCHIKEY>
RHWSKVCZXBAWLZ-UHFFFAOYSA-N

>  <PUBCHEM_XLOGP3_AA>
0.7

>  <PUBCHEM_EXACT_MASS>
153.115

>  <PUBCHEM_MOLECULAR_FORMULA>
C9H15NO

>  <PUBCHEM_MOLECULAR_WEIGHT>
153.225

>  <PUBCHEM_OPENEYE_CAN_SMILES>
CN1C2CCCC1CC(=O)C2

>  <PUBCHEM_OPENEYE_ISO_SMILES>
CN1C2CCCC1CC(=O)C2

>  <PUBCHEM_CACTVS_TPSA>
20.3

>  <PUBCHEM_MONOISOTOPIC_WEIGHT>
153.115

>  <PUBCHEM_TOTAL_CHARGE>
0

>  <PUBCHEM_HEAVY_ATOM_COUNT>
11

>  <PUBCHEM_ATOM_DEF_STEREO_COUNT>
0

>  <PUBCHEM_ATOM_UDEF_STEREO_COUNT>
2

>  <PUBCHEM_BOND_DEF_STEREO_COUNT>
0

>  <PUBCHEM_BOND_UDEF_STEREO_COUNT>
0

>  <PUBCHEM_ISOTOPIC_ATOM_COUNT>
0

>  <PUBCHEM_COMPONENT_COUNT>
1

>  <PUBCHEM_CACTVS_TAUTO_COUNT>
2

>  <PUBCHEM_COORDINATE_TYPE>
1
5
255

>  <PUBCHEM_BONDANNOTATIONS>
3  12  3
4  13  3

$$$$
