11131723
 OpenBabel06101807152D

 49 50  0  0  0  0  0  0  0  0999 V2000
    6.0010    2.1550    0.0000 O   0  0  0  0  0  0  0  0  0  0  0  0
    9.4931    2.1203    0.0000 O   0  0  0  0  0  0  0  0  0  0  0  0
    6.0010    4.1550    0.0000 O   0  0  0  0  0  0  0  0  0  0  0  0
    2.5369   -4.8450    0.0000 O   0  0  0  0  0  0  0  0  0  0  0  0
   11.2632    2.1308    0.0000 O   0  0  0  0  0  0  0  0  0  0  0  0
    4.2690   -0.8450    0.0000 C   0  0  0  0  0  0  0  0  0  0  0  0
    4.2690   -1.8450    0.0000 C   0  0  0  0  0  0  0  0  0  0  0  0
    5.1350   -0.3450    0.0000 C   0  0  0  0  0  0  0  0  0  0  0  0
    5.1350    0.6550    0.0000 C   0  0  0  0  0  0  0  0  0  0  0  0
    3.4030   -2.3450    0.0000 C   0  0  0  0  0  0  0  0  0  0  0  0
    6.0010    1.1550    0.0000 C   0  0  0  0  0  0  0  0  0  0  0  0
    6.0010   -0.8450    0.0000 C   0  0  0  0  0  0  0  0  0  0  0  0
    6.8671    2.6550    0.0000 C   0  0  0  0  0  0  0  0  0  0  0  0
    3.4030   -3.3450    0.0000 C   0  0  0  0  0  0  0  0  0  0  0  0
    8.5991    3.6550    0.0000 C   0  0  0  0  0  0  0  0  0  0  0  0
    8.5991    2.6550    0.0000 C   0  0  0  0  0  0  0  0  0  0  0  0
    6.8671    3.6550    0.0000 C   0  0  0  0  0  0  0  0  0  0  0  0
    7.7331    2.1550    0.0000 C   0  0  0  0  0  0  0  0  0  0  0  0
    7.7331    4.1550    0.0000 C   0  0  0  0  0  0  0  0  0  0  0  0
    2.5369   -3.8450    0.0000 C   0  0  0  0  0  0  0  0  0  0  0  0
    4.2690   -3.8450    0.0000 C   0  0  0  0  0  0  0  0  0  0  0  0
    9.4931    4.1897    0.0000 C   0  0  0  0  0  0  0  0  0  0  0  0
   10.3991    3.6758    0.0000 C   0  0  0  0  0  0  0  0  0  0  0  0
   10.3991    2.6342    0.0000 C   0  0  0  0  0  0  0  0  0  0  0  0
    6.0010    5.1550    0.0000 C   0  0  0  0  0  0  0  0  0  0  0  0
    4.0569   -0.2624    0.0000 H   0  0  0  0  0  0  0  0  0  0  0  0
    3.6584   -0.9527    0.0000 H   0  0  0  0  0  0  0  0  0  0  0  0
    4.4810   -2.4276    0.0000 H   0  0  0  0  0  0  0  0  0  0  0  0
    4.8796   -1.7373    0.0000 H   0  0  0  0  0  0  0  0  0  0  0  0
    4.5981    0.9650    0.0000 H   0  0  0  0  0  0  0  0  0  0  0  0
    2.8660   -2.0350    0.0000 H   0  0  0  0  0  0  0  0  0  0  0  0
    6.2131    0.5724    0.0000 H   0  0  0  0  0  0  0  0  0  0  0  0
    6.6116    1.2627    0.0000 H   0  0  0  0  0  0  0  0  0  0  0  0
    5.6910   -1.3819    0.0000 H   0  0  0  0  0  0  0  0  0  0  0  0
    6.5380   -1.1550    0.0000 H   0  0  0  0  0  0  0  0  0  0  0  0
    6.3110   -0.3081    0.0000 H   0  0  0  0  0  0  0  0  0  0  0  0
    7.7331    1.5350    0.0000 H   0  0  0  0  0  0  0  0  0  0  0  0
    7.7331    4.7750    0.0000 H   0  0  0  0  0  0  0  0  0  0  0  0
    2.3249   -3.2624    0.0000 H   0  0  0  0  0  0  0  0  0  0  0  0
    1.9264   -3.9527    0.0000 H   0  0  0  0  0  0  0  0  0  0  0  0
    9.4859    4.8096    0.0000 H   0  0  0  0  0  0  0  0  0  0  0  0
    3.9590   -4.3819    0.0000 H   0  0  0  0  0  0  0  0  0  0  0  0
    4.8059   -4.1550    0.0000 H   0  0  0  0  0  0  0  0  0  0  0  0
    4.5790   -3.3081    0.0000 H   0  0  0  0  0  0  0  0  0  0  0  0
   10.9349    3.9879    0.0000 H   0  0  0  0  0  0  0  0  0  0  0  0
    6.6210    5.1550    0.0000 H   0  0  0  0  0  0  0  0  0  0  0  0
    6.0010    5.7750    0.0000 H   0  0  0  0  0  0  0  0  0  0  0  0
    5.3810    5.1550    0.0000 H   0  0  0  0  0  0  0  0  0  0  0  0
    2.0000   -5.1550    0.0000 H   0  0  0  0  0  0  0  0  0  0  0  0
  1 11  1  0  0  0  0
  1 13  1  0  0  0  0
  2 16  1  0  0  0  0
  2 24  1  0  0  0  0
  3 17  1  0  0  0  0
  3 25  1  0  0  0  0
  4 20  1  0  0  0  0
  4 49  1  0  0  0  0
  5 24  2  0  0  0  0
  6  7  1  0  0  0  0
  6  8  1  0  0  0  0
  6 26  1  0  0  0  0
  6 27  1  0  0  0  0
  7 10  1  0  0  0  0
  7 28  1  0  0  0  0
  7 29  1  0  0  0  0
  8  9  2  0  0  0  0
  8 12  1  0  0  0  0
  9 11  1  0  0  0  0
  9 30  1  0  0  0  0
 10 14  2  0  0  0  0
 10 31  1  0  0  0  0
 11 32  1  0  0  0  0
 11 33  1  0  0  0  0
 12 34  1  0  0  0  0
 12 35  1  0  0  0  0
 12 36  1  0  0  0  0
 13 17  2  0  0  0  0
 13 18  1  0  0  0  0
 14 20  1  0  0  0  0
 14 21  1  0  0  0  0
 15 16  1  0  0  0  0
 15 19  2  0  0  0  0
 15 22  1  0  0  0  0
 16 18  2  0  0  0  0
 17 19  1  0  0  0  0
 18 37  1  0  0  0  0
 19 38  1  0  0  0  0
 20 39  1  0  0  0  0
 20 40  1  0  0  0  0
 21 42  1  0  0  0  0
 21 43  1  0  0  0  0
 21 44  1  0  0  0  0
 22 23  2  0  0  0  0
 22 41  1  0  0  0  0
 23 24  1  0  0  0  0
 23 45  1  0  0  0  0
 25 46  1  0  0  0  0
 25 47  1  0  0  0  0
 25 48  1  0  0  0  0
M  END
>  <PUBCHEM_COMPOUND_CID>
11131723

>  <PUBCHEM_COMPOUND_CANONICALIZED>
1

>  <PUBCHEM_CACTVS_COMPLEXITY>
534

>  <PUBCHEM_CACTVS_HBOND_ACCEPTOR>
5

>  <PUBCHEM_CACTVS_HBOND_DONOR>
1

>  <PUBCHEM_CACTVS_ROTATABLE_BOND>
8

>  <PUBCHEM_CACTVS_SUBSKEYS>
AAADceB4OAAAAAAAAAAAAAAAAAAAAAAAAAAwQAAAAAAAAACBAAAAGgAACAAADASgmAIyDoAABgCIAiDSCAACCAAgIAAIiAAGiMgNNyKEMRqCeiKlwBUKuYfA4DwOIQABCAAIQABCAAIQABCAAAAAAAAAAA==

>  <PUBCHEM_IUPAC_OPENEYE_NAME>
7-[(2E,6E)-8-hydroxy-3,7-dimethyl-octa-2,6-dienoxy]-6-methoxy-chromen-2-one

>  <PUBCHEM_IUPAC_CAS_NAME>
7-[(2E,6E)-8-hydroxy-3,7-dimethylocta-2,6-dienoxy]-6-methoxy-1-benzopyran-2-one

>  <PUBCHEM_IUPAC_NAME>
7-[(2E,6E)-8-hydroxy-3,7-dimethylocta-2,6-dienoxy]-6-methoxychromen-2-one

>  <PUBCHEM_IUPAC_SYSTEMATIC_NAME>
7-[(2E,6E)-3,7-dimethyl-8-oxidanyl-octa-2,6-dienoxy]-6-methoxy-chromen-2-one

>  <PUBCHEM_IUPAC_TRADITIONAL_NAME>
7-[(2E,6E)-8-hydroxy-3,7-dimethyl-octa-2,6-dienoxy]-6-methoxy-coumarin

>  <PUBCHEM_IUPAC_INCHI>
InChI=1S/C20H24O5/c1-14(5-4-6-15(2)13-21)9-10-24-19-12-17-16(11-18(19)23-3)7-8-20(22)25-17/h6-9,11-12,21H,4-5,10,13H2,1-3H3/b14-9+,15-6+

>  <PUBCHEM_IUPAC_INCHIKEY>
TVDKTNHSAAVHMX-JFOHIDKFSA-N

>  <PUBCHEM_XLOGP3_AA>
4

>  <PUBCHEM_EXACT_MASS>
344.162

>  <PUBCHEM_MOLECULAR_FORMULA>
C20H24O5

>  <PUBCHEM_MOLECULAR_WEIGHT>
344.407

>  <PUBCHEM_OPENEYE_CAN_SMILES>
CC(=CCOC1=C(C=C2C=CC(=O)OC2=C1)OC)CCC=C(C)CO

>  <PUBCHEM_OPENEYE_ISO_SMILES>
C/C(=C\COC1=C(C=C2C=CC(=O)OC2=C1)OC)/CC/C=C(\C)/CO

>  <PUBCHEM_CACTVS_TPSA>
65

>  <PUBCHEM_MONOISOTOPIC_WEIGHT>
344.162

>  <PUBCHEM_TOTAL_CHARGE>
0

>  <PUBCHEM_HEAVY_ATOM_COUNT>
25

>  <PUBCHEM_ATOM_DEF_STEREO_COUNT>
0

>  <PUBCHEM_ATOM_UDEF_STEREO_COUNT>
0

>  <PUBCHEM_BOND_DEF_STEREO_COUNT>
2

>  <PUBCHEM_BOND_UDEF_STEREO_COUNT>
0

>  <PUBCHEM_ISOTOPIC_ATOM_COUNT>
0

>  <PUBCHEM_COMPONENT_COUNT>
1

>  <PUBCHEM_CACTVS_TAUTO_COUNT>
1

>  <PUBCHEM_COORDINATE_TYPE>
1
5
255

>  <PUBCHEM_BONDANNOTATIONS>
13  17  8
13  18  8
15  16  8
15  19  8
15  22  8
16  18  8
17  19  8
2  16  8
2  24  8
22  23  8
23  24  8

$$$$
