11151159
 OpenBabel06101807152D

 41 44  0  0  1  0  0  0  0  0999 V2000
    6.1621    0.1141    0.0000 O   0  0  0  0  0  0  0  0  0  0  0  0
    8.3061    2.1826    0.0000 O   0  0  0  0  0  0  0  0  0  0  0  0
    9.5751   -1.6837    0.0000 O   0  0  0  0  0  0  0  0  0  0  0  0
    2.6726    1.0184    0.0000 O   0  0  0  0  0  0  0  0  0  0  0  0
   10.9457   -0.1616    0.0000 O   0  0  0  0  0  0  0  0  0  0  0  0
    6.6589    1.6474    0.0000 C   0  0  3  0  0  0  0  0  0  0  0  0
    6.9679    0.6963    0.0000 C   0  0  3  0  0  0  0  0  0  0  0  0
    5.6648    1.6448    0.0000 C   0  0  0  0  0  0  0  0  0  0  0  0
    7.3280    2.3905    0.0000 C   0  0  0  0  0  0  0  0  0  0  0  0
    7.9460    0.4884    0.0000 C   0  0  0  0  0  0  0  0  0  0  0  0
    5.3584    0.6991    0.0000 C   0  0  0  0  0  0  0  0  0  0  0  0
    8.6152    1.2316    0.0000 C   0  0  0  0  0  0  0  0  0  0  0  0
    4.9832    2.4243    0.0000 C   0  0  0  0  0  0  0  0  0  0  0  0
    8.2526   -0.5071    0.0000 C   0  0  0  0  0  0  0  0  0  0  0  0
    4.3492    0.4674    0.0000 C   0  0  0  0  0  0  0  0  0  0  0  0
    9.6372    1.0307    0.0000 C   0  0  0  0  0  0  0  0  0  0  0  0
    3.9689    2.2160    0.0000 C   0  0  0  0  0  0  0  0  0  0  0  0
    9.2698   -0.7315    0.0000 C   0  0  0  0  0  0  0  0  0  0  0  0
    3.6498    1.2309    0.0000 C   0  0  0  0  0  0  0  0  0  0  0  0
    9.9668    0.0426    0.0000 C   0  0  0  0  0  0  0  0  0  0  0  0
    8.9031   -2.4243    0.0000 C   0  0  0  0  0  0  0  0  0  0  0  0
    2.0000    1.7583    0.0000 C   0  0  0  0  0  0  0  0  0  0  0  0
   11.6120    0.5842    0.0000 C   0  0  0  0  0  0  0  0  0  0  0  0
    6.4060    2.2134    0.0000 H   0  0  0  0  0  0  0  0  0  0  0  0
    7.0960    0.0897    0.0000 H   0  0  0  0  0  0  0  0  0  0  0  0
    7.5602    2.9654    0.0000 H   0  0  0  0  0  0  0  0  0  0  0  0
    6.8022    2.7191    0.0000 H   0  0  0  0  0  0  0  0  0  0  0  0
    5.1811    3.0119    0.0000 H   0  0  0  0  0  0  0  0  0  0  0  0
    7.8324   -0.9630    0.0000 H   0  0  0  0  0  0  0  0  0  0  0  0
    4.1650   -0.1246    0.0000 H   0  0  0  0  0  0  0  0  0  0  0  0
   10.0467    1.4962    0.0000 H   0  0  0  0  0  0  0  0  0  0  0  0
    3.5554    2.6779    0.0000 H   0  0  0  0  0  0  0  0  0  0  0  0
    8.4440   -2.0077    0.0000 H   0  0  0  0  0  0  0  0  0  0  0  0
    8.4865   -2.8834    0.0000 H   0  0  0  0  0  0  0  0  0  0  0  0
    9.3623   -2.8409    0.0000 H   0  0  0  0  0  0  0  0  0  0  0  0
    2.4588    2.1754    0.0000 H   0  0  0  0  0  0  0  0  0  0  0  0
    1.5830    2.2171    0.0000 H   0  0  0  0  0  0  0  0  0  0  0  0
    1.5412    1.3413    0.0000 H   0  0  0  0  0  0  0  0  0  0  0  0
   12.0743    0.1711    0.0000 H   0  0  0  0  0  0  0  0  0  0  0  0
   12.0250    1.0465    0.0000 H   0  0  0  0  0  0  0  0  0  0  0  0
   11.1496    0.9972    0.0000 H   0  0  0  0  0  0  0  0  0  0  0  0
  1  7  1  0  0  0  0
  1 11  1  0  0  0  0
  2  9  1  0  0  0  0
  2 12  1  0  0  0  0
  3 18  1  0  0  0  0
  3 21  1  0  0  0  0
  4 19  1  0  0  0  0
  4 22  1  0  0  0  0
  5 20  1  0  0  0  0
  5 23  1  0  0  0  0
  6  7  1  0  0  0  0
  6  8  1  0  0  0  0
  6  9  1  0  0  0  0
  6 24  1  0  0  0  0
  7 10  1  0  0  0  0
  7 25  1  0  0  0  0
  8 11  2  0  0  0  0
  8 13  1  0  0  0  0
  9 26  1  0  0  0  0
  9 27  1  0  0  0  0
 10 12  1  0  0  0  0
 10 14  2  0  0  0  0
 11 15  1  0  0  0  0
 12 16  2  0  0  0  0
 13 17  2  0  0  0  0
 13 28  1  0  0  0  0
 14 18  1  0  0  0  0
 14 29  1  0  0  0  0
 15 19  2  0  0  0  0
 15 30  1  0  0  0  0
 16 20  1  0  0  0  0
 16 31  1  0  0  0  0
 17 19  1  0  0  0  0
 17 32  1  0  0  0  0
 18 20  2  0  0  0  0
 21 33  1  0  0  0  0
 21 34  1  0  0  0  0
 21 35  1  0  0  0  0
 22 36  1  0  0  0  0
 22 37  1  0  0  0  0
 22 38  1  0  0  0  0
 23 39  1  0  0  0  0
 23 40  1  0  0  0  0
 23 41  1  0  0  0  0
M  END
>  <PUBCHEM_COMPOUND_CID>
11151159

>  <PUBCHEM_COMPOUND_CANONICALIZED>
1

>  <PUBCHEM_CACTVS_COMPLEXITY>
416

>  <PUBCHEM_CACTVS_HBOND_ACCEPTOR>
5

>  <PUBCHEM_CACTVS_HBOND_DONOR>
0

>  <PUBCHEM_CACTVS_ROTATABLE_BOND>
3

>  <PUBCHEM_CACTVS_SUBSKEYS>
AAADceB4OAAAAAAAAAAAAAAAAAAAASAAAAA0YIAAAAAAAEiRQAAAGgAAAAAADRSgmAIyBoAABACAAiBCAAACCAAgIAAIiAAGiIgNJyKEMRqCOCKlwBUKqAfA4PwOoQABCAAIQABCAAIQABCAAAAAAAAAAA==

>  <PUBCHEM_IUPAC_OPENEYE_NAME>
2,3,9-trimethoxy-6a,11a-dihydro-6H-benzofuro[3,2-c]chromene

>  <PUBCHEM_IUPAC_CAS_NAME>
2,3,9-trimethoxy-6a,11a-dihydro-6H-benzofuro[3,2-c][1]benzopyran

>  <PUBCHEM_IUPAC_NAME>
2,3,9-trimethoxy-6a,11a-dihydro-6H-[1]benzofuro[3,2-c]chromene

>  <PUBCHEM_IUPAC_SYSTEMATIC_NAME>
2,3,9-trimethoxy-6a,11a-dihydro-6H-[1]benzofuro[3,2-c]chromene

>  <PUBCHEM_IUPAC_TRADITIONAL_NAME>
2,3,9-trimethoxy-6a,11a-dihydro-6H-benzofuro[3,2-c]chromene

>  <PUBCHEM_IUPAC_INCHI>
InChI=1S/C18H18O5/c1-19-10-4-5-11-13-9-22-14-8-17(21-3)16(20-2)7-12(14)18(13)23-15(11)6-10/h4-8,13,18H,9H2,1-3H3

>  <PUBCHEM_IUPAC_INCHIKEY>
XCRBPIBUMBLGCZ-UHFFFAOYSA-N

>  <PUBCHEM_XLOGP3_AA>
2.9

>  <PUBCHEM_EXACT_MASS>
314.115

>  <PUBCHEM_MOLECULAR_FORMULA>
C18H18O5

>  <PUBCHEM_MOLECULAR_WEIGHT>
314.337

>  <PUBCHEM_OPENEYE_CAN_SMILES>
COC1=CC2=C(C=C1)C3COC4=CC(=C(C=C4C3O2)OC)OC

>  <PUBCHEM_OPENEYE_ISO_SMILES>
COC1=CC2=C(C=C1)C3COC4=CC(=C(C=C4C3O2)OC)OC

>  <PUBCHEM_CACTVS_TPSA>
46.2

>  <PUBCHEM_MONOISOTOPIC_WEIGHT>
314.115

>  <PUBCHEM_TOTAL_CHARGE>
0

>  <PUBCHEM_HEAVY_ATOM_COUNT>
23

>  <PUBCHEM_ATOM_DEF_STEREO_COUNT>
0

>  <PUBCHEM_ATOM_UDEF_STEREO_COUNT>
2

>  <PUBCHEM_BOND_DEF_STEREO_COUNT>
0

>  <PUBCHEM_BOND_UDEF_STEREO_COUNT>
0

>  <PUBCHEM_ISOTOPIC_ATOM_COUNT>
0

>  <PUBCHEM_COMPONENT_COUNT>
1

>  <PUBCHEM_CACTVS_TAUTO_COUNT>
1

>  <PUBCHEM_COORDINATE_TYPE>
1
5
255

>  <PUBCHEM_BONDANNOTATIONS>
7  1  3
10  12  8
10  14  8
11  15  8
12  16  8
13  17  8
14  18  8
15  19  8
16  20  8
17  19  8
18  20  8
6  9  3
8  11  8
8  13  8

$$$$
