11184822
 OpenBabel06101807152D

 33 35  0  0  0  0  0  0  0  0999 V2000
    2.9383   -1.2654    0.0000 O   0  0  0  0  0  0  0  0  0  0  0  0
    2.3053    0.6827    0.0000 O   0  0  0  0  0  0  0  0  0  0  0  0
    6.6750   -1.6758    0.0000 O   0  0  0  0  0  0  0  0  0  0  0  0
    7.9325    2.1943    0.0000 O   0  0  0  0  0  0  0  0  0  0  0  0
    5.8101    1.5952    0.0000 N   0  0  0  0  0  0  0  0  0  0  0  0
    6.3101    0.0564    0.0000 C   0  0  0  0  0  0  0  0  0  0  0  0
    5.3101    0.0564    0.0000 C   0  0  0  0  0  0  0  0  0  0  0  0
    5.0010    1.0074    0.0000 C   0  0  0  0  0  0  0  0  0  0  0  0
    6.6191    1.0074    0.0000 C   0  0  0  0  0  0  0  0  0  0  0  0
    6.9950   -0.7284    0.0000 C   0  0  0  0  0  0  0  0  0  0  0  0
    4.6251   -0.7284    0.0000 C   0  0  0  0  0  0  0  0  0  0  0  0
    3.9856    1.2397    0.0000 C   0  0  0  0  0  0  0  0  0  0  0  0
    7.6345    1.2397    0.0000 C   0  0  0  0  0  0  0  0  0  0  0  0
    8.0155   -0.5196    0.0000 C   0  0  0  0  0  0  0  0  0  0  0  0
    3.6046   -0.5196    0.0000 C   0  0  0  0  0  0  0  0  0  0  0  0
    3.2827    0.4710    0.0000 C   0  0  0  0  0  0  0  0  0  0  0  0
    8.3374    0.4710    0.0000 C   0  0  0  0  0  0  0  0  0  0  0  0
    8.6818   -1.2654    0.0000 C   0  0  0  0  0  0  0  0  0  0  0  0
    3.2510   -2.2152    0.0000 C   0  0  0  0  0  0  0  0  0  0  0  0
    2.0000    1.6349    0.0000 C   0  0  0  0  0  0  0  0  0  0  0  0
    5.8101    2.2152    0.0000 H   0  0  0  0  0  0  0  0  0  0  0  0
    4.8235   -1.3158    0.0000 H   0  0  0  0  0  0  0  0  0  0  0  0
    3.8009    1.8315    0.0000 H   0  0  0  0  0  0  0  0  0  0  0  0
    8.9434    0.6022    0.0000 H   0  0  0  0  0  0  0  0  0  0  0  0
    8.2194   -1.6784    0.0000 H   0  0  0  0  0  0  0  0  0  0  0  0
    9.0949   -1.7277    0.0000 H   0  0  0  0  0  0  0  0  0  0  0  0
    9.1441   -0.8523    0.0000 H   0  0  0  0  0  0  0  0  0  0  0  0
    2.6621   -2.4091    0.0000 H   0  0  0  0  0  0  0  0  0  0  0  0
    3.4448   -2.8041    0.0000 H   0  0  0  0  0  0  0  0  0  0  0  0
    3.8399   -2.0214    0.0000 H   0  0  0  0  0  0  0  0  0  0  0  0
    2.5904    1.8242    0.0000 H   0  0  0  0  0  0  0  0  0  0  0  0
    1.8107    2.2253    0.0000 H   0  0  0  0  0  0  0  0  0  0  0  0
    1.4096    1.4456    0.0000 H   0  0  0  0  0  0  0  0  0  0  0  0
  1 15  1  0  0  0  0
  1 19  1  0  0  0  0
  2 16  1  0  0  0  0
  2 20  1  0  0  0  0
  3 10  2  0  0  0  0
  4 13  2  0  0  0  0
  5  8  1  0  0  0  0
  5  9  1  0  0  0  0
  5 21  1  0  0  0  0
  6  7  1  0  0  0  0
  6  9  2  0  0  0  0
  6 10  1  0  0  0  0
  7  8  1  0  0  0  0
  7 11  2  0  0  0  0
  8 12  2  0  0  0  0
  9 13  1  0  0  0  0
 10 14  1  0  0  0  0
 11 15  1  0  0  0  0
 11 22  1  0  0  0  0
 12 16  1  0  0  0  0
 12 23  1  0  0  0  0
 13 17  1  0  0  0  0
 14 17  2  0  0  0  0
 14 18  1  0  0  0  0
 15 16  2  0  0  0  0
 17 24  1  0  0  0  0
 18 25  1  0  0  0  0
 18 26  1  0  0  0  0
 18 27  1  0  0  0  0
 19 28  1  0  0  0  0
 19 29  1  0  0  0  0
 19 30  1  0  0  0  0
 20 31  1  0  0  0  0
 20 32  1  0  0  0  0
 20 33  1  0  0  0  0
M  END
>  <PUBCHEM_COMPOUND_CID>
11184822

>  <PUBCHEM_COMPOUND_CANONICALIZED>
1

>  <PUBCHEM_CACTVS_COMPLEXITY>
473

>  <PUBCHEM_CACTVS_HBOND_ACCEPTOR>
4

>  <PUBCHEM_CACTVS_HBOND_DONOR>
1

>  <PUBCHEM_CACTVS_ROTATABLE_BOND>
2

>  <PUBCHEM_CACTVS_SUBSKEYS>
AAADccByOAAAAAAAAAAAAAAAAAAAAWAAAAAwQAAAAAAAAFgB8AAAHgAQAAAADAyBngIyxvLJlACoA6RyRACCiCAnIiAAmSG27NgNJvrEtbuEMapm0BnK6ce93fPeoEABAgACQABAgAIEAASAAAAAAAAAAA==

>  <PUBCHEM_IUPAC_OPENEYE_NAME>
6,7-dimethoxy-3-methyl-9H-carbazole-1,4-dione

>  <PUBCHEM_IUPAC_CAS_NAME>
6,7-dimethoxy-3-methyl-9H-carbazole-1,4-dione

>  <PUBCHEM_IUPAC_NAME>
6,7-dimethoxy-3-methyl-9H-carbazole-1,4-dione

>  <PUBCHEM_IUPAC_SYSTEMATIC_NAME>
6,7-dimethoxy-3-methyl-9H-carbazole-1,4-dione

>  <PUBCHEM_IUPAC_TRADITIONAL_NAME>
6,7-dimethoxy-3-methyl-9H-carbazole-1,4-quinone

>  <PUBCHEM_IUPAC_INCHI>
InChI=1S/C15H13NO4/c1-7-4-10(17)14-13(15(7)18)8-5-11(19-2)12(20-3)6-9(8)16-14/h4-6,16H,1-3H3

>  <PUBCHEM_IUPAC_INCHIKEY>
NIRRSVHUEHTZSM-UHFFFAOYSA-N

>  <PUBCHEM_XLOGP3_AA>
2.2

>  <PUBCHEM_EXACT_MASS>
271.084

>  <PUBCHEM_MOLECULAR_FORMULA>
C15H13NO4

>  <PUBCHEM_MOLECULAR_WEIGHT>
271.272

>  <PUBCHEM_OPENEYE_CAN_SMILES>
CC1=CC(=O)C2=C(C1=O)C3=CC(=C(C=C3N2)OC)OC

>  <PUBCHEM_OPENEYE_ISO_SMILES>
CC1=CC(=O)C2=C(C1=O)C3=CC(=C(C=C3N2)OC)OC

>  <PUBCHEM_CACTVS_TPSA>
68.4

>  <PUBCHEM_MONOISOTOPIC_WEIGHT>
271.084

>  <PUBCHEM_TOTAL_CHARGE>
0

>  <PUBCHEM_HEAVY_ATOM_COUNT>
20

>  <PUBCHEM_ATOM_DEF_STEREO_COUNT>
0

>  <PUBCHEM_ATOM_UDEF_STEREO_COUNT>
0

>  <PUBCHEM_BOND_DEF_STEREO_COUNT>
0

>  <PUBCHEM_BOND_UDEF_STEREO_COUNT>
0

>  <PUBCHEM_ISOTOPIC_ATOM_COUNT>
0

>  <PUBCHEM_COMPONENT_COUNT>
1

>  <PUBCHEM_CACTVS_TAUTO_COUNT>
17

>  <PUBCHEM_COORDINATE_TYPE>
1
5
255

>  <PUBCHEM_BONDANNOTATIONS>
11  15  8
12  16  8
15  16  8
5  8  8
5  9  8
6  7  8
6  9  8
7  11  8
7  8  8
8  12  8

$$$$
