11195626
 OpenBabel06101807152D

 24 26  0  0  0  0  0  0  0  0999 V2000
    6.3518    0.9700    0.0000 S   0  0  0  0  0  0  0  0  0  0  0  0
    5.3923   -1.9455    0.0000 O   0  0  0  0  0  0  0  0  0  0  0  0
    8.0321    0.4130    0.0000 O   0  0  0  0  0  0  0  0  0  0  0  0
    4.5274    1.3255    0.0000 N   0  0  0  0  0  0  0  0  0  0  0  0
    6.7328   -0.7894    0.0000 N   0  0  0  0  0  0  0  0  0  0  0  0
    5.0274   -0.2133    0.0000 C   0  0  0  0  0  0  0  0  0  0  0  0
    4.0274   -0.2133    0.0000 C   0  0  0  0  0  0  0  0  0  0  0  0
    3.7183    0.7377    0.0000 C   0  0  0  0  0  0  0  0  0  0  0  0
    5.3364    0.7377    0.0000 C   0  0  0  0  0  0  0  0  0  0  0  0
    5.7123   -0.9981    0.0000 C   0  0  0  0  0  0  0  0  0  0  0  0
    3.3424   -0.9981    0.0000 C   0  0  0  0  0  0  0  0  0  0  0  0
    2.7029    0.9700    0.0000 C   0  0  0  0  0  0  0  0  0  0  0  0
    7.0547    0.2013    0.0000 C   0  0  0  0  0  0  0  0  0  0  0  0
    2.3219   -0.7894    0.0000 C   0  0  0  0  0  0  0  0  0  0  0  0
    2.0000    0.2013    0.0000 C   0  0  0  0  0  0  0  0  0  0  0  0
    7.3991   -1.5351    0.0000 C   0  0  0  0  0  0  0  0  0  0  0  0
    4.5274    1.9455    0.0000 H   0  0  0  0  0  0  0  0  0  0  0  0
    3.5408   -1.5855    0.0000 H   0  0  0  0  0  0  0  0  0  0  0  0
    2.5182    1.5618    0.0000 H   0  0  0  0  0  0  0  0  0  0  0  0
    1.9088   -1.2517    0.0000 H   0  0  0  0  0  0  0  0  0  0  0  0
    1.3940    0.3325    0.0000 H   0  0  0  0  0  0  0  0  0  0  0  0
    6.9368   -1.9482    0.0000 H   0  0  0  0  0  0  0  0  0  0  0  0
    7.8122   -1.9974    0.0000 H   0  0  0  0  0  0  0  0  0  0  0  0
    7.8614   -1.1220    0.0000 H   0  0  0  0  0  0  0  0  0  0  0  0
  1  9  1  0  0  0  0
  1 13  1  0  0  0  0
  2 10  2  0  0  0  0
  3 13  2  0  0  0  0
  4  8  1  0  0  0  0
  4  9  1  0  0  0  0
  4 17  1  0  0  0  0
  5 10  1  0  0  0  0
  5 13  1  0  0  0  0
  5 16  1  0  0  0  0
  6  7  1  0  0  0  0
  6  9  2  0  0  0  0
  6 10  1  0  0  0  0
  7  8  1  0  0  0  0
  7 11  2  0  0  0  0
  8 12  2  0  0  0  0
 11 14  1  0  0  0  0
 11 18  1  0  0  0  0
 12 15  1  0  0  0  0
 12 19  1  0  0  0  0
 14 15  2  0  0  0  0
 14 20  1  0  0  0  0
 15 21  1  0  0  0  0
 16 22  1  0  0  0  0
 16 23  1  0  0  0  0
 16 24  1  0  0  0  0
M  END
>  <PUBCHEM_COMPOUND_CID>
11195626

>  <PUBCHEM_COMPOUND_CANONICALIZED>
1

>  <PUBCHEM_CACTVS_COMPLEXITY>
347

>  <PUBCHEM_CACTVS_HBOND_ACCEPTOR>
3

>  <PUBCHEM_CACTVS_HBOND_DONOR>
1

>  <PUBCHEM_CACTVS_ROTATABLE_BOND>
0

>  <PUBCHEM_CACTVS_SUBSKEYS>
AAADccBzMABAAAAAAAAAAAAAAAAAAWAAAAA8QAAAAAAAAFgB8AAAHgQQAAAADAiB3gQywfPJkAioAyVyVACC0iBlCjAImTE4ZNgIIPrg1ZGEIYhgliDIyUcciMCOgAAAAAACAAAAAAAAAAQAAAAAAAAAAA==

>  <PUBCHEM_IUPAC_OPENEYE_NAME>
3-methyl-9H-[1,3]thiazino[6,5-b]indole-2,4-dione

>  <PUBCHEM_IUPAC_CAS_NAME>
3-methyl-9H-[1,3]thiazino[6,5-b]indole-2,4-dione

>  <PUBCHEM_IUPAC_NAME>
3-methyl-9H-[1,3]thiazino[6,5-b]indole-2,4-dione

>  <PUBCHEM_IUPAC_SYSTEMATIC_NAME>
3-methyl-9H-[1,3]thiazino[6,5-b]indole-2,4-dione

>  <PUBCHEM_IUPAC_TRADITIONAL_NAME>
3-methyl-9H-[1,3]thiazin[6,5-b]indole-2,4-quinone

>  <PUBCHEM_IUPAC_INCHI>
InChI=1S/C11H8N2O2S/c1-13-10(14)8-6-4-2-3-5-7(6)12-9(8)16-11(13)15/h2-5,12H,1H3

>  <PUBCHEM_IUPAC_INCHIKEY>
NJGJFPPBMOBRGB-UHFFFAOYSA-N

>  <PUBCHEM_XLOGP3_AA>
2.2

>  <PUBCHEM_EXACT_MASS>
232.031

>  <PUBCHEM_MOLECULAR_FORMULA>
C11H8N2O2S

>  <PUBCHEM_MOLECULAR_WEIGHT>
232.257

>  <PUBCHEM_OPENEYE_CAN_SMILES>
CN1C(=O)C2=C(NC3=CC=CC=C32)SC1=O

>  <PUBCHEM_OPENEYE_ISO_SMILES>
CN1C(=O)C2=C(NC3=CC=CC=C32)SC1=O

>  <PUBCHEM_CACTVS_TPSA>
78.5

>  <PUBCHEM_MONOISOTOPIC_WEIGHT>
232.031

>  <PUBCHEM_TOTAL_CHARGE>
0

>  <PUBCHEM_HEAVY_ATOM_COUNT>
16

>  <PUBCHEM_ATOM_DEF_STEREO_COUNT>
0

>  <PUBCHEM_ATOM_UDEF_STEREO_COUNT>
0

>  <PUBCHEM_BOND_DEF_STEREO_COUNT>
0

>  <PUBCHEM_BOND_UDEF_STEREO_COUNT>
0

>  <PUBCHEM_ISOTOPIC_ATOM_COUNT>
0

>  <PUBCHEM_COMPONENT_COUNT>
1

>  <PUBCHEM_CACTVS_TAUTO_COUNT>
3

>  <PUBCHEM_COORDINATE_TYPE>
1
5
255

>  <PUBCHEM_BONDANNOTATIONS>
1  13  8
1  9  8
11  14  8
12  15  8
14  15  8
4  8  8
4  9  8
5  10  8
5  13  8
6  10  8
6  7  8
6  9  8
7  11  8
7  8  8
8  12  8

$$$$
