11200524
 OpenBabel06101807152D

 50 53  0  0  0  0  0  0  0  0999 V2000
    8.1282   -2.7500    0.0000 O   0  0  0  0  0  0  0  0  0  0  0  0
    5.5301    2.7500    0.0000 O   0  0  0  0  0  0  0  0  0  0  0  0
    8.1282    1.2500    0.0000 O   0  0  0  0  0  0  0  0  0  0  0  0
    5.5301   -1.2500    0.0000 O   0  0  0  0  0  0  0  0  0  0  0  0
    9.8766   -2.7846    0.0000 O   0  0  0  0  0  0  0  0  0  0  0  0
    3.7817    2.7846    0.0000 O   0  0  0  0  0  0  0  0  0  0  0  0
    7.2622   -0.2500    0.0000 C   0  0  0  0  0  0  0  0  0  0  0  0
    6.3961    0.2500    0.0000 C   0  0  0  0  0  0  0  0  0  0  0  0
    8.9942   -0.2500    0.0000 C   0  0  0  0  0  0  0  0  0  0  0  0
    4.6641    0.2500    0.0000 C   0  0  0  0  0  0  0  0  0  0  0  0
    4.6641    1.2500    0.0000 C   0  0  0  0  0  0  0  0  0  0  0  0
    8.9942   -1.2500    0.0000 C   0  0  0  0  0  0  0  0  0  0  0  0
    8.1282    0.2500    0.0000 C   0  0  0  0  0  0  0  0  0  0  0  0
    5.5301   -0.2500    0.0000 C   0  0  0  0  0  0  0  0  0  0  0  0
    8.1282   -1.7500    0.0000 C   0  0  0  0  0  0  0  0  0  0  0  0
    5.5301    1.7500    0.0000 C   0  0  0  0  0  0  0  0  0  0  0  0
    7.2622   -1.2500    0.0000 C   0  0  0  0  0  0  0  0  0  0  0  0
    6.3961    1.2500    0.0000 C   0  0  0  0  0  0  0  0  0  0  0  0
    9.8882    0.2847    0.0000 C   0  0  0  0  0  0  0  0  0  0  0  0
    3.7702   -0.2847    0.0000 C   0  0  0  0  0  0  0  0  0  0  0  0
    9.8882   -1.7847    0.0000 C   0  0  0  0  0  0  0  0  0  0  0  0
    3.7702    1.7847    0.0000 C   0  0  0  0  0  0  0  0  0  0  0  0
   10.7942   -0.2292    0.0000 C   0  0  0  0  0  0  0  0  0  0  0  0
    2.8641    0.2292    0.0000 C   0  0  0  0  0  0  0  0  0  0  0  0
   10.7942   -1.2708    0.0000 C   0  0  0  0  0  0  0  0  0  0  0  0
    2.8641    1.2708    0.0000 C   0  0  0  0  0  0  0  0  0  0  0  0
    2.0000   -0.2742    0.0000 C   0  0  0  0  0  0  0  0  0  0  0  0
   11.6583    0.2742    0.0000 C   0  0  0  0  0  0  0  0  0  0  0  0
    6.3961    3.2500    0.0000 C   0  0  0  0  0  0  0  0  0  0  0  0
    7.2622   -3.2500    0.0000 C   0  0  0  0  0  0  0  0  0  0  0  0
    6.9331    1.5600    0.0000 H   0  0  0  0  0  0  0  0  0  0  0  0
    6.7252   -1.5600    0.0000 H   0  0  0  0  0  0  0  0  0  0  0  0
    3.7773   -0.9046    0.0000 H   0  0  0  0  0  0  0  0  0  0  0  0
    9.8810    0.9046    0.0000 H   0  0  0  0  0  0  0  0  0  0  0  0
    2.3284    1.5829    0.0000 H   0  0  0  0  0  0  0  0  0  0  0  0
   11.3300   -1.5829    0.0000 H   0  0  0  0  0  0  0  0  0  0  0  0
    1.6879    0.2616    0.0000 H   0  0  0  0  0  0  0  0  0  0  0  0
    1.4643   -0.5862    0.0000 H   0  0  0  0  0  0  0  0  0  0  0  0
   11.9704   -0.2616    0.0000 H   0  0  0  0  0  0  0  0  0  0  0  0
   12.1941    0.5862    0.0000 H   0  0  0  0  0  0  0  0  0  0  0  0
   11.3463    0.8099    0.0000 H   0  0  0  0  0  0  0  0  0  0  0  0
    2.3121   -0.8099    0.0000 H   0  0  0  0  0  0  0  0  0  0  0  0
   10.4099   -3.1008    0.0000 H   0  0  0  0  0  0  0  0  0  0  0  0
    3.2484    3.1008    0.0000 H   0  0  0  0  0  0  0  0  0  0  0  0
    6.9522   -2.7131    0.0000 H   0  0  0  0  0  0  0  0  0  0  0  0
    6.7252   -3.5600    0.0000 H   0  0  0  0  0  0  0  0  0  0  0  0
    6.7062    2.7131    0.0000 H   0  0  0  0  0  0  0  0  0  0  0  0
    6.9331    3.5600    0.0000 H   0  0  0  0  0  0  0  0  0  0  0  0
    6.0862    3.7869    0.0000 H   0  0  0  0  0  0  0  0  0  0  0  0
    7.5722   -3.7869    0.0000 H   0  0  0  0  0  0  0  0  0  0  0  0
  1 15  1  0  0  0  0
  1 30  1  0  0  0  0
  2 16  1  0  0  0  0
  2 29  1  0  0  0  0
  3 13  2  0  0  0  0
  4 14  2  0  0  0  0
  5 21  1  0  0  0  0
  5 43  1  0  0  0  0
  6 22  1  0  0  0  0
  6 44  1  0  0  0  0
  7  8  2  0  0  0  0
  7 13  1  0  0  0  0
  7 17  1  0  0  0  0
  8 14  1  0  0  0  0
  8 18  1  0  0  0  0
  9 12  2  0  0  0  0
  9 13  1  0  0  0  0
  9 19  1  0  0  0  0
 10 11  2  0  0  0  0
 10 14  1  0  0  0  0
 10 20  1  0  0  0  0
 11 16  1  0  0  0  0
 11 22  1  0  0  0  0
 12 15  1  0  0  0  0
 12 21  1  0  0  0  0
 15 17  2  0  0  0  0
 16 18  2  0  0  0  0
 17 32  1  0  0  0  0
 18 31  1  0  0  0  0
 19 23  2  0  0  0  0
 19 34  1  0  0  0  0
 20 24  2  0  0  0  0
 20 33  1  0  0  0  0
 21 25  2  0  0  0  0
 22 26  2  0  0  0  0
 23 25  1  0  0  0  0
 23 28  1  0  0  0  0
 24 26  1  0  0  0  0
 24 27  1  0  0  0  0
 25 36  1  0  0  0  0
 26 35  1  0  0  0  0
 27 37  1  0  0  0  0
 27 38  1  0  0  0  0
 27 42  1  0  0  0  0
 28 39  1  0  0  0  0
 28 40  1  0  0  0  0
 28 41  1  0  0  0  0
 29 47  1  0  0  0  0
 29 48  1  0  0  0  0
 29 49  1  0  0  0  0
 30 45  1  0  0  0  0
 30 46  1  0  0  0  0
 30 50  1  0  0  0  0
M  END
>  <PUBCHEM_COMPOUND_CID>
11200524

>  <PUBCHEM_COMPOUND_CANONICALIZED>
1

>  <PUBCHEM_CACTVS_COMPLEXITY>
769

>  <PUBCHEM_CACTVS_HBOND_ACCEPTOR>
6

>  <PUBCHEM_CACTVS_HBOND_DONOR>
2

>  <PUBCHEM_CACTVS_ROTATABLE_BOND>
2

>  <PUBCHEM_CACTVS_SUBSKEYS>
AAADceB4OAAAAAAAAAAAAAAAAAAAAAAAAAAwYIEAAAAAAACBQAAAGgAACAAADASAmAIyBoAABgCIAqBSAAACCAAkIAAAiAEGCMgIJzKCNRqAcQAlwBEIuYeKyPCOwAADAAAYAACAAAYAADAAAAAAAAAAAA==

>  <PUBCHEM_IUPAC_OPENEYE_NAME>
(2E)-5-hydroxy-2-(5-hydroxy-4-methoxy-7-methyl-1-oxo-2-naphthylidene)-4-methoxy-7-methyl-naphthalen-1-one

>  <PUBCHEM_IUPAC_CAS_NAME>
(2E)-5-hydroxy-2-(5-hydroxy-4-methoxy-7-methyl-1-oxo-2-naphthalenylidene)-4-methoxy-7-methyl-1-naphthalenone

>  <PUBCHEM_IUPAC_NAME>
(2E)-5-hydroxy-2-(5-hydroxy-4-methoxy-7-methyl-1-oxonaphthalen-2-ylidene)-4-methoxy-7-methylnaphthalen-1-one

>  <PUBCHEM_IUPAC_SYSTEMATIC_NAME>
(2E)-4-methoxy-2-(4-methoxy-7-methyl-5-oxidanyl-1-oxidanylidene-naphthalen-2-ylidene)-7-methyl-5-oxidanyl-naphthalen-1-one

>  <PUBCHEM_IUPAC_TRADITIONAL_NAME>
(2E)-5-hydroxy-2-(5-hydroxy-1-keto-4-methoxy-7-methyl-2-naphthylidene)-4-methoxy-7-methyl-naphthalen-1-one

>  <PUBCHEM_IUPAC_INCHI>
InChI=1S/C24H20O6/c1-11-5-15-21(17(25)7-11)19(29-3)9-13(23(15)27)14-10-20(30-4)22-16(24(14)28)6-12(2)8-18(22)26/h5-10,25-26H,1-4H3/b14-13+

>  <PUBCHEM_IUPAC_INCHIKEY>
HVSMANGMDQFHLH-BUHFOSPRSA-N

>  <PUBCHEM_XLOGP3_AA>
3.8

>  <PUBCHEM_EXACT_MASS>
404.126

>  <PUBCHEM_MOLECULAR_FORMULA>
C24H20O6

>  <PUBCHEM_MOLECULAR_WEIGHT>
404.418

>  <PUBCHEM_OPENEYE_CAN_SMILES>
CC1=CC(=C2C(=C1)C(=O)C(=C3C=C(C4=C(C=C(C=C4C3=O)C)O)OC)C=C2OC)O

>  <PUBCHEM_OPENEYE_ISO_SMILES>
CC1=CC(=C2C(=C1)C(=O)/C(=C/3\C=C(C4=C(C=C(C=C4C3=O)C)O)OC)/C=C2OC)O

>  <PUBCHEM_CACTVS_TPSA>
93.1

>  <PUBCHEM_MONOISOTOPIC_WEIGHT>
404.126

>  <PUBCHEM_TOTAL_CHARGE>
0

>  <PUBCHEM_HEAVY_ATOM_COUNT>
30

>  <PUBCHEM_ATOM_DEF_STEREO_COUNT>
0

>  <PUBCHEM_ATOM_UDEF_STEREO_COUNT>
0

>  <PUBCHEM_BOND_DEF_STEREO_COUNT>
1

>  <PUBCHEM_BOND_UDEF_STEREO_COUNT>
0

>  <PUBCHEM_ISOTOPIC_ATOM_COUNT>
0

>  <PUBCHEM_COMPONENT_COUNT>
1

>  <PUBCHEM_CACTVS_TAUTO_COUNT>
150

>  <PUBCHEM_COORDINATE_TYPE>
1
5
255

>  <PUBCHEM_BONDANNOTATIONS>
10  11  8
10  20  8
11  22  8
12  21  8
19  23  8
20  24  8
21  25  8
22  26  8
23  25  8
24  26  8
9  12  8
9  19  8

$$$$
