11222817
 OpenBabel06101807152D

 61 62  0  0  0  0  0  0  0  0999 V2000
   19.4007    0.4947    0.0000 O   0  0  0  0  0  0  0  0  0  0  0  0
   19.4007   -1.1147    0.0000 O   0  0  0  0  0  0  0  0  0  0  0  0
    6.3301   -0.8100    0.0000 O   0  0  0  0  0  0  0  0  0  0  0  0
    5.4641    0.6900    0.0000 N   0  0  0  0  0  0  0  0  0  0  0  0
    2.8660    0.1900    0.0000 C   0  0  0  0  0  0  0  0  0  0  0  0
   12.3923    0.6900    0.0000 C   0  0  0  0  0  0  0  0  0  0  0  0
    3.7320    0.6900    0.0000 C   0  0  0  0  0  0  0  0  0  0  0  0
   13.2583    0.1900    0.0000 C   0  0  0  0  0  0  0  0  0  0  0  0
   11.5263    0.1900    0.0000 C   0  0  0  0  0  0  0  0  0  0  0  0
    4.5981    0.1900    0.0000 C   0  0  0  0  0  0  0  0  0  0  0  0
   14.1244    0.6900    0.0000 C   0  0  0  0  0  0  0  0  0  0  0  0
   10.6603    0.6900    0.0000 C   0  0  0  0  0  0  0  0  0  0  0  0
    2.0000    0.6900    0.0000 C   0  0  0  0  0  0  0  0  0  0  0  0
    2.8660   -0.8100    0.0000 C   0  0  0  0  0  0  0  0  0  0  0  0
   14.9904    0.1900    0.0000 C   0  0  0  0  0  0  0  0  0  0  0  0
    9.7942    0.1900    0.0000 C   0  0  0  0  0  0  0  0  0  0  0  0
   15.8564    0.6900    0.0000 C   0  0  0  0  0  0  0  0  0  0  0  0
   16.7224    0.1900    0.0000 C   0  0  0  0  0  0  0  0  0  0  0  0
    6.3301    0.1900    0.0000 C   0  0  0  0  0  0  0  0  0  0  0  0
    8.9282    0.6900    0.0000 C   0  0  0  0  0  0  0  0  0  0  0  0
   17.5885    0.6900    0.0000 C   0  0  0  0  0  0  0  0  0  0  0  0
   18.4545    0.1900    0.0000 C   0  0  0  0  0  0  0  0  0  0  0  0
   18.4545   -0.8100    0.0000 C   0  0  0  0  0  0  0  0  0  0  0  0
   16.7224   -0.8100    0.0000 C   0  0  0  0  0  0  0  0  0  0  0  0
    7.1962    0.6900    0.0000 C   0  0  0  0  0  0  0  0  0  0  0  0
   17.5885   -1.3100    0.0000 C   0  0  0  0  0  0  0  0  0  0  0  0
    8.0622    0.1900    0.0000 C   0  0  0  0  0  0  0  0  0  0  0  0
   19.9843   -0.3100    0.0000 C   0  0  0  0  0  0  0  0  0  0  0  0
    2.8660    0.8100    0.0000 H   0  0  0  0  0  0  0  0  0  0  0  0
   12.7908    1.1650    0.0000 H   0  0  0  0  0  0  0  0  0  0  0  0
   11.9938    1.1650    0.0000 H   0  0  0  0  0  0  0  0  0  0  0  0
    4.1306    1.1650    0.0000 H   0  0  0  0  0  0  0  0  0  0  0  0
    3.3335    1.1650    0.0000 H   0  0  0  0  0  0  0  0  0  0  0  0
   12.8598   -0.2849    0.0000 H   0  0  0  0  0  0  0  0  0  0  0  0
   13.6569   -0.2849    0.0000 H   0  0  0  0  0  0  0  0  0  0  0  0
   11.1278   -0.2849    0.0000 H   0  0  0  0  0  0  0  0  0  0  0  0
   11.9248   -0.2849    0.0000 H   0  0  0  0  0  0  0  0  0  0  0  0
    4.1996   -0.2849    0.0000 H   0  0  0  0  0  0  0  0  0  0  0  0
    4.9966   -0.2849    0.0000 H   0  0  0  0  0  0  0  0  0  0  0  0
   14.5229    1.1650    0.0000 H   0  0  0  0  0  0  0  0  0  0  0  0
   13.7258    1.1650    0.0000 H   0  0  0  0  0  0  0  0  0  0  0  0
   11.0588    1.1650    0.0000 H   0  0  0  0  0  0  0  0  0  0  0  0
   10.2617    1.1650    0.0000 H   0  0  0  0  0  0  0  0  0  0  0  0
    2.2460   -0.8100    0.0000 H   0  0  0  0  0  0  0  0  0  0  0  0
    2.3100    1.2269    0.0000 H   0  0  0  0  0  0  0  0  0  0  0  0
    1.4631    1.0000    0.0000 H   0  0  0  0  0  0  0  0  0  0  0  0
    1.6900    0.1531    0.0000 H   0  0  0  0  0  0  0  0  0  0  0  0
    2.8660   -1.4300    0.0000 H   0  0  0  0  0  0  0  0  0  0  0  0
    3.4860   -0.8100    0.0000 H   0  0  0  0  0  0  0  0  0  0  0  0
   14.9904   -0.4300    0.0000 H   0  0  0  0  0  0  0  0  0  0  0  0
    5.4641    1.3100    0.0000 H   0  0  0  0  0  0  0  0  0  0  0  0
    9.7942   -0.4300    0.0000 H   0  0  0  0  0  0  0  0  0  0  0  0
   15.8564    1.3100    0.0000 H   0  0  0  0  0  0  0  0  0  0  0  0
    8.9282    1.3100    0.0000 H   0  0  0  0  0  0  0  0  0  0  0  0
   17.5885    1.3100    0.0000 H   0  0  0  0  0  0  0  0  0  0  0  0
   16.1855   -1.1200    0.0000 H   0  0  0  0  0  0  0  0  0  0  0  0
   17.5885   -1.9300    0.0000 H   0  0  0  0  0  0  0  0  0  0  0  0
    7.1962    1.3100    0.0000 H   0  0  0  0  0  0  0  0  0  0  0  0
    8.0622   -0.4300    0.0000 H   0  0  0  0  0  0  0  0  0  0  0  0
   20.4452   -0.7247    0.0000 H   0  0  0  0  0  0  0  0  0  0  0  0
   20.4452    0.1047    0.0000 H   0  0  0  0  0  0  0  0  0  0  0  0
  1 22  1  0  0  0  0
  1 28  1  0  0  0  0
  2 23  1  0  0  0  0
  2 28  1  0  0  0  0
  3 19  2  0  0  0  0
  4 10  1  0  0  0  0
  4 19  1  0  0  0  0
  4 51  1  0  0  0  0
  5  7  1  0  0  0  0
  5 13  1  0  0  0  0
  5 14  1  0  0  0  0
  5 29  1  0  0  0  0
  6  8  1  0  0  0  0
  6  9  1  0  0  0  0
  6 30  1  0  0  0  0
  6 31  1  0  0  0  0
  7 10  1  0  0  0  0
  7 32  1  0  0  0  0
  7 33  1  0  0  0  0
  8 11  1  0  0  0  0
  8 34  1  0  0  0  0
  8 35  1  0  0  0  0
  9 12  1  0  0  0  0
  9 36  1  0  0  0  0
  9 37  1  0  0  0  0
 10 38  1  0  0  0  0
 10 39  1  0  0  0  0
 11 15  1  0  0  0  0
 11 40  1  0  0  0  0
 11 41  1  0  0  0  0
 12 16  1  0  0  0  0
 12 42  1  0  0  0  0
 12 43  1  0  0  0  0
 13 45  1  0  0  0  0
 13 46  1  0  0  0  0
 13 47  1  0  0  0  0
 14 44  1  0  0  0  0
 14 48  1  0  0  0  0
 14 49  1  0  0  0  0
 15 17  2  0  0  0  0
 15 50  1  0  0  0  0
 16 20  2  0  0  0  0
 16 52  1  0  0  0  0
 17 18  1  0  0  0  0
 17 53  1  0  0  0  0
 18 21  2  0  0  0  0
 18 24  1  0  0  0  0
 19 25  1  0  0  0  0
 20 27  1  0  0  0  0
 20 54  1  0  0  0  0
 21 22  1  0  0  0  0
 21 55  1  0  0  0  0
 22 23  2  0  0  0  0
 23 26  1  0  0  0  0
 24 26  2  0  0  0  0
 24 56  1  0  0  0  0
 25 27  2  0  0  0  0
 25 58  1  0  0  0  0
 26 57  1  0  0  0  0
 27 59  1  0  0  0  0
 28 60  1  0  0  0  0
 28 61  1  0  0  0  0
M  END
>  <PUBCHEM_COMPOUND_CID>
11222817

>  <PUBCHEM_COMPOUND_CANONICALIZED>
1

>  <PUBCHEM_CACTVS_COMPLEXITY>
524

>  <PUBCHEM_CACTVS_HBOND_ACCEPTOR>
3

>  <PUBCHEM_CACTVS_HBOND_DONOR>
1

>  <PUBCHEM_CACTVS_ROTATABLE_BOND>
12

>  <PUBCHEM_CACTVS_SUBSKEYS>
AAADcfB6MAAAAAAAAAAAAAAAAAAAASAAAAAwAAAAAAAAAEgBAAAAHgAQAAAADQTBmAcyDoLABACIAiFSEACCCAAgIAAIiIAOiMgdJiKEsRqkMCIk1hGOqYeAwBAOIAABAAAAQABAAAIAAACAAAAAAAAAAA==

>  <PUBCHEM_IUPAC_OPENEYE_NAME>
(2E,4E,11E)-12-(1,3-benzodioxol-5-yl)-N-isopentyl-dodeca-2,4,11-trienamide

>  <PUBCHEM_IUPAC_CAS_NAME>
(2E,4E,11E)-12-(1,3-benzodioxol-5-yl)-N-(3-methylbutyl)dodeca-2,4,11-trienamide

>  <PUBCHEM_IUPAC_NAME>
(2E,4E,11E)-12-(1,3-benzodioxol-5-yl)-N-(3-methylbutyl)dodeca-2,4,11-trienamide

>  <PUBCHEM_IUPAC_SYSTEMATIC_NAME>
(2E,4E,11E)-12-(1,3-benzodioxol-5-yl)-N-(3-methylbutyl)dodeca-2,4,11-trienamide

>  <PUBCHEM_IUPAC_TRADITIONAL_NAME>
(2E,4E,11E)-12-(1,3-benzodioxol-5-yl)-N-isoamyl-dodeca-2,4,11-trienamide

>  <PUBCHEM_IUPAC_INCHI>
InChI=1S/C24H33NO3/c1-20(2)16-17-25-24(26)13-11-9-7-5-3-4-6-8-10-12-21-14-15-22-23(18-21)28-19-27-22/h7,9-15,18,20H,3-6,8,16-17,19H2,1-2H3,(H,25,26)/b9-7+,12-10+,13-11+

>  <PUBCHEM_IUPAC_INCHIKEY>
DWPMNGYHFAAZBH-JPSRSCNUSA-N

>  <PUBCHEM_XLOGP3_AA>
6.6

>  <PUBCHEM_EXACT_MASS>
383.246

>  <PUBCHEM_MOLECULAR_FORMULA>
C24H33NO3

>  <PUBCHEM_MOLECULAR_WEIGHT>
383.532

>  <PUBCHEM_OPENEYE_CAN_SMILES>
CC(C)CCNC(=O)C=CC=CCCCCCC=CC1=CC2=C(C=C1)OCO2

>  <PUBCHEM_OPENEYE_ISO_SMILES>
CC(C)CCNC(=O)/C=C/C=C/CCCCC/C=C/C1=CC2=C(C=C1)OCO2

>  <PUBCHEM_CACTVS_TPSA>
47.6

>  <PUBCHEM_MONOISOTOPIC_WEIGHT>
383.246

>  <PUBCHEM_TOTAL_CHARGE>
0

>  <PUBCHEM_HEAVY_ATOM_COUNT>
28

>  <PUBCHEM_ATOM_DEF_STEREO_COUNT>
0

>  <PUBCHEM_ATOM_UDEF_STEREO_COUNT>
0

>  <PUBCHEM_BOND_DEF_STEREO_COUNT>
3

>  <PUBCHEM_BOND_UDEF_STEREO_COUNT>
0

>  <PUBCHEM_ISOTOPIC_ATOM_COUNT>
0

>  <PUBCHEM_COMPONENT_COUNT>
1

>  <PUBCHEM_CACTVS_TAUTO_COUNT>
5

>  <PUBCHEM_COORDINATE_TYPE>
1
5
255

>  <PUBCHEM_BONDANNOTATIONS>
18  21  8
18  24  8
21  22  8
22  23  8
23  26  8
24  26  8

$$$$
