11243539
 OpenBabel06101807152D

 41 42  0  0  0  0  0  0  0  0999 V2000
    4.6660    2.0223    0.0000 O   0  0  0  0  0  0  0  0  0  0  0  0
    2.9176   -2.0123    0.0000 O   0  0  0  0  0  0  0  0  0  0  0  0
    6.3981   -0.9777    0.0000 O   0  0  0  0  0  0  0  0  0  0  0  0
    7.2641   -0.4777    0.0000 O   0  0  0  0  0  0  0  0  0  0  0  0
    4.6660   -0.9777    0.0000 N   0  0  0  0  0  0  0  0  0  0  0  0
    3.8000   -0.4777    0.0000 C   0  0  0  0  0  0  0  0  0  0  0  0
    3.8000    0.5223    0.0000 C   0  0  0  0  0  0  0  0  0  0  0  0
    5.5321    0.5223    0.0000 C   0  0  0  0  0  0  0  0  0  0  0  0
    4.6660    1.0223    0.0000 C   0  0  0  0  0  0  0  0  0  0  0  0
    5.5321   -0.4777    0.0000 C   0  0  0  0  0  0  0  0  0  0  0  0
    6.3981    1.0223    0.0000 C   0  0  0  0  0  0  0  0  0  0  0  0
    2.9061   -1.0124    0.0000 C   0  0  0  0  0  0  0  0  0  0  0  0
    2.9061    1.0570    0.0000 C   0  0  0  0  0  0  0  0  0  0  0  0
    4.6660   -1.9777    0.0000 C   0  0  0  0  0  0  0  0  0  0  0  0
    2.0000   -0.4985    0.0000 C   0  0  0  0  0  0  0  0  0  0  0  0
    2.0000    0.5431    0.0000 C   0  0  0  0  0  0  0  0  0  0  0  0
    7.2641    0.5223    0.0000 C   0  0  0  0  0  0  0  0  0  0  0  0
    8.1301    1.0223    0.0000 C   0  0  0  0  0  0  0  0  0  0  0  0
    5.5321    2.5223    0.0000 C   0  0  0  0  0  0  0  0  0  0  0  0
    2.0574   -2.5223    0.0000 C   0  0  0  0  0  0  0  0  0  0  0  0
    8.9962    0.5223    0.0000 C   0  0  0  0  0  0  0  0  0  0  0  0
    8.1301    2.0223    0.0000 C   0  0  0  0  0  0  0  0  0  0  0  0
    6.7966    1.4972    0.0000 H   0  0  0  0  0  0  0  0  0  0  0  0
    5.9996    1.4972    0.0000 H   0  0  0  0  0  0  0  0  0  0  0  0
    2.9132    1.6769    0.0000 H   0  0  0  0  0  0  0  0  0  0  0  0
    4.0460   -1.9777    0.0000 H   0  0  0  0  0  0  0  0  0  0  0  0
    4.6660   -2.5977    0.0000 H   0  0  0  0  0  0  0  0  0  0  0  0
    5.2860   -1.9777    0.0000 H   0  0  0  0  0  0  0  0  0  0  0  0
    1.4643   -0.8106    0.0000 H   0  0  0  0  0  0  0  0  0  0  0  0
    1.4643    0.8552    0.0000 H   0  0  0  0  0  0  0  0  0  0  0  0
    5.8421    1.9854    0.0000 H   0  0  0  0  0  0  0  0  0  0  0  0
    6.0690    2.8323    0.0000 H   0  0  0  0  0  0  0  0  0  0  0  0
    5.2221    3.0592    0.0000 H   0  0  0  0  0  0  0  0  0  0  0  0
    1.7413   -1.9890    0.0000 H   0  0  0  0  0  0  0  0  0  0  0  0
    1.5241   -2.8385    0.0000 H   0  0  0  0  0  0  0  0  0  0  0  0
    2.3736   -3.0556    0.0000 H   0  0  0  0  0  0  0  0  0  0  0  0
    8.6862   -0.0146    0.0000 H   0  0  0  0  0  0  0  0  0  0  0  0
    9.5331    0.2123    0.0000 H   0  0  0  0  0  0  0  0  0  0  0  0
    9.3062    1.0592    0.0000 H   0  0  0  0  0  0  0  0  0  0  0  0
    8.6671    2.3323    0.0000 H   0  0  0  0  0  0  0  0  0  0  0  0
    7.5932    2.3323    0.0000 H   0  0  0  0  0  0  0  0  0  0  0  0
  1  9  1  0  0  0  0
  1 19  1  0  0  0  0
  2 12  1  0  0  0  0
  2 20  1  0  0  0  0
  3 10  2  0  0  0  0
  4 17  2  0  0  0  0
  5  6  1  0  0  0  0
  5 10  1  0  0  0  0
  5 14  1  0  0  0  0
  6  7  2  0  0  0  0
  6 12  1  0  0  0  0
  7  9  1  0  0  0  0
  7 13  1  0  0  0  0
  8  9  2  0  0  0  0
  8 10  1  0  0  0  0
  8 11  1  0  0  0  0
 11 17  1  0  0  0  0
 11 23  1  0  0  0  0
 11 24  1  0  0  0  0
 12 15  2  0  0  0  0
 13 16  2  0  0  0  0
 13 25  1  0  0  0  0
 14 26  1  0  0  0  0
 14 27  1  0  0  0  0
 14 28  1  0  0  0  0
 15 16  1  0  0  0  0
 15 29  1  0  0  0  0
 16 30  1  0  0  0  0
 17 18  1  0  0  0  0
 18 21  1  0  0  0  0
 18 22  2  0  0  0  0
 19 31  1  0  0  0  0
 19 32  1  0  0  0  0
 19 33  1  0  0  0  0
 20 34  1  0  0  0  0
 20 35  1  0  0  0  0
 20 36  1  0  0  0  0
 21 37  1  0  0  0  0
 21 38  1  0  0  0  0
 21 39  1  0  0  0  0
 22 40  1  0  0  0  0
 22 41  1  0  0  0  0
M  END
>  <PUBCHEM_COMPOUND_CID>
11243539

>  <PUBCHEM_COMPOUND_CANONICALIZED>
1

>  <PUBCHEM_CACTVS_COMPLEXITY>
523

>  <PUBCHEM_CACTVS_HBOND_ACCEPTOR>
4

>  <PUBCHEM_CACTVS_HBOND_DONOR>
0

>  <PUBCHEM_CACTVS_ROTATABLE_BOND>
5

>  <PUBCHEM_CACTVS_SUBSKEYS>
AAADceB6OAAAAAAAAAAAAAAAAAAAAAAAAAAwQAAAAAAAAACBAAAAHgAAAAAADAyBmAYyxoMABACIAqVSUACCCAAhIAAIiAEPTMgOJjLEsZuFMChmxhHY6YfdyDAOAAABAAACEAAAAAIAAAQgAAAAAAAAAA==

>  <PUBCHEM_IUPAC_OPENEYE_NAME>
4,8-dimethoxy-1-methyl-3-(3-methyl-2-oxo-but-3-enyl)quinolin-2-one

>  <PUBCHEM_IUPAC_CAS_NAME>
4,8-dimethoxy-1-methyl-3-(3-methyl-2-oxobut-3-enyl)-2-quinolinone

>  <PUBCHEM_IUPAC_NAME>
4,8-dimethoxy-1-methyl-3-(3-methyl-2-oxobut-3-enyl)quinolin-2-one

>  <PUBCHEM_IUPAC_SYSTEMATIC_NAME>
4,8-dimethoxy-1-methyl-3-(3-methyl-2-oxidanylidene-but-3-enyl)quinolin-2-one

>  <PUBCHEM_IUPAC_TRADITIONAL_NAME>
3-(2-keto-3-methyl-but-3-enyl)-4,8-dimethoxy-1-methyl-carbostyril

>  <PUBCHEM_IUPAC_INCHI>
InChI=1S/C17H19NO4/c1-10(2)13(19)9-12-16(22-5)11-7-6-8-14(21-4)15(11)18(3)17(12)20/h6-8H,1,9H2,2-5H3

>  <PUBCHEM_IUPAC_INCHIKEY>
BMCQLKYNTFQTRN-UHFFFAOYSA-N

>  <PUBCHEM_XLOGP3_AA>
1.8

>  <PUBCHEM_EXACT_MASS>
301.131

>  <PUBCHEM_MOLECULAR_FORMULA>
C17H19NO4

>  <PUBCHEM_MOLECULAR_WEIGHT>
301.342

>  <PUBCHEM_OPENEYE_CAN_SMILES>
CC(=C)C(=O)CC1=C(C2=C(C(=CC=C2)OC)N(C1=O)C)OC

>  <PUBCHEM_OPENEYE_ISO_SMILES>
CC(=C)C(=O)CC1=C(C2=C(C(=CC=C2)OC)N(C1=O)C)OC

>  <PUBCHEM_CACTVS_TPSA>
55.8

>  <PUBCHEM_MONOISOTOPIC_WEIGHT>
301.131

>  <PUBCHEM_TOTAL_CHARGE>
0

>  <PUBCHEM_HEAVY_ATOM_COUNT>
22

>  <PUBCHEM_ATOM_DEF_STEREO_COUNT>
0

>  <PUBCHEM_ATOM_UDEF_STEREO_COUNT>
0

>  <PUBCHEM_BOND_DEF_STEREO_COUNT>
0

>  <PUBCHEM_BOND_UDEF_STEREO_COUNT>
0

>  <PUBCHEM_ISOTOPIC_ATOM_COUNT>
0

>  <PUBCHEM_COMPONENT_COUNT>
1

>  <PUBCHEM_CACTVS_TAUTO_COUNT>
2

>  <PUBCHEM_COORDINATE_TYPE>
1
5
255

>  <PUBCHEM_BONDANNOTATIONS>
12  15  8
13  16  8
15  16  8
5  10  8
5  6  8
6  12  8
6  7  8
7  13  8
7  9  8
8  10  8
8  9  8

$$$$
