11264975
 OpenBabel06101807152D

 29 31  0  0  0  0  0  0  0  0999 V2000
    2.6720    0.4130    0.0000 O   0  0  0  0  0  0  0  0  0  0  0  0
    7.0417   -1.9455    0.0000 O   0  0  0  0  0  0  0  0  0  0  0  0
    8.2991    1.9245    0.0000 O   0  0  0  0  0  0  0  0  0  0  0  0
    6.1767    1.3255    0.0000 N   0  0  0  0  0  0  0  0  0  0  0  0
    6.6767   -0.2133    0.0000 C   0  0  0  0  0  0  0  0  0  0  0  0
    5.6767   -0.2133    0.0000 C   0  0  0  0  0  0  0  0  0  0  0  0
    6.9857    0.7377    0.0000 C   0  0  0  0  0  0  0  0  0  0  0  0
    5.3677    0.7377    0.0000 C   0  0  0  0  0  0  0  0  0  0  0  0
    7.3617   -0.9981    0.0000 C   0  0  0  0  0  0  0  0  0  0  0  0
    8.0011    0.9700    0.0000 C   0  0  0  0  0  0  0  0  0  0  0  0
    4.9917   -0.9981    0.0000 C   0  0  0  0  0  0  0  0  0  0  0  0
    8.3822   -0.7894    0.0000 C   0  0  0  0  0  0  0  0  0  0  0  0
    4.3523    0.9700    0.0000 C   0  0  0  0  0  0  0  0  0  0  0  0
    8.7040    0.2013    0.0000 C   0  0  0  0  0  0  0  0  0  0  0  0
    3.6493    0.2013    0.0000 C   0  0  0  0  0  0  0  0  0  0  0  0
    3.9712   -0.7894    0.0000 C   0  0  0  0  0  0  0  0  0  0  0  0
    9.0484   -1.5351    0.0000 C   0  0  0  0  0  0  0  0  0  0  0  0
    2.0000   -0.3276    0.0000 C   0  0  0  0  0  0  0  0  0  0  0  0
    6.1767    1.9455    0.0000 H   0  0  0  0  0  0  0  0  0  0  0  0
    5.1901   -1.5855    0.0000 H   0  0  0  0  0  0  0  0  0  0  0  0
    4.1675    1.5618    0.0000 H   0  0  0  0  0  0  0  0  0  0  0  0
    9.3100    0.3325    0.0000 H   0  0  0  0  0  0  0  0  0  0  0  0
    3.5581   -1.2517    0.0000 H   0  0  0  0  0  0  0  0  0  0  0  0
    8.5861   -1.9482    0.0000 H   0  0  0  0  0  0  0  0  0  0  0  0
    9.4615   -1.9974    0.0000 H   0  0  0  0  0  0  0  0  0  0  0  0
    9.5108   -1.1220    0.0000 H   0  0  0  0  0  0  0  0  0  0  0  0
    1.5408    0.0890    0.0000 H   0  0  0  0  0  0  0  0  0  0  0  0
    1.5834   -0.7867    0.0000 H   0  0  0  0  0  0  0  0  0  0  0  0
    2.4592   -0.7442    0.0000 H   0  0  0  0  0  0  0  0  0  0  0  0
  1 15  1  0  0  0  0
  1 18  1  0  0  0  0
  2  9  2  0  0  0  0
  3 10  2  0  0  0  0
  4  7  1  0  0  0  0
  4  8  1  0  0  0  0
  4 19  1  0  0  0  0
  5  6  1  0  0  0  0
  5  7  2  0  0  0  0
  5  9  1  0  0  0  0
  6  8  2  0  0  0  0
  6 11  1  0  0  0  0
  7 10  1  0  0  0  0
  8 13  1  0  0  0  0
  9 12  1  0  0  0  0
 10 14  1  0  0  0  0
 11 16  2  0  0  0  0
 11 20  1  0  0  0  0
 12 14  2  0  0  0  0
 12 17  1  0  0  0  0
 13 15  2  0  0  0  0
 13 21  1  0  0  0  0
 14 22  1  0  0  0  0
 15 16  1  0  0  0  0
 16 23  1  0  0  0  0
 17 24  1  0  0  0  0
 17 25  1  0  0  0  0
 17 26  1  0  0  0  0
 18 27  1  0  0  0  0
 18 28  1  0  0  0  0
 18 29  1  0  0  0  0
M  END
>  <PUBCHEM_COMPOUND_CID>
11264975

>  <PUBCHEM_COMPOUND_CANONICALIZED>
1

>  <PUBCHEM_CACTVS_COMPLEXITY>
429

>  <PUBCHEM_CACTVS_HBOND_ACCEPTOR>
3

>  <PUBCHEM_CACTVS_HBOND_DONOR>
1

>  <PUBCHEM_CACTVS_ROTATABLE_BOND>
1

>  <PUBCHEM_CACTVS_SUBSKEYS>
AAADccByMAAAAAAAAAAAAAAAAAAAAWAAAAAwQAAAAAAAAFgB8AAAHgAQAAAADAyBngIyxvLJlACoA6RyRACCiCAnIiAImSG2bNgMJvrEtbuEMahm0BnI6ced2fOeoAAAAgACAABAAAAEAAQAAAAAAAAAAA==

>  <PUBCHEM_IUPAC_OPENEYE_NAME>
7-methoxy-3-methyl-9H-carbazole-1,4-dione

>  <PUBCHEM_IUPAC_CAS_NAME>
7-methoxy-3-methyl-9H-carbazole-1,4-dione

>  <PUBCHEM_IUPAC_NAME>
7-methoxy-3-methyl-9H-carbazole-1,4-dione

>  <PUBCHEM_IUPAC_SYSTEMATIC_NAME>
7-methoxy-3-methyl-9H-carbazole-1,4-dione

>  <PUBCHEM_IUPAC_TRADITIONAL_NAME>
7-methoxy-3-methyl-9H-carbazole-1,4-quinone

>  <PUBCHEM_IUPAC_INCHI>
InChI=1S/C14H11NO3/c1-7-5-11(16)13-12(14(7)17)9-4-3-8(18-2)6-10(9)15-13/h3-6,15H,1-2H3

>  <PUBCHEM_IUPAC_INCHIKEY>
FBXPHUZRLGTRFW-UHFFFAOYSA-N

>  <PUBCHEM_XLOGP3_AA>
2.3

>  <PUBCHEM_EXACT_MASS>
241.074

>  <PUBCHEM_MOLECULAR_FORMULA>
C14H11NO3

>  <PUBCHEM_MOLECULAR_WEIGHT>
241.246

>  <PUBCHEM_OPENEYE_CAN_SMILES>
CC1=CC(=O)C2=C(C1=O)C3=C(N2)C=C(C=C3)OC

>  <PUBCHEM_OPENEYE_ISO_SMILES>
CC1=CC(=O)C2=C(C1=O)C3=C(N2)C=C(C=C3)OC

>  <PUBCHEM_CACTVS_TPSA>
59.2

>  <PUBCHEM_MONOISOTOPIC_WEIGHT>
241.074

>  <PUBCHEM_TOTAL_CHARGE>
0

>  <PUBCHEM_HEAVY_ATOM_COUNT>
18

>  <PUBCHEM_ATOM_DEF_STEREO_COUNT>
0

>  <PUBCHEM_ATOM_UDEF_STEREO_COUNT>
0

>  <PUBCHEM_BOND_DEF_STEREO_COUNT>
0

>  <PUBCHEM_BOND_UDEF_STEREO_COUNT>
0

>  <PUBCHEM_ISOTOPIC_ATOM_COUNT>
0

>  <PUBCHEM_COMPONENT_COUNT>
1

>  <PUBCHEM_CACTVS_TAUTO_COUNT>
20

>  <PUBCHEM_COORDINATE_TYPE>
1
5
255

>  <PUBCHEM_BONDANNOTATIONS>
11  16  8
13  15  8
15  16  8
4  7  8
4  8  8
5  6  8
5  7  8
6  11  8
6  8  8
8  13  8

$$$$
