11275724
 OpenBabel06101807152D

 23 24  0  0  0  0  0  0  0  0999 V2000
    6.3580   -0.3020    0.0000 O   0  0  0  0  0  0  0  0  0  0  0  0
    2.8660   -0.2673    0.0000 O   0  0  0  0  0  0  0  0  0  0  0  0
    8.1282   -0.2915    0.0000 O   0  0  0  0  0  0  0  0  0  0  0  0
    3.7320   -1.7673    0.0000 O   0  0  0  0  0  0  0  0  0  0  0  0
    5.4641    1.2327    0.0000 C   0  0  0  0  0  0  0  0  0  0  0  0
    5.4641    0.2327    0.0000 C   0  0  0  0  0  0  0  0  0  0  0  0
    4.5981   -0.2673    0.0000 C   0  0  0  0  0  0  0  0  0  0  0  0
    3.7320    0.2327    0.0000 C   0  0  0  0  0  0  0  0  0  0  0  0
    4.5981    1.7327    0.0000 C   0  0  0  0  0  0  0  0  0  0  0  0
    3.7320    1.2327    0.0000 C   0  0  0  0  0  0  0  0  0  0  0  0
    6.3580    1.7673    0.0000 C   0  0  0  0  0  0  0  0  0  0  0  0
    7.2641    1.2535    0.0000 C   0  0  0  0  0  0  0  0  0  0  0  0
    7.2641    0.2119    0.0000 C   0  0  0  0  0  0  0  0  0  0  0  0
    4.5981   -1.2673    0.0000 C   0  0  0  0  0  0  0  0  0  0  0  0
    2.0000    0.2327    0.0000 C   0  0  0  0  0  0  0  0  0  0  0  0
    4.5981    2.3527    0.0000 H   0  0  0  0  0  0  0  0  0  0  0  0
    3.1951    1.5427    0.0000 H   0  0  0  0  0  0  0  0  0  0  0  0
    6.3509    2.3873    0.0000 H   0  0  0  0  0  0  0  0  0  0  0  0
    7.7998    1.5656    0.0000 H   0  0  0  0  0  0  0  0  0  0  0  0
    5.1350   -1.5773    0.0000 H   0  0  0  0  0  0  0  0  0  0  0  0
    2.3100    0.7696    0.0000 H   0  0  0  0  0  0  0  0  0  0  0  0
    1.4631    0.5427    0.0000 H   0  0  0  0  0  0  0  0  0  0  0  0
    1.6900   -0.3043    0.0000 H   0  0  0  0  0  0  0  0  0  0  0  0
  1  6  1  0  0  0  0
  1 13  1  0  0  0  0
  2  8  1  0  0  0  0
  2 15  1  0  0  0  0
  3 13  2  0  0  0  0
  4 14  2  0  0  0  0
  5  6  2  0  0  0  0
  5  9  1  0  0  0  0
  5 11  1  0  0  0  0
  6  7  1  0  0  0  0
  7  8  2  0  0  0  0
  7 14  1  0  0  0  0
  8 10  1  0  0  0  0
  9 10  2  0  0  0  0
  9 16  1  0  0  0  0
 10 17  1  0  0  0  0
 11 12  2  0  0  0  0
 11 18  1  0  0  0  0
 12 13  1  0  0  0  0
 12 19  1  0  0  0  0
 14 20  1  0  0  0  0
 15 21  1  0  0  0  0
 15 22  1  0  0  0  0
 15 23  1  0  0  0  0
M  END
>  <PUBCHEM_COMPOUND_CID>
11275724

>  <PUBCHEM_COMPOUND_CANONICALIZED>
1

>  <PUBCHEM_CACTVS_COMPLEXITY>
297

>  <PUBCHEM_CACTVS_HBOND_ACCEPTOR>
4

>  <PUBCHEM_CACTVS_HBOND_DONOR>
0

>  <PUBCHEM_CACTVS_ROTATABLE_BOND>
2

>  <PUBCHEM_CACTVS_SUBSKEYS>
AAADccBwOAAAAAAAAAAAAAAAAAAAAAAAAAAwQAAAAAAAAACBAAAAGgAAAAAADASgmAIyDoAABACIAijSiAACCAAkIAAIiAEGCMgMJzaENRqCO2Cl4BUIqYeI6GyOIAACCAAIAABAAAQQABAAAAAAAAAAAA==

>  <PUBCHEM_IUPAC_OPENEYE_NAME>
7-methoxy-2-oxo-chromene-8-carbaldehyde

>  <PUBCHEM_IUPAC_CAS_NAME>
7-methoxy-2-oxo-1-benzopyran-8-carboxaldehyde

>  <PUBCHEM_IUPAC_NAME>
7-methoxy-2-oxochromene-8-carbaldehyde

>  <PUBCHEM_IUPAC_SYSTEMATIC_NAME>
7-methoxy-2-oxidanylidene-chromene-8-carbaldehyde

>  <PUBCHEM_IUPAC_TRADITIONAL_NAME>
2-keto-7-methoxy-chromene-8-carbaldehyde

>  <PUBCHEM_IUPAC_INCHI>
InChI=1S/C11H8O4/c1-14-9-4-2-7-3-5-10(13)15-11(7)8(9)6-12/h2-6H,1H3

>  <PUBCHEM_IUPAC_INCHIKEY>
AOXODSXRUFTUGB-UHFFFAOYSA-N

>  <PUBCHEM_XLOGP3_AA>
1.3

>  <PUBCHEM_EXACT_MASS>
204.042

>  <PUBCHEM_MOLECULAR_FORMULA>
C11H8O4

>  <PUBCHEM_MOLECULAR_WEIGHT>
204.181

>  <PUBCHEM_OPENEYE_CAN_SMILES>
COC1=C(C2=C(C=C1)C=CC(=O)O2)C=O

>  <PUBCHEM_OPENEYE_ISO_SMILES>
COC1=C(C2=C(C=C1)C=CC(=O)O2)C=O

>  <PUBCHEM_CACTVS_TPSA>
52.6

>  <PUBCHEM_MONOISOTOPIC_WEIGHT>
204.042

>  <PUBCHEM_TOTAL_CHARGE>
0

>  <PUBCHEM_HEAVY_ATOM_COUNT>
15

>  <PUBCHEM_ATOM_DEF_STEREO_COUNT>
0

>  <PUBCHEM_ATOM_UDEF_STEREO_COUNT>
0

>  <PUBCHEM_BOND_DEF_STEREO_COUNT>
0

>  <PUBCHEM_BOND_UDEF_STEREO_COUNT>
0

>  <PUBCHEM_ISOTOPIC_ATOM_COUNT>
0

>  <PUBCHEM_COMPONENT_COUNT>
1

>  <PUBCHEM_CACTVS_TAUTO_COUNT>
1

>  <PUBCHEM_COORDINATE_TYPE>
1
5
255

>  <PUBCHEM_BONDANNOTATIONS>
1  13  8
1  6  8
11  12  8
12  13  8
5  11  8
5  6  8
5  9  8
6  7  8
7  8  8
8  10  8
9  10  8

$$$$
