11278088
 OpenBabel06101807152D

 43 44  0  0  0  0  0  0  0  0999 V2000
    4.6660    2.0223    0.0000 O   0  0  0  0  0  0  0  0  0  0  0  0
    2.9176   -2.0123    0.0000 O   0  0  0  0  0  0  0  0  0  0  0  0
    6.3981   -0.9777    0.0000 O   0  0  0  0  0  0  0  0  0  0  0  0
    7.2641   -0.4777    0.0000 O   0  0  0  0  0  0  0  0  0  0  0  0
    4.6660   -0.9777    0.0000 N   0  0  0  0  0  0  0  0  0  0  0  0
    5.5321    0.5223    0.0000 C   0  0  0  0  0  0  0  0  0  0  0  0
    6.3981    1.0223    0.0000 C   0  0  0  0  0  0  0  0  0  0  0  0
    3.8000   -0.4777    0.0000 C   0  0  0  0  0  0  0  0  0  0  0  0
    3.8000    0.5223    0.0000 C   0  0  0  0  0  0  0  0  0  0  0  0
    4.6660    1.0223    0.0000 C   0  0  0  0  0  0  0  0  0  0  0  0
    5.5321   -0.4777    0.0000 C   0  0  0  0  0  0  0  0  0  0  0  0
    8.1301    1.0223    0.0000 C   0  0  0  0  0  0  0  0  0  0  0  0
    7.2641    0.5223    0.0000 C   0  0  0  0  0  0  0  0  0  0  0  0
    2.9061   -1.0124    0.0000 C   0  0  0  0  0  0  0  0  0  0  0  0
    2.9061    1.0570    0.0000 C   0  0  0  0  0  0  0  0  0  0  0  0
    4.6660   -1.9777    0.0000 C   0  0  0  0  0  0  0  0  0  0  0  0
    8.9962    0.5223    0.0000 C   0  0  0  0  0  0  0  0  0  0  0  0
    8.1301    2.0223    0.0000 C   0  0  0  0  0  0  0  0  0  0  0  0
    2.0000   -0.4985    0.0000 C   0  0  0  0  0  0  0  0  0  0  0  0
    2.0000    0.5431    0.0000 C   0  0  0  0  0  0  0  0  0  0  0  0
    5.5321    2.5223    0.0000 C   0  0  0  0  0  0  0  0  0  0  0  0
    2.0574   -2.5223    0.0000 C   0  0  0  0  0  0  0  0  0  0  0  0
    6.7966    1.4972    0.0000 H   0  0  0  0  0  0  0  0  0  0  0  0
    5.9996    1.4972    0.0000 H   0  0  0  0  0  0  0  0  0  0  0  0
    7.5932    1.3323    0.0000 H   0  0  0  0  0  0  0  0  0  0  0  0
    2.9132    1.6769    0.0000 H   0  0  0  0  0  0  0  0  0  0  0  0
    4.0460   -1.9777    0.0000 H   0  0  0  0  0  0  0  0  0  0  0  0
    4.6660   -2.5977    0.0000 H   0  0  0  0  0  0  0  0  0  0  0  0
    5.2860   -1.9777    0.0000 H   0  0  0  0  0  0  0  0  0  0  0  0
    8.7501    2.0223    0.0000 H   0  0  0  0  0  0  0  0  0  0  0  0
    8.1301    2.6423    0.0000 H   0  0  0  0  0  0  0  0  0  0  0  0
    7.5101    2.0223    0.0000 H   0  0  0  0  0  0  0  0  0  0  0  0
    8.6862   -0.0146    0.0000 H   0  0  0  0  0  0  0  0  0  0  0  0
    9.5331    0.2123    0.0000 H   0  0  0  0  0  0  0  0  0  0  0  0
    9.3062    1.0592    0.0000 H   0  0  0  0  0  0  0  0  0  0  0  0
    1.4643   -0.8106    0.0000 H   0  0  0  0  0  0  0  0  0  0  0  0
    1.4643    0.8552    0.0000 H   0  0  0  0  0  0  0  0  0  0  0  0
    5.8421    1.9854    0.0000 H   0  0  0  0  0  0  0  0  0  0  0  0
    6.0690    2.8323    0.0000 H   0  0  0  0  0  0  0  0  0  0  0  0
    5.2221    3.0592    0.0000 H   0  0  0  0  0  0  0  0  0  0  0  0
    1.7413   -1.9890    0.0000 H   0  0  0  0  0  0  0  0  0  0  0  0
    1.5241   -2.8385    0.0000 H   0  0  0  0  0  0  0  0  0  0  0  0
    2.3736   -3.0556    0.0000 H   0  0  0  0  0  0  0  0  0  0  0  0
  1 10  1  0  0  0  0
  1 21  1  0  0  0  0
  2 14  1  0  0  0  0
  2 22  1  0  0  0  0
  3 11  2  0  0  0  0
  4 13  2  0  0  0  0
  5  8  1  0  0  0  0
  5 11  1  0  0  0  0
  5 16  1  0  0  0  0
  6  7  1  0  0  0  0
  6 10  2  0  0  0  0
  6 11  1  0  0  0  0
  7 13  1  0  0  0  0
  7 23  1  0  0  0  0
  7 24  1  0  0  0  0
  8  9  2  0  0  0  0
  8 14  1  0  0  0  0
  9 10  1  0  0  0  0
  9 15  1  0  0  0  0
 12 13  1  0  0  0  0
 12 17  1  0  0  0  0
 12 18  1  0  0  0  0
 12 25  1  0  0  0  0
 14 19  2  0  0  0  0
 15 20  2  0  0  0  0
 15 26  1  0  0  0  0
 16 27  1  0  0  0  0
 16 28  1  0  0  0  0
 16 29  1  0  0  0  0
 17 33  1  0  0  0  0
 17 34  1  0  0  0  0
 17 35  1  0  0  0  0
 18 30  1  0  0  0  0
 18 31  1  0  0  0  0
 18 32  1  0  0  0  0
 19 20  1  0  0  0  0
 19 36  1  0  0  0  0
 20 37  1  0  0  0  0
 21 38  1  0  0  0  0
 21 39  1  0  0  0  0
 21 40  1  0  0  0  0
 22 41  1  0  0  0  0
 22 42  1  0  0  0  0
 22 43  1  0  0  0  0
M  END
>  <PUBCHEM_COMPOUND_CID>
11278088

>  <PUBCHEM_COMPOUND_CANONICALIZED>
1

>  <PUBCHEM_CACTVS_COMPLEXITY>
483

>  <PUBCHEM_CACTVS_HBOND_ACCEPTOR>
4

>  <PUBCHEM_CACTVS_HBOND_DONOR>
0

>  <PUBCHEM_CACTVS_ROTATABLE_BOND>
5

>  <PUBCHEM_CACTVS_SUBSKEYS>
AAADceB6OAAAAAAAAAAAAAAAAAAAAAAAAAAwQAAAAAAAAACBAAAAHgAAAAAADQyBmAYyxoMABACIAqVSUACCCAAhIAAIiAEPTMgOJjLEsZuFMChmxhHY6QfdyDAOAAABAAACEAAAAAIAAAQgAAAAAAAAAA==

>  <PUBCHEM_IUPAC_OPENEYE_NAME>
4,8-dimethoxy-1-methyl-3-(3-methyl-2-oxo-butyl)quinolin-2-one

>  <PUBCHEM_IUPAC_CAS_NAME>
4,8-dimethoxy-1-methyl-3-(3-methyl-2-oxobutyl)-2-quinolinone

>  <PUBCHEM_IUPAC_NAME>
4,8-dimethoxy-1-methyl-3-(3-methyl-2-oxobutyl)quinolin-2-one

>  <PUBCHEM_IUPAC_SYSTEMATIC_NAME>
4,8-dimethoxy-1-methyl-3-(3-methyl-2-oxidanylidene-butyl)quinolin-2-one

>  <PUBCHEM_IUPAC_TRADITIONAL_NAME>
3-(2-keto-3-methyl-butyl)-4,8-dimethoxy-1-methyl-carbostyril

>  <PUBCHEM_IUPAC_INCHI>
InChI=1S/C17H21NO4/c1-10(2)13(19)9-12-16(22-5)11-7-6-8-14(21-4)15(11)18(3)17(12)20/h6-8,10H,9H2,1-5H3

>  <PUBCHEM_IUPAC_INCHIKEY>
DIUJWBJYQHUELV-UHFFFAOYSA-N

>  <PUBCHEM_XLOGP3_AA>
1.8

>  <PUBCHEM_EXACT_MASS>
303.147

>  <PUBCHEM_MOLECULAR_FORMULA>
C17H21NO4

>  <PUBCHEM_MOLECULAR_WEIGHT>
303.358

>  <PUBCHEM_OPENEYE_CAN_SMILES>
CC(C)C(=O)CC1=C(C2=C(C(=CC=C2)OC)N(C1=O)C)OC

>  <PUBCHEM_OPENEYE_ISO_SMILES>
CC(C)C(=O)CC1=C(C2=C(C(=CC=C2)OC)N(C1=O)C)OC

>  <PUBCHEM_CACTVS_TPSA>
55.8

>  <PUBCHEM_MONOISOTOPIC_WEIGHT>
303.147

>  <PUBCHEM_TOTAL_CHARGE>
0

>  <PUBCHEM_HEAVY_ATOM_COUNT>
22

>  <PUBCHEM_ATOM_DEF_STEREO_COUNT>
0

>  <PUBCHEM_ATOM_UDEF_STEREO_COUNT>
0

>  <PUBCHEM_BOND_DEF_STEREO_COUNT>
0

>  <PUBCHEM_BOND_UDEF_STEREO_COUNT>
0

>  <PUBCHEM_ISOTOPIC_ATOM_COUNT>
0

>  <PUBCHEM_COMPONENT_COUNT>
1

>  <PUBCHEM_CACTVS_TAUTO_COUNT>
3

>  <PUBCHEM_COORDINATE_TYPE>
1
5
255

>  <PUBCHEM_BONDANNOTATIONS>
14  19  8
15  20  8
19  20  8
5  11  8
5  8  8
6  10  8
6  11  8
8  14  8
8  9  8
9  10  8
9  15  8

$$$$
