11317652
 OpenBabel06101807152D

 62 67  0  0  0  0  0  0  0  0999 V2000
    6.4144    3.5692    0.0000 O   0  0  0  0  0  0  0  0  0  0  0  0
    6.4028   -3.5692    0.0000 O   0  0  0  0  0  0  0  0  0  0  0  0
    4.6326    0.5105    0.0000 O   0  0  0  0  0  0  0  0  0  0  0  0
    8.1845   -0.5105    0.0000 O   0  0  0  0  0  0  0  0  0  0  0  0
   10.8148    4.0797    0.0000 O   0  0  0  0  0  0  0  0  0  0  0  0
    2.0024   -4.0797    0.0000 O   0  0  0  0  0  0  0  0  0  0  0  0
    7.2967    1.0346    0.0000 C   0  0  0  0  0  0  0  0  0  0  0  0
    5.5204   -1.0346    0.0000 C   0  0  0  0  0  0  0  0  0  0  0  0
    6.4028    0.5000    0.0000 C   0  0  0  0  0  0  0  0  0  0  0  0
    6.4144   -0.5000    0.0000 C   0  0  0  0  0  0  0  0  0  0  0  0
    8.1628    0.5346    0.0000 C   0  0  0  0  0  0  0  0  0  0  0  0
    4.6544   -0.5346    0.0000 C   0  0  0  0  0  0  0  0  0  0  0  0
    7.2967    2.0346    0.0000 C   0  0  0  0  0  0  0  0  0  0  0  0
    5.5204   -2.0346    0.0000 C   0  0  0  0  0  0  0  0  0  0  0  0
    9.0288    1.0346    0.0000 C   0  0  0  0  0  0  0  0  0  0  0  0
    3.7884   -1.0346    0.0000 C   0  0  0  0  0  0  0  0  0  0  0  0
    8.1628    2.5346    0.0000 C   0  0  0  0  0  0  0  0  0  0  0  0
    4.6544   -2.5346    0.0000 C   0  0  0  0  0  0  0  0  0  0  0  0
    9.0288    2.0346    0.0000 C   0  0  0  0  0  0  0  0  0  0  0  0
    3.7884   -2.0346    0.0000 C   0  0  0  0  0  0  0  0  0  0  0  0
    7.3204   -1.0138    0.0000 C   0  0  0  0  0  0  0  0  0  0  0  0
    5.4967    1.0138    0.0000 C   0  0  0  0  0  0  0  0  0  0  0  0
    6.4028    2.5693    0.0000 C   0  0  0  0  0  0  0  0  0  0  0  0
    6.4144   -2.5693    0.0000 C   0  0  0  0  0  0  0  0  0  0  0  0
    5.4967    2.0554    0.0000 C   0  0  0  0  0  0  0  0  0  0  0  0
    7.3204   -2.0554    0.0000 C   0  0  0  0  0  0  0  0  0  0  0  0
    8.1467    3.5761    0.0000 C   0  0  0  0  0  0  0  0  0  0  0  0
    4.6704   -3.5761    0.0000 C   0  0  0  0  0  0  0  0  0  0  0  0
    9.9388    2.5415    0.0000 C   0  0  0  0  0  0  0  0  0  0  0  0
    2.8784   -2.5415    0.0000 C   0  0  0  0  0  0  0  0  0  0  0  0
    9.9468    3.5831    0.0000 C   0  0  0  0  0  0  0  0  0  0  0  0
    2.8703   -3.5831    0.0000 C   0  0  0  0  0  0  0  0  0  0  0  0
    9.0447    4.1039    0.0000 C   0  0  0  0  0  0  0  0  0  0  0  0
    3.7724   -4.1039    0.0000 C   0  0  0  0  0  0  0  0  0  0  0  0
    5.5542    4.0792    0.0000 C   0  0  0  0  0  0  0  0  0  0  0  0
    7.2630   -4.0792    0.0000 C   0  0  0  0  0  0  0  0  0  0  0  0
    5.0529   -0.0597    0.0000 H   0  0  0  0  0  0  0  0  0  0  0  0
    4.2559   -0.0597    0.0000 H   0  0  0  0  0  0  0  0  0  0  0  0
    7.7642    0.0597    0.0000 H   0  0  0  0  0  0  0  0  0  0  0  0
    8.5613    0.0597    0.0000 H   0  0  0  0  0  0  0  0  0  0  0  0
    9.2408    0.4520    0.0000 H   0  0  0  0  0  0  0  0  0  0  0  0
    9.6394    1.1423    0.0000 H   0  0  0  0  0  0  0  0  0  0  0  0
    3.5763   -0.4520    0.0000 H   0  0  0  0  0  0  0  0  0  0  0  0
    3.1778   -1.1423    0.0000 H   0  0  0  0  0  0  0  0  0  0  0  0
    4.9610    2.3675    0.0000 H   0  0  0  0  0  0  0  0  0  0  0  0
    7.8562   -2.3675    0.0000 H   0  0  0  0  0  0  0  0  0  0  0  0
    7.6062    3.8799    0.0000 H   0  0  0  0  0  0  0  0  0  0  0  0
    5.2109   -3.8799    0.0000 H   0  0  0  0  0  0  0  0  0  0  0  0
   10.4721    2.2253    0.0000 H   0  0  0  0  0  0  0  0  0  0  0  0
    2.3450   -2.2253    0.0000 H   0  0  0  0  0  0  0  0  0  0  0  0
    9.0424    4.7239    0.0000 H   0  0  0  0  0  0  0  0  0  0  0  0
    3.7748   -4.7239    0.0000 H   0  0  0  0  0  0  0  0  0  0  0  0
    4.0945    0.8184    0.0000 H   0  0  0  0  0  0  0  0  0  0  0  0
    8.7226   -0.8184    0.0000 H   0  0  0  0  0  0  0  0  0  0  0  0
    5.8704    4.6125    0.0000 H   0  0  0  0  0  0  0  0  0  0  0  0
    5.0209    4.3954    0.0000 H   0  0  0  0  0  0  0  0  0  0  0  0
    5.2380    3.5459    0.0000 H   0  0  0  0  0  0  0  0  0  0  0  0
    6.9468   -4.6125    0.0000 H   0  0  0  0  0  0  0  0  0  0  0  0
    7.7963   -4.3954    0.0000 H   0  0  0  0  0  0  0  0  0  0  0  0
    7.5792   -3.5459    0.0000 H   0  0  0  0  0  0  0  0  0  0  0  0
    2.0000   -4.6997    0.0000 H   0  0  0  0  0  0  0  0  0  0  0  0
   10.8172    4.6997    0.0000 H   0  0  0  0  0  0  0  0  0  0  0  0
  1 23  1  0  0  0  0
  1 35  1  0  0  0  0
  2 24  1  0  0  0  0
  2 36  1  0  0  0  0
  3 22  1  0  0  0  0
  3 53  1  0  0  0  0
  4 21  1  0  0  0  0
  4 54  1  0  0  0  0
  5 31  1  0  0  0  0
  5 62  1  0  0  0  0
  6 32  1  0  0  0  0
  6 61  1  0  0  0  0
  7  9  2  0  0  0  0
  7 11  1  0  0  0  0
  7 13  1  0  0  0  0
  8 10  2  0  0  0  0
  8 12  1  0  0  0  0
  8 14  1  0  0  0  0
  9 10  1  0  0  0  0
  9 22  1  0  0  0  0
 10 21  1  0  0  0  0
 11 15  1  0  0  0  0
 11 39  1  0  0  0  0
 11 40  1  0  0  0  0
 12 16  1  0  0  0  0
 12 37  1  0  0  0  0
 12 38  1  0  0  0  0
 13 17  1  0  0  0  0
 13 23  2  0  0  0  0
 14 18  1  0  0  0  0
 14 24  2  0  0  0  0
 15 19  1  0  0  0  0
 15 41  1  0  0  0  0
 15 42  1  0  0  0  0
 16 20  1  0  0  0  0
 16 43  1  0  0  0  0
 16 44  1  0  0  0  0
 17 19  2  0  0  0  0
 17 27  1  0  0  0  0
 18 20  2  0  0  0  0
 18 28  1  0  0  0  0
 19 29  1  0  0  0  0
 20 30  1  0  0  0  0
 21 26  2  0  0  0  0
 22 25  2  0  0  0  0
 23 25  1  0  0  0  0
 24 26  1  0  0  0  0
 25 45  1  0  0  0  0
 26 46  1  0  0  0  0
 27 33  2  0  0  0  0
 27 47  1  0  0  0  0
 28 34  2  0  0  0  0
 28 48  1  0  0  0  0
 29 31  2  0  0  0  0
 29 49  1  0  0  0  0
 30 32  2  0  0  0  0
 30 50  1  0  0  0  0
 31 33  1  0  0  0  0
 32 34  1  0  0  0  0
 33 51  1  0  0  0  0
 34 52  1  0  0  0  0
 35 55  1  0  0  0  0
 35 56  1  0  0  0  0
 35 57  1  0  0  0  0
 36 58  1  0  0  0  0
 36 59  1  0  0  0  0
 36 60  1  0  0  0  0
M  END
>  <PUBCHEM_COMPOUND_CID>
11317652

>  <PUBCHEM_COMPOUND_CANONICALIZED>
1

>  <PUBCHEM_CACTVS_COMPLEXITY>
700

>  <PUBCHEM_CACTVS_HBOND_ACCEPTOR>
6

>  <PUBCHEM_CACTVS_HBOND_DONOR>
4

>  <PUBCHEM_CACTVS_ROTATABLE_BOND>
3

>  <PUBCHEM_CACTVS_SUBSKEYS>
AAADceB4OAAAAAAAAAAAAAAAAAAAAAAAAAAwYMGDAAAAAADBVAAAGgAACAAADASAmAIyBoAABgCAAiBCAAACCAAgIAAIiAAGCIgMJyKGMRqAcCAlwBUIuAfA4PwOoAADCAAYAADAAAYQADAAAAAAAAAAAA==

>  <PUBCHEM_IUPAC_OPENEYE_NAME>
1-(2,7-dihydroxy-4-methoxy-9,10-dihydrophenanthren-1-yl)-4-methoxy-9,10-dihydrophenanthrene-2,7-diol

>  <PUBCHEM_IUPAC_CAS_NAME>
1-(2,7-dihydroxy-4-methoxy-9,10-dihydrophenanthren-1-yl)-4-methoxy-9,10-dihydrophenanthrene-2,7-diol

>  <PUBCHEM_IUPAC_NAME>
1-(2,7-dihydroxy-4-methoxy-9,10-dihydrophenanthren-1-yl)-4-methoxy-9,10-dihydrophenanthrene-2,7-diol

>  <PUBCHEM_IUPAC_SYSTEMATIC_NAME>
4-methoxy-1-[4-methoxy-2,7-bis(oxidanyl)-9,10-dihydrophenanthren-1-yl]-9,10-dihydrophenanthrene-2,7-diol

>  <PUBCHEM_IUPAC_TRADITIONAL_NAME>
1-(2,7-dihydroxy-4-methoxy-9,10-dihydrophenanthren-1-yl)-4-methoxy-9,10-dihydrophenanthrene-2,7-diol

>  <PUBCHEM_IUPAC_INCHI>
InChI=1S/C30H26O6/c1-35-25-13-23(33)29(21-7-3-15-11-17(31)5-9-19(15)27(21)25)30-22-8-4-16-12-18(32)6-10-20(16)28(22)26(36-2)14-24(30)34/h5-6,9-14,31-34H,3-4,7-8H2,1-2H3

>  <PUBCHEM_IUPAC_INCHIKEY>
OZZPAAPLZANUHM-UHFFFAOYSA-N

>  <PUBCHEM_XLOGP3_AA>
5.9

>  <PUBCHEM_EXACT_MASS>
482.173

>  <PUBCHEM_MOLECULAR_FORMULA>
C30H26O6

>  <PUBCHEM_MOLECULAR_WEIGHT>
482.532

>  <PUBCHEM_OPENEYE_CAN_SMILES>
COC1=C2C(=C(C(=C1)O)C3=C4CCC5=C(C4=C(C=C3O)OC)C=CC(=C5)O)CCC6=C2C=CC(=C6)O

>  <PUBCHEM_OPENEYE_ISO_SMILES>
COC1=C2C(=C(C(=C1)O)C3=C4CCC5=C(C4=C(C=C3O)OC)C=CC(=C5)O)CCC6=C2C=CC(=C6)O

>  <PUBCHEM_CACTVS_TPSA>
99.4

>  <PUBCHEM_MONOISOTOPIC_WEIGHT>
482.173

>  <PUBCHEM_TOTAL_CHARGE>
0

>  <PUBCHEM_HEAVY_ATOM_COUNT>
36

>  <PUBCHEM_ATOM_DEF_STEREO_COUNT>
0

>  <PUBCHEM_ATOM_UDEF_STEREO_COUNT>
0

>  <PUBCHEM_BOND_DEF_STEREO_COUNT>
0

>  <PUBCHEM_BOND_UDEF_STEREO_COUNT>
0

>  <PUBCHEM_ISOTOPIC_ATOM_COUNT>
0

>  <PUBCHEM_COMPONENT_COUNT>
1

>  <PUBCHEM_CACTVS_TAUTO_COUNT>
992

>  <PUBCHEM_COORDINATE_TYPE>
1
5
255

>  <PUBCHEM_BONDANNOTATIONS>
10  21  8
13  23  8
14  24  8
17  19  8
17  27  8
18  20  8
18  28  8
19  29  8
20  30  8
21  26  8
22  25  8
23  25  8
24  26  8
27  33  8
28  34  8
29  31  8
30  32  8
31  33  8
32  34  8
7  13  8
7  9  8
8  10  8
8  14  8
9  22  8

$$$$
