11348702
 OpenBabel06101807152D

 43 46  0  0  0  0  0  0  0  0999 V2000
    8.1912   -3.3982    0.0000 O   0  0  0  0  0  0  0  0  0  0  0  0
    2.5381   -2.6671    0.0000 O   0  0  0  0  0  0  0  0  0  0  0  0
    2.5381   -0.6188    0.0000 O   0  0  0  0  0  0  0  0  0  0  0  0
    7.8003    2.3571    0.0000 O   0  0  0  0  0  0  0  0  0  0  0  0
    6.0682    3.3571    0.0000 O   0  0  0  0  0  0  0  0  0  0  0  0
    8.4641   -1.6429    0.0000 N   0  0  0  0  0  0  0  0  0  0  0  0
    6.9343   -1.1429    0.0000 C   0  0  0  0  0  0  0  0  0  0  0  0
    6.0682   -0.6429    0.0000 C   0  0  0  0  0  0  0  0  0  0  0  0
    6.9343   -2.1429    0.0000 C   0  0  0  0  0  0  0  0  0  0  0  0
    5.2022   -1.1429    0.0000 C   0  0  0  0  0  0  0  0  0  0  0  0
    7.8805   -0.8382    0.0000 C   0  0  0  0  0  0  0  0  0  0  0  0
    5.2022   -2.1429    0.0000 C   0  0  0  0  0  0  0  0  0  0  0  0
    6.0682   -2.6429    0.0000 C   0  0  0  0  0  0  0  0  0  0  0  0
    6.0682    0.3571    0.0000 C   0  0  0  0  0  0  0  0  0  0  0  0
    7.8805   -2.4477    0.0000 C   0  0  0  0  0  0  0  0  0  0  0  0
    4.3083   -0.6083    0.0000 C   0  0  0  0  0  0  0  0  0  0  0  0
    4.3083   -2.6776    0.0000 C   0  0  0  0  0  0  0  0  0  0  0  0
    3.4022   -1.1221    0.0000 C   0  0  0  0  0  0  0  0  0  0  0  0
    3.4022   -2.1637    0.0000 C   0  0  0  0  0  0  0  0  0  0  0  0
    6.9343    0.8571    0.0000 C   0  0  0  0  0  0  0  0  0  0  0  0
    5.2022    0.8571    0.0000 C   0  0  0  0  0  0  0  0  0  0  0  0
    6.9343    1.8571    0.0000 C   0  0  0  0  0  0  0  0  0  0  0  0
    5.2022    1.8571    0.0000 C   0  0  0  0  0  0  0  0  0  0  0  0
    6.0682    2.3571    0.0000 C   0  0  0  0  0  0  0  0  0  0  0  0
    2.5420   -3.6671    0.0000 C   0  0  0  0  0  0  0  0  0  0  0  0
    7.8003    3.3571    0.0000 C   0  0  0  0  0  0  0  0  0  0  0  0
    8.4179   -0.5290    0.0000 H   0  0  0  0  0  0  0  0  0  0  0  0
    7.6295   -0.2713    0.0000 H   0  0  0  0  0  0  0  0  0  0  0  0
    6.0682   -3.2629    0.0000 H   0  0  0  0  0  0  0  0  0  0  0  0
    9.0841   -1.6429    0.0000 H   0  0  0  0  0  0  0  0  0  0  0  0
    4.3154    0.0117    0.0000 H   0  0  0  0  0  0  0  0  0  0  0  0
    4.3154   -3.2976    0.0000 H   0  0  0  0  0  0  0  0  0  0  0  0
    7.4712    0.5471    0.0000 H   0  0  0  0  0  0  0  0  0  0  0  0
    4.6653    0.5471    0.0000 H   0  0  0  0  0  0  0  0  0  0  0  0
    4.6653    2.1671    0.0000 H   0  0  0  0  0  0  0  0  0  0  0  0
    2.0000   -0.9267    0.0000 H   0  0  0  0  0  0  0  0  0  0  0  0
    1.9220   -3.6695    0.0000 H   0  0  0  0  0  0  0  0  0  0  0  0
    2.5444   -4.2871    0.0000 H   0  0  0  0  0  0  0  0  0  0  0  0
    3.1620   -3.6647    0.0000 H   0  0  0  0  0  0  0  0  0  0  0  0
    5.5313    3.6671    0.0000 H   0  0  0  0  0  0  0  0  0  0  0  0
    8.4203    3.3571    0.0000 H   0  0  0  0  0  0  0  0  0  0  0  0
    7.8003    3.9771    0.0000 H   0  0  0  0  0  0  0  0  0  0  0  0
    7.1803    3.3571    0.0000 H   0  0  0  0  0  0  0  0  0  0  0  0
  1 15  2  0  0  0  0
  2 19  1  0  0  0  0
  2 25  1  0  0  0  0
  3 18  1  0  0  0  0
  3 36  1  0  0  0  0
  4 22  1  0  0  0  0
  4 26  1  0  0  0  0
  5 24  1  0  0  0  0
  5 40  1  0  0  0  0
  6 11  1  0  0  0  0
  6 15  1  0  0  0  0
  6 30  1  0  0  0  0
  7  8  1  0  0  0  0
  7  9  2  0  0  0  0
  7 11  1  0  0  0  0
  8 10  2  0  0  0  0
  8 14  1  0  0  0  0
  9 13  1  0  0  0  0
  9 15  1  0  0  0  0
 10 12  1  0  0  0  0
 10 16  1  0  0  0  0
 11 27  1  0  0  0  0
 11 28  1  0  0  0  0
 12 13  2  0  0  0  0
 12 17  1  0  0  0  0
 13 29  1  0  0  0  0
 14 20  2  0  0  0  0
 14 21  1  0  0  0  0
 16 18  2  0  0  0  0
 16 31  1  0  0  0  0
 17 19  2  0  0  0  0
 17 32  1  0  0  0  0
 18 19  1  0  0  0  0
 20 22  1  0  0  0  0
 20 33  1  0  0  0  0
 21 23  2  0  0  0  0
 21 34  1  0  0  0  0
 22 24  2  0  0  0  0
 23 24  1  0  0  0  0
 23 35  1  0  0  0  0
 25 37  1  0  0  0  0
 25 38  1  0  0  0  0
 25 39  1  0  0  0  0
 26 41  1  0  0  0  0
 26 42  1  0  0  0  0
 26 43  1  0  0  0  0
M  END
>  <PUBCHEM_COMPOUND_CID>
11348702

>  <PUBCHEM_COMPOUND_CANONICALIZED>
1

>  <PUBCHEM_CACTVS_COMPLEXITY>
528

>  <PUBCHEM_CACTVS_HBOND_ACCEPTOR>
5

>  <PUBCHEM_CACTVS_HBOND_DONOR>
3

>  <PUBCHEM_CACTVS_ROTATABLE_BOND>
3

>  <PUBCHEM_CACTVS_SUBSKEYS>
AAADceB6OAAAAAAAAAAAAAAAAAAAAWAAAAAwYMAAAAAAAFjBVAAAHgAQCAAADATBmAYyBsLABgCIAiFSEACCCAAkIAAIiIEOjMgNJjKGtRuEcStkxhGLuYecyPCO4AADAAAQQADAAAYAACCAAAAAAAAAAA==

>  <PUBCHEM_IUPAC_OPENEYE_NAME>
7-hydroxy-9-(4-hydroxy-3-methoxy-phenyl)-6-methoxy-1,2-dihydrobenzo[f]isoindol-3-one

>  <PUBCHEM_IUPAC_CAS_NAME>
7-hydroxy-9-(4-hydroxy-3-methoxyphenyl)-6-methoxy-1,2-dihydrobenzo[f]isoindol-3-one

>  <PUBCHEM_IUPAC_NAME>
7-hydroxy-9-(4-hydroxy-3-methoxyphenyl)-6-methoxy-1,2-dihydrobenzo[f]isoindol-3-one

>  <PUBCHEM_IUPAC_SYSTEMATIC_NAME>
6-methoxy-9-(3-methoxy-4-oxidanyl-phenyl)-7-oxidanyl-1,2-dihydrobenzo[f]isoindol-3-one

>  <PUBCHEM_IUPAC_TRADITIONAL_NAME>
7-hydroxy-9-(4-hydroxy-3-methoxy-phenyl)-6-methoxy-1,2-dihydrobenz[f]isoindol-3-one

>  <PUBCHEM_IUPAC_INCHI>
InChI=1S/C20H17NO5/c1-25-17-6-10(3-4-15(17)22)19-12-8-16(23)18(26-2)7-11(12)5-13-14(19)9-21-20(13)24/h3-8,22-23H,9H2,1-2H3,(H,21,24)

>  <PUBCHEM_IUPAC_INCHIKEY>
QVAJYPUWQBUWLN-UHFFFAOYSA-N

>  <PUBCHEM_XLOGP3_AA>
2.9

>  <PUBCHEM_EXACT_MASS>
351.111

>  <PUBCHEM_MOLECULAR_FORMULA>
C20H17NO5

>  <PUBCHEM_MOLECULAR_WEIGHT>
351.358

>  <PUBCHEM_OPENEYE_CAN_SMILES>
COC1=CC2=CC3=C(CNC3=O)C(=C2C=C1O)C4=CC(=C(C=C4)O)OC

>  <PUBCHEM_OPENEYE_ISO_SMILES>
COC1=CC2=CC3=C(CNC3=O)C(=C2C=C1O)C4=CC(=C(C=C4)O)OC

>  <PUBCHEM_CACTVS_TPSA>
88

>  <PUBCHEM_MONOISOTOPIC_WEIGHT>
351.111

>  <PUBCHEM_TOTAL_CHARGE>
0

>  <PUBCHEM_HEAVY_ATOM_COUNT>
26

>  <PUBCHEM_ATOM_DEF_STEREO_COUNT>
0

>  <PUBCHEM_ATOM_UDEF_STEREO_COUNT>
0

>  <PUBCHEM_BOND_DEF_STEREO_COUNT>
0

>  <PUBCHEM_BOND_UDEF_STEREO_COUNT>
0

>  <PUBCHEM_ISOTOPIC_ATOM_COUNT>
0

>  <PUBCHEM_COMPONENT_COUNT>
1

>  <PUBCHEM_CACTVS_TAUTO_COUNT>
42

>  <PUBCHEM_COORDINATE_TYPE>
1
5
255

>  <PUBCHEM_BONDANNOTATIONS>
10  12  8
10  16  8
12  13  8
12  17  8
14  20  8
14  21  8
16  18  8
17  19  8
18  19  8
20  22  8
21  23  8
22  24  8
23  24  8
7  8  8
7  9  8
8  10  8
9  13  8

$$$$
