11378819
 OpenBabel06101807152D

 20 21  0  0  0  0  0  0  0  0999 V2000
    2.8660    1.4470    0.0000 O   0  0  0  0  0  0  0  0  0  0  0  0
    4.9889    1.2023    0.0000 O   0  0  0  0  0  0  0  0  0  0  0  0
    6.2619   -0.5530    0.0000 O   0  0  0  0  0  0  0  0  0  0  0  0
    4.6783   -1.3577    0.0000 N   0  0  0  0  0  0  0  0  0  0  0  0
    3.7320   -0.0530    0.0000 C   0  0  0  0  0  0  0  0  0  0  0  0
    3.7320   -1.0530    0.0000 C   0  0  0  0  0  0  0  0  0  0  0  0
    2.8660    0.4470    0.0000 C   0  0  0  0  0  0  0  0  0  0  0  0
    4.6783    0.2518    0.0000 C   0  0  0  0  0  0  0  0  0  0  0  0
    2.8660   -1.5530    0.0000 C   0  0  0  0  0  0  0  0  0  0  0  0
    5.2619   -0.5530    0.0000 C   0  0  0  0  0  0  0  0  0  0  0  0
    2.0000   -0.0530    0.0000 C   0  0  0  0  0  0  0  0  0  0  0  0
    2.0000   -1.0530    0.0000 C   0  0  0  0  0  0  0  0  0  0  0  0
    2.0000    1.9470    0.0000 C   0  0  0  0  0  0  0  0  0  0  0  0
    4.8709   -1.9470    0.0000 H   0  0  0  0  0  0  0  0  0  0  0  0
    2.8660   -2.1730    0.0000 H   0  0  0  0  0  0  0  0  0  0  0  0
    1.4631    0.2570    0.0000 H   0  0  0  0  0  0  0  0  0  0  0  0
    1.4631   -1.3630    0.0000 H   0  0  0  0  0  0  0  0  0  0  0  0
    2.3100    2.4840    0.0000 H   0  0  0  0  0  0  0  0  0  0  0  0
    1.4631    2.2570    0.0000 H   0  0  0  0  0  0  0  0  0  0  0  0
    1.6900    1.4101    0.0000 H   0  0  0  0  0  0  0  0  0  0  0  0
  1  7  1  0  0  0  0
  1 13  1  0  0  0  0
  2  8  2  0  0  0  0
  3 10  2  0  0  0  0
  4  6  1  0  0  0  0
  4 10  1  0  0  0  0
  4 14  1  0  0  0  0
  5  6  2  0  0  0  0
  5  7  1  0  0  0  0
  5  8  1  0  0  0  0
  6  9  1  0  0  0  0
  7 11  2  0  0  0  0
  8 10  1  0  0  0  0
  9 12  2  0  0  0  0
  9 15  1  0  0  0  0
 11 12  1  0  0  0  0
 11 16  1  0  0  0  0
 12 17  1  0  0  0  0
 13 18  1  0  0  0  0
 13 19  1  0  0  0  0
 13 20  1  0  0  0  0
M  END
>  <PUBCHEM_COMPOUND_CID>
11378819

>  <PUBCHEM_COMPOUND_CANONICALIZED>
1

>  <PUBCHEM_CACTVS_COMPLEXITY>
251

>  <PUBCHEM_CACTVS_HBOND_ACCEPTOR>
3

>  <PUBCHEM_CACTVS_HBOND_DONOR>
1

>  <PUBCHEM_CACTVS_ROTATABLE_BOND>
1

>  <PUBCHEM_CACTVS_SUBSKEYS>
AAADcYByMAAAAAAAAAAAAAAAAAAAAWAAAAAwAAAAAAAAAFgBAAAAHgAQAAAADAyBmAIyxoLABACIAqVSUACCCAAlIgAIiAGGbMgMJj7EtbuEMehm9BnI6Ue+2KOOAAAAAgAKAAAAAAAEABQAAAAAAAAAAA==

>  <PUBCHEM_IUPAC_OPENEYE_NAME>
4-methoxyindoline-2,3-dione

>  <PUBCHEM_IUPAC_CAS_NAME>
4-methoxy-1H-indole-2,3-dione

>  <PUBCHEM_IUPAC_NAME>
4-methoxy-1H-indole-2,3-dione

>  <PUBCHEM_IUPAC_SYSTEMATIC_NAME>
4-methoxy-1H-indole-2,3-dione

>  <PUBCHEM_IUPAC_TRADITIONAL_NAME>
4-methoxyisatin

>  <PUBCHEM_IUPAC_INCHI>
InChI=1S/C9H7NO3/c1-13-6-4-2-3-5-7(6)8(11)9(12)10-5/h2-4H,1H3,(H,10,11,12)

>  <PUBCHEM_IUPAC_INCHIKEY>
LTERBHLYBWXCPT-UHFFFAOYSA-N

>  <PUBCHEM_XLOGP3_AA>
0.7

>  <PUBCHEM_EXACT_MASS>
177.043

>  <PUBCHEM_MOLECULAR_FORMULA>
C9H7NO3

>  <PUBCHEM_MOLECULAR_WEIGHT>
177.159

>  <PUBCHEM_OPENEYE_CAN_SMILES>
COC1=CC=CC2=C1C(=O)C(=O)N2

>  <PUBCHEM_OPENEYE_ISO_SMILES>
COC1=CC=CC2=C1C(=O)C(=O)N2

>  <PUBCHEM_CACTVS_TPSA>
55.4

>  <PUBCHEM_MONOISOTOPIC_WEIGHT>
177.043

>  <PUBCHEM_TOTAL_CHARGE>
0

>  <PUBCHEM_HEAVY_ATOM_COUNT>
13

>  <PUBCHEM_ATOM_DEF_STEREO_COUNT>
0

>  <PUBCHEM_ATOM_UDEF_STEREO_COUNT>
0

>  <PUBCHEM_BOND_DEF_STEREO_COUNT>
0

>  <PUBCHEM_BOND_UDEF_STEREO_COUNT>
0

>  <PUBCHEM_ISOTOPIC_ATOM_COUNT>
0

>  <PUBCHEM_COMPONENT_COUNT>
1

>  <PUBCHEM_CACTVS_TAUTO_COUNT>
6

>  <PUBCHEM_COORDINATE_TYPE>
1
5
255

>  <PUBCHEM_BONDANNOTATIONS>
11  12  8
5  6  8
5  7  8
6  9  8
7  11  8
9  12  8

$$$$
