11390791
 OpenBabel06101807152D

 27 30  0  0  0  0  0  0  0  0999 V2000
    5.3871    2.8820    0.0000 O   0  0  0  0  0  0  0  0  0  0  0  0
    3.9933    3.6867    0.0000 O   0  0  0  0  0  0  0  0  0  0  0  0
    3.8372   -3.4818    0.0000 O   0  0  0  0  0  0  0  0  0  0  0  0
    4.7520   -0.8472    0.0000 N   0  0  0  0  0  0  0  0  0  0  0  0
    3.7841    0.7149    0.0000 C   0  0  0  0  0  0  0  0  0  0  0  0
    2.9180    1.2149    0.0000 C   0  0  0  0  0  0  0  0  0  0  0  0
    3.8001   -0.3266    0.0000 C   0  0  0  0  0  0  0  0  0  0  0  0
    4.6501    2.2149    0.0000 C   0  0  0  0  0  0  0  0  0  0  0  0
    3.7841    2.7149    0.0000 C   0  0  0  0  0  0  0  0  0  0  0  0
    4.6501    1.2149    0.0000 C   0  0  0  0  0  0  0  0  0  0  0  0
    2.9021   -0.8544    0.0000 C   0  0  0  0  0  0  0  0  0  0  0  0
    2.9180    2.2149    0.0000 C   0  0  0  0  0  0  0  0  0  0  0  0
    2.0080    0.7080    0.0000 C   0  0  0  0  0  0  0  0  0  0  0  0
    2.0000   -0.3336    0.0000 C   0  0  0  0  0  0  0  0  0  0  0  0
    4.9820    3.7898    0.0000 C   0  0  0  0  0  0  0  0  0  0  0  0
    2.8937   -1.9393    0.0000 C   0  0  0  0  0  0  0  0  0  0  0  0
    3.8334   -2.4818    0.0000 C   0  0  0  0  0  0  0  0  0  0  0  0
    4.7688   -1.9321    0.0000 C   0  0  0  0  0  0  0  0  0  0  0  0
    5.1870    0.9049    0.0000 H   0  0  0  0  0  0  0  0  0  0  0  0
    2.3811    2.5249    0.0000 H   0  0  0  0  0  0  0  0  0  0  0  0
    1.4747    1.0242    0.0000 H   0  0  0  0  0  0  0  0  0  0  0  0
    1.4619   -0.6415    0.0000 H   0  0  0  0  0  0  0  0  0  0  0  0
    5.5716    3.9815    0.0000 H   0  0  0  0  0  0  0  0  0  0  0  0
    4.8532    4.3962    0.0000 H   0  0  0  0  0  0  0  0  0  0  0  0
    2.3556   -2.2473    0.0000 H   0  0  0  0  0  0  0  0  0  0  0  0
    5.3093   -2.2359    0.0000 H   0  0  0  0  0  0  0  0  0  0  0  0
    4.3753   -3.7898    0.0000 H   0  0  0  0  0  0  0  0  0  0  0  0
  1  8  1  0  0  0  0
  1 15  1  0  0  0  0
  2  9  1  0  0  0  0
  2 15  1  0  0  0  0
  3 17  1  0  0  0  0
  3 27  1  0  0  0  0
  4  7  2  0  0  0  0
  4 18  1  0  0  0  0
  5  6  1  0  0  0  0
  5  7  1  0  0  0  0
  5 10  2  0  0  0  0
  6 12  2  0  0  0  0
  6 13  1  0  0  0  0
  7 11  1  0  0  0  0
  8  9  2  0  0  0  0
  8 10  1  0  0  0  0
  9 12  1  0  0  0  0
 10 19  1  0  0  0  0
 11 14  1  0  0  0  0
 11 16  2  0  0  0  0
 12 20  1  0  0  0  0
 13 14  2  0  0  0  0
 13 21  1  0  0  0  0
 14 22  1  0  0  0  0
 15 23  1  0  0  0  0
 15 24  1  0  0  0  0
 16 17  1  0  0  0  0
 16 25  1  0  0  0  0
 17 18  2  0  0  0  0
 18 26  1  0  0  0  0
M  END
>  <PUBCHEM_COMPOUND_CID>
11390791

>  <PUBCHEM_COMPOUND_CANONICALIZED>
1

>  <PUBCHEM_CACTVS_COMPLEXITY>
324

>  <PUBCHEM_CACTVS_HBOND_ACCEPTOR>
4

>  <PUBCHEM_CACTVS_HBOND_DONOR>
1

>  <PUBCHEM_CACTVS_ROTATABLE_BOND>
0

>  <PUBCHEM_CACTVS_SUBSKEYS>
AAADccByMAAAAAAAAAAAAAAAAAAAASAAAAA8YIAAAAAAAEjx9AAAHgAACAAADAzBngc8zvIIFgCgAzRnRASCiCAxYCAI2CAvzJgfJuLWsZukcCpkwBHe+Aew0PMO4AADQAASQADAAAaAACSAAAAAAAAAAA==

>  <PUBCHEM_IUPAC_OPENEYE_NAME>
[1,3]benzodioxolo[5,6-h]quinolin-3-ol

>  <PUBCHEM_IUPAC_CAS_NAME>
[1,3]benzodioxolo[5,6-h]quinolin-3-ol

>  <PUBCHEM_IUPAC_NAME>
[1,3]benzodioxolo[5,6-h]quinolin-3-ol

>  <PUBCHEM_IUPAC_SYSTEMATIC_NAME>
[1,3]benzodioxolo[5,6-h]quinolin-3-ol

>  <PUBCHEM_IUPAC_TRADITIONAL_NAME>
[1,3]benzodioxolo[5,6-h]quinolin-3-ol

>  <PUBCHEM_IUPAC_INCHI>
InChI=1S/C14H9NO3/c16-10-3-9-2-1-8-4-12-13(18-7-17-12)5-11(8)14(9)15-6-10/h1-6,16H,7H2

>  <PUBCHEM_IUPAC_INCHIKEY>
NKZCRLAOZWABNB-UHFFFAOYSA-N

>  <PUBCHEM_XLOGP3_AA>
2.9

>  <PUBCHEM_EXACT_MASS>
239.058

>  <PUBCHEM_MOLECULAR_FORMULA>
C14H9NO3

>  <PUBCHEM_MOLECULAR_WEIGHT>
239.23

>  <PUBCHEM_OPENEYE_CAN_SMILES>
C1OC2=C(O1)C=C3C(=C2)C=CC4=CC(=CN=C43)O

>  <PUBCHEM_OPENEYE_ISO_SMILES>
C1OC2=C(O1)C=C3C(=C2)C=CC4=CC(=CN=C43)O

>  <PUBCHEM_CACTVS_TPSA>
51.6

>  <PUBCHEM_MONOISOTOPIC_WEIGHT>
239.058

>  <PUBCHEM_TOTAL_CHARGE>
0

>  <PUBCHEM_HEAVY_ATOM_COUNT>
18

>  <PUBCHEM_ATOM_DEF_STEREO_COUNT>
0

>  <PUBCHEM_ATOM_UDEF_STEREO_COUNT>
0

>  <PUBCHEM_BOND_DEF_STEREO_COUNT>
0

>  <PUBCHEM_BOND_UDEF_STEREO_COUNT>
0

>  <PUBCHEM_ISOTOPIC_ATOM_COUNT>
0

>  <PUBCHEM_COMPONENT_COUNT>
1

>  <PUBCHEM_CACTVS_TAUTO_COUNT>
3

>  <PUBCHEM_COORDINATE_TYPE>
1
5
255

>  <PUBCHEM_BONDANNOTATIONS>
11  14  8
11  16  8
13  14  8
16  17  8
17  18  8
4  18  8
4  7  8
5  10  8
5  6  8
5  7  8
6  12  8
6  13  8
7  11  8
8  10  8
8  9  8
9  12  8

$$$$
