11403405
 OpenBabel06101807152D

 42 43  0  0  1  0  0  0  0  0999 V2000
    6.4963   -2.3857    0.0000 O   0  0  0  0  0  0  0  0  0  0  0  0
    3.7061    0.4784    0.0000 O   0  0  0  0  0  0  0  0  0  0  0  0
    2.1077   -2.5254    0.0000 O   0  0  0  0  0  0  0  0  0  0  0  0
    8.3783    2.6931    0.0000 O   0  0  0  0  0  0  0  0  0  0  0  0
    7.3603    1.2918    0.0000 O   0  0  0  0  0  0  0  0  0  0  0  0
    5.3562   -0.9110    0.0000 C   0  0  2  0  0  0  0  0  0  0  0  0
    4.6196    0.0716    0.0000 C   0  0  1  0  0  0  0  0  0  0  0  0
    5.0974   -1.8769    0.0000 C   0  0  1  0  0  0  0  0  0  0  0  0
    3.3230   -1.2221    0.0000 C   0  0  0  0  0  0  0  0  0  0  0  0
    3.8764   -2.7426    0.0000 C   0  0  0  0  0  0  0  0  0  0  0  0
    6.7552   -1.4198    0.0000 C   0  0  0  0  0  0  0  0  0  0  0  0
    3.0473   -2.1834    0.0000 C   0  0  1  0  0  0  0  0  0  0  0  0
    5.6150    0.0549    0.0000 C   0  0  0  0  0  0  0  0  0  0  0  0
    5.1846   -2.8731    0.0000 C   0  0  0  0  0  0  0  0  0  0  0  0
    4.7242    1.0662    0.0000 C   0  0  0  0  0  0  0  0  0  0  0  0
    5.6377    1.4729    0.0000 C   0  0  0  0  0  0  0  0  0  0  0  0
    5.7422    2.4674    0.0000 C   0  0  0  0  0  0  0  0  0  0  0  0
    4.9332    3.0552    0.0000 C   0  0  0  0  0  0  0  0  0  0  0  0
    6.6558    2.8741    0.0000 C   0  0  0  0  0  0  0  0  0  0  0  0
    7.4648    2.2864    0.0000 C   0  0  0  0  0  0  0  0  0  0  0  0
    3.3179   -0.6021    0.0000 H   0  0  0  0  0  0  0  0  0  0  0  0
    2.7087   -1.1383    0.0000 H   0  0  0  0  0  0  0  0  0  0  0  0
    3.4706   -3.2113    0.0000 H   0  0  0  0  0  0  0  0  0  0  0  0
    4.2930   -3.2017    0.0000 H   0  0  0  0  0  0  0  0  0  0  0  0
    7.3491   -1.5976    0.0000 H   0  0  0  0  0  0  0  0  0  0  0  0
    6.9501   -0.8312    0.0000 H   0  0  0  0  0  0  0  0  0  0  0  0
    2.5939   -1.7606    0.0000 H   0  0  0  0  0  0  0  0  0  0  0  0
    6.2139   -0.1055    0.0000 H   0  0  0  0  0  0  0  0  0  0  0  0
    5.7755    0.6538    0.0000 H   0  0  0  0  0  0  0  0  0  0  0  0
    5.0162    0.2154    0.0000 H   0  0  0  0  0  0  0  0  0  0  0  0
    5.2387   -3.4908    0.0000 H   0  0  0  0  0  0  0  0  0  0  0  0
    5.8022   -2.8191    0.0000 H   0  0  0  0  0  0  0  0  0  0  0  0
    4.5669   -2.9272    0.0000 H   0  0  0  0  0  0  0  0  0  0  0  0
    4.2226    1.4306    0.0000 H   0  0  0  0  0  0  0  0  0  0  0  0
    3.2045    0.1139    0.0000 H   0  0  0  0  0  0  0  0  0  0  0  0
    2.0000   -3.1360    0.0000 H   0  0  0  0  0  0  0  0  0  0  0  0
    6.1393    1.1085    0.0000 H   0  0  0  0  0  0  0  0  0  0  0  0
    5.2976    3.5568    0.0000 H   0  0  0  0  0  0  0  0  0  0  0  0
    4.4316    3.4196    0.0000 H   0  0  0  0  0  0  0  0  0  0  0  0
    4.5688    2.5536    0.0000 H   0  0  0  0  0  0  0  0  0  0  0  0
    6.7206    3.4908    0.0000 H   0  0  0  0  0  0  0  0  0  0  0  0
    8.8799    2.3287    0.0000 H   0  0  0  0  0  0  0  0  0  0  0  0
  1  8  1  0  0  0  0
  1 11  1  0  0  0  0
  2 35  1  0  0  0  0
  3 36  1  0  0  0  0
  4 20  1  0  0  0  0
  4 42  1  0  0  0  0
  5 20  2  0  0  0  0
  6  7  1  1  0  0  0
  6  9  1  0  0  0  0
  6 11  1  0  0  0  0
  6 13  1  0  0  0  0
  7  2  1  0  0  0  0
  7  8  1  6  0  0  0
  7 15  1  0  0  0  0
  8 10  1  0  0  0  0
  8 14  1  1  0  0  0
  9 12  1  0  0  0  0
  9 21  1  0  0  0  0
  9 22  1  0  0  0  0
 10 12  1  0  0  0  0
 10 23  1  0  0  0  0
 10 24  1  0  0  0  0
 11 25  1  0  0  0  0
 11 26  1  0  0  0  0
 12  3  1  0  0  0  0
 12 27  1  6  0  0  0
 13 28  1  0  0  0  0
 13 29  1  0  0  0  0
 13 30  1  0  0  0  0
 14 31  1  0  0  0  0
 14 32  1  0  0  0  0
 14 33  1  0  0  0  0
 15 16  2  0  0  0  0
 15 34  1  0  0  0  0
 16 17  1  0  0  0  0
 16 37  1  0  0  0  0
 17 18  1  0  0  0  0
 17 19  2  0  0  0  0
 18 38  1  0  0  0  0
 18 39  1  0  0  0  0
 18 40  1  0  0  0  0
 19 20  1  0  0  0  0
 19 41  1  0  0  0  0
M  ISO  3  31   2  32   2  33   2
M  END
>  <PUBCHEM_COMPOUND_CID>
11403405

>  <PUBCHEM_COMPOUND_CANONICALIZED>
1

>  <PUBCHEM_CACTVS_COMPLEXITY>
483

>  <PUBCHEM_CACTVS_HBOND_ACCEPTOR>
5

>  <PUBCHEM_CACTVS_HBOND_DONOR>
3

>  <PUBCHEM_CACTVS_ROTATABLE_BOND>
3

>  <PUBCHEM_CACTVS_SUBSKEYS>
AAADceBwOAAAAAAAAAAAAAAAAAAAASAAAAAwAAAABIAAAAAAAAAAGgAACAAADlSggAICCAAABgCIAiDSCAAAAAAgAAAICAAAAEgJFAIAAQACUAAFwAALkQPA4PwPgAAAAAAAAABCAAYQADCAAAAAAAAAAA==

>  <PUBCHEM_IUPAC_OPENEYE_NAME>
(2Z,4E)-5-[(1R,3S,5R,8S)-3,8-dihydroxy-1-methyl-5-(trideuteriomethyl)-6-oxabicyclo[3.2.1]octan-8-yl]-3-methyl-penta-2,4-dienoic acid

>  <PUBCHEM_IUPAC_CAS_NAME>
(2Z,4E)-5-[(1R,3S,5R,8S)-3,8-dihydroxy-1-methyl-5-(trideuteriomethyl)-6-oxabicyclo[3.2.1]octan-8-yl]-3-methylpenta-2,4-dienoic acid

>  <PUBCHEM_IUPAC_NAME>
(2Z,4E)-5-[(1R,3S,5R,8S)-3,8-dihydroxy-1-methyl-5-(trideuteriomethyl)-6-oxabicyclo[3.2.1]octan-8-yl]-3-methylpenta-2,4-dienoic acid

>  <PUBCHEM_IUPAC_SYSTEMATIC_NAME>
(2Z,4E)-3-methyl-5-[(1R,3S,5R,8S)-1-methyl-3,8-bis(oxidanyl)-5-(trideuteriomethyl)-6-oxabicyclo[3.2.1]octan-8-yl]penta-2,4-dienoic acid

>  <PUBCHEM_IUPAC_TRADITIONAL_NAME>
(2Z,4E)-5-[(1R,3S,5R,8S)-3,8-dihydroxy-1-methyl-5-(trideuteriomethyl)-6-oxabicyclo[3.2.1]octan-8-yl]-3-methyl-penta-2,4-dienoic acid

>  <PUBCHEM_IUPAC_INCHI>
InChI=1S/C15H22O5/c1-10(6-12(17)18)4-5-15(19)13(2)7-11(16)8-14(15,3)20-9-13/h4-6,11,16,19H,7-9H2,1-3H3,(H,17,18)/b5-4+,10-6-/t11-,13+,14+,15-/m0/s1/i3D3

>  <PUBCHEM_IUPAC_INCHIKEY>
XIVFQYWMMJWUCD-IVZQKAHRSA-N

>  <PUBCHEM_XLOGP3_AA>
0.9

>  <PUBCHEM_EXACT_MASS>
285.166

>  <PUBCHEM_MOLECULAR_FORMULA>
C15H22O5

>  <PUBCHEM_MOLECULAR_WEIGHT>
285.354

>  <PUBCHEM_OPENEYE_CAN_SMILES>
CC(=CC(=O)O)C=CC1(C2(CC(CC1(OC2)C)O)C)O

>  <PUBCHEM_OPENEYE_ISO_SMILES>
[2H]C([2H])([2H])[C@@]12C[C@H](C[C@@]([C@]1(/C=C/C(=C\C(=O)O)/C)O)(CO2)C)O

>  <PUBCHEM_CACTVS_TPSA>
87

>  <PUBCHEM_MONOISOTOPIC_WEIGHT>
285.166

>  <PUBCHEM_TOTAL_CHARGE>
0

>  <PUBCHEM_HEAVY_ATOM_COUNT>
20

>  <PUBCHEM_ATOM_DEF_STEREO_COUNT>
4

>  <PUBCHEM_ATOM_UDEF_STEREO_COUNT>
0

>  <PUBCHEM_BOND_DEF_STEREO_COUNT>
2

>  <PUBCHEM_BOND_UDEF_STEREO_COUNT>
0

>  <PUBCHEM_ISOTOPIC_ATOM_COUNT>
3

>  <PUBCHEM_COMPONENT_COUNT>
1

>  <PUBCHEM_CACTVS_TAUTO_COUNT>
1

>  <PUBCHEM_COORDINATE_TYPE>
1
5
255

>  <PUBCHEM_BONDANNOTATIONS>
7  2  5
12  3  5
6  13  6
8  14  5

$$$$
