11416878
 OpenBabel06101807152D

 57 57  0  0  1  0  0  0  0  0999 V2000
    8.0622   -3.0000    0.0000 O   0  0  0  0  0  0  0  0  0  0  0  0
    8.0622    0.0000    0.0000 O   0  0  0  0  0  0  0  0  0  0  0  0
    9.7942   -3.0000    0.0000 O   0  0  0  0  0  0  0  0  0  0  0  0
    4.5981    4.0000    0.0000 O   0  0  0  0  0  0  0  0  0  0  0  0
    2.8660    3.0000    0.0000 O   0  0  0  0  0  0  0  0  0  0  0  0
    8.0622   -2.0000    0.0000 C   0  0  3  0  0  0  0  0  0  0  0  0
    7.1962   -1.5000    0.0000 C   0  0  0  0  0  0  0  0  0  0  0  0
    7.1962   -0.5000    0.0000 C   0  0  3  0  0  0  0  0  0  0  0  0
    8.9282   -1.5000    0.0000 C   0  0  0  0  0  0  0  0  0  0  0  0
    9.7942   -2.0000    0.0000 C   0  0  0  0  0  0  0  0  0  0  0  0
    6.3301    0.0000    0.0000 C   0  0  0  0  0  0  0  0  0  0  0  0
   10.6603   -1.5000    0.0000 C   0  0  0  0  0  0  0  0  0  0  0  0
    6.3301    1.0000    0.0000 C   0  0  0  0  0  0  0  0  0  0  0  0
   11.5263   -2.0000    0.0000 C   0  0  0  0  0  0  0  0  0  0  0  0
    5.4641    1.5000    0.0000 C   0  0  0  0  0  0  0  0  0  0  0  0
   12.3923   -1.5000    0.0000 C   0  0  0  0  0  0  0  0  0  0  0  0
    8.9282   -3.5000    0.0000 C   0  0  0  0  0  0  0  0  0  0  0  0
    5.4641    2.5000    0.0000 C   0  0  0  0  0  0  0  0  0  0  0  0
    4.5981    1.0000    0.0000 C   0  0  0  0  0  0  0  0  0  0  0  0
    4.5981    3.0000    0.0000 C   0  0  0  0  0  0  0  0  0  0  0  0
    3.7320    1.5000    0.0000 C   0  0  0  0  0  0  0  0  0  0  0  0
    3.7320    2.5000    0.0000 C   0  0  0  0  0  0  0  0  0  0  0  0
    8.9282   -4.5000    0.0000 C   0  0  0  0  0  0  0  0  0  0  0  0
    5.4641    4.5000    0.0000 C   0  0  0  0  0  0  0  0  0  0  0  0
    2.0000    2.5000    0.0000 C   0  0  0  0  0  0  0  0  0  0  0  0
    7.3261   -2.4250    0.0000 H   0  0  0  0  0  0  0  0  0  0  0  0
    6.5856   -1.3923    0.0000 H   0  0  0  0  0  0  0  0  0  0  0  0
    6.9841   -2.0826    0.0000 H   0  0  0  0  0  0  0  0  0  0  0  0
    7.9323   -0.9250    0.0000 H   0  0  0  0  0  0  0  0  0  0  0  0
    9.3267   -1.0250    0.0000 H   0  0  0  0  0  0  0  0  0  0  0  0
    8.5297   -1.0250    0.0000 H   0  0  0  0  0  0  0  0  0  0  0  0
    9.3957   -2.4750    0.0000 H   0  0  0  0  0  0  0  0  0  0  0  0
   10.1928   -2.4750    0.0000 H   0  0  0  0  0  0  0  0  0  0  0  0
    5.7196    0.1077    0.0000 H   0  0  0  0  0  0  0  0  0  0  0  0
    6.1181   -0.5826    0.0000 H   0  0  0  0  0  0  0  0  0  0  0  0
   11.0588   -1.0250    0.0000 H   0  0  0  0  0  0  0  0  0  0  0  0
   10.2617   -1.0250    0.0000 H   0  0  0  0  0  0  0  0  0  0  0  0
    6.9407    0.8923    0.0000 H   0  0  0  0  0  0  0  0  0  0  0  0
    6.5422    1.5826    0.0000 H   0  0  0  0  0  0  0  0  0  0  0  0
   11.1278   -2.4750    0.0000 H   0  0  0  0  0  0  0  0  0  0  0  0
   11.9248   -2.4750    0.0000 H   0  0  0  0  0  0  0  0  0  0  0  0
    8.5991   -0.3100    0.0000 H   0  0  0  0  0  0  0  0  0  0  0  0
   12.7023   -2.0369    0.0000 H   0  0  0  0  0  0  0  0  0  0  0  0
   12.9292   -1.1900    0.0000 H   0  0  0  0  0  0  0  0  0  0  0  0
   12.0823   -0.9631    0.0000 H   0  0  0  0  0  0  0  0  0  0  0  0
    6.0010    2.8100    0.0000 H   0  0  0  0  0  0  0  0  0  0  0  0
    4.5981    0.3800    0.0000 H   0  0  0  0  0  0  0  0  0  0  0  0
    3.1951    1.1900    0.0000 H   0  0  0  0  0  0  0  0  0  0  0  0
    8.3082   -4.5000    0.0000 H   0  0  0  0  0  0  0  0  0  0  0  0
    8.9282   -5.1200    0.0000 H   0  0  0  0  0  0  0  0  0  0  0  0
    9.5482   -4.5000    0.0000 H   0  0  0  0  0  0  0  0  0  0  0  0
    5.7741    3.9631    0.0000 H   0  0  0  0  0  0  0  0  0  0  0  0
    6.0010    4.8100    0.0000 H   0  0  0  0  0  0  0  0  0  0  0  0
    5.1541    5.0369    0.0000 H   0  0  0  0  0  0  0  0  0  0  0  0
    1.6900    3.0369    0.0000 H   0  0  0  0  0  0  0  0  0  0  0  0
    1.4631    2.1900    0.0000 H   0  0  0  0  0  0  0  0  0  0  0  0
    2.3100    1.9631    0.0000 H   0  0  0  0  0  0  0  0  0  0  0  0
  1  6  1  0  0  0  0
  1 17  1  0  0  0  0
  2  8  1  0  0  0  0
  2 42  1  0  0  0  0
  3 17  2  0  0  0  0
  4 20  1  0  0  0  0
  4 24  1  0  0  0  0
  5 22  1  0  0  0  0
  5 25  1  0  0  0  0
  6  7  1  0  0  0  0
  6  9  1  0  0  0  0
  6 26  1  0  0  0  0
  7  8  1  0  0  0  0
  7 27  1  0  0  0  0
  7 28  1  0  0  0  0
  8 11  1  0  0  0  0
  8 29  1  0  0  0  0
  9 10  1  0  0  0  0
  9 30  1  0  0  0  0
  9 31  1  0  0  0  0
 10 12  1  0  0  0  0
 10 32  1  0  0  0  0
 10 33  1  0  0  0  0
 11 13  1  0  0  0  0
 11 34  1  0  0  0  0
 11 35  1  0  0  0  0
 12 14  1  0  0  0  0
 12 36  1  0  0  0  0
 12 37  1  0  0  0  0
 13 15  1  0  0  0  0
 13 38  1  0  0  0  0
 13 39  1  0  0  0  0
 14 16  1  0  0  0  0
 14 40  1  0  0  0  0
 14 41  1  0  0  0  0
 15 18  2  0  0  0  0
 15 19  1  0  0  0  0
 16 43  1  0  0  0  0
 16 44  1  0  0  0  0
 16 45  1  0  0  0  0
 17 23  1  0  0  0  0
 18 20  1  0  0  0  0
 18 46  1  0  0  0  0
 19 21  2  0  0  0  0
 19 47  1  0  0  0  0
 20 22  2  0  0  0  0
 21 22  1  0  0  0  0
 21 48  1  0  0  0  0
 23 49  1  0  0  0  0
 23 50  1  0  0  0  0
 23 51  1  0  0  0  0
 24 52  1  0  0  0  0
 24 53  1  0  0  0  0
 24 54  1  0  0  0  0
 25 55  1  0  0  0  0
 25 56  1  0  0  0  0
 25 57  1  0  0  0  0
M  END
>  <PUBCHEM_COMPOUND_CID>
11416878

>  <PUBCHEM_COMPOUND_CANONICALIZED>
1

>  <PUBCHEM_CACTVS_COMPLEXITY>
360

>  <PUBCHEM_CACTVS_HBOND_ACCEPTOR>
5

>  <PUBCHEM_CACTVS_HBOND_DONOR>
1

>  <PUBCHEM_CACTVS_ROTATABLE_BOND>
13

>  <PUBCHEM_CACTVS_SUBSKEYS>
AAADcfB4OAAAAAAAAAAAAAAAAAAAAAAAAAAwAAAAAAAAAAABAAAAGgAACAAADBSgmAIyDoAABgCIAiDSCAACCAAgIAAIiAAGiIgNNiKEMRqCcCIlwBEKqAeAwPAOIAABAAAAQABAAAIAAACAAAAAAAAAAA==

>  <PUBCHEM_IUPAC_OPENEYE_NAME>
1-[4-(3,4-dimethoxyphenyl)-2-hydroxy-butyl]hexyl acetate

>  <PUBCHEM_IUPAC_CAS_NAME>
acetic acid [1-(3,4-dimethoxyphenyl)-3-hydroxydecan-5-yl] ester

>  <PUBCHEM_IUPAC_NAME>
[1-(3,4-dimethoxyphenyl)-3-hydroxydecan-5-yl] acetate

>  <PUBCHEM_IUPAC_SYSTEMATIC_NAME>
[1-(3,4-dimethoxyphenyl)-3-oxidanyl-decan-5-yl] ethanoate

>  <PUBCHEM_IUPAC_TRADITIONAL_NAME>
acetic acid 1-[4-(3,4-dimethoxyphenyl)-2-hydroxy-butyl]hexyl ester

>  <PUBCHEM_IUPAC_INCHI>
InChI=1S/C20H32O5/c1-5-6-7-8-18(25-15(2)21)14-17(22)11-9-16-10-12-19(23-3)20(13-16)24-4/h10,12-13,17-18,22H,5-9,11,14H2,1-4H3

>  <PUBCHEM_IUPAC_INCHIKEY>
MVMCYBCRYZSVDR-UHFFFAOYSA-N

>  <PUBCHEM_XLOGP3_AA>
4.5

>  <PUBCHEM_EXACT_MASS>
352.225

>  <PUBCHEM_MOLECULAR_FORMULA>
C20H32O5

>  <PUBCHEM_MOLECULAR_WEIGHT>
352.471

>  <PUBCHEM_OPENEYE_CAN_SMILES>
CCCCCC(CC(CCC1=CC(=C(C=C1)OC)OC)O)OC(=O)C

>  <PUBCHEM_OPENEYE_ISO_SMILES>
CCCCCC(CC(CCC1=CC(=C(C=C1)OC)OC)O)OC(=O)C

>  <PUBCHEM_CACTVS_TPSA>
65

>  <PUBCHEM_MONOISOTOPIC_WEIGHT>
352.225

>  <PUBCHEM_TOTAL_CHARGE>
0

>  <PUBCHEM_HEAVY_ATOM_COUNT>
25

>  <PUBCHEM_ATOM_DEF_STEREO_COUNT>
0

>  <PUBCHEM_ATOM_UDEF_STEREO_COUNT>
2

>  <PUBCHEM_BOND_DEF_STEREO_COUNT>
0

>  <PUBCHEM_BOND_UDEF_STEREO_COUNT>
0

>  <PUBCHEM_ISOTOPIC_ATOM_COUNT>
0

>  <PUBCHEM_COMPONENT_COUNT>
1

>  <PUBCHEM_CACTVS_TAUTO_COUNT>
1

>  <PUBCHEM_COORDINATE_TYPE>
1
5
255

>  <PUBCHEM_BONDANNOTATIONS>
15  18  8
15  19  8
18  20  8
19  21  8
20  22  8
21  22  8
6  26  3
8  29  3

$$$$
