11425998
 OpenBabel06101807152D

 30 32  0  0  1  0  0  0  0  0999 V2000
    5.7021    0.5195    0.0000 S   0  0  0  0  0  0  0  0  0  0  0  0
    6.5111    2.1073    0.0000 S   0  0  0  0  0  0  0  0  0  0  0  0
    5.0601   -2.3586    0.0000 O   0  0  0  0  0  0  0  0  0  0  0  0
    6.3388   -0.5986    0.0000 O   0  0  0  0  0  0  0  0  0  0  0  0
    4.7511   -1.4076    0.0000 N   0  0  0  0  0  0  0  0  0  0  0  0
    4.7511    1.8285    0.0000 N   0  0  0  0  0  0  0  0  0  0  0  0
    4.7511    0.2105    0.0000 C   0  0  3  0  0  0  0  0  0  0  0  0
    3.8000   -0.0986    0.0000 C   0  0  0  0  0  0  0  0  0  0  0  0
    4.1633    1.0195    0.0000 C   0  0  0  0  0  0  0  0  0  0  0  0
    5.3388   -0.5986    0.0000 C   0  0  0  0  0  0  0  0  0  0  0  0
    3.8000   -1.0986    0.0000 C   0  0  0  0  0  0  0  0  0  0  0  0
    2.9061    0.4361    0.0000 C   0  0  0  0  0  0  0  0  0  0  0  0
    5.7021    1.5195    0.0000 C   0  0  0  0  0  0  0  0  0  0  0  0
    2.9061   -1.6332    0.0000 C   0  0  0  0  0  0  0  0  0  0  0  0
    2.0000   -0.0777    0.0000 C   0  0  0  0  0  0  0  0  0  0  0  0
    2.0000   -1.1194    0.0000 C   0  0  0  0  0  0  0  0  0  0  0  0
    4.3910   -3.1018    0.0000 C   0  0  0  0  0  0  0  0  0  0  0  0
    6.4066    3.1018    0.0000 C   0  0  0  0  0  0  0  0  0  0  0  0
    3.7025    1.4343    0.0000 H   0  0  0  0  0  0  0  0  0  0  0  0
    3.7025    0.6046    0.0000 H   0  0  0  0  0  0  0  0  0  0  0  0
    2.9132    1.0561    0.0000 H   0  0  0  0  0  0  0  0  0  0  0  0
    2.9132   -2.2532    0.0000 H   0  0  0  0  0  0  0  0  0  0  0  0
    1.4643    0.2343    0.0000 H   0  0  0  0  0  0  0  0  0  0  0  0
    1.4643   -1.4314    0.0000 H   0  0  0  0  0  0  0  0  0  0  0  0
    3.9302   -2.6869    0.0000 H   0  0  0  0  0  0  0  0  0  0  0  0
    3.9761   -3.5625    0.0000 H   0  0  0  0  0  0  0  0  0  0  0  0
    4.8517   -3.5166    0.0000 H   0  0  0  0  0  0  0  0  0  0  0  0
    7.0232    3.1666    0.0000 H   0  0  0  0  0  0  0  0  0  0  0  0
    6.3418    3.7184    0.0000 H   0  0  0  0  0  0  0  0  0  0  0  0
    5.7900    3.0370    0.0000 H   0  0  0  0  0  0  0  0  0  0  0  0
  1  7  1  0  0  0  0
  1 13  1  0  0  0  0
  2 13  1  0  0  0  0
  2 18  1  0  0  0  0
  3  5  1  0  0  0  0
  3 17  1  0  0  0  0
  4 10  2  0  0  0  0
  5 10  1  0  0  0  0
  5 11  1  0  0  0  0
  6  9  1  0  0  0  0
  6 13  2  0  0  0  0
  7  8  1  0  0  0  0
  7  9  1  0  0  0  0
  7 10  1  0  0  0  0
  8 11  1  0  0  0  0
  8 12  2  0  0  0  0
  9 19  1  0  0  0  0
  9 20  1  0  0  0  0
 11 14  2  0  0  0  0
 12 15  1  0  0  0  0
 12 21  1  0  0  0  0
 14 16  1  0  0  0  0
 14 22  1  0  0  0  0
 15 16  2  0  0  0  0
 15 23  1  0  0  0  0
 16 24  1  0  0  0  0
 17 25  1  0  0  0  0
 17 26  1  0  0  0  0
 17 27  1  0  0  0  0
 18 28  1  0  0  0  0
 18 29  1  0  0  0  0
 18 30  1  0  0  0  0
M  END
>  <PUBCHEM_COMPOUND_CID>
11425998

>  <PUBCHEM_COMPOUND_CANONICALIZED>
1

>  <PUBCHEM_CACTVS_COMPLEXITY>
402

>  <PUBCHEM_CACTVS_HBOND_ACCEPTOR>
5

>  <PUBCHEM_CACTVS_HBOND_DONOR>
0

>  <PUBCHEM_CACTVS_ROTATABLE_BOND>
2

>  <PUBCHEM_CACTVS_SUBSKEYS>
AAADccBzMABgAAAAAAAAAAAAAAAAAWIAAAAwAAAAAAAAAFgBAAAAHgQEAAAADAjB2AaywIIQAAioAiVSVACCEQAhAhAoiAEAZIgIIDrg1ZGEIAhghADIyAcciMCOgAAAAAACAAAAAAAAAAQAAAAAAAAAAA==

>  <PUBCHEM_IUPAC_OPENEYE_NAME>
1'-methoxy-2-methylsulfanyl-spiro[4H-thiazole-5,3'-indoline]-2'-one

>  <PUBCHEM_IUPAC_CAS_NAME>
1'-methoxy-2-(methylthio)-2'-spiro[4H-thiazole-5,3'-indole]one

>  <PUBCHEM_IUPAC_NAME>
1'-methoxy-2-methylsulfanylspiro[4H-1,3-thiazole-5,3'-indole]-2'-one

>  <PUBCHEM_IUPAC_SYSTEMATIC_NAME>
1'-methoxy-2-methylsulfanyl-spiro[4H-1,3-thiazole-5,3'-indole]-2'-one

>  <PUBCHEM_IUPAC_TRADITIONAL_NAME>
1'-methoxy-2-(methylthio)spiro[2-thiazoline-5,3'-indoline]-2'-one

>  <PUBCHEM_IUPAC_INCHI>
InChI=1S/C12H12N2O2S2/c1-16-14-9-6-4-3-5-8(9)12(10(14)15)7-13-11(17-2)18-12/h3-6H,7H2,1-2H3

>  <PUBCHEM_IUPAC_INCHIKEY>
HXTLALYTXJCGLD-UHFFFAOYSA-N

>  <PUBCHEM_XLOGP3_AA>
2

>  <PUBCHEM_EXACT_MASS>
280.034

>  <PUBCHEM_MOLECULAR_FORMULA>
C12H12N2O2S2

>  <PUBCHEM_MOLECULAR_WEIGHT>
280.36

>  <PUBCHEM_OPENEYE_CAN_SMILES>
CON1C2=CC=CC=C2C3(C1=O)CN=C(S3)SC

>  <PUBCHEM_OPENEYE_ISO_SMILES>
CON1C2=CC=CC=C2C3(C1=O)CN=C(S3)SC

>  <PUBCHEM_CACTVS_TPSA>
92.5

>  <PUBCHEM_MONOISOTOPIC_WEIGHT>
280.034

>  <PUBCHEM_TOTAL_CHARGE>
0

>  <PUBCHEM_HEAVY_ATOM_COUNT>
18

>  <PUBCHEM_ATOM_DEF_STEREO_COUNT>
0

>  <PUBCHEM_ATOM_UDEF_STEREO_COUNT>
1

>  <PUBCHEM_BOND_DEF_STEREO_COUNT>
0

>  <PUBCHEM_BOND_UDEF_STEREO_COUNT>
0

>  <PUBCHEM_ISOTOPIC_ATOM_COUNT>
0

>  <PUBCHEM_COMPONENT_COUNT>
1

>  <PUBCHEM_CACTVS_TAUTO_COUNT>
1

>  <PUBCHEM_COORDINATE_TYPE>
1
5
255

>  <PUBCHEM_BONDANNOTATIONS>
11  14  8
12  15  8
14  16  8
15  16  8
7  9  3
8  11  8
8  12  8

$$$$
