11425230
 OpenBabel06101807152D

 40 41  0  0  1  0  0  0  0  0999 V2000
    4.8350   -0.9404    0.0000 O   0  0  0  0  0  0  0  0  0  0  0  0
    2.6131   -2.2815    0.0000 O   0  0  0  0  0  0  0  0  0  0  0  0
    8.2809    1.2073    0.0000 O   0  0  0  0  0  0  0  0  0  0  0  0
    3.8600   -0.7179    0.0000 C   0  0  3  0  0  0  0  0  0  0  0  0
    3.4262    0.1831    0.0000 C   0  0  0  0  0  0  0  0  0  0  0  0
    3.8600    1.0841    0.0000 C   0  0  0  0  0  0  0  0  0  0  0  0
    4.8350    1.3066    0.0000 C   0  0  3  0  0  0  0  0  0  0  0  0
    3.2366   -1.4997    0.0000 C   0  0  0  0  0  0  0  0  0  0  0  0
    5.6168    0.6831    0.0000 C   0  0  0  0  0  0  0  0  0  0  0  0
    5.6168   -0.3169    0.0000 C   0  0  0  0  0  0  0  0  0  0  0  0
    5.0575    2.2815    0.0000 C   0  0  0  0  0  0  0  0  0  0  0  0
    2.4547   -0.8762    0.0000 C   0  0  0  0  0  0  0  0  0  0  0  0
    4.0184   -2.1232    0.0000 C   0  0  0  0  0  0  0  0  0  0  0  0
    6.5108    1.2178    0.0000 C   0  0  0  0  0  0  0  0  0  0  0  0
    6.5108   -0.8516    0.0000 C   0  0  0  0  0  0  0  0  0  0  0  0
    7.4168   -0.3377    0.0000 C   0  0  0  0  0  0  0  0  0  0  0  0
    7.4168    0.7039    0.0000 C   0  0  0  0  0  0  0  0  0  0  0  0
    8.2809   -0.8410    0.0000 C   0  0  0  0  0  0  0  0  0  0  0  0
    4.1408   -1.5202    0.0000 H   0  0  0  0  0  0  0  0  0  0  0  0
    2.9414    0.5697    0.0000 H   0  0  0  0  0  0  0  0  0  0  0  0
    2.9414   -0.2035    0.0000 H   0  0  0  0  0  0  0  0  0  0  0  0
    3.8600    1.7041    0.0000 H   0  0  0  0  0  0  0  0  0  0  0  0
    3.2556    1.2220    0.0000 H   0  0  0  0  0  0  0  0  0  0  0  0
    4.2339    1.9076    0.0000 H   0  0  0  0  0  0  0  0  0  0  0  0
    5.6620    2.1436    0.0000 H   0  0  0  0  0  0  0  0  0  0  0  0
    5.1955    2.8860    0.0000 H   0  0  0  0  0  0  0  0  0  0  0  0
    4.4530    2.4195    0.0000 H   0  0  0  0  0  0  0  0  0  0  0  0
    2.8413   -0.3915    0.0000 H   0  0  0  0  0  0  0  0  0  0  0  0
    1.9700   -0.4896    0.0000 H   0  0  0  0  0  0  0  0  0  0  0  0
    2.0682   -1.3609    0.0000 H   0  0  0  0  0  0  0  0  0  0  0  0
    3.6318   -2.6079    0.0000 H   0  0  0  0  0  0  0  0  0  0  0  0
    4.5031   -2.5098    0.0000 H   0  0  0  0  0  0  0  0  0  0  0  0
    4.4050   -1.6384    0.0000 H   0  0  0  0  0  0  0  0  0  0  0  0
    6.5036    1.8377    0.0000 H   0  0  0  0  0  0  0  0  0  0  0  0
    6.5036   -1.4715    0.0000 H   0  0  0  0  0  0  0  0  0  0  0  0
    2.0000   -2.1891    0.0000 H   0  0  0  0  0  0  0  0  0  0  0  0
    7.9688   -1.3768    0.0000 H   0  0  0  0  0  0  0  0  0  0  0  0
    8.8166   -1.1531    0.0000 H   0  0  0  0  0  0  0  0  0  0  0  0
    8.5930   -0.3053    0.0000 H   0  0  0  0  0  0  0  0  0  0  0  0
    8.2785    1.8272    0.0000 H   0  0  0  0  0  0  0  0  0  0  0  0
  1  4  1  0  0  0  0
  1 10  1  0  0  0  0
  2  8  1  0  0  0  0
  2 36  1  0  0  0  0
  3 17  1  0  0  0  0
  3 40  1  0  0  0  0
  4  5  1  0  0  0  0
  4  8  1  0  0  0  0
  4 19  1  0  0  0  0
  5  6  1  0  0  0  0
  5 20  1  0  0  0  0
  5 21  1  0  0  0  0
  6  7  1  0  0  0  0
  6 22  1  0  0  0  0
  6 23  1  0  0  0  0
  7  9  1  0  0  0  0
  7 11  1  0  0  0  0
  7 24  1  0  0  0  0
  8 12  1  0  0  0  0
  8 13  1  0  0  0  0
  9 10  1  0  0  0  0
  9 14  2  0  0  0  0
 10 15  2  0  0  0  0
 11 25  1  0  0  0  0
 11 26  1  0  0  0  0
 11 27  1  0  0  0  0
 12 28  1  0  0  0  0
 12 29  1  0  0  0  0
 12 30  1  0  0  0  0
 13 31  1  0  0  0  0
 13 32  1  0  0  0  0
 13 33  1  0  0  0  0
 14 17  1  0  0  0  0
 14 34  1  0  0  0  0
 15 16  1  0  0  0  0
 15 35  1  0  0  0  0
 16 17  2  0  0  0  0
 16 18  1  0  0  0  0
 18 37  1  0  0  0  0
 18 38  1  0  0  0  0
 18 39  1  0  0  0  0
M  END
>  <PUBCHEM_COMPOUND_CID>
11425230

>  <PUBCHEM_COMPOUND_CANONICALIZED>
1

>  <PUBCHEM_CACTVS_COMPLEXITY>
290

>  <PUBCHEM_CACTVS_HBOND_ACCEPTOR>
3

>  <PUBCHEM_CACTVS_HBOND_DONOR>
2

>  <PUBCHEM_CACTVS_ROTATABLE_BOND>
1

>  <PUBCHEM_CACTVS_SUBSKEYS>
AAADceBwMAAAAAAAAAAAAAAAAAAAAAAAAAAwAAAABIAAAAABAAAAGgAACAAADVSgmAIyBoAABgCAAiBCAAACCAAgIAAAiAAGCIgNJiKGMRqCeCCkwBELuAfAwPAOwQABAAAIAACCAAIAABAAAAAAAAAAAA==

>  <PUBCHEM_IUPAC_OPENEYE_NAME>
2-(1-hydroxy-1-methyl-ethyl)-5,8-dimethyl-2,3,4,5-tetrahydro-1-benzoxepin-7-ol

>  <PUBCHEM_IUPAC_CAS_NAME>
2-(2-hydroxypropan-2-yl)-5,8-dimethyl-2,3,4,5-tetrahydro-1-benzoxepin-7-ol

>  <PUBCHEM_IUPAC_NAME>
2-(2-hydroxypropan-2-yl)-5,8-dimethyl-2,3,4,5-tetrahydro-1-benzoxepin-7-ol

>  <PUBCHEM_IUPAC_SYSTEMATIC_NAME>
5,8-dimethyl-2-(2-oxidanylpropan-2-yl)-2,3,4,5-tetrahydro-1-benzoxepin-7-ol

>  <PUBCHEM_IUPAC_TRADITIONAL_NAME>
2-(1-hydroxy-1-methyl-ethyl)-5,8-dimethyl-2,3,4,5-tetrahydro-1-benzoxepin-7-ol

>  <PUBCHEM_IUPAC_INCHI>
InChI=1S/C15H22O3/c1-9-5-6-14(15(3,4)17)18-13-7-10(2)12(16)8-11(9)13/h7-9,14,16-17H,5-6H2,1-4H3

>  <PUBCHEM_IUPAC_INCHIKEY>
BIIJJHXLFCDTIZ-UHFFFAOYSA-N

>  <PUBCHEM_XLOGP3_AA>
3

>  <PUBCHEM_EXACT_MASS>
250.157

>  <PUBCHEM_MOLECULAR_FORMULA>
C15H22O3

>  <PUBCHEM_MOLECULAR_WEIGHT>
250.338

>  <PUBCHEM_OPENEYE_CAN_SMILES>
CC1CCC(OC2=CC(=C(C=C12)O)C)C(C)(C)O

>  <PUBCHEM_OPENEYE_ISO_SMILES>
CC1CCC(OC2=CC(=C(C=C12)O)C)C(C)(C)O

>  <PUBCHEM_CACTVS_TPSA>
49.7

>  <PUBCHEM_MONOISOTOPIC_WEIGHT>
250.157

>  <PUBCHEM_TOTAL_CHARGE>
0

>  <PUBCHEM_HEAVY_ATOM_COUNT>
18

>  <PUBCHEM_ATOM_DEF_STEREO_COUNT>
0

>  <PUBCHEM_ATOM_UDEF_STEREO_COUNT>
2

>  <PUBCHEM_BOND_DEF_STEREO_COUNT>
0

>  <PUBCHEM_BOND_UDEF_STEREO_COUNT>
0

>  <PUBCHEM_ISOTOPIC_ATOM_COUNT>
0

>  <PUBCHEM_COMPONENT_COUNT>
1

>  <PUBCHEM_CACTVS_TAUTO_COUNT>
6

>  <PUBCHEM_COORDINATE_TYPE>
1
5
255

>  <PUBCHEM_BONDANNOTATIONS>
10  15  8
14  17  8
15  16  8
16  17  8
4  19  3
7  24  3
9  10  8
9  14  8

$$$$
