11465808
 OpenBabel06101807152D

 62 67  0  0  0  0  0  0  0  0999 V2000
    6.3843    3.5930    0.0000 O   0  0  0  0  0  0  0  0  0  0  0  0
    8.1544   -0.4867    0.0000 O   0  0  0  0  0  0  0  0  0  0  0  0
    4.6026    0.5342    0.0000 O   0  0  0  0  0  0  0  0  0  0  0  0
    3.7581   -1.0311    0.0000 O   0  0  0  0  0  0  0  0  0  0  0  0
   10.7847    4.1035    0.0000 O   0  0  0  0  0  0  0  0  0  0  0  0
    2.0000   -4.1035    0.0000 O   0  0  0  0  0  0  0  0  0  0  0  0
    7.2666    1.0584    0.0000 C   0  0  0  0  0  0  0  0  0  0  0  0
    8.1327    0.5584    0.0000 C   0  0  0  0  0  0  0  0  0  0  0  0
    6.3727    0.5237    0.0000 C   0  0  0  0  0  0  0  0  0  0  0  0
    7.2666    2.0584    0.0000 C   0  0  0  0  0  0  0  0  0  0  0  0
    8.9987    1.0584    0.0000 C   0  0  0  0  0  0  0  0  0  0  0  0
    5.5144   -2.0522    0.0000 C   0  0  0  0  0  0  0  0  0  0  0  0
    6.3843   -2.5455    0.0000 C   0  0  0  0  0  0  0  0  0  0  0  0
    6.3920   -3.5455    0.0000 C   0  0  0  0  0  0  0  0  0  0  0  0
    6.3843   -0.4762    0.0000 C   0  0  0  0  0  0  0  0  0  0  0  0
    8.1327    2.5584    0.0000 C   0  0  0  0  0  0  0  0  0  0  0  0
    5.5298   -4.0522    0.0000 C   0  0  0  0  0  0  0  0  0  0  0  0
    8.9987    2.0584    0.0000 C   0  0  0  0  0  0  0  0  0  0  0  0
    4.6523   -2.5589    0.0000 C   0  0  0  0  0  0  0  0  0  0  0  0
    4.6600   -3.5588    0.0000 C   0  0  0  0  0  0  0  0  0  0  0  0
    5.4903   -1.0109    0.0000 C   0  0  0  0  0  0  0  0  0  0  0  0
    7.2903   -0.9901    0.0000 C   0  0  0  0  0  0  0  0  0  0  0  0
    6.3727    2.5930    0.0000 C   0  0  0  0  0  0  0  0  0  0  0  0
    7.2903   -2.0317    0.0000 C   0  0  0  0  0  0  0  0  0  0  0  0
    5.4666    1.0376    0.0000 C   0  0  0  0  0  0  0  0  0  0  0  0
    5.4666    2.0792    0.0000 C   0  0  0  0  0  0  0  0  0  0  0  0
    3.7542   -2.0311    0.0000 C   0  0  0  0  0  0  0  0  0  0  0  0
    9.9087    2.5652    0.0000 C   0  0  0  0  0  0  0  0  0  0  0  0
    8.1166    3.5999    0.0000 C   0  0  0  0  0  0  0  0  0  0  0  0
    3.7702   -4.1004    0.0000 C   0  0  0  0  0  0  0  0  0  0  0  0
    2.8522   -2.5520    0.0000 C   0  0  0  0  0  0  0  0  0  0  0  0
    9.9167    3.6068    0.0000 C   0  0  0  0  0  0  0  0  0  0  0  0
    2.8602   -3.5936    0.0000 C   0  0  0  0  0  0  0  0  0  0  0  0
    9.0146    4.1276    0.0000 C   0  0  0  0  0  0  0  0  0  0  0  0
    5.5241    4.1030    0.0000 C   0  0  0  0  0  0  0  0  0  0  0  0
    2.8940   -0.5278    0.0000 C   0  0  0  0  0  0  0  0  0  0  0  0
    7.7342    0.0834    0.0000 H   0  0  0  0  0  0  0  0  0  0  0  0
    8.5312    0.0834    0.0000 H   0  0  0  0  0  0  0  0  0  0  0  0
    9.2108    0.4758    0.0000 H   0  0  0  0  0  0  0  0  0  0  0  0
    9.6093    1.1660    0.0000 H   0  0  0  0  0  0  0  0  0  0  0  0
    6.6085   -4.1265    0.0000 H   0  0  0  0  0  0  0  0  0  0  0  0
    7.0017   -3.4331    0.0000 H   0  0  0  0  0  0  0  0  0  0  0  0
    5.1350   -4.5302    0.0000 H   0  0  0  0  0  0  0  0  0  0  0  0
    5.9320   -4.5240    0.0000 H   0  0  0  0  0  0  0  0  0  0  0  0
    4.9475   -0.7113    0.0000 H   0  0  0  0  0  0  0  0  0  0  0  0
    7.8261   -2.3438    0.0000 H   0  0  0  0  0  0  0  0  0  0  0  0
    4.9309    2.3913    0.0000 H   0  0  0  0  0  0  0  0  0  0  0  0
   10.4420    2.2490    0.0000 H   0  0  0  0  0  0  0  0  0  0  0  0
    7.5761    3.9037    0.0000 H   0  0  0  0  0  0  0  0  0  0  0  0
    3.7821   -4.7203    0.0000 H   0  0  0  0  0  0  0  0  0  0  0  0
    2.3140   -2.2440    0.0000 H   0  0  0  0  0  0  0  0  0  0  0  0
    9.0123    4.7476    0.0000 H   0  0  0  0  0  0  0  0  0  0  0  0
    8.6926   -0.7946    0.0000 H   0  0  0  0  0  0  0  0  0  0  0  0
    4.0644    0.8422    0.0000 H   0  0  0  0  0  0  0  0  0  0  0  0
    5.8403    4.6363    0.0000 H   0  0  0  0  0  0  0  0  0  0  0  0
    4.9908    4.4192    0.0000 H   0  0  0  0  0  0  0  0  0  0  0  0
    5.2079    3.5696    0.0000 H   0  0  0  0  0  0  0  0  0  0  0  0
   10.7871    4.7235    0.0000 H   0  0  0  0  0  0  0  0  0  0  0  0
    2.0072   -4.7235    0.0000 H   0  0  0  0  0  0  0  0  0  0  0  0
    3.2061    0.0079    0.0000 H   0  0  0  0  0  0  0  0  0  0  0  0
    2.3583   -0.2157    0.0000 H   0  0  0  0  0  0  0  0  0  0  0  0
    2.5819   -1.0635    0.0000 H   0  0  0  0  0  0  0  0  0  0  0  0
  1 23  1  0  0  0  0
  1 35  1  0  0  0  0
  2 22  1  0  0  0  0
  2 53  1  0  0  0  0
  3 25  1  0  0  0  0
  3 54  1  0  0  0  0
  4 27  1  0  0  0  0
  4 36  1  0  0  0  0
  5 32  1  0  0  0  0
  5 58  1  0  0  0  0
  6 33  1  0  0  0  0
  6 59  1  0  0  0  0
  7  8  1  0  0  0  0
  7  9  2  0  0  0  0
  7 10  1  0  0  0  0
  8 11  1  0  0  0  0
  8 37  1  0  0  0  0
  8 38  1  0  0  0  0
  9 15  1  0  0  0  0
  9 25  1  0  0  0  0
 10 16  1  0  0  0  0
 10 23  2  0  0  0  0
 11 18  1  0  0  0  0
 11 39  1  0  0  0  0
 11 40  1  0  0  0  0
 12 13  1  0  0  0  0
 12 19  1  0  0  0  0
 12 21  2  0  0  0  0
 13 14  1  0  0  0  0
 13 24  2  0  0  0  0
 14 17  1  0  0  0  0
 14 41  1  0  0  0  0
 14 42  1  0  0  0  0
 15 21  1  0  0  0  0
 15 22  2  0  0  0  0
 16 18  2  0  0  0  0
 16 29  1  0  0  0  0
 17 20  1  0  0  0  0
 17 43  1  0  0  0  0
 17 44  1  0  0  0  0
 18 28  1  0  0  0  0
 19 20  2  0  0  0  0
 19 27  1  0  0  0  0
 20 30  1  0  0  0  0
 21 45  1  0  0  0  0
 22 24  1  0  0  0  0
 23 26  1  0  0  0  0
 24 46  1  0  0  0  0
 25 26  2  0  0  0  0
 26 47  1  0  0  0  0
 27 31  2  0  0  0  0
 28 32  2  0  0  0  0
 28 48  1  0  0  0  0
 29 34  2  0  0  0  0
 29 49  1  0  0  0  0
 30 33  2  0  0  0  0
 30 50  1  0  0  0  0
 31 33  1  0  0  0  0
 31 51  1  0  0  0  0
 32 34  1  0  0  0  0
 34 52  1  0  0  0  0
 35 55  1  0  0  0  0
 35 56  1  0  0  0  0
 35 57  1  0  0  0  0
 36 60  1  0  0  0  0
 36 61  1  0  0  0  0
 36 62  1  0  0  0  0
M  END
>  <PUBCHEM_COMPOUND_CID>
11465808

>  <PUBCHEM_COMPOUND_CANONICALIZED>
1

>  <PUBCHEM_CACTVS_COMPLEXITY>
762

>  <PUBCHEM_CACTVS_HBOND_ACCEPTOR>
6

>  <PUBCHEM_CACTVS_HBOND_DONOR>
4

>  <PUBCHEM_CACTVS_ROTATABLE_BOND>
3

>  <PUBCHEM_CACTVS_SUBSKEYS>
AAADceB4OAAAAAAAAAAAAAAAAAAAAAAAAAAwYMGDAAAAAADBVAAAGgAACAAADASAmAIyBoAABgCAAiBCAAACCAAgIAAIiAAGCIgMJyKGMRqAcCAlwBUIuAfA4PwO4AADCAAYAADAAAYQADAAAAAAAAAAAA==

>  <PUBCHEM_IUPAC_OPENEYE_NAME>
3-(2,7-dihydroxy-4-methoxy-9,10-dihydrophenanthren-1-yl)-5-methoxy-9,10-dihydrophenanthrene-2,7-diol

>  <PUBCHEM_IUPAC_CAS_NAME>
3-(2,7-dihydroxy-4-methoxy-9,10-dihydrophenanthren-1-yl)-5-methoxy-9,10-dihydrophenanthrene-2,7-diol

>  <PUBCHEM_IUPAC_NAME>
3-(2,7-dihydroxy-4-methoxy-9,10-dihydrophenanthren-1-yl)-5-methoxy-9,10-dihydrophenanthrene-2,7-diol

>  <PUBCHEM_IUPAC_SYSTEMATIC_NAME>
5-methoxy-3-[4-methoxy-2,7-bis(oxidanyl)-9,10-dihydrophenanthren-1-yl]-9,10-dihydrophenanthrene-2,7-diol

>  <PUBCHEM_IUPAC_TRADITIONAL_NAME>
3-(2,7-dihydroxy-4-methoxy-9,10-dihydrophenanthren-1-yl)-5-methoxy-9,10-dihydrophenanthrene-2,7-diol

>  <PUBCHEM_IUPAC_INCHI>
InChI=1S/C30H26O6/c1-35-26-12-19(32)10-17-4-3-16-11-24(33)23(13-22(16)28(17)26)29-21-7-5-15-9-18(31)6-8-20(15)30(21)27(36-2)14-25(29)34/h6,8-14,31-34H,3-5,7H2,1-2H3

>  <PUBCHEM_IUPAC_INCHIKEY>
HQFURZDOSPYSTB-UHFFFAOYSA-N

>  <PUBCHEM_XLOGP3_AA>
5.9

>  <PUBCHEM_EXACT_MASS>
482.173

>  <PUBCHEM_MOLECULAR_FORMULA>
C30H26O6

>  <PUBCHEM_MOLECULAR_WEIGHT>
482.532

>  <PUBCHEM_OPENEYE_CAN_SMILES>
COC1=C2C(=CC(=C1)O)CCC3=CC(=C(C=C32)C4=C5CCC6=C(C5=C(C=C4O)OC)C=CC(=C6)O)O

>  <PUBCHEM_OPENEYE_ISO_SMILES>
COC1=C2C(=CC(=C1)O)CCC3=CC(=C(C=C32)C4=C5CCC6=C(C5=C(C=C4O)OC)C=CC(=C6)O)O

>  <PUBCHEM_CACTVS_TPSA>
99.4

>  <PUBCHEM_MONOISOTOPIC_WEIGHT>
482.173

>  <PUBCHEM_TOTAL_CHARGE>
0

>  <PUBCHEM_HEAVY_ATOM_COUNT>
36

>  <PUBCHEM_ATOM_DEF_STEREO_COUNT>
0

>  <PUBCHEM_ATOM_UDEF_STEREO_COUNT>
0

>  <PUBCHEM_BOND_DEF_STEREO_COUNT>
0

>  <PUBCHEM_BOND_UDEF_STEREO_COUNT>
0

>  <PUBCHEM_ISOTOPIC_ATOM_COUNT>
0

>  <PUBCHEM_COMPONENT_COUNT>
1

>  <PUBCHEM_CACTVS_TAUTO_COUNT>
986

>  <PUBCHEM_COORDINATE_TYPE>
1
5
255

>  <PUBCHEM_BONDANNOTATIONS>
10  23  8
12  13  8
12  21  8
13  24  8
15  21  8
15  22  8
16  18  8
16  29  8
18  28  8
19  20  8
19  27  8
20  30  8
22  24  8
23  26  8
25  26  8
27  31  8
28  32  8
29  34  8
30  33  8
31  33  8
32  34  8
7  10  8
7  9  8
9  25  8

$$$$
