11472344
 OpenBabel06101807152D

 50 50  0  0  1  0  0  0  0  0999 V2000
    8.5991   -0.5000    0.0000 O   0  0  0  0  0  0  0  0  0  0  0  0
    7.7331    1.0000    0.0000 O   0  0  0  0  0  0  0  0  0  0  0  0
    4.2690    5.0000    0.0000 O   0  0  0  0  0  0  0  0  0  0  0  0
    2.5369    4.0000    0.0000 O   0  0  0  0  0  0  0  0  0  0  0  0
    7.7331   -2.0000    0.0000 C   0  0  0  0  0  0  0  0  0  0  0  0
    8.5991   -2.5000    0.0000 C   0  0  0  0  0  0  0  0  0  0  0  0
    7.7331   -1.0000    0.0000 C   0  0  3  0  0  0  0  0  0  0  0  0
    8.5991   -3.5000    0.0000 C   0  0  0  0  0  0  0  0  0  0  0  0
    6.8671   -0.5000    0.0000 C   0  0  0  0  0  0  0  0  0  0  0  0
    9.4651   -4.0000    0.0000 C   0  0  0  0  0  0  0  0  0  0  0  0
    6.8671    0.5000    0.0000 C   0  0  0  0  0  0  0  0  0  0  0  0
    9.4651   -5.0000    0.0000 C   0  0  0  0  0  0  0  0  0  0  0  0
    6.0010    1.0000    0.0000 C   0  0  0  0  0  0  0  0  0  0  0  0
    6.0010    2.0000    0.0000 C   0  0  0  0  0  0  0  0  0  0  0  0
   10.3312   -5.5000    0.0000 C   0  0  0  0  0  0  0  0  0  0  0  0
    5.1350    2.5000    0.0000 C   0  0  0  0  0  0  0  0  0  0  0  0
    5.1350    3.5000    0.0000 C   0  0  0  0  0  0  0  0  0  0  0  0
    4.2690    2.0000    0.0000 C   0  0  0  0  0  0  0  0  0  0  0  0
    4.2690    4.0000    0.0000 C   0  0  0  0  0  0  0  0  0  0  0  0
    3.4030    2.5000    0.0000 C   0  0  0  0  0  0  0  0  0  0  0  0
    3.4030    3.5000    0.0000 C   0  0  0  0  0  0  0  0  0  0  0  0
    5.1350    5.5000    0.0000 C   0  0  0  0  0  0  0  0  0  0  0  0
    7.1225   -1.8923    0.0000 H   0  0  0  0  0  0  0  0  0  0  0  0
    7.5210   -2.5826    0.0000 H   0  0  0  0  0  0  0  0  0  0  0  0
    9.2097   -2.6077    0.0000 H   0  0  0  0  0  0  0  0  0  0  0  0
    8.8112   -1.9174    0.0000 H   0  0  0  0  0  0  0  0  0  0  0  0
    7.7331   -0.1500    0.0000 H   0  0  0  0  0  0  0  0  0  0  0  0
    7.9885   -3.3923    0.0000 H   0  0  0  0  0  0  0  0  0  0  0  0
    8.3871   -4.0826    0.0000 H   0  0  0  0  0  0  0  0  0  0  0  0
    6.2565   -0.3923    0.0000 H   0  0  0  0  0  0  0  0  0  0  0  0
    6.6550   -1.0826    0.0000 H   0  0  0  0  0  0  0  0  0  0  0  0
   10.0757   -4.1077    0.0000 H   0  0  0  0  0  0  0  0  0  0  0  0
    9.6772   -3.4174    0.0000 H   0  0  0  0  0  0  0  0  0  0  0  0
    8.8546   -4.8923    0.0000 H   0  0  0  0  0  0  0  0  0  0  0  0
    9.2531   -5.5826    0.0000 H   0  0  0  0  0  0  0  0  0  0  0  0
    5.3905    1.1077    0.0000 H   0  0  0  0  0  0  0  0  0  0  0  0
    5.7890    0.4174    0.0000 H   0  0  0  0  0  0  0  0  0  0  0  0
    6.6116    1.8923    0.0000 H   0  0  0  0  0  0  0  0  0  0  0  0
    6.2131    2.5826    0.0000 H   0  0  0  0  0  0  0  0  0  0  0  0
    9.1360   -0.8100    0.0000 H   0  0  0  0  0  0  0  0  0  0  0  0
   10.0212   -6.0369    0.0000 H   0  0  0  0  0  0  0  0  0  0  0  0
   10.8681   -5.8100    0.0000 H   0  0  0  0  0  0  0  0  0  0  0  0
   10.6412   -4.9631    0.0000 H   0  0  0  0  0  0  0  0  0  0  0  0
    5.6720    3.8100    0.0000 H   0  0  0  0  0  0  0  0  0  0  0  0
    4.2690    1.3800    0.0000 H   0  0  0  0  0  0  0  0  0  0  0  0
    2.8660    2.1900    0.0000 H   0  0  0  0  0  0  0  0  0  0  0  0
    2.0000    3.6900    0.0000 H   0  0  0  0  0  0  0  0  0  0  0  0
    5.4450    4.9631    0.0000 H   0  0  0  0  0  0  0  0  0  0  0  0
    5.6720    5.8100    0.0000 H   0  0  0  0  0  0  0  0  0  0  0  0
    4.8250    6.0369    0.0000 H   0  0  0  0  0  0  0  0  0  0  0  0
  1  7  1  0  0  0  0
  1 40  1  0  0  0  0
  2 11  2  0  0  0  0
  3 19  1  0  0  0  0
  3 22  1  0  0  0  0
  4 21  1  0  0  0  0
  4 47  1  0  0  0  0
  5  6  1  0  0  0  0
  5  7  1  0  0  0  0
  5 23  1  0  0  0  0
  5 24  1  0  0  0  0
  6  8  1  0  0  0  0
  6 25  1  0  0  0  0
  6 26  1  0  0  0  0
  7  9  1  0  0  0  0
  7 27  1  0  0  0  0
  8 10  1  0  0  0  0
  8 28  1  0  0  0  0
  8 29  1  0  0  0  0
  9 11  1  0  0  0  0
  9 30  1  0  0  0  0
  9 31  1  0  0  0  0
 10 12  1  0  0  0  0
 10 32  1  0  0  0  0
 10 33  1  0  0  0  0
 11 13  1  0  0  0  0
 12 15  1  0  0  0  0
 12 34  1  0  0  0  0
 12 35  1  0  0  0  0
 13 14  1  0  0  0  0
 13 36  1  0  0  0  0
 13 37  1  0  0  0  0
 14 16  1  0  0  0  0
 14 38  1  0  0  0  0
 14 39  1  0  0  0  0
 15 41  1  0  0  0  0
 15 42  1  0  0  0  0
 15 43  1  0  0  0  0
 16 17  2  0  0  0  0
 16 18  1  0  0  0  0
 17 19  1  0  0  0  0
 17 44  1  0  0  0  0
 18 20  2  0  0  0  0
 18 45  1  0  0  0  0
 19 21  2  0  0  0  0
 20 21  1  0  0  0  0
 20 46  1  0  0  0  0
 22 48  1  0  0  0  0
 22 49  1  0  0  0  0
 22 50  1  0  0  0  0
M  END
>  <PUBCHEM_COMPOUND_CID>
11472344

>  <PUBCHEM_COMPOUND_CANONICALIZED>
1

>  <PUBCHEM_CACTVS_COMPLEXITY>
306

>  <PUBCHEM_CACTVS_HBOND_ACCEPTOR>
4

>  <PUBCHEM_CACTVS_HBOND_DONOR>
2

>  <PUBCHEM_CACTVS_ROTATABLE_BOND>
11

>  <PUBCHEM_CACTVS_SUBSKEYS>
AAADceB4OAAAAAAAAAAAAAAAAAAAAAAAAAAwAAAAAAAAAAABAAAAGgAACAAADBSgmAIyBoAABgCIAqBSAAACCAAgIAAIiAEGiIgNNjaGMRqAcCMk4BELuAeIyPCOIAABAAAAQABAAAIAAACAAAAAAAAAAA==

>  <PUBCHEM_IUPAC_OPENEYE_NAME>
5-hydroxy-1-(4-hydroxy-3-methoxy-phenyl)undecan-3-one

>  <PUBCHEM_IUPAC_CAS_NAME>
5-hydroxy-1-(4-hydroxy-3-methoxyphenyl)-3-undecanone

>  <PUBCHEM_IUPAC_NAME>
5-hydroxy-1-(4-hydroxy-3-methoxyphenyl)undecan-3-one

>  <PUBCHEM_IUPAC_SYSTEMATIC_NAME>
1-(3-methoxy-4-oxidanyl-phenyl)-5-oxidanyl-undecan-3-one

>  <PUBCHEM_IUPAC_TRADITIONAL_NAME>
5-hydroxy-1-(4-hydroxy-3-methoxy-phenyl)undecan-3-one

>  <PUBCHEM_IUPAC_INCHI>
InChI=1S/C18H28O4/c1-3-4-5-6-7-15(19)13-16(20)10-8-14-9-11-17(21)18(12-14)22-2/h9,11-12,15,19,21H,3-8,10,13H2,1-2H3

>  <PUBCHEM_IUPAC_INCHIKEY>
BJUICGMKNZDPOT-UHFFFAOYSA-N

>  <PUBCHEM_XLOGP3_AA>
3.6

>  <PUBCHEM_EXACT_MASS>
308.199

>  <PUBCHEM_MOLECULAR_FORMULA>
C18H28O4

>  <PUBCHEM_MOLECULAR_WEIGHT>
308.418

>  <PUBCHEM_OPENEYE_CAN_SMILES>
CCCCCCC(CC(=O)CCC1=CC(=C(C=C1)O)OC)O

>  <PUBCHEM_OPENEYE_ISO_SMILES>
CCCCCCC(CC(=O)CCC1=CC(=C(C=C1)O)OC)O

>  <PUBCHEM_CACTVS_TPSA>
66.8

>  <PUBCHEM_MONOISOTOPIC_WEIGHT>
308.199

>  <PUBCHEM_TOTAL_CHARGE>
0

>  <PUBCHEM_HEAVY_ATOM_COUNT>
22

>  <PUBCHEM_ATOM_DEF_STEREO_COUNT>
0

>  <PUBCHEM_ATOM_UDEF_STEREO_COUNT>
1

>  <PUBCHEM_BOND_DEF_STEREO_COUNT>
0

>  <PUBCHEM_BOND_UDEF_STEREO_COUNT>
0

>  <PUBCHEM_ISOTOPIC_ATOM_COUNT>
0

>  <PUBCHEM_COMPONENT_COUNT>
1

>  <PUBCHEM_CACTVS_TAUTO_COUNT>
9

>  <PUBCHEM_COORDINATE_TYPE>
1
5
255

>  <PUBCHEM_BONDANNOTATIONS>
16  17  8
16  18  8
17  19  8
18  20  8
19  21  8
20  21  8
7  27  3

$$$$
