11473406
 OpenBabel06101807152D

 49 51  0  0  0  0  0  0  0  0999 V2000
    3.4945   -1.2176    0.0000 O   0  0  0  0  0  0  0  0  0  0  0  0
   14.1837    0.2896    0.0000 O   0  0  0  0  0  0  0  0  0  0  0  0
   14.1837   -1.3199    0.0000 O   0  0  0  0  0  0  0  0  0  0  0  0
    3.4557    1.3698    0.0000 O   0  0  0  0  0  0  0  0  0  0  0  0
    5.2158   -1.6788    0.0000 O   0  0  0  0  0  0  0  0  0  0  0  0
    8.0413   -0.0151    0.0000 C   0  0  0  0  0  0  0  0  0  0  0  0
    8.9073    0.4849    0.0000 C   0  0  0  0  0  0  0  0  0  0  0  0
    7.1753    0.4849    0.0000 C   0  0  0  0  0  0  0  0  0  0  0  0
    9.7734   -0.0151    0.0000 C   0  0  0  0  0  0  0  0  0  0  0  0
    6.3092   -0.0151    0.0000 C   0  0  0  0  0  0  0  0  0  0  0  0
   10.6394    0.4849    0.0000 C   0  0  0  0  0  0  0  0  0  0  0  0
    5.4432    0.4849    0.0000 C   0  0  0  0  0  0  0  0  0  0  0  0
   11.5054   -0.0151    0.0000 C   0  0  0  0  0  0  0  0  0  0  0  0
    4.5772   -0.0151    0.0000 C   0  0  0  0  0  0  0  0  0  0  0  0
   12.3714    0.4849    0.0000 C   0  0  0  0  0  0  0  0  0  0  0  0
   11.5054   -1.0151    0.0000 C   0  0  0  0  0  0  0  0  0  0  0  0
    3.6636    0.3916    0.0000 C   0  0  0  0  0  0  0  0  0  0  0  0
   13.2375   -0.0151    0.0000 C   0  0  0  0  0  0  0  0  0  0  0  0
    4.4727   -1.0096    0.0000 C   0  0  0  0  0  0  0  0  0  0  0  0
   13.2375   -1.0151    0.0000 C   0  0  0  0  0  0  0  0  0  0  0  0
   12.3714   -1.5151    0.0000 C   0  0  0  0  0  0  0  0  0  0  0  0
    2.9945   -0.3515    0.0000 C   0  0  0  0  0  0  0  0  0  0  0  0
   14.7673   -0.5151    0.0000 C   0  0  0  0  0  0  0  0  0  0  0  0
    2.0000   -0.2470    0.0000 C   0  0  0  0  0  0  0  0  0  0  0  0
    2.5047    1.6788    0.0000 C   0  0  0  0  0  0  0  0  0  0  0  0
    7.6428   -0.4901    0.0000 H   0  0  0  0  0  0  0  0  0  0  0  0
    8.4398   -0.4901    0.0000 H   0  0  0  0  0  0  0  0  0  0  0  0
    9.3058    0.9598    0.0000 H   0  0  0  0  0  0  0  0  0  0  0  0
    8.5088    0.9598    0.0000 H   0  0  0  0  0  0  0  0  0  0  0  0
    7.5738    0.9598    0.0000 H   0  0  0  0  0  0  0  0  0  0  0  0
    6.7768    0.9598    0.0000 H   0  0  0  0  0  0  0  0  0  0  0  0
    9.3748   -0.4901    0.0000 H   0  0  0  0  0  0  0  0  0  0  0  0
   10.1719   -0.4901    0.0000 H   0  0  0  0  0  0  0  0  0  0  0  0
    5.9107   -0.4901    0.0000 H   0  0  0  0  0  0  0  0  0  0  0  0
    6.7078   -0.4901    0.0000 H   0  0  0  0  0  0  0  0  0  0  0  0
   11.0379    0.9598    0.0000 H   0  0  0  0  0  0  0  0  0  0  0  0
   10.2408    0.9598    0.0000 H   0  0  0  0  0  0  0  0  0  0  0  0
    5.8418    0.9598    0.0000 H   0  0  0  0  0  0  0  0  0  0  0  0
    5.0447    0.9598    0.0000 H   0  0  0  0  0  0  0  0  0  0  0  0
   12.3714    1.1049    0.0000 H   0  0  0  0  0  0  0  0  0  0  0  0
   10.9685   -1.3251    0.0000 H   0  0  0  0  0  0  0  0  0  0  0  0
   12.3714   -2.1351    0.0000 H   0  0  0  0  0  0  0  0  0  0  0  0
   15.2282   -0.9299    0.0000 H   0  0  0  0  0  0  0  0  0  0  0  0
   15.2282   -0.1004    0.0000 H   0  0  0  0  0  0  0  0  0  0  0  0
    1.7478    0.3194    0.0000 H   0  0  0  0  0  0  0  0  0  0  0  0
    1.6356   -0.7486    0.0000 H   0  0  0  0  0  0  0  0  0  0  0  0
    2.6963    2.2684    0.0000 H   0  0  0  0  0  0  0  0  0  0  0  0
    1.9150    1.8704    0.0000 H   0  0  0  0  0  0  0  0  0  0  0  0
    2.3131    1.0891    0.0000 H   0  0  0  0  0  0  0  0  0  0  0  0
  1 19  1  0  0  0  0
  1 22  1  0  0  0  0
  2 18  1  0  0  0  0
  2 23  1  0  0  0  0
  3 20  1  0  0  0  0
  3 23  1  0  0  0  0
  4 17  1  0  0  0  0
  4 25  1  0  0  0  0
  5 19  2  0  0  0  0
  6  7  1  0  0  0  0
  6  8  1  0  0  0  0
  6 26  1  0  0  0  0
  6 27  1  0  0  0  0
  7  9  1  0  0  0  0
  7 28  1  0  0  0  0
  7 29  1  0  0  0  0
  8 10  1  0  0  0  0
  8 30  1  0  0  0  0
  8 31  1  0  0  0  0
  9 11  1  0  0  0  0
  9 32  1  0  0  0  0
  9 33  1  0  0  0  0
 10 12  1  0  0  0  0
 10 34  1  0  0  0  0
 10 35  1  0  0  0  0
 11 13  1  0  0  0  0
 11 36  1  0  0  0  0
 11 37  1  0  0  0  0
 12 14  1  0  0  0  0
 12 38  1  0  0  0  0
 12 39  1  0  0  0  0
 13 15  2  0  0  0  0
 13 16  1  0  0  0  0
 14 17  2  0  0  0  0
 14 19  1  0  0  0  0
 15 18  1  0  0  0  0
 15 40  1  0  0  0  0
 16 21  2  0  0  0  0
 16 41  1  0  0  0  0
 17 22  1  0  0  0  0
 18 20  2  0  0  0  0
 20 21  1  0  0  0  0
 21 42  1  0  0  0  0
 22 24  2  0  0  0  0
 23 43  1  0  0  0  0
 23 44  1  0  0  0  0
 24 45  1  0  0  0  0
 24 46  1  0  0  0  0
 25 47  1  0  0  0  0
 25 48  1  0  0  0  0
 25 49  1  0  0  0  0
M  END
>  <PUBCHEM_COMPOUND_CID>
11473406

>  <PUBCHEM_COMPOUND_CANONICALIZED>
1

>  <PUBCHEM_CACTVS_COMPLEXITY>
524

>  <PUBCHEM_CACTVS_HBOND_ACCEPTOR>
5

>  <PUBCHEM_CACTVS_HBOND_DONOR>
0

>  <PUBCHEM_CACTVS_ROTATABLE_BOND>
9

>  <PUBCHEM_CACTVS_SUBSKEYS>
AAADceB4OAAAAAAAAAAAAAAAAAAAASIAAAAwAAAAAAAAAEgBAAAAGgAAAAAADASAmAMyDoAABACIAiDSCAACCAAgIAAIiAEGiMgdJjKEMRqiMCIkwBEOqQeIyPCOIAABAAAAQABAAAIAAACAAAAAAAAAAA==

>  <PUBCHEM_IUPAC_OPENEYE_NAME>
3-[7-(1,3-benzodioxol-5-yl)heptyl]-4-methoxy-5-methylene-furan-2-one

>  <PUBCHEM_IUPAC_CAS_NAME>
3-[7-(1,3-benzodioxol-5-yl)heptyl]-4-methoxy-5-methylene-2-furanone

>  <PUBCHEM_IUPAC_NAME>
3-[7-(1,3-benzodioxol-5-yl)heptyl]-4-methoxy-5-methylidenefuran-2-one

>  <PUBCHEM_IUPAC_SYSTEMATIC_NAME>
3-[7-(1,3-benzodioxol-5-yl)heptyl]-4-methoxy-5-methylidene-furan-2-one

>  <PUBCHEM_IUPAC_TRADITIONAL_NAME>
3-[7-(1,3-benzodioxol-5-yl)heptyl]-4-methoxy-5-methylene-furan-2-one

>  <PUBCHEM_IUPAC_INCHI>
InChI=1S/C20H24O5/c1-14-19(22-2)16(20(21)25-14)9-7-5-3-4-6-8-15-10-11-17-18(12-15)24-13-23-17/h10-12H,1,3-9,13H2,2H3

>  <PUBCHEM_IUPAC_INCHIKEY>
FMDJAWFHQFXCMY-UHFFFAOYSA-N

>  <PUBCHEM_XLOGP3_AA>
5.3

>  <PUBCHEM_EXACT_MASS>
344.162

>  <PUBCHEM_MOLECULAR_FORMULA>
C20H24O5

>  <PUBCHEM_MOLECULAR_WEIGHT>
344.407

>  <PUBCHEM_OPENEYE_CAN_SMILES>
COC1=C(C(=O)OC1=C)CCCCCCCC2=CC3=C(C=C2)OCO3

>  <PUBCHEM_OPENEYE_ISO_SMILES>
COC1=C(C(=O)OC1=C)CCCCCCCC2=CC3=C(C=C2)OCO3

>  <PUBCHEM_CACTVS_TPSA>
54

>  <PUBCHEM_MONOISOTOPIC_WEIGHT>
344.162

>  <PUBCHEM_TOTAL_CHARGE>
0

>  <PUBCHEM_HEAVY_ATOM_COUNT>
25

>  <PUBCHEM_ATOM_DEF_STEREO_COUNT>
0

>  <PUBCHEM_ATOM_UDEF_STEREO_COUNT>
0

>  <PUBCHEM_BOND_DEF_STEREO_COUNT>
0

>  <PUBCHEM_BOND_UDEF_STEREO_COUNT>
0

>  <PUBCHEM_ISOTOPIC_ATOM_COUNT>
0

>  <PUBCHEM_COMPONENT_COUNT>
1

>  <PUBCHEM_CACTVS_TAUTO_COUNT>
1

>  <PUBCHEM_COORDINATE_TYPE>
1
5
255

>  <PUBCHEM_BONDANNOTATIONS>
13  15  8
13  16  8
15  18  8
16  21  8
18  20  8
20  21  8

$$$$
