11481434
 OpenBabel06101807152D

 26 27  0  0  0  0  0  0  0  0999 V2000
    6.2619   -0.7590    0.0000 S   0  0  0  0  0  0  0  0  0  0  0  0
    5.9674    1.2025    0.0000 O   0  0  0  0  0  0  0  0  0  0  0  0
    4.3211    1.7406    0.0000 O   0  0  0  0  0  0  0  0  0  0  0  0
    4.6783   -1.5637    0.0000 N   0  0  0  0  0  0  0  0  0  0  0  0
    3.7320   -0.2590    0.0000 C   0  0  0  0  0  0  0  0  0  0  0  0
    3.7320   -1.2590    0.0000 C   0  0  0  0  0  0  0  0  0  0  0  0
    4.6783    0.0458    0.0000 C   0  0  0  0  0  0  0  0  0  0  0  0
    5.2619   -0.7590    0.0000 C   0  0  0  0  0  0  0  0  0  0  0  0
    2.8660    0.2410    0.0000 C   0  0  0  0  0  0  0  0  0  0  0  0
    2.8660   -1.7590    0.0000 C   0  0  0  0  0  0  0  0  0  0  0  0
    2.0000   -0.2590    0.0000 C   0  0  0  0  0  0  0  0  0  0  0  0
    2.0000   -1.2590    0.0000 C   0  0  0  0  0  0  0  0  0  0  0  0
    4.9889    0.9963    0.0000 C   0  0  0  0  0  0  0  0  0  0  0  0
    6.7619   -1.6250    0.0000 C   0  0  0  0  0  0  0  0  0  0  0  0
    6.2781    2.1530    0.0000 C   0  0  0  0  0  0  0  0  0  0  0  0
    4.8709   -2.1530    0.0000 H   0  0  0  0  0  0  0  0  0  0  0  0
    2.8660    0.8610    0.0000 H   0  0  0  0  0  0  0  0  0  0  0  0
    2.8660   -2.3790    0.0000 H   0  0  0  0  0  0  0  0  0  0  0  0
    1.4631    0.0510    0.0000 H   0  0  0  0  0  0  0  0  0  0  0  0
    1.4631   -1.5690    0.0000 H   0  0  0  0  0  0  0  0  0  0  0  0
    6.2249   -1.9350    0.0000 H   0  0  0  0  0  0  0  0  0  0  0  0
    7.0719   -2.1619    0.0000 H   0  0  0  0  0  0  0  0  0  0  0  0
    7.2988   -1.3150    0.0000 H   0  0  0  0  0  0  0  0  0  0  0  0
    6.8674    1.9604    0.0000 H   0  0  0  0  0  0  0  0  0  0  0  0
    6.4707    2.7424    0.0000 H   0  0  0  0  0  0  0  0  0  0  0  0
    5.6888    2.3456    0.0000 H   0  0  0  0  0  0  0  0  0  0  0  0
  1  8  1  0  0  0  0
  1 14  1  0  0  0  0
  2 13  1  0  0  0  0
  2 15  1  0  0  0  0
  3 13  2  0  0  0  0
  4  6  1  0  0  0  0
  4  8  1  0  0  0  0
  4 16  1  0  0  0  0
  5  6  1  0  0  0  0
  5  7  1  0  0  0  0
  5  9  2  0  0  0  0
  6 10  2  0  0  0  0
  7  8  2  0  0  0  0
  7 13  1  0  0  0  0
  9 11  1  0  0  0  0
  9 17  1  0  0  0  0
 10 12  1  0  0  0  0
 10 18  1  0  0  0  0
 11 12  2  0  0  0  0
 11 19  1  0  0  0  0
 12 20  1  0  0  0  0
 14 21  1  0  0  0  0
 14 22  1  0  0  0  0
 14 23  1  0  0  0  0
 15 24  1  0  0  0  0
 15 25  1  0  0  0  0
 15 26  1  0  0  0  0
M  END
>  <PUBCHEM_COMPOUND_CID>
11481434

>  <PUBCHEM_COMPOUND_CANONICALIZED>
1

>  <PUBCHEM_CACTVS_COMPLEXITY>
247

>  <PUBCHEM_CACTVS_HBOND_ACCEPTOR>
3

>  <PUBCHEM_CACTVS_HBOND_DONOR>
1

>  <PUBCHEM_CACTVS_ROTATABLE_BOND>
3

>  <PUBCHEM_CACTVS_SUBSKEYS>
AAADccByMABAAAAAAAAAAAAAAAAAAWAAAAAwAAAAAAAAAFgB8AAAHgQQAAAADAiB3gKyyfLJlAioAyTyTACC0iBlCjAImTEwbNgIJvrgtZmEMYhm0AHI6Ue8yOCOgAAAAAACAAAAAAAAAAQAAAAAAAAAAA==

>  <PUBCHEM_IUPAC_OPENEYE_NAME>
methyl 2-methylsulfanyl-1H-indole-3-carboxylate

>  <PUBCHEM_IUPAC_CAS_NAME>
2-(methylthio)-1H-indole-3-carboxylic acid methyl ester

>  <PUBCHEM_IUPAC_NAME>
methyl 2-methylsulfanyl-1H-indole-3-carboxylate

>  <PUBCHEM_IUPAC_SYSTEMATIC_NAME>
methyl 2-methylsulfanyl-1H-indole-3-carboxylate

>  <PUBCHEM_IUPAC_TRADITIONAL_NAME>
2-(methylthio)-1H-indole-3-carboxylic acid methyl ester

>  <PUBCHEM_IUPAC_INCHI>
InChI=1S/C11H11NO2S/c1-14-11(13)9-7-5-3-4-6-8(7)12-10(9)15-2/h3-6,12H,1-2H3

>  <PUBCHEM_IUPAC_INCHIKEY>
COGDQXHRJHDOIV-UHFFFAOYSA-N

>  <PUBCHEM_XLOGP3_AA>
2.7

>  <PUBCHEM_EXACT_MASS>
221.051

>  <PUBCHEM_MOLECULAR_FORMULA>
C11H11NO2S

>  <PUBCHEM_MOLECULAR_WEIGHT>
221.274

>  <PUBCHEM_OPENEYE_CAN_SMILES>
COC(=O)C1=C(NC2=CC=CC=C21)SC

>  <PUBCHEM_OPENEYE_ISO_SMILES>
COC(=O)C1=C(NC2=CC=CC=C21)SC

>  <PUBCHEM_CACTVS_TPSA>
67.4

>  <PUBCHEM_MONOISOTOPIC_WEIGHT>
221.051

>  <PUBCHEM_TOTAL_CHARGE>
0

>  <PUBCHEM_HEAVY_ATOM_COUNT>
15

>  <PUBCHEM_ATOM_DEF_STEREO_COUNT>
0

>  <PUBCHEM_ATOM_UDEF_STEREO_COUNT>
0

>  <PUBCHEM_BOND_DEF_STEREO_COUNT>
0

>  <PUBCHEM_BOND_UDEF_STEREO_COUNT>
0

>  <PUBCHEM_ISOTOPIC_ATOM_COUNT>
0

>  <PUBCHEM_COMPONENT_COUNT>
1

>  <PUBCHEM_CACTVS_TAUTO_COUNT>
3

>  <PUBCHEM_COORDINATE_TYPE>
1
5
255

>  <PUBCHEM_BONDANNOTATIONS>
10  12  8
11  12  8
4  6  8
4  8  8
5  6  8
5  7  8
5  9  8
6  10  8
7  8  8
9  11  8

$$$$
