11546269
 OpenBabel06101807152D

 59 62  0  0  0  0  0  0  0  0999 V2000
    6.1940   -0.8950    0.0000 O   0  0  0  0  0  0  0  0  0  0  0  0
    8.3380    1.1735    0.0000 O   0  0  0  0  0  0  0  0  0  0  0  0
    7.6067   -2.2516    0.0000 O   0  0  0  0  0  0  0  0  0  0  0  0
   10.9775   -1.1707    0.0000 O   0  0  0  0  0  0  0  0  0  0  0  0
    2.7044    0.0092    0.0000 O   0  0  0  0  0  0  0  0  0  0  0  0
    6.6907    0.6382    0.0000 C   0  0  0  0  0  0  0  0  0  0  0  0
    6.9997   -0.3128    0.0000 C   0  0  0  0  0  0  0  0  0  0  0  0
    5.6966    0.6357    0.0000 C   0  0  0  0  0  0  0  0  0  0  0  0
    7.9778   -0.5207    0.0000 C   0  0  0  0  0  0  0  0  0  0  0  0
    7.3598    1.3814    0.0000 C   0  0  0  0  0  0  0  0  0  0  0  0
    5.3902   -0.3100    0.0000 C   0  0  0  0  0  0  0  0  0  0  0  0
    8.6470    0.2224    0.0000 C   0  0  0  0  0  0  0  0  0  0  0  0
    8.2844   -1.5162    0.0000 C   0  0  0  0  0  0  0  0  0  0  0  0
    5.0150    1.4152    0.0000 C   0  0  0  0  0  0  0  0  0  0  0  0
    9.3016   -1.7406    0.0000 C   0  0  0  0  0  0  0  0  0  0  0  0
    4.0007    1.2068    0.0000 C   0  0  0  0  0  0  0  0  0  0  0  0
    4.3810   -0.5418    0.0000 C   0  0  0  0  0  0  0  0  0  0  0  0
    9.6690    0.0216    0.0000 C   0  0  0  0  0  0  0  0  0  0  0  0
    9.9986   -0.9666    0.0000 C   0  0  0  0  0  0  0  0  0  0  0  0
    3.6816    0.2218    0.0000 C   0  0  0  0  0  0  0  0  0  0  0  0
    9.6069   -2.6929    0.0000 C   0  0  0  0  0  0  0  0  0  0  0  0
    3.3338    1.9520    0.0000 C   0  0  0  0  0  0  0  0  0  0  0  0
   10.5843   -2.9046    0.0000 C   0  0  0  0  0  0  0  0  0  0  0  0
    3.6457    2.9021    0.0000 C   0  0  0  0  0  0  0  0  0  0  0  0
   10.8896   -3.8568    0.0000 C   0  0  0  0  0  0  0  0  0  0  0  0
    7.9047   -3.2061    0.0000 C   0  0  0  0  0  0  0  0  0  0  0  0
    2.9788    3.6472    0.0000 C   0  0  0  0  0  0  0  0  0  0  0  0
   11.8669   -4.0685    0.0000 C   0  0  0  0  0  0  0  0  0  0  0  0
   10.2176   -4.5974    0.0000 C   0  0  0  0  0  0  0  0  0  0  0  0
    3.2906    4.5974    0.0000 C   0  0  0  0  0  0  0  0  0  0  0  0
    2.0000    3.4422    0.0000 C   0  0  0  0  0  0  0  0  0  0  0  0
    7.5921    1.9562    0.0000 H   0  0  0  0  0  0  0  0  0  0  0  0
    6.8340    1.7099    0.0000 H   0  0  0  0  0  0  0  0  0  0  0  0
    5.2129    2.0027    0.0000 H   0  0  0  0  0  0  0  0  0  0  0  0
    4.1968   -1.1338    0.0000 H   0  0  0  0  0  0  0  0  0  0  0  0
   10.0786    0.4871    0.0000 H   0  0  0  0  0  0  0  0  0  0  0  0
    8.9926   -2.7768    0.0000 H   0  0  0  0  0  0  0  0  0  0  0  0
    9.5829   -3.3124    0.0000 H   0  0  0  0  0  0  0  0  0  0  0  0
    2.7873    2.2447    0.0000 H   0  0  0  0  0  0  0  0  0  0  0  0
    2.9506    1.4645    0.0000 H   0  0  0  0  0  0  0  0  0  0  0  0
   11.0009   -2.4454    0.0000 H   0  0  0  0  0  0  0  0  0  0  0  0
    4.2525    3.0292    0.0000 H   0  0  0  0  0  0  0  0  0  0  0  0
   11.3906   -0.7083    0.0000 H   0  0  0  0  0  0  0  0  0  0  0  0
    2.5156   -0.5813    0.0000 H   0  0  0  0  0  0  0  0  0  0  0  0
    7.3129   -3.3909    0.0000 H   0  0  0  0  0  0  0  0  0  0  0  0
    8.0895   -3.7980    0.0000 H   0  0  0  0  0  0  0  0  0  0  0  0
    8.4966   -3.0214    0.0000 H   0  0  0  0  0  0  0  0  0  0  0  0
    9.7585   -4.1807    0.0000 H   0  0  0  0  0  0  0  0  0  0  0  0
    9.8010   -5.0565    0.0000 H   0  0  0  0  0  0  0  0  0  0  0  0
   10.6768   -5.0140    0.0000 H   0  0  0  0  0  0  0  0  0  0  0  0
   11.7357   -4.6744    0.0000 H   0  0  0  0  0  0  0  0  0  0  0  0
   12.4729   -4.1997    0.0000 H   0  0  0  0  0  0  0  0  0  0  0  0
   11.9982   -3.4625    0.0000 H   0  0  0  0  0  0  0  0  0  0  0  0
    3.8797    4.4040    0.0000 H   0  0  0  0  0  0  0  0  0  0  0  0
    3.4840    5.1864    0.0000 H   0  0  0  0  0  0  0  0  0  0  0  0
    2.7015    4.7907    0.0000 H   0  0  0  0  0  0  0  0  0  0  0  0
    1.8729    4.0491    0.0000 H   0  0  0  0  0  0  0  0  0  0  0  0
    1.3932    3.3152    0.0000 H   0  0  0  0  0  0  0  0  0  0  0  0
    2.1271    2.8354    0.0000 H   0  0  0  0  0  0  0  0  0  0  0  0
  1  7  1  0  0  0  0
  1 11  1  0  0  0  0
  2 10  1  0  0  0  0
  2 12  1  0  0  0  0
  3 13  1  0  0  0  0
  3 26  1  0  0  0  0
  4 19  1  0  0  0  0
  4 43  1  0  0  0  0
  5 20  1  0  0  0  0
  5 44  1  0  0  0  0
  6  7  2  0  0  0  0
  6  8  1  0  0  0  0
  6 10  1  0  0  0  0
  7  9  1  0  0  0  0
  8 11  1  0  0  0  0
  8 14  2  0  0  0  0
  9 12  1  0  0  0  0
  9 13  2  0  0  0  0
 10 32  1  0  0  0  0
 10 33  1  0  0  0  0
 11 17  2  0  0  0  0
 12 18  2  0  0  0  0
 13 15  1  0  0  0  0
 14 16  1  0  0  0  0
 14 34  1  0  0  0  0
 15 19  2  0  0  0  0
 15 21  1  0  0  0  0
 16 20  2  0  0  0  0
 16 22  1  0  0  0  0
 17 20  1  0  0  0  0
 17 35  1  0  0  0  0
 18 19  1  0  0  0  0
 18 36  1  0  0  0  0
 21 23  1  0  0  0  0
 21 37  1  0  0  0  0
 21 38  1  0  0  0  0
 22 24  1  0  0  0  0
 22 39  1  0  0  0  0
 22 40  1  0  0  0  0
 23 25  2  0  0  0  0
 23 41  1  0  0  0  0
 24 27  2  0  0  0  0
 24 42  1  0  0  0  0
 25 28  1  0  0  0  0
 25 29  1  0  0  0  0
 26 45  1  0  0  0  0
 26 46  1  0  0  0  0
 26 47  1  0  0  0  0
 27 30  1  0  0  0  0
 27 31  1  0  0  0  0
 28 51  1  0  0  0  0
 28 52  1  0  0  0  0
 28 53  1  0  0  0  0
 29 48  1  0  0  0  0
 29 49  1  0  0  0  0
 29 50  1  0  0  0  0
 30 54  1  0  0  0  0
 30 55  1  0  0  0  0
 30 56  1  0  0  0  0
 31 57  1  0  0  0  0
 31 58  1  0  0  0  0
 31 59  1  0  0  0  0
M  END
>  <PUBCHEM_COMPOUND_CID>
11546269

>  <PUBCHEM_COMPOUND_CANONICALIZED>
1

>  <PUBCHEM_CACTVS_COMPLEXITY>
679

>  <PUBCHEM_CACTVS_HBOND_ACCEPTOR>
5

>  <PUBCHEM_CACTVS_HBOND_DONOR>
2

>  <PUBCHEM_CACTVS_ROTATABLE_BOND>
5

>  <PUBCHEM_CACTVS_SUBSKEYS>
AAADceB4OAAAAAAAAAAAAAAAAAAAASAAAAA0YIAAAAAAAEiR9AAAGgAACAAADASgmAIyBsAABkCIAqBSAAACCAAkIAAAiAEGCMgMJzaGNRqCeWCl4BUIuYfK7PzOoAACCAAIAABAAAQQABAAAAAAAAAAAA==

>  <PUBCHEM_IUPAC_OPENEYE_NAME>
1-methoxy-2,8-bis(3-methylbut-2-enyl)-6H-benzofuro[3,2-c]chromene-3,9-diol

>  <PUBCHEM_IUPAC_CAS_NAME>
1-methoxy-2,8-bis(3-methylbut-2-enyl)-6H-benzofuro[3,2-c][1]benzopyran-3,9-diol

>  <PUBCHEM_IUPAC_NAME>
1-methoxy-2,8-bis(3-methylbut-2-enyl)-6H-[1]benzofuro[3,2-c]chromene-3,9-diol

>  <PUBCHEM_IUPAC_SYSTEMATIC_NAME>
1-methoxy-2,8-bis(3-methylbut-2-enyl)-6H-[1]benzofuro[3,2-c]chromene-3,9-diol

>  <PUBCHEM_IUPAC_TRADITIONAL_NAME>
1-methoxy-2,8-bis(3-methylbut-2-enyl)-6H-benzofuro[3,2-c]chromene-3,9-diol

>  <PUBCHEM_IUPAC_INCHI>
InChI=1S/C26H28O5/c1-14(2)6-8-16-10-18-19-13-30-23-12-21(28)17(9-7-15(3)4)25(29-5)24(23)26(19)31-22(18)11-20(16)27/h6-7,10-12,27-28H,8-9,13H2,1-5H3

>  <PUBCHEM_IUPAC_INCHIKEY>
CBPFOSMNDISZLV-UHFFFAOYSA-N

>  <PUBCHEM_XLOGP3_AA>
6.6

>  <PUBCHEM_EXACT_MASS>
420.194

>  <PUBCHEM_MOLECULAR_FORMULA>
C26H28O5

>  <PUBCHEM_MOLECULAR_WEIGHT>
420.505

>  <PUBCHEM_OPENEYE_CAN_SMILES>
CC(=CCC1=C(C=C2C(=C1)C3=C(O2)C4=C(C(=C(C=C4OC3)O)CC=C(C)C)OC)O)C

>  <PUBCHEM_OPENEYE_ISO_SMILES>
CC(=CCC1=C(C=C2C(=C1)C3=C(O2)C4=C(C(=C(C=C4OC3)O)CC=C(C)C)OC)O)C

>  <PUBCHEM_CACTVS_TPSA>
72.1

>  <PUBCHEM_MONOISOTOPIC_WEIGHT>
420.194

>  <PUBCHEM_TOTAL_CHARGE>
0

>  <PUBCHEM_HEAVY_ATOM_COUNT>
31

>  <PUBCHEM_ATOM_DEF_STEREO_COUNT>
0

>  <PUBCHEM_ATOM_UDEF_STEREO_COUNT>
0

>  <PUBCHEM_BOND_DEF_STEREO_COUNT>
0

>  <PUBCHEM_BOND_UDEF_STEREO_COUNT>
0

>  <PUBCHEM_ISOTOPIC_ATOM_COUNT>
0

>  <PUBCHEM_COMPONENT_COUNT>
1

>  <PUBCHEM_CACTVS_TAUTO_COUNT>
11

>  <PUBCHEM_COORDINATE_TYPE>
1
5
255

>  <PUBCHEM_BONDANNOTATIONS>
1  11  8
1  7  8
11  17  8
12  18  8
13  15  8
14  16  8
15  19  8
16  20  8
17  20  8
18  19  8
6  7  8
6  8  8
8  11  8
8  14  8
9  12  8
9  13  8

$$$$
