11552796
 OpenBabel06101807152D

 49 52  0  0  1  0  0  0  0  0999 V2000
    5.1871    2.4464    0.0000 O   0  0  0  0  0  0  0  0  0  0  0  0
    7.5013    1.1640    0.0000 O   0  0  0  0  0  0  0  0  0  0  0  0
    8.1226    3.0650    0.0000 O   0  0  0  0  0  0  0  0  0  0  0  0
    6.7870    4.5536    0.0000 O   0  0  0  0  0  0  0  0  0  0  0  0
    5.1406    5.0917    0.0000 O   0  0  0  0  0  0  0  0  0  0  0  0
    5.5443    0.7516    0.0000 N   0  0  0  0  0  0  0  0  0  0  0  0
    5.5443   -0.8579    0.0000 N   0  0  0  0  0  0  0  0  0  0  0  0
    3.7320    0.9468    0.0000 N   0  0  0  0  0  0  0  0  0  0  0  0
    3.7320   -2.0532    0.0000 N   0  0  0  0  0  0  0  0  0  0  0  0
    2.8660   -0.5532    0.0000 N   0  0  0  0  0  0  0  0  0  0  0  0
    6.8335    1.9083    0.0000 C   0  0  2  0  0  0  0  0  0  0  0  0
    7.1441    2.8588    0.0000 C   0  0  2  0  0  0  0  0  0  0  0  0
    5.8550    1.7021    0.0000 C   0  0  1  0  0  0  0  0  0  0  0  0
    6.4763    3.6031    0.0000 C   0  0  1  0  0  0  0  0  0  0  0  0
    5.4978    3.3969    0.0000 C   0  0  1  0  0  0  0  0  0  0  0  0
    4.8299    4.1412    0.0000 C   0  0  0  0  0  0  0  0  0  0  0  0
    4.5981    0.4468    0.0000 C   0  0  0  0  0  0  0  0  0  0  0  0
    6.1279   -0.0532    0.0000 C   0  0  0  0  0  0  0  0  0  0  0  0
    4.5981   -0.5532    0.0000 C   0  0  0  0  0  0  0  0  0  0  0  0
    3.7320   -1.0532    0.0000 C   0  0  0  0  0  0  0  0  0  0  0  0
    2.8660    0.4468    0.0000 C   0  0  0  0  0  0  0  0  0  0  0  0
    2.8660   -2.5532    0.0000 C   0  0  0  0  0  0  0  0  0  0  0  0
    2.8660   -3.5532    0.0000 C   0  0  0  0  0  0  0  0  0  0  0  0
    2.0000   -4.0532    0.0000 C   0  0  0  0  0  0  0  0  0  0  0  0
    3.7320   -4.0532    0.0000 C   0  0  0  0  0  0  0  0  0  0  0  0
    2.0000   -5.0532    0.0000 C   0  0  0  0  0  0  0  0  0  0  0  0
    3.7320   -5.0532    0.0000 C   0  0  0  0  0  0  0  0  0  0  0  0
    2.8660   -5.5532    0.0000 C   0  0  0  0  0  0  0  0  0  0  0  0
    6.6408    1.3190    0.0000 H   0  0  0  0  0  0  0  0  0  0  0  0
    7.5582    2.3973    0.0000 H   0  0  0  0  0  0  0  0  0  0  0  0
    5.2483    1.5742    0.0000 H   0  0  0  0  0  0  0  0  0  0  0  0
    7.0830    3.7310    0.0000 H   0  0  0  0  0  0  0  0  0  0  0  0
    4.8911    3.2690    0.0000 H   0  0  0  0  0  0  0  0  0  0  0  0
    4.2830    4.4332    0.0000 H   0  0  0  0  0  0  0  0  0  0  0  0
    4.4474    3.6533    0.0000 H   0  0  0  0  0  0  0  0  0  0  0  0
    8.1080    1.2918    0.0000 H   0  0  0  0  0  0  0  0  0  0  0  0
    8.3152    3.6544    0.0000 H   0  0  0  0  0  0  0  0  0  0  0  0
    7.3936    4.6815    0.0000 H   0  0  0  0  0  0  0  0  0  0  0  0
    6.7479   -0.0532    0.0000 H   0  0  0  0  0  0  0  0  0  0  0  0
    4.7265    5.5532    0.0000 H   0  0  0  0  0  0  0  0  0  0  0  0
    4.2690   -2.3632    0.0000 H   0  0  0  0  0  0  0  0  0  0  0  0
    2.3291    0.7568    0.0000 H   0  0  0  0  0  0  0  0  0  0  0  0
    2.6540   -1.9706    0.0000 H   0  0  0  0  0  0  0  0  0  0  0  0
    2.2554   -2.6608    0.0000 H   0  0  0  0  0  0  0  0  0  0  0  0
    1.4631   -3.7432    0.0000 H   0  0  0  0  0  0  0  0  0  0  0  0
    4.2690   -3.7432    0.0000 H   0  0  0  0  0  0  0  0  0  0  0  0
    1.4631   -5.3632    0.0000 H   0  0  0  0  0  0  0  0  0  0  0  0
    4.2690   -5.3632    0.0000 H   0  0  0  0  0  0  0  0  0  0  0  0
    2.8660   -6.1732    0.0000 H   0  0  0  0  0  0  0  0  0  0  0  0
  1 13  1  0  0  0  0
  1 15  1  0  0  0  0
  2 36  1  0  0  0  0
  3 37  1  0  0  0  0
  4 38  1  0  0  0  0
  5 16  1  0  0  0  0
  5 40  1  0  0  0  0
  6 17  1  0  0  0  0
  6 18  1  0  0  0  0
  7 18  2  0  0  0  0
  7 19  1  0  0  0  0
  8 17  1  0  0  0  0
  8 21  2  0  0  0  0
  9 20  1  0  0  0  0
  9 22  1  0  0  0  0
  9 41  1  0  0  0  0
 10 20  2  0  0  0  0
 10 21  1  0  0  0  0
 11  2  1  0  0  0  0
 11 12  1  6  0  0  0
 11 29  1  0  0  0  0
 12  3  1  0  0  0  0
 12 14  1  1  0  0  0
 12 30  1  0  0  0  0
 13  6  1  0  0  0  0
 13 11  1  1  0  0  0
 13 31  1  0  0  0  0
 14  4  1  0  0  0  0
 14 15  1  6  0  0  0
 14 32  1  0  0  0  0
 15 16  1  0  0  0  0
 15 33  1  1  0  0  0
 16 34  1  0  0  0  0
 16 35  1  0  0  0  0
 17 19  2  0  0  0  0
 18 39  1  0  0  0  0
 19 20  1  0  0  0  0
 21 42  1  0  0  0  0
 22 23  1  0  0  0  0
 22 43  1  0  0  0  0
 22 44  1  0  0  0  0
 23 24  2  0  0  0  0
 23 25  1  0  0  0  0
 24 26  1  0  0  0  0
 24 45  1  0  0  0  0
 25 27  2  0  0  0  0
 25 46  1  0  0  0  0
 26 28  2  0  0  0  0
 26 47  1  0  0  0  0
 27 28  1  0  0  0  0
 27 48  1  0  0  0  0
 28 49  1  0  0  0  0
M  END
>  <PUBCHEM_COMPOUND_CID>
11552796

>  <PUBCHEM_COMPOUND_CANONICALIZED>
1

>  <PUBCHEM_CACTVS_COMPLEXITY>
511

>  <PUBCHEM_CACTVS_HBOND_ACCEPTOR>
9

>  <PUBCHEM_CACTVS_HBOND_DONOR>
5

>  <PUBCHEM_CACTVS_ROTATABLE_BOND>
5

>  <PUBCHEM_CACTVS_SUBSKEYS>
AAADceB7uAAAAAAAAAAAAAAAAAAAAWAAAAA8SIAAAAAAAFgB/AAAHgAQCAAADBzhnwY18L/MFgCgAyZjZACCgC0xEKAJ2KAoVJiLeCLA2VGeZAhvgALbiCfw8AYOAAAAAAAAAAAAAAAAAAAAAAAAAAAAAA==

>  <PUBCHEM_IUPAC_OPENEYE_NAME>
(2R,3R,4S,5S,6R)-2-[6-(benzylamino)purin-9-yl]-6-(hydroxymethyl)tetrahydropyran-3,4,5-triol

>  <PUBCHEM_IUPAC_CAS_NAME>
(2R,3S,4S,5R,6R)-2-(hydroxymethyl)-6-[6-[(phenylmethyl)amino]-9-purinyl]oxane-3,4,5-triol

>  <PUBCHEM_IUPAC_NAME>
(2R,3R,4S,5S,6R)-2-[6-(benzylamino)purin-9-yl]-6-(hydroxymethyl)oxane-3,4,5-triol

>  <PUBCHEM_IUPAC_SYSTEMATIC_NAME>
(2R,3S,4S,5R,6R)-2-(hydroxymethyl)-6-[6-[(phenylmethyl)amino]purin-9-yl]oxane-3,4,5-triol

>  <PUBCHEM_IUPAC_TRADITIONAL_NAME>
(2R,3R,4S,5S,6R)-2-[6-(benzylamino)purin-9-yl]-6-methylol-tetrahydropyran-3,4,5-triol

>  <PUBCHEM_IUPAC_INCHI>
InChI=1S/C18H21N5O5/c24-7-11-13(25)14(26)15(27)18(28-11)23-9-22-12-16(20-8-21-17(12)23)19-6-10-4-2-1-3-5-10/h1-5,8-9,11,13-15,18,24-27H,6-7H2,(H,19,20,21)/t11-,13-,14+,15-,18-/m1/s1

>  <PUBCHEM_IUPAC_INCHIKEY>
KRUUBWXADMDQSI-BWOYXGKQSA-N

>  <PUBCHEM_XLOGP3>
0.5

>  <PUBCHEM_EXACT_MASS>
387.154

>  <PUBCHEM_MOLECULAR_FORMULA>
C18H21N5O5

>  <PUBCHEM_MOLECULAR_WEIGHT>
387.396

>  <PUBCHEM_OPENEYE_CAN_SMILES>
C1=CC=C(C=C1)CNC2=NC=NC3=C2N=CN3C4C(C(C(C(O4)CO)O)O)O

>  <PUBCHEM_OPENEYE_ISO_SMILES>
C1=CC=C(C=C1)CNC2=NC=NC3=C2N=CN3[C@H]4[C@@H]([C@H]([C@@H]([C@H](O4)CO)O)O)O

>  <PUBCHEM_CACTVS_TPSA>
146

>  <PUBCHEM_MONOISOTOPIC_WEIGHT>
387.154

>  <PUBCHEM_TOTAL_CHARGE>
0

>  <PUBCHEM_HEAVY_ATOM_COUNT>
28

>  <PUBCHEM_ATOM_DEF_STEREO_COUNT>
5

>  <PUBCHEM_ATOM_UDEF_STEREO_COUNT>
0

>  <PUBCHEM_BOND_DEF_STEREO_COUNT>
0

>  <PUBCHEM_BOND_UDEF_STEREO_COUNT>
0

>  <PUBCHEM_ISOTOPIC_ATOM_COUNT>
0

>  <PUBCHEM_COMPONENT_COUNT>
1

>  <PUBCHEM_CACTVS_TAUTO_COUNT>
3

>  <PUBCHEM_COORDINATE_TYPE>
1
5
255

>  <PUBCHEM_BONDANNOTATIONS>
10  20  8
10  21  8
15  16  6
17  19  8
19  20  8
11  2  5
23  24  8
23  25  8
24  26  8
25  27  8
26  28  8
27  28  8
12  3  6
14  4  5
13  6  6
6  17  8
6  18  8
7  18  8
7  19  8
8  17  8
8  21  8

$$$$
