11580115
 OpenBabel06101807152D

 33 34  0  0  0  0  0  0  0  0999 V2000
   10.3312    0.5950    0.0000 O   0  0  0  0  0  0  0  0  0  0  0  0
    6.0010   -0.9050    0.0000 O   0  0  0  0  0  0  0  0  0  0  0  0
    8.5991   -2.4050    0.0000 O   0  0  0  0  0  0  0  0  0  0  0  0
    9.4651    2.0950    0.0000 O   0  0  0  0  0  0  0  0  0  0  0  0
    7.7331    2.0950    0.0000 O   0  0  0  0  0  0  0  0  0  0  0  0
    2.5369    2.0950    0.0000 O   0  0  0  0  0  0  0  0  0  0  0  0
    7.7331    0.0950    0.0000 C   0  0  0  0  0  0  0  0  0  0  0  0
    6.8671    0.5950    0.0000 C   0  0  0  0  0  0  0  0  0  0  0  0
    8.5991    0.5950    0.0000 C   0  0  0  0  0  0  0  0  0  0  0  0
    6.0010    0.0950    0.0000 C   0  0  0  0  0  0  0  0  0  0  0  0
    7.7331   -0.9050    0.0000 C   0  0  0  0  0  0  0  0  0  0  0  0
    5.1350    0.5950    0.0000 C   0  0  0  0  0  0  0  0  0  0  0  0
    9.4651    0.0950    0.0000 C   0  0  0  0  0  0  0  0  0  0  0  0
    8.5991   -1.4050    0.0000 C   0  0  0  0  0  0  0  0  0  0  0  0
    9.4651   -0.9050    0.0000 C   0  0  0  0  0  0  0  0  0  0  0  0
    5.1350    1.5950    0.0000 C   0  0  0  0  0  0  0  0  0  0  0  0
    4.2690    0.0950    0.0000 C   0  0  0  0  0  0  0  0  0  0  0  0
    8.5991    1.5950    0.0000 C   0  0  0  0  0  0  0  0  0  0  0  0
    4.2690    2.0950    0.0000 C   0  0  0  0  0  0  0  0  0  0  0  0
    3.4030    0.5950    0.0000 C   0  0  0  0  0  0  0  0  0  0  0  0
    3.4030    1.5950    0.0000 C   0  0  0  0  0  0  0  0  0  0  0  0
    7.2656    1.0700    0.0000 H   0  0  0  0  0  0  0  0  0  0  0  0
    6.4685    1.0700    0.0000 H   0  0  0  0  0  0  0  0  0  0  0  0
    7.1962   -1.2150    0.0000 H   0  0  0  0  0  0  0  0  0  0  0  0
   10.0021   -1.2150    0.0000 H   0  0  0  0  0  0  0  0  0  0  0  0
    5.6720    1.9050    0.0000 H   0  0  0  0  0  0  0  0  0  0  0  0
    4.2690   -0.5250    0.0000 H   0  0  0  0  0  0  0  0  0  0  0  0
    4.2690    2.7150    0.0000 H   0  0  0  0  0  0  0  0  0  0  0  0
    2.8660    0.2850    0.0000 H   0  0  0  0  0  0  0  0  0  0  0  0
   10.8681    0.2850    0.0000 H   0  0  0  0  0  0  0  0  0  0  0  0
    9.1360   -2.7150    0.0000 H   0  0  0  0  0  0  0  0  0  0  0  0
    9.4651    2.7150    0.0000 H   0  0  0  0  0  0  0  0  0  0  0  0
    2.0000    1.7850    0.0000 H   0  0  0  0  0  0  0  0  0  0  0  0
  1 13  1  0  0  0  0
  1 30  1  0  0  0  0
  2 10  2  0  0  0  0
  3 14  1  0  0  0  0
  3 31  1  0  0  0  0
  4 18  1  0  0  0  0
  4 32  1  0  0  0  0
  5 18  2  0  0  0  0
  6 21  1  0  0  0  0
  6 33  1  0  0  0  0
  7  8  1  0  0  0  0
  7  9  2  0  0  0  0
  7 11  1  0  0  0  0
  8 10  1  0  0  0  0
  8 22  1  0  0  0  0
  8 23  1  0  0  0  0
  9 13  1  0  0  0  0
  9 18  1  0  0  0  0
 10 12  1  0  0  0  0
 11 14  2  0  0  0  0
 11 24  1  0  0  0  0
 12 16  2  0  0  0  0
 12 17  1  0  0  0  0
 13 15  2  0  0  0  0
 14 15  1  0  0  0  0
 15 25  1  0  0  0  0
 16 19  1  0  0  0  0
 16 26  1  0  0  0  0
 17 20  2  0  0  0  0
 17 27  1  0  0  0  0
 19 21  2  0  0  0  0
 19 28  1  0  0  0  0
 20 21  1  0  0  0  0
 20 29  1  0  0  0  0
M  END
>  <PUBCHEM_COMPOUND_CID>
11580115

>  <PUBCHEM_COMPOUND_CANONICALIZED>
1

>  <PUBCHEM_CACTVS_COMPLEXITY>
388

>  <PUBCHEM_CACTVS_HBOND_ACCEPTOR>
6

>  <PUBCHEM_CACTVS_HBOND_DONOR>
4

>  <PUBCHEM_CACTVS_ROTATABLE_BOND>
4

>  <PUBCHEM_CACTVS_SUBSKEYS>
AAADccBwOAAAAAAAAAAAAAAAAAAAAAAAAAAwYAAAAAAAAAABQAAAGgAACAAADASAmAAwDoAAAgCIAqDSCAACAAAkIAAIiAEGCMgIJzaCFRKAcUAl4BUImYeI7vTuoAABCAAYAABAAAIQADAAAAAAAAAAAA==

>  <PUBCHEM_IUPAC_OPENEYE_NAME>
2,4-dihydroxy-6-[2-(4-hydroxyphenyl)-2-oxo-ethyl]benzoic acid

>  <PUBCHEM_IUPAC_CAS_NAME>
2,4-dihydroxy-6-[2-(4-hydroxyphenyl)-2-oxoethyl]benzoic acid

>  <PUBCHEM_IUPAC_NAME>
2,4-dihydroxy-6-[2-(4-hydroxyphenyl)-2-oxoethyl]benzoic acid

>  <PUBCHEM_IUPAC_SYSTEMATIC_NAME>
2-[2-(4-hydroxyphenyl)-2-oxidanylidene-ethyl]-4,6-bis(oxidanyl)benzoic acid

>  <PUBCHEM_IUPAC_TRADITIONAL_NAME>
2,4-dihydroxy-6-[2-(4-hydroxyphenyl)-2-keto-ethyl]benzoic acid

>  <PUBCHEM_IUPAC_INCHI>
InChI=1S/C15H12O6/c16-10-3-1-8(2-4-10)12(18)6-9-5-11(17)7-13(19)14(9)15(20)21/h1-5,7,16-17,19H,6H2,(H,20,21)

>  <PUBCHEM_IUPAC_INCHIKEY>
LNNHADLJQPXYGH-UHFFFAOYSA-N

>  <PUBCHEM_XLOGP3_AA>
2.2

>  <PUBCHEM_EXACT_MASS>
288.063

>  <PUBCHEM_MOLECULAR_FORMULA>
C15H12O6

>  <PUBCHEM_MOLECULAR_WEIGHT>
288.255

>  <PUBCHEM_OPENEYE_CAN_SMILES>
C1=CC(=CC=C1C(=O)CC2=CC(=CC(=C2C(=O)O)O)O)O

>  <PUBCHEM_OPENEYE_ISO_SMILES>
C1=CC(=CC=C1C(=O)CC2=CC(=CC(=C2C(=O)O)O)O)O

>  <PUBCHEM_CACTVS_TPSA>
115

>  <PUBCHEM_MONOISOTOPIC_WEIGHT>
288.063

>  <PUBCHEM_TOTAL_CHARGE>
0

>  <PUBCHEM_HEAVY_ATOM_COUNT>
21

>  <PUBCHEM_ATOM_DEF_STEREO_COUNT>
0

>  <PUBCHEM_ATOM_UDEF_STEREO_COUNT>
0

>  <PUBCHEM_BOND_DEF_STEREO_COUNT>
0

>  <PUBCHEM_BOND_UDEF_STEREO_COUNT>
0

>  <PUBCHEM_ISOTOPIC_ATOM_COUNT>
0

>  <PUBCHEM_COMPONENT_COUNT>
1

>  <PUBCHEM_CACTVS_TAUTO_COUNT>
136

>  <PUBCHEM_COORDINATE_TYPE>
1
5
255

>  <PUBCHEM_BONDANNOTATIONS>
11  14  8
12  16  8
12  17  8
13  15  8
14  15  8
16  19  8
17  20  8
19  21  8
20  21  8
7  11  8
7  9  8
9  13  8

$$$$
