11637239
 OpenBabel06101807152D

 39 40  0  0  1  0  0  0  0  0999 V2000
    2.8658    1.2504    0.0000 O   0  0  0  0  0  0  0  0  0  0  0  0
    7.1962    0.7500    0.0000 O   0  0  0  0  0  0  0  0  0  0  0  0
    2.8660    0.2500    0.0000 C   0  0  2  0  0  0  0  0  0  0  0  0
    3.7320    0.7500    0.0000 C   0  0  2  0  0  0  0  0  0  0  0  0
    2.8660   -0.7500    0.0000 C   0  0  0  0  0  0  0  0  0  0  0  0
    4.5981    0.2500    0.0000 C   0  0  0  0  0  0  0  0  0  0  0  0
    2.0000   -0.2500    0.0000 C   0  0  0  0  0  0  0  0  0  0  0  0
    3.7320   -1.2500    0.0000 C   0  0  0  0  0  0  0  0  0  0  0  0
    5.4641    0.7500    0.0000 C   0  0  0  0  0  0  0  0  0  0  0  0
    4.5981   -0.7500    0.0000 C   0  0  0  0  0  0  0  0  0  0  0  0
    6.3301    0.2500    0.0000 C   0  0  0  0  0  0  0  0  0  0  0  0
    5.4641    1.7500    0.0000 C   0  0  0  0  0  0  0  0  0  0  0  0
    6.3301   -0.7500    0.0000 C   0  0  0  0  0  0  0  0  0  0  0  0
    5.4641   -1.2500    0.0000 C   0  0  0  0  0  0  0  0  0  0  0  0
    6.3301    2.2500    0.0000 C   0  0  0  0  0  0  0  0  0  0  0  0
    4.5981    2.2500    0.0000 C   0  0  0  0  0  0  0  0  0  0  0  0
    5.4641   -2.2500    0.0000 C   0  0  0  0  0  0  0  0  0  0  0  0
    4.1572    1.4861    0.0000 H   0  0  0  0  0  0  0  0  0  0  0  0
    2.2554   -0.6423    0.0000 H   0  0  0  0  0  0  0  0  0  0  0  0
    2.6540   -1.3326    0.0000 H   0  0  0  0  0  0  0  0  0  0  0  0
    4.1996   -0.2249    0.0000 H   0  0  0  0  0  0  0  0  0  0  0  0
    4.9966   -0.2249    0.0000 H   0  0  0  0  0  0  0  0  0  0  0  0
    1.6900    0.2869    0.0000 H   0  0  0  0  0  0  0  0  0  0  0  0
    1.4631   -0.5600    0.0000 H   0  0  0  0  0  0  0  0  0  0  0  0
    2.3100   -0.7869    0.0000 H   0  0  0  0  0  0  0  0  0  0  0  0
    3.3335   -1.7250    0.0000 H   0  0  0  0  0  0  0  0  0  0  0  0
    4.1306   -1.7250    0.0000 H   0  0  0  0  0  0  0  0  0  0  0  0
    4.1996   -0.2751    0.0000 H   0  0  0  0  0  0  0  0  0  0  0  0
    6.5422   -1.3326    0.0000 H   0  0  0  0  0  0  0  0  0  0  0  0
    6.9407   -0.6423    0.0000 H   0  0  0  0  0  0  0  0  0  0  0  0
    6.6401    1.7131    0.0000 H   0  0  0  0  0  0  0  0  0  0  0  0
    6.8671    2.5600    0.0000 H   0  0  0  0  0  0  0  0  0  0  0  0
    6.0201    2.7869    0.0000 H   0  0  0  0  0  0  0  0  0  0  0  0
    4.9081    2.7869    0.0000 H   0  0  0  0  0  0  0  0  0  0  0  0
    4.0611    2.5600    0.0000 H   0  0  0  0  0  0  0  0  0  0  0  0
    4.2881    1.7131    0.0000 H   0  0  0  0  0  0  0  0  0  0  0  0
    4.8441   -2.2500    0.0000 H   0  0  0  0  0  0  0  0  0  0  0  0
    5.4641   -2.8700    0.0000 H   0  0  0  0  0  0  0  0  0  0  0  0
    6.0841   -2.2500    0.0000 H   0  0  0  0  0  0  0  0  0  0  0  0
  1  3  1  0  0  0  0
  1  4  1  0  0  0  0
  2 11  2  0  0  0  0
  3  4  1  1  0  0  0
  3  5  1  0  0  0  0
  3  7  1  0  0  0  0
  4  6  1  0  0  0  0
  4 18  1  6  0  0  0
  5  8  1  0  0  0  0
  5 19  1  0  0  0  0
  5 20  1  0  0  0  0
  6  9  1  0  0  0  0
  6 21  1  0  0  0  0
  6 22  1  0  0  0  0
  7 23  1  0  0  0  0
  7 24  1  0  0  0  0
  7 25  1  0  0  0  0
  8 10  1  0  0  0  0
  8 26  1  0  0  0  0
  8 27  1  0  0  0  0
  9 11  1  0  0  0  0
  9 12  2  0  0  0  0
 10 14  2  0  0  0  0
 10 28  1  0  0  0  0
 11 13  1  0  0  0  0
 12 15  1  0  0  0  0
 12 16  1  0  0  0  0
 13 14  1  0  0  0  0
 13 29  1  0  0  0  0
 13 30  1  0  0  0  0
 14 17  1  0  0  0  0
 15 31  1  0  0  0  0
 15 32  1  0  0  0  0
 15 33  1  0  0  0  0
 16 34  1  0  0  0  0
 16 35  1  0  0  0  0
 16 36  1  0  0  0  0
 17 37  1  0  0  0  0
 17 38  1  0  0  0  0
 17 39  1  0  0  0  0
M  END
>  <PUBCHEM_COMPOUND_CID>
11637239

>  <PUBCHEM_COMPOUND_CANONICALIZED>
1

>  <PUBCHEM_CACTVS_COMPLEXITY>
399

>  <PUBCHEM_CACTVS_HBOND_ACCEPTOR>
2

>  <PUBCHEM_CACTVS_HBOND_DONOR>
0

>  <PUBCHEM_CACTVS_ROTATABLE_BOND>
0

>  <PUBCHEM_CACTVS_SUBSKEYS>
AAADceBwMAAAAAAAAAAAAAAAEgAAAAAAAAAAAAAAAAAAAACAAAAAGgAAAAAADFSggAICAAAABACIAqBSAAAAAAAgAAAACAEAAEgAABIAAQACAAAEwAAIAQOKzODOAAAAAAAAAAAAAAAAAAAAAAAAAAAAAA==

>  <PUBCHEM_IUPAC_OPENEYE_NAME>
(1S,6E,10S)-3-isopropylidene-6,10-dimethyl-11-oxabicyclo[8.1.0]undec-6-en-4-one

>  <PUBCHEM_IUPAC_CAS_NAME>
(1S,6E,10S)-6,10-dimethyl-3-propan-2-ylidene-11-oxabicyclo[8.1.0]undec-6-en-4-one

>  <PUBCHEM_IUPAC_NAME>
(1S,6E,10S)-6,10-dimethyl-3-propan-2-ylidene-11-oxabicyclo[8.1.0]undec-6-en-4-one

>  <PUBCHEM_IUPAC_SYSTEMATIC_NAME>
(1S,6E,10S)-6,10-dimethyl-3-propan-2-ylidene-11-oxabicyclo[8.1.0]undec-6-en-4-one

>  <PUBCHEM_IUPAC_TRADITIONAL_NAME>
(1S,6E,10S)-3-isopropylidene-6,10-dimethyl-11-oxabicyclo[8.1.0]undec-6-en-4-one

>  <PUBCHEM_IUPAC_INCHI>
InChI=1S/C15H22O2/c1-10(2)12-9-14-15(4,17-14)7-5-6-11(3)8-13(12)16/h6,14H,5,7-9H2,1-4H3/b11-6+/t14-,15-/m0/s1

>  <PUBCHEM_IUPAC_INCHIKEY>
DWGVRYKQVZGSIB-NCKTXVJMSA-N

>  <PUBCHEM_XLOGP3_AA>
2.8

>  <PUBCHEM_EXACT_MASS>
234.162

>  <PUBCHEM_MOLECULAR_FORMULA>
C15H22O2

>  <PUBCHEM_MOLECULAR_WEIGHT>
234.339

>  <PUBCHEM_OPENEYE_CAN_SMILES>
CC1=CCCC2(C(O2)CC(=C(C)C)C(=O)C1)C

>  <PUBCHEM_OPENEYE_ISO_SMILES>
C/C/1=C\CC[C@]2([C@@H](O2)CC(=C(C)C)C(=O)C1)C

>  <PUBCHEM_CACTVS_TPSA>
29.6

>  <PUBCHEM_MONOISOTOPIC_WEIGHT>
234.162

>  <PUBCHEM_TOTAL_CHARGE>
0

>  <PUBCHEM_HEAVY_ATOM_COUNT>
17

>  <PUBCHEM_ATOM_DEF_STEREO_COUNT>
2

>  <PUBCHEM_ATOM_UDEF_STEREO_COUNT>
0

>  <PUBCHEM_BOND_DEF_STEREO_COUNT>
1

>  <PUBCHEM_BOND_UDEF_STEREO_COUNT>
0

>  <PUBCHEM_ISOTOPIC_ATOM_COUNT>
0

>  <PUBCHEM_COMPONENT_COUNT>
1

>  <PUBCHEM_CACTVS_TAUTO_COUNT>
13

>  <PUBCHEM_COORDINATE_TYPE>
1
5
255

>  <PUBCHEM_BONDANNOTATIONS>
3  7  5
4  18  6

$$$$
