11666202
 OpenBabel06101807152D

 34 36  0  0  0  0  0  0  0  0999 V2000
    5.9730   -0.4755    0.0000 O   0  0  0  0  0  0  0  0  0  0  0  0
    4.5533   -1.7341    0.0000 O   0  0  0  0  0  0  0  0  0  0  0  0
    2.1356    0.8515    0.0000 O   0  0  0  0  0  0  0  0  0  0  0  0
    8.2983    2.2331    0.0000 O   0  0  0  0  0  0  0  0  0  0  0  0
    5.0721   -0.0416    0.0000 C   0  0  0  0  0  0  0  0  0  0  0  0
    4.8496    0.9333    0.0000 C   0  0  0  0  0  0  0  0  0  0  0  0
    4.3195   -0.7618    0.0000 C   0  0  0  0  0  0  0  0  0  0  0  0
    3.3218   -0.4624    0.0000 C   0  0  0  0  0  0  0  0  0  0  0  0
    7.0966    0.9333    0.0000 C   0  0  0  0  0  0  0  0  0  0  0  0
    6.8740   -0.0416    0.0000 C   0  0  0  0  0  0  0  0  0  0  0  0
    3.8591    1.2557    0.0000 C   0  0  0  0  0  0  0  0  0  0  0  0
    3.0901    0.5531    0.0000 C   0  0  0  0  0  0  0  0  0  0  0  0
    5.4731    1.7152    0.0000 C   0  0  0  0  0  0  0  0  0  0  0  0
    6.4731    1.7152    0.0000 C   0  0  0  0  0  0  0  0  0  0  0  0
    8.0870    1.2556    0.0000 C   0  0  0  0  0  0  0  0  0  0  0  0
    2.5914   -1.1454    0.0000 C   0  0  0  0  0  0  0  0  0  0  0  0
    7.6266   -0.7618    0.0000 C   0  0  0  0  0  0  0  0  0  0  0  0
    8.8561    0.5531    0.0000 C   0  0  0  0  0  0  0  0  0  0  0  0
    8.6243   -0.4625    0.0000 C   0  0  0  0  0  0  0  0  0  0  0  0
    3.8282   -2.4227    0.0000 C   0  0  0  0  0  0  0  0  0  0  0  0
    3.7281    1.8617    0.0000 H   0  0  0  0  0  0  0  0  0  0  0  0
    5.2041    2.2738    0.0000 H   0  0  0  0  0  0  0  0  0  0  0  0
    6.7421    2.2738    0.0000 H   0  0  0  0  0  0  0  0  0  0  0  0
    2.1680   -0.6925    0.0000 H   0  0  0  0  0  0  0  0  0  0  0  0
    2.1385   -1.5689    0.0000 H   0  0  0  0  0  0  0  0  0  0  0  0
    3.0148   -1.5983    0.0000 H   0  0  0  0  0  0  0  0  0  0  0  0
    7.4816   -1.3646    0.0000 H   0  0  0  0  0  0  0  0  0  0  0  0
    9.4478    0.7381    0.0000 H   0  0  0  0  0  0  0  0  0  0  0  0
    9.0771   -0.8859    0.0000 H   0  0  0  0  0  0  0  0  0  0  0  0
    2.0000    1.4565    0.0000 H   0  0  0  0  0  0  0  0  0  0  0  0
    3.4012   -1.9731    0.0000 H   0  0  0  0  0  0  0  0  0  0  0  0
    3.3786   -2.8496    0.0000 H   0  0  0  0  0  0  0  0  0  0  0  0
    4.2551   -2.8723    0.0000 H   0  0  0  0  0  0  0  0  0  0  0  0
    8.8886    2.4227    0.0000 H   0  0  0  0  0  0  0  0  0  0  0  0
  1  5  1  0  0  0  0
  1 10  1  0  0  0  0
  2  7  1  0  0  0  0
  2 20  1  0  0  0  0
  3 12  1  0  0  0  0
  3 30  1  0  0  0  0
  4 15  1  0  0  0  0
  4 34  1  0  0  0  0
  5  6  1  0  0  0  0
  5  7  2  0  0  0  0
  6 11  2  0  0  0  0
  6 13  1  0  0  0  0
  7  8  1  0  0  0  0
  8 12  2  0  0  0  0
  8 16  1  0  0  0  0
  9 10  1  0  0  0  0
  9 14  1  0  0  0  0
  9 15  2  0  0  0  0
 10 17  2  0  0  0  0
 11 12  1  0  0  0  0
 11 21  1  0  0  0  0
 13 14  2  0  0  0  0
 13 22  1  0  0  0  0
 14 23  1  0  0  0  0
 15 18  1  0  0  0  0
 16 24  1  0  0  0  0
 16 25  1  0  0  0  0
 16 26  1  0  0  0  0
 17 19  1  0  0  0  0
 17 27  1  0  0  0  0
 18 19  2  0  0  0  0
 18 28  1  0  0  0  0
 19 29  1  0  0  0  0
 20 31  1  0  0  0  0
 20 32  1  0  0  0  0
 20 33  1  0  0  0  0
M  END
>  <PUBCHEM_COMPOUND_CID>
11666202

>  <PUBCHEM_COMPOUND_CANONICALIZED>
1

>  <PUBCHEM_CACTVS_COMPLEXITY>
370

>  <PUBCHEM_CACTVS_HBOND_ACCEPTOR>
4

>  <PUBCHEM_CACTVS_HBOND_DONOR>
2

>  <PUBCHEM_CACTVS_ROTATABLE_BOND>
1

>  <PUBCHEM_CACTVS_SUBSKEYS>
AAADccB4OAAAAAAAAAAAAAAAAAAAAAAAAAAwYAAABAAAAAABQAAAGgAACAAADASAmAIyBoAABgCAAiBCAAACCAAgIAAIiAAGiIgNJyKGMRqCeCKlwBUKuAfA4DwOQQABCAAIQACCAAIQABCAAAAAAAAAAA==

>  <PUBCHEM_IUPAC_OPENEYE_NAME>
1-methoxy-2-methyl-benzo[b][1]benzoxepine-3,7-diol

>  <PUBCHEM_IUPAC_CAS_NAME>
1-methoxy-2-methylbenzo[b][1]benzoxepin-3,7-diol

>  <PUBCHEM_IUPAC_NAME>
1-methoxy-2-methylbenzo[b][1]benzoxepine-3,7-diol

>  <PUBCHEM_IUPAC_SYSTEMATIC_NAME>
1-methoxy-2-methyl-benzo[b][1]benzoxepine-3,7-diol

>  <PUBCHEM_IUPAC_TRADITIONAL_NAME>
1-methoxy-2-methyl-benzo[b][1]benzoxepin-3,7-diol

>  <PUBCHEM_IUPAC_INCHI>
InChI=1S/C16H14O4/c1-9-13(18)8-10-6-7-11-12(17)4-3-5-14(11)20-16(10)15(9)19-2/h3-8,17-18H,1-2H3

>  <PUBCHEM_IUPAC_INCHIKEY>
IAKYVWSFYNMJDD-UHFFFAOYSA-N

>  <PUBCHEM_XLOGP3_AA>
3.6

>  <PUBCHEM_EXACT_MASS>
270.089

>  <PUBCHEM_MOLECULAR_FORMULA>
C16H14O4

>  <PUBCHEM_MOLECULAR_WEIGHT>
270.284

>  <PUBCHEM_OPENEYE_CAN_SMILES>
CC1=C(C=C2C=CC3=C(C=CC=C3O)OC2=C1OC)O

>  <PUBCHEM_OPENEYE_ISO_SMILES>
CC1=C(C=C2C=CC3=C(C=CC=C3O)OC2=C1OC)O

>  <PUBCHEM_CACTVS_TPSA>
58.9

>  <PUBCHEM_MONOISOTOPIC_WEIGHT>
270.089

>  <PUBCHEM_TOTAL_CHARGE>
0

>  <PUBCHEM_HEAVY_ATOM_COUNT>
20

>  <PUBCHEM_ATOM_DEF_STEREO_COUNT>
0

>  <PUBCHEM_ATOM_UDEF_STEREO_COUNT>
0

>  <PUBCHEM_BOND_DEF_STEREO_COUNT>
0

>  <PUBCHEM_BOND_UDEF_STEREO_COUNT>
0

>  <PUBCHEM_ISOTOPIC_ATOM_COUNT>
0

>  <PUBCHEM_COMPONENT_COUNT>
1

>  <PUBCHEM_CACTVS_TAUTO_COUNT>
14

>  <PUBCHEM_COORDINATE_TYPE>
1
5
255

>  <PUBCHEM_BONDANNOTATIONS>
10  17  8
11  12  8
15  18  8
17  19  8
18  19  8
5  6  8
5  7  8
6  11  8
7  8  8
8  12  8
9  10  8
9  15  8

$$$$
