11674044
 OpenBabel06101807152D

 37 39  0  0  0  0  0  0  0  0999 V2000
    4.3198   -1.9377    0.0000 O   0  0  0  0  0  0  0  0  0  0  0  0
    7.8167    2.1315    0.0000 O   0  0  0  0  0  0  0  0  0  0  0  0
    6.0682    2.0969    0.0000 O   0  0  0  0  0  0  0  0  0  0  0  0
    6.0682   -1.9031    0.0000 O   0  0  0  0  0  0  0  0  0  0  0  0
   10.4663    0.6244    0.0000 O   0  0  0  0  0  0  0  0  0  0  0  0
    2.5381   -0.9273    0.0000 O   0  0  0  0  0  0  0  0  0  0  0  0
    6.9343    0.5969    0.0000 C   0  0  0  0  0  0  0  0  0  0  0  0
    6.9343   -0.4031    0.0000 C   0  0  0  0  0  0  0  0  0  0  0  0
    5.2022   -0.4031    0.0000 C   0  0  0  0  0  0  0  0  0  0  0  0
    5.2022    0.5969    0.0000 C   0  0  0  0  0  0  0  0  0  0  0  0
    6.0682    1.0969    0.0000 C   0  0  0  0  0  0  0  0  0  0  0  0
    6.0682   -0.9031    0.0000 C   0  0  0  0  0  0  0  0  0  0  0  0
    7.8282    1.1316    0.0000 C   0  0  0  0  0  0  0  0  0  0  0  0
    8.7343    0.6177    0.0000 C   0  0  0  0  0  0  0  0  0  0  0  0
    7.8282   -0.9378    0.0000 C   0  0  0  0  0  0  0  0  0  0  0  0
    4.3083   -0.9378    0.0000 C   0  0  0  0  0  0  0  0  0  0  0  0
    8.7343   -0.4239    0.0000 C   0  0  0  0  0  0  0  0  0  0  0  0
    4.3083    1.1316    0.0000 C   0  0  0  0  0  0  0  0  0  0  0  0
    3.4022   -0.4239    0.0000 C   0  0  0  0  0  0  0  0  0  0  0  0
    9.5984    1.1211    0.0000 C   0  0  0  0  0  0  0  0  0  0  0  0
    3.4022    0.6177    0.0000 C   0  0  0  0  0  0  0  0  0  0  0  0
    3.4597   -2.4477    0.0000 C   0  0  0  0  0  0  0  0  0  0  0  0
   11.3304    1.1277    0.0000 C   0  0  0  0  0  0  0  0  0  0  0  0
    7.8210   -1.5577    0.0000 H   0  0  0  0  0  0  0  0  0  0  0  0
    9.2700   -0.7360    0.0000 H   0  0  0  0  0  0  0  0  0  0  0  0
    4.3154    1.7515    0.0000 H   0  0  0  0  0  0  0  0  0  0  0  0
    9.9951    1.5975    0.0000 H   0  0  0  0  0  0  0  0  0  0  0  0
    9.1980    1.5944    0.0000 H   0  0  0  0  0  0  0  0  0  0  0  0
    2.8665    0.9298    0.0000 H   0  0  0  0  0  0  0  0  0  0  0  0
    8.3500    2.4477    0.0000 H   0  0  0  0  0  0  0  0  0  0  0  0
    2.0000   -0.6193    0.0000 H   0  0  0  0  0  0  0  0  0  0  0  0
    3.1435   -1.9144    0.0000 H   0  0  0  0  0  0  0  0  0  0  0  0
    2.9263   -2.7639    0.0000 H   0  0  0  0  0  0  0  0  0  0  0  0
    3.7758   -2.9810    0.0000 H   0  0  0  0  0  0  0  0  0  0  0  0
   11.6425    0.5920    0.0000 H   0  0  0  0  0  0  0  0  0  0  0  0
   11.8662    1.4398    0.0000 H   0  0  0  0  0  0  0  0  0  0  0  0
   11.0183    1.6635    0.0000 H   0  0  0  0  0  0  0  0  0  0  0  0
  1 16  1  0  0  0  0
  1 22  1  0  0  0  0
  2 13  1  0  0  0  0
  2 30  1  0  0  0  0
  3 11  2  0  0  0  0
  4 12  2  0  0  0  0
  5 20  1  0  0  0  0
  5 23  1  0  0  0  0
  6 19  1  0  0  0  0
  6 31  1  0  0  0  0
  7  8  2  0  0  0  0
  7 11  1  0  0  0  0
  7 13  1  0  0  0  0
  8 12  1  0  0  0  0
  8 15  1  0  0  0  0
  9 10  2  0  0  0  0
  9 12  1  0  0  0  0
  9 16  1  0  0  0  0
 10 11  1  0  0  0  0
 10 18  1  0  0  0  0
 13 14  2  0  0  0  0
 14 17  1  0  0  0  0
 14 20  1  0  0  0  0
 15 17  2  0  0  0  0
 15 24  1  0  0  0  0
 16 19  2  0  0  0  0
 17 25  1  0  0  0  0
 18 21  2  0  0  0  0
 18 26  1  0  0  0  0
 19 21  1  0  0  0  0
 20 27  1  0  0  0  0
 20 28  1  0  0  0  0
 21 29  1  0  0  0  0
 22 32  1  0  0  0  0
 22 33  1  0  0  0  0
 22 34  1  0  0  0  0
 23 35  1  0  0  0  0
 23 36  1  0  0  0  0
 23 37  1  0  0  0  0
M  END
>  <PUBCHEM_COMPOUND_CID>
11674044

>  <PUBCHEM_COMPOUND_CANONICALIZED>
1

>  <PUBCHEM_CACTVS_COMPLEXITY>
478

>  <PUBCHEM_CACTVS_HBOND_ACCEPTOR>
6

>  <PUBCHEM_CACTVS_HBOND_DONOR>
2

>  <PUBCHEM_CACTVS_ROTATABLE_BOND>
3

>  <PUBCHEM_CACTVS_SUBSKEYS>
AAADccB4OAAAAAAAAAAAAAAAAAAAAAAAAAAwYMAAAAAAAADBQAAAGgAACAAADASgmAIyBoAABgCIAqBSAAACCAAkIAAIiAEGiMgNJzaGNRqAcWMl4BELuYeLzPDO4AADAAAYQADAAAYAADCAAAAAAAAAAA==

>  <PUBCHEM_IUPAC_OPENEYE_NAME>
1,6-dihydroxy-5-methoxy-2-(methoxymethyl)anthracene-9,10-dione

>  <PUBCHEM_IUPAC_CAS_NAME>
1,6-dihydroxy-5-methoxy-2-(methoxymethyl)anthracene-9,10-dione

>  <PUBCHEM_IUPAC_NAME>
1,6-dihydroxy-5-methoxy-2-(methoxymethyl)anthracene-9,10-dione

>  <PUBCHEM_IUPAC_SYSTEMATIC_NAME>
1-methoxy-6-(methoxymethyl)-2,5-bis(oxidanyl)anthracene-9,10-dione

>  <PUBCHEM_IUPAC_TRADITIONAL_NAME>
1,6-dihydroxy-5-methoxy-2-(methoxymethyl)-9,10-anthraquinone

>  <PUBCHEM_IUPAC_INCHI>
InChI=1S/C17H14O6/c1-22-7-8-3-4-9-12(14(8)19)15(20)10-5-6-11(18)17(23-2)13(10)16(9)21/h3-6,18-19H,7H2,1-2H3

>  <PUBCHEM_IUPAC_INCHIKEY>
KKHLOCIPXRSWKM-UHFFFAOYSA-N

>  <PUBCHEM_XLOGP3_AA>
2.3

>  <PUBCHEM_EXACT_MASS>
314.079

>  <PUBCHEM_MOLECULAR_FORMULA>
C17H14O6

>  <PUBCHEM_MOLECULAR_WEIGHT>
314.293

>  <PUBCHEM_OPENEYE_CAN_SMILES>
COCC1=C(C2=C(C=C1)C(=O)C3=C(C2=O)C=CC(=C3OC)O)O

>  <PUBCHEM_OPENEYE_ISO_SMILES>
COCC1=C(C2=C(C=C1)C(=O)C3=C(C2=O)C=CC(=C3OC)O)O

>  <PUBCHEM_CACTVS_TPSA>
93.1

>  <PUBCHEM_MONOISOTOPIC_WEIGHT>
314.079

>  <PUBCHEM_TOTAL_CHARGE>
0

>  <PUBCHEM_HEAVY_ATOM_COUNT>
23

>  <PUBCHEM_ATOM_DEF_STEREO_COUNT>
0

>  <PUBCHEM_ATOM_UDEF_STEREO_COUNT>
0

>  <PUBCHEM_BOND_DEF_STEREO_COUNT>
0

>  <PUBCHEM_BOND_UDEF_STEREO_COUNT>
0

>  <PUBCHEM_ISOTOPIC_ATOM_COUNT>
0

>  <PUBCHEM_COMPONENT_COUNT>
1

>  <PUBCHEM_CACTVS_TAUTO_COUNT>
24

>  <PUBCHEM_COORDINATE_TYPE>
1
5
255

>  <PUBCHEM_BONDANNOTATIONS>
10  18  8
13  14  8
14  17  8
15  17  8
16  19  8
18  21  8
19  21  8
7  13  8
7  8  8
8  15  8
9  10  8
9  16  8

$$$$
