11671519
 OpenBabel06101807152D

108108  0  0  0  0  0  0  0  0999 V2000
    3.4030   -8.8450    0.0000 O   0  0  0  0  0  0  0  0  0  0  0  0
    2.5369  -10.3450    0.0000 O   0  0  0  0  0  0  0  0  0  0  0  0
    6.0010  -10.3450    0.0000 O   0  0  0  0  0  0  0  0  0  0  0  0
    4.2690  -13.3450    0.0000 O   0  0  0  0  0  0  0  0  0  0  0  0
   10.3312    0.1550    0.0000 C   0  0  0  0  0  0  0  0  0  0  0  0
    9.4651   -0.3450    0.0000 C   0  0  0  0  0  0  0  0  0  0  0  0
   10.3312    1.1550    0.0000 C   0  0  0  0  0  0  0  0  0  0  0  0
    9.4651   -1.3450    0.0000 C   0  0  0  0  0  0  0  0  0  0  0  0
   11.1972    1.6550    0.0000 C   0  0  0  0  0  0  0  0  0  0  0  0
    8.5991   -1.8450    0.0000 C   0  0  0  0  0  0  0  0  0  0  0  0
   11.1972    2.6550    0.0000 C   0  0  0  0  0  0  0  0  0  0  0  0
    8.5991   -2.8450    0.0000 C   0  0  0  0  0  0  0  0  0  0  0  0
   12.0632    3.1550    0.0000 C   0  0  0  0  0  0  0  0  0  0  0  0
    7.7331   -3.3450    0.0000 C   0  0  0  0  0  0  0  0  0  0  0  0
   12.0632    4.1550    0.0000 C   0  0  0  0  0  0  0  0  0  0  0  0
    7.7331   -4.3450    0.0000 C   0  0  0  0  0  0  0  0  0  0  0  0
   12.9292    4.6550    0.0000 C   0  0  0  0  0  0  0  0  0  0  0  0
    6.8671   -4.8450    0.0000 C   0  0  0  0  0  0  0  0  0  0  0  0
   12.9292    5.6550    0.0000 C   0  0  0  0  0  0  0  0  0  0  0  0
    6.8671   -5.8450    0.0000 C   0  0  0  0  0  0  0  0  0  0  0  0
   13.7953    6.1550    0.0000 C   0  0  0  0  0  0  0  0  0  0  0  0
    6.0010   -6.3450    0.0000 C   0  0  0  0  0  0  0  0  0  0  0  0
   13.7953    7.1550    0.0000 C   0  0  0  0  0  0  0  0  0  0  0  0
    6.0010   -7.3450    0.0000 C   0  0  0  0  0  0  0  0  0  0  0  0
   14.6613    7.6550    0.0000 C   0  0  0  0  0  0  0  0  0  0  0  0
    5.1350   -7.8450    0.0000 C   0  0  0  0  0  0  0  0  0  0  0  0
   14.6613    8.6550    0.0000 C   0  0  0  0  0  0  0  0  0  0  0  0
    5.1350   -8.8450    0.0000 C   0  0  0  0  0  0  0  0  0  0  0  0
   15.5273    9.1550    0.0000 C   0  0  0  0  0  0  0  0  0  0  0  0
    4.2690   -9.3450    0.0000 C   0  0  0  0  0  0  0  0  0  0  0  0
   15.5273   10.1550    0.0000 C   0  0  0  0  0  0  0  0  0  0  0  0
   14.6613   10.6550    0.0000 C   0  0  0  0  0  0  0  0  0  0  0  0
   14.6613   11.6550    0.0000 C   0  0  0  0  0  0  0  0  0  0  0  0
    4.2690  -10.3450    0.0000 C   0  0  0  0  0  0  0  0  0  0  0  0
   13.7953   12.1550    0.0000 C   0  0  0  0  0  0  0  0  0  0  0  0
   13.7953   13.1550    0.0000 C   0  0  0  0  0  0  0  0  0  0  0  0
    3.4030  -10.8450    0.0000 C   0  0  0  0  0  0  0  0  0  0  0  0
    5.1350  -10.8450    0.0000 C   0  0  0  0  0  0  0  0  0  0  0  0
   12.9292   13.6550    0.0000 C   0  0  0  0  0  0  0  0  0  0  0  0
    3.4030  -11.8450    0.0000 C   0  0  0  0  0  0  0  0  0  0  0  0
    5.1350  -11.8450    0.0000 C   0  0  0  0  0  0  0  0  0  0  0  0
    4.2690  -12.3450    0.0000 C   0  0  0  0  0  0  0  0  0  0  0  0
   10.5432   -0.4276    0.0000 H   0  0  0  0  0  0  0  0  0  0  0  0
   10.9417    0.2627    0.0000 H   0  0  0  0  0  0  0  0  0  0  0  0
    9.2531    0.2376    0.0000 H   0  0  0  0  0  0  0  0  0  0  0  0
    8.8546   -0.4527    0.0000 H   0  0  0  0  0  0  0  0  0  0  0  0
   10.1191    1.7376    0.0000 H   0  0  0  0  0  0  0  0  0  0  0  0
    9.7206    1.0473    0.0000 H   0  0  0  0  0  0  0  0  0  0  0  0
    9.6772   -1.9276    0.0000 H   0  0  0  0  0  0  0  0  0  0  0  0
   10.0757   -1.2373    0.0000 H   0  0  0  0  0  0  0  0  0  0  0  0
   11.4092    1.0724    0.0000 H   0  0  0  0  0  0  0  0  0  0  0  0
   11.8078    1.7627    0.0000 H   0  0  0  0  0  0  0  0  0  0  0  0
    8.3871   -1.2624    0.0000 H   0  0  0  0  0  0  0  0  0  0  0  0
    7.9885   -1.9527    0.0000 H   0  0  0  0  0  0  0  0  0  0  0  0
   10.9851    3.2376    0.0000 H   0  0  0  0  0  0  0  0  0  0  0  0
   10.5866    2.5473    0.0000 H   0  0  0  0  0  0  0  0  0  0  0  0
    8.8112   -3.4276    0.0000 H   0  0  0  0  0  0  0  0  0  0  0  0
    9.2097   -2.7373    0.0000 H   0  0  0  0  0  0  0  0  0  0  0  0
   12.2753    2.5724    0.0000 H   0  0  0  0  0  0  0  0  0  0  0  0
   12.6738    3.2627    0.0000 H   0  0  0  0  0  0  0  0  0  0  0  0
    7.5210   -2.7624    0.0000 H   0  0  0  0  0  0  0  0  0  0  0  0
    7.1225   -3.4527    0.0000 H   0  0  0  0  0  0  0  0  0  0  0  0
   11.8512    4.7376    0.0000 H   0  0  0  0  0  0  0  0  0  0  0  0
   11.4526    4.0473    0.0000 H   0  0  0  0  0  0  0  0  0  0  0  0
    7.9451   -4.9276    0.0000 H   0  0  0  0  0  0  0  0  0  0  0  0
    8.3437   -4.2373    0.0000 H   0  0  0  0  0  0  0  0  0  0  0  0
   13.1413    4.0724    0.0000 H   0  0  0  0  0  0  0  0  0  0  0  0
   13.5398    4.7627    0.0000 H   0  0  0  0  0  0  0  0  0  0  0  0
    6.6550   -4.2624    0.0000 H   0  0  0  0  0  0  0  0  0  0  0  0
    6.2565   -4.9527    0.0000 H   0  0  0  0  0  0  0  0  0  0  0  0
   12.7172    6.2376    0.0000 H   0  0  0  0  0  0  0  0  0  0  0  0
   12.3187    5.5473    0.0000 H   0  0  0  0  0  0  0  0  0  0  0  0
    7.0791   -6.4276    0.0000 H   0  0  0  0  0  0  0  0  0  0  0  0
    7.4776   -5.7373    0.0000 H   0  0  0  0  0  0  0  0  0  0  0  0
   14.0073    5.5724    0.0000 H   0  0  0  0  0  0  0  0  0  0  0  0
   14.4058    6.2627    0.0000 H   0  0  0  0  0  0  0  0  0  0  0  0
    5.7890   -5.7624    0.0000 H   0  0  0  0  0  0  0  0  0  0  0  0
    5.3905   -6.4527    0.0000 H   0  0  0  0  0  0  0  0  0  0  0  0
   13.5832    7.7376    0.0000 H   0  0  0  0  0  0  0  0  0  0  0  0
   13.1847    7.0473    0.0000 H   0  0  0  0  0  0  0  0  0  0  0  0
    6.2131   -7.9276    0.0000 H   0  0  0  0  0  0  0  0  0  0  0  0
    6.6116   -7.2373    0.0000 H   0  0  0  0  0  0  0  0  0  0  0  0
   14.8733    7.0724    0.0000 H   0  0  0  0  0  0  0  0  0  0  0  0
   15.2719    7.7627    0.0000 H   0  0  0  0  0  0  0  0  0  0  0  0
    4.9230   -7.2624    0.0000 H   0  0  0  0  0  0  0  0  0  0  0  0
    4.5244   -7.9527    0.0000 H   0  0  0  0  0  0  0  0  0  0  0  0
   14.4492    9.2376    0.0000 H   0  0  0  0  0  0  0  0  0  0  0  0
   14.0507    8.5473    0.0000 H   0  0  0  0  0  0  0  0  0  0  0  0
    5.3471   -9.4276    0.0000 H   0  0  0  0  0  0  0  0  0  0  0  0
    5.7456   -8.7373    0.0000 H   0  0  0  0  0  0  0  0  0  0  0  0
   16.0643    8.8450    0.0000 H   0  0  0  0  0  0  0  0  0  0  0  0
   16.0643   10.4650    0.0000 H   0  0  0  0  0  0  0  0  0  0  0  0
   14.0507   10.7627    0.0000 H   0  0  0  0  0  0  0  0  0  0  0  0
   14.4492   10.0724    0.0000 H   0  0  0  0  0  0  0  0  0  0  0  0
   15.2719   11.5473    0.0000 H   0  0  0  0  0  0  0  0  0  0  0  0
   14.8733   12.2376    0.0000 H   0  0  0  0  0  0  0  0  0  0  0  0
   13.1847   12.2627    0.0000 H   0  0  0  0  0  0  0  0  0  0  0  0
   13.5832   11.5724    0.0000 H   0  0  0  0  0  0  0  0  0  0  0  0
   14.4058   13.0473    0.0000 H   0  0  0  0  0  0  0  0  0  0  0  0
   14.0073   13.7376    0.0000 H   0  0  0  0  0  0  0  0  0  0  0  0
   13.2392   14.1919    0.0000 H   0  0  0  0  0  0  0  0  0  0  0  0
   12.3923   13.9650    0.0000 H   0  0  0  0  0  0  0  0  0  0  0  0
   12.6192   13.1181    0.0000 H   0  0  0  0  0  0  0  0  0  0  0  0
    2.8660  -12.1550    0.0000 H   0  0  0  0  0  0  0  0  0  0  0  0
    5.6720  -12.1550    0.0000 H   0  0  0  0  0  0  0  0  0  0  0  0
    2.0000  -10.6550    0.0000 H   0  0  0  0  0  0  0  0  0  0  0  0
    6.5380  -10.6550    0.0000 H   0  0  0  0  0  0  0  0  0  0  0  0
    3.7320  -13.6550    0.0000 H   0  0  0  0  0  0  0  0  0  0  0  0
  1 30  2  0  0  0  0
  2 37  1  0  0  0  0
  2106  1  0  0  0  0
  3 38  1  0  0  0  0
  3107  1  0  0  0  0
  4 42  1  0  0  0  0
  4108  1  0  0  0  0
  5  6  1  0  0  0  0
  5  7  1  0  0  0  0
  5 43  1  0  0  0  0
  5 44  1  0  0  0  0
  6  8  1  0  0  0  0
  6 45  1  0  0  0  0
  6 46  1  0  0  0  0
  7  9  1  0  0  0  0
  7 47  1  0  0  0  0
  7 48  1  0  0  0  0
  8 10  1  0  0  0  0
  8 49  1  0  0  0  0
  8 50  1  0  0  0  0
  9 11  1  0  0  0  0
  9 51  1  0  0  0  0
  9 52  1  0  0  0  0
 10 12  1  0  0  0  0
 10 53  1  0  0  0  0
 10 54  1  0  0  0  0
 11 13  1  0  0  0  0
 11 55  1  0  0  0  0
 11 56  1  0  0  0  0
 12 14  1  0  0  0  0
 12 57  1  0  0  0  0
 12 58  1  0  0  0  0
 13 15  1  0  0  0  0
 13 59  1  0  0  0  0
 13 60  1  0  0  0  0
 14 16  1  0  0  0  0
 14 61  1  0  0  0  0
 14 62  1  0  0  0  0
 15 17  1  0  0  0  0
 15 63  1  0  0  0  0
 15 64  1  0  0  0  0
 16 18  1  0  0  0  0
 16 65  1  0  0  0  0
 16 66  1  0  0  0  0
 17 19  1  0  0  0  0
 17 67  1  0  0  0  0
 17 68  1  0  0  0  0
 18 20  1  0  0  0  0
 18 69  1  0  0  0  0
 18 70  1  0  0  0  0
 19 21  1  0  0  0  0
 19 71  1  0  0  0  0
 19 72  1  0  0  0  0
 20 22  1  0  0  0  0
 20 73  1  0  0  0  0
 20 74  1  0  0  0  0
 21 23  1  0  0  0  0
 21 75  1  0  0  0  0
 21 76  1  0  0  0  0
 22 24  1  0  0  0  0
 22 77  1  0  0  0  0
 22 78  1  0  0  0  0
 23 25  1  0  0  0  0
 23 79  1  0  0  0  0
 23 80  1  0  0  0  0
 24 26  1  0  0  0  0
 24 81  1  0  0  0  0
 24 82  1  0  0  0  0
 25 27  1  0  0  0  0
 25 83  1  0  0  0  0
 25 84  1  0  0  0  0
 26 28  1  0  0  0  0
 26 85  1  0  0  0  0
 26 86  1  0  0  0  0
 27 29  1  0  0  0  0
 27 87  1  0  0  0  0
 27 88  1  0  0  0  0
 28 30  1  0  0  0  0
 28 89  1  0  0  0  0
 28 90  1  0  0  0  0
 29 31  2  0  0  0  0
 29 91  1  0  0  0  0
 30 34  1  0  0  0  0
 31 32  1  0  0  0  0
 31 92  1  0  0  0  0
 32 33  1  0  0  0  0
 32 93  1  0  0  0  0
 32 94  1  0  0  0  0
 33 35  1  0  0  0  0
 33 95  1  0  0  0  0
 33 96  1  0  0  0  0
 34 37  2  0  0  0  0
 34 38  1  0  0  0  0
 35 36  1  0  0  0  0
 35 97  1  0  0  0  0
 35 98  1  0  0  0  0
 36 39  1  0  0  0  0
 36 99  1  0  0  0  0
 36100  1  0  0  0  0
 37 40  1  0  0  0  0
 38 41  2  0  0  0  0
 39101  1  0  0  0  0
 39102  1  0  0  0  0
 39103  1  0  0  0  0
 40 42  2  0  0  0  0
 40104  1  0  0  0  0
 41 42  1  0  0  0  0
 41105  1  0  0  0  0
M  END
>  <PUBCHEM_COMPOUND_CID>
11671519

>  <PUBCHEM_COMPOUND_CANONICALIZED>
1

>  <PUBCHEM_CACTVS_COMPLEXITY>
606

>  <PUBCHEM_CACTVS_HBOND_ACCEPTOR>
4

>  <PUBCHEM_CACTVS_HBOND_DONOR>
3

>  <PUBCHEM_CACTVS_ROTATABLE_BOND>
30

>  <PUBCHEM_CACTVS_SUBSKEYS>
AAADcfB8OAAAAAAAAAAAAAAAAAAAAAAAAAAwAAAAAAAAAAABAAAAGgAACAAADASAmAAyBoAAAgCIAqBSAAACAAAkIAAIiAEGCMgIJzaCFRKAcUAl4BUImQeI7OTOIAAACAAIAABAAAAQABAAAAAAAAAAAA==

>  <PUBCHEM_IUPAC_OPENEYE_NAME>
(Z)-1-(2,4,6-trihydroxyphenyl)dotriacont-26-en-1-one

>  <PUBCHEM_IUPAC_CAS_NAME>
(Z)-1-(2,4,6-trihydroxyphenyl)-26-dotriaconten-1-one

>  <PUBCHEM_IUPAC_NAME>
(Z)-1-(2,4,6-trihydroxyphenyl)dotriacont-26-en-1-one

>  <PUBCHEM_IUPAC_SYSTEMATIC_NAME>
(Z)-1-[2,4,6-tris(oxidanyl)phenyl]dotriacont-26-en-1-one

>  <PUBCHEM_IUPAC_TRADITIONAL_NAME>
(Z)-1-(2,4,6-trihydroxyphenyl)dotriacont-26-en-1-one

>  <PUBCHEM_IUPAC_INCHI>
InChI=1S/C38H66O4/c1-2-3-4-5-6-7-8-9-10-11-12-13-14-15-16-17-18-19-20-21-22-23-24-25-26-27-28-29-30-31-35(40)38-36(41)32-34(39)33-37(38)42/h6-7,32-33,39,41-42H,2-5,8-31H2,1H3/b7-6-

>  <PUBCHEM_IUPAC_INCHIKEY>
QNIDYLJFDHXBDR-SREVYHEPSA-N

>  <PUBCHEM_XLOGP3_AA>
16.2

>  <PUBCHEM_EXACT_MASS>
586.496

>  <PUBCHEM_MOLECULAR_FORMULA>
C38H66O4

>  <PUBCHEM_MOLECULAR_WEIGHT>
586.942

>  <PUBCHEM_OPENEYE_CAN_SMILES>
CCCCCC=CCCCCCCCCCCCCCCCCCCCCCCCCC(=O)C1=C(C=C(C=C1O)O)O

>  <PUBCHEM_OPENEYE_ISO_SMILES>
CCCCC/C=C\CCCCCCCCCCCCCCCCCCCCCCCCC(=O)C1=C(C=C(C=C1O)O)O

>  <PUBCHEM_CACTVS_TPSA>
77.8

>  <PUBCHEM_MONOISOTOPIC_WEIGHT>
586.496

>  <PUBCHEM_TOTAL_CHARGE>
0

>  <PUBCHEM_HEAVY_ATOM_COUNT>
42

>  <PUBCHEM_ATOM_DEF_STEREO_COUNT>
0

>  <PUBCHEM_ATOM_UDEF_STEREO_COUNT>
0

>  <PUBCHEM_BOND_DEF_STEREO_COUNT>
1

>  <PUBCHEM_BOND_UDEF_STEREO_COUNT>
0

>  <PUBCHEM_ISOTOPIC_ATOM_COUNT>
0

>  <PUBCHEM_COMPONENT_COUNT>
1

>  <PUBCHEM_CACTVS_TAUTO_COUNT>
25

>  <PUBCHEM_COORDINATE_TYPE>
1
5
255

>  <PUBCHEM_BONDANNOTATIONS>
34  37  8
34  38  8
37  40  8
38  41  8
40  42  8
41  42  8

$$$$
