11687814
 OpenBabel06101807152D

 33 35  0  0  0  0  0  0  0  0999 V2000
    6.5731   -0.8198    0.0000 O   0  0  0  0  0  0  0  0  0  0  0  0
    2.7357    0.5072    0.0000 O   0  0  0  0  0  0  0  0  0  0  0  0
    5.1533   -2.0784    0.0000 O   0  0  0  0  0  0  0  0  0  0  0  0
    4.2479    1.8888    0.0000 O   0  0  0  0  0  0  0  0  0  0  0  0
    8.8983    1.8888    0.0000 O   0  0  0  0  0  0  0  0  0  0  0  0
    5.4496    0.5890    0.0000 C   0  0  0  0  0  0  0  0  0  0  0  0
    5.6721   -0.3859    0.0000 C   0  0  0  0  0  0  0  0  0  0  0  0
    3.9219   -0.8067    0.0000 C   0  0  0  0  0  0  0  0  0  0  0  0
    7.6966    0.5890    0.0000 C   0  0  0  0  0  0  0  0  0  0  0  0
    4.9196   -1.1061    0.0000 C   0  0  0  0  0  0  0  0  0  0  0  0
    3.6901    0.2088    0.0000 C   0  0  0  0  0  0  0  0  0  0  0  0
    4.4591    0.9114    0.0000 C   0  0  0  0  0  0  0  0  0  0  0  0
    7.4741   -0.3859    0.0000 C   0  0  0  0  0  0  0  0  0  0  0  0
    6.0731    1.3709    0.0000 C   0  0  0  0  0  0  0  0  0  0  0  0
    7.0731    1.3708    0.0000 C   0  0  0  0  0  0  0  0  0  0  0  0
    8.6871    0.9113    0.0000 C   0  0  0  0  0  0  0  0  0  0  0  0
    3.1914   -1.4897    0.0000 C   0  0  0  0  0  0  0  0  0  0  0  0
    8.2266   -1.1061    0.0000 C   0  0  0  0  0  0  0  0  0  0  0  0
    9.4561    0.2088    0.0000 C   0  0  0  0  0  0  0  0  0  0  0  0
    9.2243   -0.8068    0.0000 C   0  0  0  0  0  0  0  0  0  0  0  0
    2.0000   -0.1701    0.0000 C   0  0  0  0  0  0  0  0  0  0  0  0
    5.8041    1.9295    0.0000 H   0  0  0  0  0  0  0  0  0  0  0  0
    7.3421    1.9294    0.0000 H   0  0  0  0  0  0  0  0  0  0  0  0
    2.7680   -1.0368    0.0000 H   0  0  0  0  0  0  0  0  0  0  0  0
    2.7386   -1.9132    0.0000 H   0  0  0  0  0  0  0  0  0  0  0  0
    3.6149   -1.9426    0.0000 H   0  0  0  0  0  0  0  0  0  0  0  0
    8.0817   -1.7089    0.0000 H   0  0  0  0  0  0  0  0  0  0  0  0
   10.0478    0.3938    0.0000 H   0  0  0  0  0  0  0  0  0  0  0  0
    9.6772   -1.2302    0.0000 H   0  0  0  0  0  0  0  0  0  0  0  0
    1.5800    0.2860    0.0000 H   0  0  0  0  0  0  0  0  0  0  0  0
    1.5439   -0.5900    0.0000 H   0  0  0  0  0  0  0  0  0  0  0  0
    2.4200   -0.6262    0.0000 H   0  0  0  0  0  0  0  0  0  0  0  0
    9.4886    2.0784    0.0000 H   0  0  0  0  0  0  0  0  0  0  0  0
  1  7  1  0  0  0  0
  1 13  1  0  0  0  0
  2 11  1  0  0  0  0
  2 21  1  0  0  0  0
  3 10  2  0  0  0  0
  4 12  2  0  0  0  0
  5 16  1  0  0  0  0
  5 33  1  0  0  0  0
  6  7  2  0  0  0  0
  6 12  1  0  0  0  0
  6 14  1  0  0  0  0
  7 10  1  0  0  0  0
  8 10  1  0  0  0  0
  8 11  2  0  0  0  0
  8 17  1  0  0  0  0
  9 13  1  0  0  0  0
  9 15  1  0  0  0  0
  9 16  2  0  0  0  0
 11 12  1  0  0  0  0
 13 18  2  0  0  0  0
 14 15  2  0  0  0  0
 14 22  1  0  0  0  0
 15 23  1  0  0  0  0
 16 19  1  0  0  0  0
 17 24  1  0  0  0  0
 17 25  1  0  0  0  0
 17 26  1  0  0  0  0
 18 20  1  0  0  0  0
 18 27  1  0  0  0  0
 19 20  2  0  0  0  0
 19 28  1  0  0  0  0
 20 29  1  0  0  0  0
 21 30  1  0  0  0  0
 21 31  1  0  0  0  0
 21 32  1  0  0  0  0
M  END
>  <PUBCHEM_COMPOUND_CID>
11687814

>  <PUBCHEM_COMPOUND_CANONICALIZED>
1

>  <PUBCHEM_CACTVS_COMPLEXITY>
596

>  <PUBCHEM_CACTVS_HBOND_ACCEPTOR>
5

>  <PUBCHEM_CACTVS_HBOND_DONOR>
1

>  <PUBCHEM_CACTVS_ROTATABLE_BOND>
1

>  <PUBCHEM_CACTVS_SUBSKEYS>
AAADccB4OAAAAAAAAAAAAAAAAAAAAAAAAAAwQAAABAAAAAABAAAAGgAACAAADASAmAIyBoAABgCIAqBSAAICCAAgIAAIiAFGCMgMJyKGMR6CeCClwBUIuQeA4CwOAAAACAAIAAAAAAAQABAAAAAAAAAAAA==

>  <PUBCHEM_IUPAC_OPENEYE_NAME>
7-hydroxy-3-methoxy-2-methyl-benzo[b][1]benzoxepine-1,4-dione

>  <PUBCHEM_IUPAC_CAS_NAME>
7-hydroxy-3-methoxy-2-methylbenzo[b][1]benzoxepin-1,4-dione

>  <PUBCHEM_IUPAC_NAME>
7-hydroxy-3-methoxy-2-methylbenzo[b][1]benzoxepine-1,4-dione

>  <PUBCHEM_IUPAC_SYSTEMATIC_NAME>
3-methoxy-2-methyl-7-oxidanyl-benzo[b][1]benzoxepine-1,4-dione

>  <PUBCHEM_IUPAC_TRADITIONAL_NAME>
7-hydroxy-3-methoxy-2-methyl-benzo[b][1]benzoxepin-1,4-quinone

>  <PUBCHEM_IUPAC_INCHI>
InChI=1S/C16H12O5/c1-8-13(18)16-10(14(19)15(8)20-2)7-6-9-11(17)4-3-5-12(9)21-16/h3-7,17H,1-2H3

>  <PUBCHEM_IUPAC_INCHIKEY>
FVUPAEPJEZLDAA-UHFFFAOYSA-N

>  <PUBCHEM_XLOGP3_AA>
2.5

>  <PUBCHEM_EXACT_MASS>
284.068

>  <PUBCHEM_MOLECULAR_FORMULA>
C16H12O5

>  <PUBCHEM_MOLECULAR_WEIGHT>
284.267

>  <PUBCHEM_OPENEYE_CAN_SMILES>
CC1=C(C(=O)C2=C(C1=O)OC3=C(C=C2)C(=CC=C3)O)OC

>  <PUBCHEM_OPENEYE_ISO_SMILES>
CC1=C(C(=O)C2=C(C1=O)OC3=C(C=C2)C(=CC=C3)O)OC

>  <PUBCHEM_CACTVS_TPSA>
72.8

>  <PUBCHEM_MONOISOTOPIC_WEIGHT>
284.068

>  <PUBCHEM_TOTAL_CHARGE>
0

>  <PUBCHEM_HEAVY_ATOM_COUNT>
21

>  <PUBCHEM_ATOM_DEF_STEREO_COUNT>
0

>  <PUBCHEM_ATOM_UDEF_STEREO_COUNT>
0

>  <PUBCHEM_BOND_DEF_STEREO_COUNT>
0

>  <PUBCHEM_BOND_UDEF_STEREO_COUNT>
0

>  <PUBCHEM_ISOTOPIC_ATOM_COUNT>
0

>  <PUBCHEM_COMPONENT_COUNT>
1

>  <PUBCHEM_CACTVS_TAUTO_COUNT>
6

>  <PUBCHEM_COORDINATE_TYPE>
1
5
255

>  <PUBCHEM_BONDANNOTATIONS>
1  13  8
1  7  8
11  12  8
13  18  8
14  15  8
16  19  8
18  20  8
19  20  8
6  12  8
6  14  8
7  10  8
8  10  8
8  11  8
9  13  8
9  15  8
9  16  8

$$$$
