11711264
 OpenBabel06101807152D

 56 58  0  0  0  0  0  0  0  0999 V2000
    4.6660   -0.1481    0.0000 O   0  0  0  0  0  0  0  0  0  0  0  0
    8.1962   -0.1723    0.0000 O   0  0  0  0  0  0  0  0  0  0  0  0
    6.4144    2.8864    0.0000 O   0  0  0  0  0  0  0  0  0  0  0  0
    4.6660    2.8519    0.0000 O   0  0  0  0  0  0  0  0  0  0  0  0
    2.9176    2.8864    0.0000 O   0  0  0  0  0  0  0  0  0  0  0  0
    2.9176   -1.1827    0.0000 O   0  0  0  0  0  0  0  0  0  0  0  0
    6.4260   -0.1828    0.0000 C   0  0  0  0  0  0  0  0  0  0  0  0
    5.5321    0.3519    0.0000 C   0  0  0  0  0  0  0  0  0  0  0  0
    5.5321    1.3518    0.0000 C   0  0  0  0  0  0  0  0  0  0  0  0
    7.3321    1.3727    0.0000 C   0  0  0  0  0  0  0  0  0  0  0  0
    7.3321    0.3310    0.0000 C   0  0  0  0  0  0  0  0  0  0  0  0
    6.4260    1.8865    0.0000 C   0  0  0  0  0  0  0  0  0  0  0  0
    6.4144   -1.1827    0.0000 C   0  0  0  0  0  0  0  0  0  0  0  0
    8.1962    1.8760    0.0000 C   0  0  0  0  0  0  0  0  0  0  0  0
    4.6660    1.8518    0.0000 C   0  0  0  0  0  0  0  0  0  0  0  0
    3.8000    1.3518    0.0000 C   0  0  0  0  0  0  0  0  0  0  0  0
    3.8000    0.3519    0.0000 C   0  0  0  0  0  0  0  0  0  0  0  0
    7.2746   -1.6927    0.0000 C   0  0  0  0  0  0  0  0  0  0  0  0
    2.9061    1.8865    0.0000 C   0  0  0  0  0  0  0  0  0  0  0  0
    9.0641    1.3793    0.0000 C   0  0  0  0  0  0  0  0  0  0  0  0
    2.9061   -0.1828    0.0000 C   0  0  0  0  0  0  0  0  0  0  0  0
    7.2631   -2.6927    0.0000 C   0  0  0  0  0  0  0  0  0  0  0  0
    2.0000    1.3727    0.0000 C   0  0  0  0  0  0  0  0  0  0  0  0
    2.0000    0.3310    0.0000 C   0  0  0  0  0  0  0  0  0  0  0  0
    9.9282    1.8827    0.0000 C   0  0  0  0  0  0  0  0  0  0  0  0
    9.0641    0.3244    0.0000 C   0  0  0  0  0  0  0  0  0  0  0  0
    8.1232   -3.2026    0.0000 C   0  0  0  0  0  0  0  0  0  0  0  0
    6.3913   -3.1826    0.0000 C   0  0  0  0  0  0  0  0  0  0  0  0
   10.7961    1.3860    0.0000 C   0  0  0  0  0  0  0  0  0  0  0  0
    9.9243    2.8827    0.0000 C   0  0  0  0  0  0  0  0  0  0  0  0
    5.8051   -1.0680    0.0000 H   0  0  0  0  0  0  0  0  0  0  0  0
    6.1957   -1.7629    0.0000 H   0  0  0  0  0  0  0  0  0  0  0  0
    8.5929    2.3525    0.0000 H   0  0  0  0  0  0  0  0  0  0  0  0
    7.7958    2.3494    0.0000 H   0  0  0  0  0  0  0  0  0  0  0  0
    7.8151   -1.3889    0.0000 H   0  0  0  0  0  0  0  0  0  0  0  0
    9.0665    0.7593    0.0000 H   0  0  0  0  0  0  0  0  0  0  0  0
    1.4643    1.6847    0.0000 H   0  0  0  0  0  0  0  0  0  0  0  0
    6.9478    3.2026    0.0000 H   0  0  0  0  0  0  0  0  0  0  0  0
    1.4643    0.0190    0.0000 H   0  0  0  0  0  0  0  0  0  0  0  0
    9.3720   -0.2138    0.0000 H   0  0  0  0  0  0  0  0  0  0  0  0
    9.6022    0.6323    0.0000 H   0  0  0  0  0  0  0  0  0  0  0  0
    8.7562    0.8625    0.0000 H   0  0  0  0  0  0  0  0  0  0  0  0
    6.0875   -2.6421    0.0000 H   0  0  0  0  0  0  0  0  0  0  0  0
    5.8508   -3.4864    0.0000 H   0  0  0  0  0  0  0  0  0  0  0  0
    6.6951   -3.7231    0.0000 H   0  0  0  0  0  0  0  0  0  0  0  0
    7.8071   -3.7360    0.0000 H   0  0  0  0  0  0  0  0  0  0  0  0
    8.6566   -3.5188    0.0000 H   0  0  0  0  0  0  0  0  0  0  0  0
    8.4394   -2.6693    0.0000 H   0  0  0  0  0  0  0  0  0  0  0  0
   10.4882    0.8479    0.0000 H   0  0  0  0  0  0  0  0  0  0  0  0
   10.5443    2.8851    0.0000 H   0  0  0  0  0  0  0  0  0  0  0  0
    9.9220    3.5027    0.0000 H   0  0  0  0  0  0  0  0  0  0  0  0
    9.3044    2.8803    0.0000 H   0  0  0  0  0  0  0  0  0  0  0  0
   11.3343    1.0781    0.0000 H   0  0  0  0  0  0  0  0  0  0  0  0
   11.1041    1.9242    0.0000 H   0  0  0  0  0  0  0  0  0  0  0  0
    2.3843    3.2026    0.0000 H   0  0  0  0  0  0  0  0  0  0  0  0
    2.3843   -1.4989    0.0000 H   0  0  0  0  0  0  0  0  0  0  0  0
  1  8  1  0  0  0  0
  1 17  1  0  0  0  0
  2 11  1  0  0  0  0
  2 26  1  0  0  0  0
  3 12  1  0  0  0  0
  3 38  1  0  0  0  0
  4 15  2  0  0  0  0
  5 19  1  0  0  0  0
  5 55  1  0  0  0  0
  6 21  1  0  0  0  0
  6 56  1  0  0  0  0
  7  8  1  0  0  0  0
  7 11  2  0  0  0  0
  7 13  1  0  0  0  0
  8  9  2  0  0  0  0
  9 12  1  0  0  0  0
  9 15  1  0  0  0  0
 10 11  1  0  0  0  0
 10 12  2  0  0  0  0
 10 14  1  0  0  0  0
 13 18  1  0  0  0  0
 13 31  1  0  0  0  0
 13 32  1  0  0  0  0
 14 20  1  0  0  0  0
 14 33  1  0  0  0  0
 14 34  1  0  0  0  0
 15 16  1  0  0  0  0
 16 17  1  0  0  0  0
 16 19  2  0  0  0  0
 17 21  2  0  0  0  0
 18 22  2  0  0  0  0
 18 35  1  0  0  0  0
 19 23  1  0  0  0  0
 20 25  2  0  0  0  0
 20 36  1  0  0  0  0
 21 24  1  0  0  0  0
 22 27  1  0  0  0  0
 22 28  1  0  0  0  0
 23 24  2  0  0  0  0
 23 37  1  0  0  0  0
 24 39  1  0  0  0  0
 25 29  1  0  0  0  0
 25 30  1  0  0  0  0
 26 40  1  0  0  0  0
 26 41  1  0  0  0  0
 26 42  1  0  0  0  0
 27 46  1  0  0  0  0
 27 47  1  0  0  0  0
 27 48  1  0  0  0  0
 28 43  1  0  0  0  0
 28 44  1  0  0  0  0
 28 45  1  0  0  0  0
 29 49  1  0  0  0  0
 29 53  1  0  0  0  0
 29 54  1  0  0  0  0
 30 50  1  0  0  0  0
 30 51  1  0  0  0  0
 30 52  1  0  0  0  0
M  END
>  <PUBCHEM_COMPOUND_CID>
11711264

>  <PUBCHEM_COMPOUND_CANONICALIZED>
1

>  <PUBCHEM_CACTVS_COMPLEXITY>
677

>  <PUBCHEM_CACTVS_HBOND_ACCEPTOR>
6

>  <PUBCHEM_CACTVS_HBOND_DONOR>
3

>  <PUBCHEM_CACTVS_ROTATABLE_BOND>
5

>  <PUBCHEM_CACTVS_SUBSKEYS>
AAADceB4OAAAAAAAAAAAAAAAAAAAAAAAAAA0YIAAAAAAAACRQAAAGgAACAAADASAmAIyBoAABgCIAqBSAAACCAAkIAAIiAEGiMgNJzaGNRqCeWOl4BULuQfK7PzOIQADCAAIQABCAAYQABCAAAAAAAAAAA==

>  <PUBCHEM_IUPAC_OPENEYE_NAME>
1,5,8-trihydroxy-3-methoxy-2,4-bis(3-methylbut-2-enyl)xanthen-9-one

>  <PUBCHEM_IUPAC_CAS_NAME>
1,5,8-trihydroxy-3-methoxy-2,4-bis(3-methylbut-2-enyl)-9-xanthenone

>  <PUBCHEM_IUPAC_NAME>
1,5,8-trihydroxy-3-methoxy-2,4-bis(3-methylbut-2-enyl)xanthen-9-one

>  <PUBCHEM_IUPAC_SYSTEMATIC_NAME>
3-methoxy-2,4-bis(3-methylbut-2-enyl)-1,5,8-tris(oxidanyl)xanthen-9-one

>  <PUBCHEM_IUPAC_TRADITIONAL_NAME>
1,5,8-trihydroxy-3-methoxy-2,4-bis(3-methylbut-2-enyl)xanthone

>  <PUBCHEM_IUPAC_INCHI>
InChI=1S/C24H26O6/c1-12(2)6-8-14-20(27)19-21(28)18-16(25)10-11-17(26)24(18)30-23(19)15(22(14)29-5)9-7-13(3)4/h6-7,10-11,25-27H,8-9H2,1-5H3

>  <PUBCHEM_IUPAC_INCHIKEY>
GQJMECUTIMYMNR-UHFFFAOYSA-N

>  <PUBCHEM_XLOGP3_AA>
6.3

>  <PUBCHEM_EXACT_MASS>
410.173

>  <PUBCHEM_MOLECULAR_FORMULA>
C24H26O6

>  <PUBCHEM_MOLECULAR_WEIGHT>
410.466

>  <PUBCHEM_OPENEYE_CAN_SMILES>
CC(=CCC1=C(C2=C(C(=C1OC)CC=C(C)C)OC3=C(C=CC(=C3C2=O)O)O)O)C

>  <PUBCHEM_OPENEYE_ISO_SMILES>
CC(=CCC1=C(C2=C(C(=C1OC)CC=C(C)C)OC3=C(C=CC(=C3C2=O)O)O)O)C

>  <PUBCHEM_CACTVS_TPSA>
96.2

>  <PUBCHEM_MONOISOTOPIC_WEIGHT>
410.173

>  <PUBCHEM_TOTAL_CHARGE>
0

>  <PUBCHEM_HEAVY_ATOM_COUNT>
30

>  <PUBCHEM_ATOM_DEF_STEREO_COUNT>
0

>  <PUBCHEM_ATOM_UDEF_STEREO_COUNT>
0

>  <PUBCHEM_BOND_DEF_STEREO_COUNT>
0

>  <PUBCHEM_BOND_UDEF_STEREO_COUNT>
0

>  <PUBCHEM_ISOTOPIC_ATOM_COUNT>
0

>  <PUBCHEM_COMPONENT_COUNT>
1

>  <PUBCHEM_CACTVS_TAUTO_COUNT>
43

>  <PUBCHEM_COORDINATE_TYPE>
1
5
255

>  <PUBCHEM_BONDANNOTATIONS>
1  17  8
1  8  8
10  11  8
10  12  8
15  16  8
16  17  8
16  19  8
17  21  8
19  23  8
21  24  8
23  24  8
7  11  8
7  8  8
8  9  8
9  12  8
9  15  8

$$$$
