11723995
 OpenBabel06101807152D

 36 39  0  0  0  0  0  0  0  0999 V2000
    6.9006   -2.5327    0.0000 O   0  0  0  0  0  0  0  0  0  0  0  0
   10.4728   -0.6933    0.0000 O   0  0  0  0  0  0  0  0  0  0  0  0
   10.4728   -2.3028    0.0000 O   0  0  0  0  0  0  0  0  0  0  0  0
    8.6605    0.5019    0.0000 O   0  0  0  0  0  0  0  0  0  0  0  0
    6.9121    0.5365    0.0000 O   0  0  0  0  0  0  0  0  0  0  0  0
    4.2740    2.0294    0.0000 O   0  0  0  0  0  0  0  0  0  0  0  0
    2.5381    1.0361    0.0000 O   0  0  0  0  0  0  0  0  0  0  0  0
    7.7945   -0.9981    0.0000 C   0  0  0  0  0  0  0  0  0  0  0  0
    7.7945   -1.9981    0.0000 C   0  0  0  0  0  0  0  0  0  0  0  0
    9.5266   -0.9981    0.0000 C   0  0  0  0  0  0  0  0  0  0  0  0
    8.6605   -0.4981    0.0000 C   0  0  0  0  0  0  0  0  0  0  0  0
    9.5266   -1.9981    0.0000 C   0  0  0  0  0  0  0  0  0  0  0  0
    5.9945   -0.9773    0.0000 C   0  0  0  0  0  0  0  0  0  0  0  0
    6.9006   -0.4634    0.0000 C   0  0  0  0  0  0  0  0  0  0  0  0
    8.6605   -2.4981    0.0000 C   0  0  0  0  0  0  0  0  0  0  0  0
    5.1304   -0.4739    0.0000 C   0  0  0  0  0  0  0  0  0  0  0  0
    5.9945   -2.0189    0.0000 C   0  0  0  0  0  0  0  0  0  0  0  0
   11.0564   -1.4981    0.0000 C   0  0  0  0  0  0  0  0  0  0  0  0
    5.1343    0.5261    0.0000 C   0  0  0  0  0  0  0  0  0  0  0  0
    4.2625   -0.9706    0.0000 C   0  0  0  0  0  0  0  0  0  0  0  0
    4.2702    1.0294    0.0000 C   0  0  0  0  0  0  0  0  0  0  0  0
    3.3984   -0.4672    0.0000 C   0  0  0  0  0  0  0  0  0  0  0  0
    3.4022    0.5327    0.0000 C   0  0  0  0  0  0  0  0  0  0  0  0
    3.4099    2.5327    0.0000 C   0  0  0  0  0  0  0  0  0  0  0  0
    8.6605   -3.1181    0.0000 H   0  0  0  0  0  0  0  0  0  0  0  0
    5.4588   -2.3310    0.0000 H   0  0  0  0  0  0  0  0  0  0  0  0
   11.5173   -1.9128    0.0000 H   0  0  0  0  0  0  0  0  0  0  0  0
   11.5173   -1.0833    0.0000 H   0  0  0  0  0  0  0  0  0  0  0  0
    5.6724    0.8340    0.0000 H   0  0  0  0  0  0  0  0  0  0  0  0
    4.2601   -1.5906    0.0000 H   0  0  0  0  0  0  0  0  0  0  0  0
    2.8602   -0.7752    0.0000 H   0  0  0  0  0  0  0  0  0  0  0  0
    9.1975    0.8119    0.0000 H   0  0  0  0  0  0  0  0  0  0  0  0
    2.0000    0.7282    0.0000 H   0  0  0  0  0  0  0  0  0  0  0  0
    3.7220    3.0685    0.0000 H   0  0  0  0  0  0  0  0  0  0  0  0
    2.8742    2.8448    0.0000 H   0  0  0  0  0  0  0  0  0  0  0  0
    3.0979    1.9970    0.0000 H   0  0  0  0  0  0  0  0  0  0  0  0
  1  9  1  0  0  0  0
  1 17  1  0  0  0  0
  2 10  1  0  0  0  0
  2 18  1  0  0  0  0
  3 12  1  0  0  0  0
  3 18  1  0  0  0  0
  4 11  1  0  0  0  0
  4 32  1  0  0  0  0
  5 14  2  0  0  0  0
  6 21  1  0  0  0  0
  6 24  1  0  0  0  0
  7 23  1  0  0  0  0
  7 33  1  0  0  0  0
  8  9  1  0  0  0  0
  8 11  2  0  0  0  0
  8 14  1  0  0  0  0
  9 15  2  0  0  0  0
 10 11  1  0  0  0  0
 10 12  2  0  0  0  0
 12 15  1  0  0  0  0
 13 14  1  0  0  0  0
 13 16  1  0  0  0  0
 13 17  2  0  0  0  0
 15 25  1  0  0  0  0
 16 19  2  0  0  0  0
 16 20  1  0  0  0  0
 17 26  1  0  0  0  0
 18 27  1  0  0  0  0
 18 28  1  0  0  0  0
 19 21  1  0  0  0  0
 19 29  1  0  0  0  0
 20 22  2  0  0  0  0
 20 30  1  0  0  0  0
 21 23  2  0  0  0  0
 22 23  1  0  0  0  0
 22 31  1  0  0  0  0
 24 34  1  0  0  0  0
 24 35  1  0  0  0  0
 24 36  1  0  0  0  0
M  END
>  <PUBCHEM_COMPOUND_CID>
11723995

>  <PUBCHEM_COMPOUND_CANONICALIZED>
1

>  <PUBCHEM_CACTVS_COMPLEXITY>
533

>  <PUBCHEM_CACTVS_HBOND_ACCEPTOR>
7

>  <PUBCHEM_CACTVS_HBOND_DONOR>
2

>  <PUBCHEM_CACTVS_ROTATABLE_BOND>
2

>  <PUBCHEM_CACTVS_SUBSKEYS>
AAADccB4OAAAAAAAAAAAAAAAAAAAASAAAAAwYIAAAAAAAEiBQAAAGgAACAAADASgmAMyDoAABgCIAqBSAAACCAAkIAAIiAEGiMgdJzaGNRqgcWMl4BUPuYfK7PzOIQABCAAIQABCAAIQABCAAAAAAAAAAA==

>  <PUBCHEM_IUPAC_OPENEYE_NAME>
9-hydroxy-7-(4-hydroxy-3-methoxy-phenyl)-[1,3]dioxolo[4,5-g]chromen-8-one

>  <PUBCHEM_IUPAC_CAS_NAME>
9-hydroxy-7-(4-hydroxy-3-methoxyphenyl)-[1,3]dioxolo[4,5-g][1]benzopyran-8-one

>  <PUBCHEM_IUPAC_NAME>
9-hydroxy-7-(4-hydroxy-3-methoxyphenyl)-[1,3]dioxolo[4,5-g]chromen-8-one

>  <PUBCHEM_IUPAC_SYSTEMATIC_NAME>
7-(3-methoxy-4-oxidanyl-phenyl)-9-oxidanyl-[1,3]dioxolo[4,5-g]chromen-8-one

>  <PUBCHEM_IUPAC_TRADITIONAL_NAME>
9-hydroxy-7-(4-hydroxy-3-methoxy-phenyl)-[1,3]dioxolo[4,5-g]chromen-8-one

>  <PUBCHEM_IUPAC_INCHI>
InChI=1S/C17H12O7/c1-21-11-4-8(2-3-10(11)18)9-6-22-12-5-13-17(24-7-23-13)16(20)14(12)15(9)19/h2-6,18,20H,7H2,1H3

>  <PUBCHEM_IUPAC_INCHIKEY>
XSPWJJMLMZGHNF-UHFFFAOYSA-N

>  <PUBCHEM_XLOGP3_AA>
2.8

>  <PUBCHEM_EXACT_MASS>
328.058

>  <PUBCHEM_MOLECULAR_FORMULA>
C17H12O7

>  <PUBCHEM_MOLECULAR_WEIGHT>
328.276

>  <PUBCHEM_OPENEYE_CAN_SMILES>
COC1=C(C=CC(=C1)C2=COC3=CC4=C(C(=C3C2=O)O)OCO4)O

>  <PUBCHEM_OPENEYE_ISO_SMILES>
COC1=C(C=CC(=C1)C2=COC3=CC4=C(C(=C3C2=O)O)OCO4)O

>  <PUBCHEM_CACTVS_TPSA>
94.4

>  <PUBCHEM_MONOISOTOPIC_WEIGHT>
328.058

>  <PUBCHEM_TOTAL_CHARGE>
0

>  <PUBCHEM_HEAVY_ATOM_COUNT>
24

>  <PUBCHEM_ATOM_DEF_STEREO_COUNT>
0

>  <PUBCHEM_ATOM_UDEF_STEREO_COUNT>
0

>  <PUBCHEM_BOND_DEF_STEREO_COUNT>
0

>  <PUBCHEM_BOND_UDEF_STEREO_COUNT>
0

>  <PUBCHEM_ISOTOPIC_ATOM_COUNT>
0

>  <PUBCHEM_COMPONENT_COUNT>
1

>  <PUBCHEM_CACTVS_TAUTO_COUNT>
12

>  <PUBCHEM_COORDINATE_TYPE>
1
5
255

>  <PUBCHEM_BONDANNOTATIONS>
1  17  8
1  9  8
10  11  8
10  12  8
12  15  8
13  14  8
13  17  8
16  19  8
16  20  8
19  21  8
20  22  8
21  23  8
22  23  8
8  11  8
8  14  8
8  9  8
9  15  8

$$$$
