11745794
 OpenBabel06101807152D

 25 26  0  0  0  0  0  0  0  0999 V2000
    6.0290    0.3530    0.0000 O   0  0  0  0  0  0  0  0  0  0  0  0
    2.5369    0.3877    0.0000 O   0  0  0  0  0  0  0  0  0  0  0  0
    3.4030   -2.1123    0.0000 O   0  0  0  0  0  0  0  0  0  0  0  0
    7.7991    0.3635    0.0000 O   0  0  0  0  0  0  0  0  0  0  0  0
    4.2690    0.3877    0.0000 C   0  0  0  0  0  0  0  0  0  0  0  0
    4.2690   -0.6123    0.0000 C   0  0  0  0  0  0  0  0  0  0  0  0
    5.1350    0.8877    0.0000 C   0  0  0  0  0  0  0  0  0  0  0  0
    5.1350    1.8877    0.0000 C   0  0  0  0  0  0  0  0  0  0  0  0
    3.4030    0.8877    0.0000 C   0  0  0  0  0  0  0  0  0  0  0  0
    3.4030   -1.1123    0.0000 C   0  0  0  0  0  0  0  0  0  0  0  0
    4.2690    2.3877    0.0000 C   0  0  0  0  0  0  0  0  0  0  0  0
    3.4030    1.8877    0.0000 C   0  0  0  0  0  0  0  0  0  0  0  0
    6.0290    2.4223    0.0000 C   0  0  0  0  0  0  0  0  0  0  0  0
    6.9350    1.9085    0.0000 C   0  0  0  0  0  0  0  0  0  0  0  0
    6.9350    0.8669    0.0000 C   0  0  0  0  0  0  0  0  0  0  0  0
    4.4810   -1.1949    0.0000 H   0  0  0  0  0  0  0  0  0  0  0  0
    4.8796   -0.5047    0.0000 H   0  0  0  0  0  0  0  0  0  0  0  0
    3.1909   -0.5297    0.0000 H   0  0  0  0  0  0  0  0  0  0  0  0
    2.7924   -1.2200    0.0000 H   0  0  0  0  0  0  0  0  0  0  0  0
    4.2690    3.0077    0.0000 H   0  0  0  0  0  0  0  0  0  0  0  0
    2.8660    2.1977    0.0000 H   0  0  0  0  0  0  0  0  0  0  0  0
    6.0218    3.0423    0.0000 H   0  0  0  0  0  0  0  0  0  0  0  0
    7.4708    2.2205    0.0000 H   0  0  0  0  0  0  0  0  0  0  0  0
    2.0000    0.6977    0.0000 H   0  0  0  0  0  0  0  0  0  0  0  0
    2.8660   -2.4223    0.0000 H   0  0  0  0  0  0  0  0  0  0  0  0
  1  7  1  0  0  0  0
  1 15  1  0  0  0  0
  2  9  1  0  0  0  0
  2 24  1  0  0  0  0
  3 10  1  0  0  0  0
  3 25  1  0  0  0  0
  4 15  2  0  0  0  0
  5  6  1  0  0  0  0
  5  7  1  0  0  0  0
  5  9  2  0  0  0  0
  6 10  1  0  0  0  0
  6 16  1  0  0  0  0
  6 17  1  0  0  0  0
  7  8  2  0  0  0  0
  8 11  1  0  0  0  0
  8 13  1  0  0  0  0
  9 12  1  0  0  0  0
 10 18  1  0  0  0  0
 10 19  1  0  0  0  0
 11 12  2  0  0  0  0
 11 20  1  0  0  0  0
 12 21  1  0  0  0  0
 13 14  2  0  0  0  0
 13 22  1  0  0  0  0
 14 15  1  0  0  0  0
 14 23  1  0  0  0  0
M  END
>  <PUBCHEM_COMPOUND_CID>
11745794

>  <PUBCHEM_COMPOUND_CANONICALIZED>
1

>  <PUBCHEM_CACTVS_COMPLEXITY>
274

>  <PUBCHEM_CACTVS_HBOND_ACCEPTOR>
4

>  <PUBCHEM_CACTVS_HBOND_DONOR>
2

>  <PUBCHEM_CACTVS_ROTATABLE_BOND>
2

>  <PUBCHEM_CACTVS_SUBSKEYS>
AAADccBwOAAAAAAAAAAAAAAAAAAAAAAAAAAwQAAAAAAAAACBAAAAGgAACAAADASgmAIwDoAABgCIAiDSCAACCAAgIAAIiAAGCMgMNyKGMRqCeiClwBUIuYfA4PwOIAACCAAIAABAAAQQABAAAAAAAAAAAA==

>  <PUBCHEM_IUPAC_OPENEYE_NAME>
7-hydroxy-8-(2-hydroxyethyl)chromen-2-one

>  <PUBCHEM_IUPAC_CAS_NAME>
7-hydroxy-8-(2-hydroxyethyl)-1-benzopyran-2-one

>  <PUBCHEM_IUPAC_NAME>
7-hydroxy-8-(2-hydroxyethyl)chromen-2-one

>  <PUBCHEM_IUPAC_SYSTEMATIC_NAME>
8-(2-hydroxyethyl)-7-oxidanyl-chromen-2-one

>  <PUBCHEM_IUPAC_TRADITIONAL_NAME>
7-hydroxy-8-(2-hydroxyethyl)coumarin

>  <PUBCHEM_IUPAC_INCHI>
InChI=1S/C11H10O4/c12-6-5-8-9(13)3-1-7-2-4-10(14)15-11(7)8/h1-4,12-13H,5-6H2

>  <PUBCHEM_IUPAC_INCHIKEY>
SWKJRSKBKHLXMA-UHFFFAOYSA-N

>  <PUBCHEM_XLOGP3_AA>
1.1

>  <PUBCHEM_EXACT_MASS>
206.058

>  <PUBCHEM_MOLECULAR_FORMULA>
C11H10O4

>  <PUBCHEM_MOLECULAR_WEIGHT>
206.197

>  <PUBCHEM_OPENEYE_CAN_SMILES>
C1=CC(=C(C2=C1C=CC(=O)O2)CCO)O

>  <PUBCHEM_OPENEYE_ISO_SMILES>
C1=CC(=C(C2=C1C=CC(=O)O2)CCO)O

>  <PUBCHEM_CACTVS_TPSA>
66.8

>  <PUBCHEM_MONOISOTOPIC_WEIGHT>
206.058

>  <PUBCHEM_TOTAL_CHARGE>
0

>  <PUBCHEM_HEAVY_ATOM_COUNT>
15

>  <PUBCHEM_ATOM_DEF_STEREO_COUNT>
0

>  <PUBCHEM_ATOM_UDEF_STEREO_COUNT>
0

>  <PUBCHEM_BOND_DEF_STEREO_COUNT>
0

>  <PUBCHEM_BOND_UDEF_STEREO_COUNT>
0

>  <PUBCHEM_ISOTOPIC_ATOM_COUNT>
0

>  <PUBCHEM_COMPONENT_COUNT>
1

>  <PUBCHEM_CACTVS_TAUTO_COUNT>
5

>  <PUBCHEM_COORDINATE_TYPE>
1
5
255

>  <PUBCHEM_BONDANNOTATIONS>
1  15  8
1  7  8
11  12  8
13  14  8
14  15  8
5  7  8
5  9  8
7  8  8
8  11  8
8  13  8
9  12  8

$$$$
