11759486
 OpenBabel06101807152D

 45 47  0  0  0  0  0  0  0  0999 V2000
    7.2241    0.5603    0.0000 O   0  0  0  0  0  0  0  0  0  0  0  0
    3.7320    0.5950    0.0000 O   0  0  0  0  0  0  0  0  0  0  0  0
    5.4641    3.5950    0.0000 O   0  0  0  0  0  0  0  0  0  0  0  0
    6.3301   -0.9050    0.0000 O   0  0  0  0  0  0  0  0  0  0  0  0
    8.1301    1.0742    0.0000 C   0  0  0  0  0  0  0  0  0  0  0  0
    6.3301    1.0950    0.0000 C   0  0  0  0  0  0  0  0  0  0  0  0
    8.1301    2.1158    0.0000 C   0  0  0  0  0  0  0  0  0  0  0  0
    6.3301    2.0950    0.0000 C   0  0  0  0  0  0  0  0  0  0  0  0
    9.1301    1.0703    0.0000 C   0  0  0  0  0  0  0  0  0  0  0  0
    8.6268    0.2062    0.0000 C   0  0  0  0  0  0  0  0  0  0  0  0
    7.2241    2.6297    0.0000 C   0  0  0  0  0  0  0  0  0  0  0  0
    5.4641    0.5950    0.0000 C   0  0  0  0  0  0  0  0  0  0  0  0
    5.4641    2.5950    0.0000 C   0  0  0  0  0  0  0  0  0  0  0  0
    4.5981    1.0950    0.0000 C   0  0  0  0  0  0  0  0  0  0  0  0
    4.5981    2.0950    0.0000 C   0  0  0  0  0  0  0  0  0  0  0  0
    5.4641   -0.4050    0.0000 C   0  0  0  0  0  0  0  0  0  0  0  0
    4.5981   -0.9050    0.0000 C   0  0  0  0  0  0  0  0  0  0  0  0
    4.5981   -1.9050    0.0000 C   0  0  0  0  0  0  0  0  0  0  0  0
    2.8660    1.0950    0.0000 C   0  0  0  0  0  0  0  0  0  0  0  0
    3.7320   -2.4050    0.0000 C   0  0  0  0  0  0  0  0  0  0  0  0
    2.8660   -1.9050    0.0000 C   0  0  0  0  0  0  0  0  0  0  0  0
    3.7320   -3.4050    0.0000 C   0  0  0  0  0  0  0  0  0  0  0  0
    2.0000   -2.4050    0.0000 C   0  0  0  0  0  0  0  0  0  0  0  0
    2.8660   -3.9050    0.0000 C   0  0  0  0  0  0  0  0  0  0  0  0
    2.0000   -3.4050    0.0000 C   0  0  0  0  0  0  0  0  0  0  0  0
    8.6659    2.4279    0.0000 H   0  0  0  0  0  0  0  0  0  0  0  0
    8.0887   -0.1017    0.0000 H   0  0  0  0  0  0  0  0  0  0  0  0
    8.9347   -0.3319    0.0000 H   0  0  0  0  0  0  0  0  0  0  0  0
    9.1649    0.5142    0.0000 H   0  0  0  0  0  0  0  0  0  0  0  0
    9.1277    0.4503    0.0000 H   0  0  0  0  0  0  0  0  0  0  0  0
    9.7501    1.0679    0.0000 H   0  0  0  0  0  0  0  0  0  0  0  0
    9.1325    1.6903    0.0000 H   0  0  0  0  0  0  0  0  0  0  0  0
    7.2169    3.2496    0.0000 H   0  0  0  0  0  0  0  0  0  0  0  0
    4.0611    2.4050    0.0000 H   0  0  0  0  0  0  0  0  0  0  0  0
    4.0611   -0.5950    0.0000 H   0  0  0  0  0  0  0  0  0  0  0  0
    4.9272    3.9050    0.0000 H   0  0  0  0  0  0  0  0  0  0  0  0
    5.1350   -2.2150    0.0000 H   0  0  0  0  0  0  0  0  0  0  0  0
    3.1760    1.6319    0.0000 H   0  0  0  0  0  0  0  0  0  0  0  0
    2.3291    1.4050    0.0000 H   0  0  0  0  0  0  0  0  0  0  0  0
    2.5560    0.5581    0.0000 H   0  0  0  0  0  0  0  0  0  0  0  0
    2.8660   -1.2850    0.0000 H   0  0  0  0  0  0  0  0  0  0  0  0
    4.2690   -3.7150    0.0000 H   0  0  0  0  0  0  0  0  0  0  0  0
    1.4631   -2.0950    0.0000 H   0  0  0  0  0  0  0  0  0  0  0  0
    2.8660   -4.5250    0.0000 H   0  0  0  0  0  0  0  0  0  0  0  0
    1.4631   -3.7150    0.0000 H   0  0  0  0  0  0  0  0  0  0  0  0
  1  5  1  0  0  0  0
  1  6  1  0  0  0  0
  2 14  1  0  0  0  0
  2 19  1  0  0  0  0
  3 13  1  0  0  0  0
  3 36  1  0  0  0  0
  4 16  2  0  0  0  0
  5  7  1  0  0  0  0
  5  9  1  0  0  0  0
  5 10  1  0  0  0  0
  6  8  2  0  0  0  0
  6 12  1  0  0  0  0
  7 11  2  0  0  0  0
  7 26  1  0  0  0  0
  8 11  1  0  0  0  0
  8 13  1  0  0  0  0
  9 30  1  0  0  0  0
  9 31  1  0  0  0  0
  9 32  1  0  0  0  0
 10 27  1  0  0  0  0
 10 28  1  0  0  0  0
 10 29  1  0  0  0  0
 11 33  1  0  0  0  0
 12 14  2  0  0  0  0
 12 16  1  0  0  0  0
 13 15  2  0  0  0  0
 14 15  1  0  0  0  0
 15 34  1  0  0  0  0
 16 17  1  0  0  0  0
 17 18  2  0  0  0  0
 17 35  1  0  0  0  0
 18 20  1  0  0  0  0
 18 37  1  0  0  0  0
 19 38  1  0  0  0  0
 19 39  1  0  0  0  0
 19 40  1  0  0  0  0
 20 21  2  0  0  0  0
 20 22  1  0  0  0  0
 21 23  1  0  0  0  0
 21 41  1  0  0  0  0
 22 24  2  0  0  0  0
 22 42  1  0  0  0  0
 23 25  2  0  0  0  0
 23 43  1  0  0  0  0
 24 25  1  0  0  0  0
 24 44  1  0  0  0  0
 25 45  1  0  0  0  0
M  END
>  <PUBCHEM_COMPOUND_CID>
11759486

>  <PUBCHEM_COMPOUND_CANONICALIZED>
1

>  <PUBCHEM_CACTVS_COMPLEXITY>
530

>  <PUBCHEM_CACTVS_HBOND_ACCEPTOR>
4

>  <PUBCHEM_CACTVS_HBOND_DONOR>
1

>  <PUBCHEM_CACTVS_ROTATABLE_BOND>
4

>  <PUBCHEM_CACTVS_SUBSKEYS>
AAADceB4OAAAAAAAAAAAAAAAAAAAAAAAAAAwYIAAAAAAAACBQAAAGgAACAAADESAmAIyBoAABgCIAqBSAAACCAAkIAAIiAEGCMgMJzaGNRqCeWCl4BUIuYeI7OzOIAACCAAIAABAAAQQABAAAAAAAAAAAA==

>  <PUBCHEM_IUPAC_OPENEYE_NAME>
(E)-1-(5-hydroxy-7-methoxy-2,2-dimethyl-chromen-8-yl)-3-phenyl-prop-2-en-1-one

>  <PUBCHEM_IUPAC_CAS_NAME>
(E)-1-(5-hydroxy-7-methoxy-2,2-dimethyl-1-benzopyran-8-yl)-3-phenyl-2-propen-1-one

>  <PUBCHEM_IUPAC_NAME>
(E)-1-(5-hydroxy-7-methoxy-2,2-dimethylchromen-8-yl)-3-phenylprop-2-en-1-one

>  <PUBCHEM_IUPAC_SYSTEMATIC_NAME>
(E)-1-(7-methoxy-2,2-dimethyl-5-oxidanyl-chromen-8-yl)-3-phenyl-prop-2-en-1-one

>  <PUBCHEM_IUPAC_TRADITIONAL_NAME>
(E)-1-(5-hydroxy-7-methoxy-2,2-dimethyl-chromen-8-yl)-3-phenyl-prop-2-en-1-one

>  <PUBCHEM_IUPAC_INCHI>
InChI=1S/C21H20O4/c1-21(2)12-11-15-17(23)13-18(24-3)19(20(15)25-21)16(22)10-9-14-7-5-4-6-8-14/h4-13,23H,1-3H3/b10-9+

>  <PUBCHEM_IUPAC_INCHIKEY>
SFTIQDFUHUUCIC-MDZDMXLPSA-N

>  <PUBCHEM_XLOGP3_AA>
4.2

>  <PUBCHEM_EXACT_MASS>
336.136

>  <PUBCHEM_MOLECULAR_FORMULA>
C21H20O4

>  <PUBCHEM_MOLECULAR_WEIGHT>
336.387

>  <PUBCHEM_OPENEYE_CAN_SMILES>
CC1(C=CC2=C(O1)C(=C(C=C2O)OC)C(=O)C=CC3=CC=CC=C3)C

>  <PUBCHEM_OPENEYE_ISO_SMILES>
CC1(C=CC2=C(O1)C(=C(C=C2O)OC)C(=O)/C=C/C3=CC=CC=C3)C

>  <PUBCHEM_CACTVS_TPSA>
55.8

>  <PUBCHEM_MONOISOTOPIC_WEIGHT>
336.136

>  <PUBCHEM_TOTAL_CHARGE>
0

>  <PUBCHEM_HEAVY_ATOM_COUNT>
25

>  <PUBCHEM_ATOM_DEF_STEREO_COUNT>
0

>  <PUBCHEM_ATOM_UDEF_STEREO_COUNT>
0

>  <PUBCHEM_BOND_DEF_STEREO_COUNT>
1

>  <PUBCHEM_BOND_UDEF_STEREO_COUNT>
0

>  <PUBCHEM_ISOTOPIC_ATOM_COUNT>
0

>  <PUBCHEM_COMPONENT_COUNT>
1

>  <PUBCHEM_CACTVS_TAUTO_COUNT>
6

>  <PUBCHEM_COORDINATE_TYPE>
1
5
255

>  <PUBCHEM_BONDANNOTATIONS>
12  14  8
13  15  8
14  15  8
20  21  8
20  22  8
21  23  8
22  24  8
23  25  8
24  25  8
6  12  8
6  8  8
8  13  8

$$$$
