11765414
 OpenBabel06101807152D

 82 86  0  0  1  0  0  0  0  0999 V2000
    9.4651   -1.7500    0.0000 O   0  0  0  0  0  0  0  0  0  0  0  0
    6.8671    2.7500    0.0000 O   0  0  0  0  0  0  0  0  0  0  0  0
   10.3475   -1.2846    0.0000 O   0  0  0  0  0  0  0  0  0  0  0  0
    7.7331   -1.7500    0.0000 O   0  0  0  0  0  0  0  0  0  0  0  0
   12.1292   -0.2742    0.0000 O   0  0  0  0  0  0  0  0  0  0  0  0
    6.0010    1.2500    0.0000 O   0  0  0  0  0  0  0  0  0  0  0  0
    4.2690    0.2500    0.0000 O   0  0  0  0  0  0  0  0  0  0  0  0
    4.2690   -1.7500    0.0000 O   0  0  0  0  0  0  0  0  0  0  0  0
    8.5991   -4.2500    0.0000 O   0  0  0  0  0  0  0  0  0  0  0  0
    7.7331   -2.7500    0.0000 O   0  0  0  0  0  0  0  0  0  0  0  0
    4.2690    3.2500    0.0000 O   0  0  0  0  0  0  0  0  0  0  0  0
    5.1350    1.7500    0.0000 O   0  0  0  0  0  0  0  0  0  0  0  0
    8.5991   -6.2500    0.0000 O   0  0  0  0  0  0  0  0  0  0  0  0
   10.3312   -7.2500    0.0000 O   0  0  0  0  0  0  0  0  0  0  0  0
    4.2690    7.2500    0.0000 O   0  0  0  0  0  0  0  0  0  0  0  0
    2.5369    6.2500    0.0000 O   0  0  0  0  0  0  0  0  0  0  0  0
    7.7331    0.2500    0.0000 C   0  0  3  0  0  0  0  0  0  0  0  0
    8.5991   -0.2500    0.0000 C   0  0  3  0  0  0  0  0  0  0  0  0
    9.4651    0.2500    0.0000 C   0  0  0  0  0  0  0  0  0  0  0  0
    7.7331    1.2500    0.0000 C   0  0  0  0  0  0  0  0  0  0  0  0
    9.4651    1.2500    0.0000 C   0  0  0  0  0  0  0  0  0  0  0  0
    6.8671   -0.2500    0.0000 C   0  0  0  0  0  0  0  0  0  0  0  0
    8.5991    1.7500    0.0000 C   0  0  0  0  0  0  0  0  0  0  0  0
    8.5991   -1.2500    0.0000 C   0  0  0  0  0  0  0  0  0  0  0  0
   10.3591   -0.2847    0.0000 C   0  0  0  0  0  0  0  0  0  0  0  0
   10.3591    1.7847    0.0000 C   0  0  0  0  0  0  0  0  0  0  0  0
    6.8671    1.7500    0.0000 C   0  0  0  0  0  0  0  0  0  0  0  0
    6.0010    0.2500    0.0000 C   0  0  0  0  0  0  0  0  0  0  0  0
    6.8671   -1.2500    0.0000 C   0  0  0  0  0  0  0  0  0  0  0  0
   11.2651    0.2292    0.0000 C   0  0  0  0  0  0  0  0  0  0  0  0
   11.2651    1.2708    0.0000 C   0  0  0  0  0  0  0  0  0  0  0  0
    9.4651   -2.7500    0.0000 C   0  0  3  0  0  0  0  0  0  0  0  0
    5.1350   -0.2500    0.0000 C   0  0  0  0  0  0  0  0  0  0  0  0
    6.0010   -1.7500    0.0000 C   0  0  0  0  0  0  0  0  0  0  0  0
    5.1350   -1.2500    0.0000 C   0  0  0  0  0  0  0  0  0  0  0  0
   10.3312   -3.2500    0.0000 C   0  0  0  0  0  0  0  0  0  0  0  0
    6.0010    3.2500    0.0000 C   0  0  3  0  0  0  0  0  0  0  0  0
    6.0010    4.2500    0.0000 C   0  0  0  0  0  0  0  0  0  0  0  0
    8.5991   -3.2500    0.0000 C   0  0  0  0  0  0  0  0  0  0  0  0
   10.3312   -4.2500    0.0000 C   0  0  0  0  0  0  0  0  0  0  0  0
    5.1350    4.7500    0.0000 C   0  0  0  0  0  0  0  0  0  0  0  0
    5.1350    2.7500    0.0000 C   0  0  0  0  0  0  0  0  0  0  0  0
    9.4651   -4.7500    0.0000 C   0  0  0  0  0  0  0  0  0  0  0  0
   11.1972   -4.7500    0.0000 C   0  0  0  0  0  0  0  0  0  0  0  0
    5.1350    5.7500    0.0000 C   0  0  0  0  0  0  0  0  0  0  0  0
    4.2690    4.2500    0.0000 C   0  0  0  0  0  0  0  0  0  0  0  0
    9.4651   -5.7500    0.0000 C   0  0  0  0  0  0  0  0  0  0  0  0
   11.1972   -5.7500    0.0000 C   0  0  0  0  0  0  0  0  0  0  0  0
   10.3312   -6.2500    0.0000 C   0  0  0  0  0  0  0  0  0  0  0  0
    4.2690    6.2500    0.0000 C   0  0  0  0  0  0  0  0  0  0  0  0
    3.4030    4.7500    0.0000 C   0  0  0  0  0  0  0  0  0  0  0  0
    3.4030    5.7500    0.0000 C   0  0  0  0  0  0  0  0  0  0  0  0
    7.7331   -0.6000    0.0000 H   0  0  0  0  0  0  0  0  0  0  0  0
    9.3352   -0.6750    0.0000 H   0  0  0  0  0  0  0  0  0  0  0  0
    8.5991    2.3700    0.0000 H   0  0  0  0  0  0  0  0  0  0  0  0
   10.3519    2.4046    0.0000 H   0  0  0  0  0  0  0  0  0  0  0  0
    6.0010    0.8700    0.0000 H   0  0  0  0  0  0  0  0  0  0  0  0
    7.4040   -1.5600    0.0000 H   0  0  0  0  0  0  0  0  0  0  0  0
   11.8009    1.5829    0.0000 H   0  0  0  0  0  0  0  0  0  0  0  0
   10.2013   -2.3250    0.0000 H   0  0  0  0  0  0  0  0  0  0  0  0
    6.0010   -2.3700    0.0000 H   0  0  0  0  0  0  0  0  0  0  0  0
    6.7372    3.6750    0.0000 H   0  0  0  0  0  0  0  0  0  0  0  0
   10.9417   -3.3577    0.0000 H   0  0  0  0  0  0  0  0  0  0  0  0
   10.5432   -2.6674    0.0000 H   0  0  0  0  0  0  0  0  0  0  0  0
   10.8808   -1.6008    0.0000 H   0  0  0  0  0  0  0  0  0  0  0  0
    6.6116    4.1423    0.0000 H   0  0  0  0  0  0  0  0  0  0  0  0
    6.2131    4.8326    0.0000 H   0  0  0  0  0  0  0  0  0  0  0  0
   12.6674    0.0338    0.0000 H   0  0  0  0  0  0  0  0  0  0  0  0
    3.7320   -0.0600    0.0000 H   0  0  0  0  0  0  0  0  0  0  0  0
    4.2690   -2.3700    0.0000 H   0  0  0  0  0  0  0  0  0  0  0  0
    8.9282   -4.4400    0.0000 H   0  0  0  0  0  0  0  0  0  0  0  0
   11.7341   -4.4400    0.0000 H   0  0  0  0  0  0  0  0  0  0  0  0
    5.6720    6.0600    0.0000 H   0  0  0  0  0  0  0  0  0  0  0  0
    4.2690    3.6300    0.0000 H   0  0  0  0  0  0  0  0  0  0  0  0
    8.0622   -4.5600    0.0000 H   0  0  0  0  0  0  0  0  0  0  0  0
   11.7341   -6.0600    0.0000 H   0  0  0  0  0  0  0  0  0  0  0  0
    2.8660    4.4400    0.0000 H   0  0  0  0  0  0  0  0  0  0  0  0
    3.7320    2.9400    0.0000 H   0  0  0  0  0  0  0  0  0  0  0  0
    8.5991   -6.8700    0.0000 H   0  0  0  0  0  0  0  0  0  0  0  0
   10.8681   -7.5600    0.0000 H   0  0  0  0  0  0  0  0  0  0  0  0
    4.8059    7.5600    0.0000 H   0  0  0  0  0  0  0  0  0  0  0  0
    2.0000    5.9400    0.0000 H   0  0  0  0  0  0  0  0  0  0  0  0
  1 24  1  0  0  0  0
  1 32  1  0  0  0  0
  2 27  1  0  0  0  0
  2 37  1  0  0  0  0
  3 25  1  0  0  0  0
  3 65  1  0  0  0  0
  4 24  2  0  0  0  0
  5 30  1  0  0  0  0
  5 68  1  0  0  0  0
  6 27  2  0  0  0  0
  7 33  1  0  0  0  0
  7 69  1  0  0  0  0
  8 35  1  0  0  0  0
  8 70  1  0  0  0  0
  9 39  1  0  0  0  0
  9 75  1  0  0  0  0
 10 39  2  0  0  0  0
 11 42  1  0  0  0  0
 11 78  1  0  0  0  0
 12 42  2  0  0  0  0
 13 47  1  0  0  0  0
 13 79  1  0  0  0  0
 14 49  1  0  0  0  0
 14 80  1  0  0  0  0
 15 50  1  0  0  0  0
 15 81  1  0  0  0  0
 16 52  1  0  0  0  0
 16 82  1  0  0  0  0
 17 18  1  0  0  0  0
 17 20  1  0  0  0  0
 17 22  1  0  0  0  0
 17 53  1  0  0  0  0
 18 19  1  0  0  0  0
 18 24  1  0  0  0  0
 18 54  1  0  0  0  0
 19 21  2  0  0  0  0
 19 25  1  0  0  0  0
 20 23  2  0  0  0  0
 20 27  1  0  0  0  0
 21 23  1  0  0  0  0
 21 26  1  0  0  0  0
 22 28  2  0  0  0  0
 22 29  1  0  0  0  0
 23 55  1  0  0  0  0
 25 30  2  0  0  0  0
 26 31  2  0  0  0  0
 26 56  1  0  0  0  0
 28 33  1  0  0  0  0
 28 57  1  0  0  0  0
 29 34  2  0  0  0  0
 29 58  1  0  0  0  0
 30 31  1  0  0  0  0
 31 59  1  0  0  0  0
 32 36  1  0  0  0  0
 32 39  1  0  0  0  0
 32 60  1  0  0  0  0
 33 35  2  0  0  0  0
 34 35  1  0  0  0  0
 34 61  1  0  0  0  0
 36 40  1  0  0  0  0
 36 63  1  0  0  0  0
 36 64  1  0  0  0  0
 37 38  1  0  0  0  0
 37 42  1  0  0  0  0
 37 62  1  0  0  0  0
 38 41  1  0  0  0  0
 38 66  1  0  0  0  0
 38 67  1  0  0  0  0
 40 43  2  0  0  0  0
 40 44  1  0  0  0  0
 41 45  2  0  0  0  0
 41 46  1  0  0  0  0
 43 47  1  0  0  0  0
 43 71  1  0  0  0  0
 44 48  2  0  0  0  0
 44 72  1  0  0  0  0
 45 50  1  0  0  0  0
 45 73  1  0  0  0  0
 46 51  2  0  0  0  0
 46 74  1  0  0  0  0
 47 49  2  0  0  0  0
 48 49  1  0  0  0  0
 48 76  1  0  0  0  0
 50 52  2  0  0  0  0
 51 52  1  0  0  0  0
 51 77  1  0  0  0  0
M  END
>  <PUBCHEM_COMPOUND_CID>
11765414

>  <PUBCHEM_COMPOUND_CANONICALIZED>
1

>  <PUBCHEM_CACTVS_COMPLEXITY>
1320

>  <PUBCHEM_CACTVS_HBOND_ACCEPTOR>
16

>  <PUBCHEM_CACTVS_HBOND_DONOR>
10

>  <PUBCHEM_CACTVS_ROTATABLE_BOND>
13

>  <PUBCHEM_CACTVS_SUBSKEYS>
AAADceB8PgAAAAAAAAAAAAAAAAAAAAAAAAAwYMGCAAAAAACBVAAAGgAACAAADRSgmAIwDoAABgCIAiDSCAICAAAgIAAIiAFGiMgJJjKCNRaCcAEkwBELuYfK7vzOoAABAAAYQABAAAIAADCAAAAAAAAAAA==

>  <PUBCHEM_IUPAC_OPENEYE_NAME>
2-[3-[1-carboxy-2-(3,4-dihydroxyphenyl)ethoxy]carbonyl-2-(3,4-dihydroxyphenyl)-7,8-dihydroxy-1,2-dihydronaphthalene-1-carbonyl]oxy-3-(3,4-dihydroxyphenyl)propanoic acid

>  <PUBCHEM_IUPAC_CAS_NAME>
2-[[3-[[1-carboxy-2-(3,4-dihydroxyphenyl)ethoxy]-oxomethyl]-2-(3,4-dihydroxyphenyl)-7,8-dihydroxy-1,2-dihydronaphthalen-1-yl]-oxomethoxy]-3-(3,4-dihydroxyphenyl)propanoic acid

>  <PUBCHEM_IUPAC_NAME>
2-[3-[1-carboxy-2-(3,4-dihydroxyphenyl)ethoxy]carbonyl-2-(3,4-dihydroxyphenyl)-7,8-dihydroxy-1,2-dihydronaphthalene-1-carbonyl]oxy-3-(3,4-dihydroxyphenyl)propanoic acid

>  <PUBCHEM_IUPAC_SYSTEMATIC_NAME>
3-[3,4-bis(oxidanyl)phenyl]-2-[[2-[3,4-bis(oxidanyl)phenyl]-3-[3-[3,4-bis(oxidanyl)phenyl]-1-oxidanyl-1-oxidanylidene-propan-2-yl]oxycarbonyl-7,8-bis(oxidanyl)-1,2-dihydronaphthalen-1-yl]carbonyloxy]propanoic acid

>  <PUBCHEM_IUPAC_TRADITIONAL_NAME>
2-[3-[1-carboxy-2-(3,4-dihydroxyphenyl)ethoxy]carbonyl-2-(3,4-dihydroxyphenyl)-7,8-dihydroxy-1,2-dihydronaphthalene-1-carbonyl]oxy-3-(3,4-dihydroxyphenyl)propionic acid

>  <PUBCHEM_IUPAC_INCHI>
InChI=1S/C36H30O16/c37-20-5-1-15(9-24(20)41)11-27(33(45)46)51-35(49)19-13-17-4-8-23(40)32(44)30(17)31(29(19)18-3-7-22(39)26(43)14-18)36(50)52-28(34(47)48)12-16-2-6-21(38)25(42)10-16/h1-10,13-14,27-29,31,37-44H,11-12H2,(H,45,46)(H,47,48)

>  <PUBCHEM_IUPAC_INCHIKEY>
CLZDRNKNWXDFQT-UHFFFAOYSA-N

>  <PUBCHEM_XLOGP3_AA>
3.9

>  <PUBCHEM_EXACT_MASS>
718.153

>  <PUBCHEM_MOLECULAR_FORMULA>
C36H30O16

>  <PUBCHEM_MOLECULAR_WEIGHT>
718.62

>  <PUBCHEM_OPENEYE_CAN_SMILES>
C1=CC(=C(C=C1CC(C(=O)O)OC(=O)C2C(C(=CC3=C2C(=C(C=C3)O)O)C(=O)OC(CC4=CC(=C(C=C4)O)O)C(=O)O)C5=CC(=C(C=C5)O)O)O)O

>  <PUBCHEM_OPENEYE_ISO_SMILES>
C1=CC(=C(C=C1CC(C(=O)O)OC(=O)C2C(C(=CC3=C2C(=C(C=C3)O)O)C(=O)OC(CC4=CC(=C(C=C4)O)O)C(=O)O)C5=CC(=C(C=C5)O)O)O)O

>  <PUBCHEM_CACTVS_TPSA>
289

>  <PUBCHEM_MONOISOTOPIC_WEIGHT>
718.153

>  <PUBCHEM_TOTAL_CHARGE>
0

>  <PUBCHEM_HEAVY_ATOM_COUNT>
52

>  <PUBCHEM_ATOM_DEF_STEREO_COUNT>
0

>  <PUBCHEM_ATOM_UDEF_STEREO_COUNT>
4

>  <PUBCHEM_BOND_DEF_STEREO_COUNT>
0

>  <PUBCHEM_BOND_UDEF_STEREO_COUNT>
0

>  <PUBCHEM_ISOTOPIC_ATOM_COUNT>
0

>  <PUBCHEM_COMPONENT_COUNT>
1

>  <PUBCHEM_CACTVS_TAUTO_COUNT>
986

>  <PUBCHEM_COORDINATE_TYPE>
1
5
255

>  <PUBCHEM_BONDANNOTATIONS>
17  53  3
18  54  3
19  21  8
19  25  8
21  26  8
22  28  8
22  29  8
25  30  8
26  31  8
28  33  8
29  34  8
30  31  8
32  60  3
33  35  8
34  35  8
37  62  3
40  43  8
40  44  8
41  45  8
41  46  8
43  47  8
44  48  8
45  50  8
46  51  8
47  49  8
48  49  8
50  52  8
51  52  8

$$$$
