117842555
 OpenBabel06101807152D

 69 69  0  0  1  0  0  0  0  0999 V2000
   10.3312   -1.7500    0.0000 S   0  0  0  0  0  0  0  0  0  0  0  0
   11.1972    1.7500    0.0000 O   0  0  0  0  0  0  0  0  0  0  0  0
   12.0632    1.2500    0.0000 O   0  0  0  0  0  0  0  0  0  0  0  0
    7.7331    4.7500    0.0000 O   0  0  0  0  0  0  0  0  0  0  0  0
    9.4651    4.7500    0.0000 O   0  0  0  0  0  0  0  0  0  0  0  0
   12.0632   -2.7500    0.0000 O   0  0  0  0  0  0  0  0  0  0  0  0
    6.0010   -3.2500    0.0000 O   0  0  0  0  0  0  0  0  0  0  0  0
   12.0632   -4.7500    0.0000 O   0  0  0  0  0  0  0  0  0  0  0  0
    4.2690   -4.2500    0.0000 O   0  0  0  0  0  0  0  0  0  0  0  0
   15.5273    0.2500    0.0000 O   0  0  0  0  0  0  0  0  0  0  0  0
   14.6613   -1.2500    0.0000 O   0  0  0  0  0  0  0  0  0  0  0  0
    4.2690   -1.2500    0.0000 O   0  0  0  0  0  0  0  0  0  0  0  0
    6.8671   -1.7500    0.0000 O   0  0  0  0  0  0  0  0  0  0  0  0
    2.5369   -3.2500    0.0000 O   0  0  0  0  0  0  0  0  0  0  0  0
    6.0010   -1.2500    0.0000 O   0  0  0  0  0  0  0  0  0  0  0  0
    3.4030   -1.7500    0.0000 O   0  0  0  0  0  0  0  0  0  0  0  0
   10.3312    0.2500    0.0000 N   0  0  0  0  0  0  0  0  0  0  0  0
   12.9292   -0.2500    0.0000 N   0  0  0  0  0  0  0  0  0  0  0  0
    7.7331    2.7500    0.0000 N   0  0  0  0  0  0  0  0  0  0  0  0
   11.1972   -0.2500    0.0000 C   0  0  3  0  0  0  0  0  0  0  0  0
    9.4651    2.7500    0.0000 C   0  0  0  0  0  0  0  0  0  0  0  0
    9.4651    1.7500    0.0000 C   0  0  0  0  0  0  0  0  0  0  0  0
   11.1972   -1.2500    0.0000 C   0  0  0  0  0  0  0  0  0  0  0  0
    8.5991    3.2500    0.0000 C   0  0  3  0  0  0  0  0  0  0  0  0
   10.3312    1.2500    0.0000 C   0  0  0  0  0  0  0  0  0  0  0  0
   12.0632    0.2500    0.0000 C   0  0  0  0  0  0  0  0  0  0  0  0
   10.3312   -2.7500    0.0000 C   0  0  0  0  0  0  0  0  0  0  0  0
    8.5991    4.2500    0.0000 C   0  0  0  0  0  0  0  0  0  0  0  0
    9.4651   -3.2500    0.0000 C   0  0  0  0  0  0  0  0  0  0  0  0
   11.1972   -3.2500    0.0000 C   0  0  0  0  0  0  0  0  0  0  0  0
   13.7953    0.2500    0.0000 C   0  0  0  0  0  0  0  0  0  0  0  0
    9.4651   -4.2500    0.0000 C   0  0  0  0  0  0  0  0  0  0  0  0
   11.1972   -4.2500    0.0000 C   0  0  0  0  0  0  0  0  0  0  0  0
    8.5991   -2.7500    0.0000 C   0  0  0  0  0  0  0  0  0  0  0  0
   10.3312   -4.7500    0.0000 C   0  0  0  0  0  0  0  0  0  0  0  0
    5.1350   -2.7500    0.0000 C   0  0  3  0  0  0  0  0  0  0  0  0
    4.2690   -3.2500    0.0000 C   0  0  3  0  0  0  0  0  0  0  0  0
    7.7331   -3.2500    0.0000 C   0  0  0  0  0  0  0  0  0  0  0  0
   14.6613   -0.2500    0.0000 C   0  0  0  0  0  0  0  0  0  0  0  0
    6.8671   -2.7500    0.0000 C   0  0  0  0  0  0  0  0  0  0  0  0
    5.1350   -1.7500    0.0000 C   0  0  0  0  0  0  0  0  0  0  0  0
    3.4030   -2.7500    0.0000 C   0  0  0  0  0  0  0  0  0  0  0  0
   10.6603   -0.5600    0.0000 H   0  0  0  0  0  0  0  0  0  0  0  0
   10.0757    2.6423    0.0000 H   0  0  0  0  0  0  0  0  0  0  0  0
    9.6772    3.3326    0.0000 H   0  0  0  0  0  0  0  0  0  0  0  0
    8.8546    1.8577    0.0000 H   0  0  0  0  0  0  0  0  0  0  0  0
    9.2531    1.1674    0.0000 H   0  0  0  0  0  0  0  0  0  0  0  0
   11.4092   -1.8326    0.0000 H   0  0  0  0  0  0  0  0  0  0  0  0
   11.8078   -1.1423    0.0000 H   0  0  0  0  0  0  0  0  0  0  0  0
    9.7942   -0.0600    0.0000 H   0  0  0  0  0  0  0  0  0  0  0  0
    8.5991    2.6300    0.0000 H   0  0  0  0  0  0  0  0  0  0  0  0
   12.9292   -0.8700    0.0000 H   0  0  0  0  0  0  0  0  0  0  0  0
    7.1962    3.0600    0.0000 H   0  0  0  0  0  0  0  0  0  0  0  0
    7.7331    2.1300    0.0000 H   0  0  0  0  0  0  0  0  0  0  0  0
   14.1938    0.7249    0.0000 H   0  0  0  0  0  0  0  0  0  0  0  0
   13.3967    0.7249    0.0000 H   0  0  0  0  0  0  0  0  0  0  0  0
    8.9282   -4.5600    0.0000 H   0  0  0  0  0  0  0  0  0  0  0  0
    8.5991   -2.1300    0.0000 H   0  0  0  0  0  0  0  0  0  0  0  0
   10.3312   -5.3700    0.0000 H   0  0  0  0  0  0  0  0  0  0  0  0
    5.1350   -3.3700    0.0000 H   0  0  0  0  0  0  0  0  0  0  0  0
    3.7320   -3.5600    0.0000 H   0  0  0  0  0  0  0  0  0  0  0  0
    7.7331   -3.8700    0.0000 H   0  0  0  0  0  0  0  0  0  0  0  0
    7.7331    5.3700    0.0000 H   0  0  0  0  0  0  0  0  0  0  0  0
   12.6002   -3.0600    0.0000 H   0  0  0  0  0  0  0  0  0  0  0  0
   12.0632   -5.3700    0.0000 H   0  0  0  0  0  0  0  0  0  0  0  0
    3.7320   -4.5600    0.0000 H   0  0  0  0  0  0  0  0  0  0  0  0
   16.0643   -0.0600    0.0000 H   0  0  0  0  0  0  0  0  0  0  0  0
    4.2690   -0.6300    0.0000 H   0  0  0  0  0  0  0  0  0  0  0  0
    2.0000   -2.9400    0.0000 H   0  0  0  0  0  0  0  0  0  0  0  0
  1 23  1  0  0  0  0
  1 27  1  0  0  0  0
  2 25  2  0  0  0  0
  3 26  2  0  0  0  0
  4 28  1  0  0  0  0
  4 63  1  0  0  0  0
  5 28  2  0  0  0  0
  6 30  1  0  0  0  0
  6 64  1  0  0  0  0
  7 36  1  0  0  0  0
  7 40  1  0  0  0  0
  8 33  1  0  0  0  0
  8 65  1  0  0  0  0
  9 37  1  0  0  0  0
  9 66  1  0  0  0  0
 10 39  1  0  0  0  0
 10 67  1  0  0  0  0
 11 39  2  0  0  0  0
 12 41  1  0  0  0  0
 12 68  1  0  0  0  0
 13 40  2  0  0  0  0
 14 42  1  0  0  0  0
 14 69  1  0  0  0  0
 15 41  2  0  0  0  0
 16 42  2  0  0  0  0
 17 20  1  0  0  0  0
 17 25  1  0  0  0  0
 17 50  1  0  0  0  0
 18 26  1  0  0  0  0
 18 31  1  0  0  0  0
 18 52  1  0  0  0  0
 19 24  1  0  0  0  0
 19 53  1  0  0  0  0
 19 54  1  0  0  0  0
 20 23  1  0  0  0  0
 20 26  1  0  0  0  0
 20 43  1  0  0  0  0
 21 22  1  0  0  0  0
 21 24  1  0  0  0  0
 21 44  1  0  0  0  0
 21 45  1  0  0  0  0
 22 25  1  0  0  0  0
 22 46  1  0  0  0  0
 22 47  1  0  0  0  0
 23 48  1  0  0  0  0
 23 49  1  0  0  0  0
 24 28  1  0  0  0  0
 24 51  1  0  0  0  0
 27 29  2  0  0  0  0
 27 30  1  0  0  0  0
 29 32  1  0  0  0  0
 29 34  1  0  0  0  0
 30 33  2  0  0  0  0
 31 39  1  0  0  0  0
 31 55  1  0  0  0  0
 31 56  1  0  0  0  0
 32 35  2  0  0  0  0
 32 57  1  0  0  0  0
 33 35  1  0  0  0  0
 34 38  2  0  0  0  0
 34 58  1  0  0  0  0
 35 59  1  0  0  0  0
 36 37  1  0  0  0  0
 36 41  1  0  0  0  0
 36 60  1  0  0  0  0
 37 42  1  0  0  0  0
 37 61  1  0  0  0  0
 38 40  1  0  0  0  0
 38 62  1  0  0  0  0
M  END
>  <PUBCHEM_COMPOUND_CID>
117842555

>  <PUBCHEM_COMPOUND_CANONICALIZED>
1

>  <PUBCHEM_CACTVS_COMPLEXITY>
1050

>  <PUBCHEM_CACTVS_HBOND_ACCEPTOR>
17

>  <PUBCHEM_CACTVS_HBOND_DONOR>
10

>  <PUBCHEM_CACTVS_ROTATABLE_BOND>
18

>  <PUBCHEM_CACTVS_SUBSKEYS>
AAADceB7PABAAAAAAAAAAAAAAAAAAAAAAAAwAAAAAAAAAAABAAAAHgQQCAAADDzl2AawD4LABgiIAiHSGAICAAAgKBAIiJPOiMgLdjaisTaWcAEl9hG7uYff1xIOIAABBAAEYABAAAIIAAjAAAAAAAAAAA==

>  <PUBCHEM_IUPAC_OPENEYE_NAME>
2-[(E)-3-[2-[2-[(4-amino-4-carboxy-butanoyl)amino]-3-(carboxymethylamino)-3-oxo-propyl]sulfanyl-3,4-dihydroxy-phenyl]prop-2-enoyl]oxy-3-hydroxy-butanedioic acid

>  <PUBCHEM_IUPAC_CAS_NAME>
2-[(E)-3-[2-[[2-[(4-amino-4-carboxy-1-oxobutyl)amino]-3-(carboxymethylamino)-3-oxopropyl]thio]-3,4-dihydroxyphenyl]-1-oxoprop-2-enoxy]-3-hydroxybutanedioic acid

>  <PUBCHEM_IUPAC_NAME>
2-[(E)-3-[2-[2-[(4-amino-4-carboxybutanoyl)amino]-3-(carboxymethylamino)-3-oxopropyl]sulfanyl-3,4-dihydroxyphenyl]prop-2-enoyl]oxy-3-hydroxybutanedioic acid

>  <PUBCHEM_IUPAC_SYSTEMATIC_NAME>
2-[(E)-3-[2-[2-[(4-azanyl-5-oxidanyl-5-oxidanylidene-pentanoyl)amino]-3-(2-hydroxy-2-oxoethylamino)-3-oxidanylidene-propyl]sulfanyl-3,4-bis(oxidanyl)phenyl]prop-2-enoyl]oxy-3-oxidanyl-butanedioic acid

>  <PUBCHEM_IUPAC_TRADITIONAL_NAME>
2-[(E)-3-[2-[[2-[(4-amino-4-carboxy-butanoyl)amino]-3-(carboxymethylamino)-3-keto-propyl]thio]-3,4-dihydroxy-phenyl]acryloyl]oxy-3-hydroxy-succinic acid

>  <PUBCHEM_IUPAC_INCHI>
InChI=1S/C23H27N3O15S/c24-10(21(35)36)3-5-13(28)26-11(20(34)25-7-14(29)30)8-42-19-9(1-4-12(27)16(19)32)2-6-15(31)41-18(23(39)40)17(33)22(37)38/h1-2,4,6,10-11,17-18,27,32-33H,3,5,7-8,24H2,(H,25,34)(H,26,28)(H,29,30)(H,35,36)(H,37,38)(H,39,40)/b6-2+

>  <PUBCHEM_IUPAC_INCHIKEY>
FRUUTAANUZUTPG-QHHAFSJGSA-N

>  <PUBCHEM_XLOGP3_AA>
-4.4

>  <PUBCHEM_EXACT_MASS>
617.116

>  <PUBCHEM_MOLECULAR_FORMULA>
C23H27N3O15S

>  <PUBCHEM_MOLECULAR_WEIGHT>
617.535

>  <PUBCHEM_OPENEYE_CAN_SMILES>
C1=CC(=C(C(=C1C=CC(=O)OC(C(C(=O)O)O)C(=O)O)SCC(C(=O)NCC(=O)O)NC(=O)CCC(C(=O)O)N)O)O

>  <PUBCHEM_OPENEYE_ISO_SMILES>
C1=CC(=C(C(=C1/C=C/C(=O)OC(C(C(=O)O)O)C(=O)O)SCC(C(=O)NCC(=O)O)NC(=O)CCC(C(=O)O)N)O)O

>  <PUBCHEM_CACTVS_TPSA>
346

>  <PUBCHEM_MONOISOTOPIC_WEIGHT>
617.116

>  <PUBCHEM_TOTAL_CHARGE>
0

>  <PUBCHEM_HEAVY_ATOM_COUNT>
42

>  <PUBCHEM_ATOM_DEF_STEREO_COUNT>
0

>  <PUBCHEM_ATOM_UDEF_STEREO_COUNT>
4

>  <PUBCHEM_BOND_DEF_STEREO_COUNT>
1

>  <PUBCHEM_BOND_UDEF_STEREO_COUNT>
0

>  <PUBCHEM_ISOTOPIC_ATOM_COUNT>
0

>  <PUBCHEM_COMPONENT_COUNT>
1

>  <PUBCHEM_CACTVS_TAUTO_COUNT>
48

>  <PUBCHEM_COORDINATE_TYPE>
1
5
255

>  <PUBCHEM_BONDANNOTATIONS>
24  19  3
20  23  3
27  29  8
27  30  8
29  32  8
30  33  8
32  35  8
33  35  8
36  41  3
37  9  3

$$$$
