11783899
 OpenBabel06101807152D

 58 59  0  0  0  0  0  0  0  0999 V2000
   10.3312    0.1550    0.0000 O   0  0  0  0  0  0  0  0  0  0  0  0
    8.5991   -2.8450    0.0000 O   0  0  0  0  0  0  0  0  0  0  0  0
    4.2690    2.6550    0.0000 O   0  0  0  0  0  0  0  0  0  0  0  0
    2.5369    1.6550    0.0000 O   0  0  0  0  0  0  0  0  0  0  0  0
    7.7331   -0.3450    0.0000 C   0  0  0  0  0  0  0  0  0  0  0  0
    6.8671    0.1550    0.0000 C   0  0  0  0  0  0  0  0  0  0  0  0
    8.5991    0.1550    0.0000 C   0  0  0  0  0  0  0  0  0  0  0  0
    6.0010   -0.3450    0.0000 C   0  0  0  0  0  0  0  0  0  0  0  0
    8.5991    1.1550    0.0000 C   0  0  0  0  0  0  0  0  0  0  0  0
    9.4651   -0.3450    0.0000 C   0  0  0  0  0  0  0  0  0  0  0  0
    7.7331   -1.3450    0.0000 C   0  0  0  0  0  0  0  0  0  0  0  0
    5.1350    0.1550    0.0000 C   0  0  0  0  0  0  0  0  0  0  0  0
    9.4651   -1.3450    0.0000 C   0  0  0  0  0  0  0  0  0  0  0  0
    8.5991   -1.8450    0.0000 C   0  0  0  0  0  0  0  0  0  0  0  0
    9.4651    1.6550    0.0000 C   0  0  0  0  0  0  0  0  0  0  0  0
    5.1350    1.1550    0.0000 C   0  0  0  0  0  0  0  0  0  0  0  0
    4.2690   -0.3450    0.0000 C   0  0  0  0  0  0  0  0  0  0  0  0
    9.4651    2.6550    0.0000 C   0  0  0  0  0  0  0  0  0  0  0  0
   11.1972   -0.3450    0.0000 C   0  0  0  0  0  0  0  0  0  0  0  0
    4.2690    1.6550    0.0000 C   0  0  0  0  0  0  0  0  0  0  0  0
    3.4030    0.1550    0.0000 C   0  0  0  0  0  0  0  0  0  0  0  0
    3.4030    1.1550    0.0000 C   0  0  0  0  0  0  0  0  0  0  0  0
   10.3312    3.1550    0.0000 C   0  0  0  0  0  0  0  0  0  0  0  0
    8.5991    3.1550    0.0000 C   0  0  0  0  0  0  0  0  0  0  0  0
   12.0632    0.1550    0.0000 C   0  0  0  0  0  0  0  0  0  0  0  0
   12.9292   -0.3450    0.0000 C   0  0  0  0  0  0  0  0  0  0  0  0
   13.7953    0.1550    0.0000 C   0  0  0  0  0  0  0  0  0  0  0  0
   12.9292   -1.3450    0.0000 C   0  0  0  0  0  0  0  0  0  0  0  0
    7.2656    0.6299    0.0000 H   0  0  0  0  0  0  0  0  0  0  0  0
    6.4685    0.6299    0.0000 H   0  0  0  0  0  0  0  0  0  0  0  0
    5.6025   -0.8199    0.0000 H   0  0  0  0  0  0  0  0  0  0  0  0
    6.3996   -0.8199    0.0000 H   0  0  0  0  0  0  0  0  0  0  0  0
    8.3871    1.7376    0.0000 H   0  0  0  0  0  0  0  0  0  0  0  0
    7.9885    1.0473    0.0000 H   0  0  0  0  0  0  0  0  0  0  0  0
    7.1962   -1.6550    0.0000 H   0  0  0  0  0  0  0  0  0  0  0  0
   10.0021   -1.6550    0.0000 H   0  0  0  0  0  0  0  0  0  0  0  0
   10.0021    1.3450    0.0000 H   0  0  0  0  0  0  0  0  0  0  0  0
    5.6720    1.4650    0.0000 H   0  0  0  0  0  0  0  0  0  0  0  0
    4.2690   -0.9650    0.0000 H   0  0  0  0  0  0  0  0  0  0  0  0
   10.7987   -0.8199    0.0000 H   0  0  0  0  0  0  0  0  0  0  0  0
   11.5957   -0.8199    0.0000 H   0  0  0  0  0  0  0  0  0  0  0  0
    2.8660   -0.1550    0.0000 H   0  0  0  0  0  0  0  0  0  0  0  0
   10.6412    2.6181    0.0000 H   0  0  0  0  0  0  0  0  0  0  0  0
    8.9091    3.6919    0.0000 H   0  0  0  0  0  0  0  0  0  0  0  0
    8.0622    3.4650    0.0000 H   0  0  0  0  0  0  0  0  0  0  0  0
    8.2891    2.6181    0.0000 H   0  0  0  0  0  0  0  0  0  0  0  0
   10.8681    3.4650    0.0000 H   0  0  0  0  0  0  0  0  0  0  0  0
   10.0212    3.6919    0.0000 H   0  0  0  0  0  0  0  0  0  0  0  0
    8.0622   -3.1550    0.0000 H   0  0  0  0  0  0  0  0  0  0  0  0
   12.0632    0.7750    0.0000 H   0  0  0  0  0  0  0  0  0  0  0  0
    3.7320    2.9650    0.0000 H   0  0  0  0  0  0  0  0  0  0  0  0
   12.3092   -1.3450    0.0000 H   0  0  0  0  0  0  0  0  0  0  0  0
   12.9292   -1.9650    0.0000 H   0  0  0  0  0  0  0  0  0  0  0  0
   13.5492   -1.3450    0.0000 H   0  0  0  0  0  0  0  0  0  0  0  0
   14.1053   -0.3819    0.0000 H   0  0  0  0  0  0  0  0  0  0  0  0
   14.3322    0.4650    0.0000 H   0  0  0  0  0  0  0  0  0  0  0  0
   13.4853    0.6919    0.0000 H   0  0  0  0  0  0  0  0  0  0  0  0
    2.0000    1.3450    0.0000 H   0  0  0  0  0  0  0  0  0  0  0  0
  1 10  1  0  0  0  0
  1 19  1  0  0  0  0
  2 14  1  0  0  0  0
  2 49  1  0  0  0  0
  3 20  1  0  0  0  0
  3 51  1  0  0  0  0
  4 22  1  0  0  0  0
  4 58  1  0  0  0  0
  5  6  1  0  0  0  0
  5  7  2  0  0  0  0
  5 11  1  0  0  0  0
  6  8  1  0  0  0  0
  6 29  1  0  0  0  0
  6 30  1  0  0  0  0
  7  9  1  0  0  0  0
  7 10  1  0  0  0  0
  8 12  1  0  0  0  0
  8 31  1  0  0  0  0
  8 32  1  0  0  0  0
  9 15  1  0  0  0  0
  9 33  1  0  0  0  0
  9 34  1  0  0  0  0
 10 13  2  0  0  0  0
 11 14  2  0  0  0  0
 11 35  1  0  0  0  0
 12 16  2  0  0  0  0
 12 17  1  0  0  0  0
 13 14  1  0  0  0  0
 13 36  1  0  0  0  0
 15 18  2  0  0  0  0
 15 37  1  0  0  0  0
 16 20  1  0  0  0  0
 16 38  1  0  0  0  0
 17 21  2  0  0  0  0
 17 39  1  0  0  0  0
 18 23  1  0  0  0  0
 18 24  1  0  0  0  0
 19 25  1  0  0  0  0
 19 40  1  0  0  0  0
 19 41  1  0  0  0  0
 20 22  2  0  0  0  0
 21 22  1  0  0  0  0
 21 42  1  0  0  0  0
 23 43  1  0  0  0  0
 23 47  1  0  0  0  0
 23 48  1  0  0  0  0
 24 44  1  0  0  0  0
 24 45  1  0  0  0  0
 24 46  1  0  0  0  0
 25 26  2  0  0  0  0
 25 50  1  0  0  0  0
 26 27  1  0  0  0  0
 26 28  1  0  0  0  0
 27 55  1  0  0  0  0
 27 56  1  0  0  0  0
 27 57  1  0  0  0  0
 28 52  1  0  0  0  0
 28 53  1  0  0  0  0
 28 54  1  0  0  0  0
M  END
>  <PUBCHEM_COMPOUND_CID>
11783899

>  <PUBCHEM_COMPOUND_CANONICALIZED>
1

>  <PUBCHEM_CACTVS_COMPLEXITY>
519

>  <PUBCHEM_CACTVS_HBOND_ACCEPTOR>
4

>  <PUBCHEM_CACTVS_HBOND_DONOR>
3

>  <PUBCHEM_CACTVS_ROTATABLE_BOND>
8

>  <PUBCHEM_CACTVS_SUBSKEYS>
AAADceB4OAAAAAAAAAAAAAAAAAAAAAAAAAAwYAAAAAAAAAABQAAAGgAACAAADASgmAIyBoAABgCAAiBCAAACCAAgIAAIiAAGiIgNJyKGMRqCeCGlwBUJuAeA4PwOoAABCAAYQABAAAIQADCAAAAAAAAAAA==

>  <PUBCHEM_IUPAC_OPENEYE_NAME>
4-[2-[5-hydroxy-3-(3-methylbut-2-enoxy)-2-(3-methylbut-2-enyl)phenyl]ethyl]benzene-1,2-diol

>  <PUBCHEM_IUPAC_CAS_NAME>
4-[2-[5-hydroxy-3-(3-methylbut-2-enoxy)-2-(3-methylbut-2-enyl)phenyl]ethyl]benzene-1,2-diol

>  <PUBCHEM_IUPAC_NAME>
4-[2-[5-hydroxy-3-(3-methylbut-2-enoxy)-2-(3-methylbut-2-enyl)phenyl]ethyl]benzene-1,2-diol

>  <PUBCHEM_IUPAC_SYSTEMATIC_NAME>
4-[2-[3-(3-methylbut-2-enoxy)-2-(3-methylbut-2-enyl)-5-oxidanyl-phenyl]ethyl]benzene-1,2-diol

>  <PUBCHEM_IUPAC_TRADITIONAL_NAME>
4-[2-[5-hydroxy-3-(3-methylbut-2-enoxy)-2-(3-methylbut-2-enyl)phenyl]ethyl]pyrocatechol

>  <PUBCHEM_IUPAC_INCHI>
InChI=1S/C24H30O4/c1-16(2)5-9-21-19(8-6-18-7-10-22(26)23(27)13-18)14-20(25)15-24(21)28-12-11-17(3)4/h5,7,10-11,13-15,25-27H,6,8-9,12H2,1-4H3

>  <PUBCHEM_IUPAC_INCHIKEY>
BNTYXDBRBRYHOP-UHFFFAOYSA-N

>  <PUBCHEM_XLOGP3_AA>
6.5

>  <PUBCHEM_EXACT_MASS>
382.214

>  <PUBCHEM_MOLECULAR_FORMULA>
C24H30O4

>  <PUBCHEM_MOLECULAR_WEIGHT>
382.5

>  <PUBCHEM_OPENEYE_CAN_SMILES>
CC(=CCC1=C(C=C(C=C1CCC2=CC(=C(C=C2)O)O)O)OCC=C(C)C)C

>  <PUBCHEM_OPENEYE_ISO_SMILES>
CC(=CCC1=C(C=C(C=C1CCC2=CC(=C(C=C2)O)O)O)OCC=C(C)C)C

>  <PUBCHEM_CACTVS_TPSA>
69.9

>  <PUBCHEM_MONOISOTOPIC_WEIGHT>
382.214

>  <PUBCHEM_TOTAL_CHARGE>
0

>  <PUBCHEM_HEAVY_ATOM_COUNT>
28

>  <PUBCHEM_ATOM_DEF_STEREO_COUNT>
0

>  <PUBCHEM_ATOM_UDEF_STEREO_COUNT>
0

>  <PUBCHEM_BOND_DEF_STEREO_COUNT>
0

>  <PUBCHEM_BOND_UDEF_STEREO_COUNT>
0

>  <PUBCHEM_ISOTOPIC_ATOM_COUNT>
0

>  <PUBCHEM_COMPONENT_COUNT>
1

>  <PUBCHEM_CACTVS_TAUTO_COUNT>
295

>  <PUBCHEM_COORDINATE_TYPE>
1
5
255

>  <PUBCHEM_BONDANNOTATIONS>
10  13  8
11  14  8
12  16  8
12  17  8
13  14  8
16  20  8
17  21  8
20  22  8
21  22  8
5  11  8
5  7  8
7  10  8

$$$$
