11796710
 OpenBabel06101807152D

 77 78  0  0  0  0  0  0  0  0999 V2000
    7.9244   -3.5904    0.0000 O   0  0  0  0  0  0  0  0  0  0  0  0
    6.2781   -3.0523    0.0000 N   0  0  0  0  0  0  0  0  0  0  0  0
    4.6783   -6.7690    0.0000 N   0  0  0  0  0  0  0  0  0  0  0  0
   12.4133    1.7809    0.0000 C   0  0  0  0  0  0  0  0  0  0  0  0
   12.7239    2.7314    0.0000 C   0  0  0  0  0  0  0  0  0  0  0  0
   11.4348    1.5747    0.0000 C   0  0  0  0  0  0  0  0  0  0  0  0
   13.7024    2.9376    0.0000 C   0  0  0  0  0  0  0  0  0  0  0  0
   11.1241    0.6241    0.0000 C   0  0  0  0  0  0  0  0  0  0  0  0
   14.0131    3.8881    0.0000 C   0  0  0  0  0  0  0  0  0  0  0  0
   10.1456    0.4179    0.0000 C   0  0  0  0  0  0  0  0  0  0  0  0
   14.9916    4.0944    0.0000 C   0  0  0  0  0  0  0  0  0  0  0  0
    9.8349   -0.5326    0.0000 C   0  0  0  0  0  0  0  0  0  0  0  0
   15.3023    5.0449    0.0000 C   0  0  0  0  0  0  0  0  0  0  0  0
    8.8564   -0.7388    0.0000 C   0  0  0  0  0  0  0  0  0  0  0  0
   16.2808    5.2511    0.0000 C   0  0  0  0  0  0  0  0  0  0  0  0
    8.5458   -1.6893    0.0000 C   0  0  0  0  0  0  0  0  0  0  0  0
   16.5914    6.2016    0.0000 C   0  0  0  0  0  0  0  0  0  0  0  0
    7.5673   -1.8956    0.0000 C   0  0  0  0  0  0  0  0  0  0  0  0
   17.5700    6.4078    0.0000 C   0  0  0  0  0  0  0  0  0  0  0  0
    7.2566   -2.8461    0.0000 C   0  0  0  0  0  0  0  0  0  0  0  0
    4.9889   -4.2090    0.0000 C   0  0  0  0  0  0  0  0  0  0  0  0
    5.9674   -4.0028    0.0000 C   0  0  0  0  0  0  0  0  0  0  0  0
   17.8806    7.3584    0.0000 C   0  0  0  0  0  0  0  0  0  0  0  0
    4.6783   -5.1596    0.0000 C   0  0  0  0  0  0  0  0  0  0  0  0
    3.7320   -5.4643    0.0000 C   0  0  0  0  0  0  0  0  0  0  0  0
    3.7320   -6.4643    0.0000 C   0  0  0  0  0  0  0  0  0  0  0  0
    5.2619   -5.9643    0.0000 C   0  0  0  0  0  0  0  0  0  0  0  0
    2.8660   -4.9643    0.0000 C   0  0  0  0  0  0  0  0  0  0  0  0
    2.8660   -6.9643    0.0000 C   0  0  0  0  0  0  0  0  0  0  0  0
    2.0000   -5.4643    0.0000 C   0  0  0  0  0  0  0  0  0  0  0  0
    2.0000   -6.4643    0.0000 C   0  0  0  0  0  0  0  0  0  0  0  0
   12.4338    1.1612    0.0000 H   0  0  0  0  0  0  0  0  0  0  0  0
   13.0271    1.6935    0.0000 H   0  0  0  0  0  0  0  0  0  0  0  0
   12.7034    3.3510    0.0000 H   0  0  0  0  0  0  0  0  0  0  0  0
   12.1101    2.8187    0.0000 H   0  0  0  0  0  0  0  0  0  0  0  0
   11.4142    2.1943    0.0000 H   0  0  0  0  0  0  0  0  0  0  0  0
   10.8210    1.6620    0.0000 H   0  0  0  0  0  0  0  0  0  0  0  0
   13.7230    2.3180    0.0000 H   0  0  0  0  0  0  0  0  0  0  0  0
   14.3163    2.8503    0.0000 H   0  0  0  0  0  0  0  0  0  0  0  0
   11.1447    0.0045    0.0000 H   0  0  0  0  0  0  0  0  0  0  0  0
   11.7379    0.5368    0.0000 H   0  0  0  0  0  0  0  0  0  0  0  0
   13.9925    4.5078    0.0000 H   0  0  0  0  0  0  0  0  0  0  0  0
   13.3993    3.9755    0.0000 H   0  0  0  0  0  0  0  0  0  0  0  0
   10.1250    1.0376    0.0000 H   0  0  0  0  0  0  0  0  0  0  0  0
    9.5318    0.5053    0.0000 H   0  0  0  0  0  0  0  0  0  0  0  0
   15.0122    3.4747    0.0000 H   0  0  0  0  0  0  0  0  0  0  0  0
   15.6054    4.0070    0.0000 H   0  0  0  0  0  0  0  0  0  0  0  0
    9.8555   -1.1523    0.0000 H   0  0  0  0  0  0  0  0  0  0  0  0
   10.4488   -0.6200    0.0000 H   0  0  0  0  0  0  0  0  0  0  0  0
   15.2817    5.6645    0.0000 H   0  0  0  0  0  0  0  0  0  0  0  0
   14.6885    5.1322    0.0000 H   0  0  0  0  0  0  0  0  0  0  0  0
    8.8359   -0.1192    0.0000 H   0  0  0  0  0  0  0  0  0  0  0  0
    8.2426   -0.6515    0.0000 H   0  0  0  0  0  0  0  0  0  0  0  0
   16.3013    4.6314    0.0000 H   0  0  0  0  0  0  0  0  0  0  0  0
   16.8946    5.1637    0.0000 H   0  0  0  0  0  0  0  0  0  0  0  0
    8.5663   -2.3090    0.0000 H   0  0  0  0  0  0  0  0  0  0  0  0
    9.1596   -1.7767    0.0000 H   0  0  0  0  0  0  0  0  0  0  0  0
   16.5709    6.8213    0.0000 H   0  0  0  0  0  0  0  0  0  0  0  0
   15.9776    6.2890    0.0000 H   0  0  0  0  0  0  0  0  0  0  0  0
    7.5467   -1.2759    0.0000 H   0  0  0  0  0  0  0  0  0  0  0  0
    6.9534   -1.8082    0.0000 H   0  0  0  0  0  0  0  0  0  0  0  0
   17.5905    5.7882    0.0000 H   0  0  0  0  0  0  0  0  0  0  0  0
   18.1838    6.3205    0.0000 H   0  0  0  0  0  0  0  0  0  0  0  0
    4.9684   -3.5894    0.0000 H   0  0  0  0  0  0  0  0  0  0  0  0
    4.3751   -4.1217    0.0000 H   0  0  0  0  0  0  0  0  0  0  0  0
    5.9880   -4.6225    0.0000 H   0  0  0  0  0  0  0  0  0  0  0  0
    6.5812   -4.0902    0.0000 H   0  0  0  0  0  0  0  0  0  0  0  0
   18.4699    7.1657    0.0000 H   0  0  0  0  0  0  0  0  0  0  0  0
   18.0732    7.9477    0.0000 H   0  0  0  0  0  0  0  0  0  0  0  0
   17.2913    7.5510    0.0000 H   0  0  0  0  0  0  0  0  0  0  0  0
    5.8640   -2.5908    0.0000 H   0  0  0  0  0  0  0  0  0  0  0  0
    5.8819   -5.9643    0.0000 H   0  0  0  0  0  0  0  0  0  0  0  0
    4.8709   -7.3584    0.0000 H   0  0  0  0  0  0  0  0  0  0  0  0
    2.8660   -4.3443    0.0000 H   0  0  0  0  0  0  0  0  0  0  0  0
    2.8660   -7.5843    0.0000 H   0  0  0  0  0  0  0  0  0  0  0  0
    1.4631   -5.1543    0.0000 H   0  0  0  0  0  0  0  0  0  0  0  0
    1.4631   -6.7743    0.0000 H   0  0  0  0  0  0  0  0  0  0  0  0
  1 20  2  0  0  0  0
  2 20  1  0  0  0  0
  2 22  1  0  0  0  0
  2 71  1  0  0  0  0
  3 26  1  0  0  0  0
  3 27  1  0  0  0  0
  3 73  1  0  0  0  0
  4  5  1  0  0  0  0
  4  6  1  0  0  0  0
  4 32  1  0  0  0  0
  4 33  1  0  0  0  0
  5  7  1  0  0  0  0
  5 34  1  0  0  0  0
  5 35  1  0  0  0  0
  6  8  1  0  0  0  0
  6 36  1  0  0  0  0
  6 37  1  0  0  0  0
  7  9  1  0  0  0  0
  7 38  1  0  0  0  0
  7 39  1  0  0  0  0
  8 10  1  0  0  0  0
  8 40  1  0  0  0  0
  8 41  1  0  0  0  0
  9 11  1  0  0  0  0
  9 42  1  0  0  0  0
  9 43  1  0  0  0  0
 10 12  1  0  0  0  0
 10 44  1  0  0  0  0
 10 45  1  0  0  0  0
 11 13  1  0  0  0  0
 11 46  1  0  0  0  0
 11 47  1  0  0  0  0
 12 14  1  0  0  0  0
 12 48  1  0  0  0  0
 12 49  1  0  0  0  0
 13 15  1  0  0  0  0
 13 50  1  0  0  0  0
 13 51  1  0  0  0  0
 14 16  1  0  0  0  0
 14 52  1  0  0  0  0
 14 53  1  0  0  0  0
 15 17  1  0  0  0  0
 15 54  1  0  0  0  0
 15 55  1  0  0  0  0
 16 18  1  0  0  0  0
 16 56  1  0  0  0  0
 16 57  1  0  0  0  0
 17 19  1  0  0  0  0
 17 58  1  0  0  0  0
 17 59  1  0  0  0  0
 18 20  1  0  0  0  0
 18 60  1  0  0  0  0
 18 61  1  0  0  0  0
 19 23  1  0  0  0  0
 19 62  1  0  0  0  0
 19 63  1  0  0  0  0
 21 22  1  0  0  0  0
 21 24  1  0  0  0  0
 21 64  1  0  0  0  0
 21 65  1  0  0  0  0
 22 66  1  0  0  0  0
 22 67  1  0  0  0  0
 23 68  1  0  0  0  0
 23 69  1  0  0  0  0
 23 70  1  0  0  0  0
 24 25  1  0  0  0  0
 24 27  2  0  0  0  0
 25 26  1  0  0  0  0
 25 28  2  0  0  0  0
 26 29  2  0  0  0  0
 27 72  1  0  0  0  0
 28 30  1  0  0  0  0
 28 74  1  0  0  0  0
 29 31  1  0  0  0  0
 29 75  1  0  0  0  0
 30 31  2  0  0  0  0
 30 76  1  0  0  0  0
 31 77  1  0  0  0  0
M  END
>  <PUBCHEM_COMPOUND_CID>
11796710

>  <PUBCHEM_COMPOUND_CANONICALIZED>
1

>  <PUBCHEM_CACTVS_COMPLEXITY>
439

>  <PUBCHEM_CACTVS_HBOND_ACCEPTOR>
1

>  <PUBCHEM_CACTVS_HBOND_DONOR>
2

>  <PUBCHEM_CACTVS_ROTATABLE_BOND>
19

>  <PUBCHEM_CACTVS_SUBSKEYS>
AAADcfB7IAAAAAAAAAAAAAAAAAAAAWAAAAAwAAAAAAAAAFgB8AAAHgAQAAAADAjBngQ+wPLJkACoAzV3VACCgCAxAiAI2aE4ZJgIIPLAkZGEIAhglgDIyAcYiMCOgAAAAAACAAAAAAAAAAQAAAAAAAAAAA==

>  <PUBCHEM_IUPAC_OPENEYE_NAME>
N-[2-(1H-indol-3-yl)ethyl]octadecanamide

>  <PUBCHEM_IUPAC_CAS_NAME>
N-[2-(1H-indol-3-yl)ethyl]octadecanamide

>  <PUBCHEM_IUPAC_NAME>
N-[2-(1H-indol-3-yl)ethyl]octadecanamide

>  <PUBCHEM_IUPAC_SYSTEMATIC_NAME>
N-[2-(1H-indol-3-yl)ethyl]octadecanamide

>  <PUBCHEM_IUPAC_TRADITIONAL_NAME>
N-[2-(1H-indol-3-yl)ethyl]stearamide

>  <PUBCHEM_IUPAC_INCHI>
InChI=1S/C28H46N2O/c1-2-3-4-5-6-7-8-9-10-11-12-13-14-15-16-21-28(31)29-23-22-25-24-30-27-20-18-17-19-26(25)27/h17-20,24,30H,2-16,21-23H2,1H3,(H,29,31)

>  <PUBCHEM_IUPAC_INCHIKEY>
AIIVCXFBTONHDU-UHFFFAOYSA-N

>  <PUBCHEM_XLOGP3>
10.2

>  <PUBCHEM_EXACT_MASS>
426.361

>  <PUBCHEM_MOLECULAR_FORMULA>
C28H46N2O

>  <PUBCHEM_MOLECULAR_WEIGHT>
426.689

>  <PUBCHEM_OPENEYE_CAN_SMILES>
CCCCCCCCCCCCCCCCCC(=O)NCCC1=CNC2=CC=CC=C21

>  <PUBCHEM_OPENEYE_ISO_SMILES>
CCCCCCCCCCCCCCCCCC(=O)NCCC1=CNC2=CC=CC=C21

>  <PUBCHEM_CACTVS_TPSA>
44.9

>  <PUBCHEM_MONOISOTOPIC_WEIGHT>
426.361

>  <PUBCHEM_TOTAL_CHARGE>
0

>  <PUBCHEM_HEAVY_ATOM_COUNT>
31

>  <PUBCHEM_ATOM_DEF_STEREO_COUNT>
0

>  <PUBCHEM_ATOM_UDEF_STEREO_COUNT>
0

>  <PUBCHEM_BOND_DEF_STEREO_COUNT>
0

>  <PUBCHEM_BOND_UDEF_STEREO_COUNT>
0

>  <PUBCHEM_ISOTOPIC_ATOM_COUNT>
0

>  <PUBCHEM_COMPONENT_COUNT>
1

>  <PUBCHEM_CACTVS_TAUTO_COUNT>
2

>  <PUBCHEM_COORDINATE_TYPE>
1
5
255

>  <PUBCHEM_BONDANNOTATIONS>
24  25  8
24  27  8
25  26  8
25  28  8
26  29  8
28  30  8
29  31  8
3  26  8
3  27  8
30  31  8

$$$$
