11816089
 OpenBabel06101807152D

 28 28  0  0  1  0  0  0  0  0999 V2000
    3.0000   -0.3170    0.0000 O   0  0  0  0  0  0  0  0  0  0  0  0
    5.3660    1.0490    0.0000 O   0  0  0  0  0  0  0  0  0  0  0  0
    3.0000    0.6830    0.0000 C   0  0  0  0  0  0  0  0  0  0  0  0
    3.8660    0.1830    0.0000 C   0  0  3  0  0  0  0  0  0  0  0  0
    4.8660    0.1830    0.0000 C   0  0  0  0  0  0  0  0  0  0  0  0
    5.3660   -0.6830    0.0000 C   0  0  0  0  0  0  0  0  0  0  0  0
    2.0000    0.6830    0.0000 C   0  0  0  0  0  0  0  0  0  0  0  0
    3.5000    1.5490    0.0000 C   0  0  0  0  0  0  0  0  0  0  0  0
    6.2320   -0.1830    0.0000 C   0  0  0  0  0  0  0  0  0  0  0  0
    4.5000   -1.1830    0.0000 C   0  0  0  0  0  0  0  0  0  0  0  0
    5.8660   -1.5490    0.0000 C   0  0  0  0  0  0  0  0  0  0  0  0
    6.8660   -1.5490    0.0000 C   0  0  0  0  0  0  0  0  0  0  0  0
    4.0860   -0.6380    0.0000 H   0  0  0  0  0  0  0  0  0  0  0  0
    2.0000    1.3030    0.0000 H   0  0  0  0  0  0  0  0  0  0  0  0
    1.3800    0.6830    0.0000 H   0  0  0  0  0  0  0  0  0  0  0  0
    2.0000    0.0630    0.0000 H   0  0  0  0  0  0  0  0  0  0  0  0
    4.0369    1.2390    0.0000 H   0  0  0  0  0  0  0  0  0  0  0  0
    3.8100    2.0860    0.0000 H   0  0  0  0  0  0  0  0  0  0  0  0
    2.9631    1.8590    0.0000 H   0  0  0  0  0  0  0  0  0  0  0  0
    6.5420   -0.7199    0.0000 H   0  0  0  0  0  0  0  0  0  0  0  0
    6.7690    0.1270    0.0000 H   0  0  0  0  0  0  0  0  0  0  0  0
    5.9220    0.3539    0.0000 H   0  0  0  0  0  0  0  0  0  0  0  0
    4.1900   -0.6461    0.0000 H   0  0  0  0  0  0  0  0  0  0  0  0
    3.9631   -1.4930    0.0000 H   0  0  0  0  0  0  0  0  0  0  0  0
    4.8100   -1.7200    0.0000 H   0  0  0  0  0  0  0  0  0  0  0  0
    5.5560   -2.0860    0.0000 H   0  0  0  0  0  0  0  0  0  0  0  0
    7.1760   -2.0860    0.0000 H   0  0  0  0  0  0  0  0  0  0  0  0
    7.1760   -1.0121    0.0000 H   0  0  0  0  0  0  0  0  0  0  0  0
  1  3  1  0  0  0  0
  1  4  1  0  0  0  0
  2  5  2  0  0  0  0
  3  4  1  0  0  0  0
  3  7  1  0  0  0  0
  3  8  1  0  0  0  0
  4  5  1  0  0  0  0
  4 13  1  0  0  0  0
  5  6  1  0  0  0  0
  6  9  1  0  0  0  0
  6 10  1  0  0  0  0
  6 11  1  0  0  0  0
  7 14  1  0  0  0  0
  7 15  1  0  0  0  0
  7 16  1  0  0  0  0
  8 17  1  0  0  0  0
  8 18  1  0  0  0  0
  8 19  1  0  0  0  0
  9 20  1  0  0  0  0
  9 21  1  0  0  0  0
  9 22  1  0  0  0  0
 10 23  1  0  0  0  0
 10 24  1  0  0  0  0
 10 25  1  0  0  0  0
 11 12  2  0  0  0  0
 11 26  1  0  0  0  0
 12 27  1  0  0  0  0
 12 28  1  0  0  0  0
M  END
>  <PUBCHEM_COMPOUND_CID>
11816089

>  <PUBCHEM_COMPOUND_CANONICALIZED>
1

>  <PUBCHEM_CACTVS_COMPLEXITY>
226

>  <PUBCHEM_CACTVS_HBOND_ACCEPTOR>
2

>  <PUBCHEM_CACTVS_HBOND_DONOR>
0

>  <PUBCHEM_CACTVS_ROTATABLE_BOND>
3

>  <PUBCHEM_CACTVS_SUBSKEYS>
AAADceBwMAAAAAAAAAAAAAAAEgAAAAAAAAAAAAAAAAAAAAAAAAAAGgAAAAAADlSggAICAAAABACIAKBSAAIAAAAgAAAIAAFAAAgAABYAAAQCAAAEoAAAAAGAAAANAAAAAAAAAAAAAAAAAAAAAAAAAAAAAA==

>  <PUBCHEM_IUPAC_OPENEYE_NAME>
1-(3,3-dimethyloxiran-2-yl)-2,2-dimethyl-but-3-en-1-one

>  <PUBCHEM_IUPAC_CAS_NAME>
1-(3,3-dimethyl-2-oxiranyl)-2,2-dimethyl-3-buten-1-one

>  <PUBCHEM_IUPAC_NAME>
1-(3,3-dimethyloxiran-2-yl)-2,2-dimethylbut-3-en-1-one

>  <PUBCHEM_IUPAC_SYSTEMATIC_NAME>
1-(3,3-dimethyloxiran-2-yl)-2,2-dimethyl-but-3-en-1-one

>  <PUBCHEM_IUPAC_TRADITIONAL_NAME>
1-(3,3-dimethyloxiran-2-yl)-2,2-dimethyl-but-3-en-1-one

>  <PUBCHEM_IUPAC_INCHI>
InChI=1S/C10H16O2/c1-6-9(2,3)7(11)8-10(4,5)12-8/h6,8H,1H2,2-5H3

>  <PUBCHEM_IUPAC_INCHIKEY>
VDWHYKNCKVKWIG-UHFFFAOYSA-N

>  <PUBCHEM_XLOGP3_AA>
1.9

>  <PUBCHEM_EXACT_MASS>
168.115

>  <PUBCHEM_MOLECULAR_FORMULA>
C10H16O2

>  <PUBCHEM_MOLECULAR_WEIGHT>
168.236

>  <PUBCHEM_OPENEYE_CAN_SMILES>
CC1(C(O1)C(=O)C(C)(C)C=C)C

>  <PUBCHEM_OPENEYE_ISO_SMILES>
CC1(C(O1)C(=O)C(C)(C)C=C)C

>  <PUBCHEM_CACTVS_TPSA>
29.6

>  <PUBCHEM_MONOISOTOPIC_WEIGHT>
168.115

>  <PUBCHEM_TOTAL_CHARGE>
0

>  <PUBCHEM_HEAVY_ATOM_COUNT>
12

>  <PUBCHEM_ATOM_DEF_STEREO_COUNT>
0

>  <PUBCHEM_ATOM_UDEF_STEREO_COUNT>
1

>  <PUBCHEM_BOND_DEF_STEREO_COUNT>
0

>  <PUBCHEM_BOND_UDEF_STEREO_COUNT>
0

>  <PUBCHEM_ISOTOPIC_ATOM_COUNT>
0

>  <PUBCHEM_COMPONENT_COUNT>
1

>  <PUBCHEM_CACTVS_TAUTO_COUNT>
2

>  <PUBCHEM_COORDINATE_TYPE>
1
5
255

>  <PUBCHEM_BONDANNOTATIONS>
4  13  3

$$$$
