118212070
 OpenBabel06101807152D

 16 15  0  0  0  0  0  0  0  0999 V2000
    2.5369   -0.0600    0.0000 O   0  5  0  0  0  0  0  0  0  0  0  0
    5.1350    1.4400    0.0000 O   0  0  0  0  0  0  0  0  0  0  0  0
    3.4030    1.4400    0.0000 O   0  0  0  0  0  0  0  0  0  0  0  0
    4.2690   -0.0600    0.0000 C   0  0  0  0  0  0  0  0  0  0  0  0
    3.4030   -0.5600    0.0000 C   0  0  0  0  0  0  0  0  0  0  0  0
    5.1350   -0.5600    0.0000 C   0  0  0  0  0  0  0  0  0  0  0  0
    3.4030   -1.5600    0.0000 C   0  0  0  0  0  0  0  0  0  0  0  0
    5.1350   -1.5600    0.0000 C   0  0  0  0  0  0  0  0  0  0  0  0
    4.2690   -2.0600    0.0000 C   0  0  0  0  0  0  0  0  0  0  0  0
    4.2690    0.9400    0.0000 C   0  0  0  0  0  0  0  0  0  0  0  0
    5.6720   -0.2500    0.0000 H   0  0  0  0  0  0  0  0  0  0  0  0
    2.8660   -1.8700    0.0000 H   0  0  0  0  0  0  0  0  0  0  0  0
    5.6720   -1.8700    0.0000 H   0  0  0  0  0  0  0  0  0  0  0  0
    4.2690   -2.6800    0.0000 H   0  0  0  0  0  0  0  0  0  0  0  0
    5.1350    2.0600    0.0000 H   0  0  0  0  0  0  0  0  0  0  0  0
    2.0000   -0.3700    0.0000 H   0  3  0  0  0  0  0  0  0  0  0  0
  1  5  1  0  0  0  0
  2 10  1  0  0  0  0
  2 15  1  0  0  0  0
  3 10  2  0  0  0  0
  4  5  1  0  0  0  0
  4  6  2  0  0  0  0
  4 10  1  0  0  0  0
  5  7  2  0  0  0  0
  6  8  1  0  0  0  0
  6 11  1  0  0  0  0
  7  9  1  0  0  0  0
  7 12  1  0  0  0  0
  8  9  2  0  0  0  0
  8 13  1  0  0  0  0
  9 14  1  0  0  0  0
M  CHG  2   1  -1  16   1
M  END
>  <PUBCHEM_COMPOUND_CID>
118212070

>  <PUBCHEM_COMPOUND_CANONICALIZED>
1

>  <PUBCHEM_CACTVS_COMPLEXITY>
133

>  <PUBCHEM_CACTVS_HBOND_ACCEPTOR>
3

>  <PUBCHEM_CACTVS_HBOND_DONOR>
2

>  <PUBCHEM_CACTVS_ROTATABLE_BOND>
1

>  <PUBCHEM_CACTVS_SUBSKEYS>
AAADcYBgMAAAAAAAAAAAAAAAAAAAAAAAAAAwAAAAAAAAAAABAAAAGgAACAAADASAmAAwDoAAAgCIAiDSCAACAAAkIAAIiAEGCMgIJzaAFRKAcUAl4BEImYeIyCCOAAAAAAAIAAAAAAAAABAAAAAAAAAAAA==

>  <PUBCHEM_IUPAC_OPENEYE_NAME>
2-carboxyphenolate;hydron

>  <PUBCHEM_IUPAC_CAS_NAME>
2-carboxyphenolate;hydron

>  <PUBCHEM_IUPAC_NAME>
2-carboxyphenolate;hydron

>  <PUBCHEM_IUPAC_SYSTEMATIC_NAME>
2-carboxyphenolate;hydron

>  <PUBCHEM_IUPAC_TRADITIONAL_NAME>
2-carboxyphenolate;hydron

>  <PUBCHEM_IUPAC_INCHI>
InChI=1S/C7H6O3/c8-6-4-2-1-3-5(6)7(9)10/h1-4,8H,(H,9,10)

>  <PUBCHEM_IUPAC_INCHIKEY>
YGSDEFSMJLZEOE-UHFFFAOYSA-N

>  <PUBCHEM_EXACT_MASS>
138.032

>  <PUBCHEM_MOLECULAR_FORMULA>
C7H6O3

>  <PUBCHEM_MOLECULAR_WEIGHT>
138.122

>  <PUBCHEM_OPENEYE_CAN_SMILES>
[H+].C1=CC=C(C(=C1)C(=O)O)[O-]

>  <PUBCHEM_OPENEYE_ISO_SMILES>
[H+].C1=CC=C(C(=C1)C(=O)O)[O-]

>  <PUBCHEM_CACTVS_TPSA>
60.4

>  <PUBCHEM_MONOISOTOPIC_WEIGHT>
138.032

>  <PUBCHEM_TOTAL_CHARGE>
0

>  <PUBCHEM_HEAVY_ATOM_COUNT>
10

>  <PUBCHEM_ATOM_DEF_STEREO_COUNT>
0

>  <PUBCHEM_ATOM_UDEF_STEREO_COUNT>
0

>  <PUBCHEM_BOND_DEF_STEREO_COUNT>
0

>  <PUBCHEM_BOND_UDEF_STEREO_COUNT>
0

>  <PUBCHEM_ISOTOPIC_ATOM_COUNT>
0

>  <PUBCHEM_COMPONENT_COUNT>
2

>  <PUBCHEM_CACTVS_TAUTO_COUNT>
1

>  <PUBCHEM_COORDINATE_TYPE>
1
5
255

>  <PUBCHEM_BONDANNOTATIONS>
4  5  8
4  6  8
5  7  8
6  8  8
7  9  8
8  9  8

$$$$
