118550826
 OpenBabel06101807152D

254260  0  0  1  0  0  0  0  0999 V2000
   18.9914    0.0950    0.0000 O   0  0  0  0  0  0  0  0  0  0  0  0
   17.2594    0.0950    0.0000 O   0  0  0  0  0  0  0  0  0  0  0  0
   13.7953   15.0950    0.0000 O   0  0  0  0  0  0  0  0  0  0  0  0
    6.8671  -14.9050    0.0000 O   0  0  0  0  0  0  0  0  0  0  0  0
   16.3933   15.5950    0.0000 O   0  0  0  0  0  0  0  0  0  0  0  0
    5.1350  -12.9050    0.0000 O   0  0  0  0  0  0  0  0  0  0  0  0
   18.9914    3.0950    0.0000 O   0  0  0  0  0  0  0  0  0  0  0  0
    6.0010  -16.4050    0.0000 O   0  0  0  0  0  0  0  0  0  0  0  0
   12.9292   16.5950    0.0000 O   0  0  0  0  0  0  0  0  0  0  0  0
   15.5273   14.0950    0.0000 O   0  0  0  0  0  0  0  0  0  0  0  0
    6.8671  -12.9050    0.0000 O   0  0  0  0  0  0  0  0  0  0  0  0
   14.6613   -0.4050    0.0000 O   0  0  0  0  0  0  0  0  0  0  0  0
   13.7953   17.0950    0.0000 O   0  0  0  0  0  0  0  0  0  0  0  0
    5.1350  -15.9050    0.0000 O   0  0  0  0  0  0  0  0  0  0  0  0
   18.9914   -1.9050    0.0000 O   0  0  0  0  0  0  0  0  0  0  0  0
   15.5273   -1.9050    0.0000 O   0  0  0  0  0  0  0  0  0  0  0  0
   17.2594   -2.9050    0.0000 O   0  0  0  0  0  0  0  0  0  0  0  0
   17.2594    1.0950    0.0000 O   0  0  0  0  0  0  0  0  0  0  0  0
   13.7953    1.0950    0.0000 O   0  0  0  0  0  0  0  0  0  0  0  0
   15.5273   18.0950    0.0000 O   0  0  0  0  0  0  0  0  0  0  0  0
    3.4030  -14.9050    0.0000 O   0  0  0  0  0  0  0  0  0  0  0  0
   20.7235    1.0950    0.0000 O   0  0  0  0  0  0  0  0  0  0  0  0
   20.7235    3.0950    0.0000 O   0  0  0  0  0  0  0  0  0  0  0  0
    8.5991  -15.9050    0.0000 O   0  0  0  0  0  0  0  0  0  0  0  0
   12.0632   14.0950    0.0000 O   0  0  0  0  0  0  0  0  0  0  0  0
    8.5991  -17.9050    0.0000 O   0  0  0  0  0  0  0  0  0  0  0  0
   10.3312   15.0950    0.0000 O   0  0  0  0  0  0  0  0  0  0  0  0
    6.8671  -18.9050    0.0000 O   0  0  0  0  0  0  0  0  0  0  0  0
   10.3312   17.0950    0.0000 O   0  0  0  0  0  0  0  0  0  0  0  0
   12.9292   -1.4050    0.0000 O   0  0  0  0  0  0  0  0  0  0  0  0
   11.1972   -0.4050    0.0000 O   0  0  0  0  0  0  0  0  0  0  0  0
   17.2594   18.0950    0.0000 O   0  0  0  0  0  0  0  0  0  0  0  0
    2.5369  -13.4050    0.0000 O   0  0  0  0  0  0  0  0  0  0  0  0
   11.1972    1.5950    0.0000 O   0  0  0  0  0  0  0  0  0  0  0  0
    4.2690  -17.4050    0.0000 O   0  0  0  0  0  0  0  0  0  0  0  0
   11.1972   18.5950    0.0000 O   0  0  0  0  0  0  0  0  0  0  0  0
   11.1972   -1.4050    0.0000 O   0  0  0  0  0  0  0  0  0  0  0  0
   12.0632   -4.9050    0.0000 O   0  0  0  0  0  0  0  0  0  0  0  0
   14.6613   15.5950    0.0000 C   0  0  3  0  0  0  0  0  0  0  0  0
    6.0010  -14.4050    0.0000 C   0  0  3  0  0  0  0  0  0  0  0  0
   18.9914    1.0950    0.0000 C   0  0  3  0  0  0  0  0  0  0  0  0
   18.1254   -0.4050    0.0000 C   0  0  3  0  0  0  0  0  0  0  0  0
   14.6613   16.5950    0.0000 C   0  0  3  0  0  0  0  0  0  0  0  0
    5.1350  -14.9050    0.0000 C   0  0  3  0  0  0  0  0  0  0  0  0
   16.3933   -0.4050    0.0000 C   0  0  3  0  0  0  0  0  0  0  0  0
   18.1254   -1.4050    0.0000 C   0  0  3  0  0  0  0  0  0  0  0  0
   16.3933   -1.4050    0.0000 C   0  0  3  0  0  0  0  0  0  0  0  0
   17.2594   -1.9050    0.0000 C   0  0  3  0  0  0  0  0  0  0  0  0
   18.1254    1.5950    0.0000 C   0  0  3  0  0  0  0  0  0  0  0  0
   15.5273   15.0950    0.0000 C   0  0  3  0  0  0  0  0  0  0  0  0
    6.0010  -13.4050    0.0000 C   0  0  3  0  0  0  0  0  0  0  0  0
   15.5273   17.0950    0.0000 C   0  0  3  0  0  0  0  0  0  0  0  0
    4.2690  -14.4050    0.0000 C   0  0  3  0  0  0  0  0  0  0  0  0
   19.8574    1.5950    0.0000 C   0  0  3  0  0  0  0  0  0  0  0  0
   16.3933   16.5950    0.0000 C   0  0  3  0  0  0  0  0  0  0  0  0
    4.2690  -13.4050    0.0000 C   0  0  3  0  0  0  0  0  0  0  0  0
    6.8671  -15.9050    0.0000 C   0  0  3  0  0  0  0  0  0  0  0  0
   12.9292   15.5950    0.0000 C   0  0  3  0  0  0  0  0  0  0  0  0
   18.1254    2.5950    0.0000 C   0  0  3  0  0  0  0  0  0  0  0  0
    7.7331  -16.4050    0.0000 C   0  0  3  0  0  0  0  0  0  0  0  0
   12.0632   15.0950    0.0000 C   0  0  3  0  0  0  0  0  0  0  0  0
   19.8574    2.5950    0.0000 C   0  0  3  0  0  0  0  0  0  0  0  0
    7.7331  -17.4050    0.0000 C   0  0  3  0  0  0  0  0  0  0  0  0
   11.1972   15.5950    0.0000 C   0  0  3  0  0  0  0  0  0  0  0  0
    6.8671  -17.9050    0.0000 C   0  0  3  0  0  0  0  0  0  0  0  0
   11.1972   16.5950    0.0000 C   0  0  3  0  0  0  0  0  0  0  0  0
   15.5273    0.0950    0.0000 C   0  0  0  0  0  0  0  0  0  0  0  0
    6.0010  -17.4050    0.0000 C   0  0  3  0  0  0  0  0  0  0  0  0
   12.0632   17.0950    0.0000 C   0  0  3  0  0  0  0  0  0  0  0  0
   13.7953    0.0950    0.0000 C   0  0  3  0  0  0  0  0  0  0  0  0
   12.9292   -0.4050    0.0000 C   0  0  3  0  0  0  0  0  0  0  0  0
   16.3933   13.5950    0.0000 C   0  0  3  0  0  0  0  0  0  0  0  0
    6.8671  -11.9050    0.0000 C   0  0  3  0  0  0  0  0  0  0  0  0
   12.0632    0.0950    0.0000 C   0  0  3  0  0  0  0  0  0  0  0  0
   17.2594   17.0950    0.0000 C   0  0  0  0  0  0  0  0  0  0  0  0
    3.4030  -12.9050    0.0000 C   0  0  0  0  0  0  0  0  0  0  0  0
   12.0632    1.0950    0.0000 C   0  0  3  0  0  0  0  0  0  0  0  0
   12.9292    1.5950    0.0000 C   0  0  3  0  0  0  0  0  0  0  0  0
   17.2594    3.0950    0.0000 C   0  0  0  0  0  0  0  0  0  0  0  0
    5.1350  -17.9050    0.0000 C   0  0  0  0  0  0  0  0  0  0  0  0
   12.0632   18.0950    0.0000 C   0  0  0  0  0  0  0  0  0  0  0  0
   17.2594   13.0950    0.0000 C   0  0  0  0  0  0  0  0  0  0  0  0
    6.8671  -10.9050    0.0000 C   0  0  0  0  0  0  0  0  0  0  0  0
   15.8933   12.7290    0.0000 C   0  0  0  0  0  0  0  0  0  0  0  0
    7.8671  -11.9050    0.0000 C   0  0  0  0  0  0  0  0  0  0  0  0
   16.8933   14.4610    0.0000 C   0  0  0  0  0  0  0  0  0  0  0  0
    5.8671  -11.9050    0.0000 C   0  0  0  0  0  0  0  0  0  0  0  0
   12.9292    2.5950    0.0000 C   0  0  0  0  0  0  0  0  0  0  0  0
   17.2594   12.0950    0.0000 C   0  0  0  0  0  0  0  0  0  0  0  0
    7.7331  -10.4050    0.0000 C   0  0  0  0  0  0  0  0  0  0  0  0
   20.7235    4.0950    0.0000 C   0  0  0  0  0  0  0  0  0  0  0  0
   21.5895    4.5950    0.0000 C   0  0  0  0  0  0  0  0  0  0  0  0
   18.1254   11.5950    0.0000 C   0  0  0  0  0  0  0  0  0  0  0  0
    7.7331   -9.4050    0.0000 C   0  0  0  0  0  0  0  0  0  0  0  0
   12.0632   -1.9050    0.0000 C   0  0  0  0  0  0  0  0  0  0  0  0
   17.8933   14.4610    0.0000 C   0  0  0  0  0  0  0  0  0  0  0  0
    5.3671  -11.0390    0.0000 C   0  0  0  0  0  0  0  0  0  0  0  0
   18.1254   10.5950    0.0000 C   0  0  0  0  0  0  0  0  0  0  0  0
    8.5991   -8.9050    0.0000 C   0  0  0  0  0  0  0  0  0  0  0  0
   21.5895    5.5950    0.0000 C   0  0  0  0  0  0  0  0  0  0  0  0
   22.4555    4.0950    0.0000 C   0  0  0  0  0  0  0  0  0  0  0  0
   12.0632   -2.9050    0.0000 C   0  0  0  0  0  0  0  0  0  0  0  0
   18.9914   10.0950    0.0000 C   0  0  0  0  0  0  0  0  0  0  0  0
    8.5991   -7.9050    0.0000 C   0  0  0  0  0  0  0  0  0  0  0  0
   20.7235    6.0950    0.0000 C   0  0  0  0  0  0  0  0  0  0  0  0
   17.2594   10.0950    0.0000 C   0  0  0  0  0  0  0  0  0  0  0  0
    9.4651   -9.4050    0.0000 C   0  0  0  0  0  0  0  0  0  0  0  0
   18.9914    9.0950    0.0000 C   0  0  0  0  0  0  0  0  0  0  0  0
   20.7235    7.0950    0.0000 C   0  0  0  0  0  0  0  0  0  0  0  0
   11.1972   -3.4050    0.0000 C   0  0  0  0  0  0  0  0  0  0  0  0
    9.4651   -7.4050    0.0000 C   0  0  0  0  0  0  0  0  0  0  0  0
   12.9292   -3.4050    0.0000 C   0  0  0  0  0  0  0  0  0  0  0  0
   11.1972   -4.4050    0.0000 C   0  0  3  0  0  0  0  0  0  0  0  0
   19.8574    7.5950    0.0000 C   0  0  0  0  0  0  0  0  0  0  0  0
   19.8574    8.5950    0.0000 C   0  0  0  0  0  0  0  0  0  0  0  0
   10.3312   -4.9050    0.0000 C   0  0  0  0  0  0  0  0  0  0  0  0
    9.4651   -6.4050    0.0000 C   0  0  0  0  0  0  0  0  0  0  0  0
   10.3312   -5.9050    0.0000 C   0  0  0  0  0  0  0  0  0  0  0  0
   18.9914    7.0950    0.0000 C   0  0  0  0  0  0  0  0  0  0  0  0
   11.1972   -6.4050    0.0000 C   0  0  0  0  0  0  0  0  0  0  0  0
   14.1244   15.9050    0.0000 H   0  0  0  0  0  0  0  0  0  0  0  0
    6.0010  -15.0250    0.0000 H   0  0  0  0  0  0  0  0  0  0  0  0
   19.5284    0.7850    0.0000 H   0  0  0  0  0  0  0  0  0  0  0  0
   18.1254    0.2150    0.0000 H   0  0  0  0  0  0  0  0  0  0  0  0
   14.6613   17.2150    0.0000 H   0  0  0  0  0  0  0  0  0  0  0  0
    4.5981  -15.2150    0.0000 H   0  0  0  0  0  0  0  0  0  0  0  0
   16.3933    0.2150    0.0000 H   0  0  0  0  0  0  0  0  0  0  0  0
   18.1254   -2.0250    0.0000 H   0  0  0  0  0  0  0  0  0  0  0  0
   15.8564   -1.0950    0.0000 H   0  0  0  0  0  0  0  0  0  0  0  0
   16.7224   -2.2150    0.0000 H   0  0  0  0  0  0  0  0  0  0  0  0
   18.1254    0.9750    0.0000 H   0  0  0  0  0  0  0  0  0  0  0  0
   14.9904   14.7850    0.0000 H   0  0  0  0  0  0  0  0  0  0  0  0
    6.5380  -13.7150    0.0000 H   0  0  0  0  0  0  0  0  0  0  0  0
   16.0643   17.4050    0.0000 H   0  0  0  0  0  0  0  0  0  0  0  0
    3.7320  -14.0950    0.0000 H   0  0  0  0  0  0  0  0  0  0  0  0
   20.3944    1.9050    0.0000 H   0  0  0  0  0  0  0  0  0  0  0  0
   16.9303   16.2850    0.0000 H   0  0  0  0  0  0  0  0  0  0  0  0
    4.2690  -12.7850    0.0000 H   0  0  0  0  0  0  0  0  0  0  0  0
    7.4040  -15.5950    0.0000 H   0  0  0  0  0  0  0  0  0  0  0  0
   12.9292   14.9750    0.0000 H   0  0  0  0  0  0  0  0  0  0  0  0
   18.1254    3.2150    0.0000 H   0  0  0  0  0  0  0  0  0  0  0  0
    8.2700  -16.7150    0.0000 H   0  0  0  0  0  0  0  0  0  0  0  0
   11.5263   14.7850    0.0000 H   0  0  0  0  0  0  0  0  0  0  0  0
   19.8574    3.2150    0.0000 H   0  0  0  0  0  0  0  0  0  0  0  0
    7.7331  -18.0250    0.0000 H   0  0  0  0  0  0  0  0  0  0  0  0
   10.6603   15.9050    0.0000 H   0  0  0  0  0  0  0  0  0  0  0  0
    6.3301  -18.2150    0.0000 H   0  0  0  0  0  0  0  0  0  0  0  0
   11.1972   17.2150    0.0000 H   0  0  0  0  0  0  0  0  0  0  0  0
   15.9258    0.5699    0.0000 H   0  0  0  0  0  0  0  0  0  0  0  0
   15.1288    0.5699    0.0000 H   0  0  0  0  0  0  0  0  0  0  0  0
    5.4641  -17.0950    0.0000 H   0  0  0  0  0  0  0  0  0  0  0  0
   12.6002   17.4050    0.0000 H   0  0  0  0  0  0  0  0  0  0  0  0
   13.7953   -0.5250    0.0000 H   0  0  0  0  0  0  0  0  0  0  0  0
   12.3923   -0.7150    0.0000 H   0  0  0  0  0  0  0  0  0  0  0  0
   11.5263    0.4050    0.0000 H   0  0  0  0  0  0  0  0  0  0  0  0
   17.4714   16.5124    0.0000 H   0  0  0  0  0  0  0  0  0  0  0  0
   17.8699   17.2027    0.0000 H   0  0  0  0  0  0  0  0  0  0  0  0
    3.8015  -12.4301    0.0000 H   0  0  0  0  0  0  0  0  0  0  0  0
    3.0044  -12.4301    0.0000 H   0  0  0  0  0  0  0  0  0  0  0  0
   12.0632    1.7150    0.0000 H   0  0  0  0  0  0  0  0  0  0  0  0
   13.4662    1.9050    0.0000 H   0  0  0  0  0  0  0  0  0  0  0  0
   17.5694    3.6319    0.0000 H   0  0  0  0  0  0  0  0  0  0  0  0
   16.7224    3.4050    0.0000 H   0  0  0  0  0  0  0  0  0  0  0  0
   16.9494    2.5581    0.0000 H   0  0  0  0  0  0  0  0  0  0  0  0
    4.7365  -18.3799    0.0000 H   0  0  0  0  0  0  0  0  0  0  0  0
    5.5335  -18.3799    0.0000 H   0  0  0  0  0  0  0  0  0  0  0  0
   12.6738   17.9873    0.0000 H   0  0  0  0  0  0  0  0  0  0  0  0
   12.2753   18.6776    0.0000 H   0  0  0  0  0  0  0  0  0  0  0  0
   13.7953   17.7150    0.0000 H   0  0  0  0  0  0  0  0  0  0  0  0
    4.5981  -16.2150    0.0000 H   0  0  0  0  0  0  0  0  0  0  0  0
   19.5284   -1.5950    0.0000 H   0  0  0  0  0  0  0  0  0  0  0  0
   15.5273   -2.5250    0.0000 H   0  0  0  0  0  0  0  0  0  0  0  0
   17.7963   -3.2150    0.0000 H   0  0  0  0  0  0  0  0  0  0  0  0
   17.8699   12.9873    0.0000 H   0  0  0  0  0  0  0  0  0  0  0  0
   17.4714   13.6776    0.0000 H   0  0  0  0  0  0  0  0  0  0  0  0
    6.6550  -10.3224    0.0000 H   0  0  0  0  0  0  0  0  0  0  0  0
    6.2565  -11.0127    0.0000 H   0  0  0  0  0  0  0  0  0  0  0  0
   16.7224    1.4050    0.0000 H   0  0  0  0  0  0  0  0  0  0  0  0
   14.9904   18.4050    0.0000 H   0  0  0  0  0  0  0  0  0  0  0  0
    3.4030  -15.5250    0.0000 H   0  0  0  0  0  0  0  0  0  0  0  0
   21.2604    1.4050    0.0000 H   0  0  0  0  0  0  0  0  0  0  0  0
    9.1360  -16.2150    0.0000 H   0  0  0  0  0  0  0  0  0  0  0  0
   11.5263   13.7850    0.0000 H   0  0  0  0  0  0  0  0  0  0  0  0
   15.3564   13.0390    0.0000 H   0  0  0  0  0  0  0  0  0  0  0  0
   15.5833   12.1920    0.0000 H   0  0  0  0  0  0  0  0  0  0  0  0
   16.4303   12.4190    0.0000 H   0  0  0  0  0  0  0  0  0  0  0  0
    7.8671  -12.5250    0.0000 H   0  0  0  0  0  0  0  0  0  0  0  0
    8.4871  -11.9050    0.0000 H   0  0  0  0  0  0  0  0  0  0  0  0
    7.8671  -11.2850    0.0000 H   0  0  0  0  0  0  0  0  0  0  0  0
    8.5991  -18.5250    0.0000 H   0  0  0  0  0  0  0  0  0  0  0  0
    9.7942   15.4050    0.0000 H   0  0  0  0  0  0  0  0  0  0  0  0
    6.3301  -19.2150    0.0000 H   0  0  0  0  0  0  0  0  0  0  0  0
    9.7942   16.7850    0.0000 H   0  0  0  0  0  0  0  0  0  0  0  0
   16.5833   14.9980    0.0000 H   0  0  0  0  0  0  0  0  0  0  0  0
    5.5571  -12.4419    0.0000 H   0  0  0  0  0  0  0  0  0  0  0  0
   13.5492    2.5950    0.0000 H   0  0  0  0  0  0  0  0  0  0  0  0
   12.9292    3.2150    0.0000 H   0  0  0  0  0  0  0  0  0  0  0  0
   12.3092    2.5950    0.0000 H   0  0  0  0  0  0  0  0  0  0  0  0
   16.6488   12.2027    0.0000 H   0  0  0  0  0  0  0  0  0  0  0  0
   17.0473   11.5124    0.0000 H   0  0  0  0  0  0  0  0  0  0  0  0
    7.9451  -10.9876    0.0000 H   0  0  0  0  0  0  0  0  0  0  0  0
    8.3437  -10.2973    0.0000 H   0  0  0  0  0  0  0  0  0  0  0  0
   20.5114    4.6776    0.0000 H   0  0  0  0  0  0  0  0  0  0  0  0
   20.1129    3.9873    0.0000 H   0  0  0  0  0  0  0  0  0  0  0  0
   10.6603   -0.0950    0.0000 H   0  0  0  0  0  0  0  0  0  0  0  0
   17.7963   18.4050    0.0000 H   0  0  0  0  0  0  0  0  0  0  0  0
    2.0000  -13.0950    0.0000 H   0  0  0  0  0  0  0  0  0  0  0  0
   11.1972    2.2150    0.0000 H   0  0  0  0  0  0  0  0  0  0  0  0
    3.7320  -17.7150    0.0000 H   0  0  0  0  0  0  0  0  0  0  0  0
   11.1972   19.2150    0.0000 H   0  0  0  0  0  0  0  0  0  0  0  0
   18.6623   11.9050    0.0000 H   0  0  0  0  0  0  0  0  0  0  0  0
    7.1962   -9.0950    0.0000 H   0  0  0  0  0  0  0  0  0  0  0  0
   18.2033   13.9241    0.0000 H   0  0  0  0  0  0  0  0  0  0  0  0
   18.2033   14.9980    0.0000 H   0  0  0  0  0  0  0  0  0  0  0  0
    5.6771  -10.5020    0.0000 H   0  0  0  0  0  0  0  0  0  0  0  0
    4.7471  -11.0390    0.0000 H   0  0  0  0  0  0  0  0  0  0  0  0
   22.1264    5.9050    0.0000 H   0  0  0  0  0  0  0  0  0  0  0  0
   22.1455    3.5581    0.0000 H   0  0  0  0  0  0  0  0  0  0  0  0
   22.9925    3.7850    0.0000 H   0  0  0  0  0  0  0  0  0  0  0  0
   22.7655    4.6319    0.0000 H   0  0  0  0  0  0  0  0  0  0  0  0
   19.6020    9.9873    0.0000 H   0  0  0  0  0  0  0  0  0  0  0  0
   19.2035   10.6776    0.0000 H   0  0  0  0  0  0  0  0  0  0  0  0
    8.3871   -7.3224    0.0000 H   0  0  0  0  0  0  0  0  0  0  0  0
    7.9885   -8.0127    0.0000 H   0  0  0  0  0  0  0  0  0  0  0  0
   20.1129    6.2027    0.0000 H   0  0  0  0  0  0  0  0  0  0  0  0
   20.5114    5.5124    0.0000 H   0  0  0  0  0  0  0  0  0  0  0  0
   16.9494   10.6319    0.0000 H   0  0  0  0  0  0  0  0  0  0  0  0
   16.7224    9.7850    0.0000 H   0  0  0  0  0  0  0  0  0  0  0  0
   17.5694    9.5581    0.0000 H   0  0  0  0  0  0  0  0  0  0  0  0
    9.1551   -9.9419    0.0000 H   0  0  0  0  0  0  0  0  0  0  0  0
   10.0021   -9.7150    0.0000 H   0  0  0  0  0  0  0  0  0  0  0  0
    9.7751   -8.8681    0.0000 H   0  0  0  0  0  0  0  0  0  0  0  0
   18.3808    9.2027    0.0000 H   0  0  0  0  0  0  0  0  0  0  0  0
   18.7794    8.5124    0.0000 H   0  0  0  0  0  0  0  0  0  0  0  0
   21.3340    6.9873    0.0000 H   0  0  0  0  0  0  0  0  0  0  0  0
   20.9355    7.6776    0.0000 H   0  0  0  0  0  0  0  0  0  0  0  0
   10.6603   -3.0950    0.0000 H   0  0  0  0  0  0  0  0  0  0  0  0
    9.6772   -7.9876    0.0000 H   0  0  0  0  0  0  0  0  0  0  0  0
   10.0757   -7.2973    0.0000 H   0  0  0  0  0  0  0  0  0  0  0  0
   12.6192   -3.9419    0.0000 H   0  0  0  0  0  0  0  0  0  0  0  0
   13.4662   -3.7150    0.0000 H   0  0  0  0  0  0  0  0  0  0  0  0
   13.2392   -2.8681    0.0000 H   0  0  0  0  0  0  0  0  0  0  0  0
   11.7341   -4.0950    0.0000 H   0  0  0  0  0  0  0  0  0  0  0  0
   20.3944    8.9050    0.0000 H   0  0  0  0  0  0  0  0  0  0  0  0
   10.1191   -4.3224    0.0000 H   0  0  0  0  0  0  0  0  0  0  0  0
    9.7206   -5.0127    0.0000 H   0  0  0  0  0  0  0  0  0  0  0  0
    8.9282   -6.0950    0.0000 H   0  0  0  0  0  0  0  0  0  0  0  0
   18.6814    7.6319    0.0000 H   0  0  0  0  0  0  0  0  0  0  0  0
   18.4545    6.7850    0.0000 H   0  0  0  0  0  0  0  0  0  0  0  0
   19.3014    6.5581    0.0000 H   0  0  0  0  0  0  0  0  0  0  0  0
   10.8872   -6.9419    0.0000 H   0  0  0  0  0  0  0  0  0  0  0  0
   11.7341   -6.7150    0.0000 H   0  0  0  0  0  0  0  0  0  0  0  0
   11.5072   -5.8681    0.0000 H   0  0  0  0  0  0  0  0  0  0  0  0
   12.0632   -5.5250    0.0000 H   0  0  0  0  0  0  0  0  0  0  0  0
  1 41  1  0  0  0  0
  1 42  1  0  0  0  0
  2 42  1  0  0  0  0
  2 45  1  0  0  0  0
  3 39  1  0  0  0  0
  3 58  1  0  0  0  0
  4 40  1  0  0  0  0
  4 57  1  0  0  0  0
  5 50  1  0  0  0  0
  5 55  1  0  0  0  0
  6 51  1  0  0  0  0
  6 56  1  0  0  0  0
  7 59  1  0  0  0  0
  7 62  1  0  0  0  0
  8 57  1  0  0  0  0
  8 68  1  0  0  0  0
  9 58  1  0  0  0  0
  9 69  1  0  0  0  0
 10 50  1  0  0  0  0
 10 72  1  0  0  0  0
 11 51  1  0  0  0  0
 11 73  1  0  0  0  0
 12 67  1  0  0  0  0
 12 70  1  0  0  0  0
 13 43  1  0  0  0  0
 13169  1  0  0  0  0
 14 44  1  0  0  0  0
 14170  1  0  0  0  0
 15 46  1  0  0  0  0
 15171  1  0  0  0  0
 16 47  1  0  0  0  0
 16172  1  0  0  0  0
 17 48  1  0  0  0  0
 17173  1  0  0  0  0
 18 49  1  0  0  0  0
 18178  1  0  0  0  0
 19 70  1  0  0  0  0
 19 78  1  0  0  0  0
 20 52  1  0  0  0  0
 20179  1  0  0  0  0
 21 53  1  0  0  0  0
 21180  1  0  0  0  0
 22 54  1  0  0  0  0
 22181  1  0  0  0  0
 23 62  1  0  0  0  0
 23 91  1  0  0  0  0
 24 60  1  0  0  0  0
 24182  1  0  0  0  0
 25 61  1  0  0  0  0
 25183  1  0  0  0  0
 26 63  1  0  0  0  0
 26190  1  0  0  0  0
 27 64  1  0  0  0  0
 27191  1  0  0  0  0
 28 65  1  0  0  0  0
 28192  1  0  0  0  0
 29 66  1  0  0  0  0
 29193  1  0  0  0  0
 30 71  1  0  0  0  0
 30 95  1  0  0  0  0
 31 74  1  0  0  0  0
 31205  1  0  0  0  0
 32 75  1  0  0  0  0
 32206  1  0  0  0  0
 33 76  1  0  0  0  0
 33207  1  0  0  0  0
 34 77  1  0  0  0  0
 34208  1  0  0  0  0
 35 80  1  0  0  0  0
 35209  1  0  0  0  0
 36 81  1  0  0  0  0
 36210  1  0  0  0  0
 37 95  2  0  0  0  0
 38113  1  0  0  0  0
 38254  1  0  0  0  0
 39 43  1  0  0  0  0
 39 50  1  0  0  0  0
 39121  1  0  0  0  0
 40 44  1  0  0  0  0
 40 51  1  0  0  0  0
 40122  1  0  0  0  0
 41 49  1  0  0  0  0
 41 54  1  0  0  0  0
 41123  1  0  0  0  0
 42 46  1  0  0  0  0
 42124  1  0  0  0  0
 43 52  1  0  0  0  0
 43125  1  0  0  0  0
 44 53  1  0  0  0  0
 44126  1  0  0  0  0
 45 47  1  0  0  0  0
 45 67  1  0  0  0  0
 45127  1  0  0  0  0
 46 48  1  0  0  0  0
 46128  1  0  0  0  0
 47 48  1  0  0  0  0
 47129  1  0  0  0  0
 48130  1  0  0  0  0
 49 59  1  0  0  0  0
 49131  1  0  0  0  0
 50132  1  0  0  0  0
 51133  1  0  0  0  0
 52 55  1  0  0  0  0
 52134  1  0  0  0  0
 53 56  1  0  0  0  0
 53135  1  0  0  0  0
 54 62  1  0  0  0  0
 54136  1  0  0  0  0
 55 75  1  0  0  0  0
 55137  1  0  0  0  0
 56 76  1  0  0  0  0
 56138  1  0  0  0  0
 57 60  1  0  0  0  0
 57139  1  0  0  0  0
 58 61  1  0  0  0  0
 58140  1  0  0  0  0
 59 79  1  0  0  0  0
 59141  1  0  0  0  0
 60 63  1  0  0  0  0
 60142  1  0  0  0  0
 61 64  1  0  0  0  0
 61143  1  0  0  0  0
 62144  1  0  0  0  0
 63 65  1  0  0  0  0
 63145  1  0  0  0  0
 64 66  1  0  0  0  0
 64146  1  0  0  0  0
 65 68  1  0  0  0  0
 65147  1  0  0  0  0
 66 69  1  0  0  0  0
 66148  1  0  0  0  0
 67149  1  0  0  0  0
 67150  1  0  0  0  0
 68 80  1  0  0  0  0
 68151  1  0  0  0  0
 69 81  1  0  0  0  0
 69152  1  0  0  0  0
 70 71  1  0  0  0  0
 70153  1  0  0  0  0
 71 74  1  0  0  0  0
 71154  1  0  0  0  0
 72 82  1  0  0  0  0
 72 84  1  0  0  0  0
 72 86  1  0  0  0  0
 73 83  1  0  0  0  0
 73 85  1  0  0  0  0
 73 87  1  0  0  0  0
 74 77  1  0  0  0  0
 74155  1  0  0  0  0
 75156  1  0  0  0  0
 75157  1  0  0  0  0
 76158  1  0  0  0  0
 76159  1  0  0  0  0
 77 78  1  0  0  0  0
 77160  1  0  0  0  0
 78 88  1  0  0  0  0
 78161  1  0  0  0  0
 79162  1  0  0  0  0
 79163  1  0  0  0  0
 79164  1  0  0  0  0
 80165  1  0  0  0  0
 80166  1  0  0  0  0
 81167  1  0  0  0  0
 81168  1  0  0  0  0
 82 89  1  0  0  0  0
 82174  1  0  0  0  0
 82175  1  0  0  0  0
 83 90  1  0  0  0  0
 83176  1  0  0  0  0
 83177  1  0  0  0  0
 84184  1  0  0  0  0
 84185  1  0  0  0  0
 84186  1  0  0  0  0
 85187  1  0  0  0  0
 85188  1  0  0  0  0
 85189  1  0  0  0  0
 86 96  2  0  0  0  0
 86194  1  0  0  0  0
 87 97  2  0  0  0  0
 87195  1  0  0  0  0
 88196  1  0  0  0  0
 88197  1  0  0  0  0
 88198  1  0  0  0  0
 89 93  1  0  0  0  0
 89199  1  0  0  0  0
 89200  1  0  0  0  0
 90 94  1  0  0  0  0
 90201  1  0  0  0  0
 90202  1  0  0  0  0
 91 92  1  0  0  0  0
 91203  1  0  0  0  0
 91204  1  0  0  0  0
 92100  2  0  0  0  0
 92101  1  0  0  0  0
 93 98  2  0  0  0  0
 93211  1  0  0  0  0
 94 99  2  0  0  0  0
 94212  1  0  0  0  0
 95102  1  0  0  0  0
 96213  1  0  0  0  0
 96214  1  0  0  0  0
 97215  1  0  0  0  0
 97216  1  0  0  0  0
 98103  1  0  0  0  0
 98106  1  0  0  0  0
 99104  1  0  0  0  0
 99107  1  0  0  0  0
100105  1  0  0  0  0
100217  1  0  0  0  0
101218  1  0  0  0  0
101219  1  0  0  0  0
101220  1  0  0  0  0
102110  2  0  0  0  0
102112  1  0  0  0  0
103108  1  0  0  0  0
103221  1  0  0  0  0
103222  1  0  0  0  0
104111  1  0  0  0  0
104223  1  0  0  0  0
104224  1  0  0  0  0
105109  1  0  0  0  0
105225  1  0  0  0  0
105226  1  0  0  0  0
106227  1  0  0  0  0
106228  1  0  0  0  0
106229  1  0  0  0  0
107230  1  0  0  0  0
107231  1  0  0  0  0
107232  1  0  0  0  0
108115  1  0  0  0  0
108233  1  0  0  0  0
108234  1  0  0  0  0
109114  1  0  0  0  0
109235  1  0  0  0  0
109236  1  0  0  0  0
110113  1  0  0  0  0
110237  1  0  0  0  0
111117  1  0  0  0  0
111238  1  0  0  0  0
111239  1  0  0  0  0
112240  1  0  0  0  0
112241  1  0  0  0  0
112242  1  0  0  0  0
113116  1  0  0  0  0
113243  1  0  0  0  0
114115  2  0  0  0  0
114119  1  0  0  0  0
115244  1  0  0  0  0
116118  1  0  0  0  0
116245  1  0  0  0  0
116246  1  0  0  0  0
117118  2  0  0  0  0
117247  1  0  0  0  0
118120  1  0  0  0  0
119248  1  0  0  0  0
119249  1  0  0  0  0
119250  1  0  0  0  0
120251  1  0  0  0  0
120252  1  0  0  0  0
120253  1  0  0  0  0
M  END
>  <PUBCHEM_COMPOUND_CID>
118550826

>  <PUBCHEM_COMPOUND_CANONICALIZED>
1

>  <PUBCHEM_CACTVS_COMPLEXITY>
3340

>  <PUBCHEM_CACTVS_HBOND_ACCEPTOR>
38

>  <PUBCHEM_CACTVS_HBOND_DONOR>
22

>  <PUBCHEM_CACTVS_ROTATABLE_BOND>
43

>  <PUBCHEM_CACTVS_SUBSKEYS>
AAADcfB8PgAAAAAAAAAAAAAAAAAAAAAAAAAkSJEiQAAAAAAAAAAAGgAACAAADFSwgAMCCAAABgCIAiDSCAAAAAAgAAAICAEAAEgRFAIAIQAiUAAFwAAPMYPAYAwMAAAAAAAAAAAAAAAAAAAAAAAAAAAAAA==

>  <PUBCHEM_IUPAC_OPENEYE_NAME>
[2-[[6-[2-[(2Z,6E,10E)-14-[4,5-dihydroxy-6-(hydroxymethyl)-3-[3,4,5-trihydroxy-6-(hydroxymethyl)tetrahydropyran-2-yl]oxy-tetrahydropyran-2-yl]oxy-2,6,10,14-tetramethyl-hexadeca-2,6,10,15-tetraenoxy]-3,5-dihydroxy-6-methyl-tetrahydropyran-4-yl]oxy-3,4,5-trihydroxy-tetrahydropyran-2-yl]methoxy]-4,5-dihydroxy-6-methyl-tetrahydropyran-3-yl] (2E,6E,10E)-14-[4,5-dihydroxy-6-(hydroxymethyl)-3-[3,4,5-trihydroxy-6-(hydroxymethyl)tetrahydropyran-2-yl]oxy-tetrahydropyran-2-yl]oxy-4-hydroxy-2,6,10,14-tetramethyl-hexadeca-2,6,10,15-tetraenoate

>  <PUBCHEM_IUPAC_CAS_NAME>
(2E,6E,10E)-14-[[4,5-dihydroxy-6-(hydroxymethyl)-3-[[3,4,5-trihydroxy-6-(hydroxymethyl)-2-oxanyl]oxy]-2-oxanyl]oxy]-4-hydroxy-2,6,10,14-tetramethylhexadeca-2,6,10,15-tetraenoic acid [2-[[6-[[2-[(2Z,6E,10E)-14-[[4,5-dihydroxy-6-(hydroxymethyl)-3-[[3,4,5-trihydroxy-6-(hydroxymethyl)-2-oxanyl]oxy]-2-oxanyl]oxy]-2,6,10,14-tetramethylhexadeca-2,6,10,15-tetraenoxy]-3,5-dihydroxy-6-methyl-4-oxanyl]oxy]-3,4,5-trihydroxy-2-oxanyl]methoxy]-4,5-dihydroxy-6-methyl-3-oxanyl] ester

>  <PUBCHEM_IUPAC_NAME>
[2-[[6-[2-[(2Z,6E,10E)-14-[4,5-dihydroxy-6-(hydroxymethyl)-3-[3,4,5-trihydroxy-6-(hydroxymethyl)oxan-2-yl]oxyoxan-2-yl]oxy-2,6,10,14-tetramethylhexadeca-2,6,10,15-tetraenoxy]-3,5-dihydroxy-6-methyloxan-4-yl]oxy-3,4,5-trihydroxyoxan-2-yl]methoxy]-4,5-dihydroxy-6-methyloxan-3-yl] (2E,6E,10E)-14-[4,5-dihydroxy-6-(hydroxymethyl)-3-[3,4,5-trihydroxy-6-(hydroxymethyl)oxan-2-yl]oxyoxan-2-yl]oxy-4-hydroxy-2,6,10,14-tetramethylhexadeca-2,6,10,15-tetraenoate

>  <PUBCHEM_IUPAC_SYSTEMATIC_NAME>
[2-[[6-[2-[(2Z,6E,10E)-14-[6-(hydroxymethyl)-3-[6-(hydroxymethyl)-3,4,5-tris(oxidanyl)oxan-2-yl]oxy-4,5-bis(oxidanyl)oxan-2-yl]oxy-2,6,10,14-tetramethyl-hexadeca-2,6,10,15-tetraenoxy]-6-methyl-3,5-bis(oxidanyl)oxan-4-yl]oxy-3,4,5-tris(oxidanyl)oxan-2-yl]methoxy]-6-methyl-4,5-bis(oxidanyl)oxan-3-yl] (2E,6E,10E)-14-[6-(hydroxymethyl)-3-[6-(hydroxymethyl)-3,4,5-tris(oxidanyl)oxan-2-yl]oxy-4,5-bis(oxidanyl)oxan-2-yl]oxy-2,6,10,14-tetramethyl-4-oxidanyl-hexadeca-2,6,10,15-tetraenoate

>  <PUBCHEM_IUPAC_TRADITIONAL_NAME>
(2E,6E,10E)-14-[4,5-dihydroxy-6-methylol-3-(3,4,5-trihydroxy-6-methylol-tetrahydropyran-2-yl)oxy-tetrahydropyran-2-yl]oxy-4-hydroxy-2,6,10,14-tetramethyl-hexadeca-2,6,10,15-tetraenoic acid [2-[[6-[2-[(2Z,6E,10E)-14-[4,5-dihydroxy-6-methylol-3-(3,4,5-trihydroxy-6-methylol-tetrahydropyran-2-yl)oxy-tetrahydropyran-2-yl]oxy-2,6,10,14-tetramethyl-hexadeca-2,6,10,15-tetraenoxy]-3,5-dihydroxy-6-methyl-tetrahydropyran-4-yl]oxy-3,4,5-trihydroxy-tetrahydropyran-2-yl]methoxy]-4,5-dihydroxy-6-methyl-tetrahydropyran-3-yl] ester

>  <PUBCHEM_IUPAC_INCHI>
InChI=1S/C82H134O38/c1-13-81(11,119-79-71(63(99)56(92)49(34-85)112-79)117-75-65(101)59(95)54(90)47(32-83)110-75)28-18-26-39(4)21-15-20-38(3)23-17-25-42(7)36-106-74-68(104)69(53(89)45(10)108-74)116-77-67(103)61(97)58(94)51(114-77)37-107-78-70(62(98)52(88)44(9)109-78)115-73(105)43(8)31-46(87)30-41(6)24-16-22-40(5)27-19-29-82(12,14-2)120-80-72(64(100)57(93)50(35-86)113-80)118-76-66(102)60(96)55(91)48(33-84)111-76/h13-14,20,24-27,31,44-72,74-80,83-104H,1-2,15-19,21-23,28-30,32-37H2,3-12H3/b38-20+,39-26+,40-27+,41-24+,42-25-,43-31+

>  <PUBCHEM_IUPAC_INCHIKEY>
AWBYFCMZVKGNSB-RPQRBYGFSA-N

>  <PUBCHEM_XLOGP3_AA>
-0.7

>  <PUBCHEM_EXACT_MASS>
1726.855

>  <PUBCHEM_MOLECULAR_FORMULA>
C82H134O38

>  <PUBCHEM_MOLECULAR_WEIGHT>
1727.936

>  <PUBCHEM_OPENEYE_CAN_SMILES>
CC1C(C(C(C(O1)OCC2C(C(C(C(O2)OC3C(C(OC(C3O)OCC(=CCCC(=CCCC(=CCCC(C)(C=C)OC4C(C(C(C(O4)CO)O)O)OC5C(C(C(C(O5)CO)O)O)O)C)C)C)C)O)O)O)O)OC(=O)C(=CC(CC(=CCCC(=CCCC(C)(C=C)OC6C(C(C(C(O6)CO)O)O)OC7C(C(C(C(O7)CO)O)O)O)C)C)O)C)O)O

>  <PUBCHEM_OPENEYE_ISO_SMILES>
CC1C(C(C(C(O1)OCC2C(C(C(C(O2)OC3C(C(OC(C3O)OC/C(=C\CC/C(=C/CC/C(=C/CCC(C)(C=C)OC4C(C(C(C(O4)CO)O)O)OC5C(C(C(C(O5)CO)O)O)O)/C)/C)/C)C)O)O)O)O)OC(=O)/C(=C/C(C/C(=C/CC/C(=C/CCC(C)(C=C)OC6C(C(C(C(O6)CO)O)O)OC7C(C(C(C(O7)CO)O)O)O)/C)/C)O)/C)O)O

>  <PUBCHEM_CACTVS_TPSA>
601

>  <PUBCHEM_MONOISOTOPIC_WEIGHT>
1726.855

>  <PUBCHEM_TOTAL_CHARGE>
0

>  <PUBCHEM_HEAVY_ATOM_COUNT>
120

>  <PUBCHEM_ATOM_DEF_STEREO_COUNT>
0

>  <PUBCHEM_ATOM_UDEF_STEREO_COUNT>
38

>  <PUBCHEM_BOND_DEF_STEREO_COUNT>
6

>  <PUBCHEM_BOND_UDEF_STEREO_COUNT>
0

>  <PUBCHEM_ISOTOPIC_ATOM_COUNT>
0

>  <PUBCHEM_COMPONENT_COUNT>
1

>  <PUBCHEM_CACTVS_TAUTO_COUNT>
1

>  <PUBCHEM_COORDINATE_TYPE>
1
5
255

>  <PUBCHEM_BONDANNOTATIONS>
41  1  3
42  1  3
50  10  3
51  11  3
70  12  3
43  13  3
44  14  3
46  15  3
47  16  3
48  17  3
49  18  3
52  20  3
53  21  3
54  22  3
62  23  3
60  24  3
61  25  3
63  26  3
64  27  3
65  28  3
66  29  3
39  3  3
58  3  3
71  30  3
74  31  3
77  34  3
113  38  3
40  4  3
57  4  3
45  67  3
55  75  3
56  76  3
59  79  3
68  80  3
69  81  3
72  84  3
73  85  3
78  88  3

$$$$
