118726653
 OpenBabel06101807152D

 40 43  0  0  0  0  0  0  0  0999 V2000
    9.7919    0.4166    0.0000 O   0  0  0  0  0  0  0  0  0  0  0  0
    6.2036    0.2145    0.0000 O   0  0  0  0  0  0  0  0  0  0  0  0
    9.7479   -1.5902    0.0000 O   0  0  0  0  0  0  0  0  0  0  0  0
    2.6200   -2.3223    0.0000 O   0  0  0  0  0  0  0  0  0  0  0  0
    2.6200    1.1418    0.0000 O   0  0  0  0  0  0  0  0  0  0  0  0
    9.7999    1.4582    0.0000 C   0  0  0  0  0  0  0  0  0  0  0  0
    8.0158    0.4098    0.0000 C   0  0  0  0  0  0  0  0  0  0  0  0
    8.8819   -0.0902    0.0000 C   0  0  0  0  0  0  0  0  0  0  0  0
    7.1498   -0.0902    0.0000 C   0  0  0  0  0  0  0  0  0  0  0  0
    8.8978    1.9790    0.0000 C   0  0  0  0  0  0  0  0  0  0  0  0
    7.1498   -1.0902    0.0000 C   0  0  0  0  0  0  0  0  0  0  0  0
    7.9998    1.4513    0.0000 C   0  0  0  0  0  0  0  0  0  0  0  0
   10.3032    2.3223    0.0000 C   0  0  0  0  0  0  0  0  0  0  0  0
   10.7999    1.4544    0.0000 C   0  0  0  0  0  0  0  0  0  0  0  0
    8.8819   -1.0902    0.0000 C   0  0  0  0  0  0  0  0  0  0  0  0
    8.0158   -1.5902    0.0000 C   0  0  0  0  0  0  0  0  0  0  0  0
    5.6200   -0.5902    0.0000 C   0  0  0  0  0  0  0  0  0  0  0  0
    6.2036   -1.3950    0.0000 C   0  0  0  0  0  0  0  0  0  0  0  0
    4.6200   -0.5902    0.0000 C   0  0  0  0  0  0  0  0  0  0  0  0
    4.1200    0.2758    0.0000 C   0  0  0  0  0  0  0  0  0  0  0  0
    4.1200   -1.4563    0.0000 C   0  0  0  0  0  0  0  0  0  0  0  0
    3.1200   -1.4563    0.0000 C   0  0  0  0  0  0  0  0  0  0  0  0
    3.1200    0.2758    0.0000 C   0  0  0  0  0  0  0  0  0  0  0  0
    2.6200   -0.5902    0.0000 C   0  0  0  0  0  0  0  0  0  0  0  0
    8.8954    2.5990    0.0000 H   0  0  0  0  0  0  0  0  0  0  0  0
    7.4593    1.7550    0.0000 H   0  0  0  0  0  0  0  0  0  0  0  0
   10.8390    2.0102    0.0000 H   0  0  0  0  0  0  0  0  0  0  0  0
   10.6153    2.8580    0.0000 H   0  0  0  0  0  0  0  0  0  0  0  0
    9.7675    2.6344    0.0000 H   0  0  0  0  0  0  0  0  0  0  0  0
   10.7975    0.8344    0.0000 H   0  0  0  0  0  0  0  0  0  0  0  0
   11.4199    1.4520    0.0000 H   0  0  0  0  0  0  0  0  0  0  0  0
   10.8023    2.0743    0.0000 H   0  0  0  0  0  0  0  0  0  0  0  0
    8.0158   -2.2102    0.0000 H   0  0  0  0  0  0  0  0  0  0  0  0
    6.0110   -1.9843    0.0000 H   0  0  0  0  0  0  0  0  0  0  0  0
    4.4300    0.8127    0.0000 H   0  0  0  0  0  0  0  0  0  0  0  0
    4.4300   -1.9932    0.0000 H   0  0  0  0  0  0  0  0  0  0  0  0
    9.7479   -2.2102    0.0000 H   0  0  0  0  0  0  0  0  0  0  0  0
    2.0000   -0.5902    0.0000 H   0  0  0  0  0  0  0  0  0  0  0  0
    2.0000   -2.3223    0.0000 H   0  0  0  0  0  0  0  0  0  0  0  0
    2.0000    1.1418    0.0000 H   0  0  0  0  0  0  0  0  0  0  0  0
  1  6  1  0  0  0  0
  1  8  1  0  0  0  0
  2  9  1  0  0  0  0
  2 17  1  0  0  0  0
  3 15  1  0  0  0  0
  3 37  1  0  0  0  0
  4 22  1  0  0  0  0
  4 39  1  0  0  0  0
  5 23  1  0  0  0  0
  5 40  1  0  0  0  0
  6 10  1  0  0  0  0
  6 13  1  0  0  0  0
  6 14  1  0  0  0  0
  7  8  1  0  0  0  0
  7  9  2  0  0  0  0
  7 12  1  0  0  0  0
  8 15  2  0  0  0  0
  9 11  1  0  0  0  0
 10 12  2  0  0  0  0
 10 25  1  0  0  0  0
 11 16  2  0  0  0  0
 11 18  1  0  0  0  0
 12 26  1  0  0  0  0
 13 27  1  0  0  0  0
 13 28  1  0  0  0  0
 13 29  1  0  0  0  0
 14 30  1  0  0  0  0
 14 31  1  0  0  0  0
 14 32  1  0  0  0  0
 15 16  1  0  0  0  0
 16 33  1  0  0  0  0
 17 18  2  0  0  0  0
 17 19  1  0  0  0  0
 18 34  1  0  0  0  0
 19 20  2  0  0  0  0
 19 21  1  0  0  0  0
 20 23  1  0  0  0  0
 20 35  1  0  0  0  0
 21 22  2  0  0  0  0
 21 36  1  0  0  0  0
 22 24  1  0  0  0  0
 23 24  2  0  0  0  0
 24 38  1  0  0  0  0
M  END
>  <PUBCHEM_COMPOUND_CID>
118726653

>  <PUBCHEM_COMPOUND_CANONICALIZED>
1

>  <PUBCHEM_CACTVS_COMPLEXITY>
494

>  <PUBCHEM_CACTVS_HBOND_ACCEPTOR>
5

>  <PUBCHEM_CACTVS_HBOND_DONOR>
3

>  <PUBCHEM_CACTVS_ROTATABLE_BOND>
1

>  <PUBCHEM_CACTVS_SUBSKEYS>
AAADceB4OAAAAAAAAAAAAAAAAAAAASAAAAAwYIAAAAAAAEiB9AAAGgAACAAADESAmAAyBsAABkCIAqBSAAACCAAkIAAIiAEGiMgNJzaGNRqCeWOl4BULuYfK7PzOIQADCAAIQABCAAYQABCAAAAAAAAAAA==

>  <PUBCHEM_IUPAC_OPENEYE_NAME>
5-(5-hydroxy-7,7-dimethyl-furo[2,3-f]chromen-2-yl)benzene-1,3-diol

>  <PUBCHEM_IUPAC_CAS_NAME>
5-(5-hydroxy-7,7-dimethyl-2-furo[2,3-f][1]benzopyranyl)benzene-1,3-diol

>  <PUBCHEM_IUPAC_NAME>
5-(5-hydroxy-7,7-dimethylfuro[2,3-f]chromen-2-yl)benzene-1,3-diol

>  <PUBCHEM_IUPAC_SYSTEMATIC_NAME>
5-(7,7-dimethyl-5-oxidanyl-furo[2,3-f]chromen-2-yl)benzene-1,3-diol

>  <PUBCHEM_IUPAC_TRADITIONAL_NAME>
5-(5-hydroxy-7,7-dimethyl-furo[2,3-f]chromen-2-yl)resorcinol

>  <PUBCHEM_IUPAC_INCHI>
InChI=1S/C19H16O5/c1-19(2)4-3-14-17-11(7-15(22)18(14)24-19)8-16(23-17)10-5-12(20)9-13(21)6-10/h3-9,20-22H,1-2H3

>  <PUBCHEM_IUPAC_INCHIKEY>
HRYWITBPMMQCBB-UHFFFAOYSA-N

>  <PUBCHEM_XLOGP3_AA>
3.8

>  <PUBCHEM_EXACT_MASS>
324.1

>  <PUBCHEM_MOLECULAR_FORMULA>
C19H16O5

>  <PUBCHEM_MOLECULAR_WEIGHT>
324.332

>  <PUBCHEM_OPENEYE_CAN_SMILES>
CC1(C=CC2=C3C(=CC(=C2O1)O)C=C(O3)C4=CC(=CC(=C4)O)O)C

>  <PUBCHEM_OPENEYE_ISO_SMILES>
CC1(C=CC2=C3C(=CC(=C2O1)O)C=C(O3)C4=CC(=CC(=C4)O)O)C

>  <PUBCHEM_CACTVS_TPSA>
83.1

>  <PUBCHEM_MONOISOTOPIC_WEIGHT>
324.1

>  <PUBCHEM_TOTAL_CHARGE>
0

>  <PUBCHEM_HEAVY_ATOM_COUNT>
24

>  <PUBCHEM_ATOM_DEF_STEREO_COUNT>
0

>  <PUBCHEM_ATOM_UDEF_STEREO_COUNT>
0

>  <PUBCHEM_BOND_DEF_STEREO_COUNT>
0

>  <PUBCHEM_BOND_UDEF_STEREO_COUNT>
0

>  <PUBCHEM_ISOTOPIC_ATOM_COUNT>
0

>  <PUBCHEM_COMPONENT_COUNT>
1

>  <PUBCHEM_CACTVS_TAUTO_COUNT>
10

>  <PUBCHEM_COORDINATE_TYPE>
1
5
255

>  <PUBCHEM_BONDANNOTATIONS>
11  16  8
11  18  8
15  16  8
17  18  8
19  20  8
19  21  8
2  17  8
2  9  8
20  23  8
21  22  8
22  24  8
23  24  8
7  8  8
7  9  8
8  15  8
9  11  8

$$$$
