118726654
 OpenBabel06101807152D

 40 43  0  0  0  0  0  0  0  0999 V2000
    6.2258   -0.0889    0.0000 O   0  0  0  0  0  0  0  0  0  0  0  0
    4.3797    2.9893    0.0000 O   0  0  0  0  0  0  0  0  0  0  0  0
    6.0166    3.8830    0.0000 O   0  0  0  0  0  0  0  0  0  0  0  0
   10.2145   -1.9240    0.0000 O   0  0  0  0  0  0  0  0  0  0  0  0
    7.2145   -3.6560    0.0000 O   0  0  0  0  0  0  0  0  0  0  0  0
    5.1506    1.3829    0.0000 C   0  0  0  0  0  0  0  0  0  0  0  0
    6.0166    0.8830    0.0000 C   0  0  0  0  0  0  0  0  0  0  0  0
    4.3797    0.7766    0.0000 C   0  0  0  0  0  0  0  0  0  0  0  0
    6.8826    1.3829    0.0000 C   0  0  0  0  0  0  0  0  0  0  0  0
    5.1506    2.3830    0.0000 C   0  0  0  0  0  0  0  0  0  0  0  0
    7.2145   -0.1919    0.0000 C   0  0  0  0  0  0  0  0  0  0  0  0
    6.0166    2.8830    0.0000 C   0  0  0  0  0  0  0  0  0  0  0  0
    7.6196    0.7159    0.0000 C   0  0  0  0  0  0  0  0  0  0  0  0
    6.8826    2.3830    0.0000 C   0  0  0  0  0  0  0  0  0  0  0  0
    3.4244    0.9987    0.0000 C   0  0  0  0  0  0  0  0  0  0  0  0
    3.0000    1.8830    0.0000 C   0  0  0  0  0  0  0  0  0  0  0  0
    3.4244    2.7672    0.0000 C   0  0  0  0  0  0  0  0  0  0  0  0
    7.7145   -1.0579    0.0000 C   0  0  0  0  0  0  0  0  0  0  0  0
    2.0000    1.8830    0.0000 C   0  0  0  0  0  0  0  0  0  0  0  0
    7.2145   -1.9240    0.0000 C   0  0  0  0  0  0  0  0  0  0  0  0
    8.7145   -1.0579    0.0000 C   0  0  0  0  0  0  0  0  0  0  0  0
    9.2145   -1.9240    0.0000 C   0  0  0  0  0  0  0  0  0  0  0  0
    7.7145   -2.7900    0.0000 C   0  0  0  0  0  0  0  0  0  0  0  0
    8.7145   -2.7900    0.0000 C   0  0  0  0  0  0  0  0  0  0  0  0
    4.1079    0.2193    0.0000 H   0  0  0  0  0  0  0  0  0  0  0  0
    4.8622    0.3872    0.0000 H   0  0  0  0  0  0  0  0  0  0  0  0
    8.2263    0.8437    0.0000 H   0  0  0  0  0  0  0  0  0  0  0  0
    7.4196    2.6930    0.0000 H   0  0  0  0  0  0  0  0  0  0  0  0
    3.0365    0.5150    0.0000 H   0  0  0  0  0  0  0  0  0  0  0  0
    3.4224    3.3872    0.0000 H   0  0  0  0  0  0  0  0  0  0  0  0
    2.8196    2.9038    0.0000 H   0  0  0  0  0  0  0  0  0  0  0  0
    2.0000    2.5029    0.0000 H   0  0  0  0  0  0  0  0  0  0  0  0
    1.3800    1.8830    0.0000 H   0  0  0  0  0  0  0  0  0  0  0  0
    2.0000    1.2630    0.0000 H   0  0  0  0  0  0  0  0  0  0  0  0
    6.5945   -1.9240    0.0000 H   0  0  0  0  0  0  0  0  0  0  0  0
    9.0245   -0.5210    0.0000 H   0  0  0  0  0  0  0  0  0  0  0  0
    6.5536    4.1930    0.0000 H   0  0  0  0  0  0  0  0  0  0  0  0
    9.0245   -3.3269    0.0000 H   0  0  0  0  0  0  0  0  0  0  0  0
   10.5245   -2.4609    0.0000 H   0  0  0  0  0  0  0  0  0  0  0  0
    7.5245   -4.1930    0.0000 H   0  0  0  0  0  0  0  0  0  0  0  0
  1  7  1  0  0  0  0
  1 11  1  0  0  0  0
  2 10  1  0  0  0  0
  2 17  1  0  0  0  0
  3 12  1  0  0  0  0
  3 37  1  0  0  0  0
  4 22  1  0  0  0  0
  4 39  1  0  0  0  0
  5 23  1  0  0  0  0
  5 40  1  0  0  0  0
  6  7  2  0  0  0  0
  6  8  1  0  0  0  0
  6 10  1  0  0  0  0
  7  9  1  0  0  0  0
  8 15  1  0  0  0  0
  8 25  1  0  0  0  0
  8 26  1  0  0  0  0
  9 13  1  0  0  0  0
  9 14  2  0  0  0  0
 10 12  2  0  0  0  0
 11 13  2  0  0  0  0
 11 18  1  0  0  0  0
 12 14  1  0  0  0  0
 13 27  1  0  0  0  0
 14 28  1  0  0  0  0
 15 16  2  0  0  0  0
 15 29  1  0  0  0  0
 16 17  1  0  0  0  0
 16 19  1  0  0  0  0
 17 30  1  0  0  0  0
 17 31  1  0  0  0  0
 18 20  2  0  0  0  0
 18 21  1  0  0  0  0
 19 32  1  0  0  0  0
 19 33  1  0  0  0  0
 19 34  1  0  0  0  0
 20 23  1  0  0  0  0
 20 35  1  0  0  0  0
 21 22  2  0  0  0  0
 21 36  1  0  0  0  0
 22 24  1  0  0  0  0
 23 24  2  0  0  0  0
 24 38  1  0  0  0  0
M  END
>  <PUBCHEM_COMPOUND_CID>
118726654

>  <PUBCHEM_COMPOUND_CANONICALIZED>
1

>  <PUBCHEM_CACTVS_COMPLEXITY>
482

>  <PUBCHEM_CACTVS_HBOND_ACCEPTOR>
5

>  <PUBCHEM_CACTVS_HBOND_DONOR>
3

>  <PUBCHEM_CACTVS_ROTATABLE_BOND>
1

>  <PUBCHEM_CACTVS_SUBSKEYS>
AAADceB4OAAAAAAAAAAAAAAAAAAAASAAAAAwYAAABAAAAEgB9AAAGgAACAAADASgmAIyBsAABkCIAqBSAAACCAAkIAAAiAEGiMgNJzaGNRqCeWOl4BULuYfK7PzOIQADCAAIQABCAAYQABCAAAAAAAAAAA==

>  <PUBCHEM_IUPAC_OPENEYE_NAME>
5-(5-hydroxy-8-methyl-7,10-dihydrofuro[2,3-g][1]benzoxepin-2-yl)benzene-1,3-diol

>  <PUBCHEM_IUPAC_CAS_NAME>
5-(5-hydroxy-8-methyl-7,10-dihydrofuro[2,3-g][1]benzoxepin-2-yl)benzene-1,3-diol

>  <PUBCHEM_IUPAC_NAME>
5-(5-hydroxy-8-methyl-7,10-dihydrofuro[2,3-g][1]benzoxepin-2-yl)benzene-1,3-diol

>  <PUBCHEM_IUPAC_SYSTEMATIC_NAME>
5-(8-methyl-5-oxidanyl-7,10-dihydrofuro[2,3-g][1]benzoxepin-2-yl)benzene-1,3-diol

>  <PUBCHEM_IUPAC_TRADITIONAL_NAME>
5-(5-hydroxy-8-methyl-7,10-dihydrofuro[2,3-g][1]benzoxepin-2-yl)resorcinol

>  <PUBCHEM_IUPAC_INCHI>
InChI=1S/C19H16O5/c1-10-2-3-15-18-12(6-16(22)19(15)23-9-10)7-17(24-18)11-4-13(20)8-14(21)5-11/h2,4-8,20-22H,3,9H2,1H3

>  <PUBCHEM_IUPAC_INCHIKEY>
FQHZBTIVEUAARU-UHFFFAOYSA-N

>  <PUBCHEM_XLOGP3_AA>
3.5

>  <PUBCHEM_EXACT_MASS>
324.1

>  <PUBCHEM_MOLECULAR_FORMULA>
C19H16O5

>  <PUBCHEM_MOLECULAR_WEIGHT>
324.332

>  <PUBCHEM_OPENEYE_CAN_SMILES>
CC1=CCC2=C3C(=CC(=C2OC1)O)C=C(O3)C4=CC(=CC(=C4)O)O

>  <PUBCHEM_OPENEYE_ISO_SMILES>
CC1=CCC2=C3C(=CC(=C2OC1)O)C=C(O3)C4=CC(=CC(=C4)O)O

>  <PUBCHEM_CACTVS_TPSA>
83.1

>  <PUBCHEM_MONOISOTOPIC_WEIGHT>
324.1

>  <PUBCHEM_TOTAL_CHARGE>
0

>  <PUBCHEM_HEAVY_ATOM_COUNT>
24

>  <PUBCHEM_ATOM_DEF_STEREO_COUNT>
0

>  <PUBCHEM_ATOM_UDEF_STEREO_COUNT>
0

>  <PUBCHEM_BOND_DEF_STEREO_COUNT>
0

>  <PUBCHEM_BOND_UDEF_STEREO_COUNT>
0

>  <PUBCHEM_ISOTOPIC_ATOM_COUNT>
0

>  <PUBCHEM_COMPONENT_COUNT>
1

>  <PUBCHEM_CACTVS_TAUTO_COUNT>
50

>  <PUBCHEM_COORDINATE_TYPE>
1
5
255

>  <PUBCHEM_BONDANNOTATIONS>
1  11  8
1  7  8
10  12  8
11  13  8
12  14  8
18  20  8
18  21  8
20  23  8
21  22  8
22  24  8
23  24  8
6  10  8
6  7  8
7  9  8
9  13  8
9  14  8

$$$$
