119301
 OpenBabel06101807152D

 55 56  0  0  1  0  0  0  0  0999 V2000
    6.8671    1.4050    0.0000 O   0  0  0  0  0  0  0  0  0  0  0  0
    4.2690   -1.0950    0.0000 O   0  0  0  0  0  0  0  0  0  0  0  0
    6.0010   -1.0950    0.0000 O   0  0  0  0  0  0  0  0  0  0  0  0
    7.7331    2.9050    0.0000 O   0  0  0  0  0  0  0  0  0  0  0  0
    7.7331   -1.0950    0.0000 O   0  0  0  0  0  0  0  0  0  0  0  0
    9.4651   -0.0950    0.0000 O   0  0  0  0  0  0  0  0  0  0  0  0
    9.4651    1.9050    0.0000 O   0  0  0  0  0  0  0  0  0  0  0  0
    6.0010   -3.0950    0.0000 O   0  0  0  0  0  0  0  0  0  0  0  0
    4.2690   -4.0950    0.0000 O   0  0  0  0  0  0  0  0  0  0  0  0
    2.5369   -3.0950    0.0000 O   0  0  0  0  0  0  0  0  0  0  0  0
    2.5369   -0.0950    0.0000 O   0  0  0  0  0  0  0  0  0  0  0  0
    5.1350    4.4050    0.0000 N   0  0  0  0  0  0  0  0  0  0  0  0
    6.8671    0.4050    0.0000 C   0  0  1  0  0  0  0  0  0  0  0  0
    7.7331   -0.0950    0.0000 C   0  0  2  0  0  0  0  0  0  0  0  0
    8.5991    0.4050    0.0000 C   0  0  1  0  0  0  0  0  0  0  0  0
    8.5991    1.4050    0.0000 C   0  0  2  0  0  0  0  0  0  0  0  0
    5.1350   -2.5950    0.0000 C   0  0  1  0  0  0  0  0  0  0  0  0
    5.1350   -1.5950    0.0000 C   0  0  1  0  0  0  0  0  0  0  0  0
    4.2690   -3.0950    0.0000 C   0  0  2  0  0  0  0  0  0  0  0  0
    3.4030   -2.5950    0.0000 C   0  0  1  0  0  0  0  0  0  0  0  0
    7.7331    1.9050    0.0000 C   0  0  1  0  0  0  0  0  0  0  0  0
    3.4030   -1.5950    0.0000 C   0  0  1  0  0  0  0  0  0  0  0  0
    6.0010   -0.0950    0.0000 C   0  0  0  0  0  0  0  0  0  0  0  0
    2.5369   -1.0950    0.0000 C   0  0  0  0  0  0  0  0  0  0  0  0
    6.8671    3.4050    0.0000 C   0  0  0  0  0  0  0  0  0  0  0  0
    7.3671    4.2710    0.0000 C   0  0  0  0  0  0  0  0  0  0  0  0
    6.3671    2.5390    0.0000 C   0  0  0  0  0  0  0  0  0  0  0  0
    6.0010    3.9050    0.0000 C   0  0  0  0  0  0  0  0  0  0  0  0
    6.3301    0.7150    0.0000 H   0  0  0  0  0  0  0  0  0  0  0  0
    8.2700   -0.4050    0.0000 H   0  0  0  0  0  0  0  0  0  0  0  0
    9.1360    0.7150    0.0000 H   0  0  0  0  0  0  0  0  0  0  0  0
    8.5991    2.0250    0.0000 H   0  0  0  0  0  0  0  0  0  0  0  0
    5.1350   -3.2150    0.0000 H   0  0  0  0  0  0  0  0  0  0  0  0
    5.1350   -0.9750    0.0000 H   0  0  0  0  0  0  0  0  0  0  0  0
    3.7320   -3.4050    0.0000 H   0  0  0  0  0  0  0  0  0  0  0  0
    2.8660   -2.2850    0.0000 H   0  0  0  0  0  0  0  0  0  0  0  0
    7.1962    2.2150    0.0000 H   0  0  0  0  0  0  0  0  0  0  0  0
    3.4030   -0.9750    0.0000 H   0  0  0  0  0  0  0  0  0  0  0  0
    5.7890    0.4876    0.0000 H   0  0  0  0  0  0  0  0  0  0  0  0
    5.3905   -0.2027    0.0000 H   0  0  0  0  0  0  0  0  0  0  0  0
    1.9264   -0.9873    0.0000 H   0  0  0  0  0  0  0  0  0  0  0  0
    2.3249   -1.6776    0.0000 H   0  0  0  0  0  0  0  0  0  0  0  0
    8.2700   -1.4050    0.0000 H   0  0  0  0  0  0  0  0  0  0  0  0
   10.0021    0.2150    0.0000 H   0  0  0  0  0  0  0  0  0  0  0  0
    9.4651    2.5250    0.0000 H   0  0  0  0  0  0  0  0  0  0  0  0
    6.5380   -2.7850    0.0000 H   0  0  0  0  0  0  0  0  0  0  0  0
    3.7320   -4.4050    0.0000 H   0  0  0  0  0  0  0  0  0  0  0  0
    2.0000   -2.7850    0.0000 H   0  0  0  0  0  0  0  0  0  0  0  0
    7.9040    3.9610    0.0000 H   0  0  0  0  0  0  0  0  0  0  0  0
    7.6771    4.8080    0.0000 H   0  0  0  0  0  0  0  0  0  0  0  0
    6.8301    4.5810    0.0000 H   0  0  0  0  0  0  0  0  0  0  0  0
    5.8301    2.8490    0.0000 H   0  0  0  0  0  0  0  0  0  0  0  0
    6.0571    2.0020    0.0000 H   0  0  0  0  0  0  0  0  0  0  0  0
    6.9040    2.2290    0.0000 H   0  0  0  0  0  0  0  0  0  0  0  0
    2.0000    0.2150    0.0000 H   0  0  0  0  0  0  0  0  0  0  0  0
  1 13  1  0  0  0  0
  1 21  1  0  0  0  0
  2 18  1  0  0  0  0
  2 22  1  0  0  0  0
  3 23  1  0  0  0  0
  4 25  1  0  0  0  0
  5 43  1  0  0  0  0
  6 44  1  0  0  0  0
  7 45  1  0  0  0  0
  8 46  1  0  0  0  0
  9 47  1  0  0  0  0
 10 48  1  0  0  0  0
 11 24  1  0  0  0  0
 11 55  1  0  0  0  0
 12 28  3  0  0  0  0
 13 14  1  6  0  0  0
 13 23  1  0  0  0  0
 13 29  1  0  0  0  0
 14  5  1  0  0  0  0
 14 15  1  6  0  0  0
 14 30  1  0  0  0  0
 15  6  1  0  0  0  0
 15 16  1  1  0  0  0
 15 31  1  0  0  0  0
 16  7  1  0  0  0  0
 16 21  1  6  0  0  0
 16 32  1  0  0  0  0
 17  8  1  0  0  0  0
 17 18  1  1  0  0  0
 17 33  1  0  0  0  0
 18  3  1  0  0  0  0
 18 34  1  6  0  0  0
 19  9  1  0  0  0  0
 19 17  1  6  0  0  0
 19 35  1  0  0  0  0
 20 10  1  0  0  0  0
 20 19  1  1  0  0  0
 20 36  1  0  0  0  0
 21  4  1  0  0  0  0
 21 37  1  6  0  0  0
 22 20  1  6  0  0  0
 22 24  1  0  0  0  0
 22 38  1  0  0  0  0
 23 39  1  0  0  0  0
 23 40  1  0  0  0  0
 24 41  1  0  0  0  0
 24 42  1  0  0  0  0
 25 26  1  0  0  0  0
 25 27  1  0  0  0  0
 25 28  1  0  0  0  0
 26 49  1  0  0  0  0
 26 50  1  0  0  0  0
 26 51  1  0  0  0  0
 27 52  1  0  0  0  0
 27 53  1  0  0  0  0
 27 54  1  0  0  0  0
M  END
>  <PUBCHEM_COMPOUND_CID>
119301

>  <PUBCHEM_COMPOUND_CANONICALIZED>
1

>  <PUBCHEM_CACTVS_COMPLEXITY>
566

>  <PUBCHEM_CACTVS_HBOND_ACCEPTOR>
12

>  <PUBCHEM_CACTVS_HBOND_DONOR>
7

>  <PUBCHEM_CACTVS_ROTATABLE_BOND>
6

>  <PUBCHEM_CACTVS_SUBSKEYS>
AAADceB6PAAAAAAAAAAAAAAAAAAAAAAAAAAkSAAAAAAAAAAAAAAAHgAACAAADFSxgAMCCAAABgAQBAAAAAAAAAAAAAAAAAAAAAARkAIAAAAiQAAFAAAHAAHAYAwAAAAAAAAAAAAAAAAAAAAAAAAAAAAAAA==

>  <PUBCHEM_IUPAC_OPENEYE_NAME>
2-methyl-2-[(2S,3R,4S,5S,6R)-3,4,5-trihydroxy-6-[[(2R,3R,4S,5S,6R)-3,4,5-trihydroxy-6-(hydroxymethyl)tetrahydropyran-2-yl]oxymethyl]tetrahydropyran-2-yl]oxy-propanenitrile

>  <PUBCHEM_IUPAC_CAS_NAME>
2-methyl-2-[[(2S,3R,4S,5S,6R)-3,4,5-trihydroxy-6-[[(2R,3R,4S,5S,6R)-3,4,5-trihydroxy-6-(hydroxymethyl)-2-oxanyl]oxymethyl]-2-oxanyl]oxy]propanenitrile

>  <PUBCHEM_IUPAC_NAME>
2-methyl-2-[(2S,3R,4S,5S,6R)-3,4,5-trihydroxy-6-[[(2R,3R,4S,5S,6R)-3,4,5-trihydroxy-6-(hydroxymethyl)oxan-2-yl]oxymethyl]oxan-2-yl]oxypropanenitrile

>  <PUBCHEM_IUPAC_SYSTEMATIC_NAME>
2-[(2S,3R,4S,5S,6R)-6-[[(2R,3R,4S,5S,6R)-6-(hydroxymethyl)-3,4,5-tris(oxidanyl)oxan-2-yl]oxymethyl]-3,4,5-tris(oxidanyl)oxan-2-yl]oxy-2-methyl-propanenitrile

>  <PUBCHEM_IUPAC_TRADITIONAL_NAME>
2-methyl-2-[(2S,3R,4S,5S,6R)-3,4,5-trihydroxy-6-[[(2R,3R,4S,5S,6R)-3,4,5-trihydroxy-6-methylol-tetrahydropyran-2-yl]oxymethyl]tetrahydropyran-2-yl]oxy-propionitrile

>  <PUBCHEM_IUPAC_INCHI>
InChI=1S/C16H27NO11/c1-16(2,5-17)28-15-13(24)11(22)9(20)7(27-15)4-25-14-12(23)10(21)8(19)6(3-18)26-14/h6-15,18-24H,3-4H2,1-2H3/t6-,7-,8-,9-,10+,11+,12-,13-,14-,15+/m1/s1

>  <PUBCHEM_IUPAC_INCHIKEY>
FERSMFQBWVBKQK-CXTTVELOSA-N

>  <PUBCHEM_XLOGP3_AA>
-3.8

>  <PUBCHEM_EXACT_MASS>
409.158

>  <PUBCHEM_MOLECULAR_FORMULA>
C16H27NO11

>  <PUBCHEM_MOLECULAR_WEIGHT>
409.388

>  <PUBCHEM_OPENEYE_CAN_SMILES>
CC(C)(C#N)OC1C(C(C(C(O1)COC2C(C(C(C(O2)CO)O)O)O)O)O)O

>  <PUBCHEM_OPENEYE_ISO_SMILES>
CC(C)(C#N)O[C@H]1[C@@H]([C@H]([C@@H]([C@H](O1)CO[C@H]2[C@@H]([C@H]([C@@H]([C@H](O2)CO)O)O)O)O)O)O

>  <PUBCHEM_CACTVS_TPSA>
202

>  <PUBCHEM_MONOISOTOPIC_WEIGHT>
409.158

>  <PUBCHEM_TOTAL_CHARGE>
0

>  <PUBCHEM_HEAVY_ATOM_COUNT>
28

>  <PUBCHEM_ATOM_DEF_STEREO_COUNT>
10

>  <PUBCHEM_ATOM_UDEF_STEREO_COUNT>
0

>  <PUBCHEM_BOND_DEF_STEREO_COUNT>
0

>  <PUBCHEM_BOND_UDEF_STEREO_COUNT>
0

>  <PUBCHEM_ISOTOPIC_ATOM_COUNT>
0

>  <PUBCHEM_COMPONENT_COUNT>
1

>  <PUBCHEM_CACTVS_TAUTO_COUNT>
1

>  <PUBCHEM_COORDINATE_TYPE>
1
5
255

>  <PUBCHEM_BONDANNOTATIONS>
20  10  6
13  23  5
22  24  5
18  3  5
21  4  5
14  5  6
15  6  5
16  7  6
17  8  6
19  9  5

$$$$
