119341
 OpenBabel06101807152D

 27 28  0  0  0  0  0  0  0  0999 V2000
    7.2566    1.6924    0.0000 S   0  0  0  0  0  0  0  0  0  0  0  0
    5.6103    2.2305    0.0000 S   0  0  0  0  0  0  0  0  0  0  0  0
    4.6783   -2.2305    0.0000 N   0  0  0  0  0  0  0  0  0  0  0  0
    5.9674    0.5357    0.0000 N   0  0  0  0  0  0  0  0  0  0  0  0
    3.7320   -0.9258    0.0000 C   0  0  0  0  0  0  0  0  0  0  0  0
    4.6783   -0.6210    0.0000 C   0  0  0  0  0  0  0  0  0  0  0  0
    3.7320   -1.9258    0.0000 C   0  0  0  0  0  0  0  0  0  0  0  0
    5.2619   -1.4258    0.0000 C   0  0  0  0  0  0  0  0  0  0  0  0
    4.9889    0.3295    0.0000 C   0  0  0  0  0  0  0  0  0  0  0  0
    2.8660   -0.4258    0.0000 C   0  0  0  0  0  0  0  0  0  0  0  0
    2.8660   -2.4258    0.0000 C   0  0  0  0  0  0  0  0  0  0  0  0
    2.0000   -0.9258    0.0000 C   0  0  0  0  0  0  0  0  0  0  0  0
    2.0000   -1.9258    0.0000 C   0  0  0  0  0  0  0  0  0  0  0  0
    6.2781    1.4862    0.0000 C   0  0  0  0  0  0  0  0  0  0  0  0
    7.5673    2.6430    0.0000 C   0  0  0  0  0  0  0  0  0  0  0  0
    5.8819   -1.4258    0.0000 H   0  0  0  0  0  0  0  0  0  0  0  0
    4.8709   -2.8198    0.0000 H   0  0  0  0  0  0  0  0  0  0  0  0
    4.9684    0.9491    0.0000 H   0  0  0  0  0  0  0  0  0  0  0  0
    4.3751    0.4168    0.0000 H   0  0  0  0  0  0  0  0  0  0  0  0
    2.8660    0.1942    0.0000 H   0  0  0  0  0  0  0  0  0  0  0  0
    2.8660   -3.0458    0.0000 H   0  0  0  0  0  0  0  0  0  0  0  0
    1.4631   -0.6158    0.0000 H   0  0  0  0  0  0  0  0  0  0  0  0
    1.4631   -2.2358    0.0000 H   0  0  0  0  0  0  0  0  0  0  0  0
    8.1566    2.4503    0.0000 H   0  0  0  0  0  0  0  0  0  0  0  0
    7.7599    3.2323    0.0000 H   0  0  0  0  0  0  0  0  0  0  0  0
    6.9780    2.8356    0.0000 H   0  0  0  0  0  0  0  0  0  0  0  0
    5.8029    2.8198    0.0000 H   0  0  0  0  0  0  0  0  0  0  0  0
  1 14  1  0  0  0  0
  1 15  1  0  0  0  0
  2 14  1  0  0  0  0
  2 27  1  0  0  0  0
  3  7  1  0  0  0  0
  3  8  1  0  0  0  0
  3 17  1  0  0  0  0
  4  9  1  0  0  0  0
  4 14  2  0  0  0  0
  5  6  1  0  0  0  0
  5  7  1  0  0  0  0
  5 10  2  0  0  0  0
  6  8  2  0  0  0  0
  6  9  1  0  0  0  0
  7 11  2  0  0  0  0
  8 16  1  0  0  0  0
  9 18  1  0  0  0  0
  9 19  1  0  0  0  0
 10 12  1  0  0  0  0
 10 20  1  0  0  0  0
 11 13  1  0  0  0  0
 11 21  1  0  0  0  0
 12 13  2  0  0  0  0
 12 22  1  0  0  0  0
 13 23  1  0  0  0  0
 15 24  1  0  0  0  0
 15 25  1  0  0  0  0
 15 26  1  0  0  0  0
M  END
>  <PUBCHEM_COMPOUND_CID>
119341

>  <PUBCHEM_COMPOUND_CANONICALIZED>
1

>  <PUBCHEM_CACTVS_COMPLEXITY>
243

>  <PUBCHEM_CACTVS_HBOND_ACCEPTOR>
3

>  <PUBCHEM_CACTVS_HBOND_DONOR>
2

>  <PUBCHEM_CACTVS_ROTATABLE_BOND>
3

>  <PUBCHEM_CACTVS_SUBSKEYS>
AAADccBzAABgAAAAAAAAAAAAAAAAAWAAAAAwAAAAAAAAAFgB8AAAHAQQAAAADAjBHgS+wPLJkAygAzRnRACCkSAxAiAI2aA4ZJgIIOLA0ZGEIAhgkADIyAcQgMAOgAAAAAACAAAAAAAAAAQAAAAAAAAAAA==

>  <PUBCHEM_IUPAC_OPENEYE_NAME>
N-(1H-indol-3-ylmethyl)-1-methylsulfanyl-methanimidothioic acid

>  <PUBCHEM_IUPAC_CAS_NAME>
N-(1H-indol-3-ylmethyl)-1-(methylthio)methanimidothioic acid

>  <PUBCHEM_IUPAC_NAME>
N-(1H-indol-3-ylmethyl)-1-methylsulfanylmethanimidothioic acid

>  <PUBCHEM_IUPAC_SYSTEMATIC_NAME>
N-(1H-indol-3-ylmethyl)-1-methylsulfanyl-methanimidothioic acid

>  <PUBCHEM_IUPAC_TRADITIONAL_NAME>
N-(1H-indol-3-ylmethyl)-1-(methylthio)thioformimidic acid

>  <PUBCHEM_IUPAC_INCHI>
InChI=1S/C11H12N2S2/c1-15-11(14)13-7-8-6-12-10-5-3-2-4-9(8)10/h2-6,12H,7H2,1H3,(H,13,14)

>  <PUBCHEM_IUPAC_INCHIKEY>
QYKQWFZDEDFELK-UHFFFAOYSA-N

>  <PUBCHEM_XLOGP3>
3

>  <PUBCHEM_EXACT_MASS>
236.044

>  <PUBCHEM_MOLECULAR_FORMULA>
C11H12N2S2

>  <PUBCHEM_MOLECULAR_WEIGHT>
236.351

>  <PUBCHEM_OPENEYE_CAN_SMILES>
CSC(=NCC1=CNC2=CC=CC=C21)S

>  <PUBCHEM_OPENEYE_ISO_SMILES>
CSC(=NCC1=CNC2=CC=CC=C21)S

>  <PUBCHEM_CACTVS_TPSA>
54.4

>  <PUBCHEM_MONOISOTOPIC_WEIGHT>
236.044

>  <PUBCHEM_TOTAL_CHARGE>
0

>  <PUBCHEM_HEAVY_ATOM_COUNT>
15

>  <PUBCHEM_ATOM_DEF_STEREO_COUNT>
0

>  <PUBCHEM_ATOM_UDEF_STEREO_COUNT>
0

>  <PUBCHEM_BOND_DEF_STEREO_COUNT>
0

>  <PUBCHEM_BOND_UDEF_STEREO_COUNT>
0

>  <PUBCHEM_ISOTOPIC_ATOM_COUNT>
0

>  <PUBCHEM_COMPONENT_COUNT>
1

>  <PUBCHEM_CACTVS_TAUTO_COUNT>
2

>  <PUBCHEM_COORDINATE_TYPE>
1
5
255

>  <PUBCHEM_BONDANNOTATIONS>
10  12  8
11  13  8
12  13  8
3  7  8
3  8  8
5  10  8
5  6  8
5  7  8
6  8  8
7  11  8

$$$$
