11968069
 OpenBabel06101807152D

107112  0  0  1  0  0  0  0  0999 V2000
    8.0767    3.3443    0.0000 O   0  0  0  0  0  0  0  0  0  0  0  0
    9.0612   -3.4684    0.0000 O   0  0  0  0  0  0  0  0  0  0  0  0
    5.5767    4.2103    0.0000 O   0  0  0  0  0  0  0  0  0  0  0  0
    6.5894   -2.5249    0.0000 O   0  0  0  0  0  0  0  0  0  0  0  0
    6.5767    5.9424    0.0000 O   0  0  0  0  0  0  0  0  0  0  0  0
    6.0767    3.3443    0.0000 O   0  0  0  0  0  0  0  0  0  0  0  0
    6.2421   -4.4945    0.0000 O   0  0  0  0  0  0  0  0  0  0  0  0
    7.5291   -2.1828    0.0000 O   0  0  0  0  0  0  0  0  0  0  0  0
    8.5767    5.9424    0.0000 O   0  0  0  0  0  0  0  0  0  0  0  0
    7.7742   -5.7800    0.0000 O   0  0  0  0  0  0  0  0  0  0  0  0
   10.0767    5.0763    0.0000 O   0  0  0  0  0  0  0  0  0  0  0  0
    9.4800   -6.0808    0.0000 O   0  0  0  0  0  0  0  0  0  0  0  0
    8.3087    2.4783    0.0000 O   0  0  0  0  0  0  0  0  0  0  0  0
    7.1420   -0.7275    0.0000 O   0  0  0  0  0  0  0  0  0  0  0  0
    4.8446    2.4783    0.0000 O   0  0  0  0  0  0  0  0  0  0  0  0
    9.7956   -2.9542    0.0000 O   0  0  0  0  0  0  0  0  0  0  0  0
    6.5767   -0.5217    0.0000 O   0  0  0  0  0  0  0  0  0  0  0  0
   10.3971    0.4573    0.0000 O   0  0  0  0  0  0  0  0  0  0  0  0
    3.9786    0.9783    0.0000 O   0  0  0  0  0  0  0  0  0  0  0  0
   11.4232   -2.3617    0.0000 O   0  0  0  0  0  0  0  0  0  0  0  0
    2.6106   -4.7805    0.0000 O   0  0  0  0  0  0  0  0  0  0  0  0
   15.2799    2.2345    0.0000 O   0  0  0  0  0  0  0  0  0  0  0  0
    7.0767    3.3443    0.0000 C   0  0  2  0  0  0  0  0  0  0  0  0
    8.2952   -2.8256    0.0000 C   0  0  2  0  0  0  0  0  0  0  0  0
    6.5767    4.2103    0.0000 C   0  0  1  0  0  0  0  0  0  0  0  0
    7.3555   -3.1676    0.0000 C   0  0  1  0  0  0  0  0  0  0  0  0
    7.0767    5.0763    0.0000 C   0  0  2  0  0  0  0  0  0  0  0  0
    6.5767    2.4783    0.0000 C   0  0  1  0  0  0  0  0  0  0  0  0
    7.1818   -4.1524    0.0000 C   0  0  2  0  0  0  0  0  0  0  0  0
    8.4688   -1.8408    0.0000 C   0  0  2  0  0  0  0  0  0  0  0  0
    8.0767    5.0763    0.0000 C   0  0  1  0  0  0  0  0  0  0  0  0
    7.9479   -4.7952    0.0000 C   0  0  1  0  0  0  0  0  0  0  0  0
    8.5767    4.2103    0.0000 C   0  0  1  0  0  0  0  0  0  0  0  0
    8.8876   -4.4532    0.0000 C   0  0  1  0  0  0  0  0  0  0  0  0
    7.4427    1.9783    0.0000 C   0  0  0  0  0  0  0  0  0  0  0  0
    8.1268   -0.9011    0.0000 C   0  0  0  0  0  0  0  0  0  0  0  0
    5.7106    1.9783    0.0000 C   0  0  0  0  0  0  0  0  0  0  0  0
    9.4536   -2.0145    0.0000 C   0  0  0  0  0  0  0  0  0  0  0  0
    9.5767    4.2103    0.0000 C   0  0  0  0  0  0  0  0  0  0  0  0
    9.6536   -5.0960    0.0000 C   0  0  0  0  0  0  0  0  0  0  0  0
    7.4427    0.9783    0.0000 C   0  0  0  0  0  0  0  0  0  0  0  0
    8.7695   -0.1351    0.0000 C   0  0  0  0  0  0  0  0  0  0  0  0
    5.7106    0.9783    0.0000 C   0  0  0  0  0  0  0  0  0  0  0  0
   10.0963   -1.2484    0.0000 C   0  0  0  0  0  0  0  0  0  0  0  0
    8.4275    0.8046    0.0000 C   0  0  0  0  0  0  0  0  0  0  0  0
    6.5767    0.4783    0.0000 C   0  0  0  0  0  0  0  0  0  0  0  0
    9.7543   -0.3087    0.0000 C   0  0  0  0  0  0  0  0  0  0  0  0
    4.8446    0.4783    0.0000 C   0  0  0  0  0  0  0  0  0  0  0  0
   11.0811   -1.4221    0.0000 C   0  0  0  0  0  0  0  0  0  0  0  0
    4.8446   -0.5217    0.0000 C   0  0  0  0  0  0  0  0  0  0  0  0
   11.7239   -0.6560    0.0000 C   0  0  0  0  0  0  0  0  0  0  0  0
    3.9786   -1.0217    0.0000 C   0  0  0  0  0  0  0  0  0  0  0  0
   12.7087   -0.8297    0.0000 C   0  0  0  0  0  0  0  0  0  0  0  0
    3.6367   -1.9615    0.0000 C   0  0  0  0  0  0  0  0  0  0  0  0
   13.3515   -0.0636    0.0000 C   0  0  0  0  0  0  0  0  0  0  0  0
    2.6518   -2.1351    0.0000 C   0  0  0  0  0  0  0  0  0  0  0  0
    4.2794   -2.7275    0.0000 C   0  0  0  0  0  0  0  0  0  0  0  0
   14.3363   -0.2373    0.0000 C   0  0  0  0  0  0  0  0  0  0  0  0
   13.0095    0.8761    0.0000 C   0  0  0  0  0  0  0  0  0  0  0  0
    2.3098   -3.0748    0.0000 C   0  0  0  0  0  0  0  0  0  0  0  0
    3.9373   -3.6672    0.0000 C   0  0  0  0  0  0  0  0  0  0  0  0
   14.9791    0.5288    0.0000 C   0  0  0  0  0  0  0  0  0  0  0  0
   13.6523    1.6421    0.0000 C   0  0  0  0  0  0  0  0  0  0  0  0
    2.9526   -3.8408    0.0000 C   0  0  0  0  0  0  0  0  0  0  0  0
   14.6371    1.4685    0.0000 C   0  0  0  0  0  0  0  0  0  0  0  0
    7.5017    2.6082    0.0000 H   0  0  0  0  0  0  0  0  0  0  0  0
    9.0939   -2.5349    0.0000 H   0  0  0  0  0  0  0  0  0  0  0  0
    6.2667    4.7472    0.0000 H   0  0  0  0  0  0  0  0  0  0  0  0
    7.4631   -2.5571    0.0000 H   0  0  0  0  0  0  0  0  0  0  0  0
    7.3867    5.6133    0.0000 H   0  0  0  0  0  0  0  0  0  0  0  0
    7.0742   -4.7630    0.0000 H   0  0  0  0  0  0  0  0  0  0  0  0
    8.6967    5.0763    0.0000 H   0  0  0  0  0  0  0  0  0  0  0  0
    8.4228   -5.1938    0.0000 H   0  0  0  0  0  0  0  0  0  0  0  0
    8.8867    3.6734    0.0000 H   0  0  0  0  0  0  0  0  0  0  0  0
    9.4702   -4.2411    0.0000 H   0  0  0  0  0  0  0  0  0  0  0  0
    9.4690    3.5997    0.0000 H   0  0  0  0  0  0  0  0  0  0  0  0
   10.1593    3.9983    0.0000 H   0  0  0  0  0  0  0  0  0  0  0  0
   10.2362   -5.3080    0.0000 H   0  0  0  0  0  0  0  0  0  0  0  0
    9.9636   -4.5590    0.0000 H   0  0  0  0  0  0  0  0  0  0  0  0
    5.2667    4.7472    0.0000 H   0  0  0  0  0  0  0  0  0  0  0  0
    6.0068   -2.7369    0.0000 H   0  0  0  0  0  0  0  0  0  0  0  0
    8.8260    1.2796    0.0000 H   0  0  0  0  0  0  0  0  0  0  0  0
    6.8867    6.4793    0.0000 H   0  0  0  0  0  0  0  0  0  0  0  0
    5.4567    3.3443    0.0000 H   0  0  0  0  0  0  0  0  0  0  0  0
    5.7671   -4.0959    0.0000 H   0  0  0  0  0  0  0  0  0  0  0  0
    7.0542   -1.7843    0.0000 H   0  0  0  0  0  0  0  0  0  0  0  0
    8.2667    6.4793    0.0000 H   0  0  0  0  0  0  0  0  0  0  0  0
    8.2492   -6.1786    0.0000 H   0  0  0  0  0  0  0  0  0  0  0  0
   10.6967    5.0763    0.0000 H   0  0  0  0  0  0  0  0  0  0  0  0
    9.9549   -6.4793    0.0000 H   0  0  0  0  0  0  0  0  0  0  0  0
    6.0397   -0.8317    0.0000 H   0  0  0  0  0  0  0  0  0  0  0  0
   11.0077    0.3497    0.0000 H   0  0  0  0  0  0  0  0  0  0  0  0
    5.3816   -0.8317    0.0000 H   0  0  0  0  0  0  0  0  0  0  0  0
   11.5119   -0.0734    0.0000 H   0  0  0  0  0  0  0  0  0  0  0  0
    3.4416    0.6683    0.0000 H   0  0  0  0  0  0  0  0  0  0  0  0
    3.4416   -0.7117    0.0000 H   0  0  0  0  0  0  0  0  0  0  0  0
   12.9208   -1.4123    0.0000 H   0  0  0  0  0  0  0  0  0  0  0  0
    2.2532   -1.6602    0.0000 H   0  0  0  0  0  0  0  0  0  0  0  0
    4.8899   -2.6198    0.0000 H   0  0  0  0  0  0  0  0  0  0  0  0
   14.5484   -0.8199    0.0000 H   0  0  0  0  0  0  0  0  0  0  0  0
   12.3989    0.9837    0.0000 H   0  0  0  0  0  0  0  0  0  0  0  0
    1.6992   -3.1825    0.0000 H   0  0  0  0  0  0  0  0  0  0  0  0
    4.3359   -4.1421    0.0000 H   0  0  0  0  0  0  0  0  0  0  0  0
   15.5897    0.4211    0.0000 H   0  0  0  0  0  0  0  0  0  0  0  0
   13.4402    2.2247    0.0000 H   0  0  0  0  0  0  0  0  0  0  0  0
    2.0000   -4.8882    0.0000 H   0  0  0  0  0  0  0  0  0  0  0  0
   15.8905    2.1268    0.0000 H   0  0  0  0  0  0  0  0  0  0  0  0
  1 23  1  0  0  0  0
  1 33  1  0  0  0  0
  2 24  1  0  0  0  0
  2 34  1  0  0  0  0
  3 80  1  0  0  0  0
  4 81  1  0  0  0  0
  5 83  1  0  0  0  0
  6 84  1  0  0  0  0
  7 85  1  0  0  0  0
  8 86  1  0  0  0  0
  9 87  1  0  0  0  0
 10 88  1  0  0  0  0
 11 39  1  0  0  0  0
 11 89  1  0  0  0  0
 12 40  1  0  0  0  0
 12 90  1  0  0  0  0
 13 35  2  0  0  0  0
 14 36  2  0  0  0  0
 15 37  2  0  0  0  0
 16 38  2  0  0  0  0
 17 46  1  0  0  0  0
 17 91  1  0  0  0  0
 18 47  1  0  0  0  0
 18 92  1  0  0  0  0
 19 48  1  0  0  0  0
 19 95  1  0  0  0  0
 20 49  2  0  0  0  0
 21 64  1  0  0  0  0
 21106  1  0  0  0  0
 22 65  1  0  0  0  0
 22107  1  0  0  0  0
 23 25  1  6  0  0  0
 23 28  1  0  0  0  0
 23 66  1  0  0  0  0
 24 26  1  1  0  0  0
 24 30  1  0  0  0  0
 24 67  1  0  0  0  0
 25  3  1  0  0  0  0
 25 27  1  6  0  0  0
 25 68  1  0  0  0  0
 26  4  1  0  0  0  0
 26 29  1  6  0  0  0
 26 69  1  0  0  0  0
 27  5  1  0  0  0  0
 27 31  1  1  0  0  0
 27 70  1  0  0  0  0
 28  6  1  1  0  0  0
 28 35  1  0  0  0  0
 28 37  1  0  0  0  0
 29  7  1  0  0  0  0
 29 32  1  6  0  0  0
 29 71  1  0  0  0  0
 30  8  1  6  0  0  0
 30 36  1  0  0  0  0
 30 38  1  0  0  0  0
 31  9  1  0  0  0  0
 31 33  1  6  0  0  0
 31 72  1  0  0  0  0
 32 10  1  0  0  0  0
 32 34  1  1  0  0  0
 32 73  1  0  0  0  0
 33 39  1  0  0  0  0
 33 74  1  6  0  0  0
 34 40  1  0  0  0  0
 34 75  1  1  0  0  0
 35 41  1  0  0  0  0
 36 42  1  0  0  0  0
 37 43  1  0  0  0  0
 38 44  1  0  0  0  0
 39 76  1  0  0  0  0
 39 77  1  0  0  0  0
 40 78  1  0  0  0  0
 40 79  1  0  0  0  0
 41 45  1  0  0  0  0
 41 46  2  0  0  0  0
 42 45  2  0  0  0  0
 42 47  1  0  0  0  0
 43 46  1  0  0  0  0
 43 48  2  0  0  0  0
 44 47  2  0  0  0  0
 44 49  1  0  0  0  0
 45 82  1  0  0  0  0
 48 50  1  0  0  0  0
 49 51  1  0  0  0  0
 50 52  2  0  0  0  0
 50 93  1  0  0  0  0
 51 53  2  0  0  0  0
 51 94  1  0  0  0  0
 52 54  1  0  0  0  0
 52 96  1  0  0  0  0
 53 55  1  0  0  0  0
 53 97  1  0  0  0  0
 54 56  2  0  0  0  0
 54 57  1  0  0  0  0
 55 58  2  0  0  0  0
 55 59  1  0  0  0  0
 56 60  1  0  0  0  0
 56 98  1  0  0  0  0
 57 61  2  0  0  0  0
 57 99  1  0  0  0  0
 58 62  1  0  0  0  0
 58100  1  0  0  0  0
 59 63  2  0  0  0  0
 59101  1  0  0  0  0
 60 64  2  0  0  0  0
 60102  1  0  0  0  0
 61 64  1  0  0  0  0
 61103  1  0  0  0  0
 62 65  2  0  0  0  0
 62104  1  0  0  0  0
 63 65  1  0  0  0  0
 63105  1  0  0  0  0
M  END
>  <PUBCHEM_COMPOUND_CID>
11968069

>  <PUBCHEM_COMPOUND_CANONICALIZED>
1

>  <PUBCHEM_CACTVS_COMPLEXITY>
2100

>  <PUBCHEM_CACTVS_HBOND_ACCEPTOR>
22

>  <PUBCHEM_CACTVS_HBOND_DONOR>
15

>  <PUBCHEM_CACTVS_ROTATABLE_BOND>
10

>  <PUBCHEM_CACTVS_SUBSKEYS>
AAADcfB8PgAAAAAAAAAAAAAAAAAAAAAAAAA0aIECAAAAAAABQAAAGgAACAAADFSgmAIwBoAABgCIAqBSAAICAAAgIAAIiAFGCMgJNjaKERKCcAAl4BELmYfK7vzuIAAAAAAAAABAAAAAAAAAAAAAAAAAAA==

>  <PUBCHEM_IUPAC_OPENEYE_NAME>
(2R,6Z)-6-[[(3Z,5S)-2,5-dihydroxy-3-[(E)-1-hydroxy-3-(4-hydroxyphenyl)prop-2-enylidene]-4,6-dioxo-5-[(2R,3R,4S,5S,6R)-3,4,5-trihydroxy-6-(hydroxymethyl)tetrahydropyran-2-yl]cyclohexen-1-yl]methylene]-2,5-dihydroxy-4-[(E)-3-(4-hydroxyphenyl)prop-2-enoyl]-2-[(2R,3R,4S,5S,6R)-3,4,5-trihydroxy-6-(hydroxymethyl)tetrahydropyran-2-yl]cyclohex-4-ene-1,3-dione

>  <PUBCHEM_IUPAC_CAS_NAME>
(2R,6Z)-6-[[(3Z,5S)-2,5-dihydroxy-3-[(E)-1-hydroxy-3-(4-hydroxyphenyl)prop-2-enylidene]-4,6-dioxo-5-[(2R,3R,4S,5S,6R)-3,4,5-trihydroxy-6-(hydroxymethyl)-2-oxanyl]-1-cyclohexenyl]methylidene]-2,5-dihydroxy-4-[(E)-3-(4-hydroxyphenyl)-1-oxoprop-2-enyl]-2-[(2R,3R,4S,5S,6R)-3,4,5-trihydroxy-6-(hydroxymethyl)-2-oxanyl]cyclohex-4-ene-1,3-dione

>  <PUBCHEM_IUPAC_NAME>
(2R,6Z)-6-[[(3Z,5S)-2,5-dihydroxy-3-[(E)-1-hydroxy-3-(4-hydroxyphenyl)prop-2-enylidene]-4,6-dioxo-5-[(2R,3R,4S,5S,6R)-3,4,5-trihydroxy-6-(hydroxymethyl)oxan-2-yl]cyclohexen-1-yl]methylidene]-2,5-dihydroxy-4-[(E)-3-(4-hydroxyphenyl)prop-2-enoyl]-2-[(2R,3R,4S,5S,6R)-3,4,5-trihydroxy-6-(hydroxymethyl)oxan-2-yl]cyclohex-4-ene-1,3-dione

>  <PUBCHEM_IUPAC_SYSTEMATIC_NAME>
(2R,6Z)-2-[(2R,3R,4S,5S,6R)-6-(hydroxymethyl)-3,4,5-tris(oxidanyl)oxan-2-yl]-6-[[(3Z,5S)-5-[(2R,3R,4S,5S,6R)-6-(hydroxymethyl)-3,4,5-tris(oxidanyl)oxan-2-yl]-3-[(E)-3-(4-hydroxyphenyl)-1-oxidanyl-prop-2-enylidene]-2,5-bis(oxidanyl)-4,6-bis(oxidanylidene)cyclohexen-1-yl]methylidene]-4-[(E)-3-(4-hydroxyphenyl)prop-2-enoyl]-2,5-bis(oxidanyl)cyclohex-4-ene-1,3-dione

>  <PUBCHEM_IUPAC_TRADITIONAL_NAME>
(2R,6Z)-6-[[(3Z,5S)-2,5-dihydroxy-3-[(E)-1-hydroxy-3-(4-hydroxyphenyl)prop-2-enylidene]-4,6-diketo-5-[(2R,3R,4S,5S,6R)-3,4,5-trihydroxy-6-methylol-tetrahydropyran-2-yl]cyclohexen-1-yl]methylene]-2,5-dihydroxy-4-[(E)-3-(4-hydroxyphenyl)acryloyl]-2-[(2R,3R,4S,5S,6R)-3,4,5-trihydroxy-6-methylol-tetrahydropyran-2-yl]cyclohex-4-ene-1,3-quinone

>  <PUBCHEM_IUPAC_INCHI>
InChI=1S/C43H42O22/c44-14-24-30(52)32(54)34(56)40(64-24)42(62)36(58)20(28(50)26(38(42)60)22(48)11-5-16-1-7-18(46)8-2-16)13-21-29(51)27(23(49)12-6-17-3-9-19(47)10-4-17)39(61)43(63,37(21)59)41-35(57)33(55)31(53)25(15-45)65-41/h1-13,24-25,30-35,40-41,44-48,50-57,62-63H,14-15H2/b11-5+,12-6+,21-13-,26-22-/t24-,25-,30-,31-,32+,33+,34-,35-,40-,41-,42+,43-/m1/s1

>  <PUBCHEM_IUPAC_INCHIKEY>
UZPQVEVQJJKELH-HDOBETQRSA-N

>  <PUBCHEM_XLOGP3_AA>
-2

>  <PUBCHEM_EXACT_MASS>
910.217

>  <PUBCHEM_MOLECULAR_FORMULA>
C43H42O22

>  <PUBCHEM_MOLECULAR_WEIGHT>
910.787

>  <PUBCHEM_OPENEYE_CAN_SMILES>
C1=CC(=CC=C1C=CC(=O)C2=C(C(=CC3=C(C(=C(C=CC4=CC=C(C=C4)O)O)C(=O)C(C3=O)(C5C(C(C(C(O5)CO)O)O)O)O)O)C(=O)C(C2=O)(C6C(C(C(C(O6)CO)O)O)O)O)O)O

>  <PUBCHEM_OPENEYE_ISO_SMILES>
C1=CC(=CC=C1/C=C/C(=O)C2=C(/C(=C/C3=C(/C(=C(\C=C\C4=CC=C(C=C4)O)/O)/C(=O)[C@@](C3=O)([C@H]5[C@@H]([C@H]([C@@H]([C@H](O5)CO)O)O)O)O)O)/C(=O)[C@@](C2=O)([C@H]6[C@@H]([C@H]([C@@H]([C@H](O6)CO)O)O)O)O)O)O

>  <PUBCHEM_CACTVS_TPSA>
407

>  <PUBCHEM_MONOISOTOPIC_WEIGHT>
910.217

>  <PUBCHEM_TOTAL_CHARGE>
0

>  <PUBCHEM_HEAVY_ATOM_COUNT>
65

>  <PUBCHEM_ATOM_DEF_STEREO_COUNT>
12

>  <PUBCHEM_ATOM_UDEF_STEREO_COUNT>
0

>  <PUBCHEM_BOND_DEF_STEREO_COUNT>
4

>  <PUBCHEM_BOND_UDEF_STEREO_COUNT>
0

>  <PUBCHEM_ISOTOPIC_ATOM_COUNT>
0

>  <PUBCHEM_COMPONENT_COUNT>
1

>  <PUBCHEM_CACTVS_TAUTO_COUNT>
988

>  <PUBCHEM_COORDINATE_TYPE>
1
5
255

>  <PUBCHEM_BONDANNOTATIONS>
32  10  5
23  66  6
24  67  5
25  3  6
33  39  5
34  40  6
26  4  5
27  5  5
54  56  8
54  57  8
55  58  8
55  59  8
56  60  8
57  61  8
58  62  8
59  63  8
28  6  5
60  64  8
61  64  8
62  65  8
63  65  8
29  7  6
30  8  6
31  9  6

$$$$
