11968524
 OpenBabel06101807152D

 69 73  0  0  1  0  0  0  0  0999 V2000
    7.7177   -3.1604    0.0000 O   0  0  0  0  0  0  0  0  0  0  0  0
    7.2177   -0.6216    0.0000 O   0  0  0  0  0  0  0  0  0  0  0  0
    5.9857   -3.1604    0.0000 O   0  0  0  0  0  0  0  0  0  0  0  0
    9.1145   -2.3817    0.0000 O   0  0  0  0  0  0  0  0  0  0  0  0
    5.9576   -1.8817    0.0000 O   0  0  0  0  0  0  0  0  0  0  0  0
    7.7177   -5.1604    0.0000 O   0  0  0  0  0  0  0  0  0  0  0  0
    5.9857   -6.1604    0.0000 O   0  0  0  0  0  0  0  0  0  0  0  0
    4.2536   -5.1604    0.0000 O   0  0  0  0  0  0  0  0  0  0  0  0
    9.6857   -0.2855    0.0000 O   0  0  0  0  0  0  0  0  0  0  0  0
    3.3876   -3.6604    0.0000 O   0  0  0  0  0  0  0  0  0  0  0  0
    4.8567    1.4725    0.0000 O   0  0  0  0  0  0  0  0  0  0  0  0
    2.5009   -1.1190    0.0000 O   0  0  0  0  0  0  0  0  0  0  0  0
    2.0000    0.5564    0.0000 O   0  0  0  0  0  0  0  0  0  0  0  0
    6.4440    4.7098    0.0000 O   0  0  0  0  0  0  0  0  0  0  0  0
    4.9629    6.0538    0.0000 O   0  0  0  0  0  0  0  0  0  0  0  0
    7.7177   -2.1604    0.0000 C   0  0  2  0  0  0  0  0  0  0  0  0
    8.5267   -1.5727    0.0000 C   0  0  3  0  0  0  0  0  0  0  0  0
    6.8517   -3.6604    0.0000 C   0  0  2  0  0  0  0  0  0  0  0  0
    6.9087   -1.5727    0.0000 C   0  0  1  0  0  0  0  0  0  0  0  0
    6.8517   -4.6604    0.0000 C   0  0  1  0  0  0  0  0  0  0  0  0
    8.2177   -0.6216    0.0000 C   0  0  0  0  0  0  0  0  0  0  0  0
    5.9857   -5.1604    0.0000 C   0  0  2  0  0  0  0  0  0  0  0  0
    5.1196   -4.6604    0.0000 C   0  0  1  0  0  0  0  0  0  0  0  0
    5.1196   -3.6604    0.0000 C   0  0  1  0  0  0  0  0  0  0  0  0
    9.4778   -1.2636    0.0000 C   0  0  0  0  0  0  0  0  0  0  0  0
    4.2536   -3.1604    0.0000 C   0  0  0  0  0  0  0  0  0  0  0  0
    5.2145   -1.2126    0.0000 C   0  0  0  0  0  0  0  0  0  0  0  0
    5.4271   -0.1929    0.0000 C   0  0  0  0  0  0  0  0  0  0  0  0
    4.2226   -1.5306    0.0000 C   0  0  0  0  0  0  0  0  0  0  0  0
    4.6450    0.4951    0.0000 C   0  0  0  0  0  0  0  0  0  0  0  0
    3.4566   -0.8247    0.0000 C   0  0  0  0  0  0  0  0  0  0  0  0
    3.6928    0.1898    0.0000 C   0  0  0  0  0  0  0  0  0  0  0  0
    2.9522    0.8618    0.0000 C   0  0  0  0  0  0  0  0  0  0  0  0
    4.1162    2.1445    0.0000 C   0  0  0  0  0  0  0  0  0  0  0  0
    3.1639    1.8391    0.0000 C   0  0  0  0  0  0  0  0  0  0  0  0
    4.3278    3.1218    0.0000 C   0  0  0  0  0  0  0  0  0  0  0  0
    5.2801    3.4272    0.0000 C   0  0  0  0  0  0  0  0  0  0  0  0
    3.5873    3.7938    0.0000 C   0  0  0  0  0  0  0  0  0  0  0  0
    5.4918    4.4045    0.0000 C   0  0  0  0  0  0  0  0  0  0  0  0
    3.7990    4.7711    0.0000 C   0  0  0  0  0  0  0  0  0  0  0  0
    4.7512    5.0765    0.0000 C   0  0  0  0  0  0  0  0  0  0  0  0
    7.1653   -2.4419    0.0000 H   0  0  0  0  0  0  0  0  0  0  0  0
    6.8517   -3.0404    0.0000 H   0  0  0  0  0  0  0  0  0  0  0  0
    6.8117   -2.1850    0.0000 H   0  0  0  0  0  0  0  0  0  0  0  0
    6.8517   -5.2804    0.0000 H   0  0  0  0  0  0  0  0  0  0  0  0
    8.8242   -0.4927    0.0000 H   0  0  0  0  0  0  0  0  0  0  0  0
    8.1529   -0.0050    0.0000 H   0  0  0  0  0  0  0  0  0  0  0  0
    5.4487   -5.4704    0.0000 H   0  0  0  0  0  0  0  0  0  0  0  0
    4.5827   -4.3505    0.0000 H   0  0  0  0  0  0  0  0  0  0  0  0
    5.1196   -3.0404    0.0000 H   0  0  0  0  0  0  0  0  0  0  0  0
    9.5641   -1.8776    0.0000 H   0  0  0  0  0  0  0  0  0  0  0  0
   10.0974   -1.2853    0.0000 H   0  0  0  0  0  0  0  0  0  0  0  0
    9.7311   -2.3169    0.0000 H   0  0  0  0  0  0  0  0  0  0  0  0
    4.6521   -2.6855    0.0000 H   0  0  0  0  0  0  0  0  0  0  0  0
    3.8551   -2.6855    0.0000 H   0  0  0  0  0  0  0  0  0  0  0  0
    7.7177   -5.7804    0.0000 H   0  0  0  0  0  0  0  0  0  0  0  0
    5.4487   -6.4704    0.0000 H   0  0  0  0  0  0  0  0  0  0  0  0
    4.2536   -5.7804    0.0000 H   0  0  0  0  0  0  0  0  0  0  0  0
   10.2754   -0.0939    0.0000 H   0  0  0  0  0  0  0  0  0  0  0  0
    2.8506   -3.3504    0.0000 H   0  0  0  0  0  0  0  0  0  0  0  0
    6.0153    0.0033    0.0000 H   0  0  0  0  0  0  0  0  0  0  0  0
    4.0890   -2.1360    0.0000 H   0  0  0  0  0  0  0  0  0  0  0  0
    2.7048    2.2558    0.0000 H   0  0  0  0  0  0  0  0  0  0  0  0
    2.3627   -1.7234    0.0000 H   0  0  0  0  0  0  0  0  0  0  0  0
    5.7392    3.0105    0.0000 H   0  0  0  0  0  0  0  0  0  0  0  0
    2.9969    3.6045    0.0000 H   0  0  0  0  0  0  0  0  0  0  0  0
    3.3398    5.1878    0.0000 H   0  0  0  0  0  0  0  0  0  0  0  0
    6.5752    5.3158    0.0000 H   0  0  0  0  0  0  0  0  0  0  0  0
    4.5037    6.4704    0.0000 H   0  0  0  0  0  0  0  0  0  0  0  0
  2 19  1  0  0  0  0
  2 21  1  0  0  0  0
  3 18  1  0  0  0  0
  3 24  1  0  0  0  0
  4 17  1  0  0  0  0
  4 53  1  0  0  0  0
  5 27  1  0  0  0  0
  6 56  1  0  0  0  0
  7 57  1  0  0  0  0
  8 58  1  0  0  0  0
  9 25  1  0  0  0  0
  9 59  1  0  0  0  0
 10 26  1  0  0  0  0
 10 60  1  0  0  0  0
 11 30  1  0  0  0  0
 11 34  1  0  0  0  0
 12 31  1  0  0  0  0
 12 64  1  0  0  0  0
 13 33  2  0  0  0  0
 14 39  1  0  0  0  0
 14 68  1  0  0  0  0
 15 41  1  0  0  0  0
 15 69  1  0  0  0  0
 16  1  1  0  0  0  0
 16 17  1  6  0  0  0
 16 42  1  0  0  0  0
 17 21  1  0  0  0  0
 17 25  1  0  0  0  0
 18  1  1  0  0  0  0
 18 20  1  6  0  0  0
 18 43  1  0  0  0  0
 19  5  1  0  0  0  0
 19 16  1  6  0  0  0
 19 44  1  0  0  0  0
 20  6  1  0  0  0  0
 20 22  1  6  0  0  0
 20 45  1  0  0  0  0
 21 46  1  0  0  0  0
 21 47  1  0  0  0  0
 22  7  1  0  0  0  0
 22 23  1  1  0  0  0
 22 48  1  0  0  0  0
 23  8  1  0  0  0  0
 23 24  1  6  0  0  0
 23 49  1  0  0  0  0
 24 26  1  0  0  0  0
 24 50  1  6  0  0  0
 25 51  1  0  0  0  0
 25 52  1  0  0  0  0
 26 54  1  0  0  0  0
 26 55  1  0  0  0  0
 27 28  1  0  0  0  0
 27 29  2  0  0  0  0
 28 30  2  0  0  0  0
 28 61  1  0  0  0  0
 29 31  1  0  0  0  0
 29 62  1  0  0  0  0
 30 32  1  0  0  0  0
 31 32  2  0  0  0  0
 32 33  1  0  0  0  0
 33 35  1  0  0  0  0
 34 35  2  0  0  0  0
 34 36  1  0  0  0  0
 35 63  1  0  0  0  0
 36 37  2  0  0  0  0
 36 38  1  0  0  0  0
 37 39  1  0  0  0  0
 37 65  1  0  0  0  0
 38 40  2  0  0  0  0
 38 66  1  0  0  0  0
 39 41  2  0  0  0  0
 40 41  1  0  0  0  0
 40 67  1  0  0  0  0
M  END
>  <PUBCHEM_COMPOUND_CID>
11968524

>  <PUBCHEM_COMPOUND_CANONICALIZED>
1

>  <PUBCHEM_CACTVS_COMPLEXITY>
963

>  <PUBCHEM_CACTVS_HBOND_ACCEPTOR>
15

>  <PUBCHEM_CACTVS_HBOND_DONOR>
9

>  <PUBCHEM_CACTVS_ROTATABLE_BOND>
7

>  <PUBCHEM_CACTVS_SUBSKEYS>
AAADceB4PAAAAAAAAAAAAAAAAAAAASAAAAA0YIEAAAAAAACBQAAAGgAACAAADFSwmAMwDoAABgCIAqBSAAACCAAkIAAIiAEGiMgdNzaGNRqieWGl4BUPuQfI7LzOIAABCAAIQABAAAIQABCAAAAAAAAAAA==

>  <PUBCHEM_IUPAC_OPENEYE_NAME>
2-(3,4-dihydroxyphenyl)-5-hydroxy-7-[(2S,3R)-4-hydroxy-4-(hydroxymethyl)-3-[(2S,3R,4S,5S,6R)-3,4,5-trihydroxy-6-(hydroxymethyl)tetrahydropyran-2-yl]oxy-tetrahydrofuran-2-yl]oxy-chromen-4-one

>  <PUBCHEM_IUPAC_CAS_NAME>
2-(3,4-dihydroxyphenyl)-5-hydroxy-7-[[(2S,3R)-4-hydroxy-4-(hydroxymethyl)-3-[[(2S,3R,4S,5S,6R)-3,4,5-trihydroxy-6-(hydroxymethyl)-2-oxanyl]oxy]-2-oxolanyl]oxy]-1-benzopyran-4-one

>  <PUBCHEM_IUPAC_NAME>
2-(3,4-dihydroxyphenyl)-5-hydroxy-7-[(2S,3R)-4-hydroxy-4-(hydroxymethyl)-3-[(2S,3R,4S,5S,6R)-3,4,5-trihydroxy-6-(hydroxymethyl)oxan-2-yl]oxyoxolan-2-yl]oxychromen-4-one

>  <PUBCHEM_IUPAC_SYSTEMATIC_NAME>
2-[3,4-bis(oxidanyl)phenyl]-7-[(2S,3R)-4-(hydroxymethyl)-3-[(2S,3R,4S,5S,6R)-6-(hydroxymethyl)-3,4,5-tris(oxidanyl)oxan-2-yl]oxy-4-oxidanyl-oxolan-2-yl]oxy-5-oxidanyl-chromen-4-one

>  <PUBCHEM_IUPAC_TRADITIONAL_NAME>
2-(3,4-dihydroxyphenyl)-5-hydroxy-7-[(2S,3R)-4-hydroxy-4-methylol-3-[(2S,3R,4S,5S,6R)-3,4,5-trihydroxy-6-methylol-tetrahydropyran-2-yl]oxy-tetrahydrofuran-2-yl]oxy-chromone

>  <PUBCHEM_IUPAC_INCHI>
InChI=1S/C26H28O15/c27-7-18-20(33)21(34)22(35)24(40-18)41-23-25(37-9-26(23,36)8-28)38-11-4-14(31)19-15(32)6-16(39-17(19)5-11)10-1-2-12(29)13(30)3-10/h1-6,18,20-25,27-31,33-36H,7-9H2/t18-,20-,21+,22-,23+,24+,25+,26?/m1/s1

>  <PUBCHEM_IUPAC_INCHIKEY>
QQRQQTAVILSCDC-NNYZNZHVSA-N

>  <PUBCHEM_XLOGP3_AA>
-1.3

>  <PUBCHEM_EXACT_MASS>
580.143

>  <PUBCHEM_MOLECULAR_FORMULA>
C26H28O15

>  <PUBCHEM_MOLECULAR_WEIGHT>
580.495

>  <PUBCHEM_OPENEYE_CAN_SMILES>
C1C(C(C(O1)OC2=CC(=C3C(=C2)OC(=CC3=O)C4=CC(=C(C=C4)O)O)O)OC5C(C(C(C(O5)CO)O)O)O)(CO)O

>  <PUBCHEM_OPENEYE_ISO_SMILES>
C1C([C@H]([C@@H](O1)OC2=CC(=C3C(=C2)OC(=CC3=O)C4=CC(=C(C=C4)O)O)O)O[C@H]5[C@@H]([C@H]([C@@H]([C@H](O5)CO)O)O)O)(CO)O

>  <PUBCHEM_CACTVS_TPSA>
245

>  <PUBCHEM_MONOISOTOPIC_WEIGHT>
580.143

>  <PUBCHEM_TOTAL_CHARGE>
0

>  <PUBCHEM_HEAVY_ATOM_COUNT>
41

>  <PUBCHEM_ATOM_DEF_STEREO_COUNT>
7

>  <PUBCHEM_ATOM_UDEF_STEREO_COUNT>
1

>  <PUBCHEM_BOND_DEF_STEREO_COUNT>
0

>  <PUBCHEM_BOND_UDEF_STEREO_COUNT>
0

>  <PUBCHEM_ISOTOPIC_ATOM_COUNT>
0

>  <PUBCHEM_COMPONENT_COUNT>
1

>  <PUBCHEM_CACTVS_TAUTO_COUNT>
68

>  <PUBCHEM_COORDINATE_TYPE>
1
5
255

>  <PUBCHEM_BONDANNOTATIONS>
16  1  5
18  1  5
11  30  8
11  34  8
24  26  5
27  28  8
27  29  8
28  30  8
29  31  8
30  32  8
31  32  8
32  33  8
33  35  8
34  35  8
36  37  8
36  38  8
37  39  8
38  40  8
39  41  8
17  4  3
40  41  8
19  5  6
20  6  6
22  7  5
23  8  6

$$$$
