11972403
 OpenBabel06101807152D

116120  0  0  1  0  0  0  0  0999 V2000
    5.1350    7.9381    0.0000 O   0  0  0  0  0  0  0  0  0  0  0  0
    3.4030    4.9381    0.0000 O   0  0  0  0  0  0  0  0  0  0  0  0
    3.4030    6.9381    0.0000 O   0  0  0  0  0  0  0  0  0  0  0  0
    6.0010    3.4381    0.0000 O   0  0  0  0  0  0  0  0  0  0  0  0
    6.0089    8.4864    0.0000 O   0  0  0  0  0  0  0  0  0  0  0  0
    7.7788    5.4208    0.0000 O   0  0  0  0  0  0  0  0  0  0  0  0
    9.5112    8.4968    0.0000 O   0  0  0  0  0  0  0  0  0  0  0  0
    6.9073    9.9867    0.0000 O   0  0  0  0  0  0  0  0  0  0  0  0
    4.2690   -9.5619    0.0000 O   0  0  0  0  0  0  0  0  0  0  0  0
    5.1350    1.9381    0.0000 O   0  0  0  0  0  0  0  0  0  0  0  0
    2.5369  -11.5619    0.0000 O   0  0  0  0  0  0  0  0  0  0  0  0
    4.2690  -12.5619    0.0000 O   0  0  0  0  0  0  0  0  0  0  0  0
    6.0010  -11.5619    0.0000 O   0  0  0  0  0  0  0  0  0  0  0  0
    6.0010   -9.5619    0.0000 O   0  0  0  0  0  0  0  0  0  0  0  0
    2.5369   -8.5619    0.0000 O   0  0  0  0  0  0  0  0  0  0  0  0
    9.5076   12.5660    0.0000 O   0  0  0  0  0  0  0  0  0  0  0  0
   11.2854   11.5487    0.0000 O   0  0  0  0  0  0  0  0  0  0  0  0
    5.1350   -8.0619    0.0000 O   0  0  0  0  0  0  0  0  0  0  0  0
    6.0010    6.4381    0.0000 C   0  0  2  0  0  0  0  0  0  0  0  0
    5.1350    4.9381    0.0000 C   0  0  2  0  0  0  0  0  0  0  0  0
    6.0010    5.4381    0.0000 C   0  0  0  0  0  0  0  0  0  0  0  0
    5.1350    6.9381    0.0000 C   0  0  2  0  0  0  0  0  0  0  0  0
    4.2690    5.4381    0.0000 C   0  0  1  0  0  0  0  0  0  0  0  0
    4.2690    6.4381    0.0000 C   0  0  1  0  0  0  0  0  0  0  0  0
    6.8671    6.9381    0.0000 C   0  0  0  0  0  0  0  0  0  0  0  0
    5.1350    3.9381    0.0000 C   0  0  0  0  0  0  0  0  0  0  0  0
    6.8711    7.9797    0.0000 C   0  0  0  0  0  0  0  0  0  0  0  0
    7.7711    6.4208    0.0000 C   0  0  0  0  0  0  0  0  0  0  0  0
    7.7791    8.4901    0.0000 C   0  0  0  0  0  0  0  0  0  0  0  0
    8.6671    6.9520    0.0000 C   0  0  0  0  0  0  0  0  0  0  0  0
    8.6471    7.9934    0.0000 C   0  0  0  0  0  0  0  0  0  0  0  0
    7.7753    9.4901    0.0000 C   0  0  0  0  0  0  0  0  0  0  0  0
    6.0010    2.4381    0.0000 C   0  0  0  0  0  0  0  0  0  0  0  0
    8.6394    9.9934    0.0000 C   0  0  0  0  0  0  0  0  0  0  0  0
    9.5073    9.4968    0.0000 C   0  0  0  0  0  0  0  0  0  0  0  0
    6.8671    1.9381    0.0000 C   0  0  0  0  0  0  0  0  0  0  0  0
    3.4030  -11.0619    0.0000 C   0  0  1  0  0  0  0  0  0  0  0  0
    4.2690  -11.5619    0.0000 C   0  0  1  0  0  0  0  0  0  0  0  0
    3.4030  -10.0619    0.0000 C   0  0  1  0  0  0  0  0  0  0  0  0
    5.1350  -11.0619    0.0000 C   0  0  2  0  0  0  0  0  0  0  0  0
    5.1350  -10.0619    0.0000 C   0  0  1  0  0  0  0  0  0  0  0  0
    8.6193   11.0349    0.0000 C   0  0  0  0  0  0  0  0  0  0  0  0
   10.4153   10.0071    0.0000 C   0  0  0  0  0  0  0  0  0  0  0  0
    2.5369   -9.5619    0.0000 C   0  0  0  0  0  0  0  0  0  0  0  0
    7.7331    2.4381    0.0000 C   0  0  0  0  0  0  0  0  0  0  0  0
    9.5153   11.5661    0.0000 C   0  0  0  0  0  0  0  0  0  0  0  0
    6.8671    0.9381    0.0000 C   0  0  0  0  0  0  0  0  0  0  0  0
   10.4194   11.0487    0.0000 C   0  0  0  0  0  0  0  0  0  0  0  0
    7.7331    0.4381    0.0000 C   0  0  0  0  0  0  0  0  0  0  0  0
    6.0010   -8.5619    0.0000 C   0  0  0  0  0  0  0  0  0  0  0  0
    7.7331   -0.5619    0.0000 C   0  0  0  0  0  0  0  0  0  0  0  0
    6.8671   -8.0619    0.0000 C   0  0  0  0  0  0  0  0  0  0  0  0
    7.7331   -8.5619    0.0000 C   0  0  0  0  0  0  0  0  0  0  0  0
    8.5991   -1.0619    0.0000 C   0  0  0  0  0  0  0  0  0  0  0  0
    6.8671   -7.0619    0.0000 C   0  0  0  0  0  0  0  0  0  0  0  0
    9.4651   -0.5619    0.0000 C   0  0  0  0  0  0  0  0  0  0  0  0
    7.7331   -6.5619    0.0000 C   0  0  0  0  0  0  0  0  0  0  0  0
    8.5991   -2.0619    0.0000 C   0  0  0  0  0  0  0  0  0  0  0  0
    7.7331   -5.5619    0.0000 C   0  0  0  0  0  0  0  0  0  0  0  0
    9.4651   -2.5619    0.0000 C   0  0  0  0  0  0  0  0  0  0  0  0
    8.5991   -5.0619    0.0000 C   0  0  0  0  0  0  0  0  0  0  0  0
    9.4651   -3.5619    0.0000 C   0  0  0  0  0  0  0  0  0  0  0  0
    8.5991   -4.0619    0.0000 C   0  0  0  0  0  0  0  0  0  0  0  0
    9.4651   -5.5619    0.0000 C   0  0  0  0  0  0  0  0  0  0  0  0
    6.0010    7.2881    0.0000 H   0  0  0  0  0  0  0  0  0  0  0  0
    5.6720    4.6281    0.0000 H   0  0  0  0  0  0  0  0  0  0  0  0
    6.2131    4.8555    0.0000 H   0  0  0  0  0  0  0  0  0  0  0  0
    6.6116    5.5458    0.0000 H   0  0  0  0  0  0  0  0  0  0  0  0
    4.5981    7.2481    0.0000 H   0  0  0  0  0  0  0  0  0  0  0  0
    3.7320    5.7481    0.0000 H   0  0  0  0  0  0  0  0  0  0  0  0
    4.2690    7.0581    0.0000 H   0  0  0  0  0  0  0  0  0  0  0  0
    4.5244    4.0458    0.0000 H   0  0  0  0  0  0  0  0  0  0  0  0
    4.9230    3.3555    0.0000 H   0  0  0  0  0  0  0  0  0  0  0  0
    4.5981    8.2481    0.0000 H   0  0  0  0  0  0  0  0  0  0  0  0
    3.4030    4.3181    0.0000 H   0  0  0  0  0  0  0  0  0  0  0  0
    2.8660    6.6281    0.0000 H   0  0  0  0  0  0  0  0  0  0  0  0
    9.2088    6.6503    0.0000 H   0  0  0  0  0  0  0  0  0  0  0  0
    6.0137    9.1064    0.0000 H   0  0  0  0  0  0  0  0  0  0  0  0
    8.3182    5.1150    0.0000 H   0  0  0  0  0  0  0  0  0  0  0  0
    3.4030  -11.6819    0.0000 H   0  0  0  0  0  0  0  0  0  0  0  0
    4.8059  -11.8719    0.0000 H   0  0  0  0  0  0  0  0  0  0  0  0
    3.4030   -9.4419    0.0000 H   0  0  0  0  0  0  0  0  0  0  0  0
    5.6720  -10.7519    0.0000 H   0  0  0  0  0  0  0  0  0  0  0  0
    5.1350   -9.4419    0.0000 H   0  0  0  0  0  0  0  0  0  0  0  0
    8.0776   11.3365    0.0000 H   0  0  0  0  0  0  0  0  0  0  0  0
   10.9499    9.6930    0.0000 H   0  0  0  0  0  0  0  0  0  0  0  0
    1.9264   -9.4542    0.0000 H   0  0  0  0  0  0  0  0  0  0  0  0
    2.3249  -10.1445    0.0000 H   0  0  0  0  0  0  0  0  0  0  0  0
    8.0431    1.9012    0.0000 H   0  0  0  0  0  0  0  0  0  0  0  0
    8.2700    2.7481    0.0000 H   0  0  0  0  0  0  0  0  0  0  0  0
    7.4231    2.9750    0.0000 H   0  0  0  0  0  0  0  0  0  0  0  0
    6.3301    0.6281    0.0000 H   0  0  0  0  0  0  0  0  0  0  0  0
    2.0000  -11.2519    0.0000 H   0  0  0  0  0  0  0  0  0  0  0  0
    3.7320  -12.8719    0.0000 H   0  0  0  0  0  0  0  0  0  0  0  0
    6.5380  -11.2519    0.0000 H   0  0  0  0  0  0  0  0  0  0  0  0
    8.2700    0.7481    0.0000 H   0  0  0  0  0  0  0  0  0  0  0  0
    2.0000   -8.2519    0.0000 H   0  0  0  0  0  0  0  0  0  0  0  0
    8.9683   12.8719    0.0000 H   0  0  0  0  0  0  0  0  0  0  0  0
   11.8223   11.2387    0.0000 H   0  0  0  0  0  0  0  0  0  0  0  0
    7.1962   -0.8719    0.0000 H   0  0  0  0  0  0  0  0  0  0  0  0
    7.4231   -9.0988    0.0000 H   0  0  0  0  0  0  0  0  0  0  0  0
    8.2700   -8.8719    0.0000 H   0  0  0  0  0  0  0  0  0  0  0  0
    8.0431   -8.0250    0.0000 H   0  0  0  0  0  0  0  0  0  0  0  0
    6.3301   -6.7519    0.0000 H   0  0  0  0  0  0  0  0  0  0  0  0
    9.7751   -1.0988    0.0000 H   0  0  0  0  0  0  0  0  0  0  0  0
   10.0021   -0.2519    0.0000 H   0  0  0  0  0  0  0  0  0  0  0  0
    9.1551   -0.0249    0.0000 H   0  0  0  0  0  0  0  0  0  0  0  0
    8.2700   -6.8719    0.0000 H   0  0  0  0  0  0  0  0  0  0  0  0
    8.0622   -2.3719    0.0000 H   0  0  0  0  0  0  0  0  0  0  0  0
    7.1962   -5.2519    0.0000 H   0  0  0  0  0  0  0  0  0  0  0  0
   10.0021   -2.2519    0.0000 H   0  0  0  0  0  0  0  0  0  0  0  0
   10.0021   -3.8719    0.0000 H   0  0  0  0  0  0  0  0  0  0  0  0
    8.0622   -3.7519    0.0000 H   0  0  0  0  0  0  0  0  0  0  0  0
    9.1551   -6.0988    0.0000 H   0  0  0  0  0  0  0  0  0  0  0  0
   10.0021   -5.8719    0.0000 H   0  0  0  0  0  0  0  0  0  0  0  0
    9.7751   -5.0249    0.0000 H   0  0  0  0  0  0  0  0  0  0  0  0
  1 74  1  0  0  0  0
  2 75  1  0  0  0  0
  3 76  1  0  0  0  0
  4 26  1  0  0  0  0
  4 33  1  0  0  0  0
  5 27  1  0  0  0  0
  5 78  1  0  0  0  0
  6 28  1  0  0  0  0
  6 79  1  0  0  0  0
  7 31  1  0  0  0  0
  7 35  1  0  0  0  0
  8 32  2  0  0  0  0
  9 39  1  0  0  0  0
  9 41  1  0  0  0  0
 10 33  2  0  0  0  0
 11 93  1  0  0  0  0
 12 94  1  0  0  0  0
 13 95  1  0  0  0  0
 14 50  1  0  0  0  0
 15 44  1  0  0  0  0
 15 97  1  0  0  0  0
 16 46  1  0  0  0  0
 16 98  1  0  0  0  0
 17 48  1  0  0  0  0
 17 99  1  0  0  0  0
 18 50  2  0  0  0  0
 19 21  1  0  0  0  0
 19 22  1  6  0  0  0
 19 25  1  0  0  0  0
 19 65  1  0  0  0  0
 20 21  1  0  0  0  0
 20 23  1  6  0  0  0
 20 26  1  0  0  0  0
 20 66  1  0  0  0  0
 21 67  1  0  0  0  0
 21 68  1  0  0  0  0
 22  1  1  0  0  0  0
 22 24  1  6  0  0  0
 22 69  1  0  0  0  0
 23  2  1  0  0  0  0
 23 24  1  6  0  0  0
 23 70  1  0  0  0  0
 24  3  1  0  0  0  0
 24 71  1  6  0  0  0
 25 27  2  0  0  0  0
 25 28  1  0  0  0  0
 26 72  1  0  0  0  0
 26 73  1  0  0  0  0
 27 29  1  0  0  0  0
 28 30  2  0  0  0  0
 29 31  2  0  0  0  0
 29 32  1  0  0  0  0
 30 31  1  0  0  0  0
 30 77  1  0  0  0  0
 32 34  1  0  0  0  0
 33 36  1  0  0  0  0
 34 35  1  0  0  0  0
 34 42  2  0  0  0  0
 35 43  2  0  0  0  0
 36 45  1  0  0  0  0
 36 47  2  0  0  0  0
 37 11  1  0  0  0  0
 37 38  1  6  0  0  0
 37 80  1  0  0  0  0
 38 12  1  0  0  0  0
 38 40  1  1  0  0  0
 38 81  1  0  0  0  0
 39 37  1  6  0  0  0
 39 44  1  0  0  0  0
 39 82  1  0  0  0  0
 40 13  1  0  0  0  0
 40 41  1  6  0  0  0
 40 83  1  0  0  0  0
 41 14  1  0  0  0  0
 41 84  1  6  0  0  0
 42 46  1  0  0  0  0
 42 85  1  0  0  0  0
 43 48  1  0  0  0  0
 43 86  1  0  0  0  0
 44 87  1  0  0  0  0
 44 88  1  0  0  0  0
 45 89  1  0  0  0  0
 45 90  1  0  0  0  0
 45 91  1  0  0  0  0
 46 48  2  0  0  0  0
 47 49  1  0  0  0  0
 47 92  1  0  0  0  0
 49 51  2  0  0  0  0
 49 96  1  0  0  0  0
 50 52  1  0  0  0  0
 51 54  1  0  0  0  0
 51100  1  0  0  0  0
 52 53  1  0  0  0  0
 52 55  2  0  0  0  0
 53101  1  0  0  0  0
 53102  1  0  0  0  0
 53103  1  0  0  0  0
 54 56  1  0  0  0  0
 54 58  2  0  0  0  0
 55 57  1  0  0  0  0
 55104  1  0  0  0  0
 56105  1  0  0  0  0
 56106  1  0  0  0  0
 56107  1  0  0  0  0
 57 59  2  0  0  0  0
 57108  1  0  0  0  0
 58 60  1  0  0  0  0
 58109  1  0  0  0  0
 59 61  1  0  0  0  0
 59110  1  0  0  0  0
 60 62  2  0  0  0  0
 60111  1  0  0  0  0
 61 63  2  0  0  0  0
 61 64  1  0  0  0  0
 62 63  1  0  0  0  0
 62112  1  0  0  0  0
 63113  1  0  0  0  0
 64114  1  0  0  0  0
 64115  1  0  0  0  0
 64116  1  0  0  0  0
M  END
>  <PUBCHEM_COMPOUND_CID>
11972403

>  <PUBCHEM_COMPOUND_CANONICALIZED>
1

>  <PUBCHEM_CACTVS_COMPLEXITY>
1870

>  <PUBCHEM_CACTVS_HBOND_ACCEPTOR>
18

>  <PUBCHEM_CACTVS_HBOND_DONOR>
11

>  <PUBCHEM_CACTVS_ROTATABLE_BOND>
15

>  <PUBCHEM_CACTVS_SUBSKEYS>
AAADcfB8PgAAAAAAAAAAAAAAAAAAAAAAAAA0aMECAAAAAACRQAAAGgAACAAADRSwmAMyDoAABgCIAqDSCAACCAAkIAAIiAEGiMgdNzaGNRqieWGl4BUPuYfK7PzOoQADCAAIQABCAAYQABCAAAAAAAAAAA==

>  <PUBCHEM_IUPAC_OPENEYE_NAME>
O1-[(2S,3R,4S,5S,6R)-3,4,5-trihydroxy-6-(hydroxymethyl)tetrahydropyran-2-yl] O16-[[(1S,2S,3S,4R,5S)-2,3,4-trihydroxy-5-(1,3,6,7-tetrahydroxy-9-oxo-xanthen-2-yl)cyclohexyl]methyl] (2E,4E,6E,8Z,10E,12E,14E)-2,6,11,15-tetramethylhexadeca-2,4,6,8,10,12,14-heptaenedioate

>  <PUBCHEM_IUPAC_CAS_NAME>
(2E,4E,6E,8Z,10E,12E,14E)-2,6,11,15-tetramethylhexadeca-2,4,6,8,10,12,14-heptaenedioic acid O1-[(2S,3R,4S,5S,6R)-3,4,5-trihydroxy-6-(hydroxymethyl)-2-oxanyl] ester O16-[[(1S,2S,3S,4R,5S)-2,3,4-trihydroxy-5-(1,3,6,7-tetrahydroxy-9-oxo-2-xanthenyl)cyclohexyl]methyl] ester

>  <PUBCHEM_IUPAC_NAME>
1-O-[(2S,3R,4S,5S,6R)-3,4,5-trihydroxy-6-(hydroxymethyl)oxan-2-yl] 16-O-[[(1S,2S,3S,4R,5S)-2,3,4-trihydroxy-5-(1,3,6,7-tetrahydroxy-9-oxoxanthen-2-yl)cyclohexyl]methyl] (2E,4E,6E,8Z,10E,12E,14E)-2,6,11,15-tetramethylhexadeca-2,4,6,8,10,12,14-heptaenedioate

>  <PUBCHEM_IUPAC_SYSTEMATIC_NAME>
O1-[(2S,3R,4S,5S,6R)-6-(hydroxymethyl)-3,4,5-tris(oxidanyl)oxan-2-yl] O16-[[(1S,2S,3S,4R,5S)-2,3,4-tris(oxidanyl)-5-[1,3,6,7-tetrakis(oxidanyl)-9-oxidanylidene-xanthen-2-yl]cyclohexyl]methyl] (2E,4E,6E,8Z,10E,12E,14E)-2,6,11,15-tetramethylhexadeca-2,4,6,8,10,12,14-heptaenedioate

>  <PUBCHEM_IUPAC_TRADITIONAL_NAME>
(2E,4E,6E,8Z,10E,12E,14E)-2,6,11,15-tetramethylhexadeca-2,4,6,8,10,12,14-heptaenedioic acid O1-[(2S,3R,4S,5S,6R)-3,4,5-trihydroxy-6-methylol-tetrahydropyran-2-yl] ester O16-[[(1S,2S,3S,4R,5S)-2,3,4-trihydroxy-5-(1,3,6,7-tetrahydroxy-9-keto-xanthen-2-yl)cyclohexyl]methyl] ester

>  <PUBCHEM_IUPAC_INCHI>
InChI=1S/C46H52O18/c1-21(9-5-6-10-22(2)12-8-14-24(4)45(60)64-46-43(58)42(57)39(54)33(19-47)63-46)11-7-13-23(3)44(59)61-20-25-15-27(38(53)41(56)36(25)51)34-30(50)18-32-35(40(34)55)37(52)26-16-28(48)29(49)17-31(26)62-32/h5-14,16-18,25,27,33,36,38-39,41-43,46-51,53-58H,15,19-20H2,1-4H3/b6-5-,11-7+,12-8+,21-9+,22-10+,23-13+,24-14+/t25-,27-,33+,36-,38+,39+,41+,42-,43+,46-/m0/s1

>  <PUBCHEM_IUPAC_INCHIKEY>
NCWGUSGGDZUCES-BMPAEULOSA-N

>  <PUBCHEM_XLOGP3_AA>
4.4

>  <PUBCHEM_EXACT_MASS>
892.315

>  <PUBCHEM_MOLECULAR_FORMULA>
C46H52O18

>  <PUBCHEM_MOLECULAR_WEIGHT>
892.904

>  <PUBCHEM_OPENEYE_CAN_SMILES>
CC(=CC=CC=C(C)C=CC=C(C)C(=O)OC1C(C(C(C(O1)CO)O)O)O)C=CC=C(C)C(=O)OCC2CC(C(C(C2O)O)O)C3=C(C=C4C(=C3O)C(=O)C5=CC(=C(C=C5O4)O)O)O

>  <PUBCHEM_OPENEYE_ISO_SMILES>
C/C(=C\C=C/C=C(\C)/C=C/C=C(\C)/C(=O)O[C@H]1[C@@H]([C@H]([C@@H]([C@H](O1)CO)O)O)O)/C=C/C=C(\C)/C(=O)OC[C@@H]2C[C@H]([C@H]([C@@H]([C@H]2O)O)O)C3=C(C=C4C(=C3O)C(=O)C5=CC(=C(C=C5O4)O)O)O

>  <PUBCHEM_CACTVS_TPSA>
311

>  <PUBCHEM_MONOISOTOPIC_WEIGHT>
892.315

>  <PUBCHEM_TOTAL_CHARGE>
0

>  <PUBCHEM_HEAVY_ATOM_COUNT>
64

>  <PUBCHEM_ATOM_DEF_STEREO_COUNT>
10

>  <PUBCHEM_ATOM_UDEF_STEREO_COUNT>
0

>  <PUBCHEM_BOND_DEF_STEREO_COUNT>
7

>  <PUBCHEM_BOND_UDEF_STEREO_COUNT>
0

>  <PUBCHEM_ISOTOPIC_ATOM_COUNT>
0

>  <PUBCHEM_COMPONENT_COUNT>
1

>  <PUBCHEM_CACTVS_TAUTO_COUNT>
114

>  <PUBCHEM_COORDINATE_TYPE>
1
5
255

>  <PUBCHEM_BONDANNOTATIONS>
22  1  6
37  11  6
38  12  5
40  13  6
41  14  5
19  65  5
23  2  6
20  26  5
25  27  8
25  28  8
27  29  8
28  30  8
29  31  8
29  32  8
24  3  5
30  31  8
32  34  8
34  35  8
34  42  8
35  43  8
39  44  5
42  46  8
43  48  8
46  48  8
7  31  8
7  35  8

$$$$
