11972329
 OpenBabel06101807152D

 83 87  0  0  1  0  0  0  0  0999 V2000
    8.5991   -1.2393    0.0000 O   0  0  0  0  0  0  0  0  0  0  0  0
   14.6720   -1.7549    0.0000 O   0  0  0  0  0  0  0  0  0  0  0  0
   10.3312   -1.2393    0.0000 O   0  0  0  0  0  0  0  0  0  0  0  0
   13.8233   -0.2450    0.0000 O   0  0  0  0  0  0  0  0  0  0  0  0
    6.8671   -3.2393    0.0000 O   0  0  0  0  0  0  0  0  0  0  0  0
    8.5991   -4.2393    0.0000 O   0  0  0  0  0  0  0  0  0  0  0  0
   10.3312   -3.2393    0.0000 O   0  0  0  0  0  0  0  0  0  0  0  0
   12.0567   -3.2247    0.0000 O   0  0  0  0  0  0  0  0  0  0  0  0
   13.7771   -4.2447    0.0000 O   0  0  0  0  0  0  0  0  0  0  0  0
   12.0799   -1.2249    0.0000 O   0  0  0  0  0  0  0  0  0  0  0  0
    6.0010   -1.7393    0.0000 O   0  0  0  0  0  0  0  0  0  0  0  0
   16.3923   -2.7748    0.0000 O   0  0  0  0  0  0  0  0  0  0  0  0
   12.1145    1.7749    0.0000 O   0  3  0  0  0  0  0  0  0  0  0  0
    8.5849    1.8399    0.0000 O   0  0  0  0  0  0  0  0  0  0  0  0
    5.1350   -0.2393    0.0000 O   0  0  0  0  0  0  0  0  0  0  0  0
   14.7414    4.2447    0.0000 O   0  0  0  0  0  0  0  0  0  0  0  0
   16.4386    1.2249    0.0000 O   0  0  0  0  0  0  0  0  0  0  0  0
   16.4617    3.2247    0.0000 O   0  0  0  0  0  0  0  0  0  0  0  0
    2.5369   -1.7393    0.0000 O   0  0  0  0  0  0  0  0  0  0  0  0
    3.4030   -0.2393    0.0000 O   0  0  0  0  0  0  0  0  0  0  0  0
    7.7331   -2.7393    0.0000 C   0  0  1  0  0  0  0  0  0  0  0  0
    8.5991   -3.2393    0.0000 C   0  0  1  0  0  0  0  0  0  0  0  0
    7.7331   -1.7393    0.0000 C   0  0  1  0  0  0  0  0  0  0  0  0
    9.4651   -2.7393    0.0000 C   0  0  2  0  0  0  0  0  0  0  0  0
   12.9285   -2.7348    0.0000 C   0  0  1  0  0  0  0  0  0  0  0  0
   13.7887   -3.2448    0.0000 C   0  0  1  0  0  0  0  0  0  0  0  0
   12.9400   -1.7349    0.0000 C   0  0  2  0  0  0  0  0  0  0  0  0
   14.6604   -2.7548    0.0000 C   0  0  1  0  0  0  0  0  0  0  0  0
    9.4651   -1.7393    0.0000 C   0  0  1  0  0  0  0  0  0  0  0  0
   13.8118   -1.2449    0.0000 C   0  0  1  0  0  0  0  0  0  0  0  0
    6.8671   -1.2393    0.0000 C   0  0  0  0  0  0  0  0  0  0  0  0
   15.5206   -3.2648    0.0000 C   0  0  0  0  0  0  0  0  0  0  0  0
   10.3312   -0.2393    0.0000 C   0  0  0  0  0  0  0  0  0  0  0  0
   12.9632    0.2650    0.0000 C   0  0  0  0  0  0  0  0  0  0  0  0
   11.2312    0.2850    0.0000 C   0  0  0  0  0  0  0  0  0  0  0  0
   12.0914   -0.2249    0.0000 C   0  0  0  0  0  0  0  0  0  0  0  0
   12.9747    1.2649    0.0000 C   0  0  0  0  0  0  0  0  0  0  0  0
   11.2428    1.2850    0.0000 C   0  0  0  0  0  0  0  0  0  0  0  0
    9.4311    0.2850    0.0000 C   0  0  0  0  0  0  0  0  0  0  0  0
   10.3551    1.8299    0.0000 C   0  0  0  0  0  0  0  0  0  0  0  0
    9.4431    1.3266    0.0000 C   0  0  0  0  0  0  0  0  0  0  0  0
   13.8465    1.7549    0.0000 C   0  0  0  0  0  0  0  0  0  0  0  0
    5.1350   -1.2393    0.0000 C   0  0  0  0  0  0  0  0  0  0  0  0
    4.2690   -1.7393    0.0000 C   0  0  0  0  0  0  0  0  0  0  0  0
   14.7067    1.2449    0.0000 C   0  0  0  0  0  0  0  0  0  0  0  0
   13.8580    2.7548    0.0000 C   0  0  0  0  0  0  0  0  0  0  0  0
   14.7298    3.2448    0.0000 C   0  0  0  0  0  0  0  0  0  0  0  0
   15.5784    1.7349    0.0000 C   0  0  0  0  0  0  0  0  0  0  0  0
   15.5900    2.7348    0.0000 C   0  0  0  0  0  0  0  0  0  0  0  0
    3.4030   -1.2393    0.0000 C   0  0  0  0  0  0  0  0  0  0  0  0
    7.7331   -3.3593    0.0000 H   0  0  0  0  0  0  0  0  0  0  0  0
    9.1360   -3.5493    0.0000 H   0  0  0  0  0  0  0  0  0  0  0  0
    7.7331   -1.1193    0.0000 H   0  0  0  0  0  0  0  0  0  0  0  0
   10.0021   -2.4293    0.0000 H   0  0  0  0  0  0  0  0  0  0  0  0
   12.3952   -2.4186    0.0000 H   0  0  0  0  0  0  0  0  0  0  0  0
   14.3220   -3.5610    0.0000 H   0  0  0  0  0  0  0  0  0  0  0  0
   12.9472   -1.1149    0.0000 H   0  0  0  0  0  0  0  0  0  0  0  0
   15.2009   -2.4510    0.0000 H   0  0  0  0  0  0  0  0  0  0  0  0
    9.4651   -1.1193    0.0000 H   0  0  0  0  0  0  0  0  0  0  0  0
   14.3523   -0.9411    0.0000 H   0  0  0  0  0  0  0  0  0  0  0  0
    7.2656   -0.7643    0.0000 H   0  0  0  0  0  0  0  0  0  0  0  0
    6.4685   -0.7643    0.0000 H   0  0  0  0  0  0  0  0  0  0  0  0
   15.1166   -3.7351    0.0000 H   0  0  0  0  0  0  0  0  0  0  0  0
   15.9136   -3.7443    0.0000 H   0  0  0  0  0  0  0  0  0  0  0  0
    6.8671   -3.8593    0.0000 H   0  0  0  0  0  0  0  0  0  0  0  0
    8.0622   -4.5493    0.0000 H   0  0  0  0  0  0  0  0  0  0  0  0
   10.3312   -3.8593    0.0000 H   0  0  0  0  0  0  0  0  0  0  0  0
   12.0496   -3.8447    0.0000 H   0  0  0  0  0  0  0  0  0  0  0  0
   14.3104   -4.5609    0.0000 H   0  0  0  0  0  0  0  0  0  0  0  0
   11.5394   -1.5286    0.0000 H   0  0  0  0  0  0  0  0  0  0  0  0
   12.0842   -0.8449    0.0000 H   0  0  0  0  0  0  0  0  0  0  0  0
    8.8918   -0.0208    0.0000 H   0  0  0  0  0  0  0  0  0  0  0  0
   16.9257   -3.0910    0.0000 H   0  0  0  0  0  0  0  0  0  0  0  0
   10.3694    2.4498    0.0000 H   0  0  0  0  0  0  0  0  0  0  0  0
    3.8705   -2.2142    0.0000 H   0  0  0  0  0  0  0  0  0  0  0  0
    4.6675   -2.2142    0.0000 H   0  0  0  0  0  0  0  0  0  0  0  0
   14.6995    0.6250    0.0000 H   0  0  0  0  0  0  0  0  0  0  0  0
   13.3247    3.0710    0.0000 H   0  0  0  0  0  0  0  0  0  0  0  0
    8.5945    2.4598    0.0000 H   0  0  0  0  0  0  0  0  0  0  0  0
   14.2080    4.5609    0.0000 H   0  0  0  0  0  0  0  0  0  0  0  0
   16.9791    1.5286    0.0000 H   0  0  0  0  0  0  0  0  0  0  0  0
   16.4689    3.8447    0.0000 H   0  0  0  0  0  0  0  0  0  0  0  0
    2.0000   -1.4293    0.0000 H   0  0  0  0  0  0  0  0  0  0  0  0
  1 23  1  0  0  0  0
  1 29  1  0  0  0  0
  2 28  1  0  0  0  0
  2 30  1  0  0  0  0
  3 33  1  0  0  0  0
  4 34  1  0  0  0  0
  5 65  1  0  0  0  0
  6 66  1  0  0  0  0
  7 67  1  0  0  0  0
  8 68  1  0  0  0  0
  9 69  1  0  0  0  0
 10 70  1  0  0  0  0
 11 31  1  0  0  0  0
 11 43  1  0  0  0  0
 12 32  1  0  0  0  0
 12 73  1  0  0  0  0
 13 37  1  0  0  0  0
 13 38  2  0  0  0  0
 14 41  1  0  0  0  0
 14 79  1  0  0  0  0
 15 43  2  0  0  0  0
 16 47  1  0  0  0  0
 16 80  1  0  0  0  0
 17 48  1  0  0  0  0
 17 81  1  0  0  0  0
 18 49  1  0  0  0  0
 18 82  1  0  0  0  0
 19 50  1  0  0  0  0
 19 83  1  0  0  0  0
 20 50  2  0  0  0  0
 21  5  1  0  0  0  0
 21 22  1  6  0  0  0
 21 51  1  0  0  0  0
 22  6  1  0  0  0  0
 22 24  1  1  0  0  0
 22 52  1  0  0  0  0
 23 21  1  6  0  0  0
 23 31  1  0  0  0  0
 23 53  1  0  0  0  0
 24  7  1  0  0  0  0
 24 29  1  6  0  0  0
 24 54  1  0  0  0  0
 25  8  1  0  0  0  0
 25 26  1  1  0  0  0
 25 55  1  0  0  0  0
 26  9  1  0  0  0  0
 26 28  1  1  0  0  0
 26 56  1  0  0  0  0
 27 10  1  0  0  0  0
 27 25  1  6  0  0  0
 27 57  1  0  0  0  0
 28 32  1  0  0  0  0
 28 58  1  1  0  0  0
 29  3  1  0  0  0  0
 29 59  1  6  0  0  0
 30  4  1  0  0  0  0
 30 27  1  1  0  0  0
 30 60  1  0  0  0  0
 31 61  1  0  0  0  0
 31 62  1  0  0  0  0
 32 63  1  0  0  0  0
 32 64  1  0  0  0  0
 33 35  1  0  0  0  0
 33 39  2  0  0  0  0
 34 36  1  0  0  0  0
 34 37  2  0  0  0  0
 35 36  2  0  0  0  0
 35 38  1  0  0  0  0
 36 71  1  0  0  0  0
 37 42  1  0  0  0  0
 38 40  1  0  0  0  0
 39 41  1  0  0  0  0
 39 72  1  0  0  0  0
 40 41  2  0  0  0  0
 40 74  1  0  0  0  0
 42 45  2  0  0  0  0
 42 46  1  0  0  0  0
 43 44  1  0  0  0  0
 44 50  1  0  0  0  0
 44 75  1  0  0  0  0
 44 76  1  0  0  0  0
 45 48  1  0  0  0  0
 45 77  1  0  0  0  0
 46 47  2  0  0  0  0
 46 78  1  0  0  0  0
 47 49  1  0  0  0  0
 48 49  2  0  0  0  0
M  CHG  1  13   1
M  END
>  <PUBCHEM_COMPOUND_CID>
11972329

>  <PUBCHEM_COMPOUND_CANONICALIZED>
1

>  <PUBCHEM_CACTVS_COMPLEXITY>
1130

>  <PUBCHEM_CACTVS_HBOND_ACCEPTOR>
19

>  <PUBCHEM_CACTVS_HBOND_DONOR>
12

>  <PUBCHEM_CACTVS_ROTATABLE_BOND>
11

>  <PUBCHEM_CACTVS_SUBSKEYS>
AAADcfB4PgAAAAAAAAAAAAAAAAAAAAAAAAA0aJECAAAAAACR9AAAGgAACAAADBSwmAMwDsAABkCIAqDSCAICCAAkIAAAiAFGiMgdNzaONR6ieWOl4BUPuYfK7PzOIAABCAAIQABAAAIQABCAAAAAAAAAAA==

>  <PUBCHEM_IUPAC_OPENEYE_NAME>
3-oxo-3-[[(2R,3S,4S,5R,6S)-3,4,5-trihydroxy-6-[7-hydroxy-3-[(2S,3R,4S,5S,6R)-3,4,5-trihydroxy-6-(hydroxymethyl)tetrahydropyran-2-yl]oxy-2-(3,4,5-trihydroxyphenyl)chromenylium-5-yl]oxy-tetrahydropyran-2-yl]methoxy]propanoic acid

>  <PUBCHEM_IUPAC_CAS_NAME>
3-oxo-3-[[(2R,3S,4S,5R,6S)-3,4,5-trihydroxy-6-[[7-hydroxy-3-[[(2S,3R,4S,5S,6R)-3,4,5-trihydroxy-6-(hydroxymethyl)-2-oxanyl]oxy]-2-(3,4,5-trihydroxyphenyl)-1-benzopyrylium-5-yl]oxy]-2-oxanyl]methoxy]propanoic acid

>  <PUBCHEM_IUPAC_NAME>
3-oxo-3-[[(2R,3S,4S,5R,6S)-3,4,5-trihydroxy-6-[7-hydroxy-3-[(2S,3R,4S,5S,6R)-3,4,5-trihydroxy-6-(hydroxymethyl)oxan-2-yl]oxy-2-(3,4,5-trihydroxyphenyl)chromenylium-5-yl]oxyoxan-2-yl]methoxy]propanoic acid

>  <PUBCHEM_IUPAC_SYSTEMATIC_NAME>
3-[[(2R,3S,4S,5R,6S)-6-[3-[(2S,3R,4S,5S,6R)-6-(hydroxymethyl)-3,4,5-tris(oxidanyl)oxan-2-yl]oxy-7-oxidanyl-2-[3,4,5-tris(oxidanyl)phenyl]chromenylium-5-yl]oxy-3,4,5-tris(oxidanyl)oxan-2-yl]methoxy]-3-oxidanylidene-propanoic acid

>  <PUBCHEM_IUPAC_TRADITIONAL_NAME>
3-keto-3-[[(2R,3S,4S,5R,6S)-3,4,5-trihydroxy-6-[[7-hydroxy-3-[(2S,3R,4S,5S,6R)-3,4,5-trihydroxy-6-methylol-tetrahydropyran-2-yl]oxy-2-(3,4,5-trihydroxyphenyl)-1-benzopyrylium-5-yl]oxy]tetrahydropyran-2-yl]methoxy]propionic acid

>  <PUBCHEM_IUPAC_INCHI>
InChI=1S/C30H32O20/c31-7-17-22(39)24(41)26(43)30(49-17)48-16-5-11-14(46-28(16)9-1-12(33)21(38)13(34)2-9)3-10(32)4-15(11)47-29-27(44)25(42)23(40)18(50-29)8-45-20(37)6-19(35)36/h1-5,17-18,22-27,29-31,39-44H,6-8H2,(H4-,32,33,34,35,36,38)/p+1/t17-,18-,22-,23-,24+,25+,26-,27-,29-,30-/m1/s1

>  <PUBCHEM_IUPAC_INCHIKEY>
SQHCKWQREIIDPL-YEQKKNNOSA-O

>  <PUBCHEM_EXACT_MASS>
713.157

>  <PUBCHEM_MOLECULAR_FORMULA>
C30H33O20+

>  <PUBCHEM_MOLECULAR_WEIGHT>
713.574

>  <PUBCHEM_OPENEYE_CAN_SMILES>
C1=C(C=C(C(=C1O)O)O)C2=C(C=C3C(=CC(=CC3=[O+]2)O)OC4C(C(C(C(O4)COC(=O)CC(=O)O)O)O)O)OC5C(C(C(C(O5)CO)O)O)O

>  <PUBCHEM_OPENEYE_ISO_SMILES>
C1=C(C=C(C(=C1O)O)O)C2=C(C=C3C(=CC(=CC3=[O+]2)O)O[C@H]4[C@@H]([C@H]([C@@H]([C@H](O4)COC(=O)CC(=O)O)O)O)O)O[C@H]5[C@@H]([C@H]([C@@H]([C@H](O5)CO)O)O)O

>  <PUBCHEM_CACTVS_TPSA>
324

>  <PUBCHEM_MONOISOTOPIC_WEIGHT>
713.157

>  <PUBCHEM_TOTAL_CHARGE>
1

>  <PUBCHEM_HEAVY_ATOM_COUNT>
50

>  <PUBCHEM_ATOM_DEF_STEREO_COUNT>
10

>  <PUBCHEM_ATOM_UDEF_STEREO_COUNT>
0

>  <PUBCHEM_BOND_DEF_STEREO_COUNT>
0

>  <PUBCHEM_BOND_UDEF_STEREO_COUNT>
0

>  <PUBCHEM_ISOTOPIC_ATOM_COUNT>
0

>  <PUBCHEM_COMPONENT_COUNT>
1

>  <PUBCHEM_CACTVS_TAUTO_COUNT>
100

>  <PUBCHEM_COORDINATE_TYPE>
1
5
255

>  <PUBCHEM_BONDANNOTATIONS>
27  10  5
13  37  8
13  38  8
23  31  5
28  32  6
29  3  5
33  35  8
33  39  8
34  36  8
34  37  8
35  36  8
35  38  8
38  40  8
39  41  8
30  4  6
40  41  8
42  45  8
42  46  8
45  48  8
46  47  8
47  49  8
48  49  8
21  5  6
22  6  5
24  7  6
25  8  6
26  9  5

$$$$
