11996616
 OpenBabel06101807152D

 51 54  0  0  1  0  0  0  0  0999 V2000
    5.9981    0.6726    0.0000 O   0  0  0  0  0  0  0  0  0  0  0  0
    8.1301    1.2726    0.0000 O   0  0  0  0  0  0  0  0  0  0  0  0
    5.2910   -0.8345    0.0000 O   0  0  0  0  0  0  0  0  0  0  0  0
    4.6497   -1.7620    0.0000 O   0  0  0  0  0  0  0  0  0  0  0  0
    2.8680   -0.7516    0.0000 O   0  0  0  0  0  0  0  0  0  0  0  0
    7.2641   -0.2274    0.0000 C   0  0  3  0  0  0  0  0  0  0  0  0
    6.3981   -0.7274    0.0000 C   0  0  3  0  0  0  0  0  0  0  0  0
    8.1741   -0.7343    0.0000 C   0  0  0  0  0  0  0  0  0  0  0  0
    7.2641    0.7726    0.0000 C   0  0  3  0  0  0  0  0  0  0  0  0
    6.3820   -1.7690    0.0000 C   0  0  0  0  0  0  0  0  0  0  0  0
    8.1821   -1.7759    0.0000 C   0  0  0  0  0  0  0  0  0  0  0  0
    6.3981    1.2726    0.0000 C   0  0  3  0  0  0  0  0  0  0  0  0
    5.5320   -0.2274    0.0000 C   0  0  0  0  0  0  0  0  0  0  0  0
    7.2800   -2.2967    0.0000 C   0  0  0  0  0  0  0  0  0  0  0  0
    5.5320    0.7726    0.0000 C   0  0  0  0  0  0  0  0  0  0  0  0
    5.9981   -0.1274    0.0000 C   0  0  0  0  0  0  0  0  0  0  0  0
    9.1740   -0.7227    0.0000 C   0  0  0  0  0  0  0  0  0  0  0  0
    8.6640    0.1375    0.0000 C   0  0  0  0  0  0  0  0  0  0  0  0
    4.6381   -0.7621    0.0000 C   0  0  0  0  0  0  0  0  0  0  0  0
    4.6381    1.3072    0.0000 C   0  0  0  0  0  0  0  0  0  0  0  0
    3.7320    0.7934    0.0000 C   0  0  0  0  0  0  0  0  0  0  0  0
    3.7320   -0.2483    0.0000 C   0  0  0  0  0  0  0  0  0  0  0  0
    2.8680    1.2967    0.0000 C   0  0  0  0  0  0  0  0  0  0  0  0
    2.8718    2.2967    0.0000 C   0  0  0  0  0  0  0  0  0  0  0  0
    2.0000    0.8001    0.0000 C   0  0  0  0  0  0  0  0  0  0  0  0
    7.7986    0.0867    0.0000 H   0  0  0  0  0  0  0  0  0  0  0  0
    7.2641    1.3926    0.0000 H   0  0  0  0  0  0  0  0  0  0  0  0
    5.7729   -1.6534    0.0000 H   0  0  0  0  0  0  0  0  0  0  0  0
    6.1640   -2.3494    0.0000 H   0  0  0  0  0  0  0  0  0  0  0  0
    8.3957   -2.3580    0.0000 H   0  0  0  0  0  0  0  0  0  0  0  0
    8.7922   -1.6651    0.0000 H   0  0  0  0  0  0  0  0  0  0  0  0
    6.3981    1.8926    0.0000 H   0  0  0  0  0  0  0  0  0  0  0  0
    6.8791   -2.7696    0.0000 H   0  0  0  0  0  0  0  0  0  0  0  0
    7.6774   -2.7727    0.0000 H   0  0  0  0  0  0  0  0  0  0  0  0
    9.1812   -1.3427    0.0000 H   0  0  0  0  0  0  0  0  0  0  0  0
    9.7940   -0.7156    0.0000 H   0  0  0  0  0  0  0  0  0  0  0  0
    9.1669   -0.1028    0.0000 H   0  0  0  0  0  0  0  0  0  0  0  0
    9.2045   -0.1663    0.0000 H   0  0  0  0  0  0  0  0  0  0  0  0
    8.9678    0.6779    0.0000 H   0  0  0  0  0  0  0  0  0  0  0  0
    8.1236    0.4412    0.0000 H   0  0  0  0  0  0  0  0  0  0  0  0
    4.6453    1.9272    0.0000 H   0  0  0  0  0  0  0  0  0  0  0  0
    8.1301    1.8926    0.0000 H   0  0  0  0  0  0  0  0  0  0  0  0
    2.3322    1.6088    0.0000 H   0  0  0  0  0  0  0  0  0  0  0  0
    4.1164   -2.0782    0.0000 H   0  0  0  0  0  0  0  0  0  0  0  0
    2.8703   -1.3716    0.0000 H   0  0  0  0  0  0  0  0  0  0  0  0
    3.4918    2.2943    0.0000 H   0  0  0  0  0  0  0  0  0  0  0  0
    2.8742    2.9167    0.0000 H   0  0  0  0  0  0  0  0  0  0  0  0
    2.2518    2.2991    0.0000 H   0  0  0  0  0  0  0  0  0  0  0  0
    1.6921    1.3382    0.0000 H   0  0  0  0  0  0  0  0  0  0  0  0
    1.4619    0.4921    0.0000 H   0  0  0  0  0  0  0  0  0  0  0  0
    2.3079    0.2619    0.0000 H   0  0  0  0  0  0  0  0  0  0  0  0
  1 12  1  0  0  0  0
  1 16  1  0  0  0  0
  2  9  1  0  0  0  0
  2 42  1  0  0  0  0
  3 16  2  0  0  0  0
  4 19  1  0  0  0  0
  4 44  1  0  0  0  0
  5 22  1  0  0  0  0
  5 45  1  0  0  0  0
  6  7  1  0  0  0  0
  6  8  1  0  0  0  0
  6  9  1  0  0  0  0
  6 26  1  0  0  0  0
  7 10  1  0  0  0  0
  7 13  1  0  0  0  0
  7 16  1  0  0  0  0
  8 11  1  0  0  0  0
  8 17  1  0  0  0  0
  8 18  1  0  0  0  0
  9 12  1  0  0  0  0
  9 27  1  0  0  0  0
 10 14  1  0  0  0  0
 10 28  1  0  0  0  0
 10 29  1  0  0  0  0
 11 14  1  0  0  0  0
 11 30  1  0  0  0  0
 11 31  1  0  0  0  0
 12 15  1  0  0  0  0
 12 32  1  0  0  0  0
 13 15  1  0  0  0  0
 13 19  2  0  0  0  0
 14 33  1  0  0  0  0
 14 34  1  0  0  0  0
 15 20  2  0  0  0  0
 17 35  1  0  0  0  0
 17 36  1  0  0  0  0
 17 37  1  0  0  0  0
 18 38  1  0  0  0  0
 18 39  1  0  0  0  0
 18 40  1  0  0  0  0
 19 22  1  0  0  0  0
 20 21  1  0  0  0  0
 20 41  1  0  0  0  0
 21 22  2  0  0  0  0
 21 23  1  0  0  0  0
 23 24  1  0  0  0  0
 23 25  1  0  0  0  0
 23 43  1  0  0  0  0
 24 46  1  0  0  0  0
 24 47  1  0  0  0  0
 24 48  1  0  0  0  0
 25 49  1  0  0  0  0
 25 50  1  0  0  0  0
 25 51  1  0  0  0  0
M  END
>  <PUBCHEM_COMPOUND_CID>
11996616

>  <PUBCHEM_COMPOUND_CANONICALIZED>
1

>  <PUBCHEM_CACTVS_COMPLEXITY>
572

>  <PUBCHEM_CACTVS_HBOND_ACCEPTOR>
5

>  <PUBCHEM_CACTVS_HBOND_DONOR>
3

>  <PUBCHEM_CACTVS_ROTATABLE_BOND>
1

>  <PUBCHEM_CACTVS_SUBSKEYS>
AAADceB4OAAAAAAAAAAAAAAAAAAAAAAAAAA0aMECAAAAAADRAAAAGgAACAAADxSgmAIyDoAABgCIAiDSCAACAAAgIAAAiAEEiIgJNjKCNRqCcAEkwBELuAfK7PzP4AADAAAYQADAAAYAADCAAAAAAAAAAA==

>  <PUBCHEM_IUPAC_INCHI>
InChI=1S/C20H26O5/c1-9(2)10-8-11-12(14(22)13(10)21)20-7-5-6-19(3,4)17(20)15(23)16(11)25-18(20)24/h8-9,15-17,21-23H,5-7H2,1-4H3

>  <PUBCHEM_IUPAC_INCHIKEY>
UXVPWKDITRJELA-UHFFFAOYSA-N

>  <PUBCHEM_XLOGP3_AA>
3.4

>  <PUBCHEM_EXACT_MASS>
346.178

>  <PUBCHEM_MOLECULAR_FORMULA>
C20H26O5

>  <PUBCHEM_MOLECULAR_WEIGHT>
346.423

>  <PUBCHEM_OPENEYE_CAN_SMILES>
CC(C)C1=C(C(=C2C(=C1)C3C(C4C2(CCCC4(C)C)C(=O)O3)O)O)O

>  <PUBCHEM_OPENEYE_ISO_SMILES>
CC(C)C1=C(C(=C2C(=C1)C3C(C4C2(CCCC4(C)C)C(=O)O3)O)O)O

>  <PUBCHEM_CACTVS_TPSA>
87

>  <PUBCHEM_MONOISOTOPIC_WEIGHT>
346.178

>  <PUBCHEM_TOTAL_CHARGE>
0

>  <PUBCHEM_HEAVY_ATOM_COUNT>
25

>  <PUBCHEM_ATOM_DEF_STEREO_COUNT>
0

>  <PUBCHEM_ATOM_UDEF_STEREO_COUNT>
4

>  <PUBCHEM_BOND_DEF_STEREO_COUNT>
0

>  <PUBCHEM_BOND_UDEF_STEREO_COUNT>
0

>  <PUBCHEM_ISOTOPIC_ATOM_COUNT>
0

>  <PUBCHEM_COMPONENT_COUNT>
1

>  <PUBCHEM_CACTVS_TAUTO_COUNT>
34

>  <PUBCHEM_COORDINATE_TYPE>
1
5
255

>  <PUBCHEM_BONDANNOTATIONS>
12  1  3
13  15  8
13  19  8
15  20  8
19  22  8
9  2  3
20  21  8
21  22  8
6  8  3
7  10  3

$$$$
