12018905
 OpenBabel06101807152D

 74 74  0  0  0  0  0  0  0  0999 V2000
    5.4641    2.0950    0.0000 O   0  0  0  0  0  0  0  0  0  0  0  0
    4.5981    0.5950    0.0000 O   0  0  0  0  0  0  0  0  0  0  0  0
    2.8660   -2.4050    0.0000 O   0  0  0  0  0  0  0  0  0  0  0  0
   13.2583    1.5950    0.0000 C   0  0  0  0  0  0  0  0  0  0  0  0
   14.1244    2.0950    0.0000 C   0  0  0  0  0  0  0  0  0  0  0  0
   12.3923    2.0950    0.0000 C   0  0  0  0  0  0  0  0  0  0  0  0
   14.9904    1.5950    0.0000 C   0  0  0  0  0  0  0  0  0  0  0  0
   11.5263    1.5950    0.0000 C   0  0  0  0  0  0  0  0  0  0  0  0
   15.8564    2.0950    0.0000 C   0  0  0  0  0  0  0  0  0  0  0  0
   10.6603    2.0950    0.0000 C   0  0  0  0  0  0  0  0  0  0  0  0
   16.7224    1.5950    0.0000 C   0  0  0  0  0  0  0  0  0  0  0  0
    9.7942    1.5950    0.0000 C   0  0  0  0  0  0  0  0  0  0  0  0
   17.5885    2.0950    0.0000 C   0  0  0  0  0  0  0  0  0  0  0  0
    8.9282    2.0950    0.0000 C   0  0  0  0  0  0  0  0  0  0  0  0
   18.4545    1.5950    0.0000 C   0  0  0  0  0  0  0  0  0  0  0  0
    8.0622    1.5950    0.0000 C   0  0  0  0  0  0  0  0  0  0  0  0
   19.3205    2.0950    0.0000 C   0  0  0  0  0  0  0  0  0  0  0  0
    7.1962    2.0950    0.0000 C   0  0  0  0  0  0  0  0  0  0  0  0
   20.1865    1.5950    0.0000 C   0  0  0  0  0  0  0  0  0  0  0  0
    6.3301    1.5950    0.0000 C   0  0  0  0  0  0  0  0  0  0  0  0
   21.0526    2.0950    0.0000 C   0  0  0  0  0  0  0  0  0  0  0  0
    4.5981    1.5950    0.0000 C   0  0  0  0  0  0  0  0  0  0  0  0
    3.7320    2.0950    0.0000 C   0  0  0  0  0  0  0  0  0  0  0  0
    2.8660    1.5950    0.0000 C   0  0  0  0  0  0  0  0  0  0  0  0
    2.8660    0.5950    0.0000 C   0  0  0  0  0  0  0  0  0  0  0  0
    2.0000    0.0950    0.0000 C   0  0  0  0  0  0  0  0  0  0  0  0
    3.7320    0.0950    0.0000 C   0  0  0  0  0  0  0  0  0  0  0  0
    2.0000   -0.9050    0.0000 C   0  0  0  0  0  0  0  0  0  0  0  0
    3.7320   -0.9050    0.0000 C   0  0  0  0  0  0  0  0  0  0  0  0
    2.8660   -1.4050    0.0000 C   0  0  0  0  0  0  0  0  0  0  0  0
   12.8598    1.1200    0.0000 H   0  0  0  0  0  0  0  0  0  0  0  0
   13.6569    1.1200    0.0000 H   0  0  0  0  0  0  0  0  0  0  0  0
   14.5229    2.5700    0.0000 H   0  0  0  0  0  0  0  0  0  0  0  0
   13.7258    2.5700    0.0000 H   0  0  0  0  0  0  0  0  0  0  0  0
   12.7908    2.5700    0.0000 H   0  0  0  0  0  0  0  0  0  0  0  0
   11.9938    2.5700    0.0000 H   0  0  0  0  0  0  0  0  0  0  0  0
   14.5919    1.1200    0.0000 H   0  0  0  0  0  0  0  0  0  0  0  0
   15.3889    1.1200    0.0000 H   0  0  0  0  0  0  0  0  0  0  0  0
   11.1278    1.1200    0.0000 H   0  0  0  0  0  0  0  0  0  0  0  0
   11.9248    1.1200    0.0000 H   0  0  0  0  0  0  0  0  0  0  0  0
   16.2549    2.5700    0.0000 H   0  0  0  0  0  0  0  0  0  0  0  0
   15.4579    2.5700    0.0000 H   0  0  0  0  0  0  0  0  0  0  0  0
   11.0588    2.5700    0.0000 H   0  0  0  0  0  0  0  0  0  0  0  0
   10.2617    2.5700    0.0000 H   0  0  0  0  0  0  0  0  0  0  0  0
   16.3239    1.1200    0.0000 H   0  0  0  0  0  0  0  0  0  0  0  0
   17.1210    1.1200    0.0000 H   0  0  0  0  0  0  0  0  0  0  0  0
    9.3957    1.1200    0.0000 H   0  0  0  0  0  0  0  0  0  0  0  0
   10.1928    1.1200    0.0000 H   0  0  0  0  0  0  0  0  0  0  0  0
   17.9870    2.5700    0.0000 H   0  0  0  0  0  0  0  0  0  0  0  0
   17.1899    2.5700    0.0000 H   0  0  0  0  0  0  0  0  0  0  0  0
    9.3267    2.5700    0.0000 H   0  0  0  0  0  0  0  0  0  0  0  0
    8.5297    2.5700    0.0000 H   0  0  0  0  0  0  0  0  0  0  0  0
   18.0560    1.1200    0.0000 H   0  0  0  0  0  0  0  0  0  0  0  0
   18.8530    1.1200    0.0000 H   0  0  0  0  0  0  0  0  0  0  0  0
    7.6636    1.1200    0.0000 H   0  0  0  0  0  0  0  0  0  0  0  0
    8.4607    1.1200    0.0000 H   0  0  0  0  0  0  0  0  0  0  0  0
   19.7190    2.5700    0.0000 H   0  0  0  0  0  0  0  0  0  0  0  0
   18.9220    2.5700    0.0000 H   0  0  0  0  0  0  0  0  0  0  0  0
    7.5947    2.5700    0.0000 H   0  0  0  0  0  0  0  0  0  0  0  0
    6.7976    2.5700    0.0000 H   0  0  0  0  0  0  0  0  0  0  0  0
   19.7880    1.1200    0.0000 H   0  0  0  0  0  0  0  0  0  0  0  0
   20.5851    1.1200    0.0000 H   0  0  0  0  0  0  0  0  0  0  0  0
    5.9316    1.1200    0.0000 H   0  0  0  0  0  0  0  0  0  0  0  0
    6.7287    1.1200    0.0000 H   0  0  0  0  0  0  0  0  0  0  0  0
   21.3626    1.5581    0.0000 H   0  0  0  0  0  0  0  0  0  0  0  0
   21.5895    2.4050    0.0000 H   0  0  0  0  0  0  0  0  0  0  0  0
   20.7426    2.6319    0.0000 H   0  0  0  0  0  0  0  0  0  0  0  0
    3.7320    2.7150    0.0000 H   0  0  0  0  0  0  0  0  0  0  0  0
    2.3291    1.9050    0.0000 H   0  0  0  0  0  0  0  0  0  0  0  0
    1.4631    0.4050    0.0000 H   0  0  0  0  0  0  0  0  0  0  0  0
    4.2690    0.4050    0.0000 H   0  0  0  0  0  0  0  0  0  0  0  0
    1.4631   -1.2150    0.0000 H   0  0  0  0  0  0  0  0  0  0  0  0
    4.2690   -1.2150    0.0000 H   0  0  0  0  0  0  0  0  0  0  0  0
    2.3291   -2.7150    0.0000 H   0  0  0  0  0  0  0  0  0  0  0  0
  1 20  1  0  0  0  0
  1 22  1  0  0  0  0
  2 22  2  0  0  0  0
  3 30  1  0  0  0  0
  3 74  1  0  0  0  0
  4  5  1  0  0  0  0
  4  6  1  0  0  0  0
  4 31  1  0  0  0  0
  4 32  1  0  0  0  0
  5  7  1  0  0  0  0
  5 33  1  0  0  0  0
  5 34  1  0  0  0  0
  6  8  1  0  0  0  0
  6 35  1  0  0  0  0
  6 36  1  0  0  0  0
  7  9  1  0  0  0  0
  7 37  1  0  0  0  0
  7 38  1  0  0  0  0
  8 10  1  0  0  0  0
  8 39  1  0  0  0  0
  8 40  1  0  0  0  0
  9 11  1  0  0  0  0
  9 41  1  0  0  0  0
  9 42  1  0  0  0  0
 10 12  1  0  0  0  0
 10 43  1  0  0  0  0
 10 44  1  0  0  0  0
 11 13  1  0  0  0  0
 11 45  1  0  0  0  0
 11 46  1  0  0  0  0
 12 14  1  0  0  0  0
 12 47  1  0  0  0  0
 12 48  1  0  0  0  0
 13 15  1  0  0  0  0
 13 49  1  0  0  0  0
 13 50  1  0  0  0  0
 14 16  1  0  0  0  0
 14 51  1  0  0  0  0
 14 52  1  0  0  0  0
 15 17  1  0  0  0  0
 15 53  1  0  0  0  0
 15 54  1  0  0  0  0
 16 18  1  0  0  0  0
 16 55  1  0  0  0  0
 16 56  1  0  0  0  0
 17 19  1  0  0  0  0
 17 57  1  0  0  0  0
 17 58  1  0  0  0  0
 18 20  1  0  0  0  0
 18 59  1  0  0  0  0
 18 60  1  0  0  0  0
 19 21  1  0  0  0  0
 19 61  1  0  0  0  0
 19 62  1  0  0  0  0
 20 63  1  0  0  0  0
 20 64  1  0  0  0  0
 21 65  1  0  0  0  0
 21 66  1  0  0  0  0
 21 67  1  0  0  0  0
 22 23  1  0  0  0  0
 23 24  2  0  0  0  0
 23 68  1  0  0  0  0
 24 25  1  0  0  0  0
 24 69  1  0  0  0  0
 25 26  2  0  0  0  0
 25 27  1  0  0  0  0
 26 28  1  0  0  0  0
 26 70  1  0  0  0  0
 27 29  2  0  0  0  0
 27 71  1  0  0  0  0
 28 30  2  0  0  0  0
 28 72  1  0  0  0  0
 29 30  1  0  0  0  0
 29 73  1  0  0  0  0
M  END
>  <PUBCHEM_COMPOUND_CID>
12018905

>  <PUBCHEM_COMPOUND_CANONICALIZED>
1

>  <PUBCHEM_CACTVS_COMPLEXITY>
410

>  <PUBCHEM_CACTVS_HBOND_ACCEPTOR>
3

>  <PUBCHEM_CACTVS_HBOND_DONOR>
1

>  <PUBCHEM_CACTVS_ROTATABLE_BOND>
20

>  <PUBCHEM_CACTVS_SUBSKEYS>
AAADcfB4MAAAAAAAAAAAAAAAAAAAAAAAAAAwAAAAAAAAAAABAAAAGgAACAAADASgmAIyDoAABgCIAiDSCAACAAAgIAAIiAAGCMgIJiKCMRKCcAAkwBEIuYeAwKAOIAAAAAAAAABAAAAAAAAAAAAAAAAAAA==

>  <PUBCHEM_IUPAC_OPENEYE_NAME>
octadecyl (Z)-3-(4-hydroxyphenyl)prop-2-enoate

>  <PUBCHEM_IUPAC_CAS_NAME>
(Z)-3-(4-hydroxyphenyl)-2-propenoic acid octadecyl ester

>  <PUBCHEM_IUPAC_NAME>
octadecyl (Z)-3-(4-hydroxyphenyl)prop-2-enoate

>  <PUBCHEM_IUPAC_SYSTEMATIC_NAME>
octadecyl (Z)-3-(4-hydroxyphenyl)prop-2-enoate

>  <PUBCHEM_IUPAC_TRADITIONAL_NAME>
(Z)-3-(4-hydroxyphenyl)acrylic acid stearyl ester

>  <PUBCHEM_IUPAC_INCHI>
InChI=1S/C27H44O3/c1-2-3-4-5-6-7-8-9-10-11-12-13-14-15-16-17-24-30-27(29)23-20-25-18-21-26(28)22-19-25/h18-23,28H,2-17,24H2,1H3/b23-20-

>  <PUBCHEM_IUPAC_INCHIKEY>
SXXOKKBSVARFFB-ATJXCDBQSA-N

>  <PUBCHEM_XLOGP3_AA>
10.7

>  <PUBCHEM_EXACT_MASS>
416.329

>  <PUBCHEM_MOLECULAR_FORMULA>
C27H44O3

>  <PUBCHEM_MOLECULAR_WEIGHT>
416.646

>  <PUBCHEM_OPENEYE_CAN_SMILES>
CCCCCCCCCCCCCCCCCCOC(=O)C=CC1=CC=C(C=C1)O

>  <PUBCHEM_OPENEYE_ISO_SMILES>
CCCCCCCCCCCCCCCCCCOC(=O)/C=C\C1=CC=C(C=C1)O

>  <PUBCHEM_CACTVS_TPSA>
46.5

>  <PUBCHEM_MONOISOTOPIC_WEIGHT>
416.329

>  <PUBCHEM_TOTAL_CHARGE>
0

>  <PUBCHEM_HEAVY_ATOM_COUNT>
30

>  <PUBCHEM_ATOM_DEF_STEREO_COUNT>
0

>  <PUBCHEM_ATOM_UDEF_STEREO_COUNT>
0

>  <PUBCHEM_BOND_DEF_STEREO_COUNT>
1

>  <PUBCHEM_BOND_UDEF_STEREO_COUNT>
0

>  <PUBCHEM_ISOTOPIC_ATOM_COUNT>
0

>  <PUBCHEM_COMPONENT_COUNT>
1

>  <PUBCHEM_CACTVS_TAUTO_COUNT>
4

>  <PUBCHEM_COORDINATE_TYPE>
1
5
255

>  <PUBCHEM_BONDANNOTATIONS>
25  26  8
25  27  8
26  28  8
27  29  8
28  30  8
29  30  8

$$$$
