12097311
 OpenBabel06101807152D

144145  0  0  1  0  0  0  0  0999 V2000
    3.8660   -3.7500    0.0000 O   0  0  0  0  0  0  0  0  0  0  0  0
    5.5981   -3.7500    0.0000 O   0  0  0  0  0  0  0  0  0  0  0  0
    3.0000   -1.2500    0.0000 C   0  0  0  0  0  0  0  0  0  0  0  0
    3.0000   -2.2500    0.0000 C   0  0  0  0  0  0  0  0  0  0  0  0
    3.8660   -2.7500    0.0000 C   0  0  3  0  0  0  0  0  0  0  0  0
    3.8660   -0.7500    0.0000 C   0  0  0  0  0  0  0  0  0  0  0  0
    4.7320   -2.2500    0.0000 C   0  0  0  0  0  0  0  0  0  0  0  0
    4.7320   -1.2500    0.0000 C   0  0  0  0  0  0  0  0  0  0  0  0
   10.7942   14.2500    0.0000 C   0  0  0  0  0  0  0  0  0  0  0  0
    2.0000   -1.2500    0.0000 C   0  0  0  0  0  0  0  0  0  0  0  0
    2.5000   -0.3840    0.0000 C   0  0  0  0  0  0  0  0  0  0  0  0
   10.7942   15.2500    0.0000 C   0  0  0  0  0  0  0  0  0  0  0  0
   11.6603   15.7500    0.0000 C   0  0  0  0  0  0  0  0  0  0  0  0
   11.6603   13.7500    0.0000 C   0  0  0  0  0  0  0  0  0  0  0  0
   12.5263   15.2500    0.0000 C   0  0  0  0  0  0  0  0  0  0  0  0
   12.5263   14.2500    0.0000 C   0  0  0  0  0  0  0  0  0  0  0  0
    3.8660    0.2500    0.0000 C   0  0  0  0  0  0  0  0  0  0  0  0
    5.5981   -0.7500    0.0000 C   0  0  0  0  0  0  0  0  0  0  0  0
    9.7942   14.2500    0.0000 C   0  0  0  0  0  0  0  0  0  0  0  0
   10.2942   13.3840    0.0000 C   0  0  0  0  0  0  0  0  0  0  0  0
   11.6603   12.7500    0.0000 C   0  0  0  0  0  0  0  0  0  0  0  0
    4.7320   -4.2500    0.0000 C   0  0  0  0  0  0  0  0  0  0  0  0
   13.3923   13.7500    0.0000 C   0  0  0  0  0  0  0  0  0  0  0  0
    4.7320    0.7500    0.0000 C   0  0  0  0  0  0  0  0  0  0  0  0
    4.7320   -5.2500    0.0000 C   0  0  0  0  0  0  0  0  0  0  0  0
    5.5981   -5.7500    0.0000 C   0  0  0  0  0  0  0  0  0  0  0  0
   10.7942   12.2500    0.0000 C   0  0  0  0  0  0  0  0  0  0  0  0
    5.5981   -6.7500    0.0000 C   0  0  0  0  0  0  0  0  0  0  0  0
    4.7320    1.7500    0.0000 C   0  0  0  0  0  0  0  0  0  0  0  0
    6.4641   -7.2500    0.0000 C   0  0  0  0  0  0  0  0  0  0  0  0
    6.4641   -8.2500    0.0000 C   0  0  0  0  0  0  0  0  0  0  0  0
    7.3301   -8.7500    0.0000 C   0  0  0  0  0  0  0  0  0  0  0  0
   10.7942   11.2500    0.0000 C   0  0  0  0  0  0  0  0  0  0  0  0
    7.3301   -9.7500    0.0000 C   0  0  0  0  0  0  0  0  0  0  0  0
    3.8660    2.2500    0.0000 C   0  0  0  0  0  0  0  0  0  0  0  0
    8.1962  -10.2500    0.0000 C   0  0  0  0  0  0  0  0  0  0  0  0
    5.5981    2.2500    0.0000 C   0  0  0  0  0  0  0  0  0  0  0  0
    8.1962  -11.2500    0.0000 C   0  0  0  0  0  0  0  0  0  0  0  0
    9.0622  -11.7500    0.0000 C   0  0  0  0  0  0  0  0  0  0  0  0
    9.0622  -12.7500    0.0000 C   0  0  0  0  0  0  0  0  0  0  0  0
   11.6603   10.7500    0.0000 C   0  0  0  0  0  0  0  0  0  0  0  0
    9.9282   10.7500    0.0000 C   0  0  0  0  0  0  0  0  0  0  0  0
    9.9282  -13.2500    0.0000 C   0  0  0  0  0  0  0  0  0  0  0  0
    5.5981    3.2500    0.0000 C   0  0  0  0  0  0  0  0  0  0  0  0
    9.9282  -14.2500    0.0000 C   0  0  0  0  0  0  0  0  0  0  0  0
    9.9282    9.7500    0.0000 C   0  0  0  0  0  0  0  0  0  0  0  0
   10.7942  -14.7500    0.0000 C   0  0  0  0  0  0  0  0  0  0  0  0
    6.4641    3.7500    0.0000 C   0  0  0  0  0  0  0  0  0  0  0  0
   10.7942  -15.7500    0.0000 C   0  0  0  0  0  0  0  0  0  0  0  0
    9.0622    9.2500    0.0000 C   0  0  0  0  0  0  0  0  0  0  0  0
    6.4641    4.7500    0.0000 C   0  0  0  0  0  0  0  0  0  0  0  0
    9.0622    8.2500    0.0000 C   0  0  0  0  0  0  0  0  0  0  0  0
    5.5981    5.2500    0.0000 C   0  0  0  0  0  0  0  0  0  0  0  0
    7.3301    5.2500    0.0000 C   0  0  0  0  0  0  0  0  0  0  0  0
    8.1962    7.7500    0.0000 C   0  0  0  0  0  0  0  0  0  0  0  0
    9.9282    7.7500    0.0000 C   0  0  0  0  0  0  0  0  0  0  0  0
    7.3301    6.2500    0.0000 C   0  0  0  0  0  0  0  0  0  0  0  0
    8.1962    6.7500    0.0000 C   0  0  0  0  0  0  0  0  0  0  0  0
    2.3894   -2.1423    0.0000 H   0  0  0  0  0  0  0  0  0  0  0  0
    2.7880   -2.8326    0.0000 H   0  0  0  0  0  0  0  0  0  0  0  0
    4.4030   -3.0600    0.0000 H   0  0  0  0  0  0  0  0  0  0  0  0
    4.9441   -2.8326    0.0000 H   0  0  0  0  0  0  0  0  0  0  0  0
    5.3426   -2.1423    0.0000 H   0  0  0  0  0  0  0  0  0  0  0  0
    3.0369   -0.0740    0.0000 H   0  0  0  0  0  0  0  0  0  0  0  0
    2.1900    0.1530    0.0000 H   0  0  0  0  0  0  0  0  0  0  0  0
    1.9631   -0.6940    0.0000 H   0  0  0  0  0  0  0  0  0  0  0  0
    2.0000   -0.6300    0.0000 H   0  0  0  0  0  0  0  0  0  0  0  0
    1.3800   -1.2500    0.0000 H   0  0  0  0  0  0  0  0  0  0  0  0
    2.0000   -1.8700    0.0000 H   0  0  0  0  0  0  0  0  0  0  0  0
   10.5822   15.8326    0.0000 H   0  0  0  0  0  0  0  0  0  0  0  0
   10.1836   15.1423    0.0000 H   0  0  0  0  0  0  0  0  0  0  0  0
   12.0588   16.2249    0.0000 H   0  0  0  0  0  0  0  0  0  0  0  0
   11.2617   16.2249    0.0000 H   0  0  0  0  0  0  0  0  0  0  0  0
   13.1369   15.1423    0.0000 H   0  0  0  0  0  0  0  0  0  0  0  0
   12.7383   15.8326    0.0000 H   0  0  0  0  0  0  0  0  0  0  0  0
    3.3291    0.5600    0.0000 H   0  0  0  0  0  0  0  0  0  0  0  0
    5.9081   -1.2869    0.0000 H   0  0  0  0  0  0  0  0  0  0  0  0
    6.1350   -0.4400    0.0000 H   0  0  0  0  0  0  0  0  0  0  0  0
    5.2881   -0.2131    0.0000 H   0  0  0  0  0  0  0  0  0  0  0  0
    9.7573   13.6940    0.0000 H   0  0  0  0  0  0  0  0  0  0  0  0
    9.7942   14.8700    0.0000 H   0  0  0  0  0  0  0  0  0  0  0  0
    9.1742   14.2500    0.0000 H   0  0  0  0  0  0  0  0  0  0  0  0
    9.7942   13.6300    0.0000 H   0  0  0  0  0  0  0  0  0  0  0  0
    9.9842   12.8470    0.0000 H   0  0  0  0  0  0  0  0  0  0  0  0
   10.8312   13.0740    0.0000 H   0  0  0  0  0  0  0  0  0  0  0  0
   12.1972   12.4400    0.0000 H   0  0  0  0  0  0  0  0  0  0  0  0
   13.0823   13.2131    0.0000 H   0  0  0  0  0  0  0  0  0  0  0  0
   13.9292   13.4400    0.0000 H   0  0  0  0  0  0  0  0  0  0  0  0
   13.7023   14.2869    0.0000 H   0  0  0  0  0  0  0  0  0  0  0  0
    5.2690    0.4400    0.0000 H   0  0  0  0  0  0  0  0  0  0  0  0
    4.1215   -5.1423    0.0000 H   0  0  0  0  0  0  0  0  0  0  0  0
    4.5200   -5.8326    0.0000 H   0  0  0  0  0  0  0  0  0  0  0  0
    6.2087   -5.8577    0.0000 H   0  0  0  0  0  0  0  0  0  0  0  0
    5.8101   -5.1674    0.0000 H   0  0  0  0  0  0  0  0  0  0  0  0
   10.2573   12.5600    0.0000 H   0  0  0  0  0  0  0  0  0  0  0  0
    4.9875   -6.6423    0.0000 H   0  0  0  0  0  0  0  0  0  0  0  0
    5.3860   -7.3326    0.0000 H   0  0  0  0  0  0  0  0  0  0  0  0
    7.0747   -7.3577    0.0000 H   0  0  0  0  0  0  0  0  0  0  0  0
    6.6762   -6.6674    0.0000 H   0  0  0  0  0  0  0  0  0  0  0  0
    5.8535   -8.1423    0.0000 H   0  0  0  0  0  0  0  0  0  0  0  0
    6.2520   -8.8326    0.0000 H   0  0  0  0  0  0  0  0  0  0  0  0
    7.9407   -8.8577    0.0000 H   0  0  0  0  0  0  0  0  0  0  0  0
    7.5422   -8.1674    0.0000 H   0  0  0  0  0  0  0  0  0  0  0  0
    6.7196   -9.6423    0.0000 H   0  0  0  0  0  0  0  0  0  0  0  0
    7.1181  -10.3326    0.0000 H   0  0  0  0  0  0  0  0  0  0  0  0
    4.1760    2.7869    0.0000 H   0  0  0  0  0  0  0  0  0  0  0  0
    3.3291    2.5600    0.0000 H   0  0  0  0  0  0  0  0  0  0  0  0
    3.5560    1.7131    0.0000 H   0  0  0  0  0  0  0  0  0  0  0  0
    8.8067  -10.3577    0.0000 H   0  0  0  0  0  0  0  0  0  0  0  0
    8.4082   -9.6674    0.0000 H   0  0  0  0  0  0  0  0  0  0  0  0
    6.1350    1.9400    0.0000 H   0  0  0  0  0  0  0  0  0  0  0  0
    7.5856  -11.1423    0.0000 H   0  0  0  0  0  0  0  0  0  0  0  0
    7.9841  -11.8326    0.0000 H   0  0  0  0  0  0  0  0  0  0  0  0
    9.6728  -11.8577    0.0000 H   0  0  0  0  0  0  0  0  0  0  0  0
    9.2742  -11.1674    0.0000 H   0  0  0  0  0  0  0  0  0  0  0  0
    8.4516  -12.6423    0.0000 H   0  0  0  0  0  0  0  0  0  0  0  0
    8.8501  -13.3326    0.0000 H   0  0  0  0  0  0  0  0  0  0  0  0
   11.3503   10.2131    0.0000 H   0  0  0  0  0  0  0  0  0  0  0  0
   12.1972   10.4400    0.0000 H   0  0  0  0  0  0  0  0  0  0  0  0
   11.9703   11.2869    0.0000 H   0  0  0  0  0  0  0  0  0  0  0  0
    9.3913   11.0600    0.0000 H   0  0  0  0  0  0  0  0  0  0  0  0
   10.5388  -13.3577    0.0000 H   0  0  0  0  0  0  0  0  0  0  0  0
   10.1403  -12.6674    0.0000 H   0  0  0  0  0  0  0  0  0  0  0  0
    5.0611    3.5600    0.0000 H   0  0  0  0  0  0  0  0  0  0  0  0
    9.3176  -14.1423    0.0000 H   0  0  0  0  0  0  0  0  0  0  0  0
    9.7162  -14.8326    0.0000 H   0  0  0  0  0  0  0  0  0  0  0  0
   11.4048  -14.8577    0.0000 H   0  0  0  0  0  0  0  0  0  0  0  0
   11.0063  -14.1674    0.0000 H   0  0  0  0  0  0  0  0  0  0  0  0
   10.4651    9.4400    0.0000 H   0  0  0  0  0  0  0  0  0  0  0  0
    7.0010    3.4400    0.0000 H   0  0  0  0  0  0  0  0  0  0  0  0
   10.1742  -15.7500    0.0000 H   0  0  0  0  0  0  0  0  0  0  0  0
   10.7942  -16.3700    0.0000 H   0  0  0  0  0  0  0  0  0  0  0  0
   11.4142  -15.7500    0.0000 H   0  0  0  0  0  0  0  0  0  0  0  0
    8.5252    9.5600    0.0000 H   0  0  0  0  0  0  0  0  0  0  0  0
    5.9081    5.7869    0.0000 H   0  0  0  0  0  0  0  0  0  0  0  0
    5.0611    5.5600    0.0000 H   0  0  0  0  0  0  0  0  0  0  0  0
    5.2881    4.7131    0.0000 H   0  0  0  0  0  0  0  0  0  0  0  0
    7.8671    4.9400    0.0000 H   0  0  0  0  0  0  0  0  0  0  0  0
    7.6592    8.0600    0.0000 H   0  0  0  0  0  0  0  0  0  0  0  0
    9.6182    7.2131    0.0000 H   0  0  0  0  0  0  0  0  0  0  0  0
   10.4651    7.4400    0.0000 H   0  0  0  0  0  0  0  0  0  0  0  0
   10.2382    8.2869    0.0000 H   0  0  0  0  0  0  0  0  0  0  0  0
    6.7932    6.5600    0.0000 H   0  0  0  0  0  0  0  0  0  0  0  0
    8.7331    6.4400    0.0000 H   0  0  0  0  0  0  0  0  0  0  0  0
  1  5  1  0  0  0  0
  1 22  1  0  0  0  0
  2 22  2  0  0  0  0
  3  4  1  0  0  0  0
  3  6  1  0  0  0  0
  3 10  1  0  0  0  0
  3 11  1  0  0  0  0
  4  5  1  0  0  0  0
  4 59  1  0  0  0  0
  4 60  1  0  0  0  0
  5  7  1  0  0  0  0
  5 61  1  0  0  0  0
  6  8  2  0  0  0  0
  6 17  1  0  0  0  0
  7  8  1  0  0  0  0
  7 62  1  0  0  0  0
  7 63  1  0  0  0  0
  8 18  1  0  0  0  0
  9 12  1  0  0  0  0
  9 14  1  0  0  0  0
  9 19  1  0  0  0  0
  9 20  1  0  0  0  0
 10 67  1  0  0  0  0
 10 68  1  0  0  0  0
 10 69  1  0  0  0  0
 11 64  1  0  0  0  0
 11 65  1  0  0  0  0
 11 66  1  0  0  0  0
 12 13  1  0  0  0  0
 12 70  1  0  0  0  0
 12 71  1  0  0  0  0
 13 15  1  0  0  0  0
 13 72  1  0  0  0  0
 13 73  1  0  0  0  0
 14 16  2  0  0  0  0
 14 21  1  0  0  0  0
 15 16  1  0  0  0  0
 15 74  1  0  0  0  0
 15 75  1  0  0  0  0
 16 23  1  0  0  0  0
 17 24  2  0  0  0  0
 17 76  1  0  0  0  0
 18 77  1  0  0  0  0
 18 78  1  0  0  0  0
 18 79  1  0  0  0  0
 19 81  1  0  0  0  0
 19 82  1  0  0  0  0
 19 83  1  0  0  0  0
 20 80  1  0  0  0  0
 20 84  1  0  0  0  0
 20 85  1  0  0  0  0
 21 27  2  0  0  0  0
 21 86  1  0  0  0  0
 22 25  1  0  0  0  0
 23 87  1  0  0  0  0
 23 88  1  0  0  0  0
 23 89  1  0  0  0  0
 24 29  1  0  0  0  0
 24 90  1  0  0  0  0
 25 26  1  0  0  0  0
 25 91  1  0  0  0  0
 25 92  1  0  0  0  0
 26 28  1  0  0  0  0
 26 93  1  0  0  0  0
 26 94  1  0  0  0  0
 27 33  1  0  0  0  0
 27 95  1  0  0  0  0
 28 30  1  0  0  0  0
 28 96  1  0  0  0  0
 28 97  1  0  0  0  0
 29 35  1  0  0  0  0
 29 37  2  0  0  0  0
 30 31  1  0  0  0  0
 30 98  1  0  0  0  0
 30 99  1  0  0  0  0
 31 32  1  0  0  0  0
 31100  1  0  0  0  0
 31101  1  0  0  0  0
 32 34  1  0  0  0  0
 32102  1  0  0  0  0
 32103  1  0  0  0  0
 33 41  1  0  0  0  0
 33 42  2  0  0  0  0
 34 36  1  0  0  0  0
 34104  1  0  0  0  0
 34105  1  0  0  0  0
 35106  1  0  0  0  0
 35107  1  0  0  0  0
 35108  1  0  0  0  0
 36 38  1  0  0  0  0
 36109  1  0  0  0  0
 36110  1  0  0  0  0
 37 44  1  0  0  0  0
 37111  1  0  0  0  0
 38 39  1  0  0  0  0
 38112  1  0  0  0  0
 38113  1  0  0  0  0
 39 40  1  0  0  0  0
 39114  1  0  0  0  0
 39115  1  0  0  0  0
 40 43  1  0  0  0  0
 40116  1  0  0  0  0
 40117  1  0  0  0  0
 41118  1  0  0  0  0
 41119  1  0  0  0  0
 41120  1  0  0  0  0
 42 46  1  0  0  0  0
 42121  1  0  0  0  0
 43 45  1  0  0  0  0
 43122  1  0  0  0  0
 43123  1  0  0  0  0
 44 48  2  0  0  0  0
 44124  1  0  0  0  0
 45 47  1  0  0  0  0
 45125  1  0  0  0  0
 45126  1  0  0  0  0
 46 50  2  0  0  0  0
 46129  1  0  0  0  0
 47 49  1  0  0  0  0
 47127  1  0  0  0  0
 47128  1  0  0  0  0
 48 51  1  0  0  0  0
 48130  1  0  0  0  0
 49131  1  0  0  0  0
 49132  1  0  0  0  0
 49133  1  0  0  0  0
 50 52  1  0  0  0  0
 50134  1  0  0  0  0
 51 53  1  0  0  0  0
 51 54  2  0  0  0  0
 52 55  2  0  0  0  0
 52 56  1  0  0  0  0
 53135  1  0  0  0  0
 53136  1  0  0  0  0
 53137  1  0  0  0  0
 54 57  1  0  0  0  0
 54138  1  0  0  0  0
 55 58  1  0  0  0  0
 55139  1  0  0  0  0
 56140  1  0  0  0  0
 56141  1  0  0  0  0
 56142  1  0  0  0  0
 57 58  2  0  0  0  0
 57143  1  0  0  0  0
 58144  1  0  0  0  0
M  END
>  <PUBCHEM_COMPOUND_CID>
12097311

>  <PUBCHEM_COMPOUND_CANONICALIZED>
1

>  <PUBCHEM_CACTVS_COMPLEXITY>
1600

>  <PUBCHEM_CACTVS_HBOND_ACCEPTOR>
2

>  <PUBCHEM_CACTVS_HBOND_DONOR>
0

>  <PUBCHEM_CACTVS_ROTATABLE_BOND>
26

>  <PUBCHEM_CACTVS_SUBSKEYS>
AAADcfB8MAAAAAAAAAAAAAAAAAAAAAAAAAAgQAAAAAAAAAAAAAAAGgAAAAAADhSggAICCAAABACIAiDSCAAAAAAgAAAICAEAAAgIABIAAQACAAAEwAAIgAOIyOCPAAAAAAAAAAAAAAAAAAAAAAAAAAAAAA==

>  <PUBCHEM_IUPAC_OPENEYE_NAME>
[3,5,5-trimethyl-4-[(1E,3E,5E,7E,9E,11E,13E,15E,17E)-3,7,12,16-tetramethyl-18-(2,6,6-trimethylcyclohexen-1-yl)octadeca-1,3,5,7,9,11,13,15,17-nonaenyl]cyclohex-3-en-1-yl] hexadecanoate

>  <PUBCHEM_IUPAC_CAS_NAME>
hexadecanoic acid [3,5,5-trimethyl-4-[(1E,3E,5E,7E,9E,11E,13E,15E,17E)-3,7,12,16-tetramethyl-18-(2,6,6-trimethyl-1-cyclohexenyl)octadeca-1,3,5,7,9,11,13,15,17-nonaenyl]-1-cyclohex-3-enyl] ester

>  <PUBCHEM_IUPAC_NAME>
[3,5,5-trimethyl-4-[(1E,3E,5E,7E,9E,11E,13E,15E,17E)-3,7,12,16-tetramethyl-18-(2,6,6-trimethylcyclohexen-1-yl)octadeca-1,3,5,7,9,11,13,15,17-nonaenyl]cyclohex-3-en-1-yl] hexadecanoate

>  <PUBCHEM_IUPAC_SYSTEMATIC_NAME>
[3,5,5-trimethyl-4-[(1E,3E,5E,7E,9E,11E,13E,15E,17E)-3,7,12,16-tetramethyl-18-(2,6,6-trimethylcyclohexen-1-yl)octadeca-1,3,5,7,9,11,13,15,17-nonaenyl]cyclohex-3-en-1-yl] hexadecanoate

>  <PUBCHEM_IUPAC_TRADITIONAL_NAME>
palmitic acid [3,5,5-trimethyl-4-[(1E,3E,5E,7E,9E,11E,13E,15E,17E)-3,7,12,16-tetramethyl-18-(2,6,6-trimethylcyclohexen-1-yl)octadeca-1,3,5,7,9,11,13,15,17-nonaenyl]cyclohex-3-en-1-yl] ester

>  <PUBCHEM_IUPAC_INCHI>
InChI=1S/C56H86O2/c1-12-13-14-15-16-17-18-19-20-21-22-23-24-37-54(57)58-51-43-50(7)53(56(10,11)44-51)41-39-48(5)35-28-33-46(3)31-26-25-30-45(2)32-27-34-47(4)38-40-52-49(6)36-29-42-55(52,8)9/h25-28,30-35,38-41,51H,12-24,29,36-37,42-44H2,1-11H3/b26-25+,32-27+,33-28+,40-38+,41-39+,45-30+,46-31+,47-34+,48-35+

>  <PUBCHEM_IUPAC_INCHIKEY>
YAOOAGLXXPOKMH-UTEGAOKCSA-N

>  <PUBCHEM_XLOGP3_AA>
20.2

>  <PUBCHEM_EXACT_MASS>
790.663

>  <PUBCHEM_MOLECULAR_FORMULA>
C56H86O2

>  <PUBCHEM_MOLECULAR_WEIGHT>
791.302

>  <PUBCHEM_OPENEYE_CAN_SMILES>
CCCCCCCCCCCCCCCC(=O)OC1CC(=C(C(C1)(C)C)C=CC(=CC=CC(=CC=CC=C(C)C=CC=C(C)C=CC2=C(CCCC2(C)C)C)C)C)C

>  <PUBCHEM_OPENEYE_ISO_SMILES>
CCCCCCCCCCCCCCCC(=O)OC1CC(=C(C(C1)(C)C)/C=C/C(=C/C=C/C(=C/C=C/C=C(\C)/C=C/C=C(\C)/C=C/C2=C(CCCC2(C)C)C)/C)/C)C

>  <PUBCHEM_CACTVS_TPSA>
26.3

>  <PUBCHEM_MONOISOTOPIC_WEIGHT>
790.663

>  <PUBCHEM_TOTAL_CHARGE>
0

>  <PUBCHEM_HEAVY_ATOM_COUNT>
58

>  <PUBCHEM_ATOM_DEF_STEREO_COUNT>
0

>  <PUBCHEM_ATOM_UDEF_STEREO_COUNT>
1

>  <PUBCHEM_BOND_DEF_STEREO_COUNT>
9

>  <PUBCHEM_BOND_UDEF_STEREO_COUNT>
0

>  <PUBCHEM_ISOTOPIC_ATOM_COUNT>
0

>  <PUBCHEM_COMPONENT_COUNT>
1

>  <PUBCHEM_CACTVS_TAUTO_COUNT>
1

>  <PUBCHEM_COORDINATE_TYPE>
1
5
255

>  <PUBCHEM_BONDANNOTATIONS>
5  1  3

$$$$
