12116700
 OpenBabel06101807152D

 29 31  0  0  1  0  0  0  0  0999 V2000
    2.7493    1.7298    0.0000 O   0  0  0  0  0  0  0  0  0  0  0  0
    5.3717   -0.4081    0.0000 N   0  0  0  0  0  0  0  0  0  0  0  0
    5.6808    0.5430    0.0000 N   0  0  0  0  0  0  0  0  0  0  0  0
    6.0567   -1.1928    0.0000 C   0  0  0  0  0  0  0  0  0  0  0  0
    6.6962    0.7752    0.0000 C   0  0  0  0  0  0  0  0  0  0  0  0
    7.0772   -0.9841    0.0000 C   0  0  0  0  0  0  0  0  0  0  0  0
    7.3991    0.0066    0.0000 C   0  0  0  0  0  0  0  0  0  0  0  0
    4.3717   -0.4081    0.0000 C   0  0  0  0  0  0  0  0  0  0  0  0
    4.0627    0.5430    0.0000 C   0  0  0  0  0  0  0  0  0  0  0  0
    4.8717    1.1308    0.0000 C   0  0  0  0  0  0  0  0  0  0  0  0
    3.6868   -1.1928    0.0000 C   0  0  0  0  0  0  0  0  0  0  0  0
    3.0473    0.7752    0.0000 C   0  0  0  0  0  0  0  0  0  0  0  0
    2.6663   -0.9841    0.0000 C   0  0  0  0  0  0  0  0  0  0  0  0
    2.3444    0.0066    0.0000 C   0  0  0  0  0  0  0  0  0  0  0  0
    2.0000   -1.7298    0.0000 C   0  0  0  0  0  0  0  0  0  0  0  0
    5.5267   -1.5146    0.0000 H   0  0  0  0  0  0  0  0  0  0  0  0
    6.2830   -1.7700    0.0000 H   0  0  0  0  0  0  0  0  0  0  0  0
    7.2186    1.1092    0.0000 H   0  0  0  0  0  0  0  0  0  0  0  0
    6.4565    1.3471    0.0000 H   0  0  0  0  0  0  0  0  0  0  0  0
    7.0957   -1.6038    0.0000 H   0  0  0  0  0  0  0  0  0  0  0  0
    7.6910   -1.0720    0.0000 H   0  0  0  0  0  0  0  0  0  0  0  0
    7.9473   -0.2831    0.0000 H   0  0  0  0  0  0  0  0  0  0  0  0
    7.7783    0.4971    0.0000 H   0  0  0  0  0  0  0  0  0  0  0  0
    4.8717    1.7508    0.0000 H   0  0  0  0  0  0  0  0  0  0  0  0
    3.8852   -1.7802    0.0000 H   0  0  0  0  0  0  0  0  0  0  0  0
    1.7384    0.1378    0.0000 H   0  0  0  0  0  0  0  0  0  0  0  0
    1.5376   -1.3167    0.0000 H   0  0  0  0  0  0  0  0  0  0  0  0
    1.5869   -2.1922    0.0000 H   0  0  0  0  0  0  0  0  0  0  0  0
    2.4623   -2.1429    0.0000 H   0  0  0  0  0  0  0  0  0  0  0  0
  1 12  2  0  0  0  0
  2  3  1  0  0  0  0
  2  4  1  0  0  0  0
  2  8  1  0  0  0  0
  3  5  1  0  0  0  0
  3 10  1  0  0  0  0
  4  6  1  0  0  0  0
  4 16  1  0  0  0  0
  4 17  1  0  0  0  0
  5  7  1  0  0  0  0
  5 18  1  0  0  0  0
  5 19  1  0  0  0  0
  6  7  1  0  0  0  0
  6 20  1  0  0  0  0
  6 21  1  0  0  0  0
  7 22  1  0  0  0  0
  7 23  1  0  0  0  0
  8  9  1  0  0  0  0
  8 11  2  0  0  0  0
  9 10  2  0  0  0  0
  9 12  1  0  0  0  0
 10 24  1  0  0  0  0
 11 13  1  0  0  0  0
 11 25  1  0  0  0  0
 12 14  1  0  0  0  0
 13 14  2  0  0  0  0
 13 15  1  0  0  0  0
 14 26  1  0  0  0  0
 15 27  1  0  0  0  0
 15 28  1  0  0  0  0
 15 29  1  0  0  0  0
M  END
>  <PUBCHEM_COMPOUND_CID>
12116700

>  <PUBCHEM_COMPOUND_CANONICALIZED>
1

>  <PUBCHEM_CACTVS_COMPLEXITY>
417

>  <PUBCHEM_CACTVS_HBOND_ACCEPTOR>
3

>  <PUBCHEM_CACTVS_HBOND_DONOR>
0

>  <PUBCHEM_CACTVS_ROTATABLE_BOND>
0

>  <PUBCHEM_CACTVS_SUBSKEYS>
AAADccBzIAAAAAAAAAAAAAAAAAAAAQAAAAAsQAAAAAAAAEAAAAAAHgAIAAAADAzBgAQCAAIAAACIAqRWQACAAAAgAgAQCAEIAEgIAAgAgQAEAAAAgACIgcIAAAAAAAAAAAAAAAAAAAAAAAAAAAAAAAAAAA==

>  <PUBCHEM_IUPAC_OPENEYE_NAME>
3-methyl-6,7,8,9-tetrahydropyridazino[1,2-a]indazol-1-one

>  <PUBCHEM_IUPAC_CAS_NAME>
3-methyl-6,7,8,9-tetrahydropyridazino[1,2-a]indazol-1-one

>  <PUBCHEM_IUPAC_NAME>
3-methyl-6,7,8,9-tetrahydropyridazino[1,2-a]indazol-1-one

>  <PUBCHEM_IUPAC_SYSTEMATIC_NAME>
3-methyl-6,7,8,9-tetrahydropyridazino[1,2-a]indazol-1-one

>  <PUBCHEM_IUPAC_TRADITIONAL_NAME>
3-methyl-6,7,8,9-tetrahydropyridazin[1,2-a]indazol-1-one

>  <PUBCHEM_IUPAC_INCHI>
InChI=1S/C12H14N2O/c1-9-6-11-10(12(15)7-9)8-13-4-2-3-5-14(11)13/h6-8H,2-5H2,1H3

>  <PUBCHEM_IUPAC_INCHIKEY>
FAGBILYNJCYFKA-UHFFFAOYSA-N

>  <PUBCHEM_XLOGP3_AA>
1.6

>  <PUBCHEM_EXACT_MASS>
202.111

>  <PUBCHEM_MOLECULAR_FORMULA>
C12H14N2O

>  <PUBCHEM_MOLECULAR_WEIGHT>
202.257

>  <PUBCHEM_OPENEYE_CAN_SMILES>
CC1=CC(=O)C2=CN3CCCCN3C2=C1

>  <PUBCHEM_OPENEYE_ISO_SMILES>
CC1=CC(=O)C2=CN3CCCCN3C2=C1

>  <PUBCHEM_CACTVS_TPSA>
23.6

>  <PUBCHEM_MONOISOTOPIC_WEIGHT>
202.111

>  <PUBCHEM_TOTAL_CHARGE>
0

>  <PUBCHEM_HEAVY_ATOM_COUNT>
15

>  <PUBCHEM_ATOM_DEF_STEREO_COUNT>
0

>  <PUBCHEM_ATOM_UDEF_STEREO_COUNT>
0

>  <PUBCHEM_BOND_DEF_STEREO_COUNT>
0

>  <PUBCHEM_BOND_UDEF_STEREO_COUNT>
0

>  <PUBCHEM_ISOTOPIC_ATOM_COUNT>
0

>  <PUBCHEM_COMPONENT_COUNT>
1

>  <PUBCHEM_CACTVS_TAUTO_COUNT>
3

>  <PUBCHEM_COORDINATE_TYPE>
1
5
255

>  <PUBCHEM_BONDANNOTATIONS>
11  13  8
12  14  8
13  14  8
2  3  8
2  8  8
3  10  8
8  11  8
9  10  8
9  12  8

$$$$
