12135129
 OpenBabel06101807152D

 28 30  0  0  0  0  0  0  0  0999 V2000
    2.5836    0.2701    0.0000 O   0  0  0  0  0  0  0  0  0  0  0  0
    2.5836   -1.3394    0.0000 O   0  0  0  0  0  0  0  0  0  0  0  0
    4.3798    1.5069    0.0000 O   0  0  0  0  0  0  0  0  0  0  0  0
    4.3958   -2.5346    0.0000 O   0  0  0  0  0  0  0  0  0  0  0  0
    6.1279   -1.5346    0.0000 O   0  0  0  0  0  0  0  0  0  0  0  0
    5.2740    3.0346    0.0000 O   0  0  0  0  0  0  0  0  0  0  0  0
    3.5298   -0.0346    0.0000 C   0  0  0  0  0  0  0  0  0  0  0  0
    3.5298   -1.0346    0.0000 C   0  0  0  0  0  0  0  0  0  0  0  0
    5.2619   -0.0346    0.0000 C   0  0  0  0  0  0  0  0  0  0  0  0
    4.3958    0.4654    0.0000 C   0  0  0  0  0  0  0  0  0  0  0  0
    4.3958   -1.5346    0.0000 C   0  0  0  0  0  0  0  0  0  0  0  0
    5.2619   -1.0346    0.0000 C   0  0  0  0  0  0  0  0  0  0  0  0
    2.0000   -0.5346    0.0000 C   0  0  0  0  0  0  0  0  0  0  0  0
    6.1719    0.4722    0.0000 C   0  0  0  0  0  0  0  0  0  0  0  0
    6.1799    1.5138    0.0000 C   0  0  0  0  0  0  0  0  0  0  0  0
    5.2778    2.0346    0.0000 C   0  0  0  0  0  0  0  0  0  0  0  0
    3.5298   -3.0346    0.0000 C   0  0  0  0  0  0  0  0  0  0  0  0
    6.1279   -2.5346    0.0000 C   0  0  0  0  0  0  0  0  0  0  0  0
    1.5391   -0.1199    0.0000 H   0  0  0  0  0  0  0  0  0  0  0  0
    1.5391   -0.9494    0.0000 H   0  0  0  0  0  0  0  0  0  0  0  0
    6.7052    0.1560    0.0000 H   0  0  0  0  0  0  0  0  0  0  0  0
    6.7180    1.8218    0.0000 H   0  0  0  0  0  0  0  0  0  0  0  0
    3.2198   -2.4977    0.0000 H   0  0  0  0  0  0  0  0  0  0  0  0
    2.9929   -3.3446    0.0000 H   0  0  0  0  0  0  0  0  0  0  0  0
    3.8398   -3.5716    0.0000 H   0  0  0  0  0  0  0  0  0  0  0  0
    5.5079   -2.5346    0.0000 H   0  0  0  0  0  0  0  0  0  0  0  0
    6.1279   -3.1546    0.0000 H   0  0  0  0  0  0  0  0  0  0  0  0
    6.7479   -2.5346    0.0000 H   0  0  0  0  0  0  0  0  0  0  0  0
  1  7  1  0  0  0  0
  1 13  1  0  0  0  0
  2  8  1  0  0  0  0
  2 13  1  0  0  0  0
  3 10  1  0  0  0  0
  3 16  1  0  0  0  0
  4 11  1  0  0  0  0
  4 17  1  0  0  0  0
  5 12  1  0  0  0  0
  5 18  1  0  0  0  0
  6 16  2  0  0  0  0
  7  8  2  0  0  0  0
  7 10  1  0  0  0  0
  8 11  1  0  0  0  0
  9 10  2  0  0  0  0
  9 12  1  0  0  0  0
  9 14  1  0  0  0  0
 11 12  2  0  0  0  0
 13 19  1  0  0  0  0
 13 20  1  0  0  0  0
 14 15  2  0  0  0  0
 14 21  1  0  0  0  0
 15 16  1  0  0  0  0
 15 22  1  0  0  0  0
 17 23  1  0  0  0  0
 17 24  1  0  0  0  0
 17 25  1  0  0  0  0
 18 26  1  0  0  0  0
 18 27  1  0  0  0  0
 18 28  1  0  0  0  0
M  END
>  <PUBCHEM_COMPOUND_CID>
12135129

>  <PUBCHEM_COMPOUND_CANONICALIZED>
1

>  <PUBCHEM_CACTVS_COMPLEXITY>
368

>  <PUBCHEM_CACTVS_HBOND_ACCEPTOR>
6

>  <PUBCHEM_CACTVS_HBOND_DONOR>
0

>  <PUBCHEM_CACTVS_ROTATABLE_BOND>
2

>  <PUBCHEM_CACTVS_SUBSKEYS>
AAADccBwOAAAAAAAAAAAAAAAAAAAASAAAAAwQAAAAAAAAEiBAAAAGgAAAAAADASAmAMCDoAABACIAiDSCAACCAAgIAAIiAAEiMgdJyKEMBqiOiKlwBUOqYfA4DwOIQABCAAIQABCAAIQABCAAAAAAAAAAA==

>  <PUBCHEM_IUPAC_OPENEYE_NAME>
4,5-dimethoxy-[1,3]dioxolo[4,5-h]chromen-8-one

>  <PUBCHEM_IUPAC_CAS_NAME>
4,5-dimethoxy-[1,3]dioxolo[4,5-h][1]benzopyran-8-one

>  <PUBCHEM_IUPAC_NAME>
4,5-dimethoxy-[1,3]dioxolo[4,5-h]chromen-8-one

>  <PUBCHEM_IUPAC_SYSTEMATIC_NAME>
4,5-dimethoxy-[1,3]dioxolo[4,5-h]chromen-8-one

>  <PUBCHEM_IUPAC_TRADITIONAL_NAME>
4,5-dimethoxy-[1,3]dioxolo[4,5-h]chromen-8-one

>  <PUBCHEM_IUPAC_INCHI>
InChI=1S/C12H10O6/c1-14-8-6-3-4-7(13)18-9(6)11-12(10(8)15-2)17-5-16-11/h3-4H,5H2,1-2H3

>  <PUBCHEM_IUPAC_INCHIKEY>
XMGUZQZZMQBVFF-UHFFFAOYSA-N

>  <PUBCHEM_XLOGP3_AA>
1.7

>  <PUBCHEM_EXACT_MASS>
250.048

>  <PUBCHEM_MOLECULAR_FORMULA>
C12H10O6

>  <PUBCHEM_MOLECULAR_WEIGHT>
250.206

>  <PUBCHEM_OPENEYE_CAN_SMILES>
COC1=C(C2=C(C3=C1C=CC(=O)O3)OCO2)OC

>  <PUBCHEM_OPENEYE_ISO_SMILES>
COC1=C(C2=C(C3=C1C=CC(=O)O3)OCO2)OC

>  <PUBCHEM_CACTVS_TPSA>
63.2

>  <PUBCHEM_MONOISOTOPIC_WEIGHT>
250.048

>  <PUBCHEM_TOTAL_CHARGE>
0

>  <PUBCHEM_HEAVY_ATOM_COUNT>
18

>  <PUBCHEM_ATOM_DEF_STEREO_COUNT>
0

>  <PUBCHEM_ATOM_UDEF_STEREO_COUNT>
0

>  <PUBCHEM_BOND_DEF_STEREO_COUNT>
0

>  <PUBCHEM_BOND_UDEF_STEREO_COUNT>
0

>  <PUBCHEM_ISOTOPIC_ATOM_COUNT>
0

>  <PUBCHEM_COMPONENT_COUNT>
1

>  <PUBCHEM_CACTVS_TAUTO_COUNT>
1

>  <PUBCHEM_COORDINATE_TYPE>
1
5
255

>  <PUBCHEM_BONDANNOTATIONS>
11  12  8
14  15  8
15  16  8
3  10  8
3  16  8
7  10  8
7  8  8
8  11  8
9  10  8
9  12  8
9  14  8

$$$$
