12133005
 OpenBabel06101807152D

 33 35  0  0  0  0  0  0  0  0999 V2000
    6.0290   -0.6126    0.0000 O   0  0  0  0  0  0  0  0  0  0  0  0
    4.2690    2.4221    0.0000 O   0  0  0  0  0  0  0  0  0  0  0  0
    7.7991    1.4462    0.0000 O   0  0  0  0  0  0  0  0  0  0  0  0
    4.2690   -1.5779    0.0000 O   0  0  0  0  0  0  0  0  0  0  0  0
    2.5369    1.4221    0.0000 O   0  0  0  0  0  0  0  0  0  0  0  0
    2.5369   -0.5779    0.0000 O   0  0  0  0  0  0  0  0  0  0  0  0
    6.0174    2.4567    0.0000 O   0  0  0  0  0  0  0  0  0  0  0  0
   10.3914   -2.1121    0.0000 O   0  0  0  0  0  0  0  0  0  0  0  0
    5.1350    0.9221    0.0000 C   0  0  0  0  0  0  0  0  0  0  0  0
    5.1350   -0.0779    0.0000 C   0  0  0  0  0  0  0  0  0  0  0  0
    6.9350   -0.0987    0.0000 C   0  0  0  0  0  0  0  0  0  0  0  0
    6.0290    1.4567    0.0000 C   0  0  0  0  0  0  0  0  0  0  0  0
    4.2690    1.4221    0.0000 C   0  0  0  0  0  0  0  0  0  0  0  0
    6.9350    0.9429    0.0000 C   0  0  0  0  0  0  0  0  0  0  0  0
    4.2690   -0.5779    0.0000 C   0  0  0  0  0  0  0  0  0  0  0  0
    7.7991   -0.6021    0.0000 C   0  0  0  0  0  0  0  0  0  0  0  0
    3.4030    0.9221    0.0000 C   0  0  0  0  0  0  0  0  0  0  0  0
    3.4030   -0.0779    0.0000 C   0  0  0  0  0  0  0  0  0  0  0  0
    7.7953   -1.6021    0.0000 C   0  0  0  0  0  0  0  0  0  0  0  0
    8.6671   -0.1054    0.0000 C   0  0  0  0  0  0  0  0  0  0  0  0
    8.6594   -2.1054    0.0000 C   0  0  0  0  0  0  0  0  0  0  0  0
    9.5312   -0.6088    0.0000 C   0  0  0  0  0  0  0  0  0  0  0  0
    9.5273   -1.6087    0.0000 C   0  0  0  0  0  0  0  0  0  0  0  0
    7.2571   -1.9100    0.0000 H   0  0  0  0  0  0  0  0  0  0  0  0
    8.6694    0.5146    0.0000 H   0  0  0  0  0  0  0  0  0  0  0  0
    8.6570   -2.7254    0.0000 H   0  0  0  0  0  0  0  0  0  0  0  0
   10.0693   -0.3008    0.0000 H   0  0  0  0  0  0  0  0  0  0  0  0
    3.7320    2.7321    0.0000 H   0  0  0  0  0  0  0  0  0  0  0  0
    7.7967    2.0662    0.0000 H   0  0  0  0  0  0  0  0  0  0  0  0
    3.7320   -1.8879    0.0000 H   0  0  0  0  0  0  0  0  0  0  0  0
    2.0000    1.1121    0.0000 H   0  0  0  0  0  0  0  0  0  0  0  0
    2.0000   -0.2679    0.0000 H   0  0  0  0  0  0  0  0  0  0  0  0
   10.3890   -2.7321    0.0000 H   0  0  0  0  0  0  0  0  0  0  0  0
  1 10  1  0  0  0  0
  1 11  1  0  0  0  0
  2 13  1  0  0  0  0
  2 28  1  0  0  0  0
  3 14  1  0  0  0  0
  3 29  1  0  0  0  0
  4 15  1  0  0  0  0
  4 30  1  0  0  0  0
  5 17  1  0  0  0  0
  5 31  1  0  0  0  0
  6 18  1  0  0  0  0
  6 32  1  0  0  0  0
  7 12  2  0  0  0  0
  8 23  1  0  0  0  0
  8 33  1  0  0  0  0
  9 10  1  0  0  0  0
  9 12  1  0  0  0  0
  9 13  2  0  0  0  0
 10 15  2  0  0  0  0
 11 14  2  0  0  0  0
 11 16  1  0  0  0  0
 12 14  1  0  0  0  0
 13 17  1  0  0  0  0
 15 18  1  0  0  0  0
 16 19  2  0  0  0  0
 16 20  1  0  0  0  0
 17 18  2  0  0  0  0
 19 21  1  0  0  0  0
 19 24  1  0  0  0  0
 20 22  2  0  0  0  0
 20 25  1  0  0  0  0
 21 23  2  0  0  0  0
 21 26  1  0  0  0  0
 22 23  1  0  0  0  0
 22 27  1  0  0  0  0
M  END
>  <PUBCHEM_COMPOUND_CID>
12133005

>  <PUBCHEM_COMPOUND_CANONICALIZED>
1

>  <PUBCHEM_CACTVS_COMPLEXITY>
510

>  <PUBCHEM_CACTVS_HBOND_ACCEPTOR>
8

>  <PUBCHEM_CACTVS_HBOND_DONOR>
6

>  <PUBCHEM_CACTVS_ROTATABLE_BOND>
1

>  <PUBCHEM_CACTVS_SUBSKEYS>
AAADccBwPAAAAAAAAAAAAAAAAAAAAAAAAAAwYIAAAAAAAACBQAAAGgAACAAADASAmAAwBoAABgCIAqBSAAICCAAkIAAIiAFGiMgNJzaGNRqCeWOl4BULuQfK7LzOIQABCAAIQABCAAIQABCAAAAAAAAAAA==

>  <PUBCHEM_IUPAC_OPENEYE_NAME>
3,5,6,7,8-pentahydroxy-2-(4-hydroxyphenyl)chromen-4-one

>  <PUBCHEM_IUPAC_CAS_NAME>
3,5,6,7,8-pentahydroxy-2-(4-hydroxyphenyl)-1-benzopyran-4-one

>  <PUBCHEM_IUPAC_NAME>
3,5,6,7,8-pentahydroxy-2-(4-hydroxyphenyl)chromen-4-one

>  <PUBCHEM_IUPAC_SYSTEMATIC_NAME>
2-(4-hydroxyphenyl)-3,5,6,7,8-pentakis(oxidanyl)chromen-4-one

>  <PUBCHEM_IUPAC_TRADITIONAL_NAME>
3,5,6,7,8-pentahydroxy-2-(4-hydroxyphenyl)chromone

>  <PUBCHEM_IUPAC_INCHI>
InChI=1S/C15H10O8/c16-6-3-1-5(2-4-6)14-12(21)9(18)7-8(17)10(19)11(20)13(22)15(7)23-14/h1-4,16-17,19-22H

>  <PUBCHEM_IUPAC_INCHIKEY>
WZIBNDUAQVRELQ-UHFFFAOYSA-N

>  <PUBCHEM_XLOGP3_AA>
1.8

>  <PUBCHEM_EXACT_MASS>
318.038

>  <PUBCHEM_MOLECULAR_FORMULA>
C15H10O8

>  <PUBCHEM_MOLECULAR_WEIGHT>
318.237

>  <PUBCHEM_OPENEYE_CAN_SMILES>
C1=CC(=CC=C1C2=C(C(=O)C3=C(O2)C(=C(C(=C3O)O)O)O)O)O

>  <PUBCHEM_OPENEYE_ISO_SMILES>
C1=CC(=CC=C1C2=C(C(=O)C3=C(O2)C(=C(C(=C3O)O)O)O)O)O

>  <PUBCHEM_CACTVS_TPSA>
148

>  <PUBCHEM_MONOISOTOPIC_WEIGHT>
318.038

>  <PUBCHEM_TOTAL_CHARGE>
0

>  <PUBCHEM_HEAVY_ATOM_COUNT>
23

>  <PUBCHEM_ATOM_DEF_STEREO_COUNT>
0

>  <PUBCHEM_ATOM_UDEF_STEREO_COUNT>
0

>  <PUBCHEM_BOND_DEF_STEREO_COUNT>
0

>  <PUBCHEM_BOND_UDEF_STEREO_COUNT>
0

>  <PUBCHEM_ISOTOPIC_ATOM_COUNT>
0

>  <PUBCHEM_COMPONENT_COUNT>
1

>  <PUBCHEM_CACTVS_TAUTO_COUNT>
903

>  <PUBCHEM_COORDINATE_TYPE>
1
5
255

>  <PUBCHEM_BONDANNOTATIONS>
1  10  8
1  11  8
10  15  8
11  14  8
12  14  8
13  17  8
15  18  8
16  19  8
16  20  8
17  18  8
19  21  8
20  22  8
21  23  8
22  23  8
9  10  8
9  12  8
9  13  8

$$$$
