12214328
 OpenBabel06101807152D

 25 27  0  0  0  0  0  0  0  0999 V2000
    4.6660   -1.1779    0.0000 O   0  0  0  0  0  0  0  0  0  0  0  0
    4.6660    1.8221    0.0000 O   0  0  0  0  0  0  0  0  0  0  0  0
    8.1962    0.8462    0.0000 O   0  0  0  0  0  0  0  0  0  0  0  0
    8.1962   -1.2021    0.0000 O   0  0  0  0  0  0  0  0  0  0  0  0
    5.5321    0.3221    0.0000 C   0  0  0  0  0  0  0  0  0  0  0  0
    3.8000    0.3221    0.0000 C   0  0  0  0  0  0  0  0  0  0  0  0
    5.5321   -0.6779    0.0000 C   0  0  0  0  0  0  0  0  0  0  0  0
    3.8000   -0.6779    0.0000 C   0  0  0  0  0  0  0  0  0  0  0  0
    4.6660    0.8221    0.0000 C   0  0  0  0  0  0  0  0  0  0  0  0
    6.4260    0.8567    0.0000 C   0  0  0  0  0  0  0  0  0  0  0  0
    6.4260   -1.2126    0.0000 C   0  0  0  0  0  0  0  0  0  0  0  0
    2.9061    0.8567    0.0000 C   0  0  0  0  0  0  0  0  0  0  0  0
    7.3321    0.3429    0.0000 C   0  0  0  0  0  0  0  0  0  0  0  0
    7.3321   -0.6987    0.0000 C   0  0  0  0  0  0  0  0  0  0  0  0
    2.9061   -1.2126    0.0000 C   0  0  0  0  0  0  0  0  0  0  0  0
    2.0000    0.3429    0.0000 C   0  0  0  0  0  0  0  0  0  0  0  0
    2.0000   -0.6987    0.0000 C   0  0  0  0  0  0  0  0  0  0  0  0
    6.4188    1.4767    0.0000 H   0  0  0  0  0  0  0  0  0  0  0  0
    6.4188   -1.8326    0.0000 H   0  0  0  0  0  0  0  0  0  0  0  0
    2.9132    1.4767    0.0000 H   0  0  0  0  0  0  0  0  0  0  0  0
    2.9132   -1.8326    0.0000 H   0  0  0  0  0  0  0  0  0  0  0  0
    1.4643    0.6550    0.0000 H   0  0  0  0  0  0  0  0  0  0  0  0
    1.4643   -1.0108    0.0000 H   0  0  0  0  0  0  0  0  0  0  0  0
    8.1938    1.4662    0.0000 H   0  0  0  0  0  0  0  0  0  0  0  0
    8.1938   -1.8221    0.0000 H   0  0  0  0  0  0  0  0  0  0  0  0
  1  7  1  0  0  0  0
  1  8  1  0  0  0  0
  2  9  2  0  0  0  0
  3 13  1  0  0  0  0
  3 24  1  0  0  0  0
  4 14  1  0  0  0  0
  4 25  1  0  0  0  0
  5  7  1  0  0  0  0
  5  9  1  0  0  0  0
  5 10  2  0  0  0  0
  6  8  1  0  0  0  0
  6  9  1  0  0  0  0
  6 12  2  0  0  0  0
  7 11  2  0  0  0  0
  8 15  2  0  0  0  0
 10 13  1  0  0  0  0
 10 18  1  0  0  0  0
 11 14  1  0  0  0  0
 11 19  1  0  0  0  0
 12 16  1  0  0  0  0
 12 20  1  0  0  0  0
 13 14  2  0  0  0  0
 15 17  1  0  0  0  0
 15 21  1  0  0  0  0
 16 17  2  0  0  0  0
 16 22  1  0  0  0  0
 17 23  1  0  0  0  0
M  END
>  <PUBCHEM_COMPOUND_CID>
12214328

>  <PUBCHEM_COMPOUND_CANONICALIZED>
1

>  <PUBCHEM_CACTVS_COMPLEXITY>
317

>  <PUBCHEM_CACTVS_HBOND_ACCEPTOR>
4

>  <PUBCHEM_CACTVS_HBOND_DONOR>
2

>  <PUBCHEM_CACTVS_ROTATABLE_BOND>
0

>  <PUBCHEM_CACTVS_SUBSKEYS>
AAADccBwOAAAAAAAAAAAAAAAAAAAAAAAAAA0YIAAAAAAAACRQAAAGgAACAAADASAmAAwBoAABgCIAqBSAAACCAAkIAAIiAEGiMgNJzaGNRqCeWGl4BUJuYfK7PzOIQABCAAIQABCAAIQABCAAAAAAAAAAA==

>  <PUBCHEM_IUPAC_OPENEYE_NAME>
2,3-dihydroxyxanthen-9-one

>  <PUBCHEM_IUPAC_CAS_NAME>
2,3-dihydroxy-9-xanthenone

>  <PUBCHEM_IUPAC_NAME>
2,3-dihydroxyxanthen-9-one

>  <PUBCHEM_IUPAC_SYSTEMATIC_NAME>
2,3-bis(oxidanyl)xanthen-9-one

>  <PUBCHEM_IUPAC_TRADITIONAL_NAME>
2,3-dihydroxyxanthone

>  <PUBCHEM_IUPAC_INCHI>
InChI=1S/C13H8O4/c14-9-5-8-12(6-10(9)15)17-11-4-2-1-3-7(11)13(8)16/h1-6,14-15H

>  <PUBCHEM_IUPAC_INCHIKEY>
PCVZOSVNSMRPQO-UHFFFAOYSA-N

>  <PUBCHEM_XLOGP3>
2.7

>  <PUBCHEM_EXACT_MASS>
228.042

>  <PUBCHEM_MOLECULAR_FORMULA>
C13H8O4

>  <PUBCHEM_MOLECULAR_WEIGHT>
228.203

>  <PUBCHEM_OPENEYE_CAN_SMILES>
C1=CC=C2C(=C1)C(=O)C3=CC(=C(C=C3O2)O)O

>  <PUBCHEM_OPENEYE_ISO_SMILES>
C1=CC=C2C(=C1)C(=O)C3=CC(=C(C=C3O2)O)O

>  <PUBCHEM_CACTVS_TPSA>
66.8

>  <PUBCHEM_MONOISOTOPIC_WEIGHT>
228.042

>  <PUBCHEM_TOTAL_CHARGE>
0

>  <PUBCHEM_HEAVY_ATOM_COUNT>
17

>  <PUBCHEM_ATOM_DEF_STEREO_COUNT>
0

>  <PUBCHEM_ATOM_UDEF_STEREO_COUNT>
0

>  <PUBCHEM_BOND_DEF_STEREO_COUNT>
0

>  <PUBCHEM_BOND_UDEF_STEREO_COUNT>
0

>  <PUBCHEM_ISOTOPIC_ATOM_COUNT>
0

>  <PUBCHEM_COMPONENT_COUNT>
1

>  <PUBCHEM_CACTVS_TAUTO_COUNT>
10

>  <PUBCHEM_COORDINATE_TYPE>
1
5
255

>  <PUBCHEM_BONDANNOTATIONS>
1  7  8
1  8  8
10  13  8
11  14  8
12  16  8
13  14  8
15  17  8
16  17  8
5  10  8
5  7  8
5  9  8
6  12  8
6  8  8
6  9  8
7  11  8
8  15  8

$$$$
