122376203
 OpenBabel06101807152D

155154  0  0  0  0  0  0  0  0999 V2000
   16.7224    2.0600    0.0000 O   0  0  0  0  0  0  0  0  0  0  0  0
   14.1244    1.5600    0.0000 O   0  0  0  0  0  0  0  0  0  0  0  0
   14.9904    0.0600    0.0000 O   0  0  0  0  0  0  0  0  0  0  0  0
   17.5885    0.5600    0.0000 O   0  0  0  0  0  0  0  0  0  0  0  0
   13.2583    3.0600    0.0000 O   0  0  0  0  0  0  0  0  0  0  0  0
   15.8564   -1.4400    0.0000 O   0  0  0  0  0  0  0  0  0  0  0  0
   21.0526    1.5600    0.0000 C   0  0  0  0  0  0  0  0  0  0  0  0
   20.1865    2.0600    0.0000 C   0  0  0  0  0  0  0  0  0  0  0  0
   21.9186    2.0600    0.0000 C   0  0  0  0  0  0  0  0  0  0  0  0
   13.2583   -3.9400    0.0000 C   0  0  0  0  0  0  0  0  0  0  0  0
    9.7942    2.0600    0.0000 C   0  0  0  0  0  0  0  0  0  0  0  0
   10.6603    1.5600    0.0000 C   0  0  0  0  0  0  0  0  0  0  0  0
   13.2583   -2.9400    0.0000 C   0  0  0  0  0  0  0  0  0  0  0  0
   19.3205    1.5600    0.0000 C   0  0  0  0  0  0  0  0  0  0  0  0
   12.3923   -4.4400    0.0000 C   0  0  0  0  0  0  0  0  0  0  0  0
    8.9282    1.5600    0.0000 C   0  0  0  0  0  0  0  0  0  0  0  0
   11.5263    2.0600    0.0000 C   0  0  0  0  0  0  0  0  0  0  0  0
   14.1244   -2.4400    0.0000 C   0  0  0  0  0  0  0  0  0  0  0  0
   22.7846    1.5600    0.0000 C   0  0  0  0  0  0  0  0  0  0  0  0
   12.3923   -5.4400    0.0000 C   0  0  0  0  0  0  0  0  0  0  0  0
    8.0622    2.0600    0.0000 C   0  0  0  0  0  0  0  0  0  0  0  0
   18.4545    2.0600    0.0000 C   0  0  0  0  0  0  0  0  0  0  0  0
   12.3923    1.5600    0.0000 C   0  0  0  0  0  0  0  0  0  0  0  0
   14.1244   -1.4400    0.0000 C   0  0  0  0  0  0  0  0  0  0  0  0
   15.8564    1.5600    0.0000 C   0  0  3  0  0  0  0  0  0  0  0  0
   23.6506    2.0600    0.0000 C   0  0  0  0  0  0  0  0  0  0  0  0
   11.5263   -5.9400    0.0000 C   0  0  0  0  0  0  0  0  0  0  0  0
    7.1962    1.5600    0.0000 C   0  0  0  0  0  0  0  0  0  0  0  0
   14.9904    2.0600    0.0000 C   0  0  0  0  0  0  0  0  0  0  0  0
   15.8564    0.5600    0.0000 C   0  0  0  0  0  0  0  0  0  0  0  0
   17.5885    1.5600    0.0000 C   0  0  0  0  0  0  0  0  0  0  0  0
   14.9904   -0.9400    0.0000 C   0  0  0  0  0  0  0  0  0  0  0  0
   13.2583    2.0600    0.0000 C   0  0  0  0  0  0  0  0  0  0  0  0
   24.5167    1.5600    0.0000 C   0  0  0  0  0  0  0  0  0  0  0  0
   11.5263   -6.9400    0.0000 C   0  0  0  0  0  0  0  0  0  0  0  0
    6.3301    2.0600    0.0000 C   0  0  0  0  0  0  0  0  0  0  0  0
   25.3827    2.0600    0.0000 C   0  0  0  0  0  0  0  0  0  0  0  0
    5.4641    1.5600    0.0000 C   0  0  0  0  0  0  0  0  0  0  0  0
   10.6603   -7.4400    0.0000 C   0  0  0  0  0  0  0  0  0  0  0  0
   25.3827    3.0600    0.0000 C   0  0  0  0  0  0  0  0  0  0  0  0
    9.7942   -6.9400    0.0000 C   0  0  0  0  0  0  0  0  0  0  0  0
    5.4641    0.5600    0.0000 C   0  0  0  0  0  0  0  0  0  0  0  0
   26.2487    3.5600    0.0000 C   0  0  0  0  0  0  0  0  0  0  0  0
    4.5981    0.0600    0.0000 C   0  0  0  0  0  0  0  0  0  0  0  0
    8.9282   -7.4400    0.0000 C   0  0  0  0  0  0  0  0  0  0  0  0
   26.2487    4.5600    0.0000 C   0  0  0  0  0  0  0  0  0  0  0  0
    8.0622   -6.9400    0.0000 C   0  0  0  0  0  0  0  0  0  0  0  0
    4.5981   -0.9400    0.0000 C   0  0  0  0  0  0  0  0  0  0  0  0
   27.1147    6.0600    0.0000 C   0  0  0  0  0  0  0  0  0  0  0  0
    6.3301   -6.9400    0.0000 C   0  0  0  0  0  0  0  0  0  0  0  0
    3.7320   -2.4400    0.0000 C   0  0  0  0  0  0  0  0  0  0  0  0
   27.9808    6.5600    0.0000 C   0  0  0  0  0  0  0  0  0  0  0  0
   27.1147    5.0600    0.0000 C   0  0  0  0  0  0  0  0  0  0  0  0
    2.8660   -2.9400    0.0000 C   0  0  0  0  0  0  0  0  0  0  0  0
    5.4641   -7.4400    0.0000 C   0  0  0  0  0  0  0  0  0  0  0  0
    7.1962   -7.4400    0.0000 C   0  0  0  0  0  0  0  0  0  0  0  0
    3.7320   -1.4400    0.0000 C   0  0  0  0  0  0  0  0  0  0  0  0
   27.9808    7.5600    0.0000 C   0  0  0  0  0  0  0  0  0  0  0  0
    4.5981   -6.9400    0.0000 C   0  0  0  0  0  0  0  0  0  0  0  0
    2.8660   -3.9400    0.0000 C   0  0  0  0  0  0  0  0  0  0  0  0
   28.8468    8.0600    0.0000 C   0  0  0  0  0  0  0  0  0  0  0  0
    2.0000   -4.4400    0.0000 C   0  0  0  0  0  0  0  0  0  0  0  0
    3.7320   -7.4400    0.0000 C   0  0  0  0  0  0  0  0  0  0  0  0
   20.6540    1.0850    0.0000 H   0  0  0  0  0  0  0  0  0  0  0  0
   21.4511    1.0850    0.0000 H   0  0  0  0  0  0  0  0  0  0  0  0
   20.5851    2.5349    0.0000 H   0  0  0  0  0  0  0  0  0  0  0  0
   19.7880    2.5349    0.0000 H   0  0  0  0  0  0  0  0  0  0  0  0
   22.3171    2.5349    0.0000 H   0  0  0  0  0  0  0  0  0  0  0  0
   21.5201    2.5349    0.0000 H   0  0  0  0  0  0  0  0  0  0  0  0
   10.1928    2.5349    0.0000 H   0  0  0  0  0  0  0  0  0  0  0  0
    9.3957    2.5349    0.0000 H   0  0  0  0  0  0  0  0  0  0  0  0
   13.4704   -4.5226    0.0000 H   0  0  0  0  0  0  0  0  0  0  0  0
   13.8689   -3.8323    0.0000 H   0  0  0  0  0  0  0  0  0  0  0  0
   10.2617    1.0850    0.0000 H   0  0  0  0  0  0  0  0  0  0  0  0
   11.0588    1.0850    0.0000 H   0  0  0  0  0  0  0  0  0  0  0  0
   13.0463   -2.3574    0.0000 H   0  0  0  0  0  0  0  0  0  0  0  0
   12.6477   -3.0477    0.0000 H   0  0  0  0  0  0  0  0  0  0  0  0
   18.9220    1.0850    0.0000 H   0  0  0  0  0  0  0  0  0  0  0  0
   19.7190    1.0850    0.0000 H   0  0  0  0  0  0  0  0  0  0  0  0
   12.1803   -3.8574    0.0000 H   0  0  0  0  0  0  0  0  0  0  0  0
   11.7817   -4.5477    0.0000 H   0  0  0  0  0  0  0  0  0  0  0  0
    8.5297    1.0850    0.0000 H   0  0  0  0  0  0  0  0  0  0  0  0
    9.3267    1.0850    0.0000 H   0  0  0  0  0  0  0  0  0  0  0  0
   14.3364   -3.0226    0.0000 H   0  0  0  0  0  0  0  0  0  0  0  0
   11.9248    2.5349    0.0000 H   0  0  0  0  0  0  0  0  0  0  0  0
   11.1278    2.5349    0.0000 H   0  0  0  0  0  0  0  0  0  0  0  0
   14.7349   -2.3323    0.0000 H   0  0  0  0  0  0  0  0  0  0  0  0
   22.3861    1.0850    0.0000 H   0  0  0  0  0  0  0  0  0  0  0  0
   23.1831    1.0850    0.0000 H   0  0  0  0  0  0  0  0  0  0  0  0
    8.4607    2.5349    0.0000 H   0  0  0  0  0  0  0  0  0  0  0  0
    7.6636    2.5349    0.0000 H   0  0  0  0  0  0  0  0  0  0  0  0
   12.6044   -6.0226    0.0000 H   0  0  0  0  0  0  0  0  0  0  0  0
   13.0029   -5.3323    0.0000 H   0  0  0  0  0  0  0  0  0  0  0  0
   18.8530    2.5349    0.0000 H   0  0  0  0  0  0  0  0  0  0  0  0
   18.0560    2.5349    0.0000 H   0  0  0  0  0  0  0  0  0  0  0  0
   11.9938    1.0850    0.0000 H   0  0  0  0  0  0  0  0  0  0  0  0
   12.7908    1.0850    0.0000 H   0  0  0  0  0  0  0  0  0  0  0  0
   13.9123   -0.8574    0.0000 H   0  0  0  0  0  0  0  0  0  0  0  0
   13.5138   -1.5477    0.0000 H   0  0  0  0  0  0  0  0  0  0  0  0
   16.3933    1.2500    0.0000 H   0  0  0  0  0  0  0  0  0  0  0  0
   24.0492    2.5349    0.0000 H   0  0  0  0  0  0  0  0  0  0  0  0
   23.2521    2.5349    0.0000 H   0  0  0  0  0  0  0  0  0  0  0  0
   11.3142   -5.3574    0.0000 H   0  0  0  0  0  0  0  0  0  0  0  0
    6.7976    1.0850    0.0000 H   0  0  0  0  0  0  0  0  0  0  0  0
    7.5947    1.0850    0.0000 H   0  0  0  0  0  0  0  0  0  0  0  0
   10.9157   -6.0477    0.0000 H   0  0  0  0  0  0  0  0  0  0  0  0
   16.0685   -0.0226    0.0000 H   0  0  0  0  0  0  0  0  0  0  0  0
   16.4670    0.6677    0.0000 H   0  0  0  0  0  0  0  0  0  0  0  0
   15.3889    2.5349    0.0000 H   0  0  0  0  0  0  0  0  0  0  0  0
   14.5919    2.5349    0.0000 H   0  0  0  0  0  0  0  0  0  0  0  0
   24.5167    0.9400    0.0000 H   0  0  0  0  0  0  0  0  0  0  0  0
    6.3301    2.6800    0.0000 H   0  0  0  0  0  0  0  0  0  0  0  0
   12.0632   -7.2500    0.0000 H   0  0  0  0  0  0  0  0  0  0  0  0
   25.9196    1.7500    0.0000 H   0  0  0  0  0  0  0  0  0  0  0  0
   10.6603   -8.0600    0.0000 H   0  0  0  0  0  0  0  0  0  0  0  0
    4.9272    1.8700    0.0000 H   0  0  0  0  0  0  0  0  0  0  0  0
   24.8458    3.3700    0.0000 H   0  0  0  0  0  0  0  0  0  0  0  0
    9.7942   -6.3200    0.0000 H   0  0  0  0  0  0  0  0  0  0  0  0
    6.0010    0.2500    0.0000 H   0  0  0  0  0  0  0  0  0  0  0  0
   26.7856    3.2500    0.0000 H   0  0  0  0  0  0  0  0  0  0  0  0
    8.9282   -8.0600    0.0000 H   0  0  0  0  0  0  0  0  0  0  0  0
    4.0611    0.3700    0.0000 H   0  0  0  0  0  0  0  0  0  0  0  0
   25.7118    4.8700    0.0000 H   0  0  0  0  0  0  0  0  0  0  0  0
    8.0622   -6.3200    0.0000 H   0  0  0  0  0  0  0  0  0  0  0  0
    5.1350   -1.2500    0.0000 H   0  0  0  0  0  0  0  0  0  0  0  0
   26.9027    6.6426    0.0000 H   0  0  0  0  0  0  0  0  0  0  0  0
   26.5042    5.9523    0.0000 H   0  0  0  0  0  0  0  0  0  0  0  0
    3.9441   -3.0226    0.0000 H   0  0  0  0  0  0  0  0  0  0  0  0
    4.3426   -2.3323    0.0000 H   0  0  0  0  0  0  0  0  0  0  0  0
    6.7287   -6.4650    0.0000 H   0  0  0  0  0  0  0  0  0  0  0  0
    5.9316   -6.4650    0.0000 H   0  0  0  0  0  0  0  0  0  0  0  0
   28.1928    5.9774    0.0000 H   0  0  0  0  0  0  0  0  0  0  0  0
   28.5913    6.6677    0.0000 H   0  0  0  0  0  0  0  0  0  0  0  0
   27.6517    4.7500    0.0000 H   0  0  0  0  0  0  0  0  0  0  0  0
    5.0656   -7.9150    0.0000 H   0  0  0  0  0  0  0  0  0  0  0  0
    5.8626   -7.9150    0.0000 H   0  0  0  0  0  0  0  0  0  0  0  0
    2.6540   -2.3574    0.0000 H   0  0  0  0  0  0  0  0  0  0  0  0
    2.2554   -3.0477    0.0000 H   0  0  0  0  0  0  0  0  0  0  0  0
    7.1962   -8.0600    0.0000 H   0  0  0  0  0  0  0  0  0  0  0  0
    3.1951   -1.1300    0.0000 H   0  0  0  0  0  0  0  0  0  0  0  0
   27.7687    8.1426    0.0000 H   0  0  0  0  0  0  0  0  0  0  0  0
   27.3702    7.4523    0.0000 H   0  0  0  0  0  0  0  0  0  0  0  0
    3.0781   -4.5226    0.0000 H   0  0  0  0  0  0  0  0  0  0  0  0
    4.9966   -6.4650    0.0000 H   0  0  0  0  0  0  0  0  0  0  0  0
    4.1996   -6.4650    0.0000 H   0  0  0  0  0  0  0  0  0  0  0  0
    3.4766   -3.8323    0.0000 H   0  0  0  0  0  0  0  0  0  0  0  0
   29.1568    7.5231    0.0000 H   0  0  0  0  0  0  0  0  0  0  0  0
   29.3837    8.3700    0.0000 H   0  0  0  0  0  0  0  0  0  0  0  0
   28.5368    8.5969    0.0000 H   0  0  0  0  0  0  0  0  0  0  0  0
    3.4220   -6.9031    0.0000 H   0  0  0  0  0  0  0  0  0  0  0  0
    1.6900   -3.9031    0.0000 H   0  0  0  0  0  0  0  0  0  0  0  0
    1.4631   -4.7500    0.0000 H   0  0  0  0  0  0  0  0  0  0  0  0
    2.3100   -4.9769    0.0000 H   0  0  0  0  0  0  0  0  0  0  0  0
    3.1951   -7.7500    0.0000 H   0  0  0  0  0  0  0  0  0  0  0  0
    4.0420   -7.9769    0.0000 H   0  0  0  0  0  0  0  0  0  0  0  0
  1 25  1  0  0  0  0
  1 31  1  0  0  0  0
  2 29  1  0  0  0  0
  2 33  1  0  0  0  0
  3 30  1  0  0  0  0
  3 32  1  0  0  0  0
  4 31  2  0  0  0  0
  5 33  2  0  0  0  0
  6 32  2  0  0  0  0
  7  8  1  0  0  0  0
  7  9  1  0  0  0  0
  7 64  1  0  0  0  0
  7 65  1  0  0  0  0
  8 14  1  0  0  0  0
  8 66  1  0  0  0  0
  8 67  1  0  0  0  0
  9 19  1  0  0  0  0
  9 68  1  0  0  0  0
  9 69  1  0  0  0  0
 10 13  1  0  0  0  0
 10 15  1  0  0  0  0
 10 72  1  0  0  0  0
 10 73  1  0  0  0  0
 11 12  1  0  0  0  0
 11 16  1  0  0  0  0
 11 70  1  0  0  0  0
 11 71  1  0  0  0  0
 12 17  1  0  0  0  0
 12 74  1  0  0  0  0
 12 75  1  0  0  0  0
 13 18  1  0  0  0  0
 13 76  1  0  0  0  0
 13 77  1  0  0  0  0
 14 22  1  0  0  0  0
 14 78  1  0  0  0  0
 14 79  1  0  0  0  0
 15 20  1  0  0  0  0
 15 80  1  0  0  0  0
 15 81  1  0  0  0  0
 16 21  1  0  0  0  0
 16 82  1  0  0  0  0
 16 83  1  0  0  0  0
 17 23  1  0  0  0  0
 17 85  1  0  0  0  0
 17 86  1  0  0  0  0
 18 24  1  0  0  0  0
 18 84  1  0  0  0  0
 18 87  1  0  0  0  0
 19 26  1  0  0  0  0
 19 88  1  0  0  0  0
 19 89  1  0  0  0  0
 20 27  1  0  0  0  0
 20 92  1  0  0  0  0
 20 93  1  0  0  0  0
 21 28  1  0  0  0  0
 21 90  1  0  0  0  0
 21 91  1  0  0  0  0
 22 31  1  0  0  0  0
 22 94  1  0  0  0  0
 22 95  1  0  0  0  0
 23 33  1  0  0  0  0
 23 96  1  0  0  0  0
 23 97  1  0  0  0  0
 24 32  1  0  0  0  0
 24 98  1  0  0  0  0
 24 99  1  0  0  0  0
 25 29  1  0  0  0  0
 25 30  1  0  0  0  0
 25100  1  0  0  0  0
 26 34  1  0  0  0  0
 26101  1  0  0  0  0
 26102  1  0  0  0  0
 27 35  1  0  0  0  0
 27103  1  0  0  0  0
 27106  1  0  0  0  0
 28 36  1  0  0  0  0
 28104  1  0  0  0  0
 28105  1  0  0  0  0
 29109  1  0  0  0  0
 29110  1  0  0  0  0
 30107  1  0  0  0  0
 30108  1  0  0  0  0
 34 37  2  0  0  0  0
 34111  1  0  0  0  0
 35 39  2  0  0  0  0
 35113  1  0  0  0  0
 36 38  2  0  0  0  0
 36112  1  0  0  0  0
 37 40  1  0  0  0  0
 37114  1  0  0  0  0
 38 42  1  0  0  0  0
 38116  1  0  0  0  0
 39 41  1  0  0  0  0
 39115  1  0  0  0  0
 40 43  2  0  0  0  0
 40117  1  0  0  0  0
 41 45  2  0  0  0  0
 41118  1  0  0  0  0
 42 44  2  0  0  0  0
 42119  1  0  0  0  0
 43 46  1  0  0  0  0
 43120  1  0  0  0  0
 44 48  1  0  0  0  0
 44122  1  0  0  0  0
 45 47  1  0  0  0  0
 45121  1  0  0  0  0
 46 53  2  0  0  0  0
 46123  1  0  0  0  0
 47 56  2  0  0  0  0
 47124  1  0  0  0  0
 48 57  2  0  0  0  0
 48125  1  0  0  0  0
 49 52  1  0  0  0  0
 49 53  1  0  0  0  0
 49126  1  0  0  0  0
 49127  1  0  0  0  0
 50 55  1  0  0  0  0
 50 56  1  0  0  0  0
 50130  1  0  0  0  0
 50131  1  0  0  0  0
 51 54  1  0  0  0  0
 51 57  1  0  0  0  0
 51128  1  0  0  0  0
 51129  1  0  0  0  0
 52 58  1  0  0  0  0
 52132  1  0  0  0  0
 52133  1  0  0  0  0
 53134  1  0  0  0  0
 54 60  1  0  0  0  0
 54137  1  0  0  0  0
 54138  1  0  0  0  0
 55 59  1  0  0  0  0
 55135  1  0  0  0  0
 55136  1  0  0  0  0
 56139  1  0  0  0  0
 57140  1  0  0  0  0
 58 61  1  0  0  0  0
 58141  1  0  0  0  0
 58142  1  0  0  0  0
 59 63  1  0  0  0  0
 59144  1  0  0  0  0
 59145  1  0  0  0  0
 60 62  1  0  0  0  0
 60143  1  0  0  0  0
 60146  1  0  0  0  0
 61147  1  0  0  0  0
 61148  1  0  0  0  0
 61149  1  0  0  0  0
 62151  1  0  0  0  0
 62152  1  0  0  0  0
 62153  1  0  0  0  0
 63150  1  0  0  0  0
 63154  1  0  0  0  0
 63155  1  0  0  0  0
M  END
>  <PUBCHEM_COMPOUND_CID>
122376203

>  <PUBCHEM_COMPOUND_CANONICALIZED>
1

>  <PUBCHEM_CACTVS_COMPLEXITY>
1260

>  <PUBCHEM_CACTVS_HBOND_ACCEPTOR>
6

>  <PUBCHEM_CACTVS_HBOND_DONOR>
0

>  <PUBCHEM_CACTVS_ROTATABLE_BOND>
47

>  <PUBCHEM_CACTVS_SUBSKEYS>
AAADcfB8OAAAAAAAAAAAAAAAAAAAAAAAAAAAAAAAAAAAAAAAAAAAGgAAAAAACBSggAICCAAABACIACDSCAAAAAAgAAAICAEAAAgJABIAAQACAAAFgAAKgAOIyKCAAAAAAAAAAAAAAAAAAAAAAAAAAAAAAA==

>  <PUBCHEM_IUPAC_OPENEYE_NAME>
2,3-bis[[(9Z,11E,13E)-octadeca-9,11,13-trienoyl]oxy]propyl (9Z,11E,13E)-octadeca-9,11,13-trienoate

>  <PUBCHEM_IUPAC_CAS_NAME>
(9Z,11E,13E)-octadeca-9,11,13-trienoic acid 2,3-bis[(9Z,11E,13E)-1-oxooctadeca-9,11,13-trienoxy]propyl ester

>  <PUBCHEM_IUPAC_NAME>
2,3-bis[[(9Z,11E,13E)-octadeca-9,11,13-trienoyl]oxy]propyl (9Z,11E,13E)-octadeca-9,11,13-trienoate

>  <PUBCHEM_IUPAC_SYSTEMATIC_NAME>
2,3-bis[[(9Z,11E,13E)-octadeca-9,11,13-trienoyl]oxy]propyl (9Z,11E,13E)-octadeca-9,11,13-trienoate

>  <PUBCHEM_IUPAC_TRADITIONAL_NAME>
(9Z,11E,13E)-octadeca-9,11,13-trienoic acid 2,3-bis[[(9Z,11E,13E)-octadeca-9,11,13-trienoyl]oxy]propyl ester

>  <PUBCHEM_IUPAC_INCHI>
InChI=1S/C57H92O6/c1-4-7-10-13-16-19-22-25-28-31-34-37-40-43-46-49-55(58)61-52-54(63-57(60)51-48-45-42-39-36-33-30-27-24-21-18-15-12-9-6-3)53-62-56(59)50-47-44-41-38-35-32-29-26-23-20-17-14-11-8-5-2/h13-30,54H,4-12,31-53H2,1-3H3/b16-13+,17-14+,18-15+,22-19+,23-20+,24-21+,28-25-,29-26-,30-27-

>  <PUBCHEM_IUPAC_INCHIKEY>
SBOBXVGDOAOGKL-YRDUZZGMSA-N

>  <PUBCHEM_XLOGP3_AA>
19.8

>  <PUBCHEM_EXACT_MASS>
872.689

>  <PUBCHEM_MOLECULAR_FORMULA>
C57H92O6

>  <PUBCHEM_MOLECULAR_WEIGHT>
873.357

>  <PUBCHEM_OPENEYE_CAN_SMILES>
CCCCC=CC=CC=CCCCCCCCC(=O)OCC(COC(=O)CCCCCCCC=CC=CC=CCCCC)OC(=O)CCCCCCCC=CC=CC=CCCCC

>  <PUBCHEM_OPENEYE_ISO_SMILES>
CCCC/C=C/C=C/C=C\CCCCCCCC(=O)OCC(OC(=O)CCCCCCC/C=C\C=C\C=C\CCCC)COC(=O)CCCCCCC/C=C\C=C\C=C\CCCC

>  <PUBCHEM_CACTVS_TPSA>
78.9

>  <PUBCHEM_MONOISOTOPIC_WEIGHT>
872.689

>  <PUBCHEM_TOTAL_CHARGE>
0

>  <PUBCHEM_HEAVY_ATOM_COUNT>
63

>  <PUBCHEM_ATOM_DEF_STEREO_COUNT>
0

>  <PUBCHEM_ATOM_UDEF_STEREO_COUNT>
0

>  <PUBCHEM_BOND_DEF_STEREO_COUNT>
9

>  <PUBCHEM_BOND_UDEF_STEREO_COUNT>
0

>  <PUBCHEM_ISOTOPIC_ATOM_COUNT>
0

>  <PUBCHEM_COMPONENT_COUNT>
1

>  <PUBCHEM_CACTVS_TAUTO_COUNT>
936

>  <PUBCHEM_COORDINATE_TYPE>
1
5
255

$$$$
