12309961
 OpenBabel06101807152D

 40 42  0  0  1  0  0  0  0  0999 V2000
    6.0682    1.3623    0.0000 O   0  0  0  0  0  0  0  0  0  0  0  0
    2.5381    0.3865    0.0000 O   0  0  0  0  0  0  0  0  0  0  0  0
    7.8805   -1.4424    0.0000 O   0  0  0  0  0  0  0  0  0  0  0  0
    5.2022   -0.1377    0.0000 C   0  0  3  0  0  0  0  0  0  0  0  0
    5.2022   -1.1377    0.0000 C   0  0  3  0  0  0  0  0  0  0  0  0
    4.3083    0.3970    0.0000 C   0  0  3  0  0  0  0  0  0  0  0  0
    6.0682    0.3623    0.0000 C   0  0  3  0  0  0  0  0  0  0  0  0
    4.3083   -1.6723    0.0000 C   0  0  0  0  0  0  0  0  0  0  0  0
    3.4022   -0.1169    0.0000 C   0  0  3  0  0  0  0  0  0  0  0  0
    6.0682   -1.6377    0.0000 C   0  0  0  0  0  0  0  0  0  0  0  0
    3.4022   -1.1585    0.0000 C   0  0  0  0  0  0  0  0  0  0  0  0
    5.2022    0.8623    0.0000 C   0  0  0  0  0  0  0  0  0  0  0  0
    6.9343   -0.1377    0.0000 C   0  0  0  0  0  0  0  0  0  0  0  0
    6.9343   -1.1377    0.0000 C   0  0  0  0  0  0  0  0  0  0  0  0
    4.3198    1.3969    0.0000 C   0  0  0  0  0  0  0  0  0  0  0  0
    7.8805    0.1671    0.0000 C   0  0  0  0  0  0  0  0  0  0  0  0
    8.4641   -0.6377    0.0000 C   0  0  0  0  0  0  0  0  0  0  0  0
    8.1912    1.1176    0.0000 C   0  0  0  0  0  0  0  0  0  0  0  0
    5.2070   -1.7576    0.0000 H   0  0  0  0  0  0  0  0  0  0  0  0
    3.7744    0.7122    0.0000 H   0  0  0  0  0  0  0  0  0  0  0  0
    6.6052    0.6723    0.0000 H   0  0  0  0  0  0  0  0  0  0  0  0
    3.9147   -2.1514    0.0000 H   0  0  0  0  0  0  0  0  0  0  0  0
    4.7129   -2.1421    0.0000 H   0  0  0  0  0  0  0  0  0  0  0  0
    2.8647   -0.4258    0.0000 H   0  0  0  0  0  0  0  0  0  0  0  0
    5.6697   -2.1126    0.0000 H   0  0  0  0  0  0  0  0  0  0  0  0
    6.4668   -2.1126    0.0000 H   0  0  0  0  0  0  0  0  0  0  0  0
    2.7914   -1.0524    0.0000 H   0  0  0  0  0  0  0  0  0  0  0  0
    3.1932   -1.7422    0.0000 H   0  0  0  0  0  0  0  0  0  0  0  0
    5.8222    0.8623    0.0000 H   0  0  0  0  0  0  0  0  0  0  0  0
    5.2022    1.4823    0.0000 H   0  0  0  0  0  0  0  0  0  0  0  0
    4.5822    0.8623    0.0000 H   0  0  0  0  0  0  0  0  0  0  0  0
    4.9398    1.3898    0.0000 H   0  0  0  0  0  0  0  0  0  0  0  0
    4.3270    2.0169    0.0000 H   0  0  0  0  0  0  0  0  0  0  0  0
    3.6999    1.4041    0.0000 H   0  0  0  0  0  0  0  0  0  0  0  0
    6.6052    1.6723    0.0000 H   0  0  0  0  0  0  0  0  0  0  0  0
    2.0000    0.0786    0.0000 H   0  0  0  0  0  0  0  0  0  0  0  0
    9.0841   -0.6377    0.0000 H   0  0  0  0  0  0  0  0  0  0  0  0
    8.7805    0.9250    0.0000 H   0  0  0  0  0  0  0  0  0  0  0  0
    8.3838    1.7069    0.0000 H   0  0  0  0  0  0  0  0  0  0  0  0
    7.6018    1.3102    0.0000 H   0  0  0  0  0  0  0  0  0  0  0  0
  1  7  1  0  0  0  0
  1 35  1  0  0  0  0
  2  9  1  0  0  0  0
  2 36  1  0  0  0  0
  3 14  1  0  0  0  0
  3 17  1  0  0  0  0
  4  5  1  0  0  0  0
  4  6  1  0  0  0  0
  4  7  1  0  0  0  0
  4 12  1  0  0  0  0
  5  8  1  0  0  0  0
  5 10  1  0  0  0  0
  5 19  1  0  0  0  0
  6  9  1  0  0  0  0
  6 15  1  0  0  0  0
  6 20  1  0  0  0  0
  7 13  1  0  0  0  0
  7 21  1  0  0  0  0
  8 11  1  0  0  0  0
  8 22  1  0  0  0  0
  8 23  1  0  0  0  0
  9 11  1  0  0  0  0
  9 24  1  0  0  0  0
 10 14  1  0  0  0  0
 10 25  1  0  0  0  0
 10 26  1  0  0  0  0
 11 27  1  0  0  0  0
 11 28  1  0  0  0  0
 12 29  1  0  0  0  0
 12 30  1  0  0  0  0
 12 31  1  0  0  0  0
 13 14  2  0  0  0  0
 13 16  1  0  0  0  0
 15 32  1  0  0  0  0
 15 33  1  0  0  0  0
 15 34  1  0  0  0  0
 16 17  2  0  0  0  0
 16 18  1  0  0  0  0
 17 37  1  0  0  0  0
 18 38  1  0  0  0  0
 18 39  1  0  0  0  0
 18 40  1  0  0  0  0
M  END
>  <PUBCHEM_COMPOUND_CID>
12309961

>  <PUBCHEM_COMPOUND_CANONICALIZED>
1

>  <PUBCHEM_CACTVS_COMPLEXITY>
332

>  <PUBCHEM_CACTVS_HBOND_ACCEPTOR>
3

>  <PUBCHEM_CACTVS_HBOND_DONOR>
2

>  <PUBCHEM_CACTVS_ROTATABLE_BOND>
0

>  <PUBCHEM_CACTVS_SUBSKEYS>
AAADceBwMAAAAAAAAAAAAAAAAAAAASAAAAAwYAAAAAAAAEjBgAAAGgAACAAADxSgmAIiBIAABkCIAohSgAACCAAkIAAAiAEECMgMNzaENRqCWSCl4BEIuQfK7PzPgAAAAAAAAADAAAYQADAAAAAAAAAAAA==

>  <PUBCHEM_IUPAC_OPENEYE_NAME>
3,4a,5-trimethyl-5,6,7,8,8a,9-hexahydro-4H-benzo[f]benzofuran-4,6-diol

>  <PUBCHEM_IUPAC_CAS_NAME>
3,4a,5-trimethyl-5,6,7,8,8a,9-hexahydro-4H-benzo[f]benzofuran-4,6-diol

>  <PUBCHEM_IUPAC_NAME>
3,4a,5-trimethyl-5,6,7,8,8a,9-hexahydro-4H-benzo[f][1]benzofuran-4,6-diol

>  <PUBCHEM_IUPAC_SYSTEMATIC_NAME>
3,4a,5-trimethyl-5,6,7,8,8a,9-hexahydro-4H-benzo[f][1]benzofuran-4,6-diol

>  <PUBCHEM_IUPAC_TRADITIONAL_NAME>
3,4a,5-trimethyl-5,6,7,8,8a,9-hexahydro-4H-benzo[f]benzofuran-4,6-diol

>  <PUBCHEM_IUPAC_INCHI>
InChI=1S/C15H22O3/c1-8-7-18-12-6-10-4-5-11(16)9(2)15(10,3)14(17)13(8)12/h7,9-11,14,16-17H,4-6H2,1-3H3

>  <PUBCHEM_IUPAC_INCHIKEY>
JWKRZHJQYDUUNQ-UHFFFAOYSA-N

>  <PUBCHEM_XLOGP3_AA>
2.1

>  <PUBCHEM_EXACT_MASS>
250.157

>  <PUBCHEM_MOLECULAR_FORMULA>
C15H22O3

>  <PUBCHEM_MOLECULAR_WEIGHT>
250.338

>  <PUBCHEM_OPENEYE_CAN_SMILES>
CC1C(CCC2C1(C(C3=C(C2)OC=C3C)O)C)O

>  <PUBCHEM_OPENEYE_ISO_SMILES>
CC1C(CCC2C1(C(C3=C(C2)OC=C3C)O)C)O

>  <PUBCHEM_CACTVS_TPSA>
53.6

>  <PUBCHEM_MONOISOTOPIC_WEIGHT>
250.157

>  <PUBCHEM_TOTAL_CHARGE>
0

>  <PUBCHEM_HEAVY_ATOM_COUNT>
18

>  <PUBCHEM_ATOM_DEF_STEREO_COUNT>
0

>  <PUBCHEM_ATOM_UDEF_STEREO_COUNT>
5

>  <PUBCHEM_BOND_DEF_STEREO_COUNT>
0

>  <PUBCHEM_BOND_UDEF_STEREO_COUNT>
0

>  <PUBCHEM_ISOTOPIC_ATOM_COUNT>
0

>  <PUBCHEM_COMPONENT_COUNT>
1

>  <PUBCHEM_CACTVS_TAUTO_COUNT>
1

>  <PUBCHEM_COORDINATE_TYPE>
1
5
255

>  <PUBCHEM_BONDANNOTATIONS>
7  1  3
13  14  8
13  16  8
16  17  8
9  2  3
3  14  8
3  17  8
4  12  3
5  8  3
6  15  3

$$$$
