12305148
 OpenBabel06101807152D

 71 76  0  0  1  0  0  0  0  0999 V2000
    6.5753    2.5190    0.0000 O   0  0  0  0  0  0  0  0  0  0  0  0
   10.8992    3.4122    0.0000 O   0  0  0  0  0  0  0  0  0  0  0  0
    6.8671   -1.2719    0.0000 O   0  0  0  0  0  0  0  0  0  0  0  0
    5.1847   -0.3003    0.0000 O   0  0  0  0  0  0  0  0  0  0  0  0
    4.4300    1.2650    0.0000 O   0  0  0  0  0  0  0  0  0  0  0  0
    6.5180    4.1516    0.0000 O   0  0  0  0  0  0  0  0  0  0  0  0
    5.3606    2.8630    0.0000 O   0  0  0  0  0  0  0  0  0  0  0  0
    5.1350   -1.2719    0.0000 O   0  0  0  0  0  0  0  0  0  0  0  0
    6.8671   -3.2719    0.0000 O   0  0  0  0  0  0  0  0  0  0  0  0
    5.1350   -4.2719    0.0000 O   0  0  0  0  0  0  0  0  0  0  0  0
    3.4030   -3.2719    0.0000 O   0  0  0  0  0  0  0  0  0  0  0  0
    2.5369   -1.7719    0.0000 O   0  0  0  0  0  0  0  0  0  0  0  0
    7.9619    2.6039    0.0000 C   0  0  3  0  0  0  0  0  0  0  0  0
    7.6571    1.1561    0.0000 C   0  0  3  0  0  0  0  0  0  0  0  0
    8.3362    1.7653    0.0000 C   0  0  3  0  0  0  0  0  0  0  0  0
    6.8667    1.6125    0.0000 C   0  0  3  0  0  0  0  0  0  0  0  0
    7.0552    2.5049    0.0000 C   0  0  3  0  0  0  0  0  0  0  0  0
    6.0506    1.1414    0.0000 C   0  0  3  0  0  0  0  0  0  0  0  0
    9.0392    2.4745    0.0000 C   0  0  0  0  0  0  0  0  0  0  0  0
    8.3846    3.4197    0.0000 C   0  0  0  0  0  0  0  0  0  0  0  0
    9.9860    3.0047    0.0000 C   0  0  3  0  0  0  0  0  0  0  0  0
    9.2254    1.5357    0.0000 C   0  0  0  0  0  0  0  0  0  0  0  0
    7.6822    0.1987    0.0000 C   0  0  0  0  0  0  0  0  0  0  0  0
    6.0508    0.1995    0.0000 C   0  0  3  0  0  0  0  0  0  0  0  0
    9.9592    2.0870    0.0000 C   0  0  0  0  0  0  0  0  0  0  0  0
    6.8671   -0.2719    0.0000 C   0  0  3  0  0  0  0  0  0  0  0  0
    9.2847    3.5978    0.0000 C   0  0  0  0  0  0  0  0  0  0  0  0
    5.4165    1.4288    0.0000 C   0  0  0  0  0  0  0  0  0  0  0  0
    6.3112    3.1732    0.0000 C   0  0  0  0  0  0  0  0  0  0  0  0
    5.2101    0.5995    0.0000 C   0  0  0  0  0  0  0  0  0  0  0  0
    9.4622    4.5819    0.0000 C   0  0  0  0  0  0  0  0  0  0  0  0
    6.0010   -1.7719    0.0000 C   0  0  3  0  0  0  0  0  0  0  0  0
    6.0010   -2.7719    0.0000 C   0  0  3  0  0  0  0  0  0  0  0  0
    5.1350   -3.2719    0.0000 C   0  0  3  0  0  0  0  0  0  0  0  0
    4.2690   -1.7719    0.0000 C   0  0  3  0  0  0  0  0  0  0  0  0
    4.2690   -2.7719    0.0000 C   0  0  3  0  0  0  0  0  0  0  0  0
    3.4030   -1.2719    0.0000 C   0  0  0  0  0  0  0  0  0  0  0  0
    8.4831    1.1630    0.0000 H   0  0  0  0  0  0  0  0  0  0  0  0
    6.3649    1.9766    0.0000 H   0  0  0  0  0  0  0  0  0  0  0  0
    7.2452    3.0951    0.0000 H   0  0  0  0  0  0  0  0  0  0  0  0
    8.7790    1.9117    0.0000 H   0  0  0  0  0  0  0  0  0  0  0  0
    9.4943    2.0534    0.0000 H   0  0  0  0  0  0  0  0  0  0  0  0
    8.4026    4.0395    0.0000 H   0  0  0  0  0  0  0  0  0  0  0  0
    7.7844    3.5753    0.0000 H   0  0  0  0  0  0  0  0  0  0  0  0
    8.9405    0.9850    0.0000 H   0  0  0  0  0  0  0  0  0  0  0  0
    9.6988    1.1354    0.0000 H   0  0  0  0  0  0  0  0  0  0  0  0
    7.8993   -0.3821    0.0000 H   0  0  0  0  0  0  0  0  0  0  0  0
    8.2908    0.3170    0.0000 H   0  0  0  0  0  0  0  0  0  0  0  0
    6.0507   -0.4205    0.0000 H   0  0  0  0  0  0  0  0  0  0  0  0
   10.2119    1.5209    0.0000 H   0  0  0  0  0  0  0  0  0  0  0  0
   10.5674    2.2074    0.0000 H   0  0  0  0  0  0  0  0  0  0  0  0
    7.4040   -0.5819    0.0000 H   0  0  0  0  0  0  0  0  0  0  0  0
    4.8741    1.1205    0.0000 H   0  0  0  0  0  0  0  0  0  0  0  0
    4.6890    0.2635    0.0000 H   0  0  0  0  0  0  0  0  0  0  0  0
    5.5461    0.0784    0.0000 H   0  0  0  0  0  0  0  0  0  0  0  0
   11.4011    3.0483    0.0000 H   0  0  0  0  0  0  0  0  0  0  0  0
   10.0456    4.7917    0.0000 H   0  0  0  0  0  0  0  0  0  0  0  0
    8.9888    4.9823    0.0000 H   0  0  0  0  0  0  0  0  0  0  0  0
    4.6478    0.0098    0.0000 H   0  0  0  0  0  0  0  0  0  0  0  0
    6.0567    4.5658    0.0000 H   0  0  0  0  0  0  0  0  0  0  0  0
    6.0010   -1.1519    0.0000 H   0  0  0  0  0  0  0  0  0  0  0  0
    6.0010   -3.3919    0.0000 H   0  0  0  0  0  0  0  0  0  0  0  0
    4.5981   -3.5819    0.0000 H   0  0  0  0  0  0  0  0  0  0  0  0
    4.2690   -1.1519    0.0000 H   0  0  0  0  0  0  0  0  0  0  0  0
    3.7320   -2.4619    0.0000 H   0  0  0  0  0  0  0  0  0  0  0  0
    6.8671   -3.8919    0.0000 H   0  0  0  0  0  0  0  0  0  0  0  0
    3.8015   -0.7970    0.0000 H   0  0  0  0  0  0  0  0  0  0  0  0
    3.0044   -0.7970    0.0000 H   0  0  0  0  0  0  0  0  0  0  0  0
    4.5981   -4.5819    0.0000 H   0  0  0  0  0  0  0  0  0  0  0  0
    3.4030   -3.8919    0.0000 H   0  0  0  0  0  0  0  0  0  0  0  0
    2.0000   -1.4619    0.0000 H   0  0  0  0  0  0  0  0  0  0  0  0
  1 14  1  0  0  0  0
  1 28  1  0  0  0  0
  2 21  1  0  0  0  0
  2 56  1  0  0  0  0
  3 26  1  0  0  0  0
  3 32  1  0  0  0  0
  4 24  1  0  0  0  0
  4 59  1  0  0  0  0
  5 28  2  0  0  0  0
  6 29  1  0  0  0  0
  6 60  1  0  0  0  0
  7 29  2  0  0  0  0
  8 32  1  0  0  0  0
  8 35  1  0  0  0  0
  9 33  1  0  0  0  0
  9 66  1  0  0  0  0
 10 34  1  0  0  0  0
 10 69  1  0  0  0  0
 11 36  1  0  0  0  0
 11 70  1  0  0  0  0
 12 37  1  0  0  0  0
 12 71  1  0  0  0  0
 13 15  1  0  0  0  0
 13 17  1  0  0  0  0
 13 19  1  0  0  0  0
 13 20  1  0  0  0  0
 14 15  1  0  0  0  0
 14 16  1  0  0  0  0
 14 23  1  0  0  0  0
 15 22  1  0  0  0  0
 15 38  1  0  0  0  0
 16 17  1  0  0  0  0
 16 18  1  0  0  0  0
 16 39  1  0  0  0  0
 17 29  1  0  0  0  0
 17 40  1  0  0  0  0
 18 24  1  0  0  0  0
 18 28  1  0  0  0  0
 18 30  1  0  0  0  0
 19 21  1  0  0  0  0
 19 41  1  0  0  0  0
 19 42  1  0  0  0  0
 20 27  1  0  0  0  0
 20 43  1  0  0  0  0
 20 44  1  0  0  0  0
 21 25  1  0  0  0  0
 21 27  1  0  0  0  0
 22 25  1  0  0  0  0
 22 45  1  0  0  0  0
 22 46  1  0  0  0  0
 23 26  1  0  0  0  0
 23 47  1  0  0  0  0
 23 48  1  0  0  0  0
 24 26  1  0  0  0  0
 24 49  1  0  0  0  0
 25 50  1  0  0  0  0
 25 51  1  0  0  0  0
 26 52  1  0  0  0  0
 27 31  2  0  0  0  0
 30 53  1  0  0  0  0
 30 54  1  0  0  0  0
 30 55  1  0  0  0  0
 31 57  1  0  0  0  0
 31 58  1  0  0  0  0
 32 33  1  0  0  0  0
 32 61  1  0  0  0  0
 33 34  1  0  0  0  0
 33 62  1  0  0  0  0
 34 36  1  0  0  0  0
 34 63  1  0  0  0  0
 35 36  1  0  0  0  0
 35 37  1  0  0  0  0
 35 64  1  0  0  0  0
 36 65  1  0  0  0  0
 37 67  1  0  0  0  0
 37 68  1  0  0  0  0
M  END
>  <PUBCHEM_COMPOUND_CID>
12305148

>  <PUBCHEM_COMPOUND_CANONICALIZED>
1

>  <PUBCHEM_CACTVS_COMPLEXITY>
1050

>  <PUBCHEM_CACTVS_HBOND_ACCEPTOR>
12

>  <PUBCHEM_CACTVS_HBOND_DONOR>
7

>  <PUBCHEM_CACTVS_ROTATABLE_BOND>
4

>  <PUBCHEM_CACTVS_SUBSKEYS>
AAADcfB4PAAAAAAAAAAAAAAAAAAAAaMEAAA0YIAABogSAGDAAAAAGgAACAAAD1SwgAMCCAAABgCIAgDSCAAAAAAgAAAAAAEAAAgRFBYAAQAiQAAFoAAHEAHK7vzPgAAAAAAAAADCAAYQADCAAYAADAAAAA==

>  <PUBCHEM_IUPAC_INCHI>
InChI=1S/C25H34O12/c1-9-5-23-8-24(9,34)4-3-12(23)25-6-10(35-20-16(29)15(28)14(27)11(7-26)36-20)18(30)22(2,21(33)37-25)17(25)13(23)19(31)32/h10-18,20,26-30,34H,1,3-8H2,2H3,(H,31,32)

>  <PUBCHEM_IUPAC_INCHIKEY>
RWSSUUKUVKNZLZ-UHFFFAOYSA-N

>  <PUBCHEM_XLOGP3_AA>
-2.3

>  <PUBCHEM_EXACT_MASS>
526.205

>  <PUBCHEM_MOLECULAR_FORMULA>
C25H34O12

>  <PUBCHEM_MOLECULAR_WEIGHT>
526.535

>  <PUBCHEM_OPENEYE_CAN_SMILES>
CC12C3C(C45CC(=C)C(C4)(CCC5C3(CC(C1O)OC6C(C(C(C(O6)CO)O)O)O)OC2=O)O)C(=O)O

>  <PUBCHEM_OPENEYE_ISO_SMILES>
CC12C3C(C45CC(=C)C(C4)(CCC5C3(CC(C1O)OC6C(C(C(C(O6)CO)O)O)O)OC2=O)O)C(=O)O

>  <PUBCHEM_CACTVS_TPSA>
203

>  <PUBCHEM_MONOISOTOPIC_WEIGHT>
526.205

>  <PUBCHEM_TOTAL_CHARGE>
0

>  <PUBCHEM_HEAVY_ATOM_COUNT>
37

>  <PUBCHEM_ATOM_DEF_STEREO_COUNT>
0

>  <PUBCHEM_ATOM_UDEF_STEREO_COUNT>
14

>  <PUBCHEM_BOND_DEF_STEREO_COUNT>
0

>  <PUBCHEM_BOND_UDEF_STEREO_COUNT>
0

>  <PUBCHEM_ISOTOPIC_ATOM_COUNT>
0

>  <PUBCHEM_COMPONENT_COUNT>
1

>  <PUBCHEM_CACTVS_TAUTO_COUNT>
1

>  <PUBCHEM_COORDINATE_TYPE>
1
5
255

>  <PUBCHEM_BONDANNOTATIONS>
34  10  3
36  11  3
13  19  3
14  23  3
15  22  3
16  17  3
17  29  3
18  30  3
21  2  3
26  3  3
32  3  3
35  37  3
24  4  3
33  9  3

$$$$
