12304031
 OpenBabel06101807152D

 44 47  0  0  0  0  0  0  0  0999 V2000
    5.5103    1.5072    0.0000 O   0  0  0  0  0  0  0  0  0  0  0  0
    7.2762    2.5450    0.0000 O   0  0  0  0  0  0  0  0  0  0  0  0
    6.3981   -3.0242    0.0000 O   0  0  0  0  0  0  0  0  0  0  0  0
    2.8680   -0.0001    0.0000 O   0  0  0  0  0  0  0  0  0  0  0  0
    2.8680   -2.0484    0.0000 O   0  0  0  0  0  0  0  0  0  0  0  0
    8.1223   -2.0212    0.0000 N   0  3  0  0  0  0  0  0  0  0  0  0
    7.2641   -0.5242    0.0000 C   0  0  0  0  0  0  0  0  0  0  0  0
    6.3981   -0.0242    0.0000 C   0  0  0  0  0  0  0  0  0  0  0  0
    7.2641   -1.5242    0.0000 C   0  0  0  0  0  0  0  0  0  0  0  0
    5.5320   -0.5242    0.0000 C   0  0  0  0  0  0  0  0  0  0  0  0
    8.1741   -0.0174    0.0000 C   0  0  0  0  0  0  0  0  0  0  0  0
    5.5320   -1.5242    0.0000 C   0  0  0  0  0  0  0  0  0  0  0  0
    6.3981   -2.0242    0.0000 C   0  0  0  0  0  0  0  0  0  0  0  0
    6.3820    1.0173    0.0000 C   0  0  0  0  0  0  0  0  0  0  0  0
    8.1821    1.0242    0.0000 C   0  0  0  0  0  0  0  0  0  0  0  0
    9.0134   -0.5456    0.0000 C   0  0  0  0  0  0  0  0  0  0  0  0
    4.6381    0.0104    0.0000 C   0  0  0  0  0  0  0  0  0  0  0  0
    7.2800    1.5450    0.0000 C   0  0  0  0  0  0  0  0  0  0  0  0
    8.9878   -1.5370    0.0000 C   0  0  0  0  0  0  0  0  0  0  0  0
    4.6381   -2.0589    0.0000 C   0  0  0  0  0  0  0  0  0  0  0  0
    3.7320   -0.5034    0.0000 C   0  0  0  0  0  0  0  0  0  0  0  0
    3.7320   -1.5450    0.0000 C   0  0  0  0  0  0  0  0  0  0  0  0
    8.1149   -3.0211    0.0000 C   0  0  0  0  0  0  0  0  0  0  0  0
    8.1403    3.0484    0.0000 C   0  0  0  0  0  0  0  0  0  0  0  0
    2.0000   -0.4967    0.0000 C   0  0  0  0  0  0  0  0  0  0  0  0
    2.8718   -3.0484    0.0000 C   0  0  0  0  0  0  0  0  0  0  0  0
    8.7203    1.3322    0.0000 H   0  0  0  0  0  0  0  0  0  0  0  0
    9.5600   -0.2529    0.0000 H   0  0  0  0  0  0  0  0  0  0  0  0
    4.6453    0.6304    0.0000 H   0  0  0  0  0  0  0  0  0  0  0  0
    9.5185   -1.8575    0.0000 H   0  0  0  0  0  0  0  0  0  0  0  0
    4.6453   -2.6788    0.0000 H   0  0  0  0  0  0  0  0  0  0  0  0
    7.4949   -3.0165    0.0000 H   0  0  0  0  0  0  0  0  0  0  0  0
    8.1103   -3.6411    0.0000 H   0  0  0  0  0  0  0  0  0  0  0  0
    8.7349   -3.0257    0.0000 H   0  0  0  0  0  0  0  0  0  0  0  0
    5.5031    2.1272    0.0000 H   0  0  0  0  0  0  0  0  0  0  0  0
    8.4523    2.5126    0.0000 H   0  0  0  0  0  0  0  0  0  0  0  0
    8.6760    3.3604    0.0000 H   0  0  0  0  0  0  0  0  0  0  0  0
    7.8282    3.5841    0.0000 H   0  0  0  0  0  0  0  0  0  0  0  0
    1.6921    0.0414    0.0000 H   0  0  0  0  0  0  0  0  0  0  0  0
    1.4619   -0.8047    0.0000 H   0  0  0  0  0  0  0  0  0  0  0  0
    2.3079   -1.0349    0.0000 H   0  0  0  0  0  0  0  0  0  0  0  0
    2.2518   -3.0508    0.0000 H   0  0  0  0  0  0  0  0  0  0  0  0
    2.8742   -3.6684    0.0000 H   0  0  0  0  0  0  0  0  0  0  0  0
    3.4918   -3.0460    0.0000 H   0  0  0  0  0  0  0  0  0  0  0  0
  1 14  1  0  0  0  0
  1 35  1  0  0  0  0
  2 18  1  0  0  0  0
  2 24  1  0  0  0  0
  3 13  2  0  0  0  0
  4 21  1  0  0  0  0
  4 25  1  0  0  0  0
  5 22  1  0  0  0  0
  5 26  1  0  0  0  0
  6  9  2  0  0  0  0
  6 19  1  0  0  0  0
  6 23  1  0  0  0  0
  7  8  2  0  0  0  0
  7  9  1  0  0  0  0
  7 11  1  0  0  0  0
  8 10  1  0  0  0  0
  8 14  1  0  0  0  0
  9 13  1  0  0  0  0
 10 12  1  0  0  0  0
 10 17  2  0  0  0  0
 11 15  2  0  0  0  0
 11 16  1  0  0  0  0
 12 13  1  0  0  0  0
 12 20  2  0  0  0  0
 14 18  2  0  0  0  0
 15 18  1  0  0  0  0
 15 27  1  0  0  0  0
 16 19  2  0  0  0  0
 16 28  1  0  0  0  0
 17 21  1  0  0  0  0
 17 29  1  0  0  0  0
 19 30  1  0  0  0  0
 20 22  1  0  0  0  0
 20 31  1  0  0  0  0
 21 22  2  0  0  0  0
 23 32  1  0  0  0  0
 23 33  1  0  0  0  0
 23 34  1  0  0  0  0
 24 36  1  0  0  0  0
 24 37  1  0  0  0  0
 24 38  1  0  0  0  0
 25 39  1  0  0  0  0
 25 40  1  0  0  0  0
 25 41  1  0  0  0  0
 26 42  1  0  0  0  0
 26 43  1  0  0  0  0
 26 44  1  0  0  0  0
M  CHG  1   6   1
M  END
>  <PUBCHEM_COMPOUND_CID>
12304031

>  <PUBCHEM_COMPOUND_CANONICALIZED>
1

>  <PUBCHEM_CACTVS_COMPLEXITY>
542

>  <PUBCHEM_CACTVS_HBOND_ACCEPTOR>
5

>  <PUBCHEM_CACTVS_HBOND_DONOR>
1

>  <PUBCHEM_CACTVS_ROTATABLE_BOND>
3

>  <PUBCHEM_CACTVS_SUBSKEYS>
AAADceB6OAAAAAAAAAAAAAAAAAAAAAAAAAA8YMEAAAAAAADx9AAAHgAACAAADAzBngY+htMMFgCoA7R3RACCiCA3IiAI2CG+7NgNJnLGtbuEcStkwBHL+Ye6/P/OoAADAAAYQADQAAaAADSAAAAAAAAAAA==

>  <PUBCHEM_IUPAC_INCHI>
InChI=1S/C20H17NO5/c1-21-6-5-10-7-15(26-4)20(23)17-11-8-13(24-2)14(25-3)9-12(11)19(22)18(21)16(10)17/h5-9H,1-4H3/p+1

>  <PUBCHEM_IUPAC_INCHIKEY>
PEPNCYBDUUMGBN-UHFFFAOYSA-O

>  <PUBCHEM_XLOGP3_AA>
3.3

>  <PUBCHEM_EXACT_MASS>
352.118

>  <PUBCHEM_MOLECULAR_FORMULA>
C20H18NO5+

>  <PUBCHEM_MOLECULAR_WEIGHT>
352.366

>  <PUBCHEM_OPENEYE_CAN_SMILES>
C[N+]1=C2C3=C(C4=CC(=C(C=C4C2=O)OC)OC)C(=C(C=C3C=C1)OC)O

>  <PUBCHEM_OPENEYE_ISO_SMILES>
C[N+]1=C2C3=C(C4=CC(=C(C=C4C2=O)OC)OC)C(=C(C=C3C=C1)OC)O

>  <PUBCHEM_CACTVS_TPSA>
68.9

>  <PUBCHEM_MONOISOTOPIC_WEIGHT>
352.118

>  <PUBCHEM_TOTAL_CHARGE>
1

>  <PUBCHEM_HEAVY_ATOM_COUNT>
26

>  <PUBCHEM_ATOM_DEF_STEREO_COUNT>
0

>  <PUBCHEM_ATOM_UDEF_STEREO_COUNT>
0

>  <PUBCHEM_BOND_DEF_STEREO_COUNT>
0

>  <PUBCHEM_BOND_UDEF_STEREO_COUNT>
0

>  <PUBCHEM_ISOTOPIC_ATOM_COUNT>
0

>  <PUBCHEM_COMPONENT_COUNT>
1

>  <PUBCHEM_CACTVS_TAUTO_COUNT>
3

>  <PUBCHEM_COORDINATE_TYPE>
1
5
255

>  <PUBCHEM_BONDANNOTATIONS>
10  12  8
10  17  8
11  15  8
11  16  8
12  20  8
14  18  8
15  18  8
16  19  8
17  21  8
20  22  8
21  22  8
6  19  8
6  9  8
7  11  8
7  8  8
7  9  8
8  14  8

$$$$
