12300127
 OpenBabel06101807152D

 34 37  0  0  0  0  0  0  0  0999 V2000
    9.8882   -1.7847    0.0000 O   0  0  0  0  0  0  0  0  0  0  0  0
    3.7702    1.7847    0.0000 O   0  0  0  0  0  0  0  0  0  0  0  0
    6.3961   -1.7500    0.0000 O   0  0  0  0  0  0  0  0  0  0  0  0
    7.2622    1.7500    0.0000 O   0  0  0  0  0  0  0  0  0  0  0  0
   11.6583   -1.7742    0.0000 O   0  0  0  0  0  0  0  0  0  0  0  0
    2.0000    1.7742    0.0000 O   0  0  0  0  0  0  0  0  0  0  0  0
    6.3961    0.2500    0.0000 C   0  0  0  0  0  0  0  0  0  0  0  0
    7.2622   -0.2500    0.0000 C   0  0  0  0  0  0  0  0  0  0  0  0
    4.6641    0.2500    0.0000 C   0  0  0  0  0  0  0  0  0  0  0  0
    8.9942   -0.2500    0.0000 C   0  0  0  0  0  0  0  0  0  0  0  0
    8.1282    0.2500    0.0000 C   0  0  0  0  0  0  0  0  0  0  0  0
    5.5301   -0.2500    0.0000 C   0  0  0  0  0  0  0  0  0  0  0  0
    6.3961    1.2500    0.0000 C   0  0  0  0  0  0  0  0  0  0  0  0
    7.2622   -1.2500    0.0000 C   0  0  0  0  0  0  0  0  0  0  0  0
    4.6641    1.2500    0.0000 C   0  0  0  0  0  0  0  0  0  0  0  0
    8.9942   -1.2500    0.0000 C   0  0  0  0  0  0  0  0  0  0  0  0
    5.5301    1.7500    0.0000 C   0  0  0  0  0  0  0  0  0  0  0  0
    8.1282   -1.7500    0.0000 C   0  0  0  0  0  0  0  0  0  0  0  0
    9.8882    0.2847    0.0000 C   0  0  0  0  0  0  0  0  0  0  0  0
    3.7702   -0.2847    0.0000 C   0  0  0  0  0  0  0  0  0  0  0  0
   10.7942   -0.2292    0.0000 C   0  0  0  0  0  0  0  0  0  0  0  0
    2.8641    0.2292    0.0000 C   0  0  0  0  0  0  0  0  0  0  0  0
    2.8641    1.2708    0.0000 C   0  0  0  0  0  0  0  0  0  0  0  0
   10.7942   -1.2708    0.0000 C   0  0  0  0  0  0  0  0  0  0  0  0
    5.5301   -0.8700    0.0000 H   0  0  0  0  0  0  0  0  0  0  0  0
    8.1282    0.8700    0.0000 H   0  0  0  0  0  0  0  0  0  0  0  0
    5.5301    2.3700    0.0000 H   0  0  0  0  0  0  0  0  0  0  0  0
    8.1282   -2.3700    0.0000 H   0  0  0  0  0  0  0  0  0  0  0  0
    3.7773   -0.9046    0.0000 H   0  0  0  0  0  0  0  0  0  0  0  0
    9.8810    0.9046    0.0000 H   0  0  0  0  0  0  0  0  0  0  0  0
    2.3284   -0.0829    0.0000 H   0  0  0  0  0  0  0  0  0  0  0  0
   11.3300    0.0829    0.0000 H   0  0  0  0  0  0  0  0  0  0  0  0
    7.2622    2.3700    0.0000 H   0  0  0  0  0  0  0  0  0  0  0  0
    6.3961   -2.3700    0.0000 H   0  0  0  0  0  0  0  0  0  0  0  0
  1 16  1  0  0  0  0
  1 24  1  0  0  0  0
  2 15  1  0  0  0  0
  2 23  1  0  0  0  0
  3 14  1  0  0  0  0
  3 34  1  0  0  0  0
  4 13  1  0  0  0  0
  4 33  1  0  0  0  0
  5 24  2  0  0  0  0
  6 23  2  0  0  0  0
  7  8  1  0  0  0  0
  7 12  1  0  0  0  0
  7 13  2  0  0  0  0
  8 11  1  0  0  0  0
  8 14  2  0  0  0  0
  9 12  2  0  0  0  0
  9 15  1  0  0  0  0
  9 20  1  0  0  0  0
 10 11  2  0  0  0  0
 10 16  1  0  0  0  0
 10 19  1  0  0  0  0
 11 26  1  0  0  0  0
 12 25  1  0  0  0  0
 13 17  1  0  0  0  0
 14 18  1  0  0  0  0
 15 17  2  0  0  0  0
 16 18  2  0  0  0  0
 17 27  1  0  0  0  0
 18 28  1  0  0  0  0
 19 21  2  0  0  0  0
 19 30  1  0  0  0  0
 20 22  2  0  0  0  0
 20 29  1  0  0  0  0
 21 24  1  0  0  0  0
 21 32  1  0  0  0  0
 22 23  1  0  0  0  0
 22 31  1  0  0  0  0
M  END
>  <PUBCHEM_COMPOUND_CID>
12300127

>  <PUBCHEM_COMPOUND_CANONICALIZED>
1

>  <PUBCHEM_CACTVS_COMPLEXITY>
544

>  <PUBCHEM_CACTVS_HBOND_ACCEPTOR>
6

>  <PUBCHEM_CACTVS_HBOND_DONOR>
2

>  <PUBCHEM_CACTVS_ROTATABLE_BOND>
1

>  <PUBCHEM_CACTVS_SUBSKEYS>
AAADccB4OAAAAAAAAAAAAAAAAAAAAAAAAAAwYIEAAAAAAACBQAAAGgAACAAADASAmAAwDoAABgCIAiDSCAACCAAgIAAIiAAGCMgMJyKGMRqCeiClwBUIuYfA4PwOoAACCAAIAABAAAQQABAAAAAAAAAAAA==

>  <PUBCHEM_IUPAC_OPENEYE_NAME>
7-hydroxy-6-(7-hydroxy-2-oxo-chromen-6-yl)chromen-2-one

>  <PUBCHEM_IUPAC_CAS_NAME>
7-hydroxy-6-(7-hydroxy-2-oxo-1-benzopyran-6-yl)-1-benzopyran-2-one

>  <PUBCHEM_IUPAC_NAME>
7-hydroxy-6-(7-hydroxy-2-oxochromen-6-yl)chromen-2-one

>  <PUBCHEM_IUPAC_SYSTEMATIC_NAME>
7-oxidanyl-6-(7-oxidanyl-2-oxidanylidene-chromen-6-yl)chromen-2-one

>  <PUBCHEM_IUPAC_TRADITIONAL_NAME>
7-hydroxy-6-(7-hydroxy-2-keto-chromen-6-yl)coumarin

>  <PUBCHEM_IUPAC_INCHI>
InChI=1S/C18H10O6/c19-13-7-15-9(1-3-17(21)23-15)5-11(13)12-6-10-2-4-18(22)24-16(10)8-14(12)20/h1-8,19-20H

>  <PUBCHEM_IUPAC_INCHIKEY>
OHYPGJGCEJEXMH-UHFFFAOYSA-N

>  <PUBCHEM_XLOGP3_AA>
2.8

>  <PUBCHEM_EXACT_MASS>
322.048

>  <PUBCHEM_MOLECULAR_FORMULA>
C18H10O6

>  <PUBCHEM_MOLECULAR_WEIGHT>
322.272

>  <PUBCHEM_OPENEYE_CAN_SMILES>
C1=CC(=O)OC2=CC(=C(C=C21)C3=C(C=C4C(=C3)C=CC(=O)O4)O)O

>  <PUBCHEM_OPENEYE_ISO_SMILES>
C1=CC(=O)OC2=CC(=C(C=C21)C3=C(C=C4C(=C3)C=CC(=O)O4)O)O

>  <PUBCHEM_CACTVS_TPSA>
93.1

>  <PUBCHEM_MONOISOTOPIC_WEIGHT>
322.048

>  <PUBCHEM_TOTAL_CHARGE>
0

>  <PUBCHEM_HEAVY_ATOM_COUNT>
24

>  <PUBCHEM_ATOM_DEF_STEREO_COUNT>
0

>  <PUBCHEM_ATOM_UDEF_STEREO_COUNT>
0

>  <PUBCHEM_BOND_DEF_STEREO_COUNT>
0

>  <PUBCHEM_BOND_UDEF_STEREO_COUNT>
0

>  <PUBCHEM_ISOTOPIC_ATOM_COUNT>
0

>  <PUBCHEM_COMPONENT_COUNT>
1

>  <PUBCHEM_CACTVS_TAUTO_COUNT>
17

>  <PUBCHEM_COORDINATE_TYPE>
1
5
255

>  <PUBCHEM_BONDANNOTATIONS>
1  16  8
1  24  8
10  11  8
10  16  8
10  19  8
13  17  8
14  18  8
15  17  8
16  18  8
19  21  8
2  15  8
2  23  8
20  22  8
21  24  8
22  23  8
7  12  8
7  13  8
8  11  8
8  14  8
9  12  8
9  15  8
9  20  8

$$$$
