12305639
 OpenBabel06101807152D

 96 97  0  0  0  0  0  0  0  0999 V2000
    3.0000   -3.7500    0.0000 C   0  0  0  0  0  0  0  0  0  0  0  0
   15.9904    2.7500    0.0000 C   0  0  0  0  0  0  0  0  0  0  0  0
   16.8564    2.2500    0.0000 C   0  0  0  0  0  0  0  0  0  0  0  0
    3.0000   -4.7500    0.0000 C   0  0  0  0  0  0  0  0  0  0  0  0
    3.8660   -5.2500    0.0000 C   0  0  0  0  0  0  0  0  0  0  0  0
   17.7224    2.7500    0.0000 C   0  0  0  0  0  0  0  0  0  0  0  0
    3.8660   -3.2500    0.0000 C   0  0  0  0  0  0  0  0  0  0  0  0
   15.9904    3.7500    0.0000 C   0  0  0  0  0  0  0  0  0  0  0  0
    4.7320   -4.7500    0.0000 C   0  0  0  0  0  0  0  0  0  0  0  0
   17.7224    3.7500    0.0000 C   0  0  0  0  0  0  0  0  0  0  0  0
   16.8564    4.2500    0.0000 C   0  0  0  0  0  0  0  0  0  0  0  0
    4.7320   -3.7500    0.0000 C   0  0  0  0  0  0  0  0  0  0  0  0
   15.4904    1.8840    0.0000 C   0  0  0  0  0  0  0  0  0  0  0  0
   14.9904    2.7500    0.0000 C   0  0  0  0  0  0  0  0  0  0  0  0
    2.0000   -3.7500    0.0000 C   0  0  0  0  0  0  0  0  0  0  0  0
    2.5000   -2.8840    0.0000 C   0  0  0  0  0  0  0  0  0  0  0  0
   15.1244    4.2500    0.0000 C   0  0  0  0  0  0  0  0  0  0  0  0
    3.8660   -2.2500    0.0000 C   0  0  0  0  0  0  0  0  0  0  0  0
   16.8564    5.2500    0.0000 C   0  0  0  0  0  0  0  0  0  0  0  0
    5.5981   -3.2500    0.0000 C   0  0  0  0  0  0  0  0  0  0  0  0
   14.2583    3.7500    0.0000 C   0  0  0  0  0  0  0  0  0  0  0  0
    4.7320   -1.7500    0.0000 C   0  0  0  0  0  0  0  0  0  0  0  0
    4.7320   -0.7500    0.0000 C   0  0  0  0  0  0  0  0  0  0  0  0
   13.3923    4.2500    0.0000 C   0  0  0  0  0  0  0  0  0  0  0  0
   13.3923    5.2500    0.0000 C   0  0  0  0  0  0  0  0  0  0  0  0
    3.8660   -0.2500    0.0000 C   0  0  0  0  0  0  0  0  0  0  0  0
    5.5981   -0.2500    0.0000 C   0  0  0  0  0  0  0  0  0  0  0  0
   12.5263    3.7500    0.0000 C   0  0  0  0  0  0  0  0  0  0  0  0
   11.6603    4.2500    0.0000 C   0  0  0  0  0  0  0  0  0  0  0  0
    5.5981    0.7500    0.0000 C   0  0  0  0  0  0  0  0  0  0  0  0
    6.4641    1.2500    0.0000 C   0  0  0  0  0  0  0  0  0  0  0  0
   10.7942    3.7500    0.0000 C   0  0  0  0  0  0  0  0  0  0  0  0
    6.4641    2.2500    0.0000 C   0  0  0  0  0  0  0  0  0  0  0  0
    9.9282    4.2500    0.0000 C   0  0  0  0  0  0  0  0  0  0  0  0
    9.9282    5.2500    0.0000 C   0  0  0  0  0  0  0  0  0  0  0  0
    5.5981    2.7500    0.0000 C   0  0  0  0  0  0  0  0  0  0  0  0
    7.3301    2.7500    0.0000 C   0  0  0  0  0  0  0  0  0  0  0  0
    9.0622    3.7500    0.0000 C   0  0  0  0  0  0  0  0  0  0  0  0
    7.3301    3.7500    0.0000 C   0  0  0  0  0  0  0  0  0  0  0  0
    8.1962    4.2500    0.0000 C   0  0  0  0  0  0  0  0  0  0  0  0
    2.3894   -4.6423    0.0000 H   0  0  0  0  0  0  0  0  0  0  0  0
    2.7880   -5.3326    0.0000 H   0  0  0  0  0  0  0  0  0  0  0  0
   16.4579    1.7750    0.0000 H   0  0  0  0  0  0  0  0  0  0  0  0
   17.2549    1.7750    0.0000 H   0  0  0  0  0  0  0  0  0  0  0  0
   17.9345    2.1674    0.0000 H   0  0  0  0  0  0  0  0  0  0  0  0
   18.3330    2.8577    0.0000 H   0  0  0  0  0  0  0  0  0  0  0  0
    3.4675   -5.7250    0.0000 H   0  0  0  0  0  0  0  0  0  0  0  0
    4.2646   -5.7250    0.0000 H   0  0  0  0  0  0  0  0  0  0  0  0
    4.9441   -5.3326    0.0000 H   0  0  0  0  0  0  0  0  0  0  0  0
    5.3426   -4.6423    0.0000 H   0  0  0  0  0  0  0  0  0  0  0  0
   18.3330    3.6423    0.0000 H   0  0  0  0  0  0  0  0  0  0  0  0
   17.9345    4.3326    0.0000 H   0  0  0  0  0  0  0  0  0  0  0  0
    2.0000   -3.1300    0.0000 H   0  0  0  0  0  0  0  0  0  0  0  0
    3.0369   -2.5740    0.0000 H   0  0  0  0  0  0  0  0  0  0  0  0
    2.1900   -2.3470    0.0000 H   0  0  0  0  0  0  0  0  0  0  0  0
    1.9631   -3.1940    0.0000 H   0  0  0  0  0  0  0  0  0  0  0  0
    1.3800   -3.7500    0.0000 H   0  0  0  0  0  0  0  0  0  0  0  0
    2.0000   -4.3700    0.0000 H   0  0  0  0  0  0  0  0  0  0  0  0
   14.9904    3.3700    0.0000 H   0  0  0  0  0  0  0  0  0  0  0  0
   14.3704    2.7500    0.0000 H   0  0  0  0  0  0  0  0  0  0  0  0
   14.9904    2.1300    0.0000 H   0  0  0  0  0  0  0  0  0  0  0  0
   14.9534    2.1940    0.0000 H   0  0  0  0  0  0  0  0  0  0  0  0
   15.1804    1.3470    0.0000 H   0  0  0  0  0  0  0  0  0  0  0  0
   16.0273    1.5740    0.0000 H   0  0  0  0  0  0  0  0  0  0  0  0
   15.1244    4.8700    0.0000 H   0  0  0  0  0  0  0  0  0  0  0  0
    3.3291   -1.9400    0.0000 H   0  0  0  0  0  0  0  0  0  0  0  0
    5.9081   -3.7869    0.0000 H   0  0  0  0  0  0  0  0  0  0  0  0
    6.1350   -2.9400    0.0000 H   0  0  0  0  0  0  0  0  0  0  0  0
    5.2881   -2.7131    0.0000 H   0  0  0  0  0  0  0  0  0  0  0  0
   17.4764    5.2500    0.0000 H   0  0  0  0  0  0  0  0  0  0  0  0
   16.8564    5.8700    0.0000 H   0  0  0  0  0  0  0  0  0  0  0  0
   16.2364    5.2500    0.0000 H   0  0  0  0  0  0  0  0  0  0  0  0
    5.2690   -2.0600    0.0000 H   0  0  0  0  0  0  0  0  0  0  0  0
   14.2583    3.1300    0.0000 H   0  0  0  0  0  0  0  0  0  0  0  0
   14.0123    5.2500    0.0000 H   0  0  0  0  0  0  0  0  0  0  0  0
   13.3923    5.8700    0.0000 H   0  0  0  0  0  0  0  0  0  0  0  0
   12.7723    5.2500    0.0000 H   0  0  0  0  0  0  0  0  0  0  0  0
    4.1760    0.2869    0.0000 H   0  0  0  0  0  0  0  0  0  0  0  0
    3.3291    0.0600    0.0000 H   0  0  0  0  0  0  0  0  0  0  0  0
    3.5560   -0.7869    0.0000 H   0  0  0  0  0  0  0  0  0  0  0  0
   12.5263    3.1300    0.0000 H   0  0  0  0  0  0  0  0  0  0  0  0
    6.1350   -0.5600    0.0000 H   0  0  0  0  0  0  0  0  0  0  0  0
    5.0611    1.0600    0.0000 H   0  0  0  0  0  0  0  0  0  0  0  0
   11.6603    4.8700    0.0000 H   0  0  0  0  0  0  0  0  0  0  0  0
    7.0010    0.9400    0.0000 H   0  0  0  0  0  0  0  0  0  0  0  0
   10.7942    3.1300    0.0000 H   0  0  0  0  0  0  0  0  0  0  0  0
    5.9081    3.2869    0.0000 H   0  0  0  0  0  0  0  0  0  0  0  0
    5.0611    3.0600    0.0000 H   0  0  0  0  0  0  0  0  0  0  0  0
    5.2881    2.2131    0.0000 H   0  0  0  0  0  0  0  0  0  0  0  0
   10.5482    5.2500    0.0000 H   0  0  0  0  0  0  0  0  0  0  0  0
    9.9282    5.8700    0.0000 H   0  0  0  0  0  0  0  0  0  0  0  0
    9.3082    5.2500    0.0000 H   0  0  0  0  0  0  0  0  0  0  0  0
    7.8671    2.4400    0.0000 H   0  0  0  0  0  0  0  0  0  0  0  0
    9.0622    3.1300    0.0000 H   0  0  0  0  0  0  0  0  0  0  0  0
    6.7932    4.0600    0.0000 H   0  0  0  0  0  0  0  0  0  0  0  0
    8.1962    4.8700    0.0000 H   0  0  0  0  0  0  0  0  0  0  0  0
  1  4  1  0  0  0  0
  1  7  1  0  0  0  0
  1 15  1  0  0  0  0
  1 16  1  0  0  0  0
  2  3  1  0  0  0  0
  2  8  1  0  0  0  0
  2 13  1  0  0  0  0
  2 14  1  0  0  0  0
  3  6  1  0  0  0  0
  3 43  1  0  0  0  0
  3 44  1  0  0  0  0
  4  5  1  0  0  0  0
  4 41  1  0  0  0  0
  4 42  1  0  0  0  0
  5  9  1  0  0  0  0
  5 47  1  0  0  0  0
  5 48  1  0  0  0  0
  6 10  1  0  0  0  0
  6 45  1  0  0  0  0
  6 46  1  0  0  0  0
  7 12  2  0  0  0  0
  7 18  1  0  0  0  0
  8 11  2  0  0  0  0
  8 17  1  0  0  0  0
  9 12  1  0  0  0  0
  9 49  1  0  0  0  0
  9 50  1  0  0  0  0
 10 11  1  0  0  0  0
 10 51  1  0  0  0  0
 10 52  1  0  0  0  0
 11 19  1  0  0  0  0
 12 20  1  0  0  0  0
 13 62  1  0  0  0  0
 13 63  1  0  0  0  0
 13 64  1  0  0  0  0
 14 59  1  0  0  0  0
 14 60  1  0  0  0  0
 14 61  1  0  0  0  0
 15 53  1  0  0  0  0
 15 57  1  0  0  0  0
 15 58  1  0  0  0  0
 16 54  1  0  0  0  0
 16 55  1  0  0  0  0
 16 56  1  0  0  0  0
 17 21  2  0  0  0  0
 17 65  1  0  0  0  0
 18 22  2  0  0  0  0
 18 66  1  0  0  0  0
 19 70  1  0  0  0  0
 19 71  1  0  0  0  0
 19 72  1  0  0  0  0
 20 67  1  0  0  0  0
 20 68  1  0  0  0  0
 20 69  1  0  0  0  0
 21 24  1  0  0  0  0
 21 74  1  0  0  0  0
 22 23  1  0  0  0  0
 22 73  1  0  0  0  0
 23 26  1  0  0  0  0
 23 27  2  0  0  0  0
 24 25  1  0  0  0  0
 24 28  2  0  0  0  0
 25 75  1  0  0  0  0
 25 76  1  0  0  0  0
 25 77  1  0  0  0  0
 26 78  1  0  0  0  0
 26 79  1  0  0  0  0
 26 80  1  0  0  0  0
 27 30  1  0  0  0  0
 27 82  1  0  0  0  0
 28 29  1  0  0  0  0
 28 81  1  0  0  0  0
 29 32  2  0  0  0  0
 29 84  1  0  0  0  0
 30 31  2  0  0  0  0
 30 83  1  0  0  0  0
 31 33  1  0  0  0  0
 31 85  1  0  0  0  0
 32 34  1  0  0  0  0
 32 86  1  0  0  0  0
 33 36  1  0  0  0  0
 33 37  2  0  0  0  0
 34 35  1  0  0  0  0
 34 38  2  0  0  0  0
 35 90  1  0  0  0  0
 35 91  1  0  0  0  0
 35 92  1  0  0  0  0
 36 87  1  0  0  0  0
 36 88  1  0  0  0  0
 36 89  1  0  0  0  0
 37 39  1  0  0  0  0
 37 93  1  0  0  0  0
 38 40  1  0  0  0  0
 38 94  1  0  0  0  0
 39 40  2  0  0  0  0
 39 95  1  0  0  0  0
 40 96  1  0  0  0  0
M  END
>  <PUBCHEM_COMPOUND_CID>
12305639

>  <PUBCHEM_COMPOUND_CANONICALIZED>
1

>  <PUBCHEM_CACTVS_COMPLEXITY>
1120

>  <PUBCHEM_CACTVS_HBOND_ACCEPTOR>
0

>  <PUBCHEM_CACTVS_HBOND_DONOR>
0

>  <PUBCHEM_CACTVS_ROTATABLE_BOND>
10

>  <PUBCHEM_CACTVS_SUBSKEYS>
AAADcfB8AAAAAAAAAAAAAAAAAAAAAAAAAAAgQAAAAAAAAAAAAAAAGAAAAAAADgCAAAACAAAAAACAAiBCAAAAAAAgAAAICAAAAAgIAAIAAQAAAAAAgAAIgAMAgMAPAAAAAAAAAAAAAAAAAAAAAAAAAAAAAA==

>  <PUBCHEM_IUPAC_OPENEYE_NAME>
1,3,3-trimethyl-2-[(1E,3E,5E,7E,9Z,11E,13E,15E,17E)-3,7,12,16-tetramethyl-18-(2,6,6-trimethylcyclohexen-1-yl)octadeca-1,3,5,7,9,11,13,15,17-nonaenyl]cyclohexene

>  <PUBCHEM_IUPAC_CAS_NAME>
1,3,3-trimethyl-2-[(1E,3E,5E,7E,9Z,11E,13E,15E,17E)-3,7,12,16-tetramethyl-18-(2,6,6-trimethyl-1-cyclohexenyl)octadeca-1,3,5,7,9,11,13,15,17-nonaenyl]cyclohexene

>  <PUBCHEM_IUPAC_NAME>
1,3,3-trimethyl-2-[(1E,3E,5E,7E,9Z,11E,13E,15E,17E)-3,7,12,16-tetramethyl-18-(2,6,6-trimethylcyclohexen-1-yl)octadeca-1,3,5,7,9,11,13,15,17-nonaenyl]cyclohexene

>  <PUBCHEM_IUPAC_SYSTEMATIC_NAME>
1,3,3-trimethyl-2-[(1E,3E,5E,7E,9Z,11E,13E,15E,17E)-3,7,12,16-tetramethyl-18-(2,6,6-trimethylcyclohexen-1-yl)octadeca-1,3,5,7,9,11,13,15,17-nonaenyl]cyclohexene

>  <PUBCHEM_IUPAC_TRADITIONAL_NAME>
1,3,3-trimethyl-2-[(1E,3E,5E,7E,9Z,11E,13E,15E,17E)-3,7,12,16-tetramethyl-18-(2,6,6-trimethylcyclohexen-1-yl)octadeca-1,3,5,7,9,11,13,15,17-nonaenyl]cyclohexene

>  <PUBCHEM_IUPAC_INCHI>
InChI=1S/C40H56/c1-31(19-13-21-33(3)25-27-37-35(5)23-15-29-39(37,7)8)17-11-12-18-32(2)20-14-22-34(4)26-28-38-36(6)24-16-30-40(38,9)10/h11-14,17-22,25-28H,15-16,23-24,29-30H2,1-10H3/b12-11-,19-13+,20-14+,27-25+,28-26+,31-17+,32-18+,33-21+,34-22+

>  <PUBCHEM_IUPAC_INCHIKEY>
OENHQHLEOONYIE-BPYFYYBTSA-N

>  <PUBCHEM_XLOGP3>
13.5

>  <PUBCHEM_EXACT_MASS>
536.438

>  <PUBCHEM_MOLECULAR_FORMULA>
C40H56

>  <PUBCHEM_MOLECULAR_WEIGHT>
536.888

>  <PUBCHEM_OPENEYE_CAN_SMILES>
CC1=C(C(CCC1)(C)C)C=CC(=CC=CC(=CC=CC=C(C)C=CC=C(C)C=CC2=C(CCCC2(C)C)C)C)C

>  <PUBCHEM_OPENEYE_ISO_SMILES>
CC1=C(C(CCC1)(C)C)/C=C/C(=C/C=C/C(=C/C=C\C=C(\C=C\C=C(\C=C\C2=C(CCCC2(C)C)C)/C)/C)/C)/C

>  <PUBCHEM_CACTVS_TPSA>
0

>  <PUBCHEM_MONOISOTOPIC_WEIGHT>
536.438

>  <PUBCHEM_TOTAL_CHARGE>
0

>  <PUBCHEM_HEAVY_ATOM_COUNT>
40

>  <PUBCHEM_ATOM_DEF_STEREO_COUNT>
0

>  <PUBCHEM_ATOM_UDEF_STEREO_COUNT>
0

>  <PUBCHEM_BOND_DEF_STEREO_COUNT>
9

>  <PUBCHEM_BOND_UDEF_STEREO_COUNT>
0

>  <PUBCHEM_ISOTOPIC_ATOM_COUNT>
0

>  <PUBCHEM_COMPONENT_COUNT>
1

>  <PUBCHEM_CACTVS_TAUTO_COUNT>
1

>  <PUBCHEM_COORDINATE_TYPE>
1
5
255

$$$$
