12305242
 OpenBabel06101807152D

 28 31  0  0  0  0  0  0  0  0999 V2000
    6.2392    2.5151    0.0000 O   0  0  0  0  0  0  0  0  0  0  0  0
    4.8454    3.3198    0.0000 O   0  0  0  0  0  0  0  0  0  0  0  0
    2.0000    0.8511    0.0000 O   0  0  0  0  0  0  0  0  0  0  0  0
    2.8779   -2.8029    0.0000 O   0  0  0  0  0  0  0  0  0  0  0  0
    2.8522   -0.7004    0.0000 N   0  0  0  0  0  0  0  0  0  0  0  0
    4.6362    0.3480    0.0000 C   0  0  0  0  0  0  0  0  0  0  0  0
    3.7702    0.8480    0.0000 C   0  0  0  0  0  0  0  0  0  0  0  0
    4.6523   -0.6935    0.0000 C   0  0  0  0  0  0  0  0  0  0  0  0
    3.7542   -1.2213    0.0000 C   0  0  0  0  0  0  0  0  0  0  0  0
    5.5022    0.8480    0.0000 C   0  0  0  0  0  0  0  0  0  0  0  0
    5.5022    1.8480    0.0000 C   0  0  0  0  0  0  0  0  0  0  0  0
    4.6362    2.3480    0.0000 C   0  0  0  0  0  0  0  0  0  0  0  0
    3.7702    1.8480    0.0000 C   0  0  0  0  0  0  0  0  0  0  0  0
    2.8602    0.3412    0.0000 C   0  0  0  0  0  0  0  0  0  0  0  0
    5.6042   -1.2141    0.0000 C   0  0  0  0  0  0  0  0  0  0  0  0
    3.7459   -2.3062    0.0000 C   0  0  0  0  0  0  0  0  0  0  0  0
    5.8341    3.4229    0.0000 C   0  0  0  0  0  0  0  0  0  0  0  0
    5.6209   -2.2990    0.0000 C   0  0  0  0  0  0  0  0  0  0  0  0
    4.6855   -2.8487    0.0000 C   0  0  0  0  0  0  0  0  0  0  0  0
    6.0392    0.5380    0.0000 H   0  0  0  0  0  0  0  0  0  0  0  0
    3.2332    2.1580    0.0000 H   0  0  0  0  0  0  0  0  0  0  0  0
    2.3140   -1.0084    0.0000 H   0  0  0  0  0  0  0  0  0  0  0  0
    6.1351   -0.8938    0.0000 H   0  0  0  0  0  0  0  0  0  0  0  0
    6.4237    3.6146    0.0000 H   0  0  0  0  0  0  0  0  0  0  0  0
    5.7054    4.0294    0.0000 H   0  0  0  0  0  0  0  0  0  0  0  0
    6.1614   -2.6028    0.0000 H   0  0  0  0  0  0  0  0  0  0  0  0
    4.6879   -3.4687    0.0000 H   0  0  0  0  0  0  0  0  0  0  0  0
    2.8755   -3.4229    0.0000 H   0  0  0  0  0  0  0  0  0  0  0  0
  1 11  1  0  0  0  0
  1 17  1  0  0  0  0
  2 12  1  0  0  0  0
  2 17  1  0  0  0  0
  3 14  2  0  0  0  0
  4 16  1  0  0  0  0
  4 28  1  0  0  0  0
  5  9  1  0  0  0  0
  5 14  1  0  0  0  0
  5 22  1  0  0  0  0
  6  7  1  0  0  0  0
  6  8  1  0  0  0  0
  6 10  2  0  0  0  0
  7 13  2  0  0  0  0
  7 14  1  0  0  0  0
  8  9  2  0  0  0  0
  8 15  1  0  0  0  0
  9 16  1  0  0  0  0
 10 11  1  0  0  0  0
 10 20  1  0  0  0  0
 11 12  2  0  0  0  0
 12 13  1  0  0  0  0
 13 21  1  0  0  0  0
 15 18  2  0  0  0  0
 15 23  1  0  0  0  0
 16 19  2  0  0  0  0
 17 24  1  0  0  0  0
 17 25  1  0  0  0  0
 18 19  1  0  0  0  0
 18 26  1  0  0  0  0
 19 27  1  0  0  0  0
M  END
>  <PUBCHEM_COMPOUND_CID>
12305242

>  <PUBCHEM_COMPOUND_CANONICALIZED>
1

>  <PUBCHEM_CACTVS_COMPLEXITY>
388

>  <PUBCHEM_CACTVS_HBOND_ACCEPTOR>
4

>  <PUBCHEM_CACTVS_HBOND_DONOR>
2

>  <PUBCHEM_CACTVS_ROTATABLE_BOND>
0

>  <PUBCHEM_CACTVS_SUBSKEYS>
AAADccByOAAAAAAAAAAAAAAAAAAAASAAAAA8YIAAAAAAAEixQAAAHgAQCAAADAyBmAMwzoLABgCIAiVSUACCCAAlIAAIiAEHzMgfJjLWtZukcSpkxBHe+Ye63fPeoAABAAASUABAAAIAACSgAAAAAAAAAA==

>  <PUBCHEM_IUPAC_OPENEYE_NAME>
4-hydroxy-5H-[1,3]dioxolo[4,5-j]phenanthridin-6-one

>  <PUBCHEM_IUPAC_CAS_NAME>
4-hydroxy-5H-[1,3]dioxolo[4,5-j]phenanthridin-6-one

>  <PUBCHEM_IUPAC_NAME>
4-hydroxy-5H-[1,3]dioxolo[4,5-j]phenanthridin-6-one

>  <PUBCHEM_IUPAC_SYSTEMATIC_NAME>
4-oxidanyl-5H-[1,3]dioxolo[4,5-j]phenanthridin-6-one

>  <PUBCHEM_IUPAC_TRADITIONAL_NAME>
4-hydroxy-5H-[1,3]dioxolo[4,5-j]phenanthridin-6-one

>  <PUBCHEM_IUPAC_INCHI>
InChI=1S/C14H9NO4/c16-10-3-1-2-7-8-4-11-12(19-6-18-11)5-9(8)14(17)15-13(7)10/h1-5,16H,6H2,(H,15,17)

>  <PUBCHEM_IUPAC_INCHIKEY>
SCDAZLFIUOBZAZ-UHFFFAOYSA-N

>  <PUBCHEM_XLOGP3_AA>
1.9

>  <PUBCHEM_EXACT_MASS>
255.053

>  <PUBCHEM_MOLECULAR_FORMULA>
C14H9NO4

>  <PUBCHEM_MOLECULAR_WEIGHT>
255.229

>  <PUBCHEM_OPENEYE_CAN_SMILES>
C1OC2=C(O1)C=C3C(=C2)C4=C(C(=CC=C4)O)NC3=O

>  <PUBCHEM_OPENEYE_ISO_SMILES>
C1OC2=C(O1)C=C3C(=C2)C4=C(C(=CC=C4)O)NC3=O

>  <PUBCHEM_CACTVS_TPSA>
67.8

>  <PUBCHEM_MONOISOTOPIC_WEIGHT>
255.053

>  <PUBCHEM_TOTAL_CHARGE>
0

>  <PUBCHEM_HEAVY_ATOM_COUNT>
19

>  <PUBCHEM_ATOM_DEF_STEREO_COUNT>
0

>  <PUBCHEM_ATOM_UDEF_STEREO_COUNT>
0

>  <PUBCHEM_BOND_DEF_STEREO_COUNT>
0

>  <PUBCHEM_BOND_UDEF_STEREO_COUNT>
0

>  <PUBCHEM_ISOTOPIC_ATOM_COUNT>
0

>  <PUBCHEM_COMPONENT_COUNT>
1

>  <PUBCHEM_CACTVS_TAUTO_COUNT>
6

>  <PUBCHEM_COORDINATE_TYPE>
1
5
255

>  <PUBCHEM_BONDANNOTATIONS>
10  11  8
11  12  8
12  13  8
15  18  8
16  19  8
18  19  8
5  14  8
5  9  8
6  10  8
6  7  8
6  8  8
7  13  8
7  14  8
8  15  8
8  9  8
9  16  8

$$$$
