12305751
 OpenBabel06101807152D

 34 36  0  0  0  0  0  0  0  0999 V2000
    6.3981   -0.9254    0.0000 O   0  0  0  0  0  0  0  0  0  0  0  0
    2.8680    1.0988    0.0000 O   0  0  0  0  0  0  0  0  0  0  0  0
    4.6497    2.1092    0.0000 O   0  0  0  0  0  0  0  0  0  0  0  0
    8.1301    1.0746    0.0000 O   0  0  0  0  0  0  0  0  0  0  0  0
    2.8680   -0.9495    0.0000 O   0  0  0  0  0  0  0  0  0  0  0  0
    6.3981    2.0746    0.0000 O   0  0  0  0  0  0  0  0  0  0  0  0
    5.5320    0.5746    0.0000 C   0  0  0  0  0  0  0  0  0  0  0  0
    5.5320   -0.4254    0.0000 C   0  0  0  0  0  0  0  0  0  0  0  0
    7.2641   -0.4254    0.0000 C   0  0  0  0  0  0  0  0  0  0  0  0
    4.6381    1.1093    0.0000 C   0  0  0  0  0  0  0  0  0  0  0  0
    6.3981    1.0746    0.0000 C   0  0  0  0  0  0  0  0  0  0  0  0
    7.2641    0.5746    0.0000 C   0  0  0  0  0  0  0  0  0  0  0  0
    4.6381   -0.9601    0.0000 C   0  0  0  0  0  0  0  0  0  0  0  0
    3.7320    0.5954    0.0000 C   0  0  0  0  0  0  0  0  0  0  0  0
    8.1301   -0.9254    0.0000 C   0  0  0  0  0  0  0  0  0  0  0  0
    3.7320   -0.4462    0.0000 C   0  0  0  0  0  0  0  0  0  0  0  0
    8.1301   -1.9254    0.0000 C   0  0  0  0  0  0  0  0  0  0  0  0
    8.9962   -0.4254    0.0000 C   0  0  0  0  0  0  0  0  0  0  0  0
    8.9962   -2.4254    0.0000 C   0  0  0  0  0  0  0  0  0  0  0  0
    9.8622   -0.9254    0.0000 C   0  0  0  0  0  0  0  0  0  0  0  0
    9.8622   -1.9254    0.0000 C   0  0  0  0  0  0  0  0  0  0  0  0
    2.0000    0.6021    0.0000 C   0  0  0  0  0  0  0  0  0  0  0  0
    4.6453   -1.5800    0.0000 H   0  0  0  0  0  0  0  0  0  0  0  0
    7.5932   -2.2354    0.0000 H   0  0  0  0  0  0  0  0  0  0  0  0
    8.9962    0.1946    0.0000 H   0  0  0  0  0  0  0  0  0  0  0  0
    8.9962   -3.0454    0.0000 H   0  0  0  0  0  0  0  0  0  0  0  0
   10.3991   -0.6154    0.0000 H   0  0  0  0  0  0  0  0  0  0  0  0
    4.1164    2.4254    0.0000 H   0  0  0  0  0  0  0  0  0  0  0  0
   10.3991   -2.2354    0.0000 H   0  0  0  0  0  0  0  0  0  0  0  0
    8.1301    1.6946    0.0000 H   0  0  0  0  0  0  0  0  0  0  0  0
    2.8703   -1.5695    0.0000 H   0  0  0  0  0  0  0  0  0  0  0  0
    1.6921    1.1402    0.0000 H   0  0  0  0  0  0  0  0  0  0  0  0
    1.4619    0.2942    0.0000 H   0  0  0  0  0  0  0  0  0  0  0  0
    2.3079    0.0640    0.0000 H   0  0  0  0  0  0  0  0  0  0  0  0
  1  8  1  0  0  0  0
  1  9  1  0  0  0  0
  2 14  1  0  0  0  0
  2 22  1  0  0  0  0
  3 10  1  0  0  0  0
  3 28  1  0  0  0  0
  4 12  1  0  0  0  0
  4 30  1  0  0  0  0
  5 16  1  0  0  0  0
  5 31  1  0  0  0  0
  6 11  2  0  0  0  0
  7  8  2  0  0  0  0
  7 10  1  0  0  0  0
  7 11  1  0  0  0  0
  8 13  1  0  0  0  0
  9 12  2  0  0  0  0
  9 15  1  0  0  0  0
 10 14  2  0  0  0  0
 11 12  1  0  0  0  0
 13 16  2  0  0  0  0
 13 23  1  0  0  0  0
 14 16  1  0  0  0  0
 15 17  2  0  0  0  0
 15 18  1  0  0  0  0
 17 19  1  0  0  0  0
 17 24  1  0  0  0  0
 18 20  2  0  0  0  0
 18 25  1  0  0  0  0
 19 21  2  0  0  0  0
 19 26  1  0  0  0  0
 20 21  1  0  0  0  0
 20 27  1  0  0  0  0
 21 29  1  0  0  0  0
 22 32  1  0  0  0  0
 22 33  1  0  0  0  0
 22 34  1  0  0  0  0
M  END
>  <PUBCHEM_COMPOUND_CID>
12305751

>  <PUBCHEM_COMPOUND_CANONICALIZED>
1

>  <PUBCHEM_CACTVS_COMPLEXITY>
467

>  <PUBCHEM_CACTVS_HBOND_ACCEPTOR>
6

>  <PUBCHEM_CACTVS_HBOND_DONOR>
3

>  <PUBCHEM_CACTVS_ROTATABLE_BOND>
2

>  <PUBCHEM_CACTVS_SUBSKEYS>
AAADccB4OAAAAAAAAAAAAAAAAAAAAAAAAAAwYIAAAAAAAACBQAAAGgAACAAADASAmAIyBoAABgCIAqBSAAICCAAkIAAIiAFGiMgNJzaGNRqCeWOl4BULuQfK7LzOIQABCAAIQABCAAIQABCAAAAAAAAAAA==

>  <PUBCHEM_IUPAC_OPENEYE_NAME>
3,5,7-trihydroxy-6-methoxy-2-phenyl-chromen-4-one

>  <PUBCHEM_IUPAC_CAS_NAME>
3,5,7-trihydroxy-6-methoxy-2-phenyl-1-benzopyran-4-one

>  <PUBCHEM_IUPAC_NAME>
3,5,7-trihydroxy-6-methoxy-2-phenylchromen-4-one

>  <PUBCHEM_IUPAC_SYSTEMATIC_NAME>
6-methoxy-3,5,7-tris(oxidanyl)-2-phenyl-chromen-4-one

>  <PUBCHEM_IUPAC_TRADITIONAL_NAME>
3,5,7-trihydroxy-6-methoxy-2-phenyl-chromone

>  <PUBCHEM_IUPAC_INCHI>
InChI=1S/C16H12O6/c1-21-16-9(17)7-10-11(13(16)19)12(18)14(20)15(22-10)8-5-3-2-4-6-8/h2-7,17,19-20H,1H3

>  <PUBCHEM_IUPAC_INCHIKEY>
HYBBOIHJQNYTGH-UHFFFAOYSA-N

>  <PUBCHEM_XLOGP3_AA>
2.8

>  <PUBCHEM_EXACT_MASS>
300.063

>  <PUBCHEM_MOLECULAR_FORMULA>
C16H12O6

>  <PUBCHEM_MOLECULAR_WEIGHT>
300.266

>  <PUBCHEM_OPENEYE_CAN_SMILES>
COC1=C(C=C2C(=C1O)C(=O)C(=C(O2)C3=CC=CC=C3)O)O

>  <PUBCHEM_OPENEYE_ISO_SMILES>
COC1=C(C=C2C(=C1O)C(=O)C(=C(O2)C3=CC=CC=C3)O)O

>  <PUBCHEM_CACTVS_TPSA>
96.2

>  <PUBCHEM_MONOISOTOPIC_WEIGHT>
300.063

>  <PUBCHEM_TOTAL_CHARGE>
0

>  <PUBCHEM_HEAVY_ATOM_COUNT>
22

>  <PUBCHEM_ATOM_DEF_STEREO_COUNT>
0

>  <PUBCHEM_ATOM_UDEF_STEREO_COUNT>
0

>  <PUBCHEM_BOND_DEF_STEREO_COUNT>
0

>  <PUBCHEM_BOND_UDEF_STEREO_COUNT>
0

>  <PUBCHEM_ISOTOPIC_ATOM_COUNT>
0

>  <PUBCHEM_COMPONENT_COUNT>
1

>  <PUBCHEM_CACTVS_TAUTO_COUNT>
24

>  <PUBCHEM_COORDINATE_TYPE>
1
5
255

>  <PUBCHEM_BONDANNOTATIONS>
1  8  8
1  9  8
10  14  8
11  12  8
13  16  8
14  16  8
15  17  8
15  18  8
17  19  8
18  20  8
19  21  8
20  21  8
7  10  8
7  11  8
7  8  8
8  13  8
9  12  8

$$$$
