12302035
 OpenBabel06101807152D

 56 59  0  0  1  0  0  0  0  0999 V2000
    5.1350   -1.6796    0.0000 O   0  0  0  0  0  0  0  0  0  0  0  0
    6.8671   -1.6796    0.0000 O   0  0  0  0  0  0  0  0  0  0  0  0
    5.1350   -4.6796    0.0000 O   0  0  0  0  0  0  0  0  0  0  0  0
    3.4030   -3.6796    0.0000 O   0  0  0  0  0  0  0  0  0  0  0  0
    6.8671   -3.6796    0.0000 O   0  0  0  0  0  0  0  0  0  0  0  0
    2.5369   -2.1796    0.0000 O   0  0  0  0  0  0  0  0  0  0  0  0
    8.6230    1.3829    0.0000 O   0  0  0  0  0  0  0  0  0  0  0  0
    5.1208    1.3996    0.0000 O   0  0  0  0  0  0  0  0  0  0  0  0
    7.7666    3.8863    0.0000 O   0  0  0  0  0  0  0  0  0  0  0  0
    6.0308    2.8930    0.0000 O   0  0  0  0  0  0  0  0  0  0  0  0
   12.0910    2.3696    0.0000 O   0  0  0  0  0  0  0  0  0  0  0  0
   12.0987    4.3696    0.0000 O   0  0  0  0  0  0  0  0  0  0  0  0
    5.1350   -3.6796    0.0000 C   0  0  3  0  0  0  0  0  0  0  0  0
    4.2690   -3.1796    0.0000 C   0  0  3  0  0  0  0  0  0  0  0  0
    6.0010   -3.1796    0.0000 C   0  0  3  0  0  0  0  0  0  0  0  0
    4.2690   -2.1796    0.0000 C   0  0  3  0  0  0  0  0  0  0  0  0
    6.0010   -2.1796    0.0000 C   0  0  3  0  0  0  0  0  0  0  0  0
    3.4030   -1.6796    0.0000 C   0  0  0  0  0  0  0  0  0  0  0  0
    6.8671   -0.6796    0.0000 C   0  0  0  0  0  0  0  0  0  0  0  0
    7.7671   -0.1553    0.0000 C   0  0  0  0  0  0  0  0  0  0  0  0
    5.9670   -0.1553    0.0000 C   0  0  0  0  0  0  0  0  0  0  0  0
    7.7551    0.8863    0.0000 C   0  0  0  0  0  0  0  0  0  0  0  0
    6.8910    1.3896    0.0000 C   0  0  0  0  0  0  0  0  0  0  0  0
    5.9790    0.8863    0.0000 C   0  0  0  0  0  0  0  0  0  0  0  0
    6.8948    2.3896    0.0000 C   0  0  0  0  0  0  0  0  0  0  0  0
    8.6269    2.3829    0.0000 C   0  0  0  0  0  0  0  0  0  0  0  0
    7.7628    2.8863    0.0000 C   0  0  0  0  0  0  0  0  0  0  0  0
    9.4948    2.8796    0.0000 C   0  0  0  0  0  0  0  0  0  0  0  0
   10.3589    2.3763    0.0000 C   0  0  0  0  0  0  0  0  0  0  0  0
    9.4987    3.8796    0.0000 C   0  0  0  0  0  0  0  0  0  0  0  0
   11.2269    2.8729    0.0000 C   0  0  0  0  0  0  0  0  0  0  0  0
   10.3666    4.3762    0.0000 C   0  0  0  0  0  0  0  0  0  0  0  0
   11.2307    3.8729    0.0000 C   0  0  0  0  0  0  0  0  0  0  0  0
   12.9589    2.8662    0.0000 C   0  0  0  0  0  0  0  0  0  0  0  0
    5.6720   -3.9896    0.0000 H   0  0  0  0  0  0  0  0  0  0  0  0
    4.2690   -3.7996    0.0000 H   0  0  0  0  0  0  0  0  0  0  0  0
    6.5380   -2.8696    0.0000 H   0  0  0  0  0  0  0  0  0  0  0  0
    4.2690   -1.5596    0.0000 H   0  0  0  0  0  0  0  0  0  0  0  0
    6.0010   -1.5596    0.0000 H   0  0  0  0  0  0  0  0  0  0  0  0
    3.8015   -1.2046    0.0000 H   0  0  0  0  0  0  0  0  0  0  0  0
    3.0044   -1.2046    0.0000 H   0  0  0  0  0  0  0  0  0  0  0  0
    4.5981   -4.9896    0.0000 H   0  0  0  0  0  0  0  0  0  0  0  0
    3.4030   -4.2996    0.0000 H   0  0  0  0  0  0  0  0  0  0  0  0
    6.8671   -4.2996    0.0000 H   0  0  0  0  0  0  0  0  0  0  0  0
    2.0000   -1.8696    0.0000 H   0  0  0  0  0  0  0  0  0  0  0  0
    8.3064   -0.4611    0.0000 H   0  0  0  0  0  0  0  0  0  0  0  0
    5.4277   -0.4611    0.0000 H   0  0  0  0  0  0  0  0  0  0  0  0
    4.5792    1.0979    0.0000 H   0  0  0  0  0  0  0  0  0  0  0  0
   10.3565    1.7563    0.0000 H   0  0  0  0  0  0  0  0  0  0  0  0
    8.9630    4.1916    0.0000 H   0  0  0  0  0  0  0  0  0  0  0  0
   10.3690    4.9962    0.0000 H   0  0  0  0  0  0  0  0  0  0  0  0
    7.2309    4.1983    0.0000 H   0  0  0  0  0  0  0  0  0  0  0  0
   12.1011    4.9896    0.0000 H   0  0  0  0  0  0  0  0  0  0  0  0
   13.2668    2.3281    0.0000 H   0  0  0  0  0  0  0  0  0  0  0  0
   13.4970    3.1742    0.0000 H   0  0  0  0  0  0  0  0  0  0  0  0
   12.6510    3.4044    0.0000 H   0  0  0  0  0  0  0  0  0  0  0  0
  1 16  1  0  0  0  0
  1 17  1  0  0  0  0
  2 17  1  0  0  0  0
  2 19  1  0  0  0  0
  3 13  1  0  0  0  0
  3 42  1  0  0  0  0
  4 14  1  0  0  0  0
  4 43  1  0  0  0  0
  5 15  1  0  0  0  0
  5 44  1  0  0  0  0
  6 18  1  0  0  0  0
  6 45  1  0  0  0  0
  7 22  1  0  0  0  0
  7 26  1  0  0  0  0
  8 24  1  0  0  0  0
  8 48  1  0  0  0  0
  9 27  1  0  0  0  0
  9 52  1  0  0  0  0
 10 25  2  0  0  0  0
 11 31  1  0  0  0  0
 11 34  1  0  0  0  0
 12 33  1  0  0  0  0
 12 53  1  0  0  0  0
 13 14  1  0  0  0  0
 13 15  1  0  0  0  0
 13 35  1  0  0  0  0
 14 16  1  0  0  0  0
 14 36  1  0  0  0  0
 15 17  1  0  0  0  0
 15 37  1  0  0  0  0
 16 18  1  0  0  0  0
 16 38  1  0  0  0  0
 17 39  1  0  0  0  0
 18 40  1  0  0  0  0
 18 41  1  0  0  0  0
 19 20  1  0  0  0  0
 19 21  2  0  0  0  0
 20 22  2  0  0  0  0
 20 46  1  0  0  0  0
 21 24  1  0  0  0  0
 21 47  1  0  0  0  0
 22 23  1  0  0  0  0
 23 24  2  0  0  0  0
 23 25  1  0  0  0  0
 25 27  1  0  0  0  0
 26 27  2  0  0  0  0
 26 28  1  0  0  0  0
 28 29  2  0  0  0  0
 28 30  1  0  0  0  0
 29 31  1  0  0  0  0
 29 49  1  0  0  0  0
 30 32  2  0  0  0  0
 30 50  1  0  0  0  0
 31 33  2  0  0  0  0
 32 33  1  0  0  0  0
 32 51  1  0  0  0  0
 34 54  1  0  0  0  0
 34 55  1  0  0  0  0
 34 56  1  0  0  0  0
M  END
>  <PUBCHEM_COMPOUND_CID>
12302035

>  <PUBCHEM_COMPOUND_CANONICALIZED>
1

>  <PUBCHEM_CACTVS_COMPLEXITY>
773

>  <PUBCHEM_CACTVS_HBOND_ACCEPTOR>
12

>  <PUBCHEM_CACTVS_HBOND_DONOR>
7

>  <PUBCHEM_CACTVS_ROTATABLE_BOND>
5

>  <PUBCHEM_CACTVS_SUBSKEYS>
AAADceB4PAAAAAAAAAAAAAAAAAAAAAAAAAA0YIEAAAAAAACBQAAAGgAACAAADBSwmAMyDoAABgCIAqBSAAICCAAkIAAIiAFGiMgdNzaGNRqieWOl4BUPuQfI7LzOIAABCAAIQABAAAIQABCAAAAAAAAAAA==

>  <PUBCHEM_IUPAC_OPENEYE_NAME>
3,5-dihydroxy-2-(4-hydroxy-3-methoxy-phenyl)-7-[3,4,5-trihydroxy-6-(hydroxymethyl)tetrahydropyran-2-yl]oxy-chromen-4-one

>  <PUBCHEM_IUPAC_CAS_NAME>
3,5-dihydroxy-2-(4-hydroxy-3-methoxyphenyl)-7-[[3,4,5-trihydroxy-6-(hydroxymethyl)-2-oxanyl]oxy]-1-benzopyran-4-one

>  <PUBCHEM_IUPAC_NAME>
3,5-dihydroxy-2-(4-hydroxy-3-methoxyphenyl)-7-[3,4,5-trihydroxy-6-(hydroxymethyl)oxan-2-yl]oxychromen-4-one

>  <PUBCHEM_IUPAC_SYSTEMATIC_NAME>
7-[6-(hydroxymethyl)-3,4,5-tris(oxidanyl)oxan-2-yl]oxy-2-(3-methoxy-4-oxidanyl-phenyl)-3,5-bis(oxidanyl)chromen-4-one

>  <PUBCHEM_IUPAC_TRADITIONAL_NAME>
3,5-dihydroxy-2-(4-hydroxy-3-methoxy-phenyl)-7-(3,4,5-trihydroxy-6-methylol-tetrahydropyran-2-yl)oxy-chromone

>  <PUBCHEM_IUPAC_INCHI>
InChI=1S/C22H22O12/c1-31-12-4-8(2-3-10(12)24)21-19(29)17(27)15-11(25)5-9(6-13(15)33-21)32-22-20(30)18(28)16(26)14(7-23)34-22/h2-6,14,16,18,20,22-26,28-30H,7H2,1H3

>  <PUBCHEM_IUPAC_INCHIKEY>
YCUNOXSUHVGZRI-UHFFFAOYSA-N

>  <PUBCHEM_XLOGP3_AA>
0.7

>  <PUBCHEM_EXACT_MASS>
478.111

>  <PUBCHEM_MOLECULAR_FORMULA>
C22H22O12

>  <PUBCHEM_MOLECULAR_WEIGHT>
478.406

>  <PUBCHEM_OPENEYE_CAN_SMILES>
COC1=C(C=CC(=C1)C2=C(C(=O)C3=C(C=C(C=C3O2)OC4C(C(C(C(O4)CO)O)O)O)O)O)O

>  <PUBCHEM_OPENEYE_ISO_SMILES>
COC1=C(C=CC(=C1)C2=C(C(=O)C3=C(C=C(C=C3O2)OC4C(C(C(C(O4)CO)O)O)O)O)O)O

>  <PUBCHEM_CACTVS_TPSA>
196

>  <PUBCHEM_MONOISOTOPIC_WEIGHT>
478.111

>  <PUBCHEM_TOTAL_CHARGE>
0

>  <PUBCHEM_HEAVY_ATOM_COUNT>
34

>  <PUBCHEM_ATOM_DEF_STEREO_COUNT>
0

>  <PUBCHEM_ATOM_UDEF_STEREO_COUNT>
5

>  <PUBCHEM_BOND_DEF_STEREO_COUNT>
0

>  <PUBCHEM_BOND_UDEF_STEREO_COUNT>
0

>  <PUBCHEM_ISOTOPIC_ATOM_COUNT>
0

>  <PUBCHEM_COMPONENT_COUNT>
1

>  <PUBCHEM_CACTVS_TAUTO_COUNT>
73

>  <PUBCHEM_COORDINATE_TYPE>
1
5
255

>  <PUBCHEM_BONDANNOTATIONS>
16  18  3
19  20  8
19  21  8
17  2  3
20  22  8
21  24  8
22  23  8
23  24  8
23  25  8
25  27  8
26  27  8
28  29  8
28  30  8
29  31  8
13  3  3
30  32  8
31  33  8
32  33  8
14  4  3
15  5  3
7  22  8
7  26  8

$$$$
