12300005
 OpenBabel06101807152D

 26 26  0  0  1  0  0  0  0  0999 V2000
    5.4641    2.7094    0.0000 O   0  0  0  0  0  0  0  0  0  0  0  0
    2.0000   -0.2906    0.0000 O   0  0  0  0  0  0  0  0  0  0  0  0
    3.3660   -3.3294    0.0000 O   0  0  0  0  0  0  0  0  0  0  0  0
    3.7320    2.7094    0.0000 O   0  0  0  0  0  0  0  0  0  0  0  0
    3.7320    0.7094    0.0000 C   0  0  0  0  0  0  0  0  0  0  0  0
    4.5981    1.2094    0.0000 C   0  0  3  0  0  0  0  0  0  0  0  0
    3.7320   -0.2906    0.0000 C   0  0  0  0  0  0  0  0  0  0  0  0
    5.4641    0.7094    0.0000 C   0  0  0  0  0  0  0  0  0  0  0  0
    2.8660   -0.7906    0.0000 C   0  0  0  0  0  0  0  0  0  0  0  0
    4.5981    2.2094    0.0000 C   0  0  0  0  0  0  0  0  0  0  0  0
    2.8660   -1.7906    0.0000 C   0  0  0  0  0  0  0  0  0  0  0  0
    2.0570   -2.3784    0.0000 C   0  0  0  0  0  0  0  0  0  0  0  0
    3.6750   -2.3784    0.0000 C   0  0  0  0  0  0  0  0  0  0  0  0
    2.3660   -3.3294    0.0000 C   0  0  0  0  0  0  0  0  0  0  0  0
    3.5200    1.2920    0.0000 H   0  0  0  0  0  0  0  0  0  0  0  0
    3.1215    0.6018    0.0000 H   0  0  0  0  0  0  0  0  0  0  0  0
    5.1350    1.5194    0.0000 H   0  0  0  0  0  0  0  0  0  0  0  0
    3.9441   -0.8732    0.0000 H   0  0  0  0  0  0  0  0  0  0  0  0
    4.3426   -0.1829    0.0000 H   0  0  0  0  0  0  0  0  0  0  0  0
    5.1541    0.1725    0.0000 H   0  0  0  0  0  0  0  0  0  0  0  0
    6.0010    0.3994    0.0000 H   0  0  0  0  0  0  0  0  0  0  0  0
    5.7741    1.2464    0.0000 H   0  0  0  0  0  0  0  0  0  0  0  0
    1.4674   -2.1868    0.0000 H   0  0  0  0  0  0  0  0  0  0  0  0
    4.2647   -2.1868    0.0000 H   0  0  0  0  0  0  0  0  0  0  0  0
    2.0016   -3.8310    0.0000 H   0  0  0  0  0  0  0  0  0  0  0  0
    5.4641    3.3294    0.0000 H   0  0  0  0  0  0  0  0  0  0  0  0
  1 10  1  0  0  0  0
  1 26  1  0  0  0  0
  2  9  2  0  0  0  0
  3 13  1  0  0  0  0
  3 14  1  0  0  0  0
  4 10  2  0  0  0  0
  5  6  1  0  0  0  0
  5  7  1  0  0  0  0
  5 15  1  0  0  0  0
  5 16  1  0  0  0  0
  6  8  1  0  0  0  0
  6 10  1  0  0  0  0
  6 17  1  0  0  0  0
  7  9  1  0  0  0  0
  7 18  1  0  0  0  0
  7 19  1  0  0  0  0
  8 20  1  0  0  0  0
  8 21  1  0  0  0  0
  8 22  1  0  0  0  0
  9 11  1  0  0  0  0
 11 12  1  0  0  0  0
 11 13  2  0  0  0  0
 12 14  2  0  0  0  0
 12 23  1  0  0  0  0
 13 24  1  0  0  0  0
 14 25  1  0  0  0  0
M  END
>  <PUBCHEM_COMPOUND_CID>
12300005

>  <PUBCHEM_COMPOUND_CANONICALIZED>
1

>  <PUBCHEM_CACTVS_COMPLEXITY>
224

>  <PUBCHEM_CACTVS_HBOND_ACCEPTOR>
4

>  <PUBCHEM_CACTVS_HBOND_DONOR>
1

>  <PUBCHEM_CACTVS_ROTATABLE_BOND>
5

>  <PUBCHEM_CACTVS_SUBSKEYS>
AAADccBwOAAAAAAAAAAAAAAAAAAAASAAAAAAAAAAAAAAAAABgAAAGgAACAAADQSgmAIyDIAABkCIAqjSiAACCAAkIAAIiAEGCMgMJhYMNQqCWWCk4BEIKYOLzuCuAAAAAAAAAAAAAAAAAAAAAAAAAAAAAA==

>  <PUBCHEM_IUPAC_OPENEYE_NAME>
5-(3-furyl)-2-methyl-5-oxo-pentanoic acid

>  <PUBCHEM_IUPAC_CAS_NAME>
5-(3-furanyl)-2-methyl-5-oxopentanoic acid

>  <PUBCHEM_IUPAC_NAME>
5-(furan-3-yl)-2-methyl-5-oxopentanoic acid

>  <PUBCHEM_IUPAC_SYSTEMATIC_NAME>
5-(furan-3-yl)-2-methyl-5-oxidanylidene-pentanoic acid

>  <PUBCHEM_IUPAC_TRADITIONAL_NAME>
5-(3-furyl)-5-keto-2-methyl-valeric acid

>  <PUBCHEM_IUPAC_INCHI>
InChI=1S/C10H12O4/c1-7(10(12)13)2-3-9(11)8-4-5-14-6-8/h4-7H,2-3H2,1H3,(H,12,13)

>  <PUBCHEM_IUPAC_INCHIKEY>
IVEUNBPJQOKPGL-UHFFFAOYSA-N

>  <PUBCHEM_XLOGP3>
1.5

>  <PUBCHEM_EXACT_MASS>
196.074

>  <PUBCHEM_MOLECULAR_FORMULA>
C10H12O4

>  <PUBCHEM_MOLECULAR_WEIGHT>
196.202

>  <PUBCHEM_OPENEYE_CAN_SMILES>
CC(CCC(=O)C1=COC=C1)C(=O)O

>  <PUBCHEM_OPENEYE_ISO_SMILES>
CC(CCC(=O)C1=COC=C1)C(=O)O

>  <PUBCHEM_CACTVS_TPSA>
67.5

>  <PUBCHEM_MONOISOTOPIC_WEIGHT>
196.074

>  <PUBCHEM_TOTAL_CHARGE>
0

>  <PUBCHEM_HEAVY_ATOM_COUNT>
14

>  <PUBCHEM_ATOM_DEF_STEREO_COUNT>
0

>  <PUBCHEM_ATOM_UDEF_STEREO_COUNT>
1

>  <PUBCHEM_BOND_DEF_STEREO_COUNT>
0

>  <PUBCHEM_BOND_UDEF_STEREO_COUNT>
0

>  <PUBCHEM_ISOTOPIC_ATOM_COUNT>
0

>  <PUBCHEM_COMPONENT_COUNT>
1

>  <PUBCHEM_CACTVS_TAUTO_COUNT>
2

>  <PUBCHEM_COORDINATE_TYPE>
1
5
255

>  <PUBCHEM_BONDANNOTATIONS>
11  12  8
11  13  8
12  14  8
3  13  8
3  14  8
6  8  3

$$$$
