12305721
 OpenBabel06101807152D

 43 44  0  0  0  0  0  0  0  0999 V2000
    6.3981    2.0223    0.0000 O   0  0  0  0  0  0  0  0  0  0  0  0
    4.6497   -2.0123    0.0000 O   0  0  0  0  0  0  0  0  0  0  0  0
    2.8680   -1.0019    0.0000 O   0  0  0  0  0  0  0  0  0  0  0  0
    8.1301   -0.9777    0.0000 O   0  0  0  0  0  0  0  0  0  0  0  0
    6.3981   -0.9777    0.0000 N   0  0  0  0  0  0  0  0  0  0  0  0
    5.5320    0.5223    0.0000 C   0  0  0  0  0  0  0  0  0  0  0  0
    7.2641    0.5223    0.0000 C   0  0  0  0  0  0  0  0  0  0  0  0
    5.5320   -0.4777    0.0000 C   0  0  0  0  0  0  0  0  0  0  0  0
    6.3981    1.0223    0.0000 C   0  0  0  0  0  0  0  0  0  0  0  0
    8.1301    1.0223    0.0000 C   0  0  0  0  0  0  0  0  0  0  0  0
    7.2641   -0.4777    0.0000 C   0  0  0  0  0  0  0  0  0  0  0  0
    4.6381   -1.0124    0.0000 C   0  0  0  0  0  0  0  0  0  0  0  0
    4.6381    1.0570    0.0000 C   0  0  0  0  0  0  0  0  0  0  0  0
    3.7320   -0.4985    0.0000 C   0  0  0  0  0  0  0  0  0  0  0  0
    3.7320    0.5431    0.0000 C   0  0  0  0  0  0  0  0  0  0  0  0
    8.9962    0.5223    0.0000 C   0  0  0  0  0  0  0  0  0  0  0  0
    9.8622    1.0223    0.0000 C   0  0  0  0  0  0  0  0  0  0  0  0
    7.2641    2.5223    0.0000 C   0  0  0  0  0  0  0  0  0  0  0  0
   10.7282    0.5223    0.0000 C   0  0  0  0  0  0  0  0  0  0  0  0
    9.8622    2.0223    0.0000 C   0  0  0  0  0  0  0  0  0  0  0  0
    3.7895   -2.5223    0.0000 C   0  0  0  0  0  0  0  0  0  0  0  0
    2.0000   -0.5052    0.0000 C   0  0  0  0  0  0  0  0  0  0  0  0
    8.5287    1.4972    0.0000 H   0  0  0  0  0  0  0  0  0  0  0  0
    7.7316    1.4972    0.0000 H   0  0  0  0  0  0  0  0  0  0  0  0
    6.3981   -1.5977    0.0000 H   0  0  0  0  0  0  0  0  0  0  0  0
    4.6453    1.6769    0.0000 H   0  0  0  0  0  0  0  0  0  0  0  0
    3.1963    0.8552    0.0000 H   0  0  0  0  0  0  0  0  0  0  0  0
    8.9962   -0.0977    0.0000 H   0  0  0  0  0  0  0  0  0  0  0  0
    7.5741    1.9854    0.0000 H   0  0  0  0  0  0  0  0  0  0  0  0
    7.8010    2.8323    0.0000 H   0  0  0  0  0  0  0  0  0  0  0  0
    6.9541    3.0592    0.0000 H   0  0  0  0  0  0  0  0  0  0  0  0
   10.4822    2.0223    0.0000 H   0  0  0  0  0  0  0  0  0  0  0  0
   10.4182   -0.0146    0.0000 H   0  0  0  0  0  0  0  0  0  0  0  0
   11.2651    0.2123    0.0000 H   0  0  0  0  0  0  0  0  0  0  0  0
   11.0382    1.0592    0.0000 H   0  0  0  0  0  0  0  0  0  0  0  0
    9.8622    2.6423    0.0000 H   0  0  0  0  0  0  0  0  0  0  0  0
    9.2422    2.0223    0.0000 H   0  0  0  0  0  0  0  0  0  0  0  0
    3.4733   -1.9890    0.0000 H   0  0  0  0  0  0  0  0  0  0  0  0
    3.2562   -2.8385    0.0000 H   0  0  0  0  0  0  0  0  0  0  0  0
    4.1057   -3.0556    0.0000 H   0  0  0  0  0  0  0  0  0  0  0  0
    2.3079    0.0329    0.0000 H   0  0  0  0  0  0  0  0  0  0  0  0
    1.4619   -0.1973    0.0000 H   0  0  0  0  0  0  0  0  0  0  0  0
    1.6921   -1.0433    0.0000 H   0  0  0  0  0  0  0  0  0  0  0  0
  1  9  1  0  0  0  0
  1 18  1  0  0  0  0
  2 12  1  0  0  0  0
  2 21  1  0  0  0  0
  3 14  1  0  0  0  0
  3 22  1  0  0  0  0
  4 11  2  0  0  0  0
  5  8  1  0  0  0  0
  5 11  1  0  0  0  0
  5 25  1  0  0  0  0
  6  8  2  0  0  0  0
  6  9  1  0  0  0  0
  6 13  1  0  0  0  0
  7  9  2  0  0  0  0
  7 10  1  0  0  0  0
  7 11  1  0  0  0  0
  8 12  1  0  0  0  0
 10 16  1  0  0  0  0
 10 23  1  0  0  0  0
 10 24  1  0  0  0  0
 12 14  2  0  0  0  0
 13 15  2  0  0  0  0
 13 26  1  0  0  0  0
 14 15  1  0  0  0  0
 15 27  1  0  0  0  0
 16 17  2  0  0  0  0
 16 28  1  0  0  0  0
 17 19  1  0  0  0  0
 17 20  1  0  0  0  0
 18 29  1  0  0  0  0
 18 30  1  0  0  0  0
 18 31  1  0  0  0  0
 19 33  1  0  0  0  0
 19 34  1  0  0  0  0
 19 35  1  0  0  0  0
 20 32  1  0  0  0  0
 20 36  1  0  0  0  0
 20 37  1  0  0  0  0
 21 38  1  0  0  0  0
 21 39  1  0  0  0  0
 21 40  1  0  0  0  0
 22 41  1  0  0  0  0
 22 42  1  0  0  0  0
 22 43  1  0  0  0  0
M  END
>  <PUBCHEM_COMPOUND_CID>
12305721

>  <PUBCHEM_COMPOUND_CANONICALIZED>
1

>  <PUBCHEM_CACTVS_COMPLEXITY>
479

>  <PUBCHEM_CACTVS_HBOND_ACCEPTOR>
4

>  <PUBCHEM_CACTVS_HBOND_DONOR>
1

>  <PUBCHEM_CACTVS_ROTATABLE_BOND>
5

>  <PUBCHEM_CACTVS_SUBSKEYS>
AAADceB6OAAAAAAAAAAAAAAAAAAAAAAAAAAwQAAAAAAAAACBAAAAHgAQAAAADAyBmAIyxoLABACIAiVSUACCCAAhIAAIiAEHzMgPJjLEsZuFMCpmxBna6QfQ8D8OIAABAgACUABAAAIEAASgAAAAAAAAAA==

>  <PUBCHEM_IUPAC_OPENEYE_NAME>
4,7,8-trimethoxy-3-(3-methylbut-2-enyl)-1H-quinolin-2-one

>  <PUBCHEM_IUPAC_CAS_NAME>
4,7,8-trimethoxy-3-(3-methylbut-2-enyl)-1H-quinolin-2-one

>  <PUBCHEM_IUPAC_NAME>
4,7,8-trimethoxy-3-(3-methylbut-2-enyl)-1H-quinolin-2-one

>  <PUBCHEM_IUPAC_SYSTEMATIC_NAME>
4,7,8-trimethoxy-3-(3-methylbut-2-enyl)-1H-quinolin-2-one

>  <PUBCHEM_IUPAC_TRADITIONAL_NAME>
4,7,8-trimethoxy-3-(3-methylbut-2-enyl)carbostyril

>  <PUBCHEM_IUPAC_INCHI>
InChI=1S/C17H21NO4/c1-10(2)6-7-12-15(21-4)11-8-9-13(20-3)16(22-5)14(11)18-17(12)19/h6,8-9H,7H2,1-5H3,(H,18,19)

>  <PUBCHEM_IUPAC_INCHIKEY>
OAEZQCLAAGSHHA-UHFFFAOYSA-N

>  <PUBCHEM_XLOGP3_AA>
2.9

>  <PUBCHEM_EXACT_MASS>
303.147

>  <PUBCHEM_MOLECULAR_FORMULA>
C17H21NO4

>  <PUBCHEM_MOLECULAR_WEIGHT>
303.358

>  <PUBCHEM_OPENEYE_CAN_SMILES>
CC(=CCC1=C(C2=C(C(=C(C=C2)OC)OC)NC1=O)OC)C

>  <PUBCHEM_OPENEYE_ISO_SMILES>
CC(=CCC1=C(C2=C(C(=C(C=C2)OC)OC)NC1=O)OC)C

>  <PUBCHEM_CACTVS_TPSA>
56.8

>  <PUBCHEM_MONOISOTOPIC_WEIGHT>
303.147

>  <PUBCHEM_TOTAL_CHARGE>
0

>  <PUBCHEM_HEAVY_ATOM_COUNT>
22

>  <PUBCHEM_ATOM_DEF_STEREO_COUNT>
0

>  <PUBCHEM_ATOM_UDEF_STEREO_COUNT>
0

>  <PUBCHEM_BOND_DEF_STEREO_COUNT>
0

>  <PUBCHEM_BOND_UDEF_STEREO_COUNT>
0

>  <PUBCHEM_ISOTOPIC_ATOM_COUNT>
0

>  <PUBCHEM_COMPONENT_COUNT>
1

>  <PUBCHEM_CACTVS_TAUTO_COUNT>
2

>  <PUBCHEM_COORDINATE_TYPE>
1
5
255

>  <PUBCHEM_BONDANNOTATIONS>
12  14  8
13  15  8
14  15  8
5  11  8
5  8  8
6  13  8
6  8  8
6  9  8
7  11  8
7  9  8
8  12  8

$$$$
