12314123
 OpenBabel06101807152D

 49 50  0  0  0  0  0  0  0  0999 V2000
    2.5369   -3.5000    0.0000 O   0  0  0  0  0  0  0  0  0  0  0  0
    2.5369   -1.5000    0.0000 O   0  0  0  0  0  0  0  0  0  0  0  0
    5.1350    4.0000    0.0000 O   0  0  0  0  0  0  0  0  0  0  0  0
    7.7331   -1.5000    0.0000 N   0  0  0  0  0  0  0  0  0  0  0  0
    6.0010   -1.5000    0.0000 C   0  0  0  0  0  0  0  0  0  0  0  0
    5.1350   -2.0000    0.0000 C   0  0  0  0  0  0  0  0  0  0  0  0
    6.8671   -2.0000    0.0000 C   0  0  0  0  0  0  0  0  0  0  0  0
    4.2690   -1.5000    0.0000 C   0  0  0  0  0  0  0  0  0  0  0  0
    5.1350   -3.0000    0.0000 C   0  0  0  0  0  0  0  0  0  0  0  0
    3.4030   -2.0000    0.0000 C   0  0  0  0  0  0  0  0  0  0  0  0
    3.4030   -3.0000    0.0000 C   0  0  0  0  0  0  0  0  0  0  0  0
    4.2690   -3.5000    0.0000 C   0  0  0  0  0  0  0  0  0  0  0  0
    4.2690   -0.5000    0.0000 C   0  0  0  0  0  0  0  0  0  0  0  0
    8.5991   -2.0000    0.0000 C   0  0  0  0  0  0  0  0  0  0  0  0
    7.7331   -0.5000    0.0000 C   0  0  0  0  0  0  0  0  0  0  0  0
    5.1350    0.0000    0.0000 C   0  0  0  0  0  0  0  0  0  0  0  0
    5.1350    1.0000    0.0000 C   0  0  0  0  0  0  0  0  0  0  0  0
    6.0010    1.5000    0.0000 C   0  0  0  0  0  0  0  0  0  0  0  0
    4.2690    1.5000    0.0000 C   0  0  0  0  0  0  0  0  0  0  0  0
    6.0010    2.5000    0.0000 C   0  0  0  0  0  0  0  0  0  0  0  0
    4.2690    2.5000    0.0000 C   0  0  0  0  0  0  0  0  0  0  0  0
    5.1350    3.0000    0.0000 C   0  0  0  0  0  0  0  0  0  0  0  0
    2.5369   -4.5000    0.0000 C   0  0  0  0  0  0  0  0  0  0  0  0
    6.0010    4.5000    0.0000 C   0  0  0  0  0  0  0  0  0  0  0  0
    6.3996   -1.0250    0.0000 H   0  0  0  0  0  0  0  0  0  0  0  0
    5.6025   -1.0250    0.0000 H   0  0  0  0  0  0  0  0  0  0  0  0
    6.4685   -2.4750    0.0000 H   0  0  0  0  0  0  0  0  0  0  0  0
    7.2656   -2.4750    0.0000 H   0  0  0  0  0  0  0  0  0  0  0  0
    5.6720   -3.3100    0.0000 H   0  0  0  0  0  0  0  0  0  0  0  0
    4.2690   -4.1200    0.0000 H   0  0  0  0  0  0  0  0  0  0  0  0
    3.7320   -0.1900    0.0000 H   0  0  0  0  0  0  0  0  0  0  0  0
    8.2891   -2.5369    0.0000 H   0  0  0  0  0  0  0  0  0  0  0  0
    8.3531   -0.5000    0.0000 H   0  0  0  0  0  0  0  0  0  0  0  0
    7.7331    0.1200    0.0000 H   0  0  0  0  0  0  0  0  0  0  0  0
    7.1131   -0.5000    0.0000 H   0  0  0  0  0  0  0  0  0  0  0  0
    9.1360   -2.3100    0.0000 H   0  0  0  0  0  0  0  0  0  0  0  0
    8.9091   -1.4631    0.0000 H   0  0  0  0  0  0  0  0  0  0  0  0
    5.6720   -0.3100    0.0000 H   0  0  0  0  0  0  0  0  0  0  0  0
    2.0000   -1.8100    0.0000 H   0  0  0  0  0  0  0  0  0  0  0  0
    6.5380    1.1900    0.0000 H   0  0  0  0  0  0  0  0  0  0  0  0
    3.7320    1.1900    0.0000 H   0  0  0  0  0  0  0  0  0  0  0  0
    6.5380    2.8100    0.0000 H   0  0  0  0  0  0  0  0  0  0  0  0
    3.7320    2.8100    0.0000 H   0  0  0  0  0  0  0  0  0  0  0  0
    1.9169   -4.5000    0.0000 H   0  0  0  0  0  0  0  0  0  0  0  0
    2.5369   -5.1200    0.0000 H   0  0  0  0  0  0  0  0  0  0  0  0
    3.1569   -4.5000    0.0000 H   0  0  0  0  0  0  0  0  0  0  0  0
    6.3110    3.9631    0.0000 H   0  0  0  0  0  0  0  0  0  0  0  0
    6.5380    4.8100    0.0000 H   0  0  0  0  0  0  0  0  0  0  0  0
    5.6910    5.0369    0.0000 H   0  0  0  0  0  0  0  0  0  0  0  0
  1 11  1  0  0  0  0
  1 23  1  0  0  0  0
  2 10  1  0  0  0  0
  2 39  1  0  0  0  0
  3 22  1  0  0  0  0
  3 24  1  0  0  0  0
  4  7  1  0  0  0  0
  4 14  1  0  0  0  0
  4 15  1  0  0  0  0
  5  6  1  0  0  0  0
  5  7  1  0  0  0  0
  5 25  1  0  0  0  0
  5 26  1  0  0  0  0
  6  8  2  0  0  0  0
  6  9  1  0  0  0  0
  7 27  1  0  0  0  0
  7 28  1  0  0  0  0
  8 10  1  0  0  0  0
  8 13  1  0  0  0  0
  9 12  2  0  0  0  0
  9 29  1  0  0  0  0
 10 11  2  0  0  0  0
 11 12  1  0  0  0  0
 12 30  1  0  0  0  0
 13 16  2  0  0  0  0
 13 31  1  0  0  0  0
 14 32  1  0  0  0  0
 14 36  1  0  0  0  0
 14 37  1  0  0  0  0
 15 33  1  0  0  0  0
 15 34  1  0  0  0  0
 15 35  1  0  0  0  0
 16 17  1  0  0  0  0
 16 38  1  0  0  0  0
 17 18  2  0  0  0  0
 17 19  1  0  0  0  0
 18 20  1  0  0  0  0
 18 40  1  0  0  0  0
 19 21  2  0  0  0  0
 19 41  1  0  0  0  0
 20 22  2  0  0  0  0
 20 42  1  0  0  0  0
 21 22  1  0  0  0  0
 21 43  1  0  0  0  0
 23 44  1  0  0  0  0
 23 45  1  0  0  0  0
 23 46  1  0  0  0  0
 24 47  1  0  0  0  0
 24 48  1  0  0  0  0
 24 49  1  0  0  0  0
M  END
>  <PUBCHEM_COMPOUND_CID>
12314123

>  <PUBCHEM_COMPOUND_CANONICALIZED>
1

>  <PUBCHEM_CACTVS_COMPLEXITY>
377

>  <PUBCHEM_CACTVS_HBOND_ACCEPTOR>
4

>  <PUBCHEM_CACTVS_HBOND_DONOR>
1

>  <PUBCHEM_CACTVS_ROTATABLE_BOND>
7

>  <PUBCHEM_CACTVS_SUBSKEYS>
AAADceB6MAAAAAAAAAAAAAAAAAAAAAAAAAAwYAAAAAAAAAABQAAAHgAACAAADATBmAYyBoMABgCAAiBCAAACCAAgIAAIiAAOiIgNJiKGsRuEcCMkwBELuAeQ0LIOoAABAAAYQABAAAIAADCAAAAAAAAAAA==

>  <PUBCHEM_IUPAC_OPENEYE_NAME>
3-[2-(dimethylamino)ethyl]-6-methoxy-2-[(E)-2-(4-methoxyphenyl)vinyl]phenol

>  <PUBCHEM_IUPAC_CAS_NAME>
3-[2-(dimethylamino)ethyl]-6-methoxy-2-[(E)-2-(4-methoxyphenyl)ethenyl]phenol

>  <PUBCHEM_IUPAC_NAME>
3-[2-(dimethylamino)ethyl]-6-methoxy-2-[(E)-2-(4-methoxyphenyl)ethenyl]phenol

>  <PUBCHEM_IUPAC_SYSTEMATIC_NAME>
3-[2-(dimethylamino)ethyl]-6-methoxy-2-[(E)-2-(4-methoxyphenyl)ethenyl]phenol

>  <PUBCHEM_IUPAC_TRADITIONAL_NAME>
3-[2-(dimethylamino)ethyl]-6-methoxy-2-[(E)-2-(4-methoxyphenyl)vinyl]phenol

>  <PUBCHEM_IUPAC_INCHI>
InChI=1S/C20H25NO3/c1-21(2)14-13-16-8-12-19(24-4)20(22)18(16)11-7-15-5-9-17(23-3)10-6-15/h5-12,22H,13-14H2,1-4H3/b11-7+

>  <PUBCHEM_IUPAC_INCHIKEY>
GVZVHYFESLXAML-YRNVUSSQSA-N

>  <PUBCHEM_XLOGP3_AA>
4.1

>  <PUBCHEM_EXACT_MASS>
327.183

>  <PUBCHEM_MOLECULAR_FORMULA>
C20H25NO3

>  <PUBCHEM_MOLECULAR_WEIGHT>
327.424

>  <PUBCHEM_OPENEYE_CAN_SMILES>
CN(C)CCC1=C(C(=C(C=C1)OC)O)C=CC2=CC=C(C=C2)OC

>  <PUBCHEM_OPENEYE_ISO_SMILES>
CN(C)CCC1=C(C(=C(C=C1)OC)O)/C=C/C2=CC=C(C=C2)OC

>  <PUBCHEM_CACTVS_TPSA>
41.9

>  <PUBCHEM_MONOISOTOPIC_WEIGHT>
327.183

>  <PUBCHEM_TOTAL_CHARGE>
0

>  <PUBCHEM_HEAVY_ATOM_COUNT>
24

>  <PUBCHEM_ATOM_DEF_STEREO_COUNT>
0

>  <PUBCHEM_ATOM_UDEF_STEREO_COUNT>
0

>  <PUBCHEM_BOND_DEF_STEREO_COUNT>
1

>  <PUBCHEM_BOND_UDEF_STEREO_COUNT>
0

>  <PUBCHEM_ISOTOPIC_ATOM_COUNT>
0

>  <PUBCHEM_COMPONENT_COUNT>
1

>  <PUBCHEM_CACTVS_TAUTO_COUNT>
13

>  <PUBCHEM_COORDINATE_TYPE>
1
5
255

>  <PUBCHEM_BONDANNOTATIONS>
10  11  8
11  12  8
17  18  8
17  19  8
18  20  8
19  21  8
20  22  8
21  22  8
6  8  8
6  9  8
8  10  8
9  12  8

$$$$
