12310173
 OpenBabel06101807152D

 52 55  0  0  1  0  0  0  0  0999 V2000
    6.7168   -0.4158    0.0000 O   0  0  0  0  0  0  0  0  0  0  0  0
    5.5177   -1.6657    0.0000 O   0  0  0  0  0  0  0  0  0  0  0  0
    2.6346   -2.5532    0.0000 O   0  0  0  0  0  0  0  0  0  0  0  0
    4.3664   -2.5835    0.0000 O   0  0  0  0  0  0  0  0  0  0  0  0
    5.1708    0.9824    0.0000 C   0  0  3  0  0  0  0  0  0  0  0  0
    4.2699    1.4163    0.0000 C   0  0  3  0  0  0  0  0  0  0  0  0
    3.5848    0.6960    0.0000 C   0  0  3  0  0  0  0  0  0  0  0  0
    4.0566   -0.1790    0.0000 C   0  0  3  0  0  0  0  0  0  0  0  0
    5.0349   -0.0023    0.0000 C   0  0  3  0  0  0  0  0  0  0  0  0
    5.0640    2.1592    0.0000 C   0  0  0  0  0  0  0  0  0  0  0  0
    6.0718    1.4163    0.0000 C   0  0  0  0  0  0  0  0  0  0  0  0
    3.5267   -1.0686    0.0000 C   0  0  3  0  0  0  0  0  0  0  0  0
    5.6708    3.1731    0.0000 C   0  0  3  0  0  0  0  0  0  0  0  0
    4.0474    2.3912    0.0000 C   0  0  0  0  0  0  0  0  0  0  0  0
    2.5503    0.7421    0.0000 C   0  0  0  0  0  0  0  0  0  0  0  0
    4.6708    3.1731    0.0000 C   0  0  0  0  0  0  0  0  0  0  0  0
    6.2943    2.3912    0.0000 C   0  0  0  0  0  0  0  0  0  0  0  0
    3.1102    1.5762    0.0000 C   0  0  0  0  0  0  0  0  0  0  0  0
    2.4915   -1.0465    0.0000 C   0  0  0  0  0  0  0  0  0  0  0  0
    2.0000   -0.1350    0.0000 C   0  0  0  0  0  0  0  0  0  0  0  0
    5.7565   -0.6946    0.0000 C   0  0  0  0  0  0  0  0  0  0  0  0
    4.3838   -1.5836    0.0000 C   0  0  0  0  0  0  0  0  0  0  0  0
    3.5092   -2.0684    0.0000 C   0  0  0  0  0  0  0  0  0  0  0  0
    7.2693    2.6138    0.0000 C   0  0  0  0  0  0  0  0  0  0  0  0
    3.6720    1.5805    0.0000 H   0  0  0  0  0  0  0  0  0  0  0  0
    4.4098   -0.6885    0.0000 H   0  0  0  0  0  0  0  0  0  0  0  0
    4.8558   -0.5959    0.0000 H   0  0  0  0  0  0  0  0  0  0  0  0
    4.6562    2.6262    0.0000 H   0  0  0  0  0  0  0  0  0  0  0  0
    4.4940    1.9154    0.0000 H   0  0  0  0  0  0  0  0  0  0  0  0
    6.2098    0.8119    0.0000 H   0  0  0  0  0  0  0  0  0  0  0  0
    6.6918    1.4163    0.0000 H   0  0  0  0  0  0  0  0  0  0  0  0
    5.9399    3.7317    0.0000 H   0  0  0  0  0  0  0  0  0  0  0  0
    3.6608    2.8760    0.0000 H   0  0  0  0  0  0  0  0  0  0  0  0
    3.4888    2.1222    0.0000 H   0  0  0  0  0  0  0  0  0  0  0  0
    2.6835    1.3476    0.0000 H   0  0  0  0  0  0  0  0  0  0  0  0
    1.9765    0.9769    0.0000 H   0  0  0  0  0  0  0  0  0  0  0  0
    4.8088    3.7775    0.0000 H   0  0  0  0  0  0  0  0  0  0  0  0
    4.1123    3.4421    0.0000 H   0  0  0  0  0  0  0  0  0  0  0  0
    3.6559    1.8705    0.0000 H   0  0  0  0  0  0  0  0  0  0  0  0
    2.8159    2.1219    0.0000 H   0  0  0  0  0  0  0  0  0  0  0  0
    2.5644    1.2819    0.0000 H   0  0  0  0  0  0  0  0  0  0  0  0
    1.9034   -1.2430    0.0000 H   0  0  0  0  0  0  0  0  0  0  0  0
    2.5845   -1.6594    0.0000 H   0  0  0  0  0  0  0  0  0  0  0  0
    1.5390    0.2795    0.0000 H   0  0  0  0  0  0  0  0  0  0  0  0
    1.5127   -0.5184    0.0000 H   0  0  0  0  0  0  0  0  0  0  0  0
    4.0645   -2.1150    0.0000 H   0  0  0  0  0  0  0  0  0  0  0  0
    4.9153   -1.9030    0.0000 H   0  0  0  0  0  0  0  0  0  0  0  0
    4.7032   -1.0522    0.0000 H   0  0  0  0  0  0  0  0  0  0  0  0
    7.6910    2.1593    0.0000 H   0  0  0  0  0  0  0  0  0  0  0  0
    7.4520    3.2062    0.0000 H   0  0  0  0  0  0  0  0  0  0  0  0
    7.1642   -0.8451    0.0000 H   0  0  0  0  0  0  0  0  0  0  0  0
    2.6237   -3.1731    0.0000 H   0  0  0  0  0  0  0  0  0  0  0  0
  1 21  1  0  0  0  0
  1 51  1  0  0  0  0
  2 21  2  0  0  0  0
  3 23  1  0  0  0  0
  3 52  1  0  0  0  0
  4 23  2  0  0  0  0
  5  6  1  0  0  0  0
  5  9  1  0  0  0  0
  5 10  1  0  0  0  0
  5 11  1  0  0  0  0
  6  7  1  0  0  0  0
  6 14  1  0  0  0  0
  6 25  1  0  0  0  0
  7  8  1  0  0  0  0
  7 15  1  0  0  0  0
  7 18  1  0  0  0  0
  8  9  1  0  0  0  0
  8 12  1  0  0  0  0
  8 26  1  0  0  0  0
  9 21  1  0  0  0  0
  9 27  1  0  0  0  0
 10 13  1  0  0  0  0
 10 28  1  0  0  0  0
 10 29  1  0  0  0  0
 11 17  1  0  0  0  0
 11 30  1  0  0  0  0
 11 31  1  0  0  0  0
 12 19  1  0  0  0  0
 12 22  1  0  0  0  0
 12 23  1  0  0  0  0
 13 16  1  0  0  0  0
 13 17  1  0  0  0  0
 13 32  1  0  0  0  0
 14 16  1  0  0  0  0
 14 33  1  0  0  0  0
 14 34  1  0  0  0  0
 15 20  1  0  0  0  0
 15 35  1  0  0  0  0
 15 36  1  0  0  0  0
 16 37  1  0  0  0  0
 16 38  1  0  0  0  0
 17 24  2  0  0  0  0
 18 39  1  0  0  0  0
 18 40  1  0  0  0  0
 18 41  1  0  0  0  0
 19 20  1  0  0  0  0
 19 42  1  0  0  0  0
 19 43  1  0  0  0  0
 20 44  1  0  0  0  0
 20 45  1  0  0  0  0
 22 46  1  0  0  0  0
 22 47  1  0  0  0  0
 22 48  1  0  0  0  0
 24 49  1  0  0  0  0
 24 50  1  0  0  0  0
M  END
>  <PUBCHEM_COMPOUND_CID>
12310173

>  <PUBCHEM_COMPOUND_CANONICALIZED>
1

>  <PUBCHEM_CACTVS_COMPLEXITY>
640

>  <PUBCHEM_CACTVS_HBOND_ACCEPTOR>
4

>  <PUBCHEM_CACTVS_HBOND_DONOR>
2

>  <PUBCHEM_CACTVS_ROTATABLE_BOND>
2

>  <PUBCHEM_CACTVS_SUBSKEYS>
AAADceB4OAAAAAAAAAAAAAAAAAAAAYMAAAAwYAAABgAAAGDAAAAAGgAACAAADwCAgAACCAAAAgCIAgDSCAAAAAAgAAAAAAEAAAgAABIAAQAAQAAEgAAAAAGI7vCPgAAAAAAAAACAAAQAACAAAQAACAAAAA==

>  <PUBCHEM_IUPAC_INCHI>
InChI=1S/C20H28O4/c1-11-9-20-10-12(11)5-6-13(20)18(2)7-4-8-19(3,17(23)24)15(18)14(20)16(21)22/h12-15H,1,4-10H2,2-3H3,(H,21,22)(H,23,24)

>  <PUBCHEM_IUPAC_INCHIKEY>
UJFQJDAESQJXTG-UHFFFAOYSA-N

>  <PUBCHEM_XLOGP3_AA>
3.9

>  <PUBCHEM_EXACT_MASS>
332.199

>  <PUBCHEM_MOLECULAR_FORMULA>
C20H28O4

>  <PUBCHEM_MOLECULAR_WEIGHT>
332.44

>  <PUBCHEM_OPENEYE_CAN_SMILES>
CC12CCCC(C1C(C34C2CCC(C3)C(=C)C4)C(=O)O)(C)C(=O)O

>  <PUBCHEM_OPENEYE_ISO_SMILES>
CC12CCCC(C1C(C34C2CCC(C3)C(=C)C4)C(=O)O)(C)C(=O)O

>  <PUBCHEM_CACTVS_TPSA>
74.6

>  <PUBCHEM_MONOISOTOPIC_WEIGHT>
332.199

>  <PUBCHEM_TOTAL_CHARGE>
0

>  <PUBCHEM_HEAVY_ATOM_COUNT>
24

>  <PUBCHEM_ATOM_DEF_STEREO_COUNT>
0

>  <PUBCHEM_ATOM_UDEF_STEREO_COUNT>
7

>  <PUBCHEM_BOND_DEF_STEREO_COUNT>
0

>  <PUBCHEM_BOND_UDEF_STEREO_COUNT>
0

>  <PUBCHEM_ISOTOPIC_ATOM_COUNT>
0

>  <PUBCHEM_COMPONENT_COUNT>
1

>  <PUBCHEM_CACTVS_TAUTO_COUNT>
1

>  <PUBCHEM_COORDINATE_TYPE>
1
5
255

>  <PUBCHEM_BONDANNOTATIONS>
13  10  3
12  22  3
5  10  3
6  14  3
7  18  3
8  12  3
9  21  3

$$$$
