12310158
 OpenBabel06101807152D

 46 50  0  0  1  0  0  0  0  0999 V2000
    5.8776    0.5374    0.0000 O   0  0  0  0  0  0  0  0  0  0  0  0
    2.1162   -1.7746    0.0000 O   0  0  0  0  0  0  0  0  0  0  0  0
    4.8007    1.7658    0.0000 O   0  0  0  0  0  0  0  0  0  0  0  0
    8.2994    1.0940    0.0000 O   0  0  0  0  0  0  0  0  0  0  0  0
    6.5267    1.6203    0.0000 O   0  0  0  0  0  0  0  0  0  0  0  0
    4.8095   -0.3508    0.0000 C   0  0  3  0  0  0  0  0  0  0  0  0
    5.1114   -1.2180    0.0000 C   0  0  3  0  0  0  0  0  0  0  0  0
    6.0235   -1.1965    0.0000 C   0  0  3  0  0  0  0  0  0  0  0  0
    6.2865   -0.3224    0.0000 C   0  0  3  0  0  0  0  0  0  0  0  0
    5.5377    0.1984    0.0000 C   0  0  3  0  0  0  0  0  0  0  0  0
    4.1135   -1.1832    0.0000 C   0  0  0  0  0  0  0  0  0  0  0  0
    3.0606   -1.4458    0.0000 C   0  0  3  0  0  0  0  0  0  0  0  0
    7.2038   -0.1064    0.0000 C   0  0  3  0  0  0  0  0  0  0  0  0
    3.9426   -0.0462    0.0000 C   0  0  0  0  0  0  0  0  0  0  0  0
    4.6212   -1.9946    0.0000 C   0  0  0  0  0  0  0  0  0  0  0  0
    3.7088   -2.0958    0.0000 C   0  0  0  0  0  0  0  0  0  0  0  0
    6.6612   -1.9110    0.0000 C   0  0  0  0  0  0  0  0  0  0  0  0
    3.1650   -0.5332    0.0000 C   0  0  0  0  0  0  0  0  0  0  0  0
    7.4686    0.5374    0.0000 C   0  0  0  0  0  0  0  0  0  0  0  0
    5.6217    1.1949    0.0000 C   0  0  0  0  0  0  0  0  0  0  0  0
    7.8489   -0.7926    0.0000 C   0  0  0  0  0  0  0  0  0  0  0  0
    7.5774   -1.6953    0.0000 C   0  0  0  0  0  0  0  0  0  0  0  0
    8.1872    0.0748    0.0000 C   0  0  0  0  0  0  0  0  0  0  0  0
    2.3614    0.0619    0.0000 C   0  0  0  0  0  0  0  0  0  0  0  0
    5.4171   -1.7574    0.0000 H   0  0  0  0  0  0  0  0  0  0  0  0
    6.4025    0.2866    0.0000 H   0  0  0  0  0  0  0  0  0  0  0  0
    4.9949    0.4980    0.0000 H   0  0  0  0  0  0  0  0  0  0  0  0
    4.0706   -1.8018    0.0000 H   0  0  0  0  0  0  0  0  0  0  0  0
    4.6886   -1.4148    0.0000 H   0  0  0  0  0  0  0  0  0  0  0  0
    4.2732    0.4783    0.0000 H   0  0  0  0  0  0  0  0  0  0  0  0
    3.5048    0.3928    0.0000 H   0  0  0  0  0  0  0  0  0  0  0  0
    4.5506   -2.6105    0.0000 H   0  0  0  0  0  0  0  0  0  0  0  0
    5.2060   -2.2005    0.0000 H   0  0  0  0  0  0  0  0  0  0  0  0
    3.1834   -2.4249    0.0000 H   0  0  0  0  0  0  0  0  0  0  0  0
    3.9127   -2.6813    0.0000 H   0  0  0  0  0  0  0  0  0  0  0  0
    6.1369   -2.2419    0.0000 H   0  0  0  0  0  0  0  0  0  0  0  0
    6.9010   -2.4828    0.0000 H   0  0  0  0  0  0  0  0  0  0  0  0
    8.4524   -0.6505    0.0000 H   0  0  0  0  0  0  0  0  0  0  0  0
    8.0023   -2.1468    0.0000 H   0  0  0  0  0  0  0  0  0  0  0  0
    8.2995   -0.5350    0.0000 H   0  0  0  0  0  0  0  0  0  0  0  0
    8.7969    0.1871    0.0000 H   0  0  0  0  0  0  0  0  0  0  0  0
    8.0749    0.6845    0.0000 H   0  0  0  0  0  0  0  0  0  0  0  0
    2.0000   -2.3836    0.0000 H   0  0  0  0  0  0  0  0  0  0  0  0
    2.4318    0.6779    0.0000 H   0  0  0  0  0  0  0  0  0  0  0  0
    1.7927   -0.1851    0.0000 H   0  0  0  0  0  0  0  0  0  0  0  0
    4.8528    2.3836    0.0000 H   0  0  0  0  0  0  0  0  0  0  0  0
  1  8  1  0  0  0  0
  1 19  1  0  0  0  0
  2 12  1  0  0  0  0
  2 43  1  0  0  0  0
  3 20  1  0  0  0  0
  3 46  1  0  0  0  0
  4 19  2  0  0  0  0
  5 20  2  0  0  0  0
  6  7  1  0  0  0  0
  6 10  1  0  0  0  0
  6 11  1  0  0  0  0
  6 14  1  0  0  0  0
  7  8  1  0  0  0  0
  7 15  1  0  0  0  0
  7 25  1  0  0  0  0
  8  9  1  0  0  0  0
  8 17  1  0  0  0  0
  9 10  1  0  0  0  0
  9 13  1  0  0  0  0
  9 26  1  0  0  0  0
 10 20  1  0  0  0  0
 10 27  1  0  0  0  0
 11 12  1  0  0  0  0
 11 28  1  0  0  0  0
 11 29  1  0  0  0  0
 12 16  1  0  0  0  0
 12 18  1  0  0  0  0
 13 19  1  0  0  0  0
 13 21  1  0  0  0  0
 13 23  1  0  0  0  0
 14 18  1  0  0  0  0
 14 30  1  0  0  0  0
 14 31  1  0  0  0  0
 15 16  1  0  0  0  0
 15 32  1  0  0  0  0
 15 33  1  0  0  0  0
 16 34  1  0  0  0  0
 16 35  1  0  0  0  0
 17 22  1  0  0  0  0
 17 36  1  0  0  0  0
 17 37  1  0  0  0  0
 18 24  2  0  0  0  0
 21 22  2  0  0  0  0
 21 38  1  0  0  0  0
 22 39  1  0  0  0  0
 23 40  1  0  0  0  0
 23 41  1  0  0  0  0
 23 42  1  0  0  0  0
 24 44  1  0  0  0  0
 24 45  1  0  0  0  0
M  END
>  <PUBCHEM_COMPOUND_CID>
12310158

>  <PUBCHEM_COMPOUND_CANONICALIZED>
1

>  <PUBCHEM_CACTVS_COMPLEXITY>
740

>  <PUBCHEM_CACTVS_HBOND_ACCEPTOR>
5

>  <PUBCHEM_CACTVS_HBOND_DONOR>
2

>  <PUBCHEM_CACTVS_ROTATABLE_BOND>
1

>  <PUBCHEM_CACTVS_SUBSKEYS>
AAADceB4OAAAAAAAAAAAAAAAAAAAAaMEAAAwQAAABggSAGDAAAAAGgAACAAAD0SAgAACCAAABgCIAiDSCAAAAAAgAAAICAEAAAgABBIAAQACQAAEwAAIEAPK7vzPgAAAAAAAAADAAAYAACAAAYAADAAAAA==

>  <PUBCHEM_IUPAC_INCHI>
InChI=1S/C19H22O5/c1-10-8-17-9-18(10,23)7-4-11(17)19-6-3-5-16(2,15(22)24-19)13(19)12(17)14(20)21/h3,5,11-13,23H,1,4,6-9H2,2H3,(H,20,21)

>  <PUBCHEM_IUPAC_INCHIKEY>
ZOWHLBOPCIHIHW-UHFFFAOYSA-N

>  <PUBCHEM_XLOGP3_AA>
1.2

>  <PUBCHEM_EXACT_MASS>
330.147

>  <PUBCHEM_MOLECULAR_FORMULA>
C19H22O5

>  <PUBCHEM_MOLECULAR_WEIGHT>
330.38

>  <PUBCHEM_OPENEYE_CAN_SMILES>
CC12C=CCC3(C1C(C45C3CCC(C4)(C(=C)C5)O)C(=O)O)OC2=O

>  <PUBCHEM_OPENEYE_ISO_SMILES>
CC12C=CCC3(C1C(C45C3CCC(C4)(C(=C)C5)O)C(=O)O)OC2=O

>  <PUBCHEM_CACTVS_TPSA>
83.8

>  <PUBCHEM_MONOISOTOPIC_WEIGHT>
330.147

>  <PUBCHEM_TOTAL_CHARGE>
0

>  <PUBCHEM_HEAVY_ATOM_COUNT>
24

>  <PUBCHEM_ATOM_DEF_STEREO_COUNT>
0

>  <PUBCHEM_ATOM_UDEF_STEREO_COUNT>
7

>  <PUBCHEM_BOND_DEF_STEREO_COUNT>
0

>  <PUBCHEM_BOND_UDEF_STEREO_COUNT>
0

>  <PUBCHEM_ISOTOPIC_ATOM_COUNT>
0

>  <PUBCHEM_COMPONENT_COUNT>
1

>  <PUBCHEM_CACTVS_TAUTO_COUNT>
1

>  <PUBCHEM_COORDINATE_TYPE>
1
5
255

>  <PUBCHEM_BONDANNOTATIONS>
10  20  3
13  23  3
12  2  3
6  11  3
7  15  3
8  17  3
9  10  3

$$$$
