12310160
 OpenBabel06101807152D

 47 52  0  0  1  0  0  0  0  0999 V2000
    5.7614   -0.1815    0.0000 O   0  0  0  0  0  0  0  0  0  0  0  0
    8.7646   -1.5869    0.0000 O   0  0  0  0  0  0  0  0  0  0  0  0
    2.1286   -1.7462    0.0000 O   0  0  0  0  0  0  0  0  0  0  0  0
    7.3427    1.2479    0.0000 O   0  0  0  0  0  0  0  0  0  0  0  0
    4.8417    1.7327    0.0000 O   0  0  0  0  0  0  0  0  0  0  0  0
    6.0502    2.1712    0.0000 O   0  0  0  0  0  0  0  0  0  0  0  0
    6.1853   -1.2387    0.0000 C   0  0  3  0  0  0  0  0  0  0  0  0
    6.4789   -0.3301    0.0000 C   0  0  3  0  0  0  0  0  0  0  0  0
    4.9326   -0.3285    0.0000 C   0  0  3  0  0  0  0  0  0  0  0  0
    5.2297   -1.2422    0.0000 C   0  0  3  0  0  0  0  0  0  0  0  0
    7.4429   -0.1236    0.0000 C   0  0  3  0  0  0  0  0  0  0  0  0
    5.7063    0.2318    0.0000 C   0  0  3  0  0  0  0  0  0  0  0  0
    8.1038   -0.8552    0.0000 C   0  0  3  0  0  0  0  0  0  0  0  0
    6.8365   -1.9999    0.0000 C   0  0  0  0  0  0  0  0  0  0  0  0
    7.8006   -1.7934    0.0000 C   0  0  3  0  0  0  0  0  0  0  0  0
    4.1868   -1.1843    0.0000 C   0  0  0  0  0  0  0  0  0  0  0  0
    4.7012   -2.0442    0.0000 C   0  0  0  0  0  0  0  0  0  0  0  0
    4.0324    0.0085    0.0000 C   0  0  0  0  0  0  0  0  0  0  0  0
    3.0796   -1.4368    0.0000 C   0  0  3  0  0  0  0  0  0  0  0  0
    6.6816    0.4977    0.0000 C   0  0  0  0  0  0  0  0  0  0  0  0
    3.7441   -2.1307    0.0000 C   0  0  0  0  0  0  0  0  0  0  0  0
    3.2085   -0.4847    0.0000 C   0  0  0  0  0  0  0  0  0  0  0  0
    8.1321    0.6011    0.0000 C   0  0  0  0  0  0  0  0  0  0  0  0
    5.7073    1.2318    0.0000 C   0  0  0  0  0  0  0  0  0  0  0  0
    2.4549    0.1727    0.0000 C   0  0  0  0  0  0  0  0  0  0  0  0
    6.8945   -0.7901    0.0000 H   0  0  0  0  0  0  0  0  0  0  0  0
    5.5247   -1.7875    0.0000 H   0  0  0  0  0  0  0  0  0  0  0  0
    6.2589    0.5129    0.0000 H   0  0  0  0  0  0  0  0  0  0  0  0
    8.5639   -0.4397    0.0000 H   0  0  0  0  0  0  0  0  0  0  0  0
    6.3055   -2.3198    0.0000 H   0  0  0  0  0  0  0  0  0  0  0  0
    7.0645   -2.5764    0.0000 H   0  0  0  0  0  0  0  0  0  0  0  0
    7.9304   -2.3997    0.0000 H   0  0  0  0  0  0  0  0  0  0  0  0
    4.1314   -1.8018    0.0000 H   0  0  0  0  0  0  0  0  0  0  0  0
    4.7571   -1.4276    0.0000 H   0  0  0  0  0  0  0  0  0  0  0  0
    4.6182   -2.6586    0.0000 H   0  0  0  0  0  0  0  0  0  0  0  0
    5.2818   -2.2617    0.0000 H   0  0  0  0  0  0  0  0  0  0  0  0
    4.3736    0.5262    0.0000 H   0  0  0  0  0  0  0  0  0  0  0  0
    3.6036    0.4562    0.0000 H   0  0  0  0  0  0  0  0  0  0  0  0
    3.2120   -2.4490    0.0000 H   0  0  0  0  0  0  0  0  0  0  0  0
    3.9360   -2.7202    0.0000 H   0  0  0  0  0  0  0  0  0  0  0  0
    8.5813    0.1738    0.0000 H   0  0  0  0  0  0  0  0  0  0  0  0
    8.5593    1.0503    0.0000 H   0  0  0  0  0  0  0  0  0  0  0  0
    7.6828    1.0283    0.0000 H   0  0  0  0  0  0  0  0  0  0  0  0
    2.0000   -2.3527    0.0000 H   0  0  0  0  0  0  0  0  0  0  0  0
    2.5743    0.7811    0.0000 H   0  0  0  0  0  0  0  0  0  0  0  0
    1.8684   -0.0281    0.0000 H   0  0  0  0  0  0  0  0  0  0  0  0
    4.8424    2.3527    0.0000 H   0  0  0  0  0  0  0  0  0  0  0  0
  1  7  1  0  0  0  0
  1 20  1  0  0  0  0
  2 13  1  0  0  0  0
  2 15  1  0  0  0  0
  3 19  1  0  0  0  0
  3 44  1  0  0  0  0
  4 20  2  0  0  0  0
  5 24  1  0  0  0  0
  5 47  1  0  0  0  0
  6 24  2  0  0  0  0
  7  8  1  0  0  0  0
  7 10  1  0  0  0  0
  7 14  1  0  0  0  0
  8 11  1  0  0  0  0
  8 12  1  0  0  0  0
  8 26  1  0  0  0  0
  9 10  1  0  0  0  0
  9 12  1  0  0  0  0
  9 16  1  0  0  0  0
  9 18  1  0  0  0  0
 10 17  1  0  0  0  0
 10 27  1  0  0  0  0
 11 13  1  0  0  0  0
 11 20  1  0  0  0  0
 11 23  1  0  0  0  0
 12 24  1  0  0  0  0
 12 28  1  0  0  0  0
 13 15  1  0  0  0  0
 13 29  1  0  0  0  0
 14 15  1  0  0  0  0
 14 30  1  0  0  0  0
 14 31  1  0  0  0  0
 15 32  1  0  0  0  0
 16 19  1  0  0  0  0
 16 33  1  0  0  0  0
 16 34  1  0  0  0  0
 17 21  1  0  0  0  0
 17 35  1  0  0  0  0
 17 36  1  0  0  0  0
 18 22  1  0  0  0  0
 18 37  1  0  0  0  0
 18 38  1  0  0  0  0
 19 21  1  0  0  0  0
 19 22  1  0  0  0  0
 21 39  1  0  0  0  0
 21 40  1  0  0  0  0
 22 25  2  0  0  0  0
 23 41  1  0  0  0  0
 23 42  1  0  0  0  0
 23 43  1  0  0  0  0
 25 45  1  0  0  0  0
 25 46  1  0  0  0  0
M  END
>  <PUBCHEM_COMPOUND_CID>
12310160

>  <PUBCHEM_COMPOUND_CANONICALIZED>
1

>  <PUBCHEM_CACTVS_COMPLEXITY>
776

>  <PUBCHEM_CACTVS_HBOND_ACCEPTOR>
6

>  <PUBCHEM_CACTVS_HBOND_DONOR>
2

>  <PUBCHEM_CACTVS_ROTATABLE_BOND>
1

>  <PUBCHEM_CACTVS_SUBSKEYS>
AAADceB4OAAAAAAAAAAAAAAAEgAAAaMEAAAwYAAABokSAGDAAAAAGgAACAAAD1SggAICCAAABgCIAgDSCAAAAAAgAAAAAAEAAAgABBYAAQACQAAFoAAAEAHK7vzPgAAAAAAAAADCAAYQADAAAYAADAAAAA==

>  <PUBCHEM_IUPAC_INCHI>
InChI=1S/C19H22O6/c1-8-5-17-7-18(8,23)4-3-10(17)19-6-9-13(24-9)16(2,15(22)25-19)12(19)11(17)14(20)21/h9-13,23H,1,3-7H2,2H3,(H,20,21)

>  <PUBCHEM_IUPAC_INCHIKEY>
XNBWKKYPKJHUKD-UHFFFAOYSA-N

>  <PUBCHEM_XLOGP3_AA>
0.2

>  <PUBCHEM_EXACT_MASS>
346.142

>  <PUBCHEM_MOLECULAR_FORMULA>
C19H22O6

>  <PUBCHEM_MOLECULAR_WEIGHT>
346.379

>  <PUBCHEM_OPENEYE_CAN_SMILES>
CC12C3C(C45CC(=C)C(C4)(CCC5C3(CC6C1O6)OC2=O)O)C(=O)O

>  <PUBCHEM_OPENEYE_ISO_SMILES>
CC12C3C(C45CC(=C)C(C4)(CCC5C3(CC6C1O6)OC2=O)O)C(=O)O

>  <PUBCHEM_CACTVS_TPSA>
96.4

>  <PUBCHEM_MONOISOTOPIC_WEIGHT>
346.142

>  <PUBCHEM_TOTAL_CHARGE>
0

>  <PUBCHEM_HEAVY_ATOM_COUNT>
25

>  <PUBCHEM_ATOM_DEF_STEREO_COUNT>
0

>  <PUBCHEM_ATOM_UDEF_STEREO_COUNT>
9

>  <PUBCHEM_BOND_DEF_STEREO_COUNT>
0

>  <PUBCHEM_BOND_UDEF_STEREO_COUNT>
0

>  <PUBCHEM_ISOTOPIC_ATOM_COUNT>
0

>  <PUBCHEM_COMPONENT_COUNT>
1

>  <PUBCHEM_CACTVS_TAUTO_COUNT>
1

>  <PUBCHEM_COORDINATE_TYPE>
1
5
255

>  <PUBCHEM_BONDANNOTATIONS>
10  17  3
11  23  3
12  24  3
15  14  3
13  2  3
19  3  3
7  14  3
8  12  3
9  16  3

$$$$
