12310177
 OpenBabel06101807152D

 53 56  0  0  1  0  0  0  0  0999 V2000
    2.6198   -1.8844    0.0000 O   0  0  0  0  0  0  0  0  0  0  0  0
    7.3668   -0.4007    0.0000 O   0  0  0  0  0  0  0  0  0  0  0  0
    6.1677   -1.6505    0.0000 O   0  0  0  0  0  0  0  0  0  0  0  0
    5.0164   -2.5683    0.0000 O   0  0  0  0  0  0  0  0  0  0  0  0
    3.2846   -2.5380    0.0000 O   0  0  0  0  0  0  0  0  0  0  0  0
    5.8209    0.9976    0.0000 C   0  0  3  0  0  0  0  0  0  0  0  0
    4.9199    1.4315    0.0000 C   0  0  3  0  0  0  0  0  0  0  0  0
    4.2348    0.7112    0.0000 C   0  0  3  0  0  0  0  0  0  0  0  0
    4.7066   -0.1638    0.0000 C   0  0  3  0  0  0  0  0  0  0  0  0
    5.6849    0.0128    0.0000 C   0  0  3  0  0  0  0  0  0  0  0  0
    5.7140    2.1744    0.0000 C   0  0  0  0  0  0  0  0  0  0  0  0
    4.1767   -1.0534    0.0000 C   0  0  3  0  0  0  0  0  0  0  0  0
    6.7218    1.4315    0.0000 C   0  0  0  0  0  0  0  0  0  0  0  0
    6.3209    3.1882    0.0000 C   0  0  3  0  0  0  0  0  0  0  0  0
    4.6974    2.4064    0.0000 C   0  0  0  0  0  0  0  0  0  0  0  0
    3.2003    0.7572    0.0000 C   0  0  0  0  0  0  0  0  0  0  0  0
    5.3209    3.1882    0.0000 C   0  0  0  0  0  0  0  0  0  0  0  0
    6.9444    2.4064    0.0000 C   0  0  0  0  0  0  0  0  0  0  0  0
    3.7602    1.5914    0.0000 C   0  0  0  0  0  0  0  0  0  0  0  0
    3.1415   -1.0313    0.0000 C   0  0  3  0  0  0  0  0  0  0  0  0
    2.6500   -0.1199    0.0000 C   0  0  0  0  0  0  0  0  0  0  0  0
    6.4065   -0.6795    0.0000 C   0  0  0  0  0  0  0  0  0  0  0  0
    5.0338   -1.5685    0.0000 C   0  0  0  0  0  0  0  0  0  0  0  0
    4.1592   -2.0532    0.0000 C   0  0  0  0  0  0  0  0  0  0  0  0
    7.9193    2.6289    0.0000 C   0  0  0  0  0  0  0  0  0  0  0  0
    4.3220    1.5956    0.0000 H   0  0  0  0  0  0  0  0  0  0  0  0
    5.0598   -0.6734    0.0000 H   0  0  0  0  0  0  0  0  0  0  0  0
    6.2705    0.2164    0.0000 H   0  0  0  0  0  0  0  0  0  0  0  0
    5.3062    2.6414    0.0000 H   0  0  0  0  0  0  0  0  0  0  0  0
    5.1440    1.9305    0.0000 H   0  0  0  0  0  0  0  0  0  0  0  0
    6.8598    0.8270    0.0000 H   0  0  0  0  0  0  0  0  0  0  0  0
    7.3418    1.4315    0.0000 H   0  0  0  0  0  0  0  0  0  0  0  0
    6.5899    3.7468    0.0000 H   0  0  0  0  0  0  0  0  0  0  0  0
    4.3108    2.8911    0.0000 H   0  0  0  0  0  0  0  0  0  0  0  0
    4.1388    2.1374    0.0000 H   0  0  0  0  0  0  0  0  0  0  0  0
    3.3335    1.3627    0.0000 H   0  0  0  0  0  0  0  0  0  0  0  0
    2.6265    0.9920    0.0000 H   0  0  0  0  0  0  0  0  0  0  0  0
    5.4588    3.7927    0.0000 H   0  0  0  0  0  0  0  0  0  0  0  0
    4.7623    3.4572    0.0000 H   0  0  0  0  0  0  0  0  0  0  0  0
    4.3059    1.8856    0.0000 H   0  0  0  0  0  0  0  0  0  0  0  0
    3.4659    2.1371    0.0000 H   0  0  0  0  0  0  0  0  0  0  0  0
    3.2144    1.2971    0.0000 H   0  0  0  0  0  0  0  0  0  0  0  0
    3.4389   -1.5753    0.0000 H   0  0  0  0  0  0  0  0  0  0  0  0
    2.1890    0.2946    0.0000 H   0  0  0  0  0  0  0  0  0  0  0  0
    2.1627   -0.5032    0.0000 H   0  0  0  0  0  0  0  0  0  0  0  0
    4.7145   -2.0999    0.0000 H   0  0  0  0  0  0  0  0  0  0  0  0
    5.5653   -1.8878    0.0000 H   0  0  0  0  0  0  0  0  0  0  0  0
    5.3532   -1.0370    0.0000 H   0  0  0  0  0  0  0  0  0  0  0  0
    8.3410    2.1744    0.0000 H   0  0  0  0  0  0  0  0  0  0  0  0
    8.1020    3.2214    0.0000 H   0  0  0  0  0  0  0  0  0  0  0  0
    2.0000   -1.8688    0.0000 H   0  0  0  0  0  0  0  0  0  0  0  0
    7.8142   -0.8299    0.0000 H   0  0  0  0  0  0  0  0  0  0  0  0
    5.0055   -3.1882    0.0000 H   0  0  0  0  0  0  0  0  0  0  0  0
  1 20  1  0  0  0  0
  1 51  1  0  0  0  0
  2 22  1  0  0  0  0
  2 52  1  0  0  0  0
  3 22  2  0  0  0  0
  4 24  1  0  0  0  0
  4 53  1  0  0  0  0
  5 24  2  0  0  0  0
  6  7  1  0  0  0  0
  6 10  1  0  0  0  0
  6 11  1  0  0  0  0
  6 13  1  0  0  0  0
  7  8  1  0  0  0  0
  7 15  1  0  0  0  0
  7 26  1  0  0  0  0
  8  9  1  0  0  0  0
  8 16  1  0  0  0  0
  8 19  1  0  0  0  0
  9 10  1  0  0  0  0
  9 12  1  0  0  0  0
  9 27  1  0  0  0  0
 10 22  1  0  0  0  0
 10 28  1  0  0  0  0
 11 14  1  0  0  0  0
 11 29  1  0  0  0  0
 11 30  1  0  0  0  0
 12 20  1  0  0  0  0
 12 23  1  0  0  0  0
 12 24  1  0  0  0  0
 13 18  1  0  0  0  0
 13 31  1  0  0  0  0
 13 32  1  0  0  0  0
 14 17  1  0  0  0  0
 14 18  1  0  0  0  0
 14 33  1  0  0  0  0
 15 17  1  0  0  0  0
 15 34  1  0  0  0  0
 15 35  1  0  0  0  0
 16 21  1  0  0  0  0
 16 36  1  0  0  0  0
 16 37  1  0  0  0  0
 17 38  1  0  0  0  0
 17 39  1  0  0  0  0
 18 25  2  0  0  0  0
 19 40  1  0  0  0  0
 19 41  1  0  0  0  0
 19 42  1  0  0  0  0
 20 21  1  0  0  0  0
 20 43  1  0  0  0  0
 21 44  1  0  0  0  0
 21 45  1  0  0  0  0
 23 46  1  0  0  0  0
 23 47  1  0  0  0  0
 23 48  1  0  0  0  0
 25 49  1  0  0  0  0
 25 50  1  0  0  0  0
M  END
>  <PUBCHEM_COMPOUND_CID>
12310177

>  <PUBCHEM_COMPOUND_CANONICALIZED>
1

>  <PUBCHEM_CACTVS_COMPLEXITY>
671

>  <PUBCHEM_CACTVS_HBOND_ACCEPTOR>
5

>  <PUBCHEM_CACTVS_HBOND_DONOR>
3

>  <PUBCHEM_CACTVS_ROTATABLE_BOND>
2

>  <PUBCHEM_CACTVS_SUBSKEYS>
AAADceB4OAAAAAAAAAAAAAAAAAAAAYMAAAAwYAAABgAAAGDAAAAAGgAACAAADxSggAICCAAAAgCIAgDSCAAAAAAgAAAAAAEAAAgAEBYAAQAAQAAFoAAAAAGI7vTPgAAAAAAAAADAAAYAADAAAQAACAAAAA==

>  <PUBCHEM_IUPAC_INCHI>
InChI=1S/C20H28O5/c1-10-8-20-9-11(10)4-5-12(20)18(2)7-6-13(21)19(3,17(24)25)15(18)14(20)16(22)23/h11-15,21H,1,4-9H2,2-3H3,(H,22,23)(H,24,25)

>  <PUBCHEM_IUPAC_INCHIKEY>
NJEWNTGSXKRWKA-UHFFFAOYSA-N

>  <PUBCHEM_XLOGP3_AA>
3.1

>  <PUBCHEM_EXACT_MASS>
348.194

>  <PUBCHEM_MOLECULAR_FORMULA>
C20H28O5

>  <PUBCHEM_MOLECULAR_WEIGHT>
348.439

>  <PUBCHEM_OPENEYE_CAN_SMILES>
CC12CCC(C(C1C(C34C2CCC(C3)C(=C)C4)C(=O)O)(C)C(=O)O)O

>  <PUBCHEM_OPENEYE_ISO_SMILES>
CC12CCC(C(C1C(C34C2CCC(C3)C(=C)C4)C(=O)O)(C)C(=O)O)O

>  <PUBCHEM_CACTVS_TPSA>
94.8

>  <PUBCHEM_MONOISOTOPIC_WEIGHT>
348.194

>  <PUBCHEM_TOTAL_CHARGE>
0

>  <PUBCHEM_HEAVY_ATOM_COUNT>
25

>  <PUBCHEM_ATOM_DEF_STEREO_COUNT>
0

>  <PUBCHEM_ATOM_UDEF_STEREO_COUNT>
8

>  <PUBCHEM_BOND_DEF_STEREO_COUNT>
0

>  <PUBCHEM_BOND_UDEF_STEREO_COUNT>
0

>  <PUBCHEM_ISOTOPIC_ATOM_COUNT>
0

>  <PUBCHEM_COMPONENT_COUNT>
1

>  <PUBCHEM_CACTVS_TAUTO_COUNT>
1

>  <PUBCHEM_COORDINATE_TYPE>
1
5
255

>  <PUBCHEM_BONDANNOTATIONS>
20  1  3
10  22  3
14  11  3
12  23  3
6  11  3
7  15  3
8  19  3
9  12  3

$$$$
