12314974
 OpenBabel06101807152D

 39 40  0  0  1  0  0  0  0  0999 V2000
    2.8660    1.0427    0.0000 O   0  0  0  0  0  0  0  0  0  0  0  0
    2.0000   -1.4573    0.0000 O   0  0  0  0  0  0  0  0  0  0  0  0
    3.7320   -0.4573    0.0000 C   0  0  3  0  0  0  0  0  0  0  0  0
    3.7320    0.5427    0.0000 C   0  0  3  0  0  0  0  0  0  0  0  0
    2.8660   -0.9573    0.0000 C   0  0  0  0  0  0  0  0  0  0  0  0
    4.5981   -0.9573    0.0000 C   0  0  0  0  0  0  0  0  0  0  0  0
    4.5981    1.0427    0.0000 C   0  0  0  0  0  0  0  0  0  0  0  0
    5.4641   -0.4573    0.0000 C   0  0  0  0  0  0  0  0  0  0  0  0
    5.4641    0.5427    0.0000 C   0  0  0  0  0  0  0  0  0  0  0  0
    3.3660   -1.8233    0.0000 C   0  0  0  0  0  0  0  0  0  0  0  0
    2.3660   -0.0913    0.0000 C   0  0  0  0  0  0  0  0  0  0  0  0
    6.3580   -0.9920    0.0000 C   0  0  0  0  0  0  0  0  0  0  0  0
    6.3580    1.0774    0.0000 C   0  0  0  0  0  0  0  0  0  0  0  0
    7.2641   -0.4781    0.0000 C   0  0  0  0  0  0  0  0  0  0  0  0
    7.2641    0.5635    0.0000 C   0  0  0  0  0  0  0  0  0  0  0  0
    6.3465   -1.9919    0.0000 C   0  0  0  0  0  0  0  0  0  0  0  0
    6.3465    2.0773    0.0000 C   0  0  0  0  0  0  0  0  0  0  0  0
    3.7320   -1.0773    0.0000 H   0  0  0  0  0  0  0  0  0  0  0  0
    3.7320    1.1627    0.0000 H   0  0  0  0  0  0  0  0  0  0  0  0
    4.1996   -1.4322    0.0000 H   0  0  0  0  0  0  0  0  0  0  0  0
    4.9966   -1.4322    0.0000 H   0  0  0  0  0  0  0  0  0  0  0  0
    4.9966    1.5176    0.0000 H   0  0  0  0  0  0  0  0  0  0  0  0
    4.1996    1.5176    0.0000 H   0  0  0  0  0  0  0  0  0  0  0  0
    2.8291   -2.1333    0.0000 H   0  0  0  0  0  0  0  0  0  0  0  0
    3.6760   -2.3603    0.0000 H   0  0  0  0  0  0  0  0  0  0  0  0
    3.9030   -1.5133    0.0000 H   0  0  0  0  0  0  0  0  0  0  0  0
    2.9030    0.2187    0.0000 H   0  0  0  0  0  0  0  0  0  0  0  0
    2.0560    0.4457    0.0000 H   0  0  0  0  0  0  0  0  0  0  0  0
    1.8291   -0.4013    0.0000 H   0  0  0  0  0  0  0  0  0  0  0  0
    2.8660    1.6627    0.0000 H   0  0  0  0  0  0  0  0  0  0  0  0
    2.0000   -2.0773    0.0000 H   0  0  0  0  0  0  0  0  0  0  0  0
    7.7998   -0.7902    0.0000 H   0  0  0  0  0  0  0  0  0  0  0  0
    7.7998    0.8756    0.0000 H   0  0  0  0  0  0  0  0  0  0  0  0
    5.7265   -1.9847    0.0000 H   0  0  0  0  0  0  0  0  0  0  0  0
    6.3393   -2.6118    0.0000 H   0  0  0  0  0  0  0  0  0  0  0  0
    6.9664   -1.9991    0.0000 H   0  0  0  0  0  0  0  0  0  0  0  0
    6.9664    2.0845    0.0000 H   0  0  0  0  0  0  0  0  0  0  0  0
    6.3393    2.6973    0.0000 H   0  0  0  0  0  0  0  0  0  0  0  0
    5.7265    2.0701    0.0000 H   0  0  0  0  0  0  0  0  0  0  0  0
  1  4  1  0  0  0  0
  1 30  1  0  0  0  0
  2  5  1  0  0  0  0
  2 31  1  0  0  0  0
  3  4  1  0  0  0  0
  3  5  1  0  0  0  0
  3  6  1  0  0  0  0
  3 18  1  0  0  0  0
  4  7  1  0  0  0  0
  4 19  1  0  0  0  0
  5 10  1  0  0  0  0
  5 11  1  0  0  0  0
  6  8  1  0  0  0  0
  6 20  1  0  0  0  0
  6 21  1  0  0  0  0
  7  9  1  0  0  0  0
  7 22  1  0  0  0  0
  7 23  1  0  0  0  0
  8  9  1  0  0  0  0
  8 12  2  0  0  0  0
  9 13  2  0  0  0  0
 10 24  1  0  0  0  0
 10 25  1  0  0  0  0
 10 26  1  0  0  0  0
 11 27  1  0  0  0  0
 11 28  1  0  0  0  0
 11 29  1  0  0  0  0
 12 14  1  0  0  0  0
 12 16  1  0  0  0  0
 13 15  1  0  0  0  0
 13 17  1  0  0  0  0
 14 15  2  0  0  0  0
 14 32  1  0  0  0  0
 15 33  1  0  0  0  0
 16 34  1  0  0  0  0
 16 35  1  0  0  0  0
 16 36  1  0  0  0  0
 17 37  1  0  0  0  0
 17 38  1  0  0  0  0
 17 39  1  0  0  0  0
M  END
>  <PUBCHEM_COMPOUND_CID>
12314974

>  <PUBCHEM_COMPOUND_CANONICALIZED>
1

>  <PUBCHEM_CACTVS_COMPLEXITY>
274

>  <PUBCHEM_CACTVS_HBOND_ACCEPTOR>
2

>  <PUBCHEM_CACTVS_HBOND_DONOR>
2

>  <PUBCHEM_CACTVS_ROTATABLE_BOND>
1

>  <PUBCHEM_CACTVS_SUBSKEYS>
AAADceBwMAAAAAAAAAAAAAAAAAAAAAAAAAAwYAAAAAAAAADBAAAAGgAACAAADVSgmAIyAIAAAgCAAiBCAAACAAAgAAAIiAAAAIgIMCKAERCAYAAlwAEIiAeAwPAOwAACAAAQAADAAAYAADAAAAAAAAAAAA==

>  <PUBCHEM_IUPAC_OPENEYE_NAME>
3-(1-hydroxy-1-methyl-ethyl)-5,8-dimethyl-tetralin-2-ol

>  <PUBCHEM_IUPAC_CAS_NAME>
3-(2-hydroxypropan-2-yl)-5,8-dimethyl-1,2,3,4-tetrahydronaphthalen-2-ol

>  <PUBCHEM_IUPAC_NAME>
3-(2-hydroxypropan-2-yl)-5,8-dimethyl-1,2,3,4-tetrahydronaphthalen-2-ol

>  <PUBCHEM_IUPAC_SYSTEMATIC_NAME>
5,8-dimethyl-3-(2-oxidanylpropan-2-yl)-1,2,3,4-tetrahydronaphthalen-2-ol

>  <PUBCHEM_IUPAC_TRADITIONAL_NAME>
3-(1-hydroxy-1-methyl-ethyl)-5,8-dimethyl-tetralin-2-ol

>  <PUBCHEM_IUPAC_INCHI>
InChI=1S/C15H22O2/c1-9-5-6-10(2)12-8-14(16)13(7-11(9)12)15(3,4)17/h5-6,13-14,16-17H,7-8H2,1-4H3

>  <PUBCHEM_IUPAC_INCHIKEY>
CHZJSQCDRSPCMD-UHFFFAOYSA-N

>  <PUBCHEM_XLOGP3_AA>
3.1

>  <PUBCHEM_EXACT_MASS>
234.162

>  <PUBCHEM_MOLECULAR_FORMULA>
C15H22O2

>  <PUBCHEM_MOLECULAR_WEIGHT>
234.339

>  <PUBCHEM_OPENEYE_CAN_SMILES>
CC1=C2CC(C(CC2=C(C=C1)C)O)C(C)(C)O

>  <PUBCHEM_OPENEYE_ISO_SMILES>
CC1=C2CC(C(CC2=C(C=C1)C)O)C(C)(C)O

>  <PUBCHEM_CACTVS_TPSA>
40.5

>  <PUBCHEM_MONOISOTOPIC_WEIGHT>
234.162

>  <PUBCHEM_TOTAL_CHARGE>
0

>  <PUBCHEM_HEAVY_ATOM_COUNT>
17

>  <PUBCHEM_ATOM_DEF_STEREO_COUNT>
0

>  <PUBCHEM_ATOM_UDEF_STEREO_COUNT>
2

>  <PUBCHEM_BOND_DEF_STEREO_COUNT>
0

>  <PUBCHEM_BOND_UDEF_STEREO_COUNT>
0

>  <PUBCHEM_ISOTOPIC_ATOM_COUNT>
0

>  <PUBCHEM_COMPONENT_COUNT>
1

>  <PUBCHEM_CACTVS_TAUTO_COUNT>
1

>  <PUBCHEM_COORDINATE_TYPE>
1
5
255

>  <PUBCHEM_BONDANNOTATIONS>
4  1  3
12  14  8
13  15  8
14  15  8
3  5  3
8  12  8
8  9  8
9  13  8

$$$$
