12371414
 OpenBabel06101807152D

 17 17  0  0  1  0  0  0  0  0999 V2000
    2.4608   -0.1643    0.0000 S   0  0  0  0  0  0  0  0  0  0  0  0
    4.2208    1.1144    0.0000 S   0  0  0  0  0  0  0  0  0  0  0  0
    4.2208    0.1144    0.0000 C   0  0  3  0  0  0  0  0  0  0  0  0
    3.4118   -0.4734    0.0000 C   0  0  3  0  0  0  0  0  0  0  0  0
    3.7208   -1.4244    0.0000 C   0  0  0  0  0  0  0  0  0  0  0  0
    5.0298   -0.4734    0.0000 C   0  0  0  0  0  0  0  0  0  0  0  0
    4.7208   -1.4244    0.0000 C   0  0  0  0  0  0  0  0  0  0  0  0
    3.4635    0.5003    0.0000 H   0  0  0  0  0  0  0  0  0  0  0  0
    3.2788    0.3662    0.0000 H   0  0  0  0  0  0  0  0  0  0  0  0
    5.5962   -0.7255    0.0000 H   0  0  0  0  0  0  0  0  0  0  0  0
    3.1144   -1.5533    0.0000 H   0  0  0  0  0  0  0  0  0  0  0  0
    3.7856   -2.0410    0.0000 H   0  0  0  0  0  0  0  0  0  0  0  0
    5.3398    0.0636    0.0000 H   0  0  0  0  0  0  0  0  0  0  0  0
    4.6560   -2.0410    0.0000 H   0  0  0  0  0  0  0  0  0  0  0  0
    5.3273   -1.5533    0.0000 H   0  0  0  0  0  0  0  0  0  0  0  0
    4.7578    1.4244    0.0000 H   0  0  0  0  0  0  0  0  0  0  0  0
    2.0000   -0.5792    0.0000 H   0  0  0  0  0  0  0  0  0  0  0  0
  1  4  1  0  0  0  0
  1 17  1  0  0  0  0
  2  3  1  0  0  0  0
  2 16  1  0  0  0  0
  3  4  1  0  0  0  0
  3  6  1  0  0  0  0
  3  8  1  0  0  0  0
  4  5  1  0  0  0  0
  4  9  1  0  0  0  0
  5  7  1  0  0  0  0
  5 11  1  0  0  0  0
  5 12  1  0  0  0  0
  6  7  1  0  0  0  0
  6 10  1  0  0  0  0
  6 13  1  0  0  0  0
  7 14  1  0  0  0  0
  7 15  1  0  0  0  0
M  END
>  <PUBCHEM_COMPOUND_CID>
12371414

>  <PUBCHEM_COMPOUND_CANONICALIZED>
1

>  <PUBCHEM_CACTVS_COMPLEXITY>
55.1

>  <PUBCHEM_CACTVS_HBOND_ACCEPTOR>
2

>  <PUBCHEM_CACTVS_HBOND_DONOR>
2

>  <PUBCHEM_CACTVS_ROTATABLE_BOND>
0

>  <PUBCHEM_CACTVS_SUBSKEYS>
AAADccBgAABgAAAAAAAAAAAAAAAAAYAAAAAAAAAAAAAAAAAAAAAAGAQAAAAACACEQACAAAAAAAQAAAAAAAAAAAAAAAAAAAAAAAAAAAIAAAAAAAAAAAAAAAAAAAAAAAAAAAAAAAAAAAAAAAAAAAAAAAEAAA==

>  <PUBCHEM_IUPAC_OPENEYE_NAME>
cyclopentane-1,2-dithiol

>  <PUBCHEM_IUPAC_CAS_NAME>
cyclopentane-1,2-dithiol

>  <PUBCHEM_IUPAC_NAME>
cyclopentane-1,2-dithiol

>  <PUBCHEM_IUPAC_SYSTEMATIC_NAME>
cyclopentane-1,2-dithiol

>  <PUBCHEM_IUPAC_TRADITIONAL_NAME>
cyclopentane-1,2-dithiol

>  <PUBCHEM_IUPAC_INCHI>
InChI=1S/C5H10S2/c6-4-2-1-3-5(4)7/h4-7H,1-3H2

>  <PUBCHEM_IUPAC_INCHIKEY>
YZVNURZNMBCWGG-UHFFFAOYSA-N

>  <PUBCHEM_XLOGP3_AA>
1.8

>  <PUBCHEM_EXACT_MASS>
134.022

>  <PUBCHEM_MOLECULAR_FORMULA>
C5H10S2

>  <PUBCHEM_MOLECULAR_WEIGHT>
134.255

>  <PUBCHEM_OPENEYE_CAN_SMILES>
C1CC(C(C1)S)S

>  <PUBCHEM_OPENEYE_ISO_SMILES>
C1CC(C(C1)S)S

>  <PUBCHEM_CACTVS_TPSA>
2

>  <PUBCHEM_MONOISOTOPIC_WEIGHT>
134.022

>  <PUBCHEM_TOTAL_CHARGE>
0

>  <PUBCHEM_HEAVY_ATOM_COUNT>
7

>  <PUBCHEM_ATOM_DEF_STEREO_COUNT>
0

>  <PUBCHEM_ATOM_UDEF_STEREO_COUNT>
2

>  <PUBCHEM_BOND_DEF_STEREO_COUNT>
0

>  <PUBCHEM_BOND_UDEF_STEREO_COUNT>
0

>  <PUBCHEM_ISOTOPIC_ATOM_COUNT>
0

>  <PUBCHEM_COMPONENT_COUNT>
1

>  <PUBCHEM_CACTVS_TAUTO_COUNT>
1

>  <PUBCHEM_COORDINATE_TYPE>
1
5
255

>  <PUBCHEM_BONDANNOTATIONS>
3  8  3
4  9  3

$$$$
