12376292
 OpenBabel06101807152D

 17 16  0  0  0  0  0  0  0  0999 V2000
    2.0000   -0.5000    0.0000 O   0  0  0  0  0  0  0  0  0  0  0  0
    4.5981    1.0000    0.0000 C   0  0  0  0  0  0  0  0  0  0  0  0
    4.5981    0.0000    0.0000 C   0  0  0  0  0  0  0  0  0  0  0  0
    3.7320   -0.5000    0.0000 C   0  0  0  0  0  0  0  0  0  0  0  0
    5.4641    1.5000    0.0000 C   0  0  0  0  0  0  0  0  0  0  0  0
    3.7320   -1.5000    0.0000 C   0  0  0  0  0  0  0  0  0  0  0  0
    2.8660    0.0000    0.0000 C   0  0  0  0  0  0  0  0  0  0  0  0
    4.3860    1.5826    0.0000 H   0  0  0  0  0  0  0  0  0  0  0  0
    3.9875    0.8923    0.0000 H   0  0  0  0  0  0  0  0  0  0  0  0
    5.1350   -0.3100    0.0000 H   0  0  0  0  0  0  0  0  0  0  0  0
    5.7741    0.9631    0.0000 H   0  0  0  0  0  0  0  0  0  0  0  0
    6.0010    1.8100    0.0000 H   0  0  0  0  0  0  0  0  0  0  0  0
    5.1541    2.0369    0.0000 H   0  0  0  0  0  0  0  0  0  0  0  0
    3.1120   -1.5000    0.0000 H   0  0  0  0  0  0  0  0  0  0  0  0
    3.7320   -2.1200    0.0000 H   0  0  0  0  0  0  0  0  0  0  0  0
    4.3520   -1.5000    0.0000 H   0  0  0  0  0  0  0  0  0  0  0  0
    2.8660    0.6200    0.0000 H   0  0  0  0  0  0  0  0  0  0  0  0
  1  7  2  0  0  0  0
  2  3  1  0  0  0  0
  2  5  1  0  0  0  0
  2  8  1  0  0  0  0
  2  9  1  0  0  0  0
  3  4  2  0  0  0  0
  3 10  1  0  0  0  0
  4  6  1  0  0  0  0
  4  7  1  0  0  0  0
  5 11  1  0  0  0  0
  5 12  1  0  0  0  0
  5 13  1  0  0  0  0
  6 14  1  0  0  0  0
  6 15  1  0  0  0  0
  6 16  1  0  0  0  0
  7 17  1  0  0  0  0
M  END
>  <PUBCHEM_COMPOUND_CID>
12376292

>  <PUBCHEM_COMPOUND_CANONICALIZED>
1

>  <PUBCHEM_CACTVS_COMPLEXITY>
82.2

>  <PUBCHEM_CACTVS_HBOND_ACCEPTOR>
1

>  <PUBCHEM_CACTVS_HBOND_DONOR>
0

>  <PUBCHEM_CACTVS_ROTATABLE_BOND>
2

>  <PUBCHEM_CACTVS_SUBSKEYS>
AAADccBgIAAAAAAAAAAAAAAAAAAAAAAAAAAAAAAAAAAAAAAAAAAAGgAAAAAADACggAICAAAAAACIAihSgAAAAAAgAAAACAEAAEgAAAAAAQAAAAAAAAAIAYIAAAAAAAAAAAAAAAAAAAAAAAAAAAAAAAAAAA==

>  <PUBCHEM_IUPAC_OPENEYE_NAME>
(Z)-2-methylpent-2-enal

>  <PUBCHEM_IUPAC_CAS_NAME>
(Z)-2-methyl-2-pentenal

>  <PUBCHEM_IUPAC_NAME>
(Z)-2-methylpent-2-enal

>  <PUBCHEM_IUPAC_SYSTEMATIC_NAME>
(Z)-2-methylpent-2-enal

>  <PUBCHEM_IUPAC_TRADITIONAL_NAME>
(Z)-2-methylpent-2-enal

>  <PUBCHEM_IUPAC_INCHI>
InChI=1S/C6H10O/c1-3-4-6(2)5-7/h4-5H,3H2,1-2H3/b6-4-

>  <PUBCHEM_IUPAC_INCHIKEY>
IDEYZABHVQLHAF-XQRVVYSFSA-N

>  <PUBCHEM_XLOGP3_AA>
1.4

>  <PUBCHEM_EXACT_MASS>
98.073

>  <PUBCHEM_MOLECULAR_FORMULA>
C6H10O

>  <PUBCHEM_MOLECULAR_WEIGHT>
98.145

>  <PUBCHEM_OPENEYE_CAN_SMILES>
CCC=C(C)C=O

>  <PUBCHEM_OPENEYE_ISO_SMILES>
CC/C=C(/C)\C=O

>  <PUBCHEM_CACTVS_TPSA>
17.1

>  <PUBCHEM_MONOISOTOPIC_WEIGHT>
98.073

>  <PUBCHEM_TOTAL_CHARGE>
0

>  <PUBCHEM_HEAVY_ATOM_COUNT>
7

>  <PUBCHEM_ATOM_DEF_STEREO_COUNT>
0

>  <PUBCHEM_ATOM_UDEF_STEREO_COUNT>
0

>  <PUBCHEM_BOND_DEF_STEREO_COUNT>
1

>  <PUBCHEM_BOND_UDEF_STEREO_COUNT>
0

>  <PUBCHEM_ISOTOPIC_ATOM_COUNT>
0

>  <PUBCHEM_COMPONENT_COUNT>
1

>  <PUBCHEM_CACTVS_TAUTO_COUNT>
1

>  <PUBCHEM_COORDINATE_TYPE>
1
5
255

$$$$
