12409826
 OpenBabel06101807152D

 26 25  0  0  0  0  0  0  0  0999 V2000
    4.2690   -1.0600    0.0000 O   0  0  0  0  0  0  0  0  0  0  0  0
    6.8671    0.4400    0.0000 C   0  0  0  0  0  0  0  0  0  0  0  0
    6.0010   -0.0600    0.0000 C   0  0  0  0  0  0  0  0  0  0  0  0
    7.7331   -0.0600    0.0000 C   0  0  0  0  0  0  0  0  0  0  0  0
    5.1350    0.4400    0.0000 C   0  0  0  0  0  0  0  0  0  0  0  0
    8.5991    0.4400    0.0000 C   0  0  0  0  0  0  0  0  0  0  0  0
    4.2690   -0.0600    0.0000 C   0  0  0  0  0  0  0  0  0  0  0  0
    3.4030    0.4400    0.0000 C   0  0  0  0  0  0  0  0  0  0  0  0
    2.5369   -0.0600    0.0000 C   0  0  0  0  0  0  0  0  0  0  0  0
    2.5369   -1.0600    0.0000 C   0  0  0  0  0  0  0  0  0  0  0  0
    7.2656    0.9149    0.0000 H   0  0  0  0  0  0  0  0  0  0  0  0
    6.4685    0.9149    0.0000 H   0  0  0  0  0  0  0  0  0  0  0  0
    5.6025   -0.5349    0.0000 H   0  0  0  0  0  0  0  0  0  0  0  0
    6.3996   -0.5349    0.0000 H   0  0  0  0  0  0  0  0  0  0  0  0
    7.3346   -0.5349    0.0000 H   0  0  0  0  0  0  0  0  0  0  0  0
    8.1316   -0.5349    0.0000 H   0  0  0  0  0  0  0  0  0  0  0  0
    5.5335    0.9149    0.0000 H   0  0  0  0  0  0  0  0  0  0  0  0
    4.7365    0.9149    0.0000 H   0  0  0  0  0  0  0  0  0  0  0  0
    8.9091   -0.0969    0.0000 H   0  0  0  0  0  0  0  0  0  0  0  0
    9.1360    0.7500    0.0000 H   0  0  0  0  0  0  0  0  0  0  0  0
    8.2891    0.9769    0.0000 H   0  0  0  0  0  0  0  0  0  0  0  0
    3.4030    1.0600    0.0000 H   0  0  0  0  0  0  0  0  0  0  0  0
    2.0000    0.2500    0.0000 H   0  0  0  0  0  0  0  0  0  0  0  0
    1.9169   -1.0600    0.0000 H   0  0  0  0  0  0  0  0  0  0  0  0
    2.5369   -1.6800    0.0000 H   0  0  0  0  0  0  0  0  0  0  0  0
    3.1569   -1.0600    0.0000 H   0  0  0  0  0  0  0  0  0  0  0  0
  1  7  2  0  0  0  0
  2  3  1  0  0  0  0
  2  4  1  0  0  0  0
  2 11  1  0  0  0  0
  2 12  1  0  0  0  0
  3  5  1  0  0  0  0
  3 13  1  0  0  0  0
  3 14  1  0  0  0  0
  4  6  1  0  0  0  0
  4 15  1  0  0  0  0
  4 16  1  0  0  0  0
  5  7  1  0  0  0  0
  5 17  1  0  0  0  0
  5 18  1  0  0  0  0
  6 19  1  0  0  0  0
  6 20  1  0  0  0  0
  6 21  1  0  0  0  0
  7  8  1  0  0  0  0
  8  9  2  0  0  0  0
  8 22  1  0  0  0  0
  9 10  1  0  0  0  0
  9 23  1  0  0  0  0
 10 24  1  0  0  0  0
 10 25  1  0  0  0  0
 10 26  1  0  0  0  0
M  END
>  <PUBCHEM_COMPOUND_CID>
12409826

>  <PUBCHEM_COMPOUND_CANONICALIZED>
1

>  <PUBCHEM_CACTVS_COMPLEXITY>
114

>  <PUBCHEM_CACTVS_HBOND_ACCEPTOR>
1

>  <PUBCHEM_CACTVS_HBOND_DONOR>
0

>  <PUBCHEM_CACTVS_ROTATABLE_BOND>
5

>  <PUBCHEM_CACTVS_SUBSKEYS>
AAADceBwIAAAAAAAAAAAAAAAAAAAAAAAAAAAAAAAAAAAAAAAAAAAGgAAAAAACASAgAACAAAAAACIAKBSAAAAAAAgAAAICAEAAEgAABIAAQAAAAAAgAAIAYMIiAAAAAAAAAAAAAAAAAAAAAAAAAAAAAAAAA==

>  <PUBCHEM_IUPAC_OPENEYE_NAME>
(Z)-non-2-en-4-one

>  <PUBCHEM_IUPAC_CAS_NAME>
(Z)-2-nonen-4-one

>  <PUBCHEM_IUPAC_NAME>
(Z)-non-2-en-4-one

>  <PUBCHEM_IUPAC_SYSTEMATIC_NAME>
(Z)-non-2-en-4-one

>  <PUBCHEM_IUPAC_TRADITIONAL_NAME>
(Z)-non-2-en-4-one

>  <PUBCHEM_IUPAC_INCHI>
InChI=1S/C9H16O/c1-3-5-6-8-9(10)7-4-2/h4,7H,3,5-6,8H2,1-2H3/b7-4-

>  <PUBCHEM_IUPAC_INCHIKEY>
WTAYWTBOEQYGOG-DAXSKMNVSA-N

>  <PUBCHEM_XLOGP3_AA>
2.7

>  <PUBCHEM_EXACT_MASS>
140.12

>  <PUBCHEM_MOLECULAR_FORMULA>
C9H16O

>  <PUBCHEM_MOLECULAR_WEIGHT>
140.226

>  <PUBCHEM_OPENEYE_CAN_SMILES>
CCCCCC(=O)C=CC

>  <PUBCHEM_OPENEYE_ISO_SMILES>
CCCCCC(=O)/C=C\C

>  <PUBCHEM_CACTVS_TPSA>
17.1

>  <PUBCHEM_MONOISOTOPIC_WEIGHT>
140.12

>  <PUBCHEM_TOTAL_CHARGE>
0

>  <PUBCHEM_HEAVY_ATOM_COUNT>
10

>  <PUBCHEM_ATOM_DEF_STEREO_COUNT>
0

>  <PUBCHEM_ATOM_UDEF_STEREO_COUNT>
0

>  <PUBCHEM_BOND_DEF_STEREO_COUNT>
1

>  <PUBCHEM_BOND_UDEF_STEREO_COUNT>
0

>  <PUBCHEM_ISOTOPIC_ATOM_COUNT>
0

>  <PUBCHEM_COMPONENT_COUNT>
1

>  <PUBCHEM_CACTVS_TAUTO_COUNT>
5

>  <PUBCHEM_COORDINATE_TYPE>
1
5
255

$$$$
