124202093
 OpenBabel06101807152D

 49 50  0  0  1  0  0  0  0  0999 V2000
    5.3100   -4.9226    0.0000 O   0  0  0  0  0  0  0  0  0  0  0  0
    5.3100   -0.1905    0.0000 O   0  0  0  0  0  0  0  0  0  0  0  0
    3.5780   -4.9226    0.0000 O   0  0  0  0  0  0  0  0  0  0  0  0
    7.9081   -3.4226    0.0000 O   0  0  0  0  0  0  0  0  0  0  0  0
    3.8100   -1.0565    0.0000 O   0  0  0  0  0  0  0  0  0  0  0  0
    7.0420   -1.9226    0.0000 O   0  0  0  0  0  0  0  0  0  0  0  0
    2.3100    3.2736    0.0000 O   0  0  0  0  0  0  0  0  0  0  0  0
    3.3100    5.0056    0.0000 O   0  0  0  0  0  0  0  0  0  0  0  0
    5.3100   -2.9226    0.0000 C   0  0  2  0  0  0  0  0  0  0  0  0
    4.4440   -3.4226    0.0000 C   0  0  0  0  0  0  0  0  0  0  0  0
    5.3100   -1.9226    0.0000 C   0  0  0  0  0  0  0  0  0  0  0  0
    6.1760   -3.4226    0.0000 C   0  0  0  0  0  0  0  0  0  0  0  0
    4.4440   -4.4226    0.0000 C   0  0  1  0  0  0  0  0  0  0  0  0
    6.1760   -4.4226    0.0000 C   0  0  0  0  0  0  0  0  0  0  0  0
    3.5780   -2.9226    0.0000 C   0  0  0  0  0  0  0  0  0  0  0  0
    4.8100   -1.0565    0.0000 C   0  0  0  0  0  0  0  0  0  0  0  0
    7.0420   -2.9226    0.0000 C   0  0  0  0  0  0  0  0  0  0  0  0
    4.8100    0.6755    0.0000 C   0  0  0  0  0  0  0  0  0  0  0  0
    2.7119   -3.4226    0.0000 C   0  0  0  0  0  0  0  0  0  0  0  0
    5.3100    1.5415    0.0000 C   0  0  0  0  0  0  0  0  0  0  0  0
    4.8100    2.4076    0.0000 C   0  0  0  0  0  0  0  0  0  0  0  0
    3.8100    2.4076    0.0000 C   0  0  0  0  0  0  0  0  0  0  0  0
    5.3100    3.2736    0.0000 C   0  0  0  0  0  0  0  0  0  0  0  0
    3.3100    3.2736    0.0000 C   0  0  0  0  0  0  0  0  0  0  0  0
    4.8100    4.1396    0.0000 C   0  0  0  0  0  0  0  0  0  0  0  0
    3.8100    4.1396    0.0000 C   0  0  0  0  0  0  0  0  0  0  0  0
    8.7741   -2.9226    0.0000 C   0  0  0  0  0  0  0  0  0  0  0  0
    5.8469   -2.6126    0.0000 H   0  0  0  0  0  0  0  0  0  0  0  0
    5.8926   -2.1346    0.0000 H   0  0  0  0  0  0  0  0  0  0  0  0
    4.7111   -2.0830    0.0000 H   0  0  0  0  0  0  0  0  0  0  0  0
    3.9070   -4.1126    0.0000 H   0  0  0  0  0  0  0  0  0  0  0  0
    6.7130   -4.7326    0.0000 H   0  0  0  0  0  0  0  0  0  0  0  0
    3.2680   -2.3856    0.0000 H   0  0  0  0  0  0  0  0  0  0  0  0
    4.3350    1.0740    0.0000 H   0  0  0  0  0  0  0  0  0  0  0  0
    4.3350    0.2770    0.0000 H   0  0  0  0  0  0  0  0  0  0  0  0
    2.4019   -2.8856    0.0000 H   0  0  0  0  0  0  0  0  0  0  0  0
    2.1750   -3.7326    0.0000 H   0  0  0  0  0  0  0  0  0  0  0  0
    3.0219   -3.9595    0.0000 H   0  0  0  0  0  0  0  0  0  0  0  0
    5.7850    1.1430    0.0000 H   0  0  0  0  0  0  0  0  0  0  0  0
    5.7850    1.9401    0.0000 H   0  0  0  0  0  0  0  0  0  0  0  0
    3.5780   -5.5426    0.0000 H   0  0  0  0  0  0  0  0  0  0  0  0
    3.5000    1.8706    0.0000 H   0  0  0  0  0  0  0  0  0  0  0  0
    5.9300    3.2736    0.0000 H   0  0  0  0  0  0  0  0  0  0  0  0
    5.1200    4.6765    0.0000 H   0  0  0  0  0  0  0  0  0  0  0  0
    9.0841   -3.4595    0.0000 H   0  0  0  0  0  0  0  0  0  0  0  0
    9.3110   -2.6126    0.0000 H   0  0  0  0  0  0  0  0  0  0  0  0
    8.4641   -2.3856    0.0000 H   0  0  0  0  0  0  0  0  0  0  0  0
    2.0000    3.8105    0.0000 H   0  0  0  0  0  0  0  0  0  0  0  0
    3.6200    5.5426    0.0000 H   0  0  0  0  0  0  0  0  0  0  0  0
  1 13  1  0  0  0  0
  1 14  1  0  0  0  0
  2 16  1  0  0  0  0
  2 18  1  0  0  0  0
  3 41  1  0  0  0  0
  4 17  1  0  0  0  0
  4 27  1  0  0  0  0
  5 16  2  0  0  0  0
  6 17  2  0  0  0  0
  7 24  1  0  0  0  0
  7 48  1  0  0  0  0
  8 26  1  0  0  0  0
  8 49  1  0  0  0  0
  9 10  1  0  0  0  0
  9 11  1  0  0  0  0
  9 12  1  0  0  0  0
  9 28  1  1  0  0  0
 10 13  1  0  0  0  0
 10 15  2  0  0  0  0
 11 16  1  0  0  0  0
 11 29  1  0  0  0  0
 11 30  1  0  0  0  0
 12 14  2  0  0  0  0
 12 17  1  0  0  0  0
 13  3  1  0  0  0  0
 13 31  1  6  0  0  0
 14 32  1  0  0  0  0
 15 19  1  0  0  0  0
 15 33  1  0  0  0  0
 18 20  1  0  0  0  0
 18 34  1  0  0  0  0
 18 35  1  0  0  0  0
 19 36  1  0  0  0  0
 19 37  1  0  0  0  0
 19 38  1  0  0  0  0
 20 21  1  0  0  0  0
 20 39  1  0  0  0  0
 20 40  1  0  0  0  0
 21 22  2  0  0  0  0
 21 23  1  0  0  0  0
 22 24  1  0  0  0  0
 22 42  1  0  0  0  0
 23 25  2  0  0  0  0
 23 43  1  0  0  0  0
 24 26  2  0  0  0  0
 25 26  1  0  0  0  0
 25 44  1  0  0  0  0
 27 45  1  0  0  0  0
 27 46  1  0  0  0  0
 27 47  1  0  0  0  0
M  END
>  <PUBCHEM_COMPOUND_CID>
124202093

>  <PUBCHEM_COMPOUND_CANONICALIZED>
1

>  <PUBCHEM_CACTVS_COMPLEXITY>
597

>  <PUBCHEM_CACTVS_HBOND_ACCEPTOR>
8

>  <PUBCHEM_CACTVS_HBOND_DONOR>
3

>  <PUBCHEM_CACTVS_ROTATABLE_BOND>
8

>  <PUBCHEM_CACTVS_SUBSKEYS>
AAADceB4PAAAAAAAAAAAAAAAAAAAAAAAAAAwQAAAAAAAAAABAAAAGgAACAAADQSwmAMyDoAABgCIAiDSCAACCAAgIAAIiAEGiMgZNjKCMRKCcAEkwBEJuIeI5rwOIAABAAAAQABAAAIAAACAAAAAAAAAAA==

>  <PUBCHEM_IUPAC_OPENEYE_NAME>
methyl (4S,5Z,6R)-4-[2-[2-(3,4-dihydroxyphenyl)ethoxy]-2-oxo-ethyl]-5-ethylidene-6-hydroxy-4H-pyran-3-carboxylate

>  <PUBCHEM_IUPAC_CAS_NAME>
(4S,5Z,6R)-4-[2-[2-(3,4-dihydroxyphenyl)ethoxy]-2-oxoethyl]-5-ethylidene-6-hydroxy-4H-pyran-3-carboxylic acid methyl ester

>  <PUBCHEM_IUPAC_NAME>
methyl (4S,5Z,6R)-4-[2-[2-(3,4-dihydroxyphenyl)ethoxy]-2-oxoethyl]-5-ethylidene-6-hydroxy-4H-pyran-3-carboxylate

>  <PUBCHEM_IUPAC_SYSTEMATIC_NAME>
methyl (4S,5Z,6R)-4-[2-[2-[3,4-bis(oxidanyl)phenyl]ethoxy]-2-oxidanylidene-ethyl]-5-ethylidene-6-oxidanyl-4H-pyran-3-carboxylate

>  <PUBCHEM_IUPAC_TRADITIONAL_NAME>
(4S,5Z,6R)-4-[2-[2-(3,4-dihydroxyphenyl)ethoxy]-2-keto-ethyl]-5-ethylidene-6-hydroxy-4H-pyran-3-carboxylic acid methyl ester

>  <PUBCHEM_IUPAC_INCHI>
InChI=1S/C19H22O8/c1-3-12-13(14(18(23)25-2)10-27-19(12)24)9-17(22)26-7-6-11-4-5-15(20)16(21)8-11/h3-5,8,10,13,19-21,24H,6-7,9H2,1-2H3/b12-3-/t13-,19+/m0/s1

>  <PUBCHEM_IUPAC_INCHIKEY>
BIWKXNFEOZXNLX-SQOYHTLWSA-N

>  <PUBCHEM_XLOGP3_AA>
1.1

>  <PUBCHEM_EXACT_MASS>
378.131

>  <PUBCHEM_MOLECULAR_FORMULA>
C19H22O8

>  <PUBCHEM_MOLECULAR_WEIGHT>
378.377

>  <PUBCHEM_OPENEYE_CAN_SMILES>
CC=C1C(C(=COC1O)C(=O)OC)CC(=O)OCCC2=CC(=C(C=C2)O)O

>  <PUBCHEM_OPENEYE_ISO_SMILES>
C/C=C\1/[C@@H](C(=CO[C@H]1O)C(=O)OC)CC(=O)OCCC2=CC(=C(C=C2)O)O

>  <PUBCHEM_CACTVS_TPSA>
123

>  <PUBCHEM_MONOISOTOPIC_WEIGHT>
378.131

>  <PUBCHEM_TOTAL_CHARGE>
0

>  <PUBCHEM_HEAVY_ATOM_COUNT>
27

>  <PUBCHEM_ATOM_DEF_STEREO_COUNT>
2

>  <PUBCHEM_ATOM_UDEF_STEREO_COUNT>
0

>  <PUBCHEM_BOND_DEF_STEREO_COUNT>
1

>  <PUBCHEM_BOND_UDEF_STEREO_COUNT>
0

>  <PUBCHEM_ISOTOPIC_ATOM_COUNT>
0

>  <PUBCHEM_COMPONENT_COUNT>
1

>  <PUBCHEM_CACTVS_TAUTO_COUNT>
18

>  <PUBCHEM_COORDINATE_TYPE>
1
5
255

>  <PUBCHEM_BONDANNOTATIONS>
21  22  8
21  23  8
22  24  8
23  25  8
24  26  8
25  26  8
13  3  5
9  11  6

$$$$
