12444939
 OpenBabel06101807152D

 37 40  0  0  0  0  0  0  0  0999 V2000
    4.3798   -0.5871    0.0000 O   0  0  0  0  0  0  0  0  0  0  0  0
    2.5836   -1.8238    0.0000 O   0  0  0  0  0  0  0  0  0  0  0  0
    2.5836   -3.4333    0.0000 O   0  0  0  0  0  0  0  0  0  0  0  0
    7.0479   -0.0835    0.0000 O   0  0  0  0  0  0  0  0  0  0  0  0
    6.1279   -3.6286    0.0000 O   0  0  0  0  0  0  0  0  0  0  0  0
    7.0321   -2.1317    0.0000 O   0  0  0  0  0  0  0  0  0  0  0  0
    6.9983    2.9473    0.0000 O   0  0  0  0  0  0  0  0  0  0  0  0
    5.2624    3.9406    0.0000 O   0  0  0  0  0  0  0  0  0  0  0  0
    4.3958   -1.6286    0.0000 C   0  0  0  0  0  0  0  0  0  0  0  0
    5.2619   -2.1286    0.0000 C   0  0  0  0  0  0  0  0  0  0  0  0
    3.5298   -2.1286    0.0000 C   0  0  0  0  0  0  0  0  0  0  0  0
    3.5298   -3.1286    0.0000 C   0  0  0  0  0  0  0  0  0  0  0  0
    5.2778   -0.0593    0.0000 C   0  0  0  0  0  0  0  0  0  0  0  0
    5.2619   -3.1286    0.0000 C   0  0  0  0  0  0  0  0  0  0  0  0
    6.1719   -1.6217    0.0000 C   0  0  0  0  0  0  0  0  0  0  0  0
    6.1799   -0.5801    0.0000 C   0  0  0  0  0  0  0  0  0  0  0  0
    4.3958   -3.6286    0.0000 C   0  0  0  0  0  0  0  0  0  0  0  0
    5.2740    0.9407    0.0000 C   0  0  0  0  0  0  0  0  0  0  0  0
    2.0000   -2.6286    0.0000 C   0  0  0  0  0  0  0  0  0  0  0  0
    6.1381    1.4440    0.0000 C   0  0  0  0  0  0  0  0  0  0  0  0
    4.4060    1.4373    0.0000 C   0  0  0  0  0  0  0  0  0  0  0  0
    6.1342    2.4440    0.0000 C   0  0  0  0  0  0  0  0  0  0  0  0
    4.4022    2.4373    0.0000 C   0  0  0  0  0  0  0  0  0  0  0  0
    5.2663    2.9407    0.0000 C   0  0  0  0  0  0  0  0  0  0  0  0
    7.9120   -0.5868    0.0000 C   0  0  0  0  0  0  0  0  0  0  0  0
    4.3958   -4.2486    0.0000 H   0  0  0  0  0  0  0  0  0  0  0  0
    1.5391   -2.2138    0.0000 H   0  0  0  0  0  0  0  0  0  0  0  0
    1.5391   -3.0433    0.0000 H   0  0  0  0  0  0  0  0  0  0  0  0
    6.6762    1.1361    0.0000 H   0  0  0  0  0  0  0  0  0  0  0  0
    3.8703    1.1253    0.0000 H   0  0  0  0  0  0  0  0  0  0  0  0
    3.8640    2.7452    0.0000 H   0  0  0  0  0  0  0  0  0  0  0  0
    6.1279   -4.2486    0.0000 H   0  0  0  0  0  0  0  0  0  0  0  0
    7.5999   -1.1226    0.0000 H   0  0  0  0  0  0  0  0  0  0  0  0
    8.4477   -0.8989    0.0000 H   0  0  0  0  0  0  0  0  0  0  0  0
    8.2240   -0.0511    0.0000 H   0  0  0  0  0  0  0  0  0  0  0  0
    6.9959    3.5673    0.0000 H   0  0  0  0  0  0  0  0  0  0  0  0
    4.7243    4.2486    0.0000 H   0  0  0  0  0  0  0  0  0  0  0  0
  1  9  1  0  0  0  0
  1 13  1  0  0  0  0
  2 11  1  0  0  0  0
  2 19  1  0  0  0  0
  3 12  1  0  0  0  0
  3 19  1  0  0  0  0
  4 16  1  0  0  0  0
  4 25  1  0  0  0  0
  5 14  1  0  0  0  0
  5 32  1  0  0  0  0
  6 15  2  0  0  0  0
  7 22  1  0  0  0  0
  7 36  1  0  0  0  0
  8 24  1  0  0  0  0
  8 37  1  0  0  0  0
  9 10  2  0  0  0  0
  9 11  1  0  0  0  0
 10 14  1  0  0  0  0
 10 15  1  0  0  0  0
 11 12  2  0  0  0  0
 12 17  1  0  0  0  0
 13 16  2  0  0  0  0
 13 18  1  0  0  0  0
 14 17  2  0  0  0  0
 15 16  1  0  0  0  0
 17 26  1  0  0  0  0
 18 20  2  0  0  0  0
 18 21  1  0  0  0  0
 19 27  1  0  0  0  0
 19 28  1  0  0  0  0
 20 22  1  0  0  0  0
 20 29  1  0  0  0  0
 21 23  2  0  0  0  0
 21 30  1  0  0  0  0
 22 24  2  0  0  0  0
 23 24  1  0  0  0  0
 23 31  1  0  0  0  0
 25 33  1  0  0  0  0
 25 34  1  0  0  0  0
 25 35  1  0  0  0  0
M  END
>  <PUBCHEM_COMPOUND_CID>
12444939

>  <PUBCHEM_COMPOUND_CANONICALIZED>
1

>  <PUBCHEM_CACTVS_COMPLEXITY>
575

>  <PUBCHEM_CACTVS_HBOND_ACCEPTOR>
8

>  <PUBCHEM_CACTVS_HBOND_DONOR>
3

>  <PUBCHEM_CACTVS_ROTATABLE_BOND>
2

>  <PUBCHEM_CACTVS_SUBSKEYS>
AAADccB4PAAAAAAAAAAAAAAAAAAAASAAAAAwYIAAAAAAAEiBQAAAGgAACAAADASAmAMyDoAABgCIAqBSAAICCAAkIAAIiAFGiMgdJzaGNR6ieWOl4BUPuQfK7LzOIQABCAAIQABCAAIQABCAAAAAAAAAAA==

>  <PUBCHEM_IUPAC_OPENEYE_NAME>
8-(3,4-dihydroxyphenyl)-5-hydroxy-7-methoxy-[1,3]dioxolo[4,5-h]chromen-6-one

>  <PUBCHEM_IUPAC_CAS_NAME>
8-(3,4-dihydroxyphenyl)-5-hydroxy-7-methoxy-[1,3]dioxolo[4,5-h][1]benzopyran-6-one

>  <PUBCHEM_IUPAC_NAME>
8-(3,4-dihydroxyphenyl)-5-hydroxy-7-methoxy-[1,3]dioxolo[4,5-h]chromen-6-one

>  <PUBCHEM_IUPAC_SYSTEMATIC_NAME>
8-[3,4-bis(oxidanyl)phenyl]-7-methoxy-5-oxidanyl-[1,3]dioxolo[4,5-h]chromen-6-one

>  <PUBCHEM_IUPAC_TRADITIONAL_NAME>
8-(3,4-dihydroxyphenyl)-5-hydroxy-7-methoxy-[1,3]dioxolo[4,5-h]chromen-6-one

>  <PUBCHEM_IUPAC_INCHI>
InChI=1S/C17H12O8/c1-22-17-13(21)12-10(20)5-11-15(24-6-23-11)16(12)25-14(17)7-2-3-8(18)9(19)4-7/h2-5,18-20H,6H2,1H3

>  <PUBCHEM_IUPAC_INCHIKEY>
NOZQEJFGIXKUPM-UHFFFAOYSA-N

>  <PUBCHEM_XLOGP3_AA>
2.7

>  <PUBCHEM_EXACT_MASS>
344.053

>  <PUBCHEM_MOLECULAR_FORMULA>
C17H12O8

>  <PUBCHEM_MOLECULAR_WEIGHT>
344.275

>  <PUBCHEM_OPENEYE_CAN_SMILES>
COC1=C(OC2=C3C(=CC(=C2C1=O)O)OCO3)C4=CC(=C(C=C4)O)O

>  <PUBCHEM_OPENEYE_ISO_SMILES>
COC1=C(OC2=C3C(=CC(=C2C1=O)O)OCO3)C4=CC(=C(C=C4)O)O

>  <PUBCHEM_CACTVS_TPSA>
115

>  <PUBCHEM_MONOISOTOPIC_WEIGHT>
344.053

>  <PUBCHEM_TOTAL_CHARGE>
0

>  <PUBCHEM_HEAVY_ATOM_COUNT>
25

>  <PUBCHEM_ATOM_DEF_STEREO_COUNT>
0

>  <PUBCHEM_ATOM_UDEF_STEREO_COUNT>
0

>  <PUBCHEM_BOND_DEF_STEREO_COUNT>
0

>  <PUBCHEM_BOND_UDEF_STEREO_COUNT>
0

>  <PUBCHEM_ISOTOPIC_ATOM_COUNT>
0

>  <PUBCHEM_COMPONENT_COUNT>
1

>  <PUBCHEM_CACTVS_TAUTO_COUNT>
54

>  <PUBCHEM_COORDINATE_TYPE>
1
5
255

>  <PUBCHEM_BONDANNOTATIONS>
1  13  8
1  9  8
10  14  8
10  15  8
11  12  8
12  17  8
13  16  8
14  17  8
15  16  8
18  20  8
18  21  8
20  22  8
21  23  8
22  24  8
23  24  8
9  10  8
9  11  8

$$$$
