12444643
 OpenBabel06101807152D

 36 37  0  0  1  0  0  0  0  0999 V2000
    5.4641   -0.5950    0.0000 O   0  0  0  0  0  0  0  0  0  0  0  0
    3.7320   -2.5950    0.0000 O   0  0  0  0  0  0  0  0  0  0  0  0
    5.4641   -3.5950    0.0000 O   0  0  0  0  0  0  0  0  0  0  0  0
    7.1962   -2.5950    0.0000 O   0  0  0  0  0  0  0  0  0  0  0  0
    7.1962   -0.5950    0.0000 O   0  0  0  0  0  0  0  0  0  0  0  0
    3.7320    0.4050    0.0000 O   0  0  0  0  0  0  0  0  0  0  0  0
    2.0000    0.4050    0.0000 O   0  0  0  0  0  0  0  0  0  0  0  0
    4.5981   -2.0950    0.0000 C   0  0  3  0  0  0  0  0  0  0  0  0
    5.4641   -2.5950    0.0000 C   0  0  3  0  0  0  0  0  0  0  0  0
    4.5981   -1.0950    0.0000 C   0  0  3  0  0  0  0  0  0  0  0  0
    6.3301   -2.0950    0.0000 C   0  0  3  0  0  0  0  0  0  0  0  0
    6.3301   -1.0950    0.0000 C   0  0  3  0  0  0  0  0  0  0  0  0
    3.7320   -0.5950    0.0000 C   0  0  0  0  0  0  0  0  0  0  0  0
    2.8660    0.9050    0.0000 C   0  0  0  0  0  0  0  0  0  0  0  0
    2.8660    1.9050    0.0000 C   0  0  0  0  0  0  0  0  0  0  0  0
    2.0000    2.4050    0.0000 C   0  0  0  0  0  0  0  0  0  0  0  0
    3.7320    2.4050    0.0000 C   0  0  0  0  0  0  0  0  0  0  0  0
    2.0000    3.4050    0.0000 C   0  0  0  0  0  0  0  0  0  0  0  0
    3.7320    3.4050    0.0000 C   0  0  0  0  0  0  0  0  0  0  0  0
    2.8660    3.9050    0.0000 C   0  0  0  0  0  0  0  0  0  0  0  0
    4.5981   -2.7150    0.0000 H   0  0  0  0  0  0  0  0  0  0  0  0
    6.0010   -2.9050    0.0000 H   0  0  0  0  0  0  0  0  0  0  0  0
    4.5981   -0.4750    0.0000 H   0  0  0  0  0  0  0  0  0  0  0  0
    6.8671   -1.7850    0.0000 H   0  0  0  0  0  0  0  0  0  0  0  0
    6.3301   -0.4750    0.0000 H   0  0  0  0  0  0  0  0  0  0  0  0
    3.1215   -0.4873    0.0000 H   0  0  0  0  0  0  0  0  0  0  0  0
    3.5200   -1.1776    0.0000 H   0  0  0  0  0  0  0  0  0  0  0  0
    3.1951   -2.2850    0.0000 H   0  0  0  0  0  0  0  0  0  0  0  0
    6.0010   -3.9050    0.0000 H   0  0  0  0  0  0  0  0  0  0  0  0
    7.7331   -2.2850    0.0000 H   0  0  0  0  0  0  0  0  0  0  0  0
    7.1962    0.0250    0.0000 H   0  0  0  0  0  0  0  0  0  0  0  0
    1.4631    2.0950    0.0000 H   0  0  0  0  0  0  0  0  0  0  0  0
    4.2690    2.0950    0.0000 H   0  0  0  0  0  0  0  0  0  0  0  0
    1.4631    3.7150    0.0000 H   0  0  0  0  0  0  0  0  0  0  0  0
    4.2690    3.7150    0.0000 H   0  0  0  0  0  0  0  0  0  0  0  0
    2.8660    4.5250    0.0000 H   0  0  0  0  0  0  0  0  0  0  0  0
  1 10  1  0  0  0  0
  1 12  1  0  0  0  0
  2  8  1  0  0  0  0
  2 28  1  0  0  0  0
  3  9  1  0  0  0  0
  3 29  1  0  0  0  0
  4 11  1  0  0  0  0
  4 30  1  0  0  0  0
  5 12  1  0  0  0  0
  5 31  1  0  0  0  0
  6 13  1  0  0  0  0
  6 14  1  0  0  0  0
  7 14  2  0  0  0  0
  8  9  1  0  0  0  0
  8 10  1  0  0  0  0
  8 21  1  0  0  0  0
  9 11  1  0  0  0  0
  9 22  1  0  0  0  0
 10 13  1  0  0  0  0
 10 23  1  0  0  0  0
 11 12  1  0  0  0  0
 11 24  1  0  0  0  0
 12 25  1  0  0  0  0
 13 26  1  0  0  0  0
 13 27  1  0  0  0  0
 14 15  1  0  0  0  0
 15 16  2  0  0  0  0
 15 17  1  0  0  0  0
 16 18  1  0  0  0  0
 16 32  1  0  0  0  0
 17 19  2  0  0  0  0
 17 33  1  0  0  0  0
 18 20  2  0  0  0  0
 18 34  1  0  0  0  0
 19 20  1  0  0  0  0
 19 35  1  0  0  0  0
 20 36  1  0  0  0  0
M  END
>  <PUBCHEM_COMPOUND_CID>
12444643

>  <PUBCHEM_COMPOUND_CANONICALIZED>
1

>  <PUBCHEM_CACTVS_COMPLEXITY>
329

>  <PUBCHEM_CACTVS_HBOND_ACCEPTOR>
7

>  <PUBCHEM_CACTVS_HBOND_DONOR>
4

>  <PUBCHEM_CACTVS_ROTATABLE_BOND>
4

>  <PUBCHEM_CACTVS_SUBSKEYS>
AAADceBwOAAAAAAAAAAAAAAAAAAAAAAAAAA0QAAAAAAAAAABAAAAGgAACAAADBSwmAMwCIAABgCIAiDSCAACAAAkAAAIiAEACMgZNjKANRiCcQAlwAEPqYfI6CyOAAAAAAAAAAAAAAAAAAAAAAAAAAAAAA==

>  <PUBCHEM_IUPAC_OPENEYE_NAME>
(3,4,5,6-tetrahydroxytetrahydropyran-2-yl)methyl benzoate

>  <PUBCHEM_IUPAC_CAS_NAME>
benzoic acid (3,4,5,6-tetrahydroxy-2-oxanyl)methyl ester

>  <PUBCHEM_IUPAC_NAME>
(3,4,5,6-tetrahydroxyoxan-2-yl)methyl benzoate

>  <PUBCHEM_IUPAC_SYSTEMATIC_NAME>
[3,4,5,6-tetrakis(oxidanyl)oxan-2-yl]methyl benzoate

>  <PUBCHEM_IUPAC_TRADITIONAL_NAME>
benzoic acid (3,4,5,6-tetrahydroxytetrahydropyran-2-yl)methyl ester

>  <PUBCHEM_IUPAC_INCHI>
InChI=1S/C13H16O7/c14-9-8(20-13(18)11(16)10(9)15)6-19-12(17)7-4-2-1-3-5-7/h1-5,8-11,13-16,18H,6H2

>  <PUBCHEM_IUPAC_INCHIKEY>
MRDRXKCKIMVUHN-UHFFFAOYSA-N

>  <PUBCHEM_XLOGP3_AA>
-0.9

>  <PUBCHEM_EXACT_MASS>
284.09

>  <PUBCHEM_MOLECULAR_FORMULA>
C13H16O7

>  <PUBCHEM_MOLECULAR_WEIGHT>
284.264

>  <PUBCHEM_OPENEYE_CAN_SMILES>
C1=CC=C(C=C1)C(=O)OCC2C(C(C(C(O2)O)O)O)O

>  <PUBCHEM_OPENEYE_ISO_SMILES>
C1=CC=C(C=C1)C(=O)OCC2C(C(C(C(O2)O)O)O)O

>  <PUBCHEM_CACTVS_TPSA>
116

>  <PUBCHEM_MONOISOTOPIC_WEIGHT>
284.09

>  <PUBCHEM_TOTAL_CHARGE>
0

>  <PUBCHEM_HEAVY_ATOM_COUNT>
20

>  <PUBCHEM_ATOM_DEF_STEREO_COUNT>
0

>  <PUBCHEM_ATOM_UDEF_STEREO_COUNT>
5

>  <PUBCHEM_BOND_DEF_STEREO_COUNT>
0

>  <PUBCHEM_BOND_UDEF_STEREO_COUNT>
0

>  <PUBCHEM_ISOTOPIC_ATOM_COUNT>
0

>  <PUBCHEM_COMPONENT_COUNT>
1

>  <PUBCHEM_CACTVS_TAUTO_COUNT>
1

>  <PUBCHEM_COORDINATE_TYPE>
1
5
255

>  <PUBCHEM_BONDANNOTATIONS>
10  13  3
15  16  8
15  17  8
16  18  8
17  19  8
18  20  8
19  20  8
8  2  3
9  3  3
11  4  3
12  5  3

$$$$
