12444395
 OpenBabel06101807152D

 39 39  0  0  0  0  0  0  0  0999 V2000
    2.8090   -2.7814    0.0000 O   0  0  0  0  0  0  0  0  0  0  0  0
   11.2206    2.2798    0.0000 O   0  0  0  0  0  0  0  0  0  0  0  0
    7.0614    0.9754    0.0000 C   0  0  0  0  0  0  0  0  0  0  0  0
    6.4736    0.1664    0.0000 C   0  0  0  0  0  0  0  0  0  0  0  0
    4.8913   -0.5381    0.0000 C   0  0  0  0  0  0  0  0  0  0  0  0
    8.0559    0.8709    0.0000 C   0  0  0  0  0  0  0  0  0  0  0  0
    3.8968   -0.4336    0.0000 C   0  0  0  0  0  0  0  0  0  0  0  0
    5.4791    0.2709    0.0000 C   0  0  0  0  0  0  0  0  0  0  0  0
    3.3090   -1.2426    0.0000 C   0  0  0  0  0  0  0  0  0  0  0  0
    8.6437    1.6799    0.0000 C   0  0  0  0  0  0  0  0  0  0  0  0
    6.8804   -0.7472    0.0000 C   0  0  0  0  0  0  0  0  0  0  0  0
    9.6382    1.5754    0.0000 C   0  0  0  0  0  0  0  0  0  0  0  0
    2.3090   -1.2426    0.0000 C   0  0  0  0  0  0  0  0  0  0  0  0
    3.6180   -2.1936    0.0000 C   0  0  0  0  0  0  0  0  0  0  0  0
   10.2260    2.3844    0.0000 C   0  0  0  0  0  0  0  0  0  0  0  0
   10.0450    0.6618    0.0000 C   0  0  0  0  0  0  0  0  0  0  0  0
    2.0000   -2.1936    0.0000 C   0  0  0  0  0  0  0  0  0  0  0  0
    7.2323    1.5714    0.0000 H   0  0  0  0  0  0  0  0  0  0  0  0
    6.5042    1.2472    0.0000 H   0  0  0  0  0  0  0  0  0  0  0  0
    4.7204   -1.1341    0.0000 H   0  0  0  0  0  0  0  0  0  0  0  0
    5.4486   -0.8099    0.0000 H   0  0  0  0  0  0  0  0  0  0  0  0
    7.8850    0.2749    0.0000 H   0  0  0  0  0  0  0  0  0  0  0  0
    8.6132    0.5991    0.0000 H   0  0  0  0  0  0  0  0  0  0  0  0
    4.0677    0.1624    0.0000 H   0  0  0  0  0  0  0  0  0  0  0  0
    3.3396   -0.1618    0.0000 H   0  0  0  0  0  0  0  0  0  0  0  0
    5.2269    0.8373    0.0000 H   0  0  0  0  0  0  0  0  0  0  0  0
    8.3916    2.2463    0.0000 H   0  0  0  0  0  0  0  0  0  0  0  0
    6.3140   -0.9993    0.0000 H   0  0  0  0  0  0  0  0  0  0  0  0
    7.1325   -1.3136    0.0000 H   0  0  0  0  0  0  0  0  0  0  0  0
    7.4468   -0.4950    0.0000 H   0  0  0  0  0  0  0  0  0  0  0  0
    1.9446   -0.7410    0.0000 H   0  0  0  0  0  0  0  0  0  0  0  0
    4.2077   -2.3852    0.0000 H   0  0  0  0  0  0  0  0  0  0  0  0
   10.3969    2.9804    0.0000 H   0  0  0  0  0  0  0  0  0  0  0  0
    9.6688    2.6562    0.0000 H   0  0  0  0  0  0  0  0  0  0  0  0
    9.4786    0.4096    0.0000 H   0  0  0  0  0  0  0  0  0  0  0  0
   10.2972    0.0954    0.0000 H   0  0  0  0  0  0  0  0  0  0  0  0
   10.6114    0.9140    0.0000 H   0  0  0  0  0  0  0  0  0  0  0  0
    1.4103   -2.3852    0.0000 H   0  0  0  0  0  0  0  0  0  0  0  0
   11.5850    2.7814    0.0000 H   0  0  0  0  0  0  0  0  0  0  0  0
  1 14  1  0  0  0  0
  1 17  1  0  0  0  0
  2 15  1  0  0  0  0
  2 39  1  0  0  0  0
  3  4  1  0  0  0  0
  3  6  1  0  0  0  0
  3 18  1  0  0  0  0
  3 19  1  0  0  0  0
  4  8  2  0  0  0  0
  4 11  1  0  0  0  0
  5  7  1  0  0  0  0
  5  8  1  0  0  0  0
  5 20  1  0  0  0  0
  5 21  1  0  0  0  0
  6 10  1  0  0  0  0
  6 22  1  0  0  0  0
  6 23  1  0  0  0  0
  7  9  1  0  0  0  0
  7 24  1  0  0  0  0
  7 25  1  0  0  0  0
  8 26  1  0  0  0  0
  9 13  1  0  0  0  0
  9 14  2  0  0  0  0
 10 12  2  0  0  0  0
 10 27  1  0  0  0  0
 11 28  1  0  0  0  0
 11 29  1  0  0  0  0
 11 30  1  0  0  0  0
 12 15  1  0  0  0  0
 12 16  1  0  0  0  0
 13 17  2  0  0  0  0
 13 31  1  0  0  0  0
 14 32  1  0  0  0  0
 15 33  1  0  0  0  0
 15 34  1  0  0  0  0
 16 35  1  0  0  0  0
 16 36  1  0  0  0  0
 16 37  1  0  0  0  0
 17 38  1  0  0  0  0
M  END
>  <PUBCHEM_COMPOUND_CID>
12444395

>  <PUBCHEM_COMPOUND_CANONICALIZED>
1

>  <PUBCHEM_CACTVS_COMPLEXITY>
266

>  <PUBCHEM_CACTVS_HBOND_ACCEPTOR>
2

>  <PUBCHEM_CACTVS_HBOND_DONOR>
1

>  <PUBCHEM_CACTVS_ROTATABLE_BOND>
7

>  <PUBCHEM_CACTVS_SUBSKEYS>
AAADceBwMAAAAAAAAAAAAAAAAAAAASAAAAAAAAAAAAAAAAABgAAAGgAACAAADACgmAIyBIAABkCIAihSgAACCAAkIAAIiAEGCMgMNhIENQqCWSCkwBEIOYOISAAOAAAAAAAAAAAAAAAAAAAAAAAAAAAAAA==

>  <PUBCHEM_IUPAC_OPENEYE_NAME>
(2E,6E)-9-(3-furyl)-2,6-dimethyl-nona-2,6-dien-1-ol

>  <PUBCHEM_IUPAC_CAS_NAME>
(2E,6E)-9-(3-furanyl)-2,6-dimethyl-1-nona-2,6-dienol

>  <PUBCHEM_IUPAC_NAME>
(2E,6E)-9-(furan-3-yl)-2,6-dimethylnona-2,6-dien-1-ol

>  <PUBCHEM_IUPAC_SYSTEMATIC_NAME>
(2E,6E)-9-(furan-3-yl)-2,6-dimethyl-nona-2,6-dien-1-ol

>  <PUBCHEM_IUPAC_TRADITIONAL_NAME>
(2E,6E)-9-(3-furyl)-2,6-dimethyl-nona-2,6-dien-1-ol

>  <PUBCHEM_IUPAC_INCHI>
InChI=1S/C15H22O2/c1-13(5-3-7-14(2)11-16)6-4-8-15-9-10-17-12-15/h6-7,9-10,12,16H,3-5,8,11H2,1-2H3/b13-6+,14-7+

>  <PUBCHEM_IUPAC_INCHIKEY>
AAVGOORHZRJMPA-AANLELRNSA-N

>  <PUBCHEM_XLOGP3_AA>
3.8

>  <PUBCHEM_EXACT_MASS>
234.162

>  <PUBCHEM_MOLECULAR_FORMULA>
C15H22O2

>  <PUBCHEM_MOLECULAR_WEIGHT>
234.339

>  <PUBCHEM_OPENEYE_CAN_SMILES>
CC(=CCCC1=COC=C1)CCC=C(C)CO

>  <PUBCHEM_OPENEYE_ISO_SMILES>
C/C(=C\CCC1=COC=C1)/CC/C=C(\C)/CO

>  <PUBCHEM_CACTVS_TPSA>
33.4

>  <PUBCHEM_MONOISOTOPIC_WEIGHT>
234.162

>  <PUBCHEM_TOTAL_CHARGE>
0

>  <PUBCHEM_HEAVY_ATOM_COUNT>
17

>  <PUBCHEM_ATOM_DEF_STEREO_COUNT>
0

>  <PUBCHEM_ATOM_UDEF_STEREO_COUNT>
0

>  <PUBCHEM_BOND_DEF_STEREO_COUNT>
2

>  <PUBCHEM_BOND_UDEF_STEREO_COUNT>
0

>  <PUBCHEM_ISOTOPIC_ATOM_COUNT>
0

>  <PUBCHEM_COMPONENT_COUNT>
1

>  <PUBCHEM_CACTVS_TAUTO_COUNT>
1

>  <PUBCHEM_COORDINATE_TYPE>
1
5
255

>  <PUBCHEM_BONDANNOTATIONS>
1  14  8
1  17  8
13  17  8
9  13  8
9  14  8

$$$$
