124823
 OpenBabel06101807152D

 32 32  0  0  1  0  0  0  0  0999 V2000
    3.7690   -1.9330    0.0000 P   0  0  0  0  0  0  0  0  0  0  0  0
    5.1350    0.4330    0.0000 O   0  0  0  0  0  0  0  0  0  0  0  0
    3.7690   -0.9330    0.0000 O   0  0  0  0  0  0  0  0  0  0  0  0
    2.5369   -0.0670    0.0000 O   0  0  0  0  0  0  0  0  0  0  0  0
    2.5369    1.9330    0.0000 O   0  0  0  0  0  0  0  0  0  0  0  0
    4.2690    2.9330    0.0000 O   0  0  0  0  0  0  0  0  0  0  0  0
    6.8671    1.4330    0.0000 O   0  0  0  0  0  0  0  0  0  0  0  0
    3.7690   -2.9330    0.0000 O   0  0  0  0  0  0  0  0  0  0  0  0
    2.7690   -1.9331    0.0000 O   0  0  0  0  0  0  0  0  0  0  0  0
    4.7690   -1.9330    0.0000 O   0  0  0  0  0  0  0  0  0  0  0  0
    4.2690   -0.0670    0.0000 C   0  0  2  0  0  0  0  0  0  0  0  0
    3.4030    0.4330    0.0000 C   0  0  1  0  0  0  0  0  0  0  0  0
    3.4030    1.4330    0.0000 C   0  0  2  0  0  0  0  0  0  0  0  0
    4.2690    1.9330    0.0000 C   0  0  1  0  0  0  0  0  0  0  0  0
    5.1350    1.4330    0.0000 C   0  0  1  0  0  0  0  0  0  0  0  0
    5.1350   -0.5670    0.0000 C   0  0  0  0  0  0  0  0  0  0  0  0
    6.0010    1.9330    0.0000 C   0  0  0  0  0  0  0  0  0  0  0  0
    3.4030   -0.1870    0.0000 H   0  0  0  0  0  0  0  0  0  0  0  0
    3.4030    2.0530    0.0000 H   0  0  0  0  0  0  0  0  0  0  0  0
    4.8059    2.2430    0.0000 H   0  0  0  0  0  0  0  0  0  0  0  0
    5.6720    1.1230    0.0000 H   0  0  0  0  0  0  0  0  0  0  0  0
    4.8250   -1.1039    0.0000 H   0  0  0  0  0  0  0  0  0  0  0  0
    5.6720   -0.8770    0.0000 H   0  0  0  0  0  0  0  0  0  0  0  0
    5.4450   -0.0301    0.0000 H   0  0  0  0  0  0  0  0  0  0  0  0
    6.3996    2.4080    0.0000 H   0  0  0  0  0  0  0  0  0  0  0  0
    5.6025    2.4080    0.0000 H   0  0  0  0  0  0  0  0  0  0  0  0
    2.0000    0.2430    0.0000 H   0  0  0  0  0  0  0  0  0  0  0  0
    2.5369    2.5530    0.0000 H   0  0  0  0  0  0  0  0  0  0  0  0
    4.8059    3.2430    0.0000 H   0  0  0  0  0  0  0  0  0  0  0  0
    7.4040    1.7430    0.0000 H   0  0  0  0  0  0  0  0  0  0  0  0
    3.2320   -3.2430    0.0000 H   0  0  0  0  0  0  0  0  0  0  0  0
    2.4590   -2.4700    0.0000 H   0  0  0  0  0  0  0  0  0  0  0  0
  1  3  1  0  0  0  0
  1  8  1  0  0  0  0
  1  9  1  0  0  0  0
  1 10  2  0  0  0  0
  2 11  1  0  0  0  0
  2 15  1  0  0  0  0
  4 27  1  0  0  0  0
  5 28  1  0  0  0  0
  6 29  1  0  0  0  0
  7 17  1  0  0  0  0
  7 30  1  0  0  0  0
  8 31  1  0  0  0  0
  9 32  1  0  0  0  0
 11  3  1  0  0  0  0
 11 12  1  1  0  0  0
 11 16  1  0  0  0  0
 12  4  1  0  0  0  0
 12 13  1  1  0  0  0
 12 18  1  0  0  0  0
 13  5  1  0  0  0  0
 13 14  1  1  0  0  0
 13 19  1  0  0  0  0
 14  6  1  0  0  0  0
 14 15  1  6  0  0  0
 14 20  1  0  0  0  0
 15 17  1  0  0  0  0
 15 21  1  6  0  0  0
 16 22  1  0  0  0  0
 16 23  1  0  0  0  0
 16 24  1  0  0  0  0
 17 25  1  0  0  0  0
 17 26  1  0  0  0  0
M  END
>  <PUBCHEM_COMPOUND_CID>
124823

>  <PUBCHEM_COMPOUND_CANONICALIZED>
1

>  <PUBCHEM_CACTVS_COMPLEXITY>
317

>  <PUBCHEM_CACTVS_HBOND_ACCEPTOR>
9

>  <PUBCHEM_CACTVS_HBOND_DONOR>
6

>  <PUBCHEM_CACTVS_ROTATABLE_BOND>
3

>  <PUBCHEM_CACTVS_SUBSKEYS>
AAADccBgPAIAAAAAAAAAAAAAAAAAAAAAAAAkAAAAAAAAAAAAAAAAGgAACCAACBSggAICCAAABxAAQAAAAIAAAAAAAAAAAAAAAAAREAIAAAACQAAFAAAHAAHA4CQAAAAAAAAAAAAAAAAAAAAAAAAAAAAAAA==

>  <PUBCHEM_IUPAC_OPENEYE_NAME>
[(2R,3R,4S,5S,6R)-3,4,5-trihydroxy-6-(hydroxymethyl)-2-methyl-tetrahydropyran-2-yl] dihydrogen phosphate

>  <PUBCHEM_IUPAC_CAS_NAME>
[(2R,3R,4S,5S,6R)-3,4,5-trihydroxy-6-(hydroxymethyl)-2-methyl-2-oxanyl] dihydrogen phosphate

>  <PUBCHEM_IUPAC_NAME>
[(2R,3R,4S,5S,6R)-3,4,5-trihydroxy-6-(hydroxymethyl)-2-methyloxan-2-yl] dihydrogen phosphate

>  <PUBCHEM_IUPAC_SYSTEMATIC_NAME>
[(2R,3R,4S,5S,6R)-6-(hydroxymethyl)-2-methyl-3,4,5-tris(oxidanyl)oxan-2-yl] dihydrogen phosphate

>  <PUBCHEM_IUPAC_TRADITIONAL_NAME>
[(2R,3R,4S,5S,6R)-3,4,5-trihydroxy-2-methyl-6-methylol-tetrahydropyran-2-yl] dihydrogen phosphate

>  <PUBCHEM_IUPAC_INCHI>
InChI=1S/C7H15O9P/c1-7(16-17(12,13)14)6(11)5(10)4(9)3(2-8)15-7/h3-6,8-11H,2H2,1H3,(H2,12,13,14)/t3-,4-,5+,6-,7-/m1/s1

>  <PUBCHEM_IUPAC_INCHIKEY>
QZBAZODTRUGOQS-XUUWZHRGSA-N

>  <PUBCHEM_XLOGP3_AA>
-3.5

>  <PUBCHEM_EXACT_MASS>
274.045

>  <PUBCHEM_MOLECULAR_FORMULA>
C7H15O9P

>  <PUBCHEM_MOLECULAR_WEIGHT>
274.162

>  <PUBCHEM_OPENEYE_CAN_SMILES>
CC1(C(C(C(C(O1)CO)O)O)O)OP(=O)(O)O

>  <PUBCHEM_OPENEYE_ISO_SMILES>
C[C@]1([C@@H]([C@H]([C@@H]([C@H](O1)CO)O)O)O)OP(=O)(O)O

>  <PUBCHEM_CACTVS_TPSA>
157

>  <PUBCHEM_MONOISOTOPIC_WEIGHT>
274.045

>  <PUBCHEM_TOTAL_CHARGE>
0

>  <PUBCHEM_HEAVY_ATOM_COUNT>
17

>  <PUBCHEM_ATOM_DEF_STEREO_COUNT>
5

>  <PUBCHEM_ATOM_UDEF_STEREO_COUNT>
0

>  <PUBCHEM_BOND_DEF_STEREO_COUNT>
0

>  <PUBCHEM_BOND_UDEF_STEREO_COUNT>
0

>  <PUBCHEM_ISOTOPIC_ATOM_COUNT>
0

>  <PUBCHEM_COMPONENT_COUNT>
1

>  <PUBCHEM_CACTVS_TAUTO_COUNT>
1

>  <PUBCHEM_COORDINATE_TYPE>
1
5
255

>  <PUBCHEM_BONDANNOTATIONS>
15  17  5
11  3  6
12  4  6
13  5  5
14  6  6

$$$$
