12618691
 OpenBabel06101807152D

 27 27  0  0  1  0  0  0  0  0999 V2000
    3.3660    2.1830    0.0000 O   0  0  0  0  0  0  0  0  0  0  0  0
    2.8660    1.3170    0.0000 C   0  0  1  0  0  0  0  0  0  0  0  0
    2.0000    0.8170    0.0000 C   0  0  0  0  0  0  0  0  0  0  0  0
    2.0000   -0.1830    0.0000 C   0  0  0  0  0  0  0  0  0  0  0  0
    2.8660   -0.6830    0.0000 C   0  0  1  0  0  0  0  0  0  0  0  0
    3.7320    0.8170    0.0000 C   0  0  0  0  0  0  0  0  0  0  0  0
    3.7320   -0.1830    0.0000 C   0  0  0  0  0  0  0  0  0  0  0  0
    2.3660    2.1830    0.0000 C   0  0  0  0  0  0  0  0  0  0  0  0
    2.8660   -1.6830    0.0000 C   0  0  0  0  0  0  0  0  0  0  0  0
    2.0000   -2.1830    0.0000 C   0  0  0  0  0  0  0  0  0  0  0  0
    3.7320   -2.1830    0.0000 C   0  0  0  0  0  0  0  0  0  0  0  0
    1.7880    1.3996    0.0000 H   0  0  0  0  0  0  0  0  0  0  0  0
    1.3894    0.7093    0.0000 H   0  0  0  0  0  0  0  0  0  0  0  0
    1.3894   -0.0754    0.0000 H   0  0  0  0  0  0  0  0  0  0  0  0
    1.7880   -0.7656    0.0000 H   0  0  0  0  0  0  0  0  0  0  0  0
    3.4030   -0.9930    0.0000 H   0  0  0  0  0  0  0  0  0  0  0  0
    4.2690    1.1270    0.0000 H   0  0  0  0  0  0  0  0  0  0  0  0
    4.2690   -0.4930    0.0000 H   0  0  0  0  0  0  0  0  0  0  0  0
    2.9030    2.4930    0.0000 H   0  0  0  0  0  0  0  0  0  0  0  0
    2.0560    2.7200    0.0000 H   0  0  0  0  0  0  0  0  0  0  0  0
    1.8291    1.8730    0.0000 H   0  0  0  0  0  0  0  0  0  0  0  0
    3.9860    2.1830    0.0000 H   0  0  0  0  0  0  0  0  0  0  0  0
    1.6900   -1.6461    0.0000 H   0  0  0  0  0  0  0  0  0  0  0  0
    1.4631   -2.4930    0.0000 H   0  0  0  0  0  0  0  0  0  0  0  0
    2.3100   -2.7200    0.0000 H   0  0  0  0  0  0  0  0  0  0  0  0
    3.7320   -2.8030    0.0000 H   0  0  0  0  0  0  0  0  0  0  0  0
    4.2690   -1.8730    0.0000 H   0  0  0  0  0  0  0  0  0  0  0  0
  1 22  1  0  0  0  0
  2  1  1  6  0  0  0
  2  3  1  0  0  0  0
  2  6  1  0  0  0  0
  2  8  1  0  0  0  0
  3  4  1  0  0  0  0
  3 12  1  0  0  0  0
  3 13  1  0  0  0  0
  4  5  1  0  0  0  0
  4 14  1  0  0  0  0
  4 15  1  0  0  0  0
  5  7  1  0  0  0  0
  5  9  1  0  0  0  0
  5 16  1  6  0  0  0
  6  7  2  0  0  0  0
  6 17  1  0  0  0  0
  7 18  1  0  0  0  0
  8 19  1  0  0  0  0
  8 20  1  0  0  0  0
  8 21  1  0  0  0  0
  9 10  1  0  0  0  0
  9 11  2  0  0  0  0
 10 23  1  0  0  0  0
 10 24  1  0  0  0  0
 10 25  1  0  0  0  0
 11 26  1  0  0  0  0
 11 27  1  0  0  0  0
M  END
>  <PUBCHEM_COMPOUND_CID>
12618691

>  <PUBCHEM_COMPOUND_CANONICALIZED>
1

>  <PUBCHEM_CACTVS_COMPLEXITY>
193

>  <PUBCHEM_CACTVS_HBOND_ACCEPTOR>
1

>  <PUBCHEM_CACTVS_HBOND_DONOR>
1

>  <PUBCHEM_CACTVS_ROTATABLE_BOND>
1

>  <PUBCHEM_CACTVS_SUBSKEYS>
AAADceBwIAAAAAAAAAAAAAAAAAAAAAAAAAAgAAAAAAAAAAAAAAAAGgAACAAADUSAgAACAAAAAgCAAiBCAAAAAAAgAAAICAAAAAgABAIAAQAAUAAEgAAIEAOAwEAOAAAAAAAAAAAAAAAAAAAAAAAAAAAAAA==

>  <PUBCHEM_IUPAC_OPENEYE_NAME>
(1S,4S)-4-isopropenyl-1-methyl-cyclohex-2-en-1-ol

>  <PUBCHEM_IUPAC_CAS_NAME>
(1S,4S)-1-methyl-4-(1-methylethenyl)-1-cyclohex-2-enol

>  <PUBCHEM_IUPAC_NAME>
(1S,4S)-1-methyl-4-prop-1-en-2-ylcyclohex-2-en-1-ol

>  <PUBCHEM_IUPAC_SYSTEMATIC_NAME>
(1S,4S)-1-methyl-4-prop-1-en-2-yl-cyclohex-2-en-1-ol

>  <PUBCHEM_IUPAC_TRADITIONAL_NAME>
(1S,4S)-4-isopropenyl-1-methyl-cyclohex-2-en-1-ol

>  <PUBCHEM_IUPAC_INCHI>
InChI=1S/C10H16O/c1-8(2)9-4-6-10(3,11)7-5-9/h4,6,9,11H,1,5,7H2,2-3H3/t9-,10-/m1/s1

>  <PUBCHEM_IUPAC_INCHIKEY>
MKPMHJQMNACGDI-NXEZZACHSA-N

>  <PUBCHEM_XLOGP3_AA>
2.4

>  <PUBCHEM_EXACT_MASS>
152.12

>  <PUBCHEM_MOLECULAR_FORMULA>
C10H16O

>  <PUBCHEM_MOLECULAR_WEIGHT>
152.237

>  <PUBCHEM_OPENEYE_CAN_SMILES>
CC(=C)C1CCC(C=C1)(C)O

>  <PUBCHEM_OPENEYE_ISO_SMILES>
CC(=C)[C@H]1CC[C@](C=C1)(C)O

>  <PUBCHEM_CACTVS_TPSA>
20.2

>  <PUBCHEM_MONOISOTOPIC_WEIGHT>
152.12

>  <PUBCHEM_TOTAL_CHARGE>
0

>  <PUBCHEM_HEAVY_ATOM_COUNT>
11

>  <PUBCHEM_ATOM_DEF_STEREO_COUNT>
2

>  <PUBCHEM_ATOM_UDEF_STEREO_COUNT>
0

>  <PUBCHEM_BOND_DEF_STEREO_COUNT>
0

>  <PUBCHEM_BOND_UDEF_STEREO_COUNT>
0

>  <PUBCHEM_ISOTOPIC_ATOM_COUNT>
0

>  <PUBCHEM_COMPONENT_COUNT>
1

>  <PUBCHEM_CACTVS_TAUTO_COUNT>
1

>  <PUBCHEM_COORDINATE_TYPE>
1
5
255

>  <PUBCHEM_BONDANNOTATIONS>
2  1  6
5  9  5

$$$$
