128508
 OpenBabel06101807152D

 61 64  0  0  1  0  0  0  0  0999 V2000
   11.2461    1.4952    0.0000 O   0  0  0  0  0  0  0  0  0  0  0  0
   12.5190   -0.2600    0.0000 O   0  0  0  0  0  0  0  0  0  0  0  0
   12.8924    0.9572    0.0000 O   0  0  0  0  0  0  0  0  0  0  0  0
    4.5961   -2.8124    0.0000 O   0  0  0  0  0  0  0  0  0  0  0  0
    3.7359   -1.3090    0.0000 O   0  0  0  0  0  0  0  0  0  0  0  0
    9.9892    0.2400    0.0000 C   0  0  1  0  0  0  0  0  0  0  0  0
    9.9892   -0.7600    0.0000 C   0  0  2  0  0  0  0  0  0  0  0  0
    9.1232   -1.2600    0.0000 C   0  0  1  0  0  0  0  0  0  0  0  0
   10.9354    0.5447    0.0000 C   0  0  2  0  0  0  0  0  0  0  0  0
    8.2572   -0.7600    0.0000 C   0  0  2  0  0  0  0  0  0  0  0  0
    9.1232    0.7400    0.0000 C   0  0  0  0  0  0  0  0  0  0  0  0
   10.9354   -1.0648    0.0000 C   0  0  0  0  0  0  0  0  0  0  0  0
   11.5190   -0.2600    0.0000 C   0  0  1  0  0  0  0  0  0  0  0  0
    8.2572    0.2400    0.0000 C   0  0  0  0  0  0  0  0  0  0  0  0
    9.1392   -2.3015    0.0000 C   0  0  0  0  0  0  0  0  0  0  0  0
    9.9892    1.2400    0.0000 C   0  0  0  0  0  0  0  0  0  0  0  0
    7.3472   -1.2669    0.0000 C   0  0  0  0  0  0  0  0  0  0  0  0
    8.2412   -2.8293    0.0000 C   0  0  0  0  0  0  0  0  0  0  0  0
    7.3391   -2.3085    0.0000 C   0  0  0  0  0  0  0  0  0  0  0  0
    6.4203   -0.7028    0.0000 C   0  0  0  0  0  0  0  0  0  0  0  0
    6.4037   -2.8582    0.0000 C   0  0  0  0  0  0  0  0  0  0  0  0
   12.2246    1.7014    0.0000 C   0  0  0  0  0  0  0  0  0  0  0  0
    5.4724   -1.2307    0.0000 C   0  0  0  0  0  0  0  0  0  0  0  0
    5.4641   -2.3157    0.0000 C   0  0  0  0  0  0  0  0  0  0  0  0
   12.5353    2.6520    0.0000 C   0  0  0  0  0  0  0  0  0  0  0  0
   13.5138    2.8582    0.0000 C   0  0  0  0  0  0  0  0  0  0  0  0
    3.7320   -2.3090    0.0000 C   0  0  0  0  0  0  0  0  0  0  0  0
    2.8641   -2.8057    0.0000 C   0  0  0  0  0  0  0  0  0  0  0  0
    2.0000   -2.3023    0.0000 C   0  0  0  0  0  0  0  0  0  0  0  0
   10.0792   -1.6052    0.0000 H   0  0  0  0  0  0  0  0  0  0  0  0
    9.8626   -1.6793    0.0000 H   0  0  0  0  0  0  0  0  0  0  0  0
   10.4980    0.9841    0.0000 H   0  0  0  0  0  0  0  0  0  0  0  0
    8.9933   -0.3350    0.0000 H   0  0  0  0  0  0  0  0  0  0  0  0
    9.5217    1.2149    0.0000 H   0  0  0  0  0  0  0  0  0  0  0  0
    8.7247    1.2149    0.0000 H   0  0  0  0  0  0  0  0  0  0  0  0
   10.6844   -1.6317    0.0000 H   0  0  0  0  0  0  0  0  0  0  0  0
   11.4728   -1.3740    0.0000 H   0  0  0  0  0  0  0  0  0  0  0  0
   11.8008   -0.8123    0.0000 H   0  0  0  0  0  0  0  0  0  0  0  0
    8.0451    0.8226    0.0000 H   0  0  0  0  0  0  0  0  0  0  0  0
    7.6466    0.1323    0.0000 H   0  0  0  0  0  0  0  0  0  0  0  0
    9.3573   -2.8819    0.0000 H   0  0  0  0  0  0  0  0  0  0  0  0
    9.7484   -2.1860    0.0000 H   0  0  0  0  0  0  0  0  0  0  0  0
   10.6092    1.2400    0.0000 H   0  0  0  0  0  0  0  0  0  0  0  0
    9.9892    1.8600    0.0000 H   0  0  0  0  0  0  0  0  0  0  0  0
    9.3692    1.2400    0.0000 H   0  0  0  0  0  0  0  0  0  0  0  0
    7.8439   -3.3052    0.0000 H   0  0  0  0  0  0  0  0  0  0  0  0
    8.6422   -3.3022    0.0000 H   0  0  0  0  0  0  0  0  0  0  0  0
   12.8290   -0.7970    0.0000 H   0  0  0  0  0  0  0  0  0  0  0  0
    6.4323   -0.0829    0.0000 H   0  0  0  0  0  0  0  0  0  0  0  0
    6.4061   -3.4782    0.0000 H   0  0  0  0  0  0  0  0  0  0  0  0
    4.9391   -0.9145    0.0000 H   0  0  0  0  0  0  0  0  0  0  0  0
   12.5147    3.2716    0.0000 H   0  0  0  0  0  0  0  0  0  0  0  0
   11.9214    2.7393    0.0000 H   0  0  0  0  0  0  0  0  0  0  0  0
   13.6416    2.2515    0.0000 H   0  0  0  0  0  0  0  0  0  0  0  0
   14.1204    2.9860    0.0000 H   0  0  0  0  0  0  0  0  0  0  0  0
   13.3859    3.4649    0.0000 H   0  0  0  0  0  0  0  0  0  0  0  0
    2.4637   -3.2791    0.0000 H   0  0  0  0  0  0  0  0  0  0  0  0
    3.2608   -3.2822    0.0000 H   0  0  0  0  0  0  0  0  0  0  0  0
    2.3121   -1.7666    0.0000 H   0  0  0  0  0  0  0  0  0  0  0  0
    1.4643   -1.9903    0.0000 H   0  0  0  0  0  0  0  0  0  0  0  0
    1.6879   -2.8381    0.0000 H   0  0  0  0  0  0  0  0  0  0  0  0
  1 22  1  0  0  0  0
  2 48  1  0  0  0  0
  3 22  2  0  0  0  0
  4 24  1  0  0  0  0
  4 27  1  0  0  0  0
  5 27  2  0  0  0  0
  6  7  1  1  0  0  0
  6 11  1  0  0  0  0
  6 16  1  0  0  0  0
  7  8  1  1  0  0  0
  7 12  1  0  0  0  0
  7 30  1  0  0  0  0
  8 10  1  1  0  0  0
  8 15  1  0  0  0  0
  8 31  1  0  0  0  0
  9  1  1  0  0  0  0
  9  6  1  1  0  0  0
  9 32  1  0  0  0  0
 10 14  1  0  0  0  0
 10 17  1  0  0  0  0
 10 33  1  6  0  0  0
 11 14  1  0  0  0  0
 11 34  1  0  0  0  0
 11 35  1  0  0  0  0
 12 13  1  0  0  0  0
 12 36  1  0  0  0  0
 12 37  1  0  0  0  0
 13  2  1  0  0  0  0
 13  9  1  1  0  0  0
 13 38  1  0  0  0  0
 14 39  1  0  0  0  0
 14 40  1  0  0  0  0
 15 18  1  0  0  0  0
 15 41  1  0  0  0  0
 15 42  1  0  0  0  0
 16 43  1  0  0  0  0
 16 44  1  0  0  0  0
 16 45  1  0  0  0  0
 17 19  2  0  0  0  0
 17 20  1  0  0  0  0
 18 19  1  0  0  0  0
 18 46  1  0  0  0  0
 18 47  1  0  0  0  0
 19 21  1  0  0  0  0
 20 23  2  0  0  0  0
 20 49  1  0  0  0  0
 21 24  2  0  0  0  0
 21 50  1  0  0  0  0
 22 25  1  0  0  0  0
 23 24  1  0  0  0  0
 23 51  1  0  0  0  0
 25 26  1  0  0  0  0
 25 52  1  0  0  0  0
 25 53  1  0  0  0  0
 26 54  1  0  0  0  0
 26 55  1  0  0  0  0
 26 56  1  0  0  0  0
 27 28  1  0  0  0  0
 28 29  1  0  0  0  0
 28 57  1  0  0  0  0
 28 58  1  0  0  0  0
 29 59  1  0  0  0  0
 29 60  1  0  0  0  0
 29 61  1  0  0  0  0
M  END
>  <PUBCHEM_COMPOUND_CID>
128508

>  <PUBCHEM_COMPOUND_CANONICALIZED>
1

>  <PUBCHEM_CACTVS_COMPLEXITY>
633

>  <PUBCHEM_CACTVS_HBOND_ACCEPTOR>
5

>  <PUBCHEM_CACTVS_HBOND_DONOR>
1

>  <PUBCHEM_CACTVS_ROTATABLE_BOND>
6

>  <PUBCHEM_CACTVS_SUBSKEYS>
AAADcfB4OAAAAAAAAAAAAAAAAAAAAYAAAAAwYMAAAAAAAGDBAAAAGgAACAAADxSgmAIyDoAABgCIAiDSCAACCAAgIAAIiAEGCIgNNiKEMRqCeiCkwBELqAeA4PgPoAABAAAQAADAAAYAACAAAIAADCAAAA==

>  <PUBCHEM_IUPAC_OPENEYE_NAME>
[(8R,9S,13S,14S,16R,17R)-16-hydroxy-13-methyl-3-propanoyloxy-6,7,8,9,11,12,14,15,16,17-decahydrocyclopenta[a]phenanthren-17-yl] propanoate

>  <PUBCHEM_IUPAC_CAS_NAME>
propanoic acid [(8R,9S,13S,14S,16R,17R)-16-hydroxy-13-methyl-3-(1-oxopropoxy)-6,7,8,9,11,12,14,15,16,17-decahydrocyclopenta[a]phenanthren-17-yl] ester

>  <PUBCHEM_IUPAC_NAME>
[(8R,9S,13S,14S,16R,17R)-16-hydroxy-13-methyl-3-propanoyloxy-6,7,8,9,11,12,14,15,16,17-decahydrocyclopenta[a]phenanthren-17-yl] propanoate

>  <PUBCHEM_IUPAC_SYSTEMATIC_NAME>
[(8R,9S,13S,14S,16R,17R)-13-methyl-16-oxidanyl-3-propanoyloxy-6,7,8,9,11,12,14,15,16,17-decahydrocyclopenta[a]phenanthren-17-yl] propanoate

>  <PUBCHEM_IUPAC_TRADITIONAL_NAME>
propionic acid [(8R,9S,13S,14S,16R,17R)-16-hydroxy-13-methyl-3-propionyloxy-6,7,8,9,11,12,14,15,16,17-decahydrocyclopenta[a]phenanthren-17-yl] ester

>  <PUBCHEM_IUPAC_INCHI>
InChI=1S/C24H32O5/c1-4-21(26)28-15-7-9-16-14(12-15)6-8-18-17(16)10-11-24(3)19(18)13-20(25)23(24)29-22(27)5-2/h7,9,12,17-20,23,25H,4-6,8,10-11,13H2,1-3H3/t17-,18-,19+,20-,23+,24+/m1/s1

>  <PUBCHEM_IUPAC_INCHIKEY>
QKLDCEYHDKPVDK-PRIYMHJNSA-N

>  <PUBCHEM_XLOGP3>
4.1

>  <PUBCHEM_EXACT_MASS>
400.225

>  <PUBCHEM_MOLECULAR_FORMULA>
C24H32O5

>  <PUBCHEM_MOLECULAR_WEIGHT>
400.515

>  <PUBCHEM_OPENEYE_CAN_SMILES>
CCC(=O)OC1C(CC2C1(CCC3C2CCC4=C3C=CC(=C4)OC(=O)CC)C)O

>  <PUBCHEM_OPENEYE_ISO_SMILES>
CCC(=O)O[C@H]1[C@@H](C[C@@H]2[C@@]1(CC[C@H]3[C@H]2CCC4=C3C=CC(=C4)OC(=O)CC)C)O

>  <PUBCHEM_CACTVS_TPSA>
72.8

>  <PUBCHEM_MONOISOTOPIC_WEIGHT>
400.225

>  <PUBCHEM_TOTAL_CHARGE>
0

>  <PUBCHEM_HEAVY_ATOM_COUNT>
29

>  <PUBCHEM_ATOM_DEF_STEREO_COUNT>
6

>  <PUBCHEM_ATOM_UDEF_STEREO_COUNT>
0

>  <PUBCHEM_BOND_DEF_STEREO_COUNT>
0

>  <PUBCHEM_BOND_UDEF_STEREO_COUNT>
0

>  <PUBCHEM_ISOTOPIC_ATOM_COUNT>
0

>  <PUBCHEM_COMPONENT_COUNT>
1

>  <PUBCHEM_CACTVS_TAUTO_COUNT>
1

>  <PUBCHEM_COORDINATE_TYPE>
1
5
255

>  <PUBCHEM_BONDANNOTATIONS>
9  1  5
10  33  6
17  19  8
17  20  8
19  21  8
13  2  6
20  23  8
21  24  8
23  24  8
6  16  5
7  30  6
8  31  5

$$$$
