12866383
 OpenBabel06101807152D

 50 53  0  0  0  0  0  0  0  0999 V2000
    2.5836    0.3047    0.0000 O   0  0  0  0  0  0  0  0  0  0  0  0
    2.5836   -1.3047    0.0000 O   0  0  0  0  0  0  0  0  0  0  0  0
   10.5382   -1.1953    0.0000 O   0  0  0  0  0  0  0  0  0  0  0  0
   10.5382   -2.8047    0.0000 O   0  0  0  0  0  0  0  0  0  0  0  0
    6.9939    0.0000    0.0000 O   0  0  0  0  0  0  0  0  0  0  0  0
    9.5920    0.5000    0.0000 O   0  0  0  0  0  0  0  0  0  0  0  0
    7.8600    0.5000    0.0000 O   0  0  0  0  0  0  0  0  0  0  0  0
    5.2619    2.0000    0.0000 N   0  0  0  0  0  0  0  0  0  0  0  0
    5.2619    0.0000    0.0000 C   0  0  0  0  0  0  0  0  0  0  0  0
    5.2619   -1.0000    0.0000 C   0  0  0  0  0  0  0  0  0  0  0  0
    6.1279    0.5000    0.0000 C   0  0  0  0  0  0  0  0  0  0  0  0
    6.1279   -1.5000    0.0000 C   0  0  0  0  0  0  0  0  0  0  0  0
    6.1279    1.5000    0.0000 C   0  0  0  0  0  0  0  0  0  0  0  0
    4.3958    0.5000    0.0000 C   0  0  0  0  0  0  0  0  0  0  0  0
    4.3958   -1.5000    0.0000 C   0  0  0  0  0  0  0  0  0  0  0  0
    3.5298    0.0000    0.0000 C   0  0  0  0  0  0  0  0  0  0  0  0
    3.5298   -1.0000    0.0000 C   0  0  0  0  0  0  0  0  0  0  0  0
    6.9939   -1.0000    0.0000 C   0  0  0  0  0  0  0  0  0  0  0  0
    7.8600   -1.5000    0.0000 C   0  0  0  0  0  0  0  0  0  0  0  0
    8.7260   -1.0000    0.0000 C   0  0  0  0  0  0  0  0  0  0  0  0
    2.0000   -0.5000    0.0000 C   0  0  0  0  0  0  0  0  0  0  0  0
    9.5920   -1.5000    0.0000 C   0  0  0  0  0  0  0  0  0  0  0  0
    7.8600   -2.5000    0.0000 C   0  0  0  0  0  0  0  0  0  0  0  0
    9.5920   -2.5000    0.0000 C   0  0  0  0  0  0  0  0  0  0  0  0
    5.2619    3.0000    0.0000 C   0  0  0  0  0  0  0  0  0  0  0  0
    4.3958    1.5000    0.0000 C   0  0  0  0  0  0  0  0  0  0  0  0
    8.7260   -3.0000    0.0000 C   0  0  0  0  0  0  0  0  0  0  0  0
   11.1218   -2.0000    0.0000 C   0  0  0  0  0  0  0  0  0  0  0  0
    8.7260    0.0000    0.0000 C   0  0  0  0  0  0  0  0  0  0  0  0
    6.3400   -0.0826    0.0000 H   0  0  0  0  0  0  0  0  0  0  0  0
    6.7385    0.6077    0.0000 H   0  0  0  0  0  0  0  0  0  0  0  0
    5.7294   -1.9750    0.0000 H   0  0  0  0  0  0  0  0  0  0  0  0
    6.5264   -1.9750    0.0000 H   0  0  0  0  0  0  0  0  0  0  0  0
    6.7385    1.3923    0.0000 H   0  0  0  0  0  0  0  0  0  0  0  0
    6.3400    2.0826    0.0000 H   0  0  0  0  0  0  0  0  0  0  0  0
    4.3958    1.1200    0.0000 H   0  0  0  0  0  0  0  0  0  0  0  0
    4.3958   -2.1200    0.0000 H   0  0  0  0  0  0  0  0  0  0  0  0
    1.5391   -0.0853    0.0000 H   0  0  0  0  0  0  0  0  0  0  0  0
    1.5391   -0.9147    0.0000 H   0  0  0  0  0  0  0  0  0  0  0  0
    7.3230   -2.8100    0.0000 H   0  0  0  0  0  0  0  0  0  0  0  0
    5.8819    3.0000    0.0000 H   0  0  0  0  0  0  0  0  0  0  0  0
    4.0858    2.0369    0.0000 H   0  0  0  0  0  0  0  0  0  0  0  0
    3.8589    1.1900    0.0000 H   0  0  0  0  0  0  0  0  0  0  0  0
    4.7058    0.9631    0.0000 H   0  0  0  0  0  0  0  0  0  0  0  0
    5.2619    3.6200    0.0000 H   0  0  0  0  0  0  0  0  0  0  0  0
    4.6419    3.0000    0.0000 H   0  0  0  0  0  0  0  0  0  0  0  0
    8.7260   -3.6200    0.0000 H   0  0  0  0  0  0  0  0  0  0  0  0
   11.5827   -2.4147    0.0000 H   0  0  0  0  0  0  0  0  0  0  0  0
   11.5827   -1.5853    0.0000 H   0  0  0  0  0  0  0  0  0  0  0  0
    9.5920    1.1200    0.0000 H   0  0  0  0  0  0  0  0  0  0  0  0
  1 16  1  0  0  0  0
  1 21  1  0  0  0  0
  2 17  1  0  0  0  0
  2 21  1  0  0  0  0
  3 22  1  0  0  0  0
  3 28  1  0  0  0  0
  4 24  1  0  0  0  0
  4 28  1  0  0  0  0
  5 18  2  0  0  0  0
  6 29  1  0  0  0  0
  6 50  1  0  0  0  0
  7 29  2  0  0  0  0
  8 13  1  0  0  0  0
  8 25  1  0  0  0  0
  8 26  1  0  0  0  0
  9 10  1  0  0  0  0
  9 11  1  0  0  0  0
  9 14  2  0  0  0  0
 10 12  1  0  0  0  0
 10 15  2  0  0  0  0
 11 13  1  0  0  0  0
 11 30  1  0  0  0  0
 11 31  1  0  0  0  0
 12 18  1  0  0  0  0
 12 32  1  0  0  0  0
 12 33  1  0  0  0  0
 13 34  1  0  0  0  0
 13 35  1  0  0  0  0
 14 16  1  0  0  0  0
 14 36  1  0  0  0  0
 15 17  1  0  0  0  0
 15 37  1  0  0  0  0
 16 17  2  0  0  0  0
 18 19  1  0  0  0  0
 19 20  2  0  0  0  0
 19 23  1  0  0  0  0
 20 22  1  0  0  0  0
 20 29  1  0  0  0  0
 21 38  1  0  0  0  0
 21 39  1  0  0  0  0
 22 24  2  0  0  0  0
 23 27  2  0  0  0  0
 23 40  1  0  0  0  0
 24 27  1  0  0  0  0
 25 41  1  0  0  0  0
 25 45  1  0  0  0  0
 25 46  1  0  0  0  0
 26 42  1  0  0  0  0
 26 43  1  0  0  0  0
 26 44  1  0  0  0  0
 27 47  1  0  0  0  0
 28 48  1  0  0  0  0
 28 49  1  0  0  0  0
M  END
>  <PUBCHEM_COMPOUND_CID>
12866383

>  <PUBCHEM_COMPOUND_CANONICALIZED>
1

>  <PUBCHEM_CACTVS_COMPLEXITY>
612

>  <PUBCHEM_CACTVS_HBOND_ACCEPTOR>
8

>  <PUBCHEM_CACTVS_HBOND_DONOR>
1

>  <PUBCHEM_CACTVS_ROTATABLE_BOND>
7

>  <PUBCHEM_CACTVS_SUBSKEYS>
AAADceB6OAAAAAAAAAAAAAAAAAAAASJAAAAwYAAAAAAAAEgBQAAAHgAACAAADATBmAcyDoMABgCIAqDSCAACCAAkIAAIiAEOiMgdJzaEtRukcWIl4BEOuYfb3PLOoAABAAAYQABAAAIAADCAAAAAAAAAAA==

>  <PUBCHEM_IUPAC_OPENEYE_NAME>
5-[2-[6-[2-(dimethylamino)ethyl]-1,3-benzodioxol-5-yl]acetyl]-1,3-benzodioxole-4-carboxylic acid

>  <PUBCHEM_IUPAC_CAS_NAME>
5-[2-[6-[2-(dimethylamino)ethyl]-1,3-benzodioxol-5-yl]-1-oxoethyl]-1,3-benzodioxole-4-carboxylic acid

>  <PUBCHEM_IUPAC_NAME>
5-[2-[6-[2-(dimethylamino)ethyl]-1,3-benzodioxol-5-yl]acetyl]-1,3-benzodioxole-4-carboxylic acid

>  <PUBCHEM_IUPAC_SYSTEMATIC_NAME>
5-[2-[6-[2-(dimethylamino)ethyl]-1,3-benzodioxol-5-yl]ethanoyl]-1,3-benzodioxole-4-carboxylic acid

>  <PUBCHEM_IUPAC_TRADITIONAL_NAME>
5-[2-[6-[2-(dimethylamino)ethyl]-1,3-benzodioxol-5-yl]acetyl]-1,3-benzodioxole-4-carboxylic acid

>  <PUBCHEM_IUPAC_INCHI>
InChI=1S/C21H21NO7/c1-22(2)6-5-12-8-17-18(28-10-27-17)9-13(12)7-15(23)14-3-4-16-20(29-11-26-16)19(14)21(24)25/h3-4,8-9H,5-7,10-11H2,1-2H3,(H,24,25)

>  <PUBCHEM_IUPAC_INCHIKEY>
ZWRGIDKDYJXLHP-UHFFFAOYSA-N

>  <PUBCHEM_XLOGP3_AA>
0.4

>  <PUBCHEM_EXACT_MASS>
399.132

>  <PUBCHEM_MOLECULAR_FORMULA>
C21H21NO7

>  <PUBCHEM_MOLECULAR_WEIGHT>
399.399

>  <PUBCHEM_OPENEYE_CAN_SMILES>
CN(C)CCC1=CC2=C(C=C1CC(=O)C3=C(C4=C(C=C3)OCO4)C(=O)O)OCO2

>  <PUBCHEM_OPENEYE_ISO_SMILES>
CN(C)CCC1=CC2=C(C=C1CC(=O)C3=C(C4=C(C=C3)OCO4)C(=O)O)OCO2

>  <PUBCHEM_CACTVS_TPSA>
94.5

>  <PUBCHEM_MONOISOTOPIC_WEIGHT>
399.132

>  <PUBCHEM_TOTAL_CHARGE>
0

>  <PUBCHEM_HEAVY_ATOM_COUNT>
29

>  <PUBCHEM_ATOM_DEF_STEREO_COUNT>
0

>  <PUBCHEM_ATOM_UDEF_STEREO_COUNT>
0

>  <PUBCHEM_BOND_DEF_STEREO_COUNT>
0

>  <PUBCHEM_BOND_UDEF_STEREO_COUNT>
0

>  <PUBCHEM_ISOTOPIC_ATOM_COUNT>
0

>  <PUBCHEM_COMPONENT_COUNT>
1

>  <PUBCHEM_CACTVS_TAUTO_COUNT>
2

>  <PUBCHEM_COORDINATE_TYPE>
1
5
255

>  <PUBCHEM_BONDANNOTATIONS>
10  15  8
14  16  8
15  17  8
16  17  8
19  20  8
19  23  8
20  22  8
22  24  8
23  27  8
24  27  8
9  10  8
9  14  8

$$$$
