129630591
 OpenBabel06101807152D

  7  6  0  0  0  0  0  0  0  0999 V2000
    4.5981    0.5600    0.0000 I   0  0  0  0  0  0  0  0  0  0  0  0
    2.8660    0.5600    0.0000 I   0  0  0  0  0  0  0  0  0  0  0  0
    2.0000    0.0600    0.0000 F   0  0  0  0  0  0  0  0  0  0  0  0
    5.4641    0.0600    0.0000 N   0  0  0  0  0  0  0  0  0  0  0  0
    3.7320    0.0600    0.0000 C   0  0  0  0  0  0  0  0  0  0  0  0
    3.7320   -0.5600    0.0000 H   0  0  0  0  0  0  0  0  0  0  0  0
    6.0010    0.3700    0.0000 H   0  0  0  0  0  0  0  0  0  0  0  0
  1  4  2  0  0  0  0
  1  5  1  0  0  0  0
  2  3  1  0  0  0  0
  2  5  2  0  0  0  0
  4  7  1  0  0  0  0
  5  6  1  0  0  0  0
M  END
>  <PUBCHEM_COMPOUND_CID>
129630591

>  <PUBCHEM_COMPOUND_CANONICALIZED>
1

>  <PUBCHEM_CACTVS_COMPLEXITY>
51.6

>  <PUBCHEM_CACTVS_HBOND_ACCEPTOR>
2

>  <PUBCHEM_CACTVS_HBOND_DONOR>
1

>  <PUBCHEM_CACTVS_ROTATABLE_BOND>
1

>  <PUBCHEM_CACTVS_SUBSKEYS>
AAADcQACAQAAAwAAAAAAAAAAAAAAAAAAAAAAAAAAAAAAAAAAAAAAEAAwAAAAAAAAAAAAAAAAAAAAAAAAAAAAAAAAAAAAAAAAAAAAAAAAAAAAAAAAAAAAAAAAAAAAAAAAAAAAAAAAAAAAAAAAAAAAAAAAAA==

>  <PUBCHEM_IUPAC_OPENEYE_NAME>
fluoro-[(imino-$l^{3}-iodanyl)methylene]-$l^{3}-iodane

>  <PUBCHEM_IUPAC_CAS_NAME>
fluoro-[(imino-$l^{3}-iodanyl)methylidene]-$l^{3}-iodane

>  <PUBCHEM_IUPAC_NAME>
fluoro-[(imino-$l^{3}-iodanyl)methylidene]-$l^{3}-iodane

>  <PUBCHEM_IUPAC_SYSTEMATIC_NAME>
azanylidene-[(fluoranyl-$l^{3}-iodanylidene)methyl]-$l^{3}-iodane

>  <PUBCHEM_IUPAC_TRADITIONAL_NAME>
fluoro(iminoiodinanylmethylene)-$l^{3}-iodane

>  <PUBCHEM_IUPAC_INCHI>
InChI=1S/CH2FI2N/c2-3-1-4-5/h1,5H

>  <PUBCHEM_IUPAC_INCHIKEY>
POTUGHMKJGOKRI-UHFFFAOYSA-N

>  <PUBCHEM_XLOGP3_AA>
2

>  <PUBCHEM_EXACT_MASS>
300.826

>  <PUBCHEM_MOLECULAR_FORMULA>
CH2FI2N

>  <PUBCHEM_MOLECULAR_WEIGHT>
300.841

>  <PUBCHEM_OPENEYE_CAN_SMILES>
C(=IF)I=N

>  <PUBCHEM_OPENEYE_ISO_SMILES>
C(=IF)I=N

>  <PUBCHEM_CACTVS_TPSA>
23.8

>  <PUBCHEM_MONOISOTOPIC_WEIGHT>
300.826

>  <PUBCHEM_TOTAL_CHARGE>
0

>  <PUBCHEM_HEAVY_ATOM_COUNT>
5

>  <PUBCHEM_ATOM_DEF_STEREO_COUNT>
0

>  <PUBCHEM_ATOM_UDEF_STEREO_COUNT>
0

>  <PUBCHEM_BOND_DEF_STEREO_COUNT>
0

>  <PUBCHEM_BOND_UDEF_STEREO_COUNT>
0

>  <PUBCHEM_ISOTOPIC_ATOM_COUNT>
0

>  <PUBCHEM_COMPONENT_COUNT>
1

>  <PUBCHEM_CACTVS_TAUTO_COUNT>
1

>  <PUBCHEM_COORDINATE_TYPE>
1
5
255

$$$$
