12960459
 OpenBabel06101807152D

 94 99  0  0  1  0  0  0  0  0999 V2000
    6.8671   -2.7769    0.0000 O   0  0  0  0  0  0  0  0  0  0  0  0
    7.7331   -0.2769    0.0000 O   0  0  0  0  0  0  0  0  0  0  0  0
    5.1350   -2.7769    0.0000 O   0  0  0  0  0  0  0  0  0  0  0  0
    8.5991   -1.7769    0.0000 O   0  0  0  0  0  0  0  0  0  0  0  0
    5.1350   -1.7769    0.0000 O   0  0  0  0  0  0  0  0  0  0  0  0
    5.1350    0.2231    0.0000 O   0  0  0  0  0  0  0  0  0  0  0  0
    6.8671   -4.7769    0.0000 O   0  0  0  0  0  0  0  0  0  0  0  0
    5.1350   -5.7769    0.0000 O   0  0  0  0  0  0  0  0  0  0  0  0
    3.4030   -4.7769    0.0000 O   0  0  0  0  0  0  0  0  0  0  0  0
   12.1229    3.2715    0.0000 O   0  0  0  0  0  0  0  0  0  0  0  0
    6.0010    1.7231    0.0000 O   0  0  0  0  0  0  0  0  0  0  0  0
    2.5369   -3.2769    0.0000 O   0  0  0  0  0  0  0  0  0  0  0  0
   12.9832    1.7682    0.0000 O   0  0  0  0  0  0  0  0  0  0  0  0
   14.7268    4.7615    0.0000 O   0  0  0  0  0  0  0  0  0  0  0  0
   12.9986    5.7682    0.0000 O   0  0  0  0  0  0  0  0  0  0  0  0
   14.7191    2.7615    0.0000 O   0  0  0  0  0  0  0  0  0  0  0  0
   11.1972   -1.2769    0.0000 O   0  0  0  0  0  0  0  0  0  0  0  0
   11.2665    5.7748    0.0000 O   0  0  0  0  0  0  0  0  0  0  0  0
    8.5991    0.2231    0.0000 O   0  0  0  0  0  0  0  0  0  0  0  0
    9.4434    1.7546    0.0000 O   0  0  0  0  0  0  0  0  0  0  0  0
   10.3312   -5.7769    0.0000 O   0  0  0  0  0  0  0  0  0  0  0  0
    6.8671   -1.7769    0.0000 C   0  0  3  0  0  0  0  0  0  0  0  0
    6.0010   -1.2769    0.0000 C   0  0  3  0  0  0  0  0  0  0  0  0
    6.0010   -0.2769    0.0000 C   0  0  3  0  0  0  0  0  0  0  0  0
    6.0010   -3.2769    0.0000 C   0  0  3  0  0  0  0  0  0  0  0  0
    6.0010   -4.2769    0.0000 C   0  0  3  0  0  0  0  0  0  0  0  0
    7.7331   -1.2769    0.0000 C   0  0  3  0  0  0  0  0  0  0  0  0
    6.8671    0.2231    0.0000 C   0  0  3  0  0  0  0  0  0  0  0  0
    5.1350   -4.7769    0.0000 C   0  0  3  0  0  0  0  0  0  0  0  0
    4.2690   -4.2769    0.0000 C   0  0  3  0  0  0  0  0  0  0  0  0
    4.2690   -3.2769    0.0000 C   0  0  3  0  0  0  0  0  0  0  0  0
    6.8671    1.2231    0.0000 C   0  0  0  0  0  0  0  0  0  0  0  0
    3.4030   -2.7769    0.0000 C   0  0  0  0  0  0  0  0  0  0  0  0
   13.8588    4.2648    0.0000 C   0  0  3  0  0  0  0  0  0  0  0  0
   12.9947    4.7682    0.0000 C   0  0  3  0  0  0  0  0  0  0  0  0
   13.8550    3.2648    0.0000 C   0  0  3  0  0  0  0  0  0  0  0  0
   12.1268    4.2715    0.0000 C   0  0  3  0  0  0  0  0  0  0  0  0
   12.9870    2.7682    0.0000 C   0  0  3  0  0  0  0  0  0  0  0  0
    9.4651   -1.2769    0.0000 C   0  0  0  0  0  0  0  0  0  0  0  0
   11.2627    4.7748    0.0000 C   0  0  0  0  0  0  0  0  0  0  0  0
   10.3312   -1.7769    0.0000 C   0  0  0  0  0  0  0  0  0  0  0  0
    9.4651   -0.2769    0.0000 C   0  0  0  0  0  0  0  0  0  0  0  0
   10.3312    0.2231    0.0000 C   0  0  0  0  0  0  0  0  0  0  0  0
   12.1152    1.2715    0.0000 C   0  0  0  0  0  0  0  0  0  0  0  0
   11.1972   -0.2769    0.0000 C   0  0  0  0  0  0  0  0  0  0  0  0
   12.1072    0.2299    0.0000 C   0  0  0  0  0  0  0  0  0  0  0  0
   10.3151    1.2646    0.0000 C   0  0  0  0  0  0  0  0  0  0  0  0
   10.3312   -2.7769    0.0000 C   0  0  0  0  0  0  0  0  0  0  0  0
   11.2131    1.7924    0.0000 C   0  0  0  0  0  0  0  0  0  0  0  0
   11.1972   -3.2769    0.0000 C   0  0  0  0  0  0  0  0  0  0  0  0
    9.4651   -3.2769    0.0000 C   0  0  0  0  0  0  0  0  0  0  0  0
   11.1972   -4.2769    0.0000 C   0  0  0  0  0  0  0  0  0  0  0  0
    9.4651   -4.2769    0.0000 C   0  0  0  0  0  0  0  0  0  0  0  0
   10.3312   -4.7769    0.0000 C   0  0  0  0  0  0  0  0  0  0  0  0
    7.4040   -2.0869    0.0000 H   0  0  0  0  0  0  0  0  0  0  0  0
    6.0010   -1.8969    0.0000 H   0  0  0  0  0  0  0  0  0  0  0  0
    6.0010    0.3431    0.0000 H   0  0  0  0  0  0  0  0  0  0  0  0
    6.0010   -2.6569    0.0000 H   0  0  0  0  0  0  0  0  0  0  0  0
    6.0010   -4.8969    0.0000 H   0  0  0  0  0  0  0  0  0  0  0  0
    8.2700   -0.9669    0.0000 H   0  0  0  0  0  0  0  0  0  0  0  0
    7.4040    0.5331    0.0000 H   0  0  0  0  0  0  0  0  0  0  0  0
    4.5981   -5.0869    0.0000 H   0  0  0  0  0  0  0  0  0  0  0  0
    3.7320   -3.9669    0.0000 H   0  0  0  0  0  0  0  0  0  0  0  0
    4.2690   -2.6569    0.0000 H   0  0  0  0  0  0  0  0  0  0  0  0
    7.4776    1.1154    0.0000 H   0  0  0  0  0  0  0  0  0  0  0  0
    7.0791    1.8057    0.0000 H   0  0  0  0  0  0  0  0  0  0  0  0
    3.8015   -2.3020    0.0000 H   0  0  0  0  0  0  0  0  0  0  0  0
    3.0044   -2.3020    0.0000 H   0  0  0  0  0  0  0  0  0  0  0  0
    4.5981   -1.4669    0.0000 H   0  0  0  0  0  0  0  0  0  0  0  0
   13.8612    4.8848    0.0000 H   0  0  0  0  0  0  0  0  0  0  0  0
   12.4590    5.0802    0.0000 H   0  0  0  0  0  0  0  0  0  0  0  0
   14.3931    3.5728    0.0000 H   0  0  0  0  0  0  0  0  0  0  0  0
   11.5887    3.9636    0.0000 H   0  0  0  0  0  0  0  0  0  0  0  0
    5.1350    0.8431    0.0000 H   0  0  0  0  0  0  0  0  0  0  0  0
    7.4040   -4.4669    0.0000 H   0  0  0  0  0  0  0  0  0  0  0  0
   13.5228    2.4561    0.0000 H   0  0  0  0  0  0  0  0  0  0  0  0
    5.6720   -6.0869    0.0000 H   0  0  0  0  0  0  0  0  0  0  0  0
    3.4030   -5.3969    0.0000 H   0  0  0  0  0  0  0  0  0  0  0  0
   10.6525    4.8849    0.0000 H   0  0  0  0  0  0  0  0  0  0  0  0
   11.0484    4.1931    0.0000 H   0  0  0  0  0  0  0  0  0  0  0  0
    6.0010    2.3431    0.0000 H   0  0  0  0  0  0  0  0  0  0  0  0
    2.0000   -2.9669    0.0000 H   0  0  0  0  0  0  0  0  0  0  0  0
   14.7292    5.3815    0.0000 H   0  0  0  0  0  0  0  0  0  0  0  0
   13.5367    6.0761    0.0000 H   0  0  0  0  0  0  0  0  0  0  0  0
   15.2572    3.0694    0.0000 H   0  0  0  0  0  0  0  0  0  0  0  0
   12.6405   -0.0863    0.0000 H   0  0  0  0  0  0  0  0  0  0  0  0
   11.2108    2.4124    0.0000 H   0  0  0  0  0  0  0  0  0  0  0  0
   10.7308    6.0869    0.0000 H   0  0  0  0  0  0  0  0  0  0  0  0
   11.7341   -2.9669    0.0000 H   0  0  0  0  0  0  0  0  0  0  0  0
    8.9282   -2.9669    0.0000 H   0  0  0  0  0  0  0  0  0  0  0  0
    9.4362    2.3745    0.0000 H   0  0  0  0  0  0  0  0  0  0  0  0
   11.7341   -4.5869    0.0000 H   0  0  0  0  0  0  0  0  0  0  0  0
    8.9282   -4.5869    0.0000 H   0  0  0  0  0  0  0  0  0  0  0  0
   10.8681   -6.0869    0.0000 H   0  0  0  0  0  0  0  0  0  0  0  0
  1 22  1  0  0  0  0
  1 25  1  0  0  0  0
  2 27  1  0  0  0  0
  2 28  1  0  0  0  0
  3 25  1  0  0  0  0
  3 31  1  0  0  0  0
  4 27  1  0  0  0  0
  4 39  1  0  0  0  0
  5 23  1  0  0  0  0
  5 69  1  0  0  0  0
  6 24  1  0  0  0  0
  6 74  1  0  0  0  0
  7 26  1  0  0  0  0
  7 75  1  0  0  0  0
  8 29  1  0  0  0  0
  8 77  1  0  0  0  0
  9 30  1  0  0  0  0
  9 78  1  0  0  0  0
 10 37  1  0  0  0  0
 10 38  1  0  0  0  0
 11 32  1  0  0  0  0
 11 81  1  0  0  0  0
 12 33  1  0  0  0  0
 12 82  1  0  0  0  0
 13 38  1  0  0  0  0
 13 44  1  0  0  0  0
 14 34  1  0  0  0  0
 14 83  1  0  0  0  0
 15 35  1  0  0  0  0
 15 84  1  0  0  0  0
 16 36  1  0  0  0  0
 16 85  1  0  0  0  0
 17 41  1  0  0  0  0
 17 45  1  0  0  0  0
 18 40  1  0  0  0  0
 18 88  1  0  0  0  0
 19 42  2  0  0  0  0
 20 47  1  0  0  0  0
 20 91  1  0  0  0  0
 21 54  1  0  0  0  0
 21 94  1  0  0  0  0
 22 23  1  0  0  0  0
 22 27  1  0  0  0  0
 22 55  1  0  0  0  0
 23 24  1  0  0  0  0
 23 56  1  0  0  0  0
 24 28  1  0  0  0  0
 24 57  1  0  0  0  0
 25 26  1  0  0  0  0
 25 58  1  0  0  0  0
 26 29  1  0  0  0  0
 26 59  1  0  0  0  0
 27 60  1  0  0  0  0
 28 32  1  0  0  0  0
 28 61  1  0  0  0  0
 29 30  1  0  0  0  0
 29 62  1  0  0  0  0
 30 31  1  0  0  0  0
 30 63  1  0  0  0  0
 31 33  1  0  0  0  0
 31 64  1  0  0  0  0
 32 65  1  0  0  0  0
 32 66  1  0  0  0  0
 33 67  1  0  0  0  0
 33 68  1  0  0  0  0
 34 35  1  0  0  0  0
 34 36  1  0  0  0  0
 34 70  1  0  0  0  0
 35 37  1  0  0  0  0
 35 71  1  0  0  0  0
 36 38  1  0  0  0  0
 36 72  1  0  0  0  0
 37 40  1  0  0  0  0
 37 73  1  0  0  0  0
 38 76  1  0  0  0  0
 39 41  2  0  0  0  0
 39 42  1  0  0  0  0
 40 79  1  0  0  0  0
 40 80  1  0  0  0  0
 41 48  1  0  0  0  0
 42 43  1  0  0  0  0
 43 45  1  0  0  0  0
 43 47  2  0  0  0  0
 44 46  1  0  0  0  0
 44 49  2  0  0  0  0
 45 46  2  0  0  0  0
 46 86  1  0  0  0  0
 47 49  1  0  0  0  0
 48 50  2  0  0  0  0
 48 51  1  0  0  0  0
 49 87  1  0  0  0  0
 50 52  1  0  0  0  0
 50 89  1  0  0  0  0
 51 53  2  0  0  0  0
 51 90  1  0  0  0  0
 52 54  2  0  0  0  0
 52 92  1  0  0  0  0
 53 54  1  0  0  0  0
 53 93  1  0  0  0  0
M  END
>  <PUBCHEM_COMPOUND_CID>
12960459

>  <PUBCHEM_COMPOUND_CANONICALIZED>
1

>  <PUBCHEM_CACTVS_COMPLEXITY>
1300

>  <PUBCHEM_CACTVS_HBOND_ACCEPTOR>
21

>  <PUBCHEM_CACTVS_HBOND_DONOR>
13

>  <PUBCHEM_CACTVS_ROTATABLE_BOND>
10

>  <PUBCHEM_CACTVS_SUBSKEYS>
AAADcfB8PgAAAAAAAAAAAAAAAAAAAAAAAAA0aJECAAAAAACBQAAAGgAACAAADBSwmAMwDoAABgCIAqBSAAICCAAkIAAIiAFGCMgdNzaGNR6ieWCl4BUPuQfI7KzOIAAACAAIAABAAAAQABAAAAAAAAAAAA==

>  <PUBCHEM_IUPAC_OPENEYE_NAME>
3-[4,5-dihydroxy-6-(hydroxymethyl)-3-[3,4,5-trihydroxy-6-(hydroxymethyl)tetrahydropyran-2-yl]oxy-tetrahydropyran-2-yl]oxy-5-hydroxy-2-(4-hydroxyphenyl)-7-[3,4,5-trihydroxy-6-(hydroxymethyl)tetrahydropyran-2-yl]oxy-chromen-4-one

>  <PUBCHEM_IUPAC_CAS_NAME>
3-[[4,5-dihydroxy-6-(hydroxymethyl)-3-[[3,4,5-trihydroxy-6-(hydroxymethyl)-2-oxanyl]oxy]-2-oxanyl]oxy]-5-hydroxy-2-(4-hydroxyphenyl)-7-[[3,4,5-trihydroxy-6-(hydroxymethyl)-2-oxanyl]oxy]-1-benzopyran-4-one

>  <PUBCHEM_IUPAC_NAME>
3-[4,5-dihydroxy-6-(hydroxymethyl)-3-[3,4,5-trihydroxy-6-(hydroxymethyl)oxan-2-yl]oxyoxan-2-yl]oxy-5-hydroxy-2-(4-hydroxyphenyl)-7-[3,4,5-trihydroxy-6-(hydroxymethyl)oxan-2-yl]oxychromen-4-one

>  <PUBCHEM_IUPAC_SYSTEMATIC_NAME>
3-[6-(hydroxymethyl)-3-[6-(hydroxymethyl)-3,4,5-tris(oxidanyl)oxan-2-yl]oxy-4,5-bis(oxidanyl)oxan-2-yl]oxy-7-[6-(hydroxymethyl)-3,4,5-tris(oxidanyl)oxan-2-yl]oxy-2-(4-hydroxyphenyl)-5-oxidanyl-chromen-4-one

>  <PUBCHEM_IUPAC_TRADITIONAL_NAME>
3-[4,5-dihydroxy-6-methylol-3-(3,4,5-trihydroxy-6-methylol-tetrahydropyran-2-yl)oxy-tetrahydropyran-2-yl]oxy-5-hydroxy-2-(4-hydroxyphenyl)-7-(3,4,5-trihydroxy-6-methylol-tetrahydropyran-2-yl)oxy-chromone

>  <PUBCHEM_IUPAC_INCHI>
InChI=1S/C33H40O21/c34-7-15-19(39)23(43)26(46)31(50-15)48-12-5-13(38)18-14(6-12)49-28(10-1-3-11(37)4-2-10)29(22(18)42)53-33-30(25(45)21(41)17(9-36)52-33)54-32-27(47)24(44)20(40)16(8-35)51-32/h1-6,15-17,19-21,23-27,30-41,43-47H,7-9H2

>  <PUBCHEM_IUPAC_INCHIKEY>
MBFNAZBJKVFNKZ-UHFFFAOYSA-N

>  <PUBCHEM_XLOGP3_AA>
-2.7

>  <PUBCHEM_EXACT_MASS>
772.206

>  <PUBCHEM_MOLECULAR_FORMULA>
C33H40O21

>  <PUBCHEM_MOLECULAR_WEIGHT>
772.662

>  <PUBCHEM_OPENEYE_CAN_SMILES>
C1=CC(=CC=C1C2=C(C(=O)C3=C(C=C(C=C3O2)OC4C(C(C(C(O4)CO)O)O)O)O)OC5C(C(C(C(O5)CO)O)O)OC6C(C(C(C(O6)CO)O)O)O)O

>  <PUBCHEM_OPENEYE_ISO_SMILES>
C1=CC(=CC=C1C2=C(C(=O)C3=C(C=C(C=C3O2)OC4C(C(C(C(O4)CO)O)O)O)O)OC5C(C(C(C(O5)CO)O)O)OC6C(C(C(C(O6)CO)O)O)O)O

>  <PUBCHEM_CACTVS_TPSA>
345

>  <PUBCHEM_MONOISOTOPIC_WEIGHT>
772.206

>  <PUBCHEM_TOTAL_CHARGE>
0

>  <PUBCHEM_HEAVY_ATOM_COUNT>
54

>  <PUBCHEM_ATOM_DEF_STEREO_COUNT>
0

>  <PUBCHEM_ATOM_UDEF_STEREO_COUNT>
15

>  <PUBCHEM_BOND_DEF_STEREO_COUNT>
0

>  <PUBCHEM_BOND_UDEF_STEREO_COUNT>
0

>  <PUBCHEM_ISOTOPIC_ATOM_COUNT>
0

>  <PUBCHEM_COMPONENT_COUNT>
1

>  <PUBCHEM_CACTVS_TAUTO_COUNT>
24

>  <PUBCHEM_COORDINATE_TYPE>
1
5
255

>  <PUBCHEM_BONDANNOTATIONS>
22  1  3
25  1  3
38  13  3
34  14  3
35  15  3
36  16  3
17  41  8
17  45  8
28  32  3
31  33  3
37  40  3
39  41  8
39  42  8
27  4  3
42  43  8
43  45  8
43  47  8
44  46  8
44  49  8
45  46  8
47  49  8
48  50  8
48  51  8
23  5  3
50  52  8
51  53  8
52  54  8
53  54  8
24  6  3
26  7  3
29  8  3
30  9  3

$$$$
