129662470
 OpenBabel06101807152D

 36 35  0  0  1  0  0  0  0  0999 V2000
    7.1962    0.0950    0.0000 O   0  0  0  0  0  0  0  0  0  0  0  0
    8.0622   -0.4050    0.0000 O   0  0  0  0  0  0  0  0  0  0  0  0
    5.4641    1.0950    0.0000 C   0  0  0  0  0  0  0  0  0  0  0  0
    4.5981    1.5950    0.0000 C   0  0  0  0  0  0  0  0  0  0  0  0
    6.3301    1.5950    0.0000 C   0  0  0  0  0  0  0  0  0  0  0  0
    3.7320    1.0950    0.0000 C   0  0  0  0  0  0  0  0  0  0  0  0
    7.1962    1.0950    0.0000 C   0  0  3  0  0  0  0  0  0  0  0  0
    2.8660    1.5950    0.0000 C   0  0  0  0  0  0  0  0  0  0  0  0
    8.0622    1.5950    0.0000 C   0  0  0  0  0  0  0  0  0  0  0  0
    2.0000    1.0950    0.0000 C   0  0  0  0  0  0  0  0  0  0  0  0
    8.9282    1.0950    0.0000 C   0  0  0  0  0  0  0  0  0  0  0  0
    8.9282    0.0950    0.0000 C   0  0  3  0  0  0  0  0  0  0  0  0
    9.7942   -0.4050    0.0000 C   0  0  0  0  0  0  0  0  0  0  0  0
   10.6603   -0.9050    0.0000 C   0  0  0  0  0  0  0  0  0  0  0  0
   11.5263   -1.4050    0.0000 C   0  0  0  0  0  0  0  0  0  0  0  0
   12.3923   -1.9050    0.0000 C   0  0  0  0  0  0  0  0  0  0  0  0
    5.0656    0.6201    0.0000 H   0  0  0  0  0  0  0  0  0  0  0  0
    5.8626    0.6201    0.0000 H   0  0  0  0  0  0  0  0  0  0  0  0
    4.9966    2.0700    0.0000 H   0  0  0  0  0  0  0  0  0  0  0  0
    4.1996    2.0700    0.0000 H   0  0  0  0  0  0  0  0  0  0  0  0
    6.7287    2.0700    0.0000 H   0  0  0  0  0  0  0  0  0  0  0  0
    5.9316    2.0700    0.0000 H   0  0  0  0  0  0  0  0  0  0  0  0
    3.3335    0.6201    0.0000 H   0  0  0  0  0  0  0  0  0  0  0  0
    4.1306    0.6201    0.0000 H   0  0  0  0  0  0  0  0  0  0  0  0
    6.6592    0.7850    0.0000 H   0  0  0  0  0  0  0  0  0  0  0  0
    3.2646    2.0700    0.0000 H   0  0  0  0  0  0  0  0  0  0  0  0
    2.4675    2.0700    0.0000 H   0  0  0  0  0  0  0  0  0  0  0  0
    8.0622    2.2150    0.0000 H   0  0  0  0  0  0  0  0  0  0  0  0
    1.6900    1.6319    0.0000 H   0  0  0  0  0  0  0  0  0  0  0  0
    1.4631    0.7850    0.0000 H   0  0  0  0  0  0  0  0  0  0  0  0
    2.3100    0.5581    0.0000 H   0  0  0  0  0  0  0  0  0  0  0  0
    6.6592   -0.2150    0.0000 H   0  0  0  0  0  0  0  0  0  0  0  0
    9.4651    1.4050    0.0000 H   0  0  0  0  0  0  0  0  0  0  0  0
    8.9282   -0.5250    0.0000 H   0  0  0  0  0  0  0  0  0  0  0  0
    8.0622   -1.0250    0.0000 H   0  0  0  0  0  0  0  0  0  0  0  0
   12.9292   -2.2150    0.0000 H   0  0  0  0  0  0  0  0  0  0  0  0
  1  7  1  0  0  0  0
  1 32  1  0  0  0  0
  2 12  1  0  0  0  0
  2 35  1  0  0  0  0
  3  4  1  0  0  0  0
  3  5  1  0  0  0  0
  3 17  1  0  0  0  0
  3 18  1  0  0  0  0
  4  6  1  0  0  0  0
  4 19  1  0  0  0  0
  4 20  1  0  0  0  0
  5  7  1  0  0  0  0
  5 21  1  0  0  0  0
  5 22  1  0  0  0  0
  6  8  1  0  0  0  0
  6 23  1  0  0  0  0
  6 24  1  0  0  0  0
  7  9  1  0  0  0  0
  7 25  1  0  0  0  0
  8 10  1  0  0  0  0
  8 26  1  0  0  0  0
  8 27  1  0  0  0  0
  9 11  2  0  0  0  0
  9 28  1  0  0  0  0
 10 29  1  0  0  0  0
 10 30  1  0  0  0  0
 10 31  1  0  0  0  0
 11 12  1  0  0  0  0
 11 33  1  0  0  0  0
 12 13  1  0  0  0  0
 12 34  1  0  0  0  0
 13 14  3  0  0  0  0
 14 15  1  0  0  0  0
 15 16  3  0  0  0  0
 16 36  1  0  0  0  0
M  END
>  <PUBCHEM_COMPOUND_CID>
129662470

>  <PUBCHEM_COMPOUND_CANONICALIZED>
1

>  <PUBCHEM_CACTVS_COMPLEXITY>
307

>  <PUBCHEM_CACTVS_HBOND_ACCEPTOR>
2

>  <PUBCHEM_CACTVS_HBOND_DONOR>
2

>  <PUBCHEM_CACTVS_ROTATABLE_BOND>
8

>  <PUBCHEM_CACTVS_SUBSKEYS>
AAADceBwMAAAAAAAAAAAAAAAAAAAAAAAAAAAAAAAAAAAAAAAAAAAGgAACAAACBSggAICAAAAAgDAGCBCAAgAAAAgAAAICAAAAAgAFAIAAQAAUAAEgAAIEAOAwKAAAAAAAAAAAAAAAAAAAAAAAAAAAAAAAA==

>  <PUBCHEM_IUPAC_OPENEYE_NAME>
(Z)-tetradec-6-en-1,3-diyne-5,8-diol

>  <PUBCHEM_IUPAC_CAS_NAME>
(Z)-tetradec-6-en-1,3-diyne-5,8-diol

>  <PUBCHEM_IUPAC_NAME>
(Z)-tetradec-6-en-1,3-diyne-5,8-diol

>  <PUBCHEM_IUPAC_SYSTEMATIC_NAME>
(Z)-tetradec-6-en-1,3-diyne-5,8-diol

>  <PUBCHEM_IUPAC_TRADITIONAL_NAME>
(Z)-tetradec-6-en-1,3-diyne-5,8-diol

>  <PUBCHEM_IUPAC_INCHI>
InChI=1S/C14H20O2/c1-3-5-7-8-10-14(16)12-11-13(15)9-6-4-2/h2,11-16H,3,5,7-8,10H2,1H3/b12-11-

>  <PUBCHEM_IUPAC_INCHIKEY>
AGXXOOILRXZQTH-QXMHVHEDSA-N

>  <PUBCHEM_XLOGP3_AA>
2.8

>  <PUBCHEM_EXACT_MASS>
220.146

>  <PUBCHEM_MOLECULAR_FORMULA>
C14H20O2

>  <PUBCHEM_MOLECULAR_WEIGHT>
220.312

>  <PUBCHEM_OPENEYE_CAN_SMILES>
CCCCCCC(C=CC(C#CC#C)O)O

>  <PUBCHEM_OPENEYE_ISO_SMILES>
CCCCCCC(/C=C\C(C#CC#C)O)O

>  <PUBCHEM_CACTVS_TPSA>
40.5

>  <PUBCHEM_MONOISOTOPIC_WEIGHT>
220.146

>  <PUBCHEM_TOTAL_CHARGE>
0

>  <PUBCHEM_HEAVY_ATOM_COUNT>
16

>  <PUBCHEM_ATOM_DEF_STEREO_COUNT>
0

>  <PUBCHEM_ATOM_UDEF_STEREO_COUNT>
2

>  <PUBCHEM_BOND_DEF_STEREO_COUNT>
1

>  <PUBCHEM_BOND_UDEF_STEREO_COUNT>
0

>  <PUBCHEM_ISOTOPIC_ATOM_COUNT>
0

>  <PUBCHEM_COMPONENT_COUNT>
1

>  <PUBCHEM_CACTVS_TAUTO_COUNT>
1

>  <PUBCHEM_COORDINATE_TYPE>
1
5
255

>  <PUBCHEM_BONDANNOTATIONS>
7  1  3
12  2  3

$$$$
