12960454
 OpenBabel06101807152D

 95100  0  0  1  0  0  0  0  0999 V2000
    6.8671   -2.7715    0.0000 O   0  0  0  0  0  0  0  0  0  0  0  0
    7.7331   -0.2715    0.0000 O   0  0  0  0  0  0  0  0  0  0  0  0
    5.1350   -2.7715    0.0000 O   0  0  0  0  0  0  0  0  0  0  0  0
    8.5991   -1.7715    0.0000 O   0  0  0  0  0  0  0  0  0  0  0  0
    5.1350   -1.7715    0.0000 O   0  0  0  0  0  0  0  0  0  0  0  0
    5.1350    0.2285    0.0000 O   0  0  0  0  0  0  0  0  0  0  0  0
    6.8671   -4.7715    0.0000 O   0  0  0  0  0  0  0  0  0  0  0  0
    5.1350   -5.7715    0.0000 O   0  0  0  0  0  0  0  0  0  0  0  0
    3.4030   -4.7715    0.0000 O   0  0  0  0  0  0  0  0  0  0  0  0
   13.8550    3.2702    0.0000 O   0  0  0  0  0  0  0  0  0  0  0  0
    6.0010    1.7285    0.0000 O   0  0  0  0  0  0  0  0  0  0  0  0
    2.5369   -3.2715    0.0000 O   0  0  0  0  0  0  0  0  0  0  0  0
   12.9832    1.7736    0.0000 O   0  0  0  0  0  0  0  0  0  0  0  0
   11.2627    4.7803    0.0000 O   0  0  0  0  0  0  0  0  0  0  0  0
   12.9986    5.7736    0.0000 O   0  0  0  0  0  0  0  0  0  0  0  0
   11.2550    2.7803    0.0000 O   0  0  0  0  0  0  0  0  0  0  0  0
   11.1972   -1.2715    0.0000 O   0  0  0  0  0  0  0  0  0  0  0  0
   15.5909    4.2636    0.0000 O   0  0  0  0  0  0  0  0  0  0  0  0
    8.5991    0.2285    0.0000 O   0  0  0  0  0  0  0  0  0  0  0  0
    9.4434    1.7600    0.0000 O   0  0  0  0  0  0  0  0  0  0  0  0
   12.0632   -4.7715    0.0000 O   0  0  0  0  0  0  0  0  0  0  0  0
   10.3312   -5.7715    0.0000 O   0  0  0  0  0  0  0  0  0  0  0  0
    6.8671   -1.7715    0.0000 C   0  0  3  0  0  0  0  0  0  0  0  0
    6.0010   -1.2715    0.0000 C   0  0  3  0  0  0  0  0  0  0  0  0
    6.0010   -0.2715    0.0000 C   0  0  3  0  0  0  0  0  0  0  0  0
    6.0010   -3.2715    0.0000 C   0  0  3  0  0  0  0  0  0  0  0  0
    6.0010   -4.2715    0.0000 C   0  0  3  0  0  0  0  0  0  0  0  0
    7.7331   -1.2715    0.0000 C   0  0  3  0  0  0  0  0  0  0  0  0
    6.8671    0.2285    0.0000 C   0  0  3  0  0  0  0  0  0  0  0  0
    5.1350   -4.7715    0.0000 C   0  0  3  0  0  0  0  0  0  0  0  0
    4.2690   -4.2715    0.0000 C   0  0  3  0  0  0  0  0  0  0  0  0
    4.2690   -3.2715    0.0000 C   0  0  3  0  0  0  0  0  0  0  0  0
    6.8671    1.2285    0.0000 C   0  0  0  0  0  0  0  0  0  0  0  0
    3.4030   -2.7715    0.0000 C   0  0  0  0  0  0  0  0  0  0  0  0
   12.1268    4.2769    0.0000 C   0  0  3  0  0  0  0  0  0  0  0  0
   12.9947    4.7736    0.0000 C   0  0  3  0  0  0  0  0  0  0  0  0
   12.1229    3.2769    0.0000 C   0  0  3  0  0  0  0  0  0  0  0  0
   13.8588    4.2702    0.0000 C   0  0  3  0  0  0  0  0  0  0  0  0
   12.9870    2.7736    0.0000 C   0  0  3  0  0  0  0  0  0  0  0  0
    9.4651   -1.2715    0.0000 C   0  0  0  0  0  0  0  0  0  0  0  0
   14.7268    4.7669    0.0000 C   0  0  0  0  0  0  0  0  0  0  0  0
   10.3312   -1.7715    0.0000 C   0  0  0  0  0  0  0  0  0  0  0  0
    9.4651   -0.2715    0.0000 C   0  0  0  0  0  0  0  0  0  0  0  0
   10.3312    0.2285    0.0000 C   0  0  0  0  0  0  0  0  0  0  0  0
   12.1152    1.2769    0.0000 C   0  0  0  0  0  0  0  0  0  0  0  0
   11.1972   -0.2715    0.0000 C   0  0  0  0  0  0  0  0  0  0  0  0
   12.1072    0.2353    0.0000 C   0  0  0  0  0  0  0  0  0  0  0  0
   10.3151    1.2700    0.0000 C   0  0  0  0  0  0  0  0  0  0  0  0
   10.3312   -2.7715    0.0000 C   0  0  0  0  0  0  0  0  0  0  0  0
   11.2131    1.7978    0.0000 C   0  0  0  0  0  0  0  0  0  0  0  0
   11.1972   -3.2715    0.0000 C   0  0  0  0  0  0  0  0  0  0  0  0
    9.4651   -3.2715    0.0000 C   0  0  0  0  0  0  0  0  0  0  0  0
   11.1972   -4.2715    0.0000 C   0  0  0  0  0  0  0  0  0  0  0  0
    9.4651   -4.2715    0.0000 C   0  0  0  0  0  0  0  0  0  0  0  0
   10.3312   -4.7715    0.0000 C   0  0  0  0  0  0  0  0  0  0  0  0
    7.4040   -2.0815    0.0000 H   0  0  0  0  0  0  0  0  0  0  0  0
    6.0010   -1.8915    0.0000 H   0  0  0  0  0  0  0  0  0  0  0  0
    6.0010    0.3485    0.0000 H   0  0  0  0  0  0  0  0  0  0  0  0
    6.0010   -2.6515    0.0000 H   0  0  0  0  0  0  0  0  0  0  0  0
    6.0010   -4.8915    0.0000 H   0  0  0  0  0  0  0  0  0  0  0  0
    8.2700   -0.9615    0.0000 H   0  0  0  0  0  0  0  0  0  0  0  0
    7.4040    0.5385    0.0000 H   0  0  0  0  0  0  0  0  0  0  0  0
    4.5981   -5.0815    0.0000 H   0  0  0  0  0  0  0  0  0  0  0  0
    3.7320   -3.9615    0.0000 H   0  0  0  0  0  0  0  0  0  0  0  0
    4.2690   -2.6515    0.0000 H   0  0  0  0  0  0  0  0  0  0  0  0
    7.4776    1.1208    0.0000 H   0  0  0  0  0  0  0  0  0  0  0  0
    7.0791    1.8111    0.0000 H   0  0  0  0  0  0  0  0  0  0  0  0
    3.8015   -2.2966    0.0000 H   0  0  0  0  0  0  0  0  0  0  0  0
    3.0044   -2.2966    0.0000 H   0  0  0  0  0  0  0  0  0  0  0  0
    4.5981   -1.4615    0.0000 H   0  0  0  0  0  0  0  0  0  0  0  0
   12.1292    4.8969    0.0000 H   0  0  0  0  0  0  0  0  0  0  0  0
   13.5329    5.0815    0.0000 H   0  0  0  0  0  0  0  0  0  0  0  0
   11.5872    3.5890    0.0000 H   0  0  0  0  0  0  0  0  0  0  0  0
    5.1350    0.8485    0.0000 H   0  0  0  0  0  0  0  0  0  0  0  0
   14.3946    3.9582    0.0000 H   0  0  0  0  0  0  0  0  0  0  0  0
    7.4040   -4.4615    0.0000 H   0  0  0  0  0  0  0  0  0  0  0  0
   12.4489    2.4657    0.0000 H   0  0  0  0  0  0  0  0  0  0  0  0
    5.6720   -6.0815    0.0000 H   0  0  0  0  0  0  0  0  0  0  0  0
    3.4030   -5.3915    0.0000 H   0  0  0  0  0  0  0  0  0  0  0  0
   15.1271    5.2403    0.0000 H   0  0  0  0  0  0  0  0  0  0  0  0
   14.3301    5.2434    0.0000 H   0  0  0  0  0  0  0  0  0  0  0  0
    6.0010    2.3485    0.0000 H   0  0  0  0  0  0  0  0  0  0  0  0
    2.0000   -2.9615    0.0000 H   0  0  0  0  0  0  0  0  0  0  0  0
   11.2651    5.4002    0.0000 H   0  0  0  0  0  0  0  0  0  0  0  0
   13.5367    6.0815    0.0000 H   0  0  0  0  0  0  0  0  0  0  0  0
   10.7192    3.0923    0.0000 H   0  0  0  0  0  0  0  0  0  0  0  0
   12.6405   -0.0808    0.0000 H   0  0  0  0  0  0  0  0  0  0  0  0
   11.2108    2.4178    0.0000 H   0  0  0  0  0  0  0  0  0  0  0  0
   16.1290    4.5715    0.0000 H   0  0  0  0  0  0  0  0  0  0  0  0
   11.7341   -2.9615    0.0000 H   0  0  0  0  0  0  0  0  0  0  0  0
    8.9282   -2.9615    0.0000 H   0  0  0  0  0  0  0  0  0  0  0  0
    9.4362    2.3799    0.0000 H   0  0  0  0  0  0  0  0  0  0  0  0
    8.9282   -4.5815    0.0000 H   0  0  0  0  0  0  0  0  0  0  0  0
   12.6002   -4.4615    0.0000 H   0  0  0  0  0  0  0  0  0  0  0  0
   10.8681   -6.0815    0.0000 H   0  0  0  0  0  0  0  0  0  0  0  0
  1 23  1  0  0  0  0
  1 26  1  0  0  0  0
  2 28  1  0  0  0  0
  2 29  1  0  0  0  0
  3 26  1  0  0  0  0
  3 32  1  0  0  0  0
  4 28  1  0  0  0  0
  4 40  1  0  0  0  0
  5 24  1  0  0  0  0
  5 70  1  0  0  0  0
  6 25  1  0  0  0  0
  6 74  1  0  0  0  0
  7 27  1  0  0  0  0
  7 76  1  0  0  0  0
  8 30  1  0  0  0  0
  8 78  1  0  0  0  0
  9 31  1  0  0  0  0
  9 79  1  0  0  0  0
 10 38  1  0  0  0  0
 10 39  1  0  0  0  0
 11 33  1  0  0  0  0
 11 82  1  0  0  0  0
 12 34  1  0  0  0  0
 12 83  1  0  0  0  0
 13 39  1  0  0  0  0
 13 45  1  0  0  0  0
 14 35  1  0  0  0  0
 14 84  1  0  0  0  0
 15 36  1  0  0  0  0
 15 85  1  0  0  0  0
 16 37  1  0  0  0  0
 16 86  1  0  0  0  0
 17 42  1  0  0  0  0
 17 46  1  0  0  0  0
 18 41  1  0  0  0  0
 18 89  1  0  0  0  0
 19 43  2  0  0  0  0
 20 48  1  0  0  0  0
 20 92  1  0  0  0  0
 21 53  1  0  0  0  0
 21 94  1  0  0  0  0
 22 55  1  0  0  0  0
 22 95  1  0  0  0  0
 23 24  1  0  0  0  0
 23 28  1  0  0  0  0
 23 56  1  0  0  0  0
 24 25  1  0  0  0  0
 24 57  1  0  0  0  0
 25 29  1  0  0  0  0
 25 58  1  0  0  0  0
 26 27  1  0  0  0  0
 26 59  1  0  0  0  0
 27 30  1  0  0  0  0
 27 60  1  0  0  0  0
 28 61  1  0  0  0  0
 29 33  1  0  0  0  0
 29 62  1  0  0  0  0
 30 31  1  0  0  0  0
 30 63  1  0  0  0  0
 31 32  1  0  0  0  0
 31 64  1  0  0  0  0
 32 34  1  0  0  0  0
 32 65  1  0  0  0  0
 33 66  1  0  0  0  0
 33 67  1  0  0  0  0
 34 68  1  0  0  0  0
 34 69  1  0  0  0  0
 35 36  1  0  0  0  0
 35 37  1  0  0  0  0
 35 71  1  0  0  0  0
 36 38  1  0  0  0  0
 36 72  1  0  0  0  0
 37 39  1  0  0  0  0
 37 73  1  0  0  0  0
 38 41  1  0  0  0  0
 38 75  1  0  0  0  0
 39 77  1  0  0  0  0
 40 42  2  0  0  0  0
 40 43  1  0  0  0  0
 41 80  1  0  0  0  0
 41 81  1  0  0  0  0
 42 49  1  0  0  0  0
 43 44  1  0  0  0  0
 44 46  1  0  0  0  0
 44 48  2  0  0  0  0
 45 47  1  0  0  0  0
 45 50  2  0  0  0  0
 46 47  2  0  0  0  0
 47 87  1  0  0  0  0
 48 50  1  0  0  0  0
 49 51  2  0  0  0  0
 49 52  1  0  0  0  0
 50 88  1  0  0  0  0
 51 53  1  0  0  0  0
 51 90  1  0  0  0  0
 52 54  2  0  0  0  0
 52 91  1  0  0  0  0
 53 55  2  0  0  0  0
 54 55  1  0  0  0  0
 54 93  1  0  0  0  0
M  END
>  <PUBCHEM_COMPOUND_CID>
12960454

>  <PUBCHEM_COMPOUND_CANONICALIZED>
1

>  <PUBCHEM_CACTVS_COMPLEXITY>
1340

>  <PUBCHEM_CACTVS_HBOND_ACCEPTOR>
22

>  <PUBCHEM_CACTVS_HBOND_DONOR>
14

>  <PUBCHEM_CACTVS_ROTATABLE_BOND>
10

>  <PUBCHEM_CACTVS_SUBSKEYS>
AAADcfB8PgAAAAAAAAAAAAAAAAAAAAAAAAA0aJECAAAAAACBQAAAGgAACAAADBSwmAMwDoAABgCIAqBSAAICCAAkIAAIiAFGiMgdNzaGNR6ieWGl4BUPuQfI7LzOIAABCAAIQABAAAIQABCAAAAAAAAAAA==

>  <PUBCHEM_IUPAC_OPENEYE_NAME>
3-[4,5-dihydroxy-6-(hydroxymethyl)-3-[3,4,5-trihydroxy-6-(hydroxymethyl)tetrahydropyran-2-yl]oxy-tetrahydropyran-2-yl]oxy-2-(3,4-dihydroxyphenyl)-5-hydroxy-7-[3,4,5-trihydroxy-6-(hydroxymethyl)tetrahydropyran-2-yl]oxy-chromen-4-one

>  <PUBCHEM_IUPAC_CAS_NAME>
3-[[4,5-dihydroxy-6-(hydroxymethyl)-3-[[3,4,5-trihydroxy-6-(hydroxymethyl)-2-oxanyl]oxy]-2-oxanyl]oxy]-2-(3,4-dihydroxyphenyl)-5-hydroxy-7-[[3,4,5-trihydroxy-6-(hydroxymethyl)-2-oxanyl]oxy]-1-benzopyran-4-one

>  <PUBCHEM_IUPAC_NAME>
3-[4,5-dihydroxy-6-(hydroxymethyl)-3-[3,4,5-trihydroxy-6-(hydroxymethyl)oxan-2-yl]oxyoxan-2-yl]oxy-2-(3,4-dihydroxyphenyl)-5-hydroxy-7-[3,4,5-trihydroxy-6-(hydroxymethyl)oxan-2-yl]oxychromen-4-one

>  <PUBCHEM_IUPAC_SYSTEMATIC_NAME>
2-[3,4-bis(oxidanyl)phenyl]-3-[6-(hydroxymethyl)-3-[6-(hydroxymethyl)-3,4,5-tris(oxidanyl)oxan-2-yl]oxy-4,5-bis(oxidanyl)oxan-2-yl]oxy-7-[6-(hydroxymethyl)-3,4,5-tris(oxidanyl)oxan-2-yl]oxy-5-oxidanyl-chromen-4-one

>  <PUBCHEM_IUPAC_TRADITIONAL_NAME>
3-[4,5-dihydroxy-6-methylol-3-(3,4,5-trihydroxy-6-methylol-tetrahydropyran-2-yl)oxy-tetrahydropyran-2-yl]oxy-2-(3,4-dihydroxyphenyl)-5-hydroxy-7-(3,4,5-trihydroxy-6-methylol-tetrahydropyran-2-yl)oxy-chromone

>  <PUBCHEM_IUPAC_INCHI>
InChI=1S/C33H40O22/c34-6-15-19(40)23(44)26(47)31(51-15)49-10-4-13(39)18-14(5-10)50-28(9-1-2-11(37)12(38)3-9)29(22(18)43)54-33-30(25(46)21(42)17(8-36)53-33)55-32-27(48)24(45)20(41)16(7-35)52-32/h1-5,15-17,19-21,23-27,30-42,44-48H,6-8H2

>  <PUBCHEM_IUPAC_INCHIKEY>
MSUZWPXKWROYDK-UHFFFAOYSA-N

>  <PUBCHEM_XLOGP3_AA>
-3

>  <PUBCHEM_EXACT_MASS>
788.201

>  <PUBCHEM_MOLECULAR_FORMULA>
C33H40O22

>  <PUBCHEM_MOLECULAR_WEIGHT>
788.661

>  <PUBCHEM_OPENEYE_CAN_SMILES>
C1=CC(=C(C=C1C2=C(C(=O)C3=C(C=C(C=C3O2)OC4C(C(C(C(O4)CO)O)O)O)O)OC5C(C(C(C(O5)CO)O)O)OC6C(C(C(C(O6)CO)O)O)O)O)O

>  <PUBCHEM_OPENEYE_ISO_SMILES>
C1=CC(=C(C=C1C2=C(C(=O)C3=C(C=C(C=C3O2)OC4C(C(C(C(O4)CO)O)O)O)O)OC5C(C(C(C(O5)CO)O)O)OC6C(C(C(C(O6)CO)O)O)O)O)O

>  <PUBCHEM_CACTVS_TPSA>
365

>  <PUBCHEM_MONOISOTOPIC_WEIGHT>
788.201

>  <PUBCHEM_TOTAL_CHARGE>
0

>  <PUBCHEM_HEAVY_ATOM_COUNT>
55

>  <PUBCHEM_ATOM_DEF_STEREO_COUNT>
0

>  <PUBCHEM_ATOM_UDEF_STEREO_COUNT>
15

>  <PUBCHEM_BOND_DEF_STEREO_COUNT>
0

>  <PUBCHEM_BOND_UDEF_STEREO_COUNT>
0

>  <PUBCHEM_ISOTOPIC_ATOM_COUNT>
0

>  <PUBCHEM_COMPONENT_COUNT>
1

>  <PUBCHEM_CACTVS_TAUTO_COUNT>
68

>  <PUBCHEM_COORDINATE_TYPE>
1
5
255

>  <PUBCHEM_BONDANNOTATIONS>
23  1  3
26  1  3
39  13  3
35  14  3
36  15  3
37  16  3
17  42  8
17  46  8
29  33  3
32  34  3
38  41  3
28  4  3
40  42  8
40  43  8
43  44  8
44  46  8
44  48  8
45  47  8
45  50  8
46  47  8
48  50  8
49  51  8
49  52  8
24  5  3
51  53  8
52  54  8
53  55  8
54  55  8
25  6  3
27  7  3
30  8  3
31  9  3

$$$$
