129882389
 OpenBabel06101807152D

 42 45  0  0  0  0  0  0  0  0999 V2000
    7.2342   -2.2844    0.0000 O   0  0  0  0  0  0  0  0  0  0  0  0
   10.8064   -2.0545    0.0000 O   0  0  0  0  0  0  0  0  0  0  0  0
    6.3359    1.2711    0.0000 O   0  0  0  0  0  0  0  0  0  0  0  0
    2.8641   -0.7156    0.0000 O   0  0  0  0  0  0  0  0  0  0  0  0
    2.8718    1.2844    0.0000 O   0  0  0  0  0  0  0  0  0  0  0  0
    5.4641   -2.2739    0.0000 O   0  0  0  0  0  0  0  0  0  0  0  0
    8.1282   -0.7497    0.0000 C   0  0  0  0  0  0  0  0  0  0  0  0
    6.3282   -0.7289    0.0000 C   0  0  0  0  0  0  0  0  0  0  0  0
    8.1282   -1.7497    0.0000 C   0  0  0  0  0  0  0  0  0  0  0  0
    5.4641   -0.2256    0.0000 C   0  0  0  0  0  0  0  0  0  0  0  0
    7.2342   -0.2151    0.0000 C   0  0  0  0  0  0  0  0  0  0  0  0
    9.8602   -0.7497    0.0000 C   0  0  0  0  0  0  0  0  0  0  0  0
    8.9942   -0.2497    0.0000 C   0  0  0  0  0  0  0  0  0  0  0  0
    9.8602   -1.7497    0.0000 C   0  0  0  0  0  0  0  0  0  0  0  0
    8.9942   -2.2497    0.0000 C   0  0  0  0  0  0  0  0  0  0  0  0
    5.4679    0.7744    0.0000 C   0  0  0  0  0  0  0  0  0  0  0  0
    6.3282   -1.7706    0.0000 C   0  0  0  0  0  0  0  0  0  0  0  0
    4.5961   -0.7223    0.0000 C   0  0  0  0  0  0  0  0  0  0  0  0
    3.7320   -0.2189    0.0000 C   0  0  0  0  0  0  0  0  0  0  0  0
   10.8064   -0.4450    0.0000 C   0  0  0  0  0  0  0  0  0  0  0  0
    4.6038    1.2777    0.0000 C   0  0  0  0  0  0  0  0  0  0  0  0
    3.7359    0.7811    0.0000 C   0  0  0  0  0  0  0  0  0  0  0  0
   11.3901   -1.2497    0.0000 C   0  0  0  0  0  0  0  0  0  0  0  0
    6.3397    2.2710    0.0000 C   0  0  0  0  0  0  0  0  0  0  0  0
    2.0000   -0.2122    0.0000 C   0  0  0  0  0  0  0  0  0  0  0  0
    2.8757    2.2844    0.0000 C   0  0  0  0  0  0  0  0  0  0  0  0
    7.2414    0.4049    0.0000 H   0  0  0  0  0  0  0  0  0  0  0  0
    8.9942    0.3703    0.0000 H   0  0  0  0  0  0  0  0  0  0  0  0
    8.9942   -2.8697    0.0000 H   0  0  0  0  0  0  0  0  0  0  0  0
    4.5937   -1.3422    0.0000 H   0  0  0  0  0  0  0  0  0  0  0  0
   10.9991    0.1443    0.0000 H   0  0  0  0  0  0  0  0  0  0  0  0
    4.6062    1.8977    0.0000 H   0  0  0  0  0  0  0  0  0  0  0  0
   12.0101   -1.2497    0.0000 H   0  0  0  0  0  0  0  0  0  0  0  0
    6.9597    2.2687    0.0000 H   0  0  0  0  0  0  0  0  0  0  0  0
    6.3421    2.8910    0.0000 H   0  0  0  0  0  0  0  0  0  0  0  0
    5.7197    2.2734    0.0000 H   0  0  0  0  0  0  0  0  0  0  0  0
    2.3121    0.3235    0.0000 H   0  0  0  0  0  0  0  0  0  0  0  0
    1.4643    0.0998    0.0000 H   0  0  0  0  0  0  0  0  0  0  0  0
    1.6879   -0.7480    0.0000 H   0  0  0  0  0  0  0  0  0  0  0  0
    3.4956    2.2820    0.0000 H   0  0  0  0  0  0  0  0  0  0  0  0
    2.8780    2.9044    0.0000 H   0  0  0  0  0  0  0  0  0  0  0  0
    2.2557    2.2868    0.0000 H   0  0  0  0  0  0  0  0  0  0  0  0
  1  9  1  0  0  0  0
  1 17  1  0  0  0  0
  2 14  1  0  0  0  0
  2 23  1  0  0  0  0
  3 16  1  0  0  0  0
  3 24  1  0  0  0  0
  4 19  1  0  0  0  0
  4 25  1  0  0  0  0
  5 22  1  0  0  0  0
  5 26  1  0  0  0  0
  6 17  2  0  0  0  0
  7  9  2  0  0  0  0
  7 11  1  0  0  0  0
  7 13  1  0  0  0  0
  8 10  1  0  0  0  0
  8 11  2  0  0  0  0
  8 17  1  0  0  0  0
  9 15  1  0  0  0  0
 10 16  1  0  0  0  0
 10 18  2  0  0  0  0
 11 27  1  0  0  0  0
 12 13  2  0  0  0  0
 12 14  1  0  0  0  0
 12 20  1  0  0  0  0
 13 28  1  0  0  0  0
 14 15  2  0  0  0  0
 15 29  1  0  0  0  0
 16 21  2  0  0  0  0
 18 19  1  0  0  0  0
 18 30  1  0  0  0  0
 19 22  2  0  0  0  0
 20 23  2  0  0  0  0
 20 31  1  0  0  0  0
 21 22  1  0  0  0  0
 21 32  1  0  0  0  0
 23 33  1  0  0  0  0
 24 34  1  0  0  0  0
 24 35  1  0  0  0  0
 24 36  1  0  0  0  0
 25 37  1  0  0  0  0
 25 38  1  0  0  0  0
 25 39  1  0  0  0  0
 26 40  1  0  0  0  0
 26 41  1  0  0  0  0
 26 42  1  0  0  0  0
M  END
>  <PUBCHEM_COMPOUND_CID>
129882389

>  <PUBCHEM_COMPOUND_CANONICALIZED>
1

>  <PUBCHEM_CACTVS_COMPLEXITY>
561

>  <PUBCHEM_CACTVS_HBOND_ACCEPTOR>
6

>  <PUBCHEM_CACTVS_HBOND_DONOR>
0

>  <PUBCHEM_CACTVS_ROTATABLE_BOND>
4

>  <PUBCHEM_CACTVS_SUBSKEYS>
AAADceB4OAAAAAAAAAAAAAAAAAAAASAAAAAwYIAAAAAAAEiB9AAAGgAAAAAADASgmAIyDsAABECIAqjSiAACCAAkIAAIiAEGiMgNJzaENRqCO2Kl4BUKqYfK7PzOIQADCAAIQABCAAYQABCAAAAAAAAAAA==

>  <PUBCHEM_IUPAC_OPENEYE_NAME>
6-(2,4,5-trimethoxyphenyl)furo[3,2-g]chromen-7-one

>  <PUBCHEM_IUPAC_CAS_NAME>
6-(2,4,5-trimethoxyphenyl)-7-furo[3,2-g][1]benzopyranone

>  <PUBCHEM_IUPAC_NAME>
6-(2,4,5-trimethoxyphenyl)furo[3,2-g]chromen-7-one

>  <PUBCHEM_IUPAC_SYSTEMATIC_NAME>
6-(2,4,5-trimethoxyphenyl)furo[3,2-g]chromen-7-one

>  <PUBCHEM_IUPAC_TRADITIONAL_NAME>
6-asarylfuro[3,2-g]chromen-7-one

>  <PUBCHEM_IUPAC_INCHI>
InChI=1S/C20H16O6/c1-22-17-10-19(24-3)18(23-2)8-13(17)14-7-12-6-11-4-5-25-15(11)9-16(12)26-20(14)21/h4-10H,1-3H3

>  <PUBCHEM_IUPAC_INCHIKEY>
HHHCFSNROIVKQQ-UHFFFAOYSA-N

>  <PUBCHEM_XLOGP3_AA>
3.9

>  <PUBCHEM_EXACT_MASS>
352.095

>  <PUBCHEM_MOLECULAR_FORMULA>
C20H16O6

>  <PUBCHEM_MOLECULAR_WEIGHT>
352.342

>  <PUBCHEM_OPENEYE_CAN_SMILES>
COC1=CC(=C(C=C1C2=CC3=C(C=C4C(=C3)C=CO4)OC2=O)OC)OC

>  <PUBCHEM_OPENEYE_ISO_SMILES>
COC1=CC(=C(C=C1C2=CC3=C(C=C4C(=C3)C=CO4)OC2=O)OC)OC

>  <PUBCHEM_CACTVS_TPSA>
67.1

>  <PUBCHEM_MONOISOTOPIC_WEIGHT>
352.095

>  <PUBCHEM_TOTAL_CHARGE>
0

>  <PUBCHEM_HEAVY_ATOM_COUNT>
26

>  <PUBCHEM_ATOM_DEF_STEREO_COUNT>
0

>  <PUBCHEM_ATOM_UDEF_STEREO_COUNT>
0

>  <PUBCHEM_BOND_DEF_STEREO_COUNT>
0

>  <PUBCHEM_BOND_UDEF_STEREO_COUNT>
0

>  <PUBCHEM_ISOTOPIC_ATOM_COUNT>
0

>  <PUBCHEM_COMPONENT_COUNT>
1

>  <PUBCHEM_CACTVS_TAUTO_COUNT>
1

>  <PUBCHEM_COORDINATE_TYPE>
1
5
255

>  <PUBCHEM_BONDANNOTATIONS>
1  17  8
1  9  8
10  16  8
10  18  8
12  13  8
12  14  8
12  20  8
14  15  8
16  21  8
18  19  8
19  22  8
2  14  8
2  23  8
20  23  8
21  22  8
7  11  8
7  13  8
7  9  8
8  11  8
8  17  8
9  15  8

$$$$
