12992492
 OpenBabel06101807152D

 86 95  0  0  0  0  0  0  0  0999 V2000
    6.9006    1.7847    0.0000 O   0  0  0  0  0  0  0  0  0  0  0  0
   13.0186   -1.7847    0.0000 O   0  0  0  0  0  0  0  0  0  0  0  0
    8.6605   -1.2500    0.0000 O   0  0  0  0  0  0  0  0  0  0  0  0
   11.2586    1.2500    0.0000 O   0  0  0  0  0  0  0  0  0  0  0  0
    2.6588    1.1166    0.0000 O   0  0  0  0  0  0  0  0  0  0  0  0
   17.2603   -1.1166    0.0000 O   0  0  0  0  0  0  0  0  0  0  0  0
    6.9121   -1.2846    0.0000 O   0  0  0  0  0  0  0  0  0  0  0  0
   13.0070    1.2846    0.0000 O   0  0  0  0  0  0  0  0  0  0  0  0
    9.5386    4.3192    0.0000 O   0  0  0  0  0  0  0  0  0  0  0  0
   10.3805   -4.3192    0.0000 O   0  0  0  0  0  0  0  0  0  0  0  0
    4.2740    4.2775    0.0000 O   0  0  0  0  0  0  0  0  0  0  0  0
   15.6451   -4.2775    0.0000 O   0  0  0  0  0  0  0  0  0  0  0  0
    2.5381    3.2842    0.0000 O   0  0  0  0  0  0  0  0  0  0  0  0
   17.3810   -3.2842    0.0000 O   0  0  0  0  0  0  0  0  0  0  0  0
    6.0061    4.2708    0.0000 O   0  0  0  0  0  0  0  0  0  0  0  0
   13.9131   -4.2708    0.0000 O   0  0  0  0  0  0  0  0  0  0  0  0
   10.3926   -0.2500    0.0000 C   0  0  0  0  0  0  0  0  0  0  0  0
    9.5266    0.2500    0.0000 C   0  0  0  0  0  0  0  0  0  0  0  0
    9.5266    1.2500    0.0000 C   0  0  0  0  0  0  0  0  0  0  0  0
   10.3926   -1.2500    0.0000 C   0  0  0  0  0  0  0  0  0  0  0  0
   11.2586   -1.7500    0.0000 C   0  0  0  0  0  0  0  0  0  0  0  0
    8.6605    1.7500    0.0000 C   0  0  0  0  0  0  0  0  0  0  0  0
    7.7945    0.2500    0.0000 C   0  0  0  0  0  0  0  0  0  0  0  0
   12.1246   -0.2500    0.0000 C   0  0  0  0  0  0  0  0  0  0  0  0
    7.7945    1.2500    0.0000 C   0  0  0  0  0  0  0  0  0  0  0  0
   12.1246   -1.2500    0.0000 C   0  0  0  0  0  0  0  0  0  0  0  0
    8.6605   -0.2500    0.0000 C   0  0  0  0  0  0  0  0  0  0  0  0
   11.2586    0.2500    0.0000 C   0  0  0  0  0  0  0  0  0  0  0  0
   13.9246   -1.2708    0.0000 C   0  0  0  0  0  0  0  0  0  0  0  0
    5.9945    1.2708    0.0000 C   0  0  0  0  0  0  0  0  0  0  0  0
   10.4366    1.7568    0.0000 C   0  0  0  0  0  0  0  0  0  0  0  0
    9.4826   -1.7568    0.0000 C   0  0  0  0  0  0  0  0  0  0  0  0
    6.9006   -0.2847    0.0000 C   0  0  0  0  0  0  0  0  0  0  0  0
   13.0186    0.2847    0.0000 C   0  0  0  0  0  0  0  0  0  0  0  0
   14.7887   -1.7742    0.0000 C   0  0  0  0  0  0  0  0  0  0  0  0
    5.1304    1.7742    0.0000 C   0  0  0  0  0  0  0  0  0  0  0  0
    8.6445    2.7915    0.0000 C   0  0  0  0  0  0  0  0  0  0  0  0
   11.2747   -2.7915    0.0000 C   0  0  0  0  0  0  0  0  0  0  0  0
    5.9945    0.2292    0.0000 C   0  0  0  0  0  0  0  0  0  0  0  0
   13.9246   -0.2292    0.0000 C   0  0  0  0  0  0  0  0  0  0  0  0
    4.2625    1.2775    0.0000 C   0  0  0  0  0  0  0  0  0  0  0  0
   15.6567   -1.2775    0.0000 C   0  0  0  0  0  0  0  0  0  0  0  0
    5.1343    2.7741    0.0000 C   0  0  0  0  0  0  0  0  0  0  0  0
   14.7849   -2.7741    0.0000 C   0  0  0  0  0  0  0  0  0  0  0  0
   10.4446    2.7984    0.0000 C   0  0  0  0  0  0  0  0  0  0  0  0
    9.4746   -2.7984    0.0000 C   0  0  0  0  0  0  0  0  0  0  0  0
   10.3766   -3.3193    0.0000 C   0  0  0  0  0  0  0  0  0  0  0  0
    9.5425    3.3193    0.0000 C   0  0  0  0  0  0  0  0  0  0  0  0
    3.3984    1.7808    0.0000 C   0  0  0  0  0  0  0  0  0  0  0  0
   16.5208   -1.7808    0.0000 C   0  0  0  0  0  0  0  0  0  0  0  0
    4.2702    3.2775    0.0000 C   0  0  0  0  0  0  0  0  0  0  0  0
   15.6490   -3.2775    0.0000 C   0  0  0  0  0  0  0  0  0  0  0  0
    3.4022    2.7808    0.0000 C   0  0  0  0  0  0  0  0  0  0  0  0
   16.5169   -2.7808    0.0000 C   0  0  0  0  0  0  0  0  0  0  0  0
   13.9169   -3.2708    0.0000 C   0  0  0  0  0  0  0  0  0  0  0  0
    6.0022    3.2708    0.0000 C   0  0  0  0  0  0  0  0  0  0  0  0
    4.0495    0.3065    0.0000 C   0  0  0  0  0  0  0  0  0  0  0  0
   15.8696   -0.3065    0.0000 C   0  0  0  0  0  0  0  0  0  0  0  0
    3.0604    0.2072    0.0000 C   0  0  0  0  0  0  0  0  0  0  0  0
   16.8587   -0.2072    0.0000 C   0  0  0  0  0  0  0  0  0  0  0  0
    8.9493   -1.4407    0.0000 H   0  0  0  0  0  0  0  0  0  0  0  0
   10.9699    1.4407    0.0000 H   0  0  0  0  0  0  0  0  0  0  0  0
   11.8151   -3.0953    0.0000 H   0  0  0  0  0  0  0  0  0  0  0  0
    8.1040    3.0953    0.0000 H   0  0  0  0  0  0  0  0  0  0  0  0
   14.4604    0.0829    0.0000 H   0  0  0  0  0  0  0  0  0  0  0  0
    5.4588   -0.0829    0.0000 H   0  0  0  0  0  0  0  0  0  0  0  0
   10.9827    3.1064    0.0000 H   0  0  0  0  0  0  0  0  0  0  0  0
    8.9364   -3.1064    0.0000 H   0  0  0  0  0  0  0  0  0  0  0  0
    8.1236   -1.5600    0.0000 H   0  0  0  0  0  0  0  0  0  0  0  0
   11.7955    1.5600    0.0000 H   0  0  0  0  0  0  0  0  0  0  0  0
   13.7071   -2.6874    0.0000 H   0  0  0  0  0  0  0  0  0  0  0  0
   13.3059   -3.3761    0.0000 H   0  0  0  0  0  0  0  0  0  0  0  0
    6.2120    2.6874    0.0000 H   0  0  0  0  0  0  0  0  0  0  0  0
    6.6132    3.3761    0.0000 H   0  0  0  0  0  0  0  0  0  0  0  0
    4.4618   -0.1566    0.0000 H   0  0  0  0  0  0  0  0  0  0  0  0
   15.4573    0.1566    0.0000 H   0  0  0  0  0  0  0  0  0  0  0  0
   17.1708    0.3285    0.0000 H   0  0  0  0  0  0  0  0  0  0  0  0
    2.7483   -0.3285    0.0000 H   0  0  0  0  0  0  0  0  0  0  0  0
    9.8447   -4.6313    0.0000 H   0  0  0  0  0  0  0  0  0  0  0  0
   10.0744    4.6313    0.0000 H   0  0  0  0  0  0  0  0  0  0  0  0
    3.7383    4.5895    0.0000 H   0  0  0  0  0  0  0  0  0  0  0  0
   16.1808   -4.5895    0.0000 H   0  0  0  0  0  0  0  0  0  0  0  0
    2.0000    2.9762    0.0000 H   0  0  0  0  0  0  0  0  0  0  0  0
   17.9191   -2.9762    0.0000 H   0  0  0  0  0  0  0  0  0  0  0  0
    6.5442    4.5787    0.0000 H   0  0  0  0  0  0  0  0  0  0  0  0
   13.3749   -4.5787    0.0000 H   0  0  0  0  0  0  0  0  0  0  0  0
  1 25  1  0  0  0  0
  1 30  1  0  0  0  0
  2 26  1  0  0  0  0
  2 29  1  0  0  0  0
  3 27  1  0  0  0  0
  3 69  1  0  0  0  0
  4 28  1  0  0  0  0
  4 70  1  0  0  0  0
  5 49  1  0  0  0  0
  5 59  1  0  0  0  0
  6 50  1  0  0  0  0
  6 60  1  0  0  0  0
  7 33  2  0  0  0  0
  8 34  2  0  0  0  0
  9 48  1  0  0  0  0
  9 80  1  0  0  0  0
 10 47  1  0  0  0  0
 10 79  1  0  0  0  0
 11 51  1  0  0  0  0
 11 81  1  0  0  0  0
 12 52  1  0  0  0  0
 12 82  1  0  0  0  0
 13 53  1  0  0  0  0
 13 83  1  0  0  0  0
 14 54  1  0  0  0  0
 14 84  1  0  0  0  0
 15 56  1  0  0  0  0
 15 85  1  0  0  0  0
 16 55  1  0  0  0  0
 16 86  1  0  0  0  0
 17 18  1  0  0  0  0
 17 20  1  0  0  0  0
 17 28  2  0  0  0  0
 18 19  1  0  0  0  0
 18 27  2  0  0  0  0
 19 22  2  0  0  0  0
 19 31  1  0  0  0  0
 20 21  2  0  0  0  0
 20 32  1  0  0  0  0
 21 26  1  0  0  0  0
 21 38  1  0  0  0  0
 22 25  1  0  0  0  0
 22 37  1  0  0  0  0
 23 25  2  0  0  0  0
 23 27  1  0  0  0  0
 23 33  1  0  0  0  0
 24 26  2  0  0  0  0
 24 28  1  0  0  0  0
 24 34  1  0  0  0  0
 29 35  1  0  0  0  0
 29 40  2  0  0  0  0
 30 36  1  0  0  0  0
 30 39  2  0  0  0  0
 31 45  2  0  0  0  0
 31 62  1  0  0  0  0
 32 46  2  0  0  0  0
 32 61  1  0  0  0  0
 33 39  1  0  0  0  0
 34 40  1  0  0  0  0
 35 42  2  0  0  0  0
 35 44  1  0  0  0  0
 36 41  2  0  0  0  0
 36 43  1  0  0  0  0
 37 48  2  0  0  0  0
 37 64  1  0  0  0  0
 38 47  2  0  0  0  0
 38 63  1  0  0  0  0
 39 66  1  0  0  0  0
 40 65  1  0  0  0  0
 41 49  1  0  0  0  0
 41 57  1  0  0  0  0
 42 50  1  0  0  0  0
 42 58  1  0  0  0  0
 43 51  2  0  0  0  0
 43 56  1  0  0  0  0
 44 52  2  0  0  0  0
 44 55  1  0  0  0  0
 45 48  1  0  0  0  0
 45 67  1  0  0  0  0
 46 47  1  0  0  0  0
 46 68  1  0  0  0  0
 49 53  2  0  0  0  0
 50 54  2  0  0  0  0
 51 53  1  0  0  0  0
 52 54  1  0  0  0  0
 55 71  1  0  0  0  0
 55 72  1  0  0  0  0
 56 73  1  0  0  0  0
 56 74  1  0  0  0  0
 57 59  2  0  0  0  0
 57 75  1  0  0  0  0
 58 60  2  0  0  0  0
 58 76  1  0  0  0  0
 59 78  1  0  0  0  0
 60 77  1  0  0  0  0
M  END
>  <PUBCHEM_COMPOUND_CID>
12992492

>  <PUBCHEM_COMPOUND_CANONICALIZED>
1

>  <PUBCHEM_CACTVS_COMPLEXITY>
1600

>  <PUBCHEM_CACTVS_HBOND_ACCEPTOR>
16

>  <PUBCHEM_CACTVS_HBOND_DONOR>
10

>  <PUBCHEM_CACTVS_ROTATABLE_BOND>
5

>  <PUBCHEM_CACTVS_SUBSKEYS>
AAADceB8PgAAAAAAAAAAAAAAAAAAASJAAAAwYMGDAAAAAEjB/gAAGgAACAAADASgmAIwBsAABkCIAqhSgAICCAAkIAAIiAFGiMgNNzaGNRqCeWOl4BULuYfK7PzO4AADCAAYQADAAAYQADCAAAAAAAAAAA==

>  <PUBCHEM_IUPAC_OPENEYE_NAME>
2-[6,7-dihydroxy-5-(hydroxymethyl)benzofuran-4-yl]-6-[2-[6,7-dihydroxy-5-(hydroxymethyl)benzofuran-4-yl]-5,9-dihydroxy-4-oxo-benzo[h]chromen-6-yl]-5,9-dihydroxy-benzo[h]chromen-4-one

>  <PUBCHEM_IUPAC_CAS_NAME>
2-[6,7-dihydroxy-5-(hydroxymethyl)-4-benzofuranyl]-6-[2-[6,7-dihydroxy-5-(hydroxymethyl)-4-benzofuranyl]-5,9-dihydroxy-4-oxo-6-benzo[h][1]benzopyranyl]-5,9-dihydroxy-4-benzo[h][1]benzopyranone

>  <PUBCHEM_IUPAC_NAME>
2-[6,7-dihydroxy-5-(hydroxymethyl)-1-benzofuran-4-yl]-6-[2-[6,7-dihydroxy-5-(hydroxymethyl)-1-benzofuran-4-yl]-5,9-dihydroxy-4-oxobenzo[h]chromen-6-yl]-5,9-dihydroxybenzo[h]chromen-4-one

>  <PUBCHEM_IUPAC_SYSTEMATIC_NAME>
2-[5-(hydroxymethyl)-6,7-bis(oxidanyl)-1-benzofuran-4-yl]-6-[2-[5-(hydroxymethyl)-6,7-bis(oxidanyl)-1-benzofuran-4-yl]-5,9-bis(oxidanyl)-4-oxidanylidene-benzo[h]chromen-6-yl]-5,9-bis(oxidanyl)benzo[h]chromen-4-one

>  <PUBCHEM_IUPAC_TRADITIONAL_NAME>
2-(6,7-dihydroxy-5-methylol-benzofuran-4-yl)-6-[2-(6,7-dihydroxy-5-methylol-benzofuran-4-yl)-5,9-dihydroxy-4-keto-benzo[h]chromen-6-yl]-5,9-dihydroxy-benzo[h]chromen-4-one

>  <PUBCHEM_IUPAC_INCHI>
InChI=1S/C44H26O16/c45-13-23-29(19-5-7-57-43(19)39(55)35(23)51)27-11-25(49)33-37(53)31(17-3-1-15(47)9-21(17)41(33)59-27)32-18-4-2-16(48)10-22(18)42-34(38(32)54)26(50)12-28(60-42)30-20-6-8-58-44(20)40(56)36(52)24(30)14-46/h1-12,45-48,51-56H,13-14H2

>  <PUBCHEM_IUPAC_INCHIKEY>
VQXHHGNBAPAJMQ-UHFFFAOYSA-N

>  <PUBCHEM_XLOGP3_AA>
7

>  <PUBCHEM_EXACT_MASS>
810.122

>  <PUBCHEM_MOLECULAR_FORMULA>
C44H26O16

>  <PUBCHEM_MOLECULAR_WEIGHT>
810.676

>  <PUBCHEM_OPENEYE_CAN_SMILES>
C1=CC2=C(C=C1O)C3=C(C(=O)C=C(O3)C4=C5C=COC5=C(C(=C4CO)O)O)C(=C2C6=C(C7=C(C8=C6C=CC(=C8)O)OC(=CC7=O)C9=C1C=COC1=C(C(=C9CO)O)O)O)O

>  <PUBCHEM_OPENEYE_ISO_SMILES>
C1=CC2=C(C=C1O)C3=C(C(=O)C=C(O3)C4=C5C=COC5=C(C(=C4CO)O)O)C(=C2C6=C(C7=C(C8=C6C=CC(=C8)O)OC(=CC7=O)C9=C1C=COC1=C(C(=C9CO)O)O)O)O

>  <PUBCHEM_CACTVS_TPSA>
281

>  <PUBCHEM_MONOISOTOPIC_WEIGHT>
810.122

>  <PUBCHEM_TOTAL_CHARGE>
0

>  <PUBCHEM_HEAVY_ATOM_COUNT>
60

>  <PUBCHEM_ATOM_DEF_STEREO_COUNT>
0

>  <PUBCHEM_ATOM_UDEF_STEREO_COUNT>
0

>  <PUBCHEM_BOND_DEF_STEREO_COUNT>
0

>  <PUBCHEM_BOND_UDEF_STEREO_COUNT>
0

>  <PUBCHEM_ISOTOPIC_ATOM_COUNT>
0

>  <PUBCHEM_COMPONENT_COUNT>
1

>  <PUBCHEM_CACTVS_TAUTO_COUNT>
981

>  <PUBCHEM_COORDINATE_TYPE>
1
5
255

>  <PUBCHEM_BONDANNOTATIONS>
1  25  8
1  30  8
17  20  8
17  28  8
18  19  8
18  27  8
19  22  8
19  31  8
2  26  8
2  29  8
20  21  8
20  32  8
21  26  8
21  38  8
22  25  8
22  37  8
23  25  8
23  27  8
23  33  8
24  26  8
24  28  8
24  34  8
29  40  8
30  39  8
31  45  8
32  46  8
33  39  8
34  40  8
35  42  8
35  44  8
36  41  8
36  43  8
37  48  8
38  47  8
41  49  8
41  57  8
42  50  8
42  58  8
43  51  8
44  52  8
45  48  8
46  47  8
49  53  8
5  49  8
5  59  8
50  54  8
51  53  8
52  54  8
57  59  8
58  60  8
6  50  8
6  60  8

$$$$
