131162
 OpenBabel06101807152D

 42 43  0  0  0  0  0  0  0  0999 V2000
    2.8660   -0.5950    0.0000 O   0  0  0  0  0  0  0  0  0  0  0  0
    6.3301   -0.5950    0.0000 O   0  0  0  0  0  0  0  0  0  0  0  0
    4.5981   -3.5950    0.0000 O   0  0  0  0  0  0  0  0  0  0  0  0
    3.7320    0.9050    0.0000 O   0  0  0  0  0  0  0  0  0  0  0  0
    4.5981   -0.5950    0.0000 C   0  0  0  0  0  0  0  0  0  0  0  0
    5.4641    0.9050    0.0000 C   0  0  0  0  0  0  0  0  0  0  0  0
    3.7320   -1.0950    0.0000 C   0  0  0  0  0  0  0  0  0  0  0  0
    5.4641    1.9050    0.0000 C   0  0  0  0  0  0  0  0  0  0  0  0
    4.5981    0.4050    0.0000 C   0  0  0  0  0  0  0  0  0  0  0  0
    3.7320   -2.0950    0.0000 C   0  0  0  0  0  0  0  0  0  0  0  0
    5.4641   -1.0950    0.0000 C   0  0  0  0  0  0  0  0  0  0  0  0
    5.4641   -2.0950    0.0000 C   0  0  0  0  0  0  0  0  0  0  0  0
    4.5981   -2.5950    0.0000 C   0  0  0  0  0  0  0  0  0  0  0  0
    6.3301    2.4050    0.0000 C   0  0  0  0  0  0  0  0  0  0  0  0
    2.8660   -2.5950    0.0000 C   0  0  0  0  0  0  0  0  0  0  0  0
    6.3301   -2.5950    0.0000 C   0  0  0  0  0  0  0  0  0  0  0  0
    7.1962    1.9050    0.0000 C   0  0  0  0  0  0  0  0  0  0  0  0
    6.3301    3.4050    0.0000 C   0  0  0  0  0  0  0  0  0  0  0  0
    8.0622    2.4050    0.0000 C   0  0  0  0  0  0  0  0  0  0  0  0
    7.1962    3.9050    0.0000 C   0  0  0  0  0  0  0  0  0  0  0  0
    8.0622    3.4050    0.0000 C   0  0  0  0  0  0  0  0  0  0  0  0
    2.0000   -1.0950    0.0000 C   0  0  0  0  0  0  0  0  0  0  0  0
    5.6762    0.3224    0.0000 H   0  0  0  0  0  0  0  0  0  0  0  0
    6.0747    1.0127    0.0000 H   0  0  0  0  0  0  0  0  0  0  0  0
    5.2520    2.4876    0.0000 H   0  0  0  0  0  0  0  0  0  0  0  0
    4.8535    1.7973    0.0000 H   0  0  0  0  0  0  0  0  0  0  0  0
    2.5560   -2.0581    0.0000 H   0  0  0  0  0  0  0  0  0  0  0  0
    2.3291   -2.9050    0.0000 H   0  0  0  0  0  0  0  0  0  0  0  0
    3.1760   -3.1319    0.0000 H   0  0  0  0  0  0  0  0  0  0  0  0
    6.0201   -3.1319    0.0000 H   0  0  0  0  0  0  0  0  0  0  0  0
    6.8671   -2.9050    0.0000 H   0  0  0  0  0  0  0  0  0  0  0  0
    6.6401   -2.0581    0.0000 H   0  0  0  0  0  0  0  0  0  0  0  0
    7.1962    1.2850    0.0000 H   0  0  0  0  0  0  0  0  0  0  0  0
    5.7932    3.7150    0.0000 H   0  0  0  0  0  0  0  0  0  0  0  0
    6.8671   -0.9050    0.0000 H   0  0  0  0  0  0  0  0  0  0  0  0
    5.1350   -3.9050    0.0000 H   0  0  0  0  0  0  0  0  0  0  0  0
    8.5991    2.0950    0.0000 H   0  0  0  0  0  0  0  0  0  0  0  0
    7.1962    4.5250    0.0000 H   0  0  0  0  0  0  0  0  0  0  0  0
    8.5991    3.7150    0.0000 H   0  0  0  0  0  0  0  0  0  0  0  0
    1.6900   -0.5581    0.0000 H   0  0  0  0  0  0  0  0  0  0  0  0
    1.4631   -1.4050    0.0000 H   0  0  0  0  0  0  0  0  0  0  0  0
    2.3100   -1.6319    0.0000 H   0  0  0  0  0  0  0  0  0  0  0  0
  1  7  1  0  0  0  0
  1 22  1  0  0  0  0
  2 11  1  0  0  0  0
  2 35  1  0  0  0  0
  3 13  1  0  0  0  0
  3 36  1  0  0  0  0
  4  9  2  0  0  0  0
  5  7  1  0  0  0  0
  5  9  1  0  0  0  0
  5 11  2  0  0  0  0
  6  8  1  0  0  0  0
  6  9  1  0  0  0  0
  6 23  1  0  0  0  0
  6 24  1  0  0  0  0
  7 10  2  0  0  0  0
  8 14  1  0  0  0  0
  8 25  1  0  0  0  0
  8 26  1  0  0  0  0
 10 13  1  0  0  0  0
 10 15  1  0  0  0  0
 11 12  1  0  0  0  0
 12 13  2  0  0  0  0
 12 16  1  0  0  0  0
 14 17  2  0  0  0  0
 14 18  1  0  0  0  0
 15 27  1  0  0  0  0
 15 28  1  0  0  0  0
 15 29  1  0  0  0  0
 16 30  1  0  0  0  0
 16 31  1  0  0  0  0
 16 32  1  0  0  0  0
 17 19  1  0  0  0  0
 17 33  1  0  0  0  0
 18 20  2  0  0  0  0
 18 34  1  0  0  0  0
 19 21  2  0  0  0  0
 19 37  1  0  0  0  0
 20 21  1  0  0  0  0
 20 38  1  0  0  0  0
 21 39  1  0  0  0  0
 22 40  1  0  0  0  0
 22 41  1  0  0  0  0
 22 42  1  0  0  0  0
M  END
>  <PUBCHEM_COMPOUND_CID>
131162

>  <PUBCHEM_COMPOUND_CANONICALIZED>
1

>  <PUBCHEM_CACTVS_COMPLEXITY>
364

>  <PUBCHEM_CACTVS_HBOND_ACCEPTOR>
4

>  <PUBCHEM_CACTVS_HBOND_DONOR>
2

>  <PUBCHEM_CACTVS_ROTATABLE_BOND>
5

>  <PUBCHEM_CACTVS_SUBSKEYS>
AAADceB4OAAAAAAAAAAAAAAAAAAAAAAAAAAwYAAAAAAAAAABQAAAGgAACAAADASAmAIyBoAABgCIAqBSAAACCAAkIAAIiAEECMgMJzaGNRqAcWAl4BUIuQeI7OzOIAACCAAIAABAAAQQABAAAAAAAAAAAA==

>  <PUBCHEM_IUPAC_OPENEYE_NAME>
1-(2,4-dihydroxy-6-methoxy-3,5-dimethyl-phenyl)-3-phenyl-propan-1-one

>  <PUBCHEM_IUPAC_CAS_NAME>
1-(2,4-dihydroxy-6-methoxy-3,5-dimethylphenyl)-3-phenyl-1-propanone

>  <PUBCHEM_IUPAC_NAME>
1-(2,4-dihydroxy-6-methoxy-3,5-dimethylphenyl)-3-phenylpropan-1-one

>  <PUBCHEM_IUPAC_SYSTEMATIC_NAME>
1-[2-methoxy-3,5-dimethyl-4,6-bis(oxidanyl)phenyl]-3-phenyl-propan-1-one

>  <PUBCHEM_IUPAC_TRADITIONAL_NAME>
1-(2,4-dihydroxy-6-methoxy-3,5-dimethyl-phenyl)-3-phenyl-propan-1-one

>  <PUBCHEM_IUPAC_INCHI>
InChI=1S/C18H20O4/c1-11-16(20)12(2)18(22-3)15(17(11)21)14(19)10-9-13-7-5-4-6-8-13/h4-8,20-21H,9-10H2,1-3H3

>  <PUBCHEM_IUPAC_INCHIKEY>
HBRYKWADRULLHU-UHFFFAOYSA-N

>  <PUBCHEM_XLOGP3_AA>
4

>  <PUBCHEM_EXACT_MASS>
300.136

>  <PUBCHEM_MOLECULAR_FORMULA>
C18H20O4

>  <PUBCHEM_MOLECULAR_WEIGHT>
300.354

>  <PUBCHEM_OPENEYE_CAN_SMILES>
CC1=C(C(=C(C(=C1O)C(=O)CCC2=CC=CC=C2)OC)C)O

>  <PUBCHEM_OPENEYE_ISO_SMILES>
CC1=C(C(=C(C(=C1O)C(=O)CCC2=CC=CC=C2)OC)C)O

>  <PUBCHEM_CACTVS_TPSA>
66.8

>  <PUBCHEM_MONOISOTOPIC_WEIGHT>
300.136

>  <PUBCHEM_TOTAL_CHARGE>
0

>  <PUBCHEM_HEAVY_ATOM_COUNT>
22

>  <PUBCHEM_ATOM_DEF_STEREO_COUNT>
0

>  <PUBCHEM_ATOM_UDEF_STEREO_COUNT>
0

>  <PUBCHEM_BOND_DEF_STEREO_COUNT>
0

>  <PUBCHEM_BOND_UDEF_STEREO_COUNT>
0

>  <PUBCHEM_ISOTOPIC_ATOM_COUNT>
0

>  <PUBCHEM_COMPONENT_COUNT>
1

>  <PUBCHEM_CACTVS_TAUTO_COUNT>
21

>  <PUBCHEM_COORDINATE_TYPE>
1
5
255

>  <PUBCHEM_BONDANNOTATIONS>
10  13  8
11  12  8
12  13  8
14  17  8
14  18  8
17  19  8
18  20  8
19  21  8
20  21  8
5  11  8
5  7  8
7  10  8

$$$$
