131751477
 OpenBabel06101807152D

 75 79  0  0  1  0  0  0  0  0999 V2000
    6.3301   -3.2857    0.0000 O   0  0  0  0  0  0  0  0  0  0  0  0
    7.1961   -1.7857    0.0000 O   0  0  0  0  0  0  0  0  0  0  0  0
    4.5981   -1.2857    0.0000 O   0  0  0  0  0  0  0  0  0  0  0  0
    9.7942   -3.2857    0.0000 O   0  0  0  0  0  0  0  0  0  0  0  0
    9.7942   -1.2857    0.0000 O   0  0  0  0  0  0  0  0  0  0  0  0
    4.5981   -4.2857    0.0000 O   0  0  0  0  0  0  0  0  0  0  0  0
    6.3301   -1.2857    0.0000 O   0  0  0  0  0  0  0  0  0  0  0  0
    2.8660   -3.2857    0.0000 O   0  0  0  0  0  0  0  0  0  0  0  0
    8.9282    0.2143    0.0000 O   0  0  0  0  0  0  0  0  0  0  0  0
    2.8660   -0.2857    0.0000 O   0  0  0  0  0  0  0  0  0  0  0  0
    5.4641    1.2143    0.0000 O   0  3  0  0  0  0  0  0  0  0  0  0
    8.9663    1.2112    0.0000 O   0  0  0  0  0  0  0  0  0  0  0  0
    7.2082    4.2836    0.0000 O   0  0  0  0  0  0  0  0  0  0  0  0
    2.0000    2.2144    0.0000 O   0  0  0  0  0  0  0  0  0  0  0  0
    8.0622   -3.2857    0.0000 C   0  0  1  0  0  0  0  0  0  0  0  0
    7.1961   -2.7857    0.0000 C   0  0  2  0  0  0  0  0  0  0  0  0
    5.4641   -2.7857    0.0000 C   0  0  2  0  0  0  0  0  0  0  0  0
    8.9282   -2.7857    0.0000 C   0  0  2  0  0  0  0  0  0  0  0  0
    8.9282   -1.7857    0.0000 C   0  0  1  0  0  0  0  0  0  0  0  0
    4.5981   -3.2857    0.0000 C   0  0  2  0  0  0  0  0  0  0  0  0
    8.0622   -1.2857    0.0000 C   0  0  1  0  0  0  0  0  0  0  0  0
    3.7320   -2.7857    0.0000 C   0  0  1  0  0  0  0  0  0  0  0  0
    5.4641   -1.7857    0.0000 C   0  0  1  0  0  0  0  0  0  0  0  0
    3.7320   -1.7857    0.0000 C   0  0  1  0  0  0  0  0  0  0  0  0
    8.0622   -4.2857    0.0000 C   0  0  0  0  0  0  0  0  0  0  0  0
    8.0622   -0.2857    0.0000 C   0  0  0  0  0  0  0  0  0  0  0  0
    2.8660   -1.2857    0.0000 C   0  0  0  0  0  0  0  0  0  0  0  0
    6.3301   -0.2857    0.0000 C   0  0  0  0  0  0  0  0  0  0  0  0
    5.4641    0.2143    0.0000 C   0  0  0  0  0  0  0  0  0  0  0  0
    7.1961    0.2143    0.0000 C   0  0  0  0  0  0  0  0  0  0  0  0
    7.1961    1.2143    0.0000 C   0  0  0  0  0  0  0  0  0  0  0  0
    4.5981    0.7144    0.0000 C   0  0  0  0  0  0  0  0  0  0  0  0
    6.3301    1.7143    0.0000 C   0  0  0  0  0  0  0  0  0  0  0  0
    8.1061    1.7212    0.0000 C   0  0  0  0  0  0  0  0  0  0  0  0
    6.3140    2.7558    0.0000 C   0  0  0  0  0  0  0  0  0  0  0  0
    4.5981    1.7144    0.0000 C   0  0  0  0  0  0  0  0  0  0  0  0
    3.7320    0.2143    0.0000 C   0  0  0  0  0  0  0  0  0  0  0  0
    8.1142    2.7628    0.0000 C   0  0  0  0  0  0  0  0  0  0  0  0
    7.2121    3.2836    0.0000 C   0  0  0  0  0  0  0  0  0  0  0  0
    3.7321    2.2144    0.0000 C   0  0  0  0  0  0  0  0  0  0  0  0
    2.8660    0.7143    0.0000 C   0  0  0  0  0  0  0  0  0  0  0  0
    2.8660    1.7144    0.0000 C   0  0  0  0  0  0  0  0  0  0  0  0
    7.5252   -3.5957    0.0000 H   0  0  0  0  0  0  0  0  0  0  0  0
    7.1961   -3.4057    0.0000 H   0  0  0  0  0  0  0  0  0  0  0  0
    5.4641   -3.4057    0.0000 H   0  0  0  0  0  0  0  0  0  0  0  0
    8.9282   -3.4057    0.0000 H   0  0  0  0  0  0  0  0  0  0  0  0
    9.4651   -2.0957    0.0000 H   0  0  0  0  0  0  0  0  0  0  0  0
    4.0611   -3.5957    0.0000 H   0  0  0  0  0  0  0  0  0  0  0  0
    7.5252   -0.9757    0.0000 H   0  0  0  0  0  0  0  0  0  0  0  0
    3.1951   -2.4757    0.0000 H   0  0  0  0  0  0  0  0  0  0  0  0
    5.4641   -1.1657    0.0000 H   0  0  0  0  0  0  0  0  0  0  0  0
    3.7320   -1.1657    0.0000 H   0  0  0  0  0  0  0  0  0  0  0  0
    7.4422   -4.2857    0.0000 H   0  0  0  0  0  0  0  0  0  0  0  0
    8.0622   -4.9057    0.0000 H   0  0  0  0  0  0  0  0  0  0  0  0
    8.6822   -4.2857    0.0000 H   0  0  0  0  0  0  0  0  0  0  0  0
    7.8501    0.2969    0.0000 H   0  0  0  0  0  0  0  0  0  0  0  0
    7.4516   -0.3933    0.0000 H   0  0  0  0  0  0  0  0  0  0  0  0
    2.2554   -1.1780    0.0000 H   0  0  0  0  0  0  0  0  0  0  0  0
    2.6540   -1.8683    0.0000 H   0  0  0  0  0  0  0  0  0  0  0  0
    9.7942   -3.9057    0.0000 H   0  0  0  0  0  0  0  0  0  0  0  0
   10.3311   -1.5957    0.0000 H   0  0  0  0  0  0  0  0  0  0  0  0
    4.0611   -4.5957    0.0000 H   0  0  0  0  0  0  0  0  0  0  0  0
    2.8660   -3.9057    0.0000 H   0  0  0  0  0  0  0  0  0  0  0  0
    9.4651   -0.0957    0.0000 H   0  0  0  0  0  0  0  0  0  0  0  0
    2.3291    0.0243    0.0000 H   0  0  0  0  0  0  0  0  0  0  0  0
    7.7331   -0.0957    0.0000 H   0  0  0  0  0  0  0  0  0  0  0  0
    5.7736    3.0596    0.0000 H   0  0  0  0  0  0  0  0  0  0  0  0
    5.1351    2.0244    0.0000 H   0  0  0  0  0  0  0  0  0  0  0  0
    3.7320   -0.4057    0.0000 H   0  0  0  0  0  0  0  0  0  0  0  0
    8.6523    3.0707    0.0000 H   0  0  0  0  0  0  0  0  0  0  0  0
    3.7321    2.8344    0.0000 H   0  0  0  0  0  0  0  0  0  0  0  0
    2.3291    0.4043    0.0000 H   0  0  0  0  0  0  0  0  0  0  0  0
    9.5068    1.5150    0.0000 H   0  0  0  0  0  0  0  0  0  0  0  0
    7.7440    4.5957    0.0000 H   0  0  0  0  0  0  0  0  0  0  0  0
    2.0000    2.8344    0.0000 H   0  0  0  0  0  0  0  0  0  0  0  0
  2 16  1  0  0  0  0
  2 21  1  0  0  0  0
  3 23  1  0  0  0  0
  3 24  1  0  0  0  0
  4 60  1  0  0  0  0
  5 61  1  0  0  0  0
  6 62  1  0  0  0  0
  7 28  1  0  0  0  0
  8 63  1  0  0  0  0
  9 26  1  0  0  0  0
  9 64  1  0  0  0  0
 10 27  1  0  0  0  0
 10 65  1  0  0  0  0
 11 29  2  0  0  0  0
 11 33  1  0  0  0  0
 12 34  1  0  0  0  0
 12 73  1  0  0  0  0
 13 39  1  0  0  0  0
 13 74  1  0  0  0  0
 14 42  1  0  0  0  0
 14 75  1  0  0  0  0
 15 16  1  1  0  0  0
 15 25  1  0  0  0  0
 15 43  1  0  0  0  0
 16  1  1  0  0  0  0
 16 44  1  1  0  0  0
 17  1  1  0  0  0  0
 17 20  1  6  0  0  0
 17 45  1  0  0  0  0
 18  4  1  0  0  0  0
 18 15  1  6  0  0  0
 18 46  1  0  0  0  0
 19  5  1  0  0  0  0
 19 18  1  1  0  0  0
 19 47  1  0  0  0  0
 20  6  1  0  0  0  0
 20 22  1  1  0  0  0
 20 48  1  0  0  0  0
 21 19  1  1  0  0  0
 21 26  1  0  0  0  0
 21 49  1  0  0  0  0
 22  8  1  0  0  0  0
 22 24  1  6  0  0  0
 22 50  1  0  0  0  0
 23  7  1  0  0  0  0
 23 17  1  6  0  0  0
 23 51  1  0  0  0  0
 24 27  1  0  0  0  0
 24 52  1  6  0  0  0
 25 53  1  0  0  0  0
 25 54  1  0  0  0  0
 25 55  1  0  0  0  0
 26 56  1  0  0  0  0
 26 57  1  0  0  0  0
 27 58  1  0  0  0  0
 27 59  1  0  0  0  0
 28 29  1  0  0  0  0
 28 30  2  0  0  0  0
 29 32  1  0  0  0  0
 30 31  1  0  0  0  0
 30 66  1  0  0  0  0
 31 33  1  0  0  0  0
 31 34  2  0  0  0  0
 32 36  2  0  0  0  0
 32 37  1  0  0  0  0
 33 35  2  0  0  0  0
 34 38  1  0  0  0  0
 35 39  1  0  0  0  0
 35 67  1  0  0  0  0
 36 40  1  0  0  0  0
 36 68  1  0  0  0  0
 37 41  2  0  0  0  0
 37 69  1  0  0  0  0
 38 39  2  0  0  0  0
 38 70  1  0  0  0  0
 40 42  2  0  0  0  0
 40 71  1  0  0  0  0
 41 42  1  0  0  0  0
 41 72  1  0  0  0  0
M  CHG  1  11   1
M  END
>  <PUBCHEM_COMPOUND_CID>
131751477

>  <PUBCHEM_COMPOUND_CANONICALIZED>
1

>  <PUBCHEM_CACTVS_COMPLEXITY>
859

>  <PUBCHEM_CACTVS_HBOND_ACCEPTOR>
13

>  <PUBCHEM_CACTVS_HBOND_DONOR>
9

>  <PUBCHEM_CACTVS_ROTATABLE_BOND>
7

>  <PUBCHEM_CACTVS_SUBSKEYS>
AAADcfB4PAAAAAAAAAAAAAAAAAAAAAAAAAA0aJECAAAAAACR9AAAGgAACAAADRSwmAMyDsAABkCIAqBSAAICCAAkIAAIiAFGiMgdNzaGNR6ieWKl4BUPuYfK7PzOIAAACAAIAABAAAAQABAAAAAAAAAAAA==

>  <PUBCHEM_IUPAC_OPENEYE_NAME>
3-[(2S,3R,4S,5S,6R)-3-[(2S,3R,4R,5S,6R)-4,5-dihydroxy-6-(hydroxymethyl)-3-methyl-tetrahydropyran-2-yl]oxy-4,5-dihydroxy-6-(hydroxymethyl)tetrahydropyran-2-yl]oxy-2-(4-hydroxyphenyl)chromenylium-5,7-diol

>  <PUBCHEM_IUPAC_CAS_NAME>
3-[[(2S,3R,4S,5S,6R)-3-[[(2S,3R,4R,5S,6R)-4,5-dihydroxy-6-(hydroxymethyl)-3-methyl-2-oxanyl]oxy]-4,5-dihydroxy-6-(hydroxymethyl)-2-oxanyl]oxy]-2-(4-hydroxyphenyl)-1-benzopyrylium-5,7-diol

>  <PUBCHEM_IUPAC_NAME>
3-[(2S,3R,4S,5S,6R)-3-[(2S,3R,4R,5S,6R)-4,5-dihydroxy-6-(hydroxymethyl)-3-methyloxan-2-yl]oxy-4,5-dihydroxy-6-(hydroxymethyl)oxan-2-yl]oxy-2-(4-hydroxyphenyl)chromenylium-5,7-diol

>  <PUBCHEM_IUPAC_SYSTEMATIC_NAME>
3-[(2S,3R,4S,5S,6R)-6-(hydroxymethyl)-3-[(2S,3R,4R,5S,6R)-6-(hydroxymethyl)-3-methyl-4,5-bis(oxidanyl)oxan-2-yl]oxy-4,5-bis(oxidanyl)oxan-2-yl]oxy-2-(4-hydroxyphenyl)chromenylium-5,7-diol

>  <PUBCHEM_IUPAC_TRADITIONAL_NAME>
3-[(2S,3R,4S,5S,6R)-3-[(2S,3R,4R,5S,6R)-4,5-dihydroxy-3-methyl-6-methylol-tetrahydropyran-2-yl]oxy-4,5-dihydroxy-6-methylol-tetrahydropyran-2-yl]oxy-2-(4-hydroxyphenyl)-1-benzopyrylium-5,7-diol

>  <PUBCHEM_IUPAC_INCHI>
InChI=1S/C28H32O14/c1-11-21(34)22(35)19(9-29)40-27(11)42-26-24(37)23(36)20(10-30)41-28(26)39-18-8-15-16(33)6-14(32)7-17(15)38-25(18)12-2-4-13(31)5-3-12/h2-8,11,19-24,26-30,34-37H,9-10H2,1H3,(H2-,31,32,33)/p+1/t11-,19-,20-,21-,22-,23-,24+,26-,27+,28-/m1/s1

>  <PUBCHEM_IUPAC_INCHIKEY>
MJCMQFQZXCYZOU-ZKUUPHCGSA-O

>  <PUBCHEM_EXACT_MASS>
593.187

>  <PUBCHEM_MOLECULAR_FORMULA>
C28H33O14+

>  <PUBCHEM_MOLECULAR_WEIGHT>
593.558

>  <PUBCHEM_OPENEYE_CAN_SMILES>
CC1C(C(C(OC1OC2C(C(C(OC2OC3=C([O+]=C4C=C(C=C(C4=C3)O)O)C5=CC=C(C=C5)O)CO)O)O)CO)O)O

>  <PUBCHEM_OPENEYE_ISO_SMILES>
C[C@@H]1[C@H]([C@@H]([C@H](O[C@H]1O[C@@H]2[C@H]([C@@H]([C@H](O[C@H]2OC3=C([O+]=C4C=C(C=C(C4=C3)O)O)C5=CC=C(C=C5)O)CO)O)O)CO)O)O

>  <PUBCHEM_CACTVS_TPSA>
220

>  <PUBCHEM_MONOISOTOPIC_WEIGHT>
593.187

>  <PUBCHEM_TOTAL_CHARGE>
1

>  <PUBCHEM_HEAVY_ATOM_COUNT>
42

>  <PUBCHEM_ATOM_DEF_STEREO_COUNT>
10

>  <PUBCHEM_ATOM_UDEF_STEREO_COUNT>
0

>  <PUBCHEM_BOND_DEF_STEREO_COUNT>
0

>  <PUBCHEM_BOND_UDEF_STEREO_COUNT>
0

>  <PUBCHEM_ISOTOPIC_ATOM_COUNT>
0

>  <PUBCHEM_COMPONENT_COUNT>
1

>  <PUBCHEM_CACTVS_TAUTO_COUNT>
70

>  <PUBCHEM_COORDINATE_TYPE>
1
5
255

>  <PUBCHEM_BONDANNOTATIONS>
16  1  6
17  1  6
11  29  8
11  33  8
15  25  5
21  26  6
24  27  5
28  29  8
28  30  8
30  31  8
31  33  8
31  34  8
32  36  8
32  37  8
33  35  8
34  38  8
35  39  8
36  40  8
37  41  8
38  39  8
18  4  6
40  42  8
41  42  8
19  5  5
20  6  5
23  7  5
22  8  6

$$$$
