131751866
 OpenBabel06101807152D

 51 52  0  0  1  0  0  0  0  0999 V2000
   11.5923    1.2294    0.0000 S   0  0  0  0  0  0  0  0  0  0  0  0
    8.1282    1.2160    0.0000 O   0  0  0  0  0  0  0  0  0  0  0  0
    2.8660    1.1919    0.0000 O   0  0  0  0  0  0  0  0  0  0  0  0
    9.0000   -0.2806    0.0000 O   0  0  0  0  0  0  0  0  0  0  0  0
    5.4641   -0.3081    0.0000 C   0  0  3  0  0  0  0  0  0  0  0  0
    5.4641    0.6919    0.0000 C   0  0  3  0  0  0  0  0  0  0  0  0
    6.3580   -0.8428    0.0000 C   0  0  3  0  0  0  0  0  0  0  0  0
    6.3580    1.2266    0.0000 C   0  0  0  0  0  0  0  0  0  0  0  0
    4.5981   -0.8081    0.0000 C   0  0  0  0  0  0  0  0  0  0  0  0
    7.2641   -0.3289    0.0000 C   0  0  0  0  0  0  0  0  0  0  0  0
    7.2641    0.7127    0.0000 C   0  0  3  0  0  0  0  0  0  0  0  0
    4.5981    1.1919    0.0000 C   0  0  0  0  0  0  0  0  0  0  0  0
    5.4641   -1.3081    0.0000 C   0  0  0  0  0  0  0  0  0  0  0  0
    3.7320   -0.3081    0.0000 C   0  0  0  0  0  0  0  0  0  0  0  0
    6.3465   -1.8427    0.0000 C   0  0  0  0  0  0  0  0  0  0  0  0
    3.7320    0.6919    0.0000 C   0  0  0  0  0  0  0  0  0  0  0  0
    2.8660   -0.8081    0.0000 C   0  0  0  0  0  0  0  0  0  0  0  0
    2.8660   -1.8081    0.0000 C   0  0  0  0  0  0  0  0  0  0  0  0
    2.0000   -0.3081    0.0000 C   0  0  0  0  0  0  0  0  0  0  0  0
    8.9962    0.7194    0.0000 C   0  0  0  0  0  0  0  0  0  0  0  0
    9.8602    1.2227    0.0000 C   0  0  0  0  0  0  0  0  0  0  0  0
   10.7282    0.7261    0.0000 C   0  0  0  0  0  0  0  0  0  0  0  0
   12.4602    0.7327    0.0000 C   0  0  0  0  0  0  0  0  0  0  0  0
    5.4593    1.3119    0.0000 H   0  0  0  0  0  0  0  0  0  0  0  0
    6.8920   -1.1579    0.0000 H   0  0  0  0  0  0  0  0  0  0  0  0
    6.7517    1.7056    0.0000 H   0  0  0  0  0  0  0  0  0  0  0  0
    5.9534    1.6963    0.0000 H   0  0  0  0  0  0  0  0  0  0  0  0
    4.1996   -1.2831    0.0000 H   0  0  0  0  0  0  0  0  0  0  0  0
    4.9966   -1.2831    0.0000 H   0  0  0  0  0  0  0  0  0  0  0  0
    7.4732   -0.9126    0.0000 H   0  0  0  0  0  0  0  0  0  0  0  0
    7.8750   -0.2228    0.0000 H   0  0  0  0  0  0  0  0  0  0  0  0
    7.2605    1.3327    0.0000 H   0  0  0  0  0  0  0  0  0  0  0  0
    4.9966    1.6668    0.0000 H   0  0  0  0  0  0  0  0  0  0  0  0
    4.1996    1.6668    0.0000 H   0  0  0  0  0  0  0  0  0  0  0  0
    4.8441   -1.3081    0.0000 H   0  0  0  0  0  0  0  0  0  0  0  0
    5.4641   -1.9281    0.0000 H   0  0  0  0  0  0  0  0  0  0  0  0
    6.0841   -1.3081    0.0000 H   0  0  0  0  0  0  0  0  0  0  0  0
    5.7265   -1.8355    0.0000 H   0  0  0  0  0  0  0  0  0  0  0  0
    6.3393   -2.4627    0.0000 H   0  0  0  0  0  0  0  0  0  0  0  0
    6.9664   -1.8499    0.0000 H   0  0  0  0  0  0  0  0  0  0  0  0
    2.3100    0.2288    0.0000 H   0  0  0  0  0  0  0  0  0  0  0  0
    2.2460   -1.8081    0.0000 H   0  0  0  0  0  0  0  0  0  0  0  0
    2.8660   -2.4281    0.0000 H   0  0  0  0  0  0  0  0  0  0  0  0
    1.4631    0.0019    0.0000 H   0  0  0  0  0  0  0  0  0  0  0  0
    1.6900   -0.8450    0.0000 H   0  0  0  0  0  0  0  0  0  0  0  0
    3.4860   -1.8081    0.0000 H   0  0  0  0  0  0  0  0  0  0  0  0
    9.8578    1.8427    0.0000 H   0  0  0  0  0  0  0  0  0  0  0  0
   10.7306    0.1061    0.0000 H   0  0  0  0  0  0  0  0  0  0  0  0
   12.1523    0.1946    0.0000 H   0  0  0  0  0  0  0  0  0  0  0  0
   12.9984    0.4248    0.0000 H   0  0  0  0  0  0  0  0  0  0  0  0
   12.7682    1.2709    0.0000 H   0  0  0  0  0  0  0  0  0  0  0  0
  1 22  1  0  0  0  0
  1 23  1  0  0  0  0
  2 11  1  0  0  0  0
  2 20  1  0  0  0  0
  3 16  2  0  0  0  0
  4 20  2  0  0  0  0
  5  6  1  0  0  0  0
  5  7  1  0  0  0  0
  5  9  1  0  0  0  0
  5 13  1  0  0  0  0
  6  8  1  0  0  0  0
  6 12  1  0  0  0  0
  6 24  1  0  0  0  0
  7 10  1  0  0  0  0
  7 15  1  0  0  0  0
  7 25  1  0  0  0  0
  8 11  1  0  0  0  0
  8 26  1  0  0  0  0
  8 27  1  0  0  0  0
  9 14  1  0  0  0  0
  9 28  1  0  0  0  0
  9 29  1  0  0  0  0
 10 11  1  0  0  0  0
 10 30  1  0  0  0  0
 10 31  1  0  0  0  0
 11 32  1  0  0  0  0
 12 16  1  0  0  0  0
 12 33  1  0  0  0  0
 12 34  1  0  0  0  0
 13 35  1  0  0  0  0
 13 36  1  0  0  0  0
 13 37  1  0  0  0  0
 14 16  1  0  0  0  0
 14 17  2  0  0  0  0
 15 38  1  0  0  0  0
 15 39  1  0  0  0  0
 15 40  1  0  0  0  0
 17 18  1  0  0  0  0
 17 19  1  0  0  0  0
 18 42  1  0  0  0  0
 18 43  1  0  0  0  0
 18 46  1  0  0  0  0
 19 41  1  0  0  0  0
 19 44  1  0  0  0  0
 19 45  1  0  0  0  0
 20 21  1  0  0  0  0
 21 22  2  0  0  0  0
 21 47  1  0  0  0  0
 22 48  1  0  0  0  0
 23 49  1  0  0  0  0
 23 50  1  0  0  0  0
 23 51  1  0  0  0  0
M  END
>  <PUBCHEM_COMPOUND_CID>
131751866

>  <PUBCHEM_COMPOUND_CANONICALIZED>
1

>  <PUBCHEM_CACTVS_COMPLEXITY>
545

>  <PUBCHEM_CACTVS_HBOND_ACCEPTOR>
4

>  <PUBCHEM_CACTVS_HBOND_DONOR>
0

>  <PUBCHEM_CACTVS_ROTATABLE_BOND>
4

>  <PUBCHEM_CACTVS_SUBSKEYS>
AAADceB4MABAAAAAAAAAAAAAAAAAAAAAAAAwYAAAAAAAAADAAAAAGgQAAAAADxSkwAKCCAAABAiIAqDSCAAAAAAgAAAICAEAAEgABBIAIAACAAAEgAAIIYOIzPDPgAAAAAAAAABAAAYAACAAAAAAAAAAAA==

>  <PUBCHEM_IUPAC_OPENEYE_NAME>
(6-isopropylidene-4,4a-dimethyl-7-oxo-decalin-2-yl) (E)-3-methylsulfanylprop-2-enoate

>  <PUBCHEM_IUPAC_CAS_NAME>
(E)-3-(methylthio)-2-propenoic acid (4,4a-dimethyl-7-oxo-6-propan-2-ylidene-2,3,4,5,8,8a-hexahydro-1H-naphthalen-2-yl) ester

>  <PUBCHEM_IUPAC_NAME>
(4,4a-dimethyl-7-oxo-6-propan-2-ylidene-2,3,4,5,8,8a-hexahydro-1H-naphthalen-2-yl) (E)-3-methylsulfanylprop-2-enoate

>  <PUBCHEM_IUPAC_SYSTEMATIC_NAME>
(4,4a-dimethyl-7-oxidanylidene-6-propan-2-ylidene-2,3,4,5,8,8a-hexahydro-1H-naphthalen-2-yl) (E)-3-methylsulfanylprop-2-enoate

>  <PUBCHEM_IUPAC_TRADITIONAL_NAME>
(E)-3-(methylthio)acrylic acid (6-isopropylidene-7-keto-4,4a-dimethyl-decalin-2-yl) ester

>  <PUBCHEM_IUPAC_INCHI>
InChI=1S/C19H28O3S/c1-12(2)16-11-19(4)13(3)8-15(9-14(19)10-17(16)20)22-18(21)6-7-23-5/h6-7,13-15H,8-11H2,1-5H3/b7-6+

>  <PUBCHEM_IUPAC_INCHIKEY>
HDHDUJDLKYTRAS-VOTSOKGWSA-N

>  <PUBCHEM_EXACT_MASS>
336.176

>  <PUBCHEM_MOLECULAR_FORMULA>
C19H28O3S

>  <PUBCHEM_MOLECULAR_WEIGHT>
336.49

>  <PUBCHEM_OPENEYE_CAN_SMILES>
CC1CC(CC2C1(CC(=C(C)C)C(=O)C2)C)OC(=O)C=CSC

>  <PUBCHEM_OPENEYE_ISO_SMILES>
CC1CC(CC2C1(CC(=C(C)C)C(=O)C2)C)OC(=O)/C=C/SC

>  <PUBCHEM_CACTVS_TPSA>
68.7

>  <PUBCHEM_MONOISOTOPIC_WEIGHT>
336.176

>  <PUBCHEM_TOTAL_CHARGE>
0

>  <PUBCHEM_HEAVY_ATOM_COUNT>
23

>  <PUBCHEM_ATOM_DEF_STEREO_COUNT>
0

>  <PUBCHEM_ATOM_UDEF_STEREO_COUNT>
4

>  <PUBCHEM_BOND_DEF_STEREO_COUNT>
1

>  <PUBCHEM_BOND_UDEF_STEREO_COUNT>
0

>  <PUBCHEM_ISOTOPIC_ATOM_COUNT>
0

>  <PUBCHEM_COMPONENT_COUNT>
1

>  <PUBCHEM_CACTVS_TAUTO_COUNT>
5

>  <PUBCHEM_COORDINATE_TYPE>
1
5
255

>  <PUBCHEM_BONDANNOTATIONS>
11  2  3
5  13  3
6  8  3
7  15  3

$$$$
