131752982
 OpenBabel06101807152D

 41 42  0  0  1  0  0  0  0  0999 V2000
    5.3781   -1.5795    0.0000 O   0  0  0  0  0  0  0  0  0  0  0  0
    2.0000   -1.3007    0.0000 O   0  0  0  0  0  0  0  0  0  0  0  0
    6.6030    0.9646    0.0000 O   0  0  0  0  0  0  0  0  0  0  0  0
    2.8090    0.2871    0.0000 O   0  0  0  0  0  0  0  0  0  0  0  0
    6.1871   -0.9917    0.0000 C   0  0  3  0  0  0  0  0  0  0  0  0
    5.8781   -0.0406    0.0000 C   0  0  0  0  0  0  0  0  0  0  0  0
    4.8781   -0.0406    0.0000 C   0  0  0  0  0  0  0  0  0  0  0  0
    4.5691   -0.9917    0.0000 C   0  0  3  0  0  0  0  0  0  0  0  0
    7.1382   -0.6827    0.0000 C   0  0  0  0  0  0  0  0  0  0  0  0
    6.7749   -1.8007    0.0000 C   0  0  0  0  0  0  0  0  0  0  0  0
    3.6180   -1.3007    0.0000 C   0  0  0  0  0  0  0  0  0  0  0  0
    7.3461    0.2955    0.0000 C   0  0  0  0  0  0  0  0  0  0  0  0
    8.2972    0.6045    0.0000 C   0  0  0  0  0  0  0  0  0  0  0  0
    8.5051    1.5826    0.0000 C   0  0  0  0  0  0  0  0  0  0  0  0
    3.3090   -2.2518    0.0000 C   0  0  0  0  0  0  0  0  0  0  0  0
    2.8090   -0.7129    0.0000 C   0  0  0  0  0  0  0  0  0  0  0  0
    2.3090   -2.2518    0.0000 C   0  0  0  0  0  0  0  0  0  0  0  0
    9.4561    1.8916    0.0000 C   0  0  0  0  0  0  0  0  0  0  0  0
    7.7619    2.2518    0.0000 C   0  0  0  0  0  0  0  0  0  0  0  0
    6.4846    0.0883    0.0000 H   0  0  0  0  0  0  0  0  0  0  0  0
    5.8133    0.5760    0.0000 H   0  0  0  0  0  0  0  0  0  0  0  0
    4.9429    0.5760    0.0000 H   0  0  0  0  0  0  0  0  0  0  0  0
    4.2717    0.0883    0.0000 H   0  0  0  0  0  0  0  0  0  0  0  0
    4.4721   -1.6041    0.0000 H   0  0  0  0  0  0  0  0  0  0  0  0
    7.2245   -1.2966    0.0000 H   0  0  0  0  0  0  0  0  0  0  0  0
    7.7578   -0.7043    0.0000 H   0  0  0  0  0  0  0  0  0  0  0  0
    6.2733   -2.1651    0.0000 H   0  0  0  0  0  0  0  0  0  0  0  0
    7.1393   -2.3023    0.0000 H   0  0  0  0  0  0  0  0  0  0  0  0
    7.2765   -1.4363    0.0000 H   0  0  0  0  0  0  0  0  0  0  0  0
    8.3834   -0.0095    0.0000 H   0  0  0  0  0  0  0  0  0  0  0  0
    8.9168    0.5829    0.0000 H   0  0  0  0  0  0  0  0  0  0  0  0
    7.9154    1.3910    0.0000 H   0  0  0  0  0  0  0  0  0  0  0  0
    3.6734   -2.7534    0.0000 H   0  0  0  0  0  0  0  0  0  0  0  0
    1.7026   -2.3807    0.0000 H   0  0  0  0  0  0  0  0  0  0  0  0
    2.3738   -2.8684    0.0000 H   0  0  0  0  0  0  0  0  0  0  0  0
    8.1768    2.7125    0.0000 H   0  0  0  0  0  0  0  0  0  0  0  0
    9.6477    1.3020    0.0000 H   0  0  0  0  0  0  0  0  0  0  0  0
   10.0458    2.0832    0.0000 H   0  0  0  0  0  0  0  0  0  0  0  0
    9.2645    2.4813    0.0000 H   0  0  0  0  0  0  0  0  0  0  0  0
    7.3012    2.6666    0.0000 H   0  0  0  0  0  0  0  0  0  0  0  0
    7.3471    1.7910    0.0000 H   0  0  0  0  0  0  0  0  0  0  0  0
  1  5  1  0  0  0  0
  1  8  1  0  0  0  0
  2 16  1  0  0  0  0
  2 17  1  0  0  0  0
  3 12  2  0  0  0  0
  4 16  2  0  0  0  0
  5  6  1  0  0  0  0
  5  9  1  0  0  0  0
  5 10  1  0  0  0  0
  6  7  1  0  0  0  0
  6 20  1  0  0  0  0
  6 21  1  0  0  0  0
  7  8  1  0  0  0  0
  7 22  1  0  0  0  0
  7 23  1  0  0  0  0
  8 11  1  0  0  0  0
  8 24  1  0  0  0  0
  9 12  1  0  0  0  0
  9 25  1  0  0  0  0
  9 26  1  0  0  0  0
 10 27  1  0  0  0  0
 10 28  1  0  0  0  0
 10 29  1  0  0  0  0
 11 15  2  0  0  0  0
 11 16  1  0  0  0  0
 12 13  1  0  0  0  0
 13 14  1  0  0  0  0
 13 30  1  0  0  0  0
 13 31  1  0  0  0  0
 14 18  1  0  0  0  0
 14 19  1  0  0  0  0
 14 32  1  0  0  0  0
 15 17  1  0  0  0  0
 15 33  1  0  0  0  0
 17 34  1  0  0  0  0
 17 35  1  0  0  0  0
 18 37  1  0  0  0  0
 18 38  1  0  0  0  0
 18 39  1  0  0  0  0
 19 36  1  0  0  0  0
 19 40  1  0  0  0  0
 19 41  1  0  0  0  0
M  END
>  <PUBCHEM_COMPOUND_CID>
131752982

>  <PUBCHEM_COMPOUND_CANONICALIZED>
1

>  <PUBCHEM_CACTVS_COMPLEXITY>
410

>  <PUBCHEM_CACTVS_HBOND_ACCEPTOR>
4

>  <PUBCHEM_CACTVS_HBOND_DONOR>
0

>  <PUBCHEM_CACTVS_ROTATABLE_BOND>
5

>  <PUBCHEM_CACTVS_SUBSKEYS>
AAADceBwOAAAAAAAAAAAAAAAAAAAASIAAAAAAAAAAAAAAAAAAAAAGgAAAAAADVSggAICCAAABACIAqDSCAAAAAAgAAAACAEAAEgABBYAIQACEAAFoAAIIYOIyPCOAAAAAAAAAAAAAAAAAAAAAAAAAAAAAA==

>  <PUBCHEM_IUPAC_OPENEYE_NAME>
4-[5-methyl-5-(4-methyl-2-oxo-pentyl)tetrahydrofuran-2-yl]-2H-furan-5-one

>  <PUBCHEM_IUPAC_CAS_NAME>
4-[5-methyl-5-(4-methyl-2-oxopentyl)-2-oxolanyl]-2H-furan-5-one

>  <PUBCHEM_IUPAC_NAME>
4-[5-methyl-5-(4-methyl-2-oxopentyl)oxolan-2-yl]-2H-furan-5-one

>  <PUBCHEM_IUPAC_SYSTEMATIC_NAME>
4-[5-methyl-5-(4-methyl-2-oxidanylidene-pentyl)oxolan-2-yl]-2H-furan-5-one

>  <PUBCHEM_IUPAC_TRADITIONAL_NAME>
4-[5-(2-keto-4-methyl-pentyl)-5-methyl-tetrahydrofuran-2-yl]-2H-furan-5-one

>  <PUBCHEM_IUPAC_INCHI>
InChI=1S/C15H22O4/c1-10(2)8-11(16)9-15(3)6-4-13(19-15)12-5-7-18-14(12)17/h5,10,13H,4,6-9H2,1-3H3

>  <PUBCHEM_IUPAC_INCHIKEY>
WZUJTFLPWFXBST-UHFFFAOYSA-N

>  <PUBCHEM_EXACT_MASS>
266.152

>  <PUBCHEM_MOLECULAR_FORMULA>
C15H22O4

>  <PUBCHEM_MOLECULAR_WEIGHT>
266.337

>  <PUBCHEM_OPENEYE_CAN_SMILES>
CC(C)CC(=O)CC1(CCC(O1)C2=CCOC2=O)C

>  <PUBCHEM_OPENEYE_ISO_SMILES>
CC(C)CC(=O)CC1(CCC(O1)C2=CCOC2=O)C

>  <PUBCHEM_CACTVS_TPSA>
52.6

>  <PUBCHEM_MONOISOTOPIC_WEIGHT>
266.152

>  <PUBCHEM_TOTAL_CHARGE>
0

>  <PUBCHEM_HEAVY_ATOM_COUNT>
19

>  <PUBCHEM_ATOM_DEF_STEREO_COUNT>
0

>  <PUBCHEM_ATOM_UDEF_STEREO_COUNT>
2

>  <PUBCHEM_BOND_DEF_STEREO_COUNT>
0

>  <PUBCHEM_BOND_UDEF_STEREO_COUNT>
0

>  <PUBCHEM_ISOTOPIC_ATOM_COUNT>
0

>  <PUBCHEM_COMPONENT_COUNT>
1

>  <PUBCHEM_CACTVS_TAUTO_COUNT>
3

>  <PUBCHEM_COORDINATE_TYPE>
1
5
255

>  <PUBCHEM_BONDANNOTATIONS>
5  10  3
8  11  3

$$$$
