131752401
 OpenBabel06101807152D

138142  0  0  1  0  0  0  0  0999 V2000
    7.2720   -1.2329    0.0000 Mg  0  2  0  0  0 15  0  0  0  0  0  0
    8.1006   -0.6730    0.0000 O   0  5  0  0  0  0  0  0  0  0  0  0
   10.4256    0.2404    0.0000 O   0  0  0  0  0  0  0  0  0  0  0  0
   13.1449    2.9200    0.0000 O   0  0  0  0  0  0  0  0  0  0  0  0
   10.6312    1.9602    0.0000 O   0  0  0  0  0  0  0  0  0  0  0  0
   12.1022    1.5370    0.0000 O   0  0  0  0  0  0  0  0  0  0  0  0
    8.1923    3.8033    0.0000 N   0  0  0  0  0  0  0  0  0  0  0  0
    6.7126    2.4539    0.0000 N   0  0  0  0  0  0  0  0  0  0  0  0
    6.6795    5.1528    0.0000 N   0  0  0  0  0  0  0  0  0  0  0  0
    5.2310    3.8033    0.0000 N   0  0  0  0  0  0  0  0  0  0  0  0
    9.7067    3.3430    0.0000 C   0  0  3  0  0  0  0  0  0  0  0  0
    9.7067    4.3295    0.0000 C   0  0  3  0  0  0  0  0  0  0  0  0
    8.7846    3.0790    0.0000 C   0  0  0  0  0  0  0  0  0  0  0  0
   10.5052    2.7410    0.0000 C   0  0  0  0  0  0  0  0  0  0  0  0
    8.4894    2.1254    0.0000 C   0  0  0  0  0  0  0  0  0  0  0  0
    8.7516    4.5935    0.0000 C   0  0  0  0  0  0  0  0  0  0  0  0
    9.0390    1.2784    0.0000 C   0  0  3  0  0  0  0  0  0  0  0  0
    7.5028    1.8615    0.0000 C   0  0  0  0  0  0  0  0  0  0  0  0
   10.5025    4.9351    0.0000 C   0  0  0  0  0  0  0  0  0  0  0  0
    7.2058    0.9079    0.0000 C   0  0  0  0  0  0  0  0  0  0  0  0
   11.4258    3.1315    0.0000 C   0  0  0  0  0  0  0  0  0  0  0  0
    8.0299    0.3245    0.0000 C   0  0  0  0  0  0  0  0  0  0  0  0
    8.4563    5.5142    0.0000 C   0  0  0  0  0  0  0  0  0  0  0  0
    6.2191    0.9079    0.0000 C   0  0  0  0  0  0  0  0  0  0  0  0
   18.3681   -4.2715    0.0000 C   0  0  3  0  0  0  0  0  0  0  0  0
   17.5696   -3.6695    0.0000 C   0  0  0  0  0  0  0  0  0  0  0  0
   17.0153   -1.0825    0.0000 C   0  0  3  0  0  0  0  0  0  0  0  0
   17.6917   -2.6770    0.0000 C   0  0  0  0  0  0  0  0  0  0  0  0
   16.8932   -2.0750    0.0000 C   0  0  0  0  0  0  0  0  0  0  0  0
   10.0319    1.1597    0.0000 C   0  0  0  0  0  0  0  0  0  0  0  0
    5.9222    1.8284    0.0000 C   0  0  0  0  0  0  0  0  0  0  0  0
   18.2460   -5.2640    0.0000 C   0  0  0  0  0  0  0  0  0  0  0  0
    7.5028    5.8111    0.0000 C   0  0  0  0  0  0  0  0  0  0  0  0
   16.2168   -0.4805    0.0000 C   0  0  0  0  0  0  0  0  0  0  0  0
   19.0445   -5.8660    0.0000 C   0  0  0  0  0  0  0  0  0  0  0  0
   12.2243    2.5295    0.0000 C   0  0  0  0  0  0  0  0  0  0  0  0
    5.6304    0.0995    0.0000 C   0  0  0  0  0  0  0  0  0  0  0  0
   18.9224   -6.8586    0.0000 C   0  0  0  0  0  0  0  0  0  0  0  0
   19.2887   -3.8810    0.0000 C   0  0  0  0  0  0  0  0  0  0  0  0
   16.3389    0.5120    0.0000 C   0  0  0  0  0  0  0  0  0  0  0  0
    7.1728    6.7316    0.0000 C   0  0  0  0  0  0  0  0  0  0  0  0
   17.9359   -0.6920    0.0000 C   0  0  0  0  0  0  0  0  0  0  0  0
    4.9686    2.1254    0.0000 C   0  0  0  0  0  0  0  0  0  0  0  0
   19.7209   -7.4606    0.0000 C   0  0  0  0  0  0  0  0  0  0  0  0
    5.8892    5.7782    0.0000 C   0  0  0  0  0  0  0  0  0  0  0  0
    6.1862    6.7316    0.0000 C   0  0  0  0  0  0  0  0  0  0  0  0
   15.5404    1.1140    0.0000 C   0  0  0  0  0  0  0  0  0  0  0  0
    4.6717    3.0461    0.0000 C   0  0  0  0  0  0  0  0  0  0  0  0
    3.7182    3.3100    0.0000 C   0  0  0  0  0  0  0  0  0  0  0  0
    7.7483    7.5494    0.0000 C   0  0  0  0  0  0  0  0  0  0  0  0
    4.9356    5.5142    0.0000 C   0  0  0  0  0  0  0  0  0  0  0  0
   15.6625    2.1066    0.0000 C   0  0  0  0  0  0  0  0  0  0  0  0
    4.6717    4.5605    0.0000 C   0  0  0  0  0  0  0  0  0  0  0  0
   13.9434    2.3180    0.0000 C   0  0  0  0  0  0  0  0  0  0  0  0
    3.7182    4.2966    0.0000 C   0  0  0  0  0  0  0  0  0  0  0  0
   19.5988   -8.4531    0.0000 C   0  0  0  0  0  0  0  0  0  0  0  0
   20.6415   -7.0700    0.0000 C   0  0  0  0  0  0  0  0  0  0  0  0
   14.8640    2.7086    0.0000 C   0  0  0  0  0  0  0  0  0  0  0  0
    5.5935    7.5371    0.0000 C   0  0  0  0  0  0  0  0  0  0  0  0
   11.4185    0.1217    0.0000 C   0  0  0  0  0  0  0  0  0  0  0  0
    2.9223    2.7046    0.0000 C   0  0  0  0  0  0  0  0  0  0  0  0
   16.5831    2.4971    0.0000 C   0  0  0  0  0  0  0  0  0  0  0  0
    2.9223    4.9021    0.0000 C   0  0  0  0  0  0  0  0  0  0  0  0
    2.0000    3.0911    0.0000 C   0  0  0  0  0  0  0  0  0  0  0  0
    5.9946    8.4531    0.0000 C   0  0  0  0  0  0  0  0  0  0  0  0
   10.2616    3.6196    0.0000 H   0  0  0  0  0  0  0  0  0  0  0  0
    9.5894    4.9383    0.0000 H   0  0  0  0  0  0  0  0  0  0  0  0
   10.0517    2.3183    0.0000 H   0  0  0  0  0  0  0  0  0  0  0  0
   10.8428    2.2210    0.0000 H   0  0  0  0  0  0  0  0  0  0  0  0
    9.3668    1.8046    0.0000 H   0  0  0  0  0  0  0  0  0  0  0  0
   10.8780    4.4418    0.0000 H   0  0  0  0  0  0  0  0  0  0  0  0
   10.9959    5.3106    0.0000 H   0  0  0  0  0  0  0  0  0  0  0  0
   10.1270    5.4285    0.0000 H   0  0  0  0  0  0  0  0  0  0  0  0
   11.8794    3.5543    0.0000 H   0  0  0  0  0  0  0  0  0  0  0  0
   11.0883    3.6516    0.0000 H   0  0  0  0  0  0  0  0  0  0  0  0
    8.8928    5.9544    0.0000 H   0  0  0  0  0  0  0  0  0  0  0  0
   18.4438   -3.6562    0.0000 H   0  0  0  0  0  0  0  0  0  0  0  0
   16.9767   -3.4881    0.0000 H   0  0  0  0  0  0  0  0  0  0  0  0
   17.2880   -4.2219    0.0000 H   0  0  0  0  0  0  0  0  0  0  0  0
   17.0910   -0.4671    0.0000 H   0  0  0  0  0  0  0  0  0  0  0  0
   18.2846   -2.8584    0.0000 H   0  0  0  0  0  0  0  0  0  0  0  0
   17.9733   -2.1246    0.0000 H   0  0  0  0  0  0  0  0  0  0  0  0
   16.3003   -1.8936    0.0000 H   0  0  0  0  0  0  0  0  0  0  0  0
   16.6116   -2.6274    0.0000 H   0  0  0  0  0  0  0  0  0  0  0  0
   17.6531   -5.0826    0.0000 H   0  0  0  0  0  0  0  0  0  0  0  0
   17.9644   -5.8164    0.0000 H   0  0  0  0  0  0  0  0  0  0  0  0
   15.6239   -0.2991    0.0000 H   0  0  0  0  0  0  0  0  0  0  0  0
   15.9352   -1.0328    0.0000 H   0  0  0  0  0  0  0  0  0  0  0  0
   19.6373   -6.0474    0.0000 H   0  0  0  0  0  0  0  0  0  0  0  0
   19.3261   -5.3137    0.0000 H   0  0  0  0  0  0  0  0  0  0  0  0
    5.1292    0.4645    0.0000 H   0  0  0  0  0  0  0  0  0  0  0  0
    5.2654   -0.4017    0.0000 H   0  0  0  0  0  0  0  0  0  0  0  0
    6.1316   -0.2655    0.0000 H   0  0  0  0  0  0  0  0  0  0  0  0
   18.3295   -6.6772    0.0000 H   0  0  0  0  0  0  0  0  0  0  0  0
   18.6408   -7.4109    0.0000 H   0  0  0  0  0  0  0  0  0  0  0  0
   19.5308   -4.4518    0.0000 H   0  0  0  0  0  0  0  0  0  0  0  0
   19.8595   -3.6389    0.0000 H   0  0  0  0  0  0  0  0  0  0  0  0
   19.0466   -3.3102    0.0000 H   0  0  0  0  0  0  0  0  0  0  0  0
   16.9318    0.3306    0.0000 H   0  0  0  0  0  0  0  0  0  0  0  0
   16.6205    1.0644    0.0000 H   0  0  0  0  0  0  0  0  0  0  0  0
   18.1780   -1.2627    0.0000 H   0  0  0  0  0  0  0  0  0  0  0  0
   18.5067   -0.4498    0.0000 H   0  0  0  0  0  0  0  0  0  0  0  0
   17.6938   -0.1212    0.0000 H   0  0  0  0  0  0  0  0  0  0  0  0
    4.5324    1.6848    0.0000 H   0  0  0  0  0  0  0  0  0  0  0  0
    6.6811    4.5328    0.0000 H   0  0  0  0  0  0  0  0  0  0  0  0
   20.2159   -7.8338    0.0000 H   0  0  0  0  0  0  0  0  0  0  0  0
   14.9475    1.2954    0.0000 H   0  0  0  0  0  0  0  0  0  0  0  0
   15.2588    0.5617    0.0000 H   0  0  0  0  0  0  0  0  0  0  0  0
    8.2553    7.1926    0.0000 H   0  0  0  0  0  0  0  0  0  0  0  0
    8.1051    8.0565    0.0000 H   0  0  0  0  0  0  0  0  0  0  0  0
    7.2412    7.9063    0.0000 H   0  0  0  0  0  0  0  0  0  0  0  0
    4.4972    5.9526    0.0000 H   0  0  0  0  0  0  0  0  0  0  0  0
   13.4899    1.8953    0.0000 H   0  0  0  0  0  0  0  0  0  0  0  0
   14.2810    1.7980    0.0000 H   0  0  0  0  0  0  0  0  0  0  0  0
   18.9834   -8.3774    0.0000 H   0  0  0  0  0  0  0  0  0  0  0  0
   19.5231   -9.0684    0.0000 H   0  0  0  0  0  0  0  0  0  0  0  0
   20.2141   -8.5288    0.0000 H   0  0  0  0  0  0  0  0  0  0  0  0
   20.8836   -7.6408    0.0000 H   0  0  0  0  0  0  0  0  0  0  0  0
   21.2122   -6.8279    0.0000 H   0  0  0  0  0  0  0  0  0  0  0  0
   20.3994   -6.4993    0.0000 H   0  0  0  0  0  0  0  0  0  0  0  0
   14.9397    3.3239    0.0000 H   0  0  0  0  0  0  0  0  0  0  0  0
    4.9773    7.4685    0.0000 H   0  0  0  0  0  0  0  0  0  0  0  0
   11.3449   -0.4939    0.0000 H   0  0  0  0  0  0  0  0  0  0  0  0
   12.0341    0.0481    0.0000 H   0  0  0  0  0  0  0  0  0  0  0  0
   11.4921    0.7373    0.0000 H   0  0  0  0  0  0  0  0  0  0  0  0
    2.5870    2.1830    0.0000 H   0  0  0  0  0  0  0  0  0  0  0  0
    3.3777    2.2838    0.0000 H   0  0  0  0  0  0  0  0  0  0  0  0
   16.8252    1.9263    0.0000 H   0  0  0  0  0  0  0  0  0  0  0  0
   17.1539    2.7392    0.0000 H   0  0  0  0  0  0  0  0  0  0  0  0
   16.3410    3.0678    0.0000 H   0  0  0  0  0  0  0  0  0  0  0  0
    3.2978    5.3955    0.0000 H   0  0  0  0  0  0  0  0  0  0  0  0
    2.4289    5.2776    0.0000 H   0  0  0  0  0  0  0  0  0  0  0  0
    2.5469    4.4087    0.0000 H   0  0  0  0  0  0  0  0  0  0  0  0
    2.2396    3.6629    0.0000 H   0  0  0  0  0  0  0  0  0  0  0  0
    1.4282    3.3307    0.0000 H   0  0  0  0  0  0  0  0  0  0  0  0
    1.7604    2.5192    0.0000 H   0  0  0  0  0  0  0  0  0  0  0  0
    6.6108    8.5216    0.0000 H   0  0  0  0  0  0  0  0  0  0  0  0
    5.6271    8.9524    0.0000 H   0  0  0  0  0  0  0  0  0  0  0  0
  2 22  1  0  0  0  0
  3 30  1  0  0  0  0
  3 60  1  0  0  0  0
  4 36  1  0  0  0  0
  4 54  1  0  0  0  0
  5 30  2  0  0  0  0
  6 36  2  0  0  0  0
  7 13  1  0  0  0  0
  7 16  2  0  0  0  0
  8 18  2  0  0  0  0
  8 31  1  0  0  0  0
  9 33  1  0  0  0  0
  9 45  1  0  0  0  0
  9105  1  0  0  0  0
 10 48  1  0  0  0  0
 10 53  2  0  0  0  0
 11 12  1  0  0  0  0
 11 13  1  0  0  0  0
 11 14  1  0  0  0  0
 11 66  1  0  0  0  0
 12 16  1  0  0  0  0
 12 19  1  0  0  0  0
 12 67  1  0  0  0  0
 13 15  2  0  0  0  0
 14 21  1  0  0  0  0
 14 68  1  0  0  0  0
 14 69  1  0  0  0  0
 15 17  1  0  0  0  0
 15 18  1  0  0  0  0
 16 23  1  0  0  0  0
 17 22  1  0  0  0  0
 17 30  1  0  0  0  0
 17 70  1  0  0  0  0
 18 20  1  0  0  0  0
 19 71  1  0  0  0  0
 19 72  1  0  0  0  0
 19 73  1  0  0  0  0
 20 22  2  0  0  0  0
 20 24  1  0  0  0  0
 21 36  1  0  0  0  0
 21 74  1  0  0  0  0
 21 75  1  0  0  0  0
 23 33  2  0  0  0  0
 23 76  1  0  0  0  0
 24 31  2  0  0  0  0
 24 37  1  0  0  0  0
 25 26  1  0  0  0  0
 25 32  1  0  0  0  0
 25 39  1  0  0  0  0
 25 77  1  0  0  0  0
 26 28  1  0  0  0  0
 26 78  1  0  0  0  0
 26 79  1  0  0  0  0
 27 29  1  0  0  0  0
 27 34  1  0  0  0  0
 27 42  1  0  0  0  0
 27 80  1  0  0  0  0
 28 29  1  0  0  0  0
 28 81  1  0  0  0  0
 28 82  1  0  0  0  0
 29 83  1  0  0  0  0
 29 84  1  0  0  0  0
 31 43  1  0  0  0  0
 32 35  1  0  0  0  0
 32 85  1  0  0  0  0
 32 86  1  0  0  0  0
 33 41  1  0  0  0  0
 34 40  1  0  0  0  0
 34 87  1  0  0  0  0
 34 88  1  0  0  0  0
 35 38  1  0  0  0  0
 35 89  1  0  0  0  0
 35 90  1  0  0  0  0
 37 91  1  0  0  0  0
 37 92  1  0  0  0  0
 37 93  1  0  0  0  0
 38 44  1  0  0  0  0
 38 94  1  0  0  0  0
 38 95  1  0  0  0  0
 39 96  1  0  0  0  0
 39 97  1  0  0  0  0
 39 98  1  0  0  0  0
 40 47  1  0  0  0  0
 40 99  1  0  0  0  0
 40100  1  0  0  0  0
 41 46  2  0  0  0  0
 41 50  1  0  0  0  0
 42101  1  0  0  0  0
 42102  1  0  0  0  0
 42103  1  0  0  0  0
 43 48  2  0  0  0  0
 43104  1  0  0  0  0
 44 56  1  0  0  0  0
 44 57  1  0  0  0  0
 44106  1  0  0  0  0
 45 46  1  0  0  0  0
 45 51  2  0  0  0  0
 46 59  1  0  0  0  0
 47 52  1  0  0  0  0
 47107  1  0  0  0  0
 47108  1  0  0  0  0
 48 49  1  0  0  0  0
 49 55  2  0  0  0  0
 49 61  1  0  0  0  0
 50109  1  0  0  0  0
 50110  1  0  0  0  0
 50111  1  0  0  0  0
 51 53  1  0  0  0  0
 51112  1  0  0  0  0
 52 58  2  0  0  0  0
 52 62  1  0  0  0  0
 53 55  1  0  0  0  0
 54 58  1  0  0  0  0
 54113  1  0  0  0  0
 54114  1  0  0  0  0
 55 63  1  0  0  0  0
 56115  1  0  0  0  0
 56116  1  0  0  0  0
 56117  1  0  0  0  0
 57118  1  0  0  0  0
 57119  1  0  0  0  0
 57120  1  0  0  0  0
 58121  1  0  0  0  0
 59 65  2  0  0  0  0
 59122  1  0  0  0  0
 60123  1  0  0  0  0
 60124  1  0  0  0  0
 60125  1  0  0  0  0
 61 64  1  0  0  0  0
 61126  1  0  0  0  0
 61127  1  0  0  0  0
 62128  1  0  0  0  0
 62129  1  0  0  0  0
 62130  1  0  0  0  0
 63131  1  0  0  0  0
 63132  1  0  0  0  0
 63133  1  0  0  0  0
 64134  1  0  0  0  0
 64135  1  0  0  0  0
 64136  1  0  0  0  0
 65137  1  0  0  0  0
 65138  1  0  0  0  0
M  CHG  2   1   2   2  -1
M  END
>  <PUBCHEM_COMPOUND_CID>
131752401

>  <PUBCHEM_COMPOUND_CANONICALIZED>
1

>  <PUBCHEM_CACTVS_COMPLEXITY>
2300

>  <PUBCHEM_CACTVS_HBOND_ACCEPTOR>
9

>  <PUBCHEM_CACTVS_HBOND_DONOR>
1

>  <PUBCHEM_CACTVS_ROTATABLE_BOND>
22

>  <PUBCHEM_CACTVS_SUBSKEYS>
AAADcfB/uAAAACAAAAAAAAAAAAAAAQIECBAAAAAAAAAAAAAAAAAAHgAQAAAADQyhgAICCALABACoAyTyTACAAAAgIgAICAEwABgIBBYAoQAGEAAF4ACIoAOY2fCOgAAAAAAAAAAAAAAAAAAAAAAAAAAAAA==

>  <PUBCHEM_IUPAC_INCHI>
InChI=1S/C55H74N4O5.Mg/c1-13-39-35(8)42-28-44-37(10)41(24-25-48(60)64-27-26-34(7)23-17-22-33(6)21-16-20-32(5)19-15-18-31(3)4)52(58-44)50-51(55(62)63-12)54(61)49-38(11)45(59-53(49)50)30-47-40(14-2)36(9)43(57-47)29-46(39)56-42;/h13,26,28-33,37,41,51,56,61H,1,14-25,27H2,2-12H3;/q;+2/p-1/b34-26-,42-28?,46-29?,47-30?,52-50?;

>  <PUBCHEM_IUPAC_INCHIKEY>
UGIXQLWJTHZKPD-GHMGUTDGSA-M

>  <PUBCHEM_EXACT_MASS>
893.543

>  <PUBCHEM_MOLECULAR_FORMULA>
C55H73MgN4O5+

>  <PUBCHEM_MOLECULAR_WEIGHT>
894.517

>  <PUBCHEM_OPENEYE_CAN_SMILES>
CCC1=C(C2=NC1=CC3=C(C4=C(C(C(=C5C(C(C(=N5)C=C6C(=C(C(=C2)N6)C=C)C)C)CCC(=O)OCC=C(C)CCCC(C)CCCC(C)CCCC(C)C)C4=N3)C(=O)OC)[O-])C)C.[Mg+2]

>  <PUBCHEM_OPENEYE_ISO_SMILES>
CCC1=C(C2=NC1=CC3=C(C4=C(C(C(=C5C(C(C(=N5)C=C6C(=C(C(=C2)N6)C=C)C)C)CCC(=O)OC/C=C(/C)\CCCC(C)CCCC(C)CCCC(C)C)C4=N3)C(=O)OC)[O-])C)C.[Mg+2]

>  <PUBCHEM_CACTVS_TPSA>
125

>  <PUBCHEM_MONOISOTOPIC_WEIGHT>
893.543

>  <PUBCHEM_TOTAL_CHARGE>
1

>  <PUBCHEM_HEAVY_ATOM_COUNT>
65

>  <PUBCHEM_ATOM_DEF_STEREO_COUNT>
0

>  <PUBCHEM_ATOM_UDEF_STEREO_COUNT>
5

>  <PUBCHEM_BOND_DEF_STEREO_COUNT>
1

>  <PUBCHEM_BOND_UDEF_STEREO_COUNT>
0

>  <PUBCHEM_ISOTOPIC_ATOM_COUNT>
0

>  <PUBCHEM_COMPONENT_COUNT>
2

>  <PUBCHEM_CACTVS_TAUTO_COUNT>
1001

>  <PUBCHEM_COORDINATE_TYPE>
1
5
255

>  <PUBCHEM_BONDANNOTATIONS>
10  48  8
10  53  8
11  14  3
12  19  3
13  15  8
15  18  8
16  23  8
17  30  3
18  20  8
20  24  8
23  33  8
24  31  8
25  39  3
27  42  3
31  43  8
33  41  8
41  46  8
43  48  8
45  46  8
45  51  8
48  49  8
49  55  8
51  53  8
53  55  8
7  13  8
7  16  8
8  18  8
8  31  8
9  33  8
9  45  8

$$$$
