131752387
 OpenBabel06101807152D

 38 37  0  0  1  0  0  0  0  0999 V2000
    3.7320   -0.1550    0.0000 S   0  0  0  0  0  0  0  0  0  0  0  0
    3.7320   -1.1550    0.0000 S   0  0  0  0  0  0  0  0  0  0  0  0
    6.3301    0.3450    0.0000 O   0  0  0  0  0  0  0  0  0  0  0  0
   10.6603    1.8450    0.0000 O   0  0  0  0  0  0  0  0  0  0  0  0
    2.8660    1.3450    0.0000 O   0  0  0  0  0  0  0  0  0  0  0  0
    9.7942    0.3450    0.0000 O   0  0  0  0  0  0  0  0  0  0  0  0
    3.7320    2.8450    0.0000 O   0  0  0  0  0  0  0  0  0  0  0  0
    5.4641    1.8450    0.0000 N   0  0  0  0  0  0  0  0  0  0  0  0
    8.9282    2.8450    0.0000 N   0  0  0  0  0  0  0  0  0  0  0  0
    8.0622    1.3450    0.0000 C   0  0  0  0  0  0  0  0  0  0  0  0
    7.1962    1.8450    0.0000 C   0  0  0  0  0  0  0  0  0  0  0  0
    8.9282    1.8450    0.0000 C   0  0  3  0  0  0  0  0  0  0  0  0
    4.5981    1.3450    0.0000 C   0  0  3  0  0  0  0  0  0  0  0  0
    6.3301    1.3450    0.0000 C   0  0  0  0  0  0  0  0  0  0  0  0
    4.5981    0.3450    0.0000 C   0  0  0  0  0  0  0  0  0  0  0  0
    9.7942    1.3450    0.0000 C   0  0  0  0  0  0  0  0  0  0  0  0
    3.7320    1.8450    0.0000 C   0  0  0  0  0  0  0  0  0  0  0  0
    2.8660   -1.6550    0.0000 C   0  0  0  0  0  0  0  0  0  0  0  0
    2.8660   -2.6550    0.0000 C   0  0  0  0  0  0  0  0  0  0  0  0
    2.0000   -3.1550    0.0000 C   0  0  0  0  0  0  0  0  0  0  0  0
    7.6636    0.8701    0.0000 H   0  0  0  0  0  0  0  0  0  0  0  0
    8.4607    0.8701    0.0000 H   0  0  0  0  0  0  0  0  0  0  0  0
    7.5947    2.3200    0.0000 H   0  0  0  0  0  0  0  0  0  0  0  0
    6.7976    2.3200    0.0000 H   0  0  0  0  0  0  0  0  0  0  0  0
    9.4651    2.1550    0.0000 H   0  0  0  0  0  0  0  0  0  0  0  0
    4.5981    1.9650    0.0000 H   0  0  0  0  0  0  0  0  0  0  0  0
    5.4641    2.4650    0.0000 H   0  0  0  0  0  0  0  0  0  0  0  0
    4.8101   -0.2376    0.0000 H   0  0  0  0  0  0  0  0  0  0  0  0
    5.2087    0.4527    0.0000 H   0  0  0  0  0  0  0  0  0  0  0  0
    9.4651    3.1550    0.0000 H   0  0  0  0  0  0  0  0  0  0  0  0
    8.3913    3.1550    0.0000 H   0  0  0  0  0  0  0  0  0  0  0  0
   11.1972    1.5350    0.0000 H   0  0  0  0  0  0  0  0  0  0  0  0
    2.3291    1.6550    0.0000 H   0  0  0  0  0  0  0  0  0  0  0  0
    2.6540   -1.0724    0.0000 H   0  0  0  0  0  0  0  0  0  0  0  0
    2.2554   -1.7627    0.0000 H   0  0  0  0  0  0  0  0  0  0  0  0
    3.4030   -2.9650    0.0000 H   0  0  0  0  0  0  0  0  0  0  0  0
    1.4631   -2.8450    0.0000 H   0  0  0  0  0  0  0  0  0  0  0  0
    2.0000   -3.7750    0.0000 H   0  0  0  0  0  0  0  0  0  0  0  0
  1  2  1  0  0  0  0
  1 15  1  0  0  0  0
  2 18  1  0  0  0  0
  3 14  2  0  0  0  0
  4 16  1  0  0  0  0
  4 32  1  0  0  0  0
  5 17  1  0  0  0  0
  5 33  1  0  0  0  0
  6 16  2  0  0  0  0
  7 17  2  0  0  0  0
  8 13  1  0  0  0  0
  8 14  1  0  0  0  0
  8 27  1  0  0  0  0
  9 12  1  0  0  0  0
  9 30  1  0  0  0  0
  9 31  1  0  0  0  0
 10 11  1  0  0  0  0
 10 12  1  0  0  0  0
 10 21  1  0  0  0  0
 10 22  1  0  0  0  0
 11 14  1  0  0  0  0
 11 23  1  0  0  0  0
 11 24  1  0  0  0  0
 12 16  1  0  0  0  0
 12 25  1  0  0  0  0
 13 15  1  0  0  0  0
 13 17  1  0  0  0  0
 13 26  1  0  0  0  0
 15 28  1  0  0  0  0
 15 29  1  0  0  0  0
 18 19  1  0  0  0  0
 18 34  1  0  0  0  0
 18 35  1  0  0  0  0
 19 20  2  0  0  0  0
 19 36  1  0  0  0  0
 20 37  1  0  0  0  0
 20 38  1  0  0  0  0
M  END
>  <PUBCHEM_COMPOUND_CID>
131752387

>  <PUBCHEM_COMPOUND_CANONICALIZED>
1

>  <PUBCHEM_CACTVS_COMPLEXITY>
365

>  <PUBCHEM_CACTVS_HBOND_ACCEPTOR>
8

>  <PUBCHEM_CACTVS_HBOND_DONOR>
4

>  <PUBCHEM_CACTVS_ROTATABLE_BOND>
11

>  <PUBCHEM_CACTVS_SUBSKEYS>
AAADceBzOABgAAAAAAAAAAAAAAAAAAAAAAAAAAAAAAAAAAAAAAAAHgQQCAAACCjFwASACALAAgCIACHSGAAAAAAAAAAIAIGIAAACABIAgSAEQAAEFgCQAACcFwIAAAAAAAAAAAAAAAAAAAAAAAAAAAAAAA==

>  <PUBCHEM_IUPAC_OPENEYE_NAME>
5-[[2-(allyldisulfanyl)-1-carboxy-ethyl]amino]-2-amino-5-oxo-pentanoic acid

>  <PUBCHEM_IUPAC_CAS_NAME>
2-amino-5-[[1-carboxy-2-(prop-2-enyldisulfanyl)ethyl]amino]-5-oxopentanoic acid

>  <PUBCHEM_IUPAC_NAME>
2-amino-5-[[1-carboxy-2-(prop-2-enyldisulfanyl)ethyl]amino]-5-oxopentanoic acid

>  <PUBCHEM_IUPAC_SYSTEMATIC_NAME>
2-azanyl-5-oxidanylidene-5-[[1-oxidanyl-1-oxidanylidene-3-(prop-2-enyldisulfanyl)propan-2-yl]amino]pentanoic acid

>  <PUBCHEM_IUPAC_TRADITIONAL_NAME>
5-[[2-(allyldisulfanyl)-1-carboxy-ethyl]amino]-2-amino-5-keto-valeric acid

>  <PUBCHEM_IUPAC_INCHI>
InChI=1S/C11H18N2O5S2/c1-2-5-19-20-6-8(11(17)18)13-9(14)4-3-7(12)10(15)16/h2,7-8H,1,3-6,12H2,(H,13,14)(H,15,16)(H,17,18)

>  <PUBCHEM_IUPAC_INCHIKEY>
VTEHWEWRSAXLHY-UHFFFAOYSA-N

>  <PUBCHEM_EXACT_MASS>
322.066

>  <PUBCHEM_MOLECULAR_FORMULA>
C11H18N2O5S2

>  <PUBCHEM_MOLECULAR_WEIGHT>
322.394

>  <PUBCHEM_OPENEYE_CAN_SMILES>
C=CCSSCC(C(=O)O)NC(=O)CCC(C(=O)O)N

>  <PUBCHEM_OPENEYE_ISO_SMILES>
C=CCSSCC(C(=O)O)NC(=O)CCC(C(=O)O)N

>  <PUBCHEM_CACTVS_TPSA>
180

>  <PUBCHEM_MONOISOTOPIC_WEIGHT>
322.066

>  <PUBCHEM_TOTAL_CHARGE>
0

>  <PUBCHEM_HEAVY_ATOM_COUNT>
20

>  <PUBCHEM_ATOM_DEF_STEREO_COUNT>
0

>  <PUBCHEM_ATOM_UDEF_STEREO_COUNT>
2

>  <PUBCHEM_BOND_DEF_STEREO_COUNT>
0

>  <PUBCHEM_BOND_UDEF_STEREO_COUNT>
0

>  <PUBCHEM_ISOTOPIC_ATOM_COUNT>
0

>  <PUBCHEM_COMPONENT_COUNT>
1

>  <PUBCHEM_CACTVS_TAUTO_COUNT>
2

>  <PUBCHEM_COORDINATE_TYPE>
1
5
255

>  <PUBCHEM_BONDANNOTATIONS>
13  17  3
12  9  3

$$$$
