131750937
 OpenBabel06101807152D

202207  0  0  1  0  0  0  0  0999 V2000
   13.2583   -0.5396    0.0000 O   0  0  0  0  0  0  0  0  0  0  0  0
   12.3703    2.0263    0.0000 O   0  0  0  0  0  0  0  0  0  0  0  0
   11.5263   -0.5396    0.0000 O   0  0  0  0  0  0  0  0  0  0  0  0
   13.2861    3.5296    0.0000 O   0  0  0  0  0  0  0  0  0  0  0  0
    9.7942   -2.5396    0.0000 O   0  0  0  0  0  0  0  0  0  0  0  0
   11.5340    5.5710    0.0000 O   0  0  0  0  0  0  0  0  0  0  0  0
   15.0143    2.5229    0.0000 O   0  0  0  0  0  0  0  0  0  0  0  0
   13.2583   -2.5396    0.0000 O   0  0  0  0  0  0  0  0  0  0  0  0
   15.0282    0.4914    0.0000 O   0  0  0  0  0  0  0  0  0  0  0  0
    8.9282   -1.0396    0.0000 O   0  0  0  0  0  0  0  0  0  0  0  0
   13.2938    5.5296    0.0000 O   0  0  0  0  0  0  0  0  0  0  0  0
   11.5263   -3.5396    0.0000 O   0  0  0  0  0  0  0  0  0  0  0  0
   11.5337    2.5018    0.0000 O   0  0  0  0  0  0  0  0  0  0  0  0
    8.0622   -3.5396    0.0000 O   0  0  0  0  0  0  0  0  0  0  0  0
    9.7559    3.5191    0.0000 O   0  0  0  0  0  0  0  0  0  0  0  0
    6.3301   -0.5396    0.0000 O   0  0  0  0  0  0  0  0  0  0  0  0
    6.3301   -2.5396    0.0000 O   0  0  0  0  0  0  0  0  0  0  0  0
   15.8745    1.0196    0.0000 O   0  0  0  0  0  0  0  0  0  0  0  0
   12.3923   -4.0396    0.0000 O   0  0  0  0  0  0  0  0  0  0  0  0
    7.1962    0.9604    0.0000 O   0  0  0  0  0  0  0  0  0  0  0  0
    6.3301   -3.5396    0.0000 O   0  0  0  0  0  0  0  0  0  0  0  0
   13.2583    0.4604    0.0000 C   0  0  3  0  0  0  0  0  0  0  0  0
   14.1584    0.9847    0.0000 C   0  0  3  0  0  0  0  0  0  0  0  0
   10.6603   -2.0396    0.0000 C   0  0  3  0  0  0  0  0  0  0  0  0
   14.1463    2.0263    0.0000 C   0  0  3  0  0  0  0  0  0  0  0  0
   12.3923   -1.0396    0.0000 C   0  0  3  0  0  0  0  0  0  0  0  0
   12.3923   -2.0396    0.0000 C   0  0  3  0  0  0  0  0  0  0  0  0
   11.5263   -2.5396    0.0000 C   0  0  3  0  0  0  0  0  0  0  0  0
   12.3583    0.9847    0.0000 C   0  0  3  0  0  0  0  0  0  0  0  0
   13.2823    2.5296    0.0000 C   0  0  3  0  0  0  0  0  0  0  0  0
   10.6603   -1.0396    0.0000 C   0  0  3  0  0  0  0  0  0  0  0  0
   12.4220    4.0329    0.0000 C   0  0  3  0  0  0  0  0  0  0  0  0
   11.5260    3.5017    0.0000 C   0  0  3  0  0  0  0  0  0  0  0  0
   12.4259    5.0329    0.0000 C   0  0  3  0  0  0  0  0  0  0  0  0
    8.9282   -2.0396    0.0000 C   0  0  3  0  0  0  0  0  0  0  0  0
   10.6219    4.0191    0.0000 C   0  0  3  0  0  0  0  0  0  0  0  0
    8.0622   -2.5396    0.0000 C   0  0  3  0  0  0  0  0  0  0  0  0
   10.6260    5.0607    0.0000 C   0  0  3  0  0  0  0  0  0  0  0  0
    7.1962   -2.0396    0.0000 C   0  0  3  0  0  0  0  0  0  0  0  0
   11.4884    0.4914    0.0000 C   0  0  0  0  0  0  0  0  0  0  0  0
    7.1962   -1.0396    0.0000 C   0  0  3  0  0  0  0  0  0  0  0  0
    8.0622   -0.5396    0.0000 C   0  0  3  0  0  0  0  0  0  0  0  0
    9.7942   -0.5396    0.0000 C   0  0  0  0  0  0  0  0  0  0  0  0
   13.2977    6.5296    0.0000 C   0  0  3  0  0  0  0  0  0  0  0  0
    9.7638    5.5674    0.0000 C   0  0  0  0  0  0  0  0  0  0  0  0
   14.1656    7.0262    0.0000 C   0  0  0  0  0  0  0  0  0  0  0  0
   12.4336    7.0329    0.0000 C   0  0  0  0  0  0  0  0  0  0  0  0
    8.0622    0.4604    0.0000 C   0  0  0  0  0  0  0  0  0  0  0  0
   15.8784    2.0196    0.0000 C   0  0  0  0  0  0  0  0  0  0  0  0
   13.2583   -3.5396    0.0000 C   0  0  0  0  0  0  0  0  0  0  0  0
   15.0297    6.5229    0.0000 C   0  0  0  0  0  0  0  0  0  0  0  0
   12.4374    8.0329    0.0000 C   0  0  0  0  0  0  0  0  0  0  0  0
   16.7463    2.5163    0.0000 C   0  0  0  0  0  0  0  0  0  0  0  0
   15.8977    7.0196    0.0000 C   0  0  0  0  0  0  0  0  0  0  0  0
   14.1244   -4.0396    0.0000 C   0  0  0  0  0  0  0  0  0  0  0  0
   16.7502    3.5162    0.0000 C   0  0  0  0  0  0  0  0  0  0  0  0
   16.7618    6.5162    0.0000 C   0  0  0  0  0  0  0  0  0  0  0  0
   11.5733    8.5362    0.0000 C   0  0  0  0  0  0  0  0  0  0  0  0
   17.6181    4.0129    0.0000 C   0  0  0  0  0  0  0  0  0  0  0  0
   16.7579    5.5162    0.0000 C   0  0  0  0  0  0  0  0  0  0  0  0
   17.6220    5.0129    0.0000 C   0  0  0  0  0  0  0  0  0  0  0  0
    6.3301    0.4604    0.0000 C   0  0  0  0  0  0  0  0  0  0  0  0
   14.1244   -5.0396    0.0000 C   0  0  0  0  0  0  0  0  0  0  0  0
    7.1962   -4.0396    0.0000 C   0  0  0  0  0  0  0  0  0  0  0  0
    5.4641    0.9604    0.0000 C   0  0  0  0  0  0  0  0  0  0  0  0
   14.9904   -5.5396    0.0000 C   0  0  0  0  0  0  0  0  0  0  0  0
   11.5772    9.5362    0.0000 C   0  0  0  0  0  0  0  0  0  0  0  0
    5.4641    1.9604    0.0000 C   0  0  0  0  0  0  0  0  0  0  0  0
   14.9904   -6.5396    0.0000 C   0  0  0  0  0  0  0  0  0  0  0  0
    7.1962   -5.0396    0.0000 C   0  0  0  0  0  0  0  0  0  0  0  0
   10.7131   10.0396    0.0000 C   0  0  0  0  0  0  0  0  0  0  0  0
    4.5981    2.4604    0.0000 C   0  0  0  0  0  0  0  0  0  0  0  0
   15.8564   -7.0396    0.0000 C   0  0  0  0  0  0  0  0  0  0  0  0
    4.5981    3.4604    0.0000 C   0  0  0  0  0  0  0  0  0  0  0  0
   15.8564   -8.0396    0.0000 C   0  0  0  0  0  0  0  0  0  0  0  0
    6.3301   -5.5396    0.0000 C   0  0  0  0  0  0  0  0  0  0  0  0
    3.7320    3.9604    0.0000 C   0  0  0  0  0  0  0  0  0  0  0  0
   16.7224   -8.5396    0.0000 C   0  0  0  0  0  0  0  0  0  0  0  0
    3.7320    4.9604    0.0000 C   0  0  0  0  0  0  0  0  0  0  0  0
    6.3301   -6.5396    0.0000 C   0  0  0  0  0  0  0  0  0  0  0  0
   16.7224   -9.5396    0.0000 C   0  0  0  0  0  0  0  0  0  0  0  0
    2.8660    5.4604    0.0000 C   0  0  0  0  0  0  0  0  0  0  0  0
    7.1962   -7.0396    0.0000 C   0  0  0  0  0  0  0  0  0  0  0  0
    5.4641   -7.0396    0.0000 C   0  0  0  0  0  0  0  0  0  0  0  0
    2.8660    6.4604    0.0000 C   0  0  0  0  0  0  0  0  0  0  0  0
   17.5885  -10.0396    0.0000 C   0  0  0  0  0  0  0  0  0  0  0  0
    7.1962   -8.0396    0.0000 C   0  0  0  0  0  0  0  0  0  0  0  0
    5.4641   -8.0396    0.0000 C   0  0  0  0  0  0  0  0  0  0  0  0
    2.0000    6.9604    0.0000 C   0  0  0  0  0  0  0  0  0  0  0  0
    6.3301   -8.5396    0.0000 C   0  0  0  0  0  0  0  0  0  0  0  0
   13.7959    0.1515    0.0000 H   0  0  0  0  0  0  0  0  0  0  0  0
   14.6923    1.2999    0.0000 H   0  0  0  0  0  0  0  0  0  0  0  0
   10.6603   -2.6596    0.0000 H   0  0  0  0  0  0  0  0  0  0  0  0
   14.6845    1.7184    0.0000 H   0  0  0  0  0  0  0  0  0  0  0  0
   12.9292   -1.3496    0.0000 H   0  0  0  0  0  0  0  0  0  0  0  0
   12.3923   -2.6596    0.0000 H   0  0  0  0  0  0  0  0  0  0  0  0
   12.0632   -2.8496    0.0000 H   0  0  0  0  0  0  0  0  0  0  0  0
   11.8243    1.2999    0.0000 H   0  0  0  0  0  0  0  0  0  0  0  0
   12.7489    2.8458    0.0000 H   0  0  0  0  0  0  0  0  0  0  0  0
   10.6603   -0.4196    0.0000 H   0  0  0  0  0  0  0  0  0  0  0  0
   12.4244    3.4129    0.0000 H   0  0  0  0  0  0  0  0  0  0  0  0
   10.9909    3.1886    0.0000 H   0  0  0  0  0  0  0  0  0  0  0  0
   12.4330    5.6529    0.0000 H   0  0  0  0  0  0  0  0  0  0  0  0
    8.9282   -2.6596    0.0000 H   0  0  0  0  0  0  0  0  0  0  0  0
   10.6231    3.3991    0.0000 H   0  0  0  0  0  0  0  0  0  0  0  0
    7.5252   -2.8496    0.0000 H   0  0  0  0  0  0  0  0  0  0  0  0
   10.6319    5.6807    0.0000 H   0  0  0  0  0  0  0  0  0  0  0  0
    7.7331   -1.7296    0.0000 H   0  0  0  0  0  0  0  0  0  0  0  0
   11.1826    1.0307    0.0000 H   0  0  0  0  0  0  0  0  0  0  0  0
   10.9491    0.1856    0.0000 H   0  0  0  0  0  0  0  0  0  0  0  0
   11.7943   -0.0479    0.0000 H   0  0  0  0  0  0  0  0  0  0  0  0
    6.6592   -1.3496    0.0000 H   0  0  0  0  0  0  0  0  0  0  0  0
    8.5991   -0.2296    0.0000 H   0  0  0  0  0  0  0  0  0  0  0  0
   10.1042   -0.0026    0.0000 H   0  0  0  0  0  0  0  0  0  0  0  0
    9.2573   -0.2296    0.0000 H   0  0  0  0  0  0  0  0  0  0  0  0
    9.4842   -1.0765    0.0000 H   0  0  0  0  0  0  0  0  0  0  0  0
   15.0330   -0.1286    0.0000 H   0  0  0  0  0  0  0  0  0  0  0  0
   12.7596    6.2216    0.0000 H   0  0  0  0  0  0  0  0  0  0  0  0
   10.9893   -3.8496    0.0000 H   0  0  0  0  0  0  0  0  0  0  0  0
   10.0779    6.1019    0.0000 H   0  0  0  0  0  0  0  0  0  0  0  0
    9.2293    5.8815    0.0000 H   0  0  0  0  0  0  0  0  0  0  0  0
    9.4497    5.0328    0.0000 H   0  0  0  0  0  0  0  0  0  0  0  0
   14.5660    7.4996    0.0000 H   0  0  0  0  0  0  0  0  0  0  0  0
   13.7689    7.5027    0.0000 H   0  0  0  0  0  0  0  0  0  0  0  0
   11.8234    7.1429    0.0000 H   0  0  0  0  0  0  0  0  0  0  0  0
   12.2193    6.4511    0.0000 H   0  0  0  0  0  0  0  0  0  0  0  0
   10.9992    2.1876    0.0000 H   0  0  0  0  0  0  0  0  0  0  0  0
    8.6822    0.4604    0.0000 H   0  0  0  0  0  0  0  0  0  0  0  0
    8.0622    1.0804    0.0000 H   0  0  0  0  0  0  0  0  0  0  0  0
    7.4422    0.4604    0.0000 H   0  0  0  0  0  0  0  0  0  0  0  0
    9.2190    3.8291    0.0000 H   0  0  0  0  0  0  0  0  0  0  0  0
   14.6294    6.0495    0.0000 H   0  0  0  0  0  0  0  0  0  0  0  0
   15.4264    6.0464    0.0000 H   0  0  0  0  0  0  0  0  0  0  0  0
    5.7932   -2.2296    0.0000 H   0  0  0  0  0  0  0  0  0  0  0  0
   13.0476    7.9229    0.0000 H   0  0  0  0  0  0  0  0  0  0  0  0
   12.6517    8.6147    0.0000 H   0  0  0  0  0  0  0  0  0  0  0  0
   16.9561    1.9328    0.0000 H   0  0  0  0  0  0  0  0  0  0  0  0
   17.3573    2.6216    0.0000 H   0  0  0  0  0  0  0  0  0  0  0  0
   16.2980    7.4930    0.0000 H   0  0  0  0  0  0  0  0  0  0  0  0
   15.5010    7.4960    0.0000 H   0  0  0  0  0  0  0  0  0  0  0  0
   14.7349   -4.1472    0.0000 H   0  0  0  0  0  0  0  0  0  0  0  0
   14.3364   -3.4570    0.0000 H   0  0  0  0  0  0  0  0  0  0  0  0
   16.5404    4.0997    0.0000 H   0  0  0  0  0  0  0  0  0  0  0  0
   16.1392    3.4110    0.0000 H   0  0  0  0  0  0  0  0  0  0  0  0
   17.3719    6.4062    0.0000 H   0  0  0  0  0  0  0  0  0  0  0  0
   16.9760    7.0980    0.0000 H   0  0  0  0  0  0  0  0  0  0  0  0
   10.9632    8.6463    0.0000 H   0  0  0  0  0  0  0  0  0  0  0  0
   11.3591    7.9545    0.0000 H   0  0  0  0  0  0  0  0  0  0  0  0
   17.8279    3.4295    0.0000 H   0  0  0  0  0  0  0  0  0  0  0  0
   18.2291    4.1182    0.0000 H   0  0  0  0  0  0  0  0  0  0  0  0
   16.1477    5.6262    0.0000 H   0  0  0  0  0  0  0  0  0  0  0  0
   16.5436    4.9344    0.0000 H   0  0  0  0  0  0  0  0  0  0  0  0
   18.2322    4.9029    0.0000 H   0  0  0  0  0  0  0  0  0  0  0  0
   17.8363    5.5947    0.0000 H   0  0  0  0  0  0  0  0  0  0  0  0
   13.5138   -4.9319    0.0000 H   0  0  0  0  0  0  0  0  0  0  0  0
   13.9123   -5.6222    0.0000 H   0  0  0  0  0  0  0  0  0  0  0  0
    4.8535    1.0681    0.0000 H   0  0  0  0  0  0  0  0  0  0  0  0
    5.2520    0.3778    0.0000 H   0  0  0  0  0  0  0  0  0  0  0  0
   15.6010   -5.6472    0.0000 H   0  0  0  0  0  0  0  0  0  0  0  0
   15.2024   -4.9570    0.0000 H   0  0  0  0  0  0  0  0  0  0  0  0
   12.1874    9.4262    0.0000 H   0  0  0  0  0  0  0  0  0  0  0  0
   11.7915   10.1180    0.0000 H   0  0  0  0  0  0  0  0  0  0  0  0
    6.0747    1.8528    0.0000 H   0  0  0  0  0  0  0  0  0  0  0  0
    5.6762    2.5430    0.0000 H   0  0  0  0  0  0  0  0  0  0  0  0
   14.3798   -6.4319    0.0000 H   0  0  0  0  0  0  0  0  0  0  0  0
   14.7783   -7.1222    0.0000 H   0  0  0  0  0  0  0  0  0  0  0  0
    7.7331   -5.3496    0.0000 H   0  0  0  0  0  0  0  0  0  0  0  0
   11.0252   10.5753    0.0000 H   0  0  0  0  0  0  0  0  0  0  0  0
   10.1774   10.3516    0.0000 H   0  0  0  0  0  0  0  0  0  0  0  0
   10.4010    9.5038    0.0000 H   0  0  0  0  0  0  0  0  0  0  0  0
    3.9875    2.5681    0.0000 H   0  0  0  0  0  0  0  0  0  0  0  0
    4.3860    1.8778    0.0000 H   0  0  0  0  0  0  0  0  0  0  0  0
   16.4670   -7.1472    0.0000 H   0  0  0  0  0  0  0  0  0  0  0  0
   16.0685   -6.4570    0.0000 H   0  0  0  0  0  0  0  0  0  0  0  0
    5.2087    3.3528    0.0000 H   0  0  0  0  0  0  0  0  0  0  0  0
    4.8101    4.0430    0.0000 H   0  0  0  0  0  0  0  0  0  0  0  0
   15.2458   -7.9319    0.0000 H   0  0  0  0  0  0  0  0  0  0  0  0
   15.6444   -8.6222    0.0000 H   0  0  0  0  0  0  0  0  0  0  0  0
    5.7932   -5.2296    0.0000 H   0  0  0  0  0  0  0  0  0  0  0  0
    3.1215    4.0681    0.0000 H   0  0  0  0  0  0  0  0  0  0  0  0
    3.5200    3.3778    0.0000 H   0  0  0  0  0  0  0  0  0  0  0  0
   17.3330   -8.6472    0.0000 H   0  0  0  0  0  0  0  0  0  0  0  0
   16.9345   -7.9570    0.0000 H   0  0  0  0  0  0  0  0  0  0  0  0
    4.3426    4.8528    0.0000 H   0  0  0  0  0  0  0  0  0  0  0  0
    3.9441    5.5430    0.0000 H   0  0  0  0  0  0  0  0  0  0  0  0
   16.1119   -9.4319    0.0000 H   0  0  0  0  0  0  0  0  0  0  0  0
   16.5104  -10.1222    0.0000 H   0  0  0  0  0  0  0  0  0  0  0  0
    2.2554    5.5681    0.0000 H   0  0  0  0  0  0  0  0  0  0  0  0
    2.6540    4.8778    0.0000 H   0  0  0  0  0  0  0  0  0  0  0  0
    7.7331   -6.7296    0.0000 H   0  0  0  0  0  0  0  0  0  0  0  0
    4.9272   -6.7296    0.0000 H   0  0  0  0  0  0  0  0  0  0  0  0
    3.4766    6.3528    0.0000 H   0  0  0  0  0  0  0  0  0  0  0  0
    3.0781    7.0430    0.0000 H   0  0  0  0  0  0  0  0  0  0  0  0
   17.2785  -10.5765    0.0000 H   0  0  0  0  0  0  0  0  0  0  0  0
   18.1254  -10.3496    0.0000 H   0  0  0  0  0  0  0  0  0  0  0  0
   17.8985   -9.5026    0.0000 H   0  0  0  0  0  0  0  0  0  0  0  0
    7.7331   -8.3496    0.0000 H   0  0  0  0  0  0  0  0  0  0  0  0
    4.9272   -8.3496    0.0000 H   0  0  0  0  0  0  0  0  0  0  0  0
    2.3100    7.4974    0.0000 H   0  0  0  0  0  0  0  0  0  0  0  0
    1.4631    7.2704    0.0000 H   0  0  0  0  0  0  0  0  0  0  0  0
    1.6900    6.4235    0.0000 H   0  0  0  0  0  0  0  0  0  0  0  0
    6.3301   -9.1596    0.0000 H   0  0  0  0  0  0  0  0  0  0  0  0
  1 22  1  0  0  0  0
  1 26  1  0  0  0  0
  2 29  1  0  0  0  0
  2 30  1  0  0  0  0
  3 26  1  0  0  0  0
  3 31  1  0  0  0  0
  4 30  1  0  0  0  0
  4 32  1  0  0  0  0
  5 24  1  0  0  0  0
  5 35  1  0  0  0  0
  6 34  1  0  0  0  0
  6 38  1  0  0  0  0
  7 25  1  0  0  0  0
  7 49  1  0  0  0  0
  8 27  1  0  0  0  0
  8 50  1  0  0  0  0
  9 23  1  0  0  0  0
  9117  1  0  0  0  0
 10 35  1  0  0  0  0
 10 42  1  0  0  0  0
 11 34  1  0  0  0  0
 11 44  1  0  0  0  0
 12 28  1  0  0  0  0
 12119  1  0  0  0  0
 13 33  1  0  0  0  0
 13127  1  0  0  0  0
 14 37  1  0  0  0  0
 14 64  1  0  0  0  0
 15 36  1  0  0  0  0
 15131  1  0  0  0  0
 16 41  1  0  0  0  0
 16 62  1  0  0  0  0
 17 39  1  0  0  0  0
 17134  1  0  0  0  0
 18 49  2  0  0  0  0
 19 50  2  0  0  0  0
 20 62  2  0  0  0  0
 21 64  2  0  0  0  0
 22 23  1  0  0  0  0
 22 29  1  0  0  0  0
 22 91  1  0  0  0  0
 23 25  1  0  0  0  0
 23 92  1  0  0  0  0
 24 28  1  0  0  0  0
 24 31  1  0  0  0  0
 24 93  1  0  0  0  0
 25 30  1  0  0  0  0
 25 94  1  0  0  0  0
 26 27  1  0  0  0  0
 26 95  1  0  0  0  0
 27 28  1  0  0  0  0
 27 96  1  0  0  0  0
 28 97  1  0  0  0  0
 29 40  1  0  0  0  0
 29 98  1  0  0  0  0
 30 99  1  0  0  0  0
 31 43  1  0  0  0  0
 31100  1  0  0  0  0
 32 33  1  0  0  0  0
 32 34  1  0  0  0  0
 32101  1  0  0  0  0
 33 36  1  0  0  0  0
 33102  1  0  0  0  0
 34103  1  0  0  0  0
 35 37  1  0  0  0  0
 35104  1  0  0  0  0
 36 38  1  0  0  0  0
 36105  1  0  0  0  0
 37 39  1  0  0  0  0
 37106  1  0  0  0  0
 38 45  1  0  0  0  0
 38107  1  0  0  0  0
 39 41  1  0  0  0  0
 39108  1  0  0  0  0
 40109  1  0  0  0  0
 40110  1  0  0  0  0
 40111  1  0  0  0  0
 41 42  1  0  0  0  0
 41112  1  0  0  0  0
 42 48  1  0  0  0  0
 42113  1  0  0  0  0
 43114  1  0  0  0  0
 43115  1  0  0  0  0
 43116  1  0  0  0  0
 44 46  1  0  0  0  0
 44 47  1  0  0  0  0
 44118  1  0  0  0  0
 45120  1  0  0  0  0
 45121  1  0  0  0  0
 45122  1  0  0  0  0
 46 51  1  0  0  0  0
 46123  1  0  0  0  0
 46124  1  0  0  0  0
 47 52  1  0  0  0  0
 47125  1  0  0  0  0
 47126  1  0  0  0  0
 48128  1  0  0  0  0
 48129  1  0  0  0  0
 48130  1  0  0  0  0
 49 53  1  0  0  0  0
 50 55  1  0  0  0  0
 51 54  1  0  0  0  0
 51132  1  0  0  0  0
 51133  1  0  0  0  0
 52 58  1  0  0  0  0
 52135  1  0  0  0  0
 52136  1  0  0  0  0
 53 56  1  0  0  0  0
 53137  1  0  0  0  0
 53138  1  0  0  0  0
 54 57  1  0  0  0  0
 54139  1  0  0  0  0
 54140  1  0  0  0  0
 55 63  1  0  0  0  0
 55141  1  0  0  0  0
 55142  1  0  0  0  0
 56 59  1  0  0  0  0
 56143  1  0  0  0  0
 56144  1  0  0  0  0
 57 60  1  0  0  0  0
 57145  1  0  0  0  0
 57146  1  0  0  0  0
 58 67  1  0  0  0  0
 58147  1  0  0  0  0
 58148  1  0  0  0  0
 59 61  1  0  0  0  0
 59149  1  0  0  0  0
 59150  1  0  0  0  0
 60 61  1  0  0  0  0
 60151  1  0  0  0  0
 60152  1  0  0  0  0
 61153  1  0  0  0  0
 61154  1  0  0  0  0
 62 65  1  0  0  0  0
 63 66  1  0  0  0  0
 63155  1  0  0  0  0
 63156  1  0  0  0  0
 64 70  1  0  0  0  0
 65 68  1  0  0  0  0
 65157  1  0  0  0  0
 65158  1  0  0  0  0
 66 69  1  0  0  0  0
 66159  1  0  0  0  0
 66160  1  0  0  0  0
 67 71  1  0  0  0  0
 67161  1  0  0  0  0
 67162  1  0  0  0  0
 68 72  1  0  0  0  0
 68163  1  0  0  0  0
 68164  1  0  0  0  0
 69 73  1  0  0  0  0
 69165  1  0  0  0  0
 69166  1  0  0  0  0
 70 76  2  0  0  0  0
 70167  1  0  0  0  0
 71168  1  0  0  0  0
 71169  1  0  0  0  0
 71170  1  0  0  0  0
 72 74  1  0  0  0  0
 72171  1  0  0  0  0
 72172  1  0  0  0  0
 73 75  1  0  0  0  0
 73173  1  0  0  0  0
 73174  1  0  0  0  0
 74 77  1  0  0  0  0
 74175  1  0  0  0  0
 74176  1  0  0  0  0
 75 78  1  0  0  0  0
 75177  1  0  0  0  0
 75178  1  0  0  0  0
 76 80  1  0  0  0  0
 76179  1  0  0  0  0
 77 79  1  0  0  0  0
 77180  1  0  0  0  0
 77181  1  0  0  0  0
 78 81  1  0  0  0  0
 78182  1  0  0  0  0
 78183  1  0  0  0  0
 79 82  1  0  0  0  0
 79184  1  0  0  0  0
 79185  1  0  0  0  0
 80 83  2  0  0  0  0
 80 84  1  0  0  0  0
 81 86  1  0  0  0  0
 81186  1  0  0  0  0
 81187  1  0  0  0  0
 82 85  1  0  0  0  0
 82188  1  0  0  0  0
 82189  1  0  0  0  0
 83 87  1  0  0  0  0
 83190  1  0  0  0  0
 84 88  2  0  0  0  0
 84191  1  0  0  0  0
 85 89  1  0  0  0  0
 85192  1  0  0  0  0
 85193  1  0  0  0  0
 86194  1  0  0  0  0
 86195  1  0  0  0  0
 86196  1  0  0  0  0
 87 90  2  0  0  0  0
 87197  1  0  0  0  0
 88 90  1  0  0  0  0
 88198  1  0  0  0  0
 89199  1  0  0  0  0
 89200  1  0  0  0  0
 89201  1  0  0  0  0
 90202  1  0  0  0  0
M  END
>  <PUBCHEM_COMPOUND_CID>
131750937

>  <PUBCHEM_COMPOUND_CANONICALIZED>
1

>  <PUBCHEM_CACTVS_COMPLEXITY>
2060

>  <PUBCHEM_CACTVS_HBOND_ACCEPTOR>
21

>  <PUBCHEM_CACTVS_HBOND_DONOR>
5

>  <PUBCHEM_CACTVS_ROTATABLE_BOND>
32

>  <PUBCHEM_CACTVS_SUBSKEYS>
AAADcfB8PgAAAAAAAAAAAAAAAAAAAAAAAAA0SJEiAAAAAAABAAAAGgAACAAADBSwmAMyCIAABgCIAiDSCAACAAAgAAAIiAEAAMgZNDKAMRCicAAlgAAPqYfI6KyOAAAAAAAAAAAAAAAAAAAAAAAAAAAAAA==

>  <PUBCHEM_IUPAC_INCHI>
InChI=1S/C69H112O21/c1-8-11-14-16-19-24-32-39-50(70)84-59-45(5)80-67(63(56(59)76)87-53(73)43-42-48-35-29-27-30-36-48)88-60-46(6)81-68(64(57(60)77)85-51(71)40-33-25-20-17-15-12-9-2)89-61-47(7)82-69-65(58(61)78)86-52(72)41-34-26-22-18-21-23-31-38-49(37-28-13-10-3)83-66-62(90-69)55(75)54(74)44(4)79-66/h27,29-30,35-36,42-47,49,54-69,74-78H,8-26,28,31-34,37-41H2,1-7H3/b43-42+

>  <PUBCHEM_IUPAC_INCHIKEY>
GILTWNXLGZGVNZ-HBSCQBRPSA-N

>  <PUBCHEM_EXACT_MASS>
1276.77

>  <PUBCHEM_MOLECULAR_FORMULA>
C69H112O21

>  <PUBCHEM_MOLECULAR_WEIGHT>
1277.634

>  <PUBCHEM_OPENEYE_CAN_SMILES>
CCCCCCCCCC(=O)OC1C(OC(C(C1O)OC(=O)C=CC2=CC=CC=C2)OC3C(OC(C(C3O)OC(=O)CCCCCCCCC)OC4C(OC5C(C4O)OC(=O)CCCCCCCCCC(OC6C(O5)C(C(C(O6)C)O)O)CCCCC)C)C)C

>  <PUBCHEM_OPENEYE_ISO_SMILES>
CCCCCCCCCC(=O)OC1C(OC(C(C1O)OC(=O)/C=C/C2=CC=CC=C2)OC3C(OC(C(C3O)OC(=O)CCCCCCCCC)OC4C(OC5C(C4O)OC(=O)CCCCCCCCCC(OC6C(O5)C(C(C(O6)C)O)O)CCCCC)C)C)C

>  <PUBCHEM_CACTVS_TPSA>
280

>  <PUBCHEM_MONOISOTOPIC_WEIGHT>
1276.77

>  <PUBCHEM_TOTAL_CHARGE>
0

>  <PUBCHEM_HEAVY_ATOM_COUNT>
90

>  <PUBCHEM_ATOM_DEF_STEREO_COUNT>
0

>  <PUBCHEM_ATOM_UDEF_STEREO_COUNT>
21

>  <PUBCHEM_BOND_DEF_STEREO_COUNT>
1

>  <PUBCHEM_BOND_UDEF_STEREO_COUNT>
0

>  <PUBCHEM_ISOTOPIC_ATOM_COUNT>
0

>  <PUBCHEM_COMPONENT_COUNT>
1

>  <PUBCHEM_CACTVS_TAUTO_COUNT>
1

>  <PUBCHEM_COORDINATE_TYPE>
1
5
255

>  <PUBCHEM_BONDANNOTATIONS>
22  1  3
26  1  3
28  12  3
33  13  3
37  14  3
36  15  3
41  16  3
39  17  3
30  2  3
29  40  3
31  43  3
38  45  3
32  4  3
42  48  3
44  47  3
24  5  3
35  5  3
34  6  3
25  7  3
27  8  3
80  83  8
80  84  8
83  87  8
84  88  8
87  90  8
88  90  8
23  9  3

$$$$
