131753079
 OpenBabel06101807152D

119125  0  0  1  0  0  0  0  0999 V2000
    6.8671    0.2657    0.0000 O   0  0  0  0  0  0  0  0  0  0  0  0
   14.0264    6.4243    0.0000 O   0  0  0  0  0  0  0  0  0  0  0  0
   12.2945    6.4443    0.0000 O   0  0  0  0  0  0  0  0  0  0  0  0
    7.7331   -1.2343    0.0000 O   0  0  0  0  0  0  0  0  0  0  0  0
    5.1350   -0.7343    0.0000 O   0  0  0  0  0  0  0  0  0  0  0  0
    5.1350   -2.7343    0.0000 O   0  0  0  0  0  0  0  0  0  0  0  0
    6.8671   -3.7343    0.0000 O   0  0  0  0  0  0  0  0  0  0  0  0
    5.1350   -3.7343    0.0000 O   0  0  0  0  0  0  0  0  0  0  0  0
    6.8671   -5.7343    0.0000 O   0  0  0  0  0  0  0  0  0  0  0  0
    5.1350   -6.7343    0.0000 O   0  0  0  0  0  0  0  0  0  0  0  0
    3.4030   -5.7343    0.0000 O   0  0  0  0  0  0  0  0  0  0  0  0
    2.5369   -4.2343    0.0000 O   0  0  0  0  0  0  0  0  0  0  0  0
   10.4870    3.3962    0.0000 C   0  0  2  0  0  0  0  0  0  0  0  0
   10.4832    2.3962    0.0000 C   0  0  1  0  0  0  0  0  0  0  0  0
    9.5872    1.8650    0.0000 C   0  0  2  0  0  0  0  0  0  0  0  0
   11.3550    3.8928    0.0000 C   0  0  1  0  0  0  0  0  0  0  0  0
    8.6831    2.3823    0.0000 C   0  0  3  0  0  0  0  0  0  0  0  0
    9.5952    3.9343    0.0000 C   0  0  0  0  0  0  0  0  0  0  0  0
    8.6871    3.4240    0.0000 C   0  0  0  0  0  0  0  0  0  0  0  0
   12.2191    3.3895    0.0000 C   0  0  0  0  0  0  0  0  0  0  0  0
    7.7373    1.8507    0.0000 C   0  0  0  0  0  0  0  0  0  0  0  0
   13.1310    3.8928    0.0000 C   0  0  1  0  0  0  0  0  0  0  0  0
   11.3473    1.8929    0.0000 C   0  0  0  0  0  0  0  0  0  0  0  0
    9.6081    0.7802    0.0000 C   0  0  0  0  0  0  0  0  0  0  0  0
   11.3429    4.9344    0.0000 C   0  0  0  0  0  0  0  0  0  0  0  0
   13.1431    4.9344    0.0000 C   0  0  1  0  0  0  0  0  0  0  0  0
   10.1486    4.3372    0.0000 C   0  0  0  0  0  0  0  0  0  0  0  0
   12.2430    5.4587    0.0000 C   0  0  0  0  0  0  0  0  0  0  0  0
    7.7331    0.7657    0.0000 C   0  0  2  0  0  0  0  0  0  0  0  0
   12.2152    2.3895    0.0000 C   0  0  0  0  0  0  0  0  0  0  0  0
   10.4551    1.3683    0.0000 C   0  0  0  0  0  0  0  0  0  0  0  0
    8.6748    0.2269    0.0000 C   0  0  0  0  0  0  0  0  0  0  0  0
   10.7152    4.6614    0.0000 C   0  0  0  0  0  0  0  0  0  0  0  0
   14.0557    3.3252    0.0000 C   0  0  2  0  0  0  0  0  0  0  0  0
   14.0806    5.4805    0.0000 C   0  0  0  0  0  0  0  0  0  0  0  0
   15.0056    3.8495    0.0000 C   0  0  1  0  0  0  0  0  0  0  0  0
    7.2440    2.7206    0.0000 C   0  0  0  0  0  0  0  0  0  0  0  0
    6.7373    1.8584    0.0000 C   0  0  0  0  0  0  0  0  0  0  0  0
   15.0181    4.9344    0.0000 C   0  0  0  0  0  0  0  0  0  0  0  0
   13.1546    5.9344    0.0000 C   0  0  0  0  0  0  0  0  0  0  0  0
   14.0326    2.3255    0.0000 C   0  0  0  0  0  0  0  0  0  0  0  0
   15.8638    3.3362    0.0000 C   0  0  0  0  0  0  0  0  0  0  0  0
    6.8671   -0.7343    0.0000 C   0  0  2  0  0  0  0  0  0  0  0  0
    6.0010   -1.2343    0.0000 C   0  0  1  0  0  0  0  0  0  0  0  0
    6.0010   -2.2343    0.0000 C   0  0  2  0  0  0  0  0  0  0  0  0
    7.7331   -2.2343    0.0000 C   0  0  0  0  0  0  0  0  0  0  0  0
    6.8671   -2.7343    0.0000 C   0  0  1  0  0  0  0  0  0  0  0  0
    6.0010   -4.2343    0.0000 C   0  0  2  0  0  0  0  0  0  0  0  0
    6.0010   -5.2343    0.0000 C   0  0  1  0  0  0  0  0  0  0  0  0
    5.1350   -5.7343    0.0000 C   0  0  2  0  0  0  0  0  0  0  0  0
    4.2690   -4.2343    0.0000 C   0  0  1  0  0  0  0  0  0  0  0  0
    4.2690   -5.2343    0.0000 C   0  0  1  0  0  0  0  0  0  0  0  0
    3.4030   -3.7343    0.0000 C   0  0  0  0  0  0  0  0  0  0  0  0
   11.2209    2.8184    0.0000 H   0  0  0  0  0  0  0  0  0  0  0  0
    8.1486    2.6964    0.0000 H   0  0  0  0  0  0  0  0  0  0  0  0
   10.0016    4.4025    0.0000 H   0  0  0  0  0  0  0  0  0  0  0  0
    9.2034    4.4148    0.0000 H   0  0  0  0  0  0  0  0  0  0  0  0
    8.4803    4.0084    0.0000 H   0  0  0  0  0  0  0  0  0  0  0  0
    8.0759    3.3202    0.0000 H   0  0  0  0  0  0  0  0  0  0  0  0
   13.1114    3.0431    0.0000 H   0  0  0  0  0  0  0  0  0  0  0  0
   10.9469    1.4195    0.0000 H   0  0  0  0  0  0  0  0  0  0  0  0
   11.7440    1.4164    0.0000 H   0  0  0  0  0  0  0  0  0  0  0  0
    9.8284    0.2006    0.0000 H   0  0  0  0  0  0  0  0  0  0  0  0
   10.2168    0.8980    0.0000 H   0  0  0  0  0  0  0  0  0  0  0  0
   11.1272    5.5156    0.0000 H   0  0  0  0  0  0  0  0  0  0  0  0
   10.7334    4.8213    0.0000 H   0  0  0  0  0  0  0  0  0  0  0  0
   10.7321    4.5470    0.0000 H   0  0  0  0  0  0  0  0  0  0  0  0
    9.9388    4.9206    0.0000 H   0  0  0  0  0  0  0  0  0  0  0  0
    9.5652    4.1274    0.0000 H   0  0  0  0  0  0  0  0  0  0  0  0
   12.6421    5.9331    0.0000 H   0  0  0  0  0  0  0  0  0  0  0  0
   11.8439    5.9331    0.0000 H   0  0  0  0  0  0  0  0  0  0  0  0
    7.1968    1.0768    0.0000 H   0  0  0  0  0  0  0  0  0  0  0  0
   12.7510    2.0775    0.0000 H   0  0  0  0  0  0  0  0  0  0  0  0
   10.1472    0.8302    0.0000 H   0  0  0  0  0  0  0  0  0  0  0  0
   10.9933    1.0604    0.0000 H   0  0  0  0  0  0  0  0  0  0  0  0
   10.7631    1.9065    0.0000 H   0  0  0  0  0  0  0  0  0  0  0  0
    8.2793   -0.2506    0.0000 H   0  0  0  0  0  0  0  0  0  0  0  0
    9.0776   -0.2445    0.0000 H   0  0  0  0  0  0  0  0  0  0  0  0
   11.1916    5.0581    0.0000 H   0  0  0  0  0  0  0  0  0  0  0  0
   10.3185    5.1378    0.0000 H   0  0  0  0  0  0  0  0  0  0  0  0
   10.2387    4.2647    0.0000 H   0  0  0  0  0  0  0  0  0  0  0  0
   13.5112    3.0288    0.0000 H   0  0  0  0  0  0  0  0  0  0  0  0
   14.4797    5.9550    0.0000 H   0  0  0  0  0  0  0  0  0  0  0  0
   13.6815    5.9550    0.0000 H   0  0  0  0  0  0  0  0  0  0  0  0
   14.9948    3.2296    0.0000 H   0  0  0  0  0  0  0  0  0  0  0  0
    7.7833    3.0264    0.0000 H   0  0  0  0  0  0  0  0  0  0  0  0
    6.9381    3.2599    0.0000 H   0  0  0  0  0  0  0  0  0  0  0  0
    6.7046    2.4147    0.0000 H   0  0  0  0  0  0  0  0  0  0  0  0
    6.7421    2.4784    0.0000 H   0  0  0  0  0  0  0  0  0  0  0  0
    6.1173    1.8632    0.0000 H   0  0  0  0  0  0  0  0  0  0  0  0
    6.7325    1.2385    0.0000 H   0  0  0  0  0  0  0  0  0  0  0  0
   15.6277    4.8213    0.0000 H   0  0  0  0  0  0  0  0  0  0  0  0
   15.2339    5.5156    0.0000 H   0  0  0  0  0  0  0  0  0  0  0  0
   13.4127    2.3398    0.0000 H   0  0  0  0  0  0  0  0  0  0  0  0
   14.0182    1.7056    0.0000 H   0  0  0  0  0  0  0  0  0  0  0  0
   14.6524    2.3111    0.0000 H   0  0  0  0  0  0  0  0  0  0  0  0
   15.5456    2.8041    0.0000 H   0  0  0  0  0  0  0  0  0  0  0  0
   16.3959    3.0180    0.0000 H   0  0  0  0  0  0  0  0  0  0  0  0
   16.1821    3.8683    0.0000 H   0  0  0  0  0  0  0  0  0  0  0  0
    6.3301   -0.4243    0.0000 H   0  0  0  0  0  0  0  0  0  0  0  0
   14.0336    7.0443    0.0000 H   0  0  0  0  0  0  0  0  0  0  0  0
    6.5631   -0.6143    0.0000 H   0  0  0  0  0  0  0  0  0  0  0  0
    6.0010   -2.8543    0.0000 H   0  0  0  0  0  0  0  0  0  0  0  0
    7.9451   -2.8169    0.0000 H   0  0  0  0  0  0  0  0  0  0  0  0
    8.3437   -2.1266    0.0000 H   0  0  0  0  0  0  0  0  0  0  0  0
    7.4040   -3.0443    0.0000 H   0  0  0  0  0  0  0  0  0  0  0  0
    5.1350   -0.1143    0.0000 H   0  0  0  0  0  0  0  0  0  0  0  0
    4.5981   -2.4243    0.0000 H   0  0  0  0  0  0  0  0  0  0  0  0
    6.5380   -4.5443    0.0000 H   0  0  0  0  0  0  0  0  0  0  0  0
    6.0010   -5.8543    0.0000 H   0  0  0  0  0  0  0  0  0  0  0  0
    4.5981   -6.0443    0.0000 H   0  0  0  0  0  0  0  0  0  0  0  0
    4.2690   -3.6143    0.0000 H   0  0  0  0  0  0  0  0  0  0  0  0
    4.2690   -5.8543    0.0000 H   0  0  0  0  0  0  0  0  0  0  0  0
    7.4040   -5.4243    0.0000 H   0  0  0  0  0  0  0  0  0  0  0  0
    3.8015   -3.2593    0.0000 H   0  0  0  0  0  0  0  0  0  0  0  0
    3.0044   -3.2593    0.0000 H   0  0  0  0  0  0  0  0  0  0  0  0
    5.6720   -7.0443    0.0000 H   0  0  0  0  0  0  0  0  0  0  0  0
    3.4030   -6.3543    0.0000 H   0  0  0  0  0  0  0  0  0  0  0  0
    2.0000   -3.9243    0.0000 H   0  0  0  0  0  0  0  0  0  0  0  0
  2 40  1  0  0  0  0
  2101  1  0  0  0  0
  3 40  2  0  0  0  0
  4 43  1  0  0  0  0
  4 46  1  0  0  0  0
  5107  1  0  0  0  0
  6108  1  0  0  0  0
  8 48  1  0  0  0  0
  8 51  1  0  0  0  0
  9114  1  0  0  0  0
 10117  1  0  0  0  0
 11118  1  0  0  0  0
 12 53  1  0  0  0  0
 12119  1  0  0  0  0
 13 14  1  6  0  0  0
 13 18  1  0  0  0  0
 13 27  1  0  0  0  0
 14 15  1  1  0  0  0
 14 23  1  0  0  0  0
 14 54  1  0  0  0  0
 15 17  1  6  0  0  0
 15 24  1  0  0  0  0
 15 31  1  0  0  0  0
 16 13  1  6  0  0  0
 16 20  1  0  0  0  0
 16 25  1  0  0  0  0
 16 33  1  0  0  0  0
 17 19  1  0  0  0  0
 17 21  1  0  0  0  0
 17 55  1  0  0  0  0
 18 19  1  0  0  0  0
 18 56  1  0  0  0  0
 18 57  1  0  0  0  0
 19 58  1  0  0  0  0
 19 59  1  0  0  0  0
 20 22  1  0  0  0  0
 20 30  2  0  0  0  0
 21 29  1  0  0  0  0
 21 37  1  0  0  0  0
 21 38  1  0  0  0  0
 22 26  1  6  0  0  0
 22 60  1  0  0  0  0
 23 30  1  0  0  0  0
 23 61  1  0  0  0  0
 23 62  1  0  0  0  0
 24 32  1  0  0  0  0
 24 63  1  0  0  0  0
 24 64  1  0  0  0  0
 25 28  1  0  0  0  0
 25 65  1  0  0  0  0
 25 66  1  0  0  0  0
 26 28  1  0  0  0  0
 26 35  1  0  0  0  0
 26 40  1  6  0  0  0
 27 67  1  0  0  0  0
 27 68  1  0  0  0  0
 27 69  1  0  0  0  0
 28 70  1  0  0  0  0
 28 71  1  0  0  0  0
 29  1  1  0  0  0  0
 29 32  1  0  0  0  0
 29 72  1  1  0  0  0
 30 73  1  0  0  0  0
 31 74  1  0  0  0  0
 31 75  1  0  0  0  0
 31 76  1  0  0  0  0
 32 77  1  0  0  0  0
 32 78  1  0  0  0  0
 33 79  1  0  0  0  0
 33 80  1  0  0  0  0
 33 81  1  0  0  0  0
 34 22  1  6  0  0  0
 34 41  1  0  0  0  0
 34 82  1  0  0  0  0
 35 39  1  0  0  0  0
 35 83  1  0  0  0  0
 35 84  1  0  0  0  0
 36 34  1  1  0  0  0
 36 39  1  0  0  0  0
 36 42  1  0  0  0  0
 36 85  1  0  0  0  0
 37 86  1  0  0  0  0
 37 87  1  0  0  0  0
 37 88  1  0  0  0  0
 38 89  1  0  0  0  0
 38 90  1  0  0  0  0
 38 91  1  0  0  0  0
 39 92  1  0  0  0  0
 39 93  1  0  0  0  0
 41 94  1  0  0  0  0
 41 95  1  0  0  0  0
 41 96  1  0  0  0  0
 42 97  1  0  0  0  0
 42 98  1  0  0  0  0
 42 99  1  0  0  0  0
 43  1  1  0  0  0  0
 43 44  1  6  0  0  0
 43100  1  0  0  0  0
 44  5  1  0  0  0  0
 44 45  1  6  0  0  0
 44102  1  0  0  0  0
 45  6  1  0  0  0  0
 45 47  1  6  0  0  0
 45103  1  0  0  0  0
 46 47  1  0  0  0  0
 46104  1  0  0  0  0
 46105  1  0  0  0  0
 47  7  1  0  0  0  0
 47106  1  6  0  0  0
 48  7  1  0  0  0  0
 48 49  1  1  0  0  0
 48109  1  0  0  0  0
 49  9  1  0  0  0  0
 49 50  1  6  0  0  0
 49110  1  0  0  0  0
 50 10  1  0  0  0  0
 50 52  1  1  0  0  0
 50111  1  0  0  0  0
 51 52  1  6  0  0  0
 51 53  1  0  0  0  0
 51112  1  0  0  0  0
 52 11  1  0  0  0  0
 52113  1  1  0  0  0
 53115  1  0  0  0  0
 53116  1  0  0  0  0
M  END
>  <PUBCHEM_COMPOUND_CID>
131753079

>  <PUBCHEM_COMPOUND_CANONICALIZED>
1

>  <PUBCHEM_CACTVS_COMPLEXITY>
1420

>  <PUBCHEM_CACTVS_HBOND_ACCEPTOR>
12

>  <PUBCHEM_CACTVS_HBOND_DONOR>
7

>  <PUBCHEM_CACTVS_ROTATABLE_BOND>
6

>  <PUBCHEM_CACTVS_SUBSKEYS>
AAADcfB8PAAAAAAAAAAAAAAAAAAAAAAAAAA0aMGCAAAAAADAAAAAGgAACAAADxSwgAMCCAAABgCIAiDSCAAAAAAgAAAACAEAAAgREBIAAQAiQAAFgAAPAAPI6PyPgAAAAAAAAADAAAYAADAAAAAAAAAAAA==

>  <PUBCHEM_IUPAC_OPENEYE_NAME>
(1S,2R,4aS,6aR,6aS,6bR,10S,12aR,14bS)-10-[(2S,3R,4R,5R)-3,4-dihydroxy-5-[(2S,3R,4S,5S,6R)-3,4,5-trihydroxy-6-(hydroxymethyl)tetrahydropyran-2-yl]oxy-tetrahydropyran-2-yl]oxy-1,2,6a,6b,9,9,12a-heptamethyl-2,3,4,5,6,6a,7,8,8a,10,11,12,13,14b-tetradecahydro-1H-picene-4a-carboxylic acid

>  <PUBCHEM_IUPAC_CAS_NAME>
(1S,2R,4aS,6aR,6aS,6bR,10S,12aR,14bS)-10-[[(2S,3R,4R,5R)-3,4-dihydroxy-5-[[(2S,3R,4S,5S,6R)-3,4,5-trihydroxy-6-(hydroxymethyl)-2-oxanyl]oxy]-2-oxanyl]oxy]-1,2,6a,6b,9,9,12a-heptamethyl-2,3,4,5,6,6a,7,8,8a,10,11,12,13,14b-tetradecahydro-1H-picene-4a-carboxylic acid

>  <PUBCHEM_IUPAC_NAME>
(1S,2R,4aS,6aR,6aS,6bR,10S,12aR,14bS)-10-[(2S,3R,4R,5R)-3,4-dihydroxy-5-[(2S,3R,4S,5S,6R)-3,4,5-trihydroxy-6-(hydroxymethyl)oxan-2-yl]oxyoxan-2-yl]oxy-1,2,6a,6b,9,9,12a-heptamethyl-2,3,4,5,6,6a,7,8,8a,10,11,12,13,14b-tetradecahydro-1H-picene-4a-carboxylic acid

>  <PUBCHEM_IUPAC_SYSTEMATIC_NAME>
(1S,2R,4aS,6aR,6aS,6bR,10S,12aR,14bS)-10-[(2S,3R,4R,5R)-5-[(2S,3R,4S,5S,6R)-6-(hydroxymethyl)-3,4,5-tris(oxidanyl)oxan-2-yl]oxy-3,4-bis(oxidanyl)oxan-2-yl]oxy-1,2,6a,6b,9,9,12a-heptamethyl-2,3,4,5,6,6a,7,8,8a,10,11,12,13,14b-tetradecahydro-1H-picene-4a-carboxylic acid

>  <PUBCHEM_IUPAC_TRADITIONAL_NAME>
(1S,2R,4aS,6aR,6aS,6bR,10S,12aR,14bS)-10-[(2S,3R,4R,5R)-3,4-dihydroxy-5-[(2S,3R,4S,5S,6R)-3,4,5-trihydroxy-6-methylol-tetrahydropyran-2-yl]oxy-tetrahydropyran-2-yl]oxy-1,2,6a,6b,9,9,12a-heptamethyl-2,3,4,5,6,6a,7,8,8a,10,11,12,13,14b-tetradecahydro-1H-picene-4a-carboxylic acid

>  <PUBCHEM_IUPAC_INCHI>
InChI=1S/C41H66O12/c1-20-10-15-41(36(48)49)17-16-39(6)22(28(41)21(20)2)8-9-26-38(5)13-12-27(37(3,4)25(38)11-14-40(26,39)7)53-34-32(46)30(44)24(19-50-34)52-35-33(47)31(45)29(43)23(18-42)51-35/h8,20-21,23-35,42-47H,9-19H2,1-7H3,(H,48,49)/t20-,21+,23-,24-,25?,26-,27+,28+,29-,30+,31+,32-,33-,34+,35+,38+,39-,40-,41+/m1/s1

>  <PUBCHEM_IUPAC_INCHIKEY>
HGUUEBLQXKUYIA-XQMBFJMNSA-N

>  <PUBCHEM_EXACT_MASS>
750.455

>  <PUBCHEM_MOLECULAR_FORMULA>
C41H66O12

>  <PUBCHEM_MOLECULAR_WEIGHT>
750.967

>  <PUBCHEM_OPENEYE_CAN_SMILES>
CC1CCC2(CCC3(C(=CCC4C3(CCC5C4(CCC(C5(C)C)OC6C(C(C(CO6)OC7C(C(C(C(O7)CO)O)O)O)O)O)C)C)C2C1C)C)C(=O)O

>  <PUBCHEM_OPENEYE_ISO_SMILES>
C[C@@H]1CC[C@@]2(CC[C@@]3(C(=CC[C@H]4[C@]3(CCC5[C@@]4(CC[C@@H](C5(C)C)O[C@H]6[C@@H]([C@H]([C@@H](CO6)O[C@H]7[C@@H]([C@H]([C@@H]([C@H](O7)CO)O)O)O)O)O)C)C)[C@@H]2[C@H]1C)C)C(=O)O

>  <PUBCHEM_CACTVS_TPSA>
196

>  <PUBCHEM_MONOISOTOPIC_WEIGHT>
750.455

>  <PUBCHEM_TOTAL_CHARGE>
0

>  <PUBCHEM_HEAVY_ATOM_COUNT>
53

>  <PUBCHEM_ATOM_DEF_STEREO_COUNT>
18

>  <PUBCHEM_ATOM_UDEF_STEREO_COUNT>
1

>  <PUBCHEM_BOND_DEF_STEREO_COUNT>
0

>  <PUBCHEM_BOND_UDEF_STEREO_COUNT>
0

>  <PUBCHEM_ISOTOPIC_ATOM_COUNT>
0

>  <PUBCHEM_COMPONENT_COUNT>
1

>  <PUBCHEM_CACTVS_TAUTO_COUNT>
1

>  <PUBCHEM_COORDINATE_TYPE>
1
5
255

>  <PUBCHEM_BONDANNOTATIONS>
29  1  6
43  1  6
50  10  5
52  11  6
13  27  6
14  54  5
15  31  6
16  33  5
17  21  3
22  60  6
26  40  6
34  41  6
36  42  5
44  5  5
51  53  5
45  6  6
47  7  5
48  7  5
49  9  6

$$$$
