131752434
 OpenBabel06101807152D

 55 56  0  0  1  0  0  0  0  0999 V2000
    7.3671   -1.5000    0.0000 O   0  0  0  0  0  0  0  0  0  0  0  0
    5.1350   -0.6340    0.0000 O   0  0  0  0  0  0  0  0  0  0  0  0
    4.2690    0.8660    0.0000 O   0  0  0  0  0  0  0  0  0  0  0  0
    7.7331   -0.1340    0.0000 C   0  0  1  0  0  0  0  0  0  0  0  0
    7.7331    0.8660    0.0000 C   0  0  2  0  0  0  0  0  0  0  0  0
    6.8671   -0.6340    0.0000 C   0  0  1  0  0  0  0  0  0  0  0  0
    8.6270   -0.6686    0.0000 C   0  0  0  0  0  0  0  0  0  0  0  0
    8.6270    1.4007    0.0000 C   0  0  0  0  0  0  0  0  0  0  0  0
    6.0010   -0.1340    0.0000 C   0  0  2  0  0  0  0  0  0  0  0  0
    6.8671    1.3660    0.0000 C   0  0  0  0  0  0  0  0  0  0  0  0
    6.3671   -1.5000    0.0000 C   0  0  0  0  0  0  0  0  0  0  0  0
    9.5331   -0.1548    0.0000 C   0  0  0  0  0  0  0  0  0  0  0  0
    9.5331    0.8868    0.0000 C   0  0  0  0  0  0  0  0  0  0  0  0
    7.7331    1.8660    0.0000 C   0  0  0  0  0  0  0  0  0  0  0  0
    6.0010    0.8660    0.0000 C   0  0  0  0  0  0  0  0  0  0  0  0
    6.8671    2.3660    0.0000 C   0  0  0  0  0  0  0  0  0  0  0  0
    6.8671   -2.3660    0.0000 C   0  0  0  0  0  0  0  0  0  0  0  0
    5.3671   -1.5000    0.0000 C   0  0  0  0  0  0  0  0  0  0  0  0
    4.2690   -0.1340    0.0000 C   0  0  0  0  0  0  0  0  0  0  0  0
    3.4030   -0.6340    0.0000 C   0  0  0  0  0  0  0  0  0  0  0  0
    3.4030   -1.6340    0.0000 C   0  0  0  0  0  0  0  0  0  0  0  0
    2.5369   -0.1340    0.0000 C   0  0  0  0  0  0  0  0  0  0  0  0
    2.5369    0.8660    0.0000 C   0  0  0  0  0  0  0  0  0  0  0  0
    7.7265   -0.9839    0.0000 H   0  0  0  0  0  0  0  0  0  0  0  0
    8.2224   -1.1384    0.0000 H   0  0  0  0  0  0  0  0  0  0  0  0
    9.0207   -1.1476    0.0000 H   0  0  0  0  0  0  0  0  0  0  0  0
    9.0207    1.8797    0.0000 H   0  0  0  0  0  0  0  0  0  0  0  0
    8.2224    1.8705    0.0000 H   0  0  0  0  0  0  0  0  0  0  0  0
    5.4641    0.1760    0.0000 H   0  0  0  0  0  0  0  0  0  0  0  0
    6.0571   -0.9631    0.0000 H   0  0  0  0  0  0  0  0  0  0  0  0
    9.7422   -0.7385    0.0000 H   0  0  0  0  0  0  0  0  0  0  0  0
   10.1440   -0.0487    0.0000 H   0  0  0  0  0  0  0  0  0  0  0  0
   10.1440    0.7807    0.0000 H   0  0  0  0  0  0  0  0  0  0  0  0
    9.7422    1.4705    0.0000 H   0  0  0  0  0  0  0  0  0  0  0  0
    8.3531    1.8660    0.0000 H   0  0  0  0  0  0  0  0  0  0  0  0
    7.7331    2.4860    0.0000 H   0  0  0  0  0  0  0  0  0  0  0  0
    7.1131    1.8660    0.0000 H   0  0  0  0  0  0  0  0  0  0  0  0
    5.4641    1.1760    0.0000 H   0  0  0  0  0  0  0  0  0  0  0  0
    7.9871   -1.5000    0.0000 H   0  0  0  0  0  0  0  0  0  0  0  0
    7.4871    2.3660    0.0000 H   0  0  0  0  0  0  0  0  0  0  0  0
    6.8671    2.9860    0.0000 H   0  0  0  0  0  0  0  0  0  0  0  0
    6.2471    2.3660    0.0000 H   0  0  0  0  0  0  0  0  0  0  0  0
    6.3301   -2.6760    0.0000 H   0  0  0  0  0  0  0  0  0  0  0  0
    7.1771   -2.9030    0.0000 H   0  0  0  0  0  0  0  0  0  0  0  0
    7.4040   -2.0560    0.0000 H   0  0  0  0  0  0  0  0  0  0  0  0
    5.3671   -0.8800    0.0000 H   0  0  0  0  0  0  0  0  0  0  0  0
    4.7471   -1.5000    0.0000 H   0  0  0  0  0  0  0  0  0  0  0  0
    5.3671   -2.1200    0.0000 H   0  0  0  0  0  0  0  0  0  0  0  0
    2.7830   -1.6340    0.0000 H   0  0  0  0  0  0  0  0  0  0  0  0
    3.4030   -2.2540    0.0000 H   0  0  0  0  0  0  0  0  0  0  0  0
    4.0230   -1.6340    0.0000 H   0  0  0  0  0  0  0  0  0  0  0  0
    2.0000   -0.4440    0.0000 H   0  0  0  0  0  0  0  0  0  0  0  0
    3.1569    0.8660    0.0000 H   0  0  0  0  0  0  0  0  0  0  0  0
    2.5369    1.4860    0.0000 H   0  0  0  0  0  0  0  0  0  0  0  0
    1.9169    0.8660    0.0000 H   0  0  0  0  0  0  0  0  0  0  0  0
  1 39  1  0  0  0  0
  2 19  1  0  0  0  0
  3 19  2  0  0  0  0
  4  5  1  1  0  0  0
  4  7  1  0  0  0  0
  4 24  1  0  0  0  0
  5  8  1  0  0  0  0
  5 10  1  0  0  0  0
  5 14  1  6  0  0  0
  6  1  1  0  0  0  0
  6  4  1  1  0  0  0
  6 11  1  0  0  0  0
  7 12  1  0  0  0  0
  7 25  1  0  0  0  0
  7 26  1  0  0  0  0
  8 13  1  0  0  0  0
  8 27  1  0  0  0  0
  8 28  1  0  0  0  0
  9  2  1  0  0  0  0
  9  6  1  6  0  0  0
  9 15  1  0  0  0  0
  9 29  1  0  0  0  0
 10 15  2  0  0  0  0
 10 16  1  0  0  0  0
 11 17  1  0  0  0  0
 11 18  1  0  0  0  0
 11 30  1  0  0  0  0
 12 13  1  0  0  0  0
 12 31  1  0  0  0  0
 12 32  1  0  0  0  0
 13 33  1  0  0  0  0
 13 34  1  0  0  0  0
 14 35  1  0  0  0  0
 14 36  1  0  0  0  0
 14 37  1  0  0  0  0
 15 38  1  0  0  0  0
 16 40  1  0  0  0  0
 16 41  1  0  0  0  0
 16 42  1  0  0  0  0
 17 43  1  0  0  0  0
 17 44  1  0  0  0  0
 17 45  1  0  0  0  0
 18 46  1  0  0  0  0
 18 47  1  0  0  0  0
 18 48  1  0  0  0  0
 19 20  1  0  0  0  0
 20 21  1  0  0  0  0
 20 22  2  0  0  0  0
 21 49  1  0  0  0  0
 21 50  1  0  0  0  0
 21 51  1  0  0  0  0
 22 23  1  0  0  0  0
 22 52  1  0  0  0  0
 23 53  1  0  0  0  0
 23 54  1  0  0  0  0
 23 55  1  0  0  0  0
M  END
>  <PUBCHEM_COMPOUND_CID>
131752434

>  <PUBCHEM_COMPOUND_CANONICALIZED>
1

>  <PUBCHEM_CACTVS_COMPLEXITY>
531

>  <PUBCHEM_CACTVS_HBOND_ACCEPTOR>
3

>  <PUBCHEM_CACTVS_HBOND_DONOR>
1

>  <PUBCHEM_CACTVS_ROTATABLE_BOND>
4

>  <PUBCHEM_CACTVS_SUBSKEYS>
AAADcfB4MAAAAAAAAAAAAAAAAAAAAAAAAAAwQAAAAAAAAACAAAAAGgAACAAAD1SggAICCAAABgCIAiDSCAAAAAAgAAAACAEAAEgBBAIAIQACUAAEwAALIYOAwOAPgAAAAAAAAAAAAAAAACAAAAAAAAAAAA==

>  <PUBCHEM_IUPAC_OPENEYE_NAME>
[(1S,2S,4aS,8aS)-1-hydroxy-1-isopropyl-4,4a-dimethyl-2,5,6,7,8,8a-hexahydronaphthalen-2-yl] (Z)-2-methylbut-2-enoate

>  <PUBCHEM_IUPAC_CAS_NAME>
(Z)-2-methyl-2-butenoic acid [(1S,2S,4aS,8aS)-1-hydroxy-4,4a-dimethyl-1-propan-2-yl-2,5,6,7,8,8a-hexahydronaphthalen-2-yl] ester

>  <PUBCHEM_IUPAC_NAME>
[(1S,2S,4aS,8aS)-1-hydroxy-4,4a-dimethyl-1-propan-2-yl-2,5,6,7,8,8a-hexahydronaphthalen-2-yl] (Z)-2-methylbut-2-enoate

>  <PUBCHEM_IUPAC_SYSTEMATIC_NAME>
[(1S,2S,4aS,8aS)-4,4a-dimethyl-1-oxidanyl-1-propan-2-yl-2,5,6,7,8,8a-hexahydronaphthalen-2-yl] (Z)-2-methylbut-2-enoate

>  <PUBCHEM_IUPAC_TRADITIONAL_NAME>
(Z)-2-methylbut-2-enoic acid [(1S,2S,4aS,8aS)-1-hydroxy-1-isopropyl-4,4a-dimethyl-2,5,6,7,8,8a-hexahydronaphthalen-2-yl] ester

>  <PUBCHEM_IUPAC_INCHI>
InChI=1S/C20H32O3/c1-7-14(4)18(21)23-17-12-15(5)19(6)11-9-8-10-16(19)20(17,22)13(2)3/h7,12-13,16-17,22H,8-11H2,1-6H3/b14-7-/t16-,17-,19+,20-/m0/s1

>  <PUBCHEM_IUPAC_INCHIKEY>
NXPBEWQMSGGADR-XUDYDAPFSA-N

>  <PUBCHEM_EXACT_MASS>
320.235

>  <PUBCHEM_MOLECULAR_FORMULA>
C20H32O3

>  <PUBCHEM_MOLECULAR_WEIGHT>
320.473

>  <PUBCHEM_OPENEYE_CAN_SMILES>
CC=C(C)C(=O)OC1C=C(C2(CCCCC2C1(C(C)C)O)C)C

>  <PUBCHEM_OPENEYE_ISO_SMILES>
C/C=C(/C)\C(=O)O[C@H]1C=C([C@]2(CCCC[C@@H]2[C@]1(C(C)C)O)C)C

>  <PUBCHEM_CACTVS_TPSA>
46.5

>  <PUBCHEM_MONOISOTOPIC_WEIGHT>
320.235

>  <PUBCHEM_TOTAL_CHARGE>
0

>  <PUBCHEM_HEAVY_ATOM_COUNT>
23

>  <PUBCHEM_ATOM_DEF_STEREO_COUNT>
4

>  <PUBCHEM_ATOM_UDEF_STEREO_COUNT>
0

>  <PUBCHEM_BOND_DEF_STEREO_COUNT>
1

>  <PUBCHEM_BOND_UDEF_STEREO_COUNT>
0

>  <PUBCHEM_ISOTOPIC_ATOM_COUNT>
0

>  <PUBCHEM_COMPONENT_COUNT>
1

>  <PUBCHEM_CACTVS_TAUTO_COUNT>
1

>  <PUBCHEM_COORDINATE_TYPE>
1
5
255

>  <PUBCHEM_BONDANNOTATIONS>
6  1  6
9  2  5
4  24  5
5  14  6

$$$$
