131751704
 OpenBabel06101807152D

 99101  0  0  1  0  0  0  0  0999 V2000
    4.3010    5.5358    0.0000 O   0  0  0  0  0  0  0  0  0  0  0  0
    2.5314    2.5104    0.0000 O   0  0  0  0  0  0  0  0  0  0  0  0
   20.0255   -3.0863    0.0000 O   0  0  0  0  0  0  0  0  0  0  0  0
    4.7788    3.5872    0.0000 C   0  0  3  0  0  0  0  0  0  0  0  0
    6.1777    3.0784    0.0000 C   0  0  0  0  0  0  0  0  0  0  0  0
    3.4061    2.9952    0.0000 C   0  0  3  0  0  0  0  0  0  0  0  0
    5.0376    4.5532    0.0000 C   0  0  3  0  0  0  0  0  0  0  0  0
    6.4365    4.0444    0.0000 C   0  0  0  0  0  0  0  0  0  0  0  0
    3.0640    3.9349    0.0000 C   0  0  0  0  0  0  0  0  0  0  0  0
    7.1722    3.1830    0.0000 C   0  0  0  0  0  0  0  0  0  0  0  0
    6.7370    2.2494    0.0000 C   0  0  0  0  0  0  0  0  0  0  0  0
    4.5200    2.6213    0.0000 C   0  0  0  0  0  0  0  0  0  0  0  0
    3.0805    2.0497    0.0000 C   0  0  0  0  0  0  0  0  0  0  0  0
    5.2271    1.9142    0.0000 C   0  0  0  0  0  0  0  0  0  0  0  0
    4.9682    0.9483    0.0000 C   0  0  0  0  0  0  0  0  0  0  0  0
    4.0023    0.6895    0.0000 C   0  0  0  0  0  0  0  0  0  0  0  0
    5.6753    0.2412    0.0000 C   0  0  0  0  0  0  0  0  0  0  0  0
    6.6413    0.5000    0.0000 C   0  0  0  0  0  0  0  0  0  0  0  0
   17.8349   -4.5699    0.0000 C   0  0  0  0  0  0  0  0  0  0  0  0
   18.8008   -4.3110    0.0000 C   0  0  0  0  0  0  0  0  0  0  0  0
   19.0596   -3.3451    0.0000 C   0  0  3  0  0  0  0  0  0  0  0  0
   17.1278   -3.8628    0.0000 C   0  0  0  0  0  0  0  0  0  0  0  0
   18.3525   -2.6380    0.0000 C   0  0  0  0  0  0  0  0  0  0  0  0
   17.3866   -2.8968    0.0000 C   0  0  0  0  0  0  0  0  0  0  0  0
    7.3484   -0.2071    0.0000 C   0  0  0  0  0  0  0  0  0  0  0  0
   18.0937   -5.5358    0.0000 C   0  0  0  0  0  0  0  0  0  0  0  0
   17.1278   -5.2770    0.0000 C   0  0  0  0  0  0  0  0  0  0  0  0
   16.1618   -4.1216    0.0000 C   0  0  0  0  0  0  0  0  0  0  0  0
   16.6795   -2.1897    0.0000 C   0  0  0  0  0  0  0  0  0  0  0  0
    8.3143    0.0517    0.0000 C   0  0  0  0  0  0  0  0  0  0  0  0
   15.4547   -3.4145    0.0000 C   0  0  0  0  0  0  0  0  0  0  0  0
    8.5731    1.0176    0.0000 C   0  0  0  0  0  0  0  0  0  0  0  0
    9.0214   -0.6554    0.0000 C   0  0  0  0  0  0  0  0  0  0  0  0
   14.4888   -3.6733    0.0000 C   0  0  0  0  0  0  0  0  0  0  0  0
   14.2300   -4.6392    0.0000 C   0  0  0  0  0  0  0  0  0  0  0  0
    8.7626   -1.6213    0.0000 C   0  0  0  0  0  0  0  0  0  0  0  0
   13.7817   -2.9662    0.0000 C   0  0  0  0  0  0  0  0  0  0  0  0
   12.8158   -3.2250    0.0000 C   0  0  0  0  0  0  0  0  0  0  0  0
    9.4697   -2.3284    0.0000 C   0  0  0  0  0  0  0  0  0  0  0  0
   12.1087   -2.5179    0.0000 C   0  0  0  0  0  0  0  0  0  0  0  0
   10.4356   -2.0696    0.0000 C   0  0  0  0  0  0  0  0  0  0  0  0
   11.1427   -2.7767    0.0000 C   0  0  0  0  0  0  0  0  0  0  0  0
   10.8839   -3.7426    0.0000 C   0  0  0  0  0  0  0  0  0  0  0  0
    5.0236    3.9333    0.0000 H   0  0  0  0  0  0  0  0  0  0  0  0
    7.0305    3.8666    0.0000 H   0  0  0  0  0  0  0  0  0  0  0  0
    6.6315    4.6329    0.0000 H   0  0  0  0  0  0  0  0  0  0  0  0
    2.8697    4.5237    0.0000 H   0  0  0  0  0  0  0  0  0  0  0  0
    2.4783    3.7317    0.0000 H   0  0  0  0  0  0  0  0  0  0  0  0
    6.2230    1.9027    0.0000 H   0  0  0  0  0  0  0  0  0  0  0  0
    7.0837    1.7355    0.0000 H   0  0  0  0  0  0  0  0  0  0  0  0
    7.2370    2.5664    0.0000 H   0  0  0  0  0  0  0  0  0  0  0  0
    7.7888    3.2478    0.0000 H   0  0  0  0  0  0  0  0  0  0  0  0
    7.1074    3.7996    0.0000 H   0  0  0  0  0  0  0  0  0  0  0  0
    7.2510    2.5962    0.0000 H   0  0  0  0  0  0  0  0  0  0  0  0
    4.0815    2.1830    0.0000 H   0  0  0  0  0  0  0  0  0  0  0  0
    2.4943    2.2516    0.0000 H   0  0  0  0  0  0  0  0  0  0  0  0
    2.8786    1.4635    0.0000 H   0  0  0  0  0  0  0  0  0  0  0  0
    3.6667    1.8479    0.0000 H   0  0  0  0  0  0  0  0  0  0  0  0
    2.0000    2.8297    0.0000 H   0  0  0  0  0  0  0  0  0  0  0  0
    5.7890    1.6522    0.0000 H   0  0  0  0  0  0  0  0  0  0  0  0
    3.8418    1.2884    0.0000 H   0  0  0  0  0  0  0  0  0  0  0  0
    3.4034    0.5290    0.0000 H   0  0  0  0  0  0  0  0  0  0  0  0
    4.1628    0.0906    0.0000 H   0  0  0  0  0  0  0  0  0  0  0  0
    5.5149   -0.3577    0.0000 H   0  0  0  0  0  0  0  0  0  0  0  0
    6.8017    1.0989    0.0000 H   0  0  0  0  0  0  0  0  0  0  0  0
   18.8548   -4.9287    0.0000 H   0  0  0  0  0  0  0  0  0  0  0  0
   19.4184   -4.3651    0.0000 H   0  0  0  0  0  0  0  0  0  0  0  0
   19.2201   -2.7462    0.0000 H   0  0  0  0  0  0  0  0  0  0  0  0
   18.8604   -2.2824    0.0000 H   0  0  0  0  0  0  0  0  0  0  0  0
   18.0905   -2.0761    0.0000 H   0  0  0  0  0  0  0  0  0  0  0  0
    7.1879   -0.8060    0.0000 H   0  0  0  0  0  0  0  0  0  0  0  0
   17.4948   -5.6963    0.0000 H   0  0  0  0  0  0  0  0  0  0  0  0
   18.2541   -6.1347    0.0000 H   0  0  0  0  0  0  0  0  0  0  0  0
   18.6926   -5.3753    0.0000 H   0  0  0  0  0  0  0  0  0  0  0  0
   16.6893   -4.8386    0.0000 H   0  0  0  0  0  0  0  0  0  0  0  0
   16.6893   -5.7154    0.0000 H   0  0  0  0  0  0  0  0  0  0  0  0
   17.5662   -5.7154    0.0000 H   0  0  0  0  0  0  0  0  0  0  0  0
   16.0014   -4.7204    0.0000 H   0  0  0  0  0  0  0  0  0  0  0  0
   17.1179   -1.7513    0.0000 H   0  0  0  0  0  0  0  0  0  0  0  0
   16.2411   -1.7513    0.0000 H   0  0  0  0  0  0  0  0  0  0  0  0
   16.2411   -2.6281    0.0000 H   0  0  0  0  0  0  0  0  0  0  0  0
   20.4639   -3.5247    0.0000 H   0  0  0  0  0  0  0  0  0  0  0  0
   15.6152   -2.8156    0.0000 H   0  0  0  0  0  0  0  0  0  0  0  0
    9.1720    0.8572    0.0000 H   0  0  0  0  0  0  0  0  0  0  0  0
    8.7336    1.6165    0.0000 H   0  0  0  0  0  0  0  0  0  0  0  0
    7.9742    1.1781    0.0000 H   0  0  0  0  0  0  0  0  0  0  0  0
    9.6203   -0.4949    0.0000 H   0  0  0  0  0  0  0  0  0  0  0  0
   13.6311   -4.4788    0.0000 H   0  0  0  0  0  0  0  0  0  0  0  0
   14.0695   -5.2381    0.0000 H   0  0  0  0  0  0  0  0  0  0  0  0
   14.8288   -4.7997    0.0000 H   0  0  0  0  0  0  0  0  0  0  0  0
   13.9422   -2.3673    0.0000 H   0  0  0  0  0  0  0  0  0  0  0  0
    8.1637   -1.7818    0.0000 H   0  0  0  0  0  0  0  0  0  0  0  0
   12.6553   -3.8239    0.0000 H   0  0  0  0  0  0  0  0  0  0  0  0
    9.3092   -2.9273    0.0000 H   0  0  0  0  0  0  0  0  0  0  0  0
   12.2691   -1.9190    0.0000 H   0  0  0  0  0  0  0  0  0  0  0  0
   10.5961   -1.4707    0.0000 H   0  0  0  0  0  0  0  0  0  0  0  0
   10.2850   -3.5822    0.0000 H   0  0  0  0  0  0  0  0  0  0  0  0
   10.7234   -4.3415    0.0000 H   0  0  0  0  0  0  0  0  0  0  0  0
   11.4828   -3.9031    0.0000 H   0  0  0  0  0  0  0  0  0  0  0  0
  1  4  1  0  0  0  0
  1  7  1  0  0  0  0
  2  6  1  0  0  0  0
  2 59  1  0  0  0  0
  3 21  1  0  0  0  0
  3 82  1  0  0  0  0
  4  5  1  0  0  0  0
  4  6  1  0  0  0  0
  4 12  1  0  0  0  0
  5  8  1  0  0  0  0
  5 10  1  0  0  0  0
  5 11  1  0  0  0  0
  6  9  1  0  0  0  0
  6 13  1  0  0  0  0
  7  8  1  0  0  0  0
  7  9  1  0  0  0  0
  7 44  1  0  0  0  0
  8 45  1  0  0  0  0
  8 46  1  0  0  0  0
  9 47  1  0  0  0  0
  9 48  1  0  0  0  0
 10 51  1  0  0  0  0
 10 52  1  0  0  0  0
 10 53  1  0  0  0  0
 11 49  1  0  0  0  0
 11 50  1  0  0  0  0
 11 54  1  0  0  0  0
 12 14  2  0  0  0  0
 12 55  1  0  0  0  0
 13 56  1  0  0  0  0
 13 57  1  0  0  0  0
 13 58  1  0  0  0  0
 14 15  1  0  0  0  0
 14 60  1  0  0  0  0
 15 16  1  0  0  0  0
 15 17  2  0  0  0  0
 16 61  1  0  0  0  0
 16 62  1  0  0  0  0
 16 63  1  0  0  0  0
 17 18  1  0  0  0  0
 17 64  1  0  0  0  0
 18 25  2  0  0  0  0
 18 65  1  0  0  0  0
 19 20  1  0  0  0  0
 19 22  1  0  0  0  0
 19 26  1  0  0  0  0
 19 27  1  0  0  0  0
 20 21  1  0  0  0  0
 20 66  1  0  0  0  0
 20 67  1  0  0  0  0
 21 23  1  0  0  0  0
 21 68  1  0  0  0  0
 22 24  2  0  0  0  0
 22 28  1  0  0  0  0
 23 24  1  0  0  0  0
 23 69  1  0  0  0  0
 23 70  1  0  0  0  0
 24 29  1  0  0  0  0
 25 30  1  0  0  0  0
 25 71  1  0  0  0  0
 26 72  1  0  0  0  0
 26 73  1  0  0  0  0
 26 74  1  0  0  0  0
 27 75  1  0  0  0  0
 27 76  1  0  0  0  0
 27 77  1  0  0  0  0
 28 31  2  0  0  0  0
 28 78  1  0  0  0  0
 29 79  1  0  0  0  0
 29 80  1  0  0  0  0
 29 81  1  0  0  0  0
 30 32  1  0  0  0  0
 30 33  2  0  0  0  0
 31 34  1  0  0  0  0
 31 83  1  0  0  0  0
 32 84  1  0  0  0  0
 32 85  1  0  0  0  0
 32 86  1  0  0  0  0
 33 36  1  0  0  0  0
 33 87  1  0  0  0  0
 34 35  1  0  0  0  0
 34 37  2  0  0  0  0
 35 88  1  0  0  0  0
 35 89  1  0  0  0  0
 35 90  1  0  0  0  0
 36 39  2  0  0  0  0
 36 92  1  0  0  0  0
 37 38  1  0  0  0  0
 37 91  1  0  0  0  0
 38 40  2  0  0  0  0
 38 93  1  0  0  0  0
 39 41  1  0  0  0  0
 39 94  1  0  0  0  0
 40 42  1  0  0  0  0
 40 95  1  0  0  0  0
 41 42  2  0  0  0  0
 41 96  1  0  0  0  0
 42 43  1  0  0  0  0
 43 97  1  0  0  0  0
 43 98  1  0  0  0  0
 43 99  1  0  0  0  0
M  END
>  <PUBCHEM_COMPOUND_CID>
131751704

>  <PUBCHEM_COMPOUND_CANONICALIZED>
1

>  <PUBCHEM_CACTVS_COMPLEXITY>
1330

>  <PUBCHEM_CACTVS_HBOND_ACCEPTOR>
3

>  <PUBCHEM_CACTVS_HBOND_DONOR>
2

>  <PUBCHEM_CACTVS_ROTATABLE_BOND>
10

>  <PUBCHEM_CACTVS_SUBSKEYS>
AAADcfB8MAAAAAAAAAAAAAAAAAAAASJAAAAwQAAAAAAAAAAAAAAAGgAACAAADlSggAICAAAABgCAAiBCAAAAAAAgAAAICAAAAAgJFAIAIQACUAAFwAALoAOA4PQPgAAAAAAAAABAAAYQADCAAAAAAAAAAA==

>  <PUBCHEM_IUPAC_OPENEYE_NAME>
4-[(1E,3Z,5E,7Z,9Z,11E,13E,15E,17E)-18-(4-hydroxy-2,6,6-trimethyl-cyclohexen-1-yl)-3,7,12,16-tetramethyl-octadeca-1,3,5,7,9,11,13,15,17-nonaenyl]-3,5,5-trimethyl-7-oxabicyclo[2.2.1]heptan-3-ol

>  <PUBCHEM_IUPAC_CAS_NAME>
4-[(1E,3Z,5E,7Z,9Z,11E,13E,15E,17E)-18-(4-hydroxy-2,6,6-trimethyl-1-cyclohexenyl)-3,7,12,16-tetramethyloctadeca-1,3,5,7,9,11,13,15,17-nonaenyl]-3,5,5-trimethyl-7-oxabicyclo[2.2.1]heptan-3-ol

>  <PUBCHEM_IUPAC_NAME>
4-[(1E,3Z,5E,7Z,9Z,11E,13E,15E,17E)-18-(4-hydroxy-2,6,6-trimethylcyclohexen-1-yl)-3,7,12,16-tetramethyloctadeca-1,3,5,7,9,11,13,15,17-nonaenyl]-3,5,5-trimethyl-7-oxabicyclo[2.2.1]heptan-3-ol

>  <PUBCHEM_IUPAC_SYSTEMATIC_NAME>
3,5,5-trimethyl-4-[(1E,3Z,5E,7Z,9Z,11E,13E,15E,17E)-3,7,12,16-tetramethyl-18-(2,6,6-trimethyl-4-oxidanyl-cyclohexen-1-yl)octadeca-1,3,5,7,9,11,13,15,17-nonaenyl]-7-oxabicyclo[2.2.1]heptan-3-ol

>  <PUBCHEM_IUPAC_TRADITIONAL_NAME>
4-[(1E,3Z,5E,7Z,9Z,11E,13E,15E,17E)-18-(4-hydroxy-2,6,6-trimethyl-cyclohexen-1-yl)-3,7,12,16-tetramethyl-octadeca-1,3,5,7,9,11,13,15,17-nonaenyl]-3,5,5-trimethyl-7-oxabicyclo[2.2.1]heptan-3-ol

>  <PUBCHEM_IUPAC_INCHI>
InChI=1S/C40H56O3/c1-29(17-13-19-31(3)21-22-36-33(5)25-34(41)26-37(36,6)7)15-11-12-16-30(2)18-14-20-32(4)23-24-40-38(8,9)27-35(43-40)28-39(40,10)42/h11-24,34-35,41-42H,25-28H2,1-10H3/b12-11-,17-13+,18-14+,22-21+,24-23+,29-15+,30-16-,31-19+,32-20-

>  <PUBCHEM_IUPAC_INCHIKEY>
LMIFPRVTIOZTJN-NYORYHGYSA-N

>  <PUBCHEM_EXACT_MASS>
584.423

>  <PUBCHEM_MOLECULAR_FORMULA>
C40H56O3

>  <PUBCHEM_MOLECULAR_WEIGHT>
584.885

>  <PUBCHEM_OPENEYE_CAN_SMILES>
CC1=C(C(CC(C1)O)(C)C)C=CC(=CC=CC(=CC=CC=C(C)C=CC=C(C)C=CC23C(CC(O2)CC3(C)O)(C)C)C)C

>  <PUBCHEM_OPENEYE_ISO_SMILES>
CC1=C(C(CC(C1)O)(C)C)/C=C/C(=C/C=C/C(=C/C=C\C=C(\C)/C=C/C=C(/C)\C=C\C23C(CC(O2)CC3(C)O)(C)C)/C)/C

>  <PUBCHEM_CACTVS_TPSA>
49.7

>  <PUBCHEM_MONOISOTOPIC_WEIGHT>
584.423

>  <PUBCHEM_TOTAL_CHARGE>
0

>  <PUBCHEM_HEAVY_ATOM_COUNT>
43

>  <PUBCHEM_ATOM_DEF_STEREO_COUNT>
0

>  <PUBCHEM_ATOM_UDEF_STEREO_COUNT>
4

>  <PUBCHEM_BOND_DEF_STEREO_COUNT>
9

>  <PUBCHEM_BOND_UDEF_STEREO_COUNT>
0

>  <PUBCHEM_ISOTOPIC_ATOM_COUNT>
0

>  <PUBCHEM_COMPONENT_COUNT>
1

>  <PUBCHEM_CACTVS_TAUTO_COUNT>
437

>  <PUBCHEM_COORDINATE_TYPE>
1
5
255

>  <PUBCHEM_BONDANNOTATIONS>
6  2  3
21  3  3
4  12  3
7  8  3

$$$$
