131752579
 OpenBabel06101807152D

 72 74  0  0  1  0  0  0  0  0999 V2000
    5.1350   -2.5950    0.0000 O   0  0  0  0  0  0  0  0  0  0  0  0
    6.8671   -2.5950    0.0000 O   0  0  0  0  0  0  0  0  0  0  0  0
    5.1350   -5.5950    0.0000 O   0  0  0  0  0  0  0  0  0  0  0  0
    3.4030   -4.5950    0.0000 O   0  0  0  0  0  0  0  0  0  0  0  0
    6.8671   -4.5950    0.0000 O   0  0  0  0  0  0  0  0  0  0  0  0
    2.5369   -3.0950    0.0000 O   0  0  0  0  0  0  0  0  0  0  0  0
    5.1350   -1.5950    0.0000 O   0  0  0  0  0  0  0  0  0  0  0  0
    7.7331    2.9050    0.0000 O   0  0  0  0  0  0  0  0  0  0  0  0
    6.0010    1.9050    0.0000 O   0  0  0  0  0  0  0  0  0  0  0  0
    9.4651    1.9050    0.0000 O   0  0  0  0  0  0  0  0  0  0  0  0
    7.7331    4.9050    0.0000 O   0  0  0  0  0  0  0  0  0  0  0  0
   12.9292    2.9050    0.0000 O   0  0  0  0  0  0  0  0  0  0  0  0
    5.1350   -4.5950    0.0000 C   0  0  3  0  0  0  0  0  0  0  0  0
    4.2690   -4.0950    0.0000 C   0  0  3  0  0  0  0  0  0  0  0  0
    6.0010   -4.0950    0.0000 C   0  0  3  0  0  0  0  0  0  0  0  0
    4.2690   -3.0950    0.0000 C   0  0  3  0  0  0  0  0  0  0  0  0
    6.0010   -3.0950    0.0000 C   0  0  3  0  0  0  0  0  0  0  0  0
    3.4030   -2.5950    0.0000 C   0  0  0  0  0  0  0  0  0  0  0  0
    6.8671   -1.5950    0.0000 C   0  0  0  0  0  0  0  0  0  0  0  0
    6.0010   -1.0950    0.0000 C   0  0  0  0  0  0  0  0  0  0  0  0
    6.8671    1.4050    0.0000 C   0  0  3  0  0  0  0  0  0  0  0  0
    6.8671    0.4050    0.0000 C   0  0  0  0  0  0  0  0  0  0  0  0
    7.7331   -1.0950    0.0000 C   0  0  0  0  0  0  0  0  0  0  0  0
    7.7331    1.9050    0.0000 C   0  0  3  0  0  0  0  0  0  0  0  0
    6.0010   -0.0950    0.0000 C   0  0  0  0  0  0  0  0  0  0  0  0
    7.7331   -0.0950    0.0000 C   0  0  0  0  0  0  0  0  0  0  0  0
    8.5991    1.4050    0.0000 C   0  0  0  0  0  0  0  0  0  0  0  0
    8.5991    3.4050    0.0000 C   0  0  0  0  0  0  0  0  0  0  0  0
    4.2690   -1.0950    0.0000 C   0  0  0  0  0  0  0  0  0  0  0  0
    8.5991    4.4050    0.0000 C   0  0  0  0  0  0  0  0  0  0  0  0
    9.4651    2.9050    0.0000 C   0  0  0  0  0  0  0  0  0  0  0  0
    9.4651    4.9050    0.0000 C   0  0  0  0  0  0  0  0  0  0  0  0
   10.3312    4.4050    0.0000 C   0  0  0  0  0  0  0  0  0  0  0  0
   10.3312    3.4050    0.0000 C   0  0  0  0  0  0  0  0  0  0  0  0
   11.1972    4.9050    0.0000 C   0  0  0  0  0  0  0  0  0  0  0  0
    7.7331    5.9050    0.0000 C   0  0  0  0  0  0  0  0  0  0  0  0
   12.0632    4.4050    0.0000 C   0  0  0  0  0  0  0  0  0  0  0  0
   12.0632    3.4050    0.0000 C   0  0  0  0  0  0  0  0  0  0  0  0
    4.5981   -4.9050    0.0000 H   0  0  0  0  0  0  0  0  0  0  0  0
    4.2690   -4.7150    0.0000 H   0  0  0  0  0  0  0  0  0  0  0  0
    6.0010   -4.7150    0.0000 H   0  0  0  0  0  0  0  0  0  0  0  0
    4.2690   -2.4750    0.0000 H   0  0  0  0  0  0  0  0  0  0  0  0
    6.0010   -2.4750    0.0000 H   0  0  0  0  0  0  0  0  0  0  0  0
    3.8015   -2.1200    0.0000 H   0  0  0  0  0  0  0  0  0  0  0  0
    3.0044   -2.1200    0.0000 H   0  0  0  0  0  0  0  0  0  0  0  0
    4.5981   -5.9050    0.0000 H   0  0  0  0  0  0  0  0  0  0  0  0
    3.4030   -5.2150    0.0000 H   0  0  0  0  0  0  0  0  0  0  0  0
    6.8671   -5.2150    0.0000 H   0  0  0  0  0  0  0  0  0  0  0  0
    2.0000   -2.7850    0.0000 H   0  0  0  0  0  0  0  0  0  0  0  0
    6.3301    1.0950    0.0000 H   0  0  0  0  0  0  0  0  0  0  0  0
    8.2700   -1.4050    0.0000 H   0  0  0  0  0  0  0  0  0  0  0  0
    7.1962    2.2150    0.0000 H   0  0  0  0  0  0  0  0  0  0  0  0
    5.4641    0.2150    0.0000 H   0  0  0  0  0  0  0  0  0  0  0  0
    8.2700    0.2150    0.0000 H   0  0  0  0  0  0  0  0  0  0  0  0
    8.2006    0.9301    0.0000 H   0  0  0  0  0  0  0  0  0  0  0  0
    8.9976    0.9301    0.0000 H   0  0  0  0  0  0  0  0  0  0  0  0
    6.0010    2.5250    0.0000 H   0  0  0  0  0  0  0  0  0  0  0  0
    4.5790   -0.5581    0.0000 H   0  0  0  0  0  0  0  0  0  0  0  0
    3.7320   -0.7850    0.0000 H   0  0  0  0  0  0  0  0  0  0  0  0
    3.9590   -1.6319    0.0000 H   0  0  0  0  0  0  0  0  0  0  0  0
   10.0021    1.5950    0.0000 H   0  0  0  0  0  0  0  0  0  0  0  0
    9.4651    2.2850    0.0000 H   0  0  0  0  0  0  0  0  0  0  0  0
    9.4651    5.5250    0.0000 H   0  0  0  0  0  0  0  0  0  0  0  0
   10.8681    3.0950    0.0000 H   0  0  0  0  0  0  0  0  0  0  0  0
   11.1972    5.5250    0.0000 H   0  0  0  0  0  0  0  0  0  0  0  0
    8.3531    5.9050    0.0000 H   0  0  0  0  0  0  0  0  0  0  0  0
    7.7331    6.5250    0.0000 H   0  0  0  0  0  0  0  0  0  0  0  0
    7.1131    5.9050    0.0000 H   0  0  0  0  0  0  0  0  0  0  0  0
   12.6002    4.7150    0.0000 H   0  0  0  0  0  0  0  0  0  0  0  0
   11.4526    3.5127    0.0000 H   0  0  0  0  0  0  0  0  0  0  0  0
   11.8512    2.8224    0.0000 H   0  0  0  0  0  0  0  0  0  0  0  0
   12.9292    2.2850    0.0000 H   0  0  0  0  0  0  0  0  0  0  0  0
  1 16  1  0  0  0  0
  1 17  1  0  0  0  0
  2 17  1  0  0  0  0
  2 19  1  0  0  0  0
  3 13  1  0  0  0  0
  3 46  1  0  0  0  0
  4 14  1  0  0  0  0
  4 47  1  0  0  0  0
  5 15  1  0  0  0  0
  5 48  1  0  0  0  0
  6 18  1  0  0  0  0
  6 49  1  0  0  0  0
  7 20  1  0  0  0  0
  7 29  1  0  0  0  0
  8 24  1  0  0  0  0
  8 28  1  0  0  0  0
  9 21  1  0  0  0  0
  9 57  1  0  0  0  0
 10 27  1  0  0  0  0
 10 61  1  0  0  0  0
 11 30  1  0  0  0  0
 11 36  1  0  0  0  0
 12 38  1  0  0  0  0
 12 72  1  0  0  0  0
 13 14  1  0  0  0  0
 13 15  1  0  0  0  0
 13 39  1  0  0  0  0
 14 16  1  0  0  0  0
 14 40  1  0  0  0  0
 15 17  1  0  0  0  0
 15 41  1  0  0  0  0
 16 18  1  0  0  0  0
 16 42  1  0  0  0  0
 17 43  1  0  0  0  0
 18 44  1  0  0  0  0
 18 45  1  0  0  0  0
 19 20  2  0  0  0  0
 19 23  1  0  0  0  0
 20 25  1  0  0  0  0
 21 22  1  0  0  0  0
 21 24  1  0  0  0  0
 21 50  1  0  0  0  0
 22 25  2  0  0  0  0
 22 26  1  0  0  0  0
 23 26  2  0  0  0  0
 23 51  1  0  0  0  0
 24 27  1  0  0  0  0
 24 52  1  0  0  0  0
 25 53  1  0  0  0  0
 26 54  1  0  0  0  0
 27 55  1  0  0  0  0
 27 56  1  0  0  0  0
 28 30  2  0  0  0  0
 28 31  1  0  0  0  0
 29 58  1  0  0  0  0
 29 59  1  0  0  0  0
 29 60  1  0  0  0  0
 30 32  1  0  0  0  0
 31 34  2  0  0  0  0
 31 62  1  0  0  0  0
 32 33  2  0  0  0  0
 32 63  1  0  0  0  0
 33 34  1  0  0  0  0
 33 35  1  0  0  0  0
 34 64  1  0  0  0  0
 35 37  2  0  0  0  0
 35 65  1  0  0  0  0
 36 66  1  0  0  0  0
 36 67  1  0  0  0  0
 36 68  1  0  0  0  0
 37 38  1  0  0  0  0
 37 69  1  0  0  0  0
 38 70  1  0  0  0  0
 38 71  1  0  0  0  0
M  END
>  <PUBCHEM_COMPOUND_CID>
131752579

>  <PUBCHEM_COMPOUND_CANONICALIZED>
1

>  <PUBCHEM_CACTVS_COMPLEXITY>
710

>  <PUBCHEM_CACTVS_HBOND_ACCEPTOR>
12

>  <PUBCHEM_CACTVS_HBOND_DONOR>
7

>  <PUBCHEM_CACTVS_ROTATABLE_BOND>
12

>  <PUBCHEM_CACTVS_SUBSKEYS>
AAADcfB4PAAAAAAAAAAAAAAAAAAAAAAAAAA0YIAAAAAAAAABQAAAGgAACAAADBSwmAMyDoAABgCAAiBCAAACCAAgIAAIiAAGiIgdNiKEMRqieCKlwBEPuAfA4LwOIAABAAAAQABAAAIAAACAAAAAAAAAAA==

>  <PUBCHEM_IUPAC_OPENEYE_NAME>
2-[4-[1,3-dihydroxy-2-[4-[(Z)-3-hydroxyprop-1-enyl]-2-methoxy-phenoxy]propyl]-2-methoxy-phenoxy]-6-(hydroxymethyl)tetrahydropyran-3,4,5-triol

>  <PUBCHEM_IUPAC_CAS_NAME>
2-[4-[1,3-dihydroxy-2-[4-[(Z)-3-hydroxyprop-1-enyl]-2-methoxyphenoxy]propyl]-2-methoxyphenoxy]-6-(hydroxymethyl)oxane-3,4,5-triol

>  <PUBCHEM_IUPAC_NAME>
2-[4-[1,3-dihydroxy-2-[4-[(Z)-3-hydroxyprop-1-enyl]-2-methoxyphenoxy]propyl]-2-methoxyphenoxy]-6-(hydroxymethyl)oxane-3,4,5-triol

>  <PUBCHEM_IUPAC_SYSTEMATIC_NAME>
2-(hydroxymethyl)-6-[2-methoxy-4-[2-[2-methoxy-4-[(Z)-3-oxidanylprop-1-enyl]phenoxy]-1,3-bis(oxidanyl)propyl]phenoxy]oxane-3,4,5-triol

>  <PUBCHEM_IUPAC_TRADITIONAL_NAME>
2-[4-[1,3-dihydroxy-2-[4-[(Z)-3-hydroxyprop-1-enyl]-2-methoxy-phenoxy]propyl]-2-methoxy-phenoxy]-6-methylol-tetrahydropyran-3,4,5-triol

>  <PUBCHEM_IUPAC_INCHI>
InChI=1S/C26H34O12/c1-34-18-10-14(4-3-9-27)5-7-16(18)36-20(12-28)22(30)15-6-8-17(19(11-15)35-2)37-26-25(33)24(32)23(31)21(13-29)38-26/h3-8,10-11,20-33H,9,12-13H2,1-2H3/b4-3-

>  <PUBCHEM_IUPAC_INCHIKEY>
WHKMPWQXESJAPI-ARJAWSKDSA-N

>  <PUBCHEM_EXACT_MASS>
538.205

>  <PUBCHEM_MOLECULAR_FORMULA>
C26H34O12

>  <PUBCHEM_MOLECULAR_WEIGHT>
538.546

>  <PUBCHEM_OPENEYE_CAN_SMILES>
COC1=C(C=CC(=C1)C=CCO)OC(CO)C(C2=CC(=C(C=C2)OC3C(C(C(C(O3)CO)O)O)O)OC)O

>  <PUBCHEM_OPENEYE_ISO_SMILES>
COC1=C(C=CC(=C1)/C=C\CO)OC(CO)C(C2=CC(=C(C=C2)OC3C(C(C(C(O3)CO)O)O)O)OC)O

>  <PUBCHEM_CACTVS_TPSA>
188

>  <PUBCHEM_MONOISOTOPIC_WEIGHT>
538.205

>  <PUBCHEM_TOTAL_CHARGE>
0

>  <PUBCHEM_HEAVY_ATOM_COUNT>
38

>  <PUBCHEM_ATOM_DEF_STEREO_COUNT>
0

>  <PUBCHEM_ATOM_UDEF_STEREO_COUNT>
7

>  <PUBCHEM_BOND_DEF_STEREO_COUNT>
1

>  <PUBCHEM_BOND_UDEF_STEREO_COUNT>
0

>  <PUBCHEM_ISOTOPIC_ATOM_COUNT>
0

>  <PUBCHEM_COMPONENT_COUNT>
1

>  <PUBCHEM_CACTVS_TAUTO_COUNT>
1

>  <PUBCHEM_COORDINATE_TYPE>
1
5
255

>  <PUBCHEM_BONDANNOTATIONS>
16  18  3
19  20  8
19  23  8
17  2  3
20  25  8
22  25  8
22  26  8
23  26  8
24  27  3
28  30  8
28  31  8
13  3  3
30  32  8
31  34  8
32  33  8
33  34  8
14  4  3
15  5  3
21  9  3

$$$$
