131752607
 OpenBabel06101807152D

 65 68  0  0  1  0  0  0  0  0999 V2000
    5.1350   -2.7836    0.0000 O   0  0  0  0  0  0  0  0  0  0  0  0
    6.8671   -2.7836    0.0000 O   0  0  0  0  0  0  0  0  0  0  0  0
    5.1350   -5.7836    0.0000 O   0  0  0  0  0  0  0  0  0  0  0  0
    3.4030   -4.7836    0.0000 O   0  0  0  0  0  0  0  0  0  0  0  0
    6.8671   -4.7836    0.0000 O   0  0  0  0  0  0  0  0  0  0  0  0
    2.5369   -3.2836    0.0000 O   0  0  0  0  0  0  0  0  0  0  0  0
    5.0910    0.2233    0.0000 O   0  0  0  0  0  0  0  0  0  0  0  0
    8.5991    0.2164    0.0000 O   0  0  0  0  0  0  0  0  0  0  0  0
    7.7549    1.7479    0.0000 O   0  0  0  0  0  0  0  0  0  0  0  0
    4.2569    2.7924    0.0000 O   0  0  0  0  0  0  0  0  0  0  0  0
    6.0005    5.7857    0.0000 O   0  0  0  0  0  0  0  0  0  0  0  0
    5.1350   -4.7836    0.0000 C   0  0  3  0  0  0  0  0  0  0  0  0
    4.2690   -4.2836    0.0000 C   0  0  3  0  0  0  0  0  0  0  0  0
    6.0010   -4.2836    0.0000 C   0  0  3  0  0  0  0  0  0  0  0  0
    4.2690   -3.2836    0.0000 C   0  0  3  0  0  0  0  0  0  0  0  0
    6.0010   -3.2836    0.0000 C   0  0  3  0  0  0  0  0  0  0  0  0
    3.4030   -2.7836    0.0000 C   0  0  0  0  0  0  0  0  0  0  0  0
    6.8671   -1.7836    0.0000 C   0  0  0  0  0  0  0  0  0  0  0  0
    7.7331   -1.2836    0.0000 C   0  0  0  0  0  0  0  0  0  0  0  0
    6.0010   -1.2836    0.0000 C   0  0  0  0  0  0  0  0  0  0  0  0
    7.7331   -0.2836    0.0000 C   0  0  0  0  0  0  0  0  0  0  0  0
    6.8671    0.2164    0.0000 C   0  0  0  0  0  0  0  0  0  0  0  0
    8.5991   -1.7836    0.0000 C   0  0  0  0  0  0  0  0  0  0  0  0
    6.0010   -0.2836    0.0000 C   0  0  0  0  0  0  0  0  0  0  0  0
    6.8831    1.2579    0.0000 C   0  0  0  0  0  0  0  0  0  0  0  0
    9.4651   -1.2836    0.0000 C   0  0  0  0  0  0  0  0  0  0  0  0
    5.9851    1.7857    0.0000 C   0  0  0  0  0  0  0  0  0  0  0  0
    5.0830    1.2649    0.0000 C   0  0  0  0  0  0  0  0  0  0  0  0
    5.9889    2.7857    0.0000 C   0  0  0  0  0  0  0  0  0  0  0  0
   10.3312   -1.7836    0.0000 C   0  0  0  0  0  0  0  0  0  0  0  0
    5.1248    3.2890    0.0000 C   0  0  0  0  0  0  0  0  0  0  0  0
    6.8569    3.2823    0.0000 C   0  0  0  0  0  0  0  0  0  0  0  0
   11.1972   -1.2836    0.0000 C   0  0  0  0  0  0  0  0  0  0  0  0
   10.3312   -2.7836    0.0000 C   0  0  0  0  0  0  0  0  0  0  0  0
    5.1287    4.2890    0.0000 C   0  0  0  0  0  0  0  0  0  0  0  0
    6.8607    4.2823    0.0000 C   0  0  0  0  0  0  0  0  0  0  0  0
    5.9966    4.7857    0.0000 C   0  0  0  0  0  0  0  0  0  0  0  0
    4.5981   -5.0936    0.0000 H   0  0  0  0  0  0  0  0  0  0  0  0
    4.2690   -4.9036    0.0000 H   0  0  0  0  0  0  0  0  0  0  0  0
    6.0010   -4.9036    0.0000 H   0  0  0  0  0  0  0  0  0  0  0  0
    4.2690   -2.6636    0.0000 H   0  0  0  0  0  0  0  0  0  0  0  0
    6.5380   -3.5936    0.0000 H   0  0  0  0  0  0  0  0  0  0  0  0
    3.8015   -2.3086    0.0000 H   0  0  0  0  0  0  0  0  0  0  0  0
    3.0044   -2.3086    0.0000 H   0  0  0  0  0  0  0  0  0  0  0  0
    4.5981   -6.0936    0.0000 H   0  0  0  0  0  0  0  0  0  0  0  0
    3.4030   -5.4036    0.0000 H   0  0  0  0  0  0  0  0  0  0  0  0
    6.8671   -5.4036    0.0000 H   0  0  0  0  0  0  0  0  0  0  0  0
    5.4641   -1.5936    0.0000 H   0  0  0  0  0  0  0  0  0  0  0  0
    2.0000   -2.9736    0.0000 H   0  0  0  0  0  0  0  0  0  0  0  0
    8.2006   -2.2585    0.0000 H   0  0  0  0  0  0  0  0  0  0  0  0
    8.9976   -2.2585    0.0000 H   0  0  0  0  0  0  0  0  0  0  0  0
    9.4651   -0.6636    0.0000 H   0  0  0  0  0  0  0  0  0  0  0  0
    4.5449    1.5728    0.0000 H   0  0  0  0  0  0  0  0  0  0  0  0
    9.1360   -0.0936    0.0000 H   0  0  0  0  0  0  0  0  0  0  0  0
    7.3926    2.9703    0.0000 H   0  0  0  0  0  0  0  0  0  0  0  0
   11.5072   -1.8205    0.0000 H   0  0  0  0  0  0  0  0  0  0  0  0
    9.7112   -2.7836    0.0000 H   0  0  0  0  0  0  0  0  0  0  0  0
   10.3312   -3.4036    0.0000 H   0  0  0  0  0  0  0  0  0  0  0  0
   11.7341   -0.9736    0.0000 H   0  0  0  0  0  0  0  0  0  0  0  0
   10.8872   -0.7466    0.0000 H   0  0  0  0  0  0  0  0  0  0  0  0
   10.9512   -2.7836    0.0000 H   0  0  0  0  0  0  0  0  0  0  0  0
    4.5930    4.6011    0.0000 H   0  0  0  0  0  0  0  0  0  0  0  0
    7.3989    4.5902    0.0000 H   0  0  0  0  0  0  0  0  0  0  0  0
    3.7212    3.1044    0.0000 H   0  0  0  0  0  0  0  0  0  0  0  0
    6.5386    6.0936    0.0000 H   0  0  0  0  0  0  0  0  0  0  0  0
  1 15  1  0  0  0  0
  1 16  1  0  0  0  0
  2 16  1  0  0  0  0
  2 18  1  0  0  0  0
  3 12  1  0  0  0  0
  3 45  1  0  0  0  0
  4 13  1  0  0  0  0
  4 46  1  0  0  0  0
  5 14  1  0  0  0  0
  5 47  1  0  0  0  0
  6 17  1  0  0  0  0
  6 49  1  0  0  0  0
  7 24  1  0  0  0  0
  7 28  1  0  0  0  0
  8 21  1  0  0  0  0
  8 54  1  0  0  0  0
  9 25  2  0  0  0  0
 10 31  1  0  0  0  0
 10 64  1  0  0  0  0
 11 37  1  0  0  0  0
 11 65  1  0  0  0  0
 12 13  1  0  0  0  0
 12 14  1  0  0  0  0
 12 38  1  0  0  0  0
 13 15  1  0  0  0  0
 13 39  1  0  0  0  0
 14 16  1  0  0  0  0
 14 40  1  0  0  0  0
 15 17  1  0  0  0  0
 15 41  1  0  0  0  0
 16 42  1  0  0  0  0
 17 43  1  0  0  0  0
 17 44  1  0  0  0  0
 18 19  2  0  0  0  0
 18 20  1  0  0  0  0
 19 21  1  0  0  0  0
 19 23  1  0  0  0  0
 20 24  2  0  0  0  0
 20 48  1  0  0  0  0
 21 22  2  0  0  0  0
 22 24  1  0  0  0  0
 22 25  1  0  0  0  0
 23 26  1  0  0  0  0
 23 50  1  0  0  0  0
 23 51  1  0  0  0  0
 25 27  1  0  0  0  0
 26 30  2  0  0  0  0
 26 52  1  0  0  0  0
 27 28  2  0  0  0  0
 27 29  1  0  0  0  0
 28 53  1  0  0  0  0
 29 31  2  0  0  0  0
 29 32  1  0  0  0  0
 30 33  1  0  0  0  0
 30 34  1  0  0  0  0
 31 35  1  0  0  0  0
 32 36  2  0  0  0  0
 32 55  1  0  0  0  0
 33 56  1  0  0  0  0
 33 59  1  0  0  0  0
 33 60  1  0  0  0  0
 34 57  1  0  0  0  0
 34 58  1  0  0  0  0
 34 61  1  0  0  0  0
 35 37  2  0  0  0  0
 35 62  1  0  0  0  0
 36 37  1  0  0  0  0
 36 63  1  0  0  0  0
M  END
>  <PUBCHEM_COMPOUND_CID>
131752607

>  <PUBCHEM_COMPOUND_CANONICALIZED>
1

>  <PUBCHEM_CACTVS_COMPLEXITY>
871

>  <PUBCHEM_CACTVS_HBOND_ACCEPTOR>
11

>  <PUBCHEM_CACTVS_HBOND_DONOR>
7

>  <PUBCHEM_CACTVS_ROTATABLE_BOND>
6

>  <PUBCHEM_CACTVS_SUBSKEYS>
AAADceB4PAAAAAAAAAAAAAAAAAAAAAAAAAA0YIEAAAAAAACBQAAAGgAACAAADBSwmAMyDoAABgCIAqBSAAACCAAkIAAIiAEGCMgdNzaGNRqieWCl4BUPuYfK7PzOIAACCAAIAABAAAQQABAAAAAAAAAAAA==

>  <PUBCHEM_IUPAC_OPENEYE_NAME>
3-(2,4-dihydroxyphenyl)-5-hydroxy-6-(3-methylbut-2-enyl)-7-[3,4,5-trihydroxy-6-(hydroxymethyl)tetrahydropyran-2-yl]oxy-chromen-4-one

>  <PUBCHEM_IUPAC_CAS_NAME>
3-(2,4-dihydroxyphenyl)-5-hydroxy-6-(3-methylbut-2-enyl)-7-[[3,4,5-trihydroxy-6-(hydroxymethyl)-2-oxanyl]oxy]-1-benzopyran-4-one

>  <PUBCHEM_IUPAC_NAME>
3-(2,4-dihydroxyphenyl)-5-hydroxy-6-(3-methylbut-2-enyl)-7-[3,4,5-trihydroxy-6-(hydroxymethyl)oxan-2-yl]oxychromen-4-one

>  <PUBCHEM_IUPAC_SYSTEMATIC_NAME>
3-[2,4-bis(oxidanyl)phenyl]-7-[6-(hydroxymethyl)-3,4,5-tris(oxidanyl)oxan-2-yl]oxy-6-(3-methylbut-2-enyl)-5-oxidanyl-chromen-4-one

>  <PUBCHEM_IUPAC_TRADITIONAL_NAME>
3-(2,4-dihydroxyphenyl)-5-hydroxy-6-(3-methylbut-2-enyl)-7-(3,4,5-trihydroxy-6-methylol-tetrahydropyran-2-yl)oxy-chromone

>  <PUBCHEM_IUPAC_INCHI>
InChI=1S/C26H28O11/c1-11(2)3-5-14-17(36-26-25(34)24(33)23(32)19(9-27)37-26)8-18-20(21(14)30)22(31)15(10-35-18)13-6-4-12(28)7-16(13)29/h3-4,6-8,10,19,23-30,32-34H,5,9H2,1-2H3

>  <PUBCHEM_IUPAC_INCHIKEY>
DOIIPZVFYVWPPS-UHFFFAOYSA-N

>  <PUBCHEM_EXACT_MASS>
516.163

>  <PUBCHEM_MOLECULAR_FORMULA>
C26H28O11

>  <PUBCHEM_MOLECULAR_WEIGHT>
516.499

>  <PUBCHEM_OPENEYE_CAN_SMILES>
CC(=CCC1=C(C=C2C(=C1O)C(=O)C(=CO2)C3=C(C=C(C=C3)O)O)OC4C(C(C(C(O4)CO)O)O)O)C

>  <PUBCHEM_OPENEYE_ISO_SMILES>
CC(=CCC1=C(C=C2C(=C1O)C(=O)C(=CO2)C3=C(C=C(C=C3)O)O)OC4C(C(C(C(O4)CO)O)O)O)C

>  <PUBCHEM_CACTVS_TPSA>
186

>  <PUBCHEM_MONOISOTOPIC_WEIGHT>
516.163

>  <PUBCHEM_TOTAL_CHARGE>
0

>  <PUBCHEM_HEAVY_ATOM_COUNT>
37

>  <PUBCHEM_ATOM_DEF_STEREO_COUNT>
0

>  <PUBCHEM_ATOM_UDEF_STEREO_COUNT>
5

>  <PUBCHEM_BOND_DEF_STEREO_COUNT>
0

>  <PUBCHEM_BOND_UDEF_STEREO_COUNT>
0

>  <PUBCHEM_ISOTOPIC_ATOM_COUNT>
0

>  <PUBCHEM_COMPONENT_COUNT>
1

>  <PUBCHEM_CACTVS_TAUTO_COUNT>
45

>  <PUBCHEM_COORDINATE_TYPE>
1
5
255

>  <PUBCHEM_BONDANNOTATIONS>
15  17  3
18  19  8
18  20  8
19  21  8
16  2  3
20  24  8
21  22  8
22  24  8
22  25  8
25  27  8
27  28  8
29  31  8
29  32  8
12  3  3
31  35  8
32  36  8
35  37  8
36  37  8
13  4  3
14  5  3
7  24  8
7  28  8

$$$$
