131751061
 OpenBabel06101807152D

 95102  0  0  1  0  0  0  0  0999 V2000
    7.5510    0.2094    0.0000 O   0  0  0  0  0  0  0  0  0  0  0  0
    7.1353   -0.6304    0.0000 O   0  0  0  0  0  0  0  0  0  0  0  0
    5.7562    1.5478    0.0000 O   0  0  0  0  0  0  0  0  0  0  0  0
    8.4686    2.7648    0.0000 O   0  0  0  0  0  0  0  0  0  0  0  0
    5.6840   -1.0970    0.0000 O   0  0  0  0  0  0  0  0  0  0  0  0
    3.7310   -0.6656    0.0000 O   0  0  0  0  0  0  0  0  0  0  0  0
   10.2170    2.7302    0.0000 O   0  0  0  0  0  0  0  0  0  0  0  0
    9.4438   -0.4667    0.0000 O   0  0  0  0  0  0  0  0  0  0  0  0
   11.9490   -0.2698    0.0000 O   0  0  0  0  0  0  0  0  0  0  0  0
   11.9490    1.7302    0.0000 O   0  0  0  0  0  0  0  0  0  0  0  0
    7.3198   -2.2514    0.0000 O   0  0  0  0  0  0  0  0  0  0  0  0
   11.4096   -1.3226    0.0000 O   0  0  0  0  0  0  0  0  0  0  0  0
    3.8262    1.4621    0.0000 O   0  0  0  0  0  0  0  0  0  0  0  0
   11.2120   -3.2549    0.0000 O   0  0  0  0  0  0  0  0  0  0  0  0
    9.4497   -4.0716    0.0000 O   0  0  0  0  0  0  0  0  0  0  0  0
    4.0325   -1.6191    0.0000 O   0  0  0  0  0  0  0  0  0  0  0  0
    2.0795   -1.1877    0.0000 O   0  0  0  0  0  0  0  0  0  0  0  0
    2.1937    4.1253    0.0000 O   0  0  0  0  0  0  0  0  0  0  0  0
    4.0190    2.9556    0.0000 O   0  0  0  0  0  0  0  0  0  0  0  0
    5.5648    5.2053    0.0000 O   0  0  0  0  0  0  0  0  0  0  0  0
    3.2140   -0.6886    0.0000 O   0  0  0  0  0  0  0  0  0  0  0  0
    3.5647    5.6471    0.0000 O   0  0  0  0  0  0  0  0  0  0  0  0
    4.9485    0.4890    0.0000 O   0  0  0  0  0  0  0  0  0  0  0  0
    7.5647   -4.1732    0.0000 O   0  0  0  0  0  0  0  0  0  0  0  0
    4.2617   -5.2173    0.0000 O   0  0  0  0  0  0  0  0  0  0  0  0
    6.2146   -5.6487    0.0000 O   0  0  0  0  0  0  0  0  0  0  0  0
    7.5510    1.2510    0.0000 C   0  0  3  0  0  0  0  0  0  0  0  0
    7.0340    0.3786    0.0000 C   0  0  3  0  0  0  0  0  0  0  0  0
    6.0576    0.5943    0.0000 C   0  0  3  0  0  0  0  0  0  0  0  0
    8.4570    1.7649    0.0000 C   0  0  3  0  0  0  0  0  0  0  0  0
    9.3510    1.2302    0.0000 C   0  0  0  0  0  0  0  0  0  0  0  0
    5.3826   -0.1435    0.0000 C   0  0  3  0  0  0  0  0  0  0  0  0
    9.3510    0.2302    0.0000 C   0  0  0  0  0  0  0  0  0  0  0  0
   10.2170   -0.2698    0.0000 C   0  0  0  0  0  0  0  0  0  0  0  0
    8.4570   -0.3044    0.0000 C   0  0  0  0  0  0  0  0  0  0  0  0
   10.2170    1.7302    0.0000 C   0  0  0  0  0  0  0  0  0  0  0  0
    4.4061    0.0722    0.0000 C   0  0  0  0  0  0  0  0  0  0  0  0
    9.7291   -1.1588    0.0000 C   0  0  0  0  0  0  0  0  0  0  0  0
   11.0830    0.2302    0.0000 C   0  0  0  0  0  0  0  0  0  0  0  0
    8.8090   -1.5852    0.0000 C   0  0  0  0  0  0  0  0  0  0  0  0
    7.8153   -1.3828    0.0000 C   0  0  0  0  0  0  0  0  0  0  0  0
   11.0830    1.2302    0.0000 C   0  0  0  0  0  0  0  0  0  0  0  0
   10.4947   -1.7263    0.0000 C   0  0  0  0  0  0  0  0  0  0  0  0
    4.7797    1.7635    0.0000 C   0  0  0  0  0  0  0  0  0  0  0  0
    8.7470   -2.5362    0.0000 C   0  0  0  0  0  0  0  0  0  0  0  0
    4.4783    2.7170    0.0000 C   0  0  0  0  0  0  0  0  0  0  0  0
   10.3978   -2.6743    0.0000 C   0  0  0  0  0  0  0  0  0  0  0  0
    5.0089   -1.8348    0.0000 C   0  0  0  0  0  0  0  0  0  0  0  0
    9.5331   -3.0750    0.0000 C   0  0  0  0  0  0  0  0  0  0  0  0
    3.5018    2.9327    0.0000 C   0  0  0  0  0  0  0  0  0  0  0  0
    2.7546   -0.4499    0.0000 C   0  0  0  0  0  0  0  0  0  0  0  0
    2.8268    2.1949    0.0000 C   0  0  0  0  0  0  0  0  0  0  0  0
    2.4532    0.5036    0.0000 C   0  0  0  0  0  0  0  0  0  0  0  0
    5.3104   -2.7883    0.0000 C   0  0  0  0  0  0  0  0  0  0  0  0
    5.1932    3.4745    0.0000 C   0  0  0  0  0  0  0  0  0  0  0  0
    2.1518    1.4571    0.0000 C   0  0  0  0  0  0  0  0  0  0  0  0
    3.1726    3.9209    0.0000 C   0  0  0  0  0  0  0  0  0  0  0  0
    3.8032    1.9792    0.0000 C   0  0  0  0  0  0  0  0  0  0  0  0
    4.8869    4.4701    0.0000 C   0  0  0  0  0  0  0  0  0  0  0  0
    3.4296    0.2879    0.0000 C   0  0  0  0  0  0  0  0  0  0  0  0
    3.8698    4.6948    0.0000 C   0  0  0  0  0  0  0  0  0  0  0  0
    4.1047    1.0257    0.0000 C   0  0  0  0  0  0  0  0  0  0  0  0
    4.6353   -3.5260    0.0000 C   0  0  0  0  0  0  0  0  0  0  0  0
    6.2868   -3.0040    0.0000 C   0  0  0  0  0  0  0  0  0  0  0  0
    6.5882   -3.9575    0.0000 C   0  0  0  0  0  0  0  0  0  0  0  0
    4.9367   -4.4795    0.0000 C   0  0  0  0  0  0  0  0  0  0  0  0
    5.9132   -4.6952    0.0000 C   0  0  0  0  0  0  0  0  0  0  0  0
    7.1167    1.6936    0.0000 H   0  0  0  0  0  0  0  0  0  0  0  0
    7.6394    0.2448    0.0000 H   0  0  0  0  0  0  0  0  0  0  0  0
    6.4761    1.0517    0.0000 H   0  0  0  0  0  0  0  0  0  0  0  0
    7.9231    2.0800    0.0000 H   0  0  0  0  0  0  0  0  0  0  0  0
    4.9640   -0.6009    0.0000 H   0  0  0  0  0  0  0  0  0  0  0  0
    4.6429    0.6452    0.0000 H   0  0  0  0  0  0  0  0  0  0  0  0
    3.8829    0.4049    0.0000 H   0  0  0  0  0  0  0  0  0  0  0  0
    7.9353    3.0810    0.0000 H   0  0  0  0  0  0  0  0  0  0  0  0
    8.1894   -2.8072    0.0000 H   0  0  0  0  0  0  0  0  0  0  0  0
   10.7539    3.0402    0.0000 H   0  0  0  0  0  0  0  0  0  0  0  0
   12.4860    0.0402    0.0000 H   0  0  0  0  0  0  0  0  0  0  0  0
   11.9490    2.3502    0.0000 H   0  0  0  0  0  0  0  0  0  0  0  0
    5.7970    3.3338    0.0000 H   0  0  0  0  0  0  0  0  0  0  0  0
   11.9100   -1.6887    0.0000 H   0  0  0  0  0  0  0  0  0  0  0  0
    1.5463    1.5909    0.0000 H   0  0  0  0  0  0  0  0  0  0  0  0
   11.1527   -3.8720    0.0000 H   0  0  0  0  0  0  0  0  0  0  0  0
    8.8888   -4.3357    0.0000 H   0  0  0  0  0  0  0  0  0  0  0  0
    4.0299   -3.3923    0.0000 H   0  0  0  0  0  0  0  0  0  0  0  0
    6.7053   -2.5466    0.0000 H   0  0  0  0  0  0  0  0  0  0  0  0
    2.0000    4.7143    0.0000 H   0  0  0  0  0  0  0  0  0  0  0  0
    3.8321    3.5468    0.0000 H   0  0  0  0  0  0  0  0  0  0  0  0
    5.3802    5.7972    0.0000 H   0  0  0  0  0  0  0  0  0  0  0  0
    2.7955   -1.1460    0.0000 H   0  0  0  0  0  0  0  0  0  0  0  0
    3.9814    6.1062    0.0000 H   0  0  0  0  0  0  0  0  0  0  0  0
    5.2812    1.0122    0.0000 H   0  0  0  0  0  0  0  0  0  0  0  0
    7.7516   -4.7643    0.0000 H   0  0  0  0  0  0  0  0  0  0  0  0
    3.6563   -5.0836    0.0000 H   0  0  0  0  0  0  0  0  0  0  0  0
    5.7961   -6.1062    0.0000 H   0  0  0  0  0  0  0  0  0  0  0  0
  1 27  1  0  0  0  0
  1 35  1  0  0  0  0
  2 28  1  0  0  0  0
  2 41  1  0  0  0  0
  3 29  1  0  0  0  0
  3 44  1  0  0  0  0
  4 30  1  0  0  0  0
  4 75  1  0  0  0  0
  5 32  1  0  0  0  0
  5 48  1  0  0  0  0
  6 37  1  0  0  0  0
  6 51  1  0  0  0  0
  7 36  1  0  0  0  0
  7 77  1  0  0  0  0
  8 35  2  0  0  0  0
  9 39  1  0  0  0  0
  9 78  1  0  0  0  0
 10 42  1  0  0  0  0
 10 79  1  0  0  0  0
 11 41  2  0  0  0  0
 12 43  1  0  0  0  0
 12 81  1  0  0  0  0
 13 44  2  0  0  0  0
 14 47  1  0  0  0  0
 14 83  1  0  0  0  0
 15 49  1  0  0  0  0
 15 84  1  0  0  0  0
 16 48  2  0  0  0  0
 17 51  2  0  0  0  0
 18 57  1  0  0  0  0
 18 87  1  0  0  0  0
 19 58  1  0  0  0  0
 19 88  1  0  0  0  0
 20 59  1  0  0  0  0
 20 89  1  0  0  0  0
 21 60  1  0  0  0  0
 21 90  1  0  0  0  0
 22 61  1  0  0  0  0
 22 91  1  0  0  0  0
 23 62  1  0  0  0  0
 23 92  1  0  0  0  0
 24 65  1  0  0  0  0
 24 93  1  0  0  0  0
 25 66  1  0  0  0  0
 25 94  1  0  0  0  0
 26 67  1  0  0  0  0
 26 95  1  0  0  0  0
 27 28  1  0  0  0  0
 27 30  1  0  0  0  0
 27 68  1  0  0  0  0
 28 29  1  0  0  0  0
 28 69  1  0  0  0  0
 29 32  1  0  0  0  0
 29 70  1  0  0  0  0
 30 31  1  0  0  0  0
 30 71  1  0  0  0  0
 31 33  1  0  0  0  0
 31 36  2  0  0  0  0
 32 37  1  0  0  0  0
 32 72  1  0  0  0  0
 33 34  2  0  0  0  0
 33 35  1  0  0  0  0
 34 38  1  0  0  0  0
 34 39  1  0  0  0  0
 36 42  1  0  0  0  0
 37 73  1  0  0  0  0
 37 74  1  0  0  0  0
 38 40  1  0  0  0  0
 38 43  2  0  0  0  0
 39 42  2  0  0  0  0
 40 41  1  0  0  0  0
 40 45  2  0  0  0  0
 43 47  1  0  0  0  0
 44 46  1  0  0  0  0
 45 49  1  0  0  0  0
 45 76  1  0  0  0  0
 46 50  1  0  0  0  0
 46 55  2  0  0  0  0
 47 49  2  0  0  0  0
 48 54  1  0  0  0  0
 50 52  1  0  0  0  0
 50 57  2  0  0  0  0
 51 53  1  0  0  0  0
 52 56  2  0  0  0  0
 52 58  1  0  0  0  0
 53 56  1  0  0  0  0
 53 60  2  0  0  0  0
 54 63  2  0  0  0  0
 54 64  1  0  0  0  0
 55 59  1  0  0  0  0
 55 80  1  0  0  0  0
 56 82  1  0  0  0  0
 57 61  1  0  0  0  0
 58 62  2  0  0  0  0
 59 61  2  0  0  0  0
 60 62  1  0  0  0  0
 63 66  1  0  0  0  0
 63 85  1  0  0  0  0
 64 65  2  0  0  0  0
 64 86  1  0  0  0  0
 65 67  1  0  0  0  0
 66 67  2  0  0  0  0
M  END
>  <PUBCHEM_COMPOUND_CID>
131751061

>  <PUBCHEM_COMPOUND_CANONICALIZED>
1

>  <PUBCHEM_CACTVS_COMPLEXITY>
1880

>  <PUBCHEM_CACTVS_HBOND_ACCEPTOR>
26

>  <PUBCHEM_CACTVS_HBOND_DONOR>
16

>  <PUBCHEM_CACTVS_ROTATABLE_BOND>
4

>  <PUBCHEM_CACTVS_SUBSKEYS>
AAADceB8PgAAAAAAAAAAAAAAAAAAAAAAAAA0YMGDAAAAAACRVAAAGgAACAAADBSgmAIwDoAABgCIAiDSCAACAAAkIAAAiAEGiMgJNzaCNRqCcUEl4BULuYfK7PzOoAADCAAYQABAAAYQADCAAAAAAAAAAA==

>  <PUBCHEM_IUPAC_INCHI>
InChI=1S/C41H28O26/c42-12-1-7(2-13(43)24(12)48)37(58)64-16-6-63-38(59)11-3-8(22(46)32(56)23(11)47)17-9(4-14(44)25(49)27(17)51)39(60)65-34(16)36-35-31(55)21-20(41(62)66-35)19(29(53)33(57)30(21)54)18-10(40(61)67-36)5-15(45)26(50)28(18)52/h1-5,16,31,34-36,42-57H,6H2

>  <PUBCHEM_IUPAC_INCHIKEY>
PQTNAAUWLBNDQZ-UHFFFAOYSA-N

>  <PUBCHEM_EXACT_MASS>
936.087

>  <PUBCHEM_MOLECULAR_FORMULA>
C41H28O26

>  <PUBCHEM_MOLECULAR_WEIGHT>
936.649

>  <PUBCHEM_OPENEYE_CAN_SMILES>
C1C(C(OC(=O)C2=CC(=C(C(=C2C3=CC(=C(C(=C3O)O)O)C(=O)O1)O)O)O)C4C5C(C6=C(C(=C(C(=C6C(=O)O5)C7=C(C(=C(C=C7C(=O)O4)O)O)O)O)O)O)O)OC(=O)C8=CC(=C(C(=C8)O)O)O

>  <PUBCHEM_OPENEYE_ISO_SMILES>
C1C(C(OC(=O)C2=CC(=C(C(=C2C3=CC(=C(C(=C3O)O)O)C(=O)O1)O)O)O)C4C5C(C6=C(C(=C(C(=C6C(=O)O5)C7=C(C(=C(C=C7C(=O)O4)O)O)O)O)O)O)O)OC(=O)C8=CC(=C(C(=C8)O)O)O

>  <PUBCHEM_CACTVS_TPSA>
455

>  <PUBCHEM_MONOISOTOPIC_WEIGHT>
936.087

>  <PUBCHEM_TOTAL_CHARGE>
0

>  <PUBCHEM_HEAVY_ATOM_COUNT>
67

>  <PUBCHEM_ATOM_DEF_STEREO_COUNT>
0

>  <PUBCHEM_ATOM_UDEF_STEREO_COUNT>
5

>  <PUBCHEM_BOND_DEF_STEREO_COUNT>
0

>  <PUBCHEM_BOND_UDEF_STEREO_COUNT>
0

>  <PUBCHEM_ISOTOPIC_ATOM_COUNT>
0

>  <PUBCHEM_COMPONENT_COUNT>
1

>  <PUBCHEM_CACTVS_TAUTO_COUNT>
986

>  <PUBCHEM_COORDINATE_TYPE>
1
5
255

>  <PUBCHEM_BONDANNOTATIONS>
27  1  3
28  2  3
29  3  3
31  33  8
31  36  8
33  34  8
34  39  8
36  42  8
38  40  8
38  43  8
39  42  8
30  4  3
40  45  8
43  47  8
45  49  8
46  50  8
46  55  8
47  49  8
32  5  3
50  57  8
52  56  8
52  58  8
53  56  8
53  60  8
54  63  8
54  64  8
55  59  8
57  61  8
58  62  8
59  61  8
60  62  8
63  66  8
64  65  8
65  67  8
66  67  8

$$$$
