131752909
 OpenBabel06101807152D

 42 43  0  0  0  0  0  0  0  0999 V2000
    8.0622    0.1550    0.0000 O   0  0  0  0  0  0  0  0  0  0  0  0
    2.8660   -1.8450    0.0000 O   0  0  0  0  0  0  0  0  0  0  0  0
    4.5981   -2.8450    0.0000 O   0  0  0  0  0  0  0  0  0  0  0  0
    8.9282    1.6550    0.0000 N   0  0  0  0  0  0  0  0  0  0  0  0
   10.6603    2.6550    0.0000 C   0  0  0  0  0  0  0  0  0  0  0  0
   10.6603    1.6550    0.0000 C   0  0  0  0  0  0  0  0  0  0  0  0
    9.7942    3.1550    0.0000 C   0  0  0  0  0  0  0  0  0  0  0  0
    9.7942    1.1550    0.0000 C   0  0  0  0  0  0  0  0  0  0  0  0
    8.9282    2.6550    0.0000 C   0  0  0  0  0  0  0  0  0  0  0  0
    8.0622    1.1550    0.0000 C   0  0  0  0  0  0  0  0  0  0  0  0
    7.1962    1.6550    0.0000 C   0  0  0  0  0  0  0  0  0  0  0  0
    6.3301    1.1550    0.0000 C   0  0  0  0  0  0  0  0  0  0  0  0
    5.4641    1.6550    0.0000 C   0  0  0  0  0  0  0  0  0  0  0  0
    4.5981    0.1550    0.0000 C   0  0  0  0  0  0  0  0  0  0  0  0
    4.5981    1.1550    0.0000 C   0  0  0  0  0  0  0  0  0  0  0  0
    3.7320   -0.3450    0.0000 C   0  0  0  0  0  0  0  0  0  0  0  0
    5.4641   -0.3450    0.0000 C   0  0  0  0  0  0  0  0  0  0  0  0
    3.7320   -1.3450    0.0000 C   0  0  0  0  0  0  0  0  0  0  0  0
    4.5981   -1.8450    0.0000 C   0  0  0  0  0  0  0  0  0  0  0  0
    5.4641   -1.3450    0.0000 C   0  0  0  0  0  0  0  0  0  0  0  0
    2.0000   -1.3450    0.0000 C   0  0  0  0  0  0  0  0  0  0  0  0
   11.2708    2.5473    0.0000 H   0  0  0  0  0  0  0  0  0  0  0  0
   10.8723    3.2376    0.0000 H   0  0  0  0  0  0  0  0  0  0  0  0
   10.8723    1.0724    0.0000 H   0  0  0  0  0  0  0  0  0  0  0  0
   11.2708    1.7627    0.0000 H   0  0  0  0  0  0  0  0  0  0  0  0
   10.1928    3.6300    0.0000 H   0  0  0  0  0  0  0  0  0  0  0  0
    9.3957    3.6300    0.0000 H   0  0  0  0  0  0  0  0  0  0  0  0
    9.3957    0.6801    0.0000 H   0  0  0  0  0  0  0  0  0  0  0  0
    8.7162    3.2376    0.0000 H   0  0  0  0  0  0  0  0  0  0  0  0
    8.3176    2.5473    0.0000 H   0  0  0  0  0  0  0  0  0  0  0  0
   10.1928    0.6801    0.0000 H   0  0  0  0  0  0  0  0  0  0  0  0
    7.1962    2.2750    0.0000 H   0  0  0  0  0  0  0  0  0  0  0  0
    6.3301    0.5350    0.0000 H   0  0  0  0  0  0  0  0  0  0  0  0
    5.4641    2.2750    0.0000 H   0  0  0  0  0  0  0  0  0  0  0  0
    4.0611    1.4650    0.0000 H   0  0  0  0  0  0  0  0  0  0  0  0
    3.1951   -0.0350    0.0000 H   0  0  0  0  0  0  0  0  0  0  0  0
    6.0010   -0.0350    0.0000 H   0  0  0  0  0  0  0  0  0  0  0  0
    6.0010   -1.6550    0.0000 H   0  0  0  0  0  0  0  0  0  0  0  0
    5.1350   -3.1550    0.0000 H   0  0  0  0  0  0  0  0  0  0  0  0
    2.3100   -0.8081    0.0000 H   0  0  0  0  0  0  0  0  0  0  0  0
    1.4631   -1.0350    0.0000 H   0  0  0  0  0  0  0  0  0  0  0  0
    1.6900   -1.8819    0.0000 H   0  0  0  0  0  0  0  0  0  0  0  0
  1 10  2  0  0  0  0
  2 18  1  0  0  0  0
  2 21  1  0  0  0  0
  3 19  1  0  0  0  0
  3 39  1  0  0  0  0
  4  8  1  0  0  0  0
  4  9  1  0  0  0  0
  4 10  1  0  0  0  0
  5  6  1  0  0  0  0
  5  7  1  0  0  0  0
  5 22  1  0  0  0  0
  5 23  1  0  0  0  0
  6  8  1  0  0  0  0
  6 24  1  0  0  0  0
  6 25  1  0  0  0  0
  7  9  1  0  0  0  0
  7 26  1  0  0  0  0
  7 27  1  0  0  0  0
  8 28  1  0  0  0  0
  8 31  1  0  0  0  0
  9 29  1  0  0  0  0
  9 30  1  0  0  0  0
 10 11  1  0  0  0  0
 11 12  2  0  0  0  0
 11 32  1  0  0  0  0
 12 13  1  0  0  0  0
 12 33  1  0  0  0  0
 13 15  2  0  0  0  0
 13 34  1  0  0  0  0
 14 15  1  0  0  0  0
 14 16  2  0  0  0  0
 14 17  1  0  0  0  0
 15 35  1  0  0  0  0
 16 18  1  0  0  0  0
 16 36  1  0  0  0  0
 17 20  2  0  0  0  0
 17 37  1  0  0  0  0
 18 19  2  0  0  0  0
 19 20  1  0  0  0  0
 20 38  1  0  0  0  0
 21 40  1  0  0  0  0
 21 41  1  0  0  0  0
 21 42  1  0  0  0  0
M  END
>  <PUBCHEM_COMPOUND_CID>
131752909

>  <PUBCHEM_COMPOUND_CANONICALIZED>
1

>  <PUBCHEM_CACTVS_COMPLEXITY>
386

>  <PUBCHEM_CACTVS_HBOND_ACCEPTOR>
3

>  <PUBCHEM_CACTVS_HBOND_DONOR>
1

>  <PUBCHEM_CACTVS_ROTATABLE_BOND>
4

>  <PUBCHEM_CACTVS_SUBSKEYS>
AAADceB6MAAAAAAAAAAAAAAAAAAAAAAAAAA8QAAAAAAAAAABAAAAHgAACAAADATBmAYyBoMABgCIAiFSEACCCAAgIAAIiAAOiMgNJiKGsRqEcCMkxhGLuYeQwBAOIAABAAAAQABAAAIAAACAAAAAAAAAAA==

>  <PUBCHEM_IUPAC_OPENEYE_NAME>
(2E,4Z)-5-(4-hydroxy-3-methoxy-phenyl)-1-(1-piperidyl)penta-2,4-dien-1-one

>  <PUBCHEM_IUPAC_CAS_NAME>
(2E,4Z)-5-(4-hydroxy-3-methoxyphenyl)-1-(1-piperidinyl)-1-penta-2,4-dienone

>  <PUBCHEM_IUPAC_NAME>
(2E,4Z)-5-(4-hydroxy-3-methoxyphenyl)-1-piperidin-1-ylpenta-2,4-dien-1-one

>  <PUBCHEM_IUPAC_SYSTEMATIC_NAME>
(2E,4Z)-5-(3-methoxy-4-oxidanyl-phenyl)-1-piperidin-1-yl-penta-2,4-dien-1-one

>  <PUBCHEM_IUPAC_TRADITIONAL_NAME>
(2E,4Z)-5-(4-hydroxy-3-methoxy-phenyl)-1-piperidino-penta-2,4-dien-1-one

>  <PUBCHEM_IUPAC_INCHI>
InChI=1S/C17H21NO3/c1-21-16-13-14(9-10-15(16)19)7-3-4-8-17(20)18-11-5-2-6-12-18/h3-4,7-10,13,19H,2,5-6,11-12H2,1H3/b7-3-,8-4+

>  <PUBCHEM_IUPAC_INCHIKEY>
IUGIGWWOEYFTDM-KYPMKJFLSA-N

>  <PUBCHEM_EXACT_MASS>
287.152

>  <PUBCHEM_MOLECULAR_FORMULA>
C17H21NO3

>  <PUBCHEM_MOLECULAR_WEIGHT>
287.359

>  <PUBCHEM_OPENEYE_CAN_SMILES>
COC1=C(C=CC(=C1)C=CC=CC(=O)N2CCCCC2)O

>  <PUBCHEM_OPENEYE_ISO_SMILES>
COC1=C(C=CC(=C1)/C=C\C=C\C(=O)N2CCCCC2)O

>  <PUBCHEM_CACTVS_TPSA>
49.8

>  <PUBCHEM_MONOISOTOPIC_WEIGHT>
287.152

>  <PUBCHEM_TOTAL_CHARGE>
0

>  <PUBCHEM_HEAVY_ATOM_COUNT>
21

>  <PUBCHEM_ATOM_DEF_STEREO_COUNT>
0

>  <PUBCHEM_ATOM_UDEF_STEREO_COUNT>
0

>  <PUBCHEM_BOND_DEF_STEREO_COUNT>
2

>  <PUBCHEM_BOND_UDEF_STEREO_COUNT>
0

>  <PUBCHEM_ISOTOPIC_ATOM_COUNT>
0

>  <PUBCHEM_COMPONENT_COUNT>
1

>  <PUBCHEM_CACTVS_TAUTO_COUNT>
7

>  <PUBCHEM_COORDINATE_TYPE>
1
5
255

>  <PUBCHEM_BONDANNOTATIONS>
14  16  8
14  17  8
16  18  8
17  20  8
18  19  8
19  20  8

$$$$
