131751870
 OpenBabel06101807152D

 99101  0  0  1  0  0  0  0  0999 V2000
    5.4646   -1.3660    0.0000 O   0  0  0  0  0  0  0  0  0  0  0  0
    2.0000   -2.3660    0.0000 O   0  0  0  0  0  0  0  0  0  0  0  0
   20.0981    3.4641    0.0000 O   0  0  0  0  0  0  0  0  0  0  0  0
    4.5981   -0.8660    0.0000 C   0  0  3  0  0  0  0  0  0  0  0  0
    4.5981   -1.8660    0.0000 C   0  0  3  0  0  0  0  0  0  0  0  0
    3.7320   -0.3660    0.0000 C   0  0  0  0  0  0  0  0  0  0  0  0
    3.7320   -2.3660    0.0000 C   0  0  0  0  0  0  0  0  0  0  0  0
    2.8660   -0.8660    0.0000 C   0  0  0  0  0  0  0  0  0  0  0  0
    2.8660   -1.8660    0.0000 C   0  0  3  0  0  0  0  0  0  0  0  0
    4.5981   -2.8660    0.0000 C   0  0  0  0  0  0  0  0  0  0  0  0
    5.0981    0.0000    0.0000 C   0  0  0  0  0  0  0  0  0  0  0  0
    2.8660    0.1340    0.0000 C   0  0  0  0  0  0  0  0  0  0  0  0
    3.7320    0.6340    0.0000 C   0  0  0  0  0  0  0  0  0  0  0  0
    6.0981    0.0000    0.0000 C   0  0  0  0  0  0  0  0  0  0  0  0
    6.5981    0.8660    0.0000 C   0  0  0  0  0  0  0  0  0  0  0  0
    6.0981    1.7320    0.0000 C   0  0  0  0  0  0  0  0  0  0  0  0
    7.5981    0.8660    0.0000 C   0  0  0  0  0  0  0  0  0  0  0  0
    8.0981    0.0000    0.0000 C   0  0  0  0  0  0  0  0  0  0  0  0
   19.5981    0.8660    0.0000 C   0  0  0  0  0  0  0  0  0  0  0  0
    9.0981    0.0000    0.0000 C   0  0  0  0  0  0  0  0  0  0  0  0
   20.0981    1.7320    0.0000 C   0  0  0  0  0  0  0  0  0  0  0  0
   19.5981    2.5981    0.0000 C   0  0  3  0  0  0  0  0  0  0  0  0
   18.5981    0.8660    0.0000 C   0  0  0  0  0  0  0  0  0  0  0  0
   18.5981    2.5981    0.0000 C   0  0  0  0  0  0  0  0  0  0  0  0
   18.0981    1.7320    0.0000 C   0  0  0  0  0  0  0  0  0  0  0  0
   20.4641    0.3660    0.0000 C   0  0  0  0  0  0  0  0  0  0  0  0
   19.5981   -0.1340    0.0000 C   0  0  0  0  0  0  0  0  0  0  0  0
    9.5981   -0.8660    0.0000 C   0  0  0  0  0  0  0  0  0  0  0  0
   18.0981    0.0000    0.0000 C   0  0  0  0  0  0  0  0  0  0  0  0
   17.0981    1.7320    0.0000 C   0  0  0  0  0  0  0  0  0  0  0  0
    9.0981   -1.7320    0.0000 C   0  0  0  0  0  0  0  0  0  0  0  0
   10.5981   -0.8660    0.0000 C   0  0  0  0  0  0  0  0  0  0  0  0
   17.0981    0.0000    0.0000 C   0  0  0  0  0  0  0  0  0  0  0  0
   16.5981   -0.8660    0.0000 C   0  0  0  0  0  0  0  0  0  0  0  0
   11.0981   -1.7320    0.0000 C   0  0  0  0  0  0  0  0  0  0  0  0
   17.0981   -1.7320    0.0000 C   0  0  0  0  0  0  0  0  0  0  0  0
   15.5981   -0.8660    0.0000 C   0  0  0  0  0  0  0  0  0  0  0  0
   12.0981   -1.7320    0.0000 C   0  0  0  0  0  0  0  0  0  0  0  0
   15.0981   -1.7320    0.0000 C   0  0  0  0  0  0  0  0  0  0  0  0
   12.5981   -2.5981    0.0000 C   0  0  0  0  0  0  0  0  0  0  0  0
   14.0981   -1.7320    0.0000 C   0  0  0  0  0  0  0  0  0  0  0  0
   13.5981   -2.5981    0.0000 C   0  0  0  0  0  0  0  0  0  0  0  0
   14.0981   -3.4641    0.0000 C   0  0  0  0  0  0  0  0  0  0  0  0
    3.3335   -2.8410    0.0000 H   0  0  0  0  0  0  0  0  0  0  0  0
    4.1306   -2.8410    0.0000 H   0  0  0  0  0  0  0  0  0  0  0  0
    2.6540   -0.2834    0.0000 H   0  0  0  0  0  0  0  0  0  0  0  0
    2.2554   -0.9737    0.0000 H   0  0  0  0  0  0  0  0  0  0  0  0
    2.8660   -2.4860    0.0000 H   0  0  0  0  0  0  0  0  0  0  0  0
    3.9781   -2.8660    0.0000 H   0  0  0  0  0  0  0  0  0  0  0  0
    4.5981   -3.4860    0.0000 H   0  0  0  0  0  0  0  0  0  0  0  0
    5.2181   -2.8660    0.0000 H   0  0  0  0  0  0  0  0  0  0  0  0
    4.7881    0.5369    0.0000 H   0  0  0  0  0  0  0  0  0  0  0  0
    4.3520    0.6340    0.0000 H   0  0  0  0  0  0  0  0  0  0  0  0
    3.7320    1.2540    0.0000 H   0  0  0  0  0  0  0  0  0  0  0  0
    3.1760    0.6709    0.0000 H   0  0  0  0  0  0  0  0  0  0  0  0
    2.3291    0.4440    0.0000 H   0  0  0  0  0  0  0  0  0  0  0  0
    2.5560   -0.4030    0.0000 H   0  0  0  0  0  0  0  0  0  0  0  0
    3.1120    0.6340    0.0000 H   0  0  0  0  0  0  0  0  0  0  0  0
    2.0000   -2.9860    0.0000 H   0  0  0  0  0  0  0  0  0  0  0  0
    6.4081   -0.5369    0.0000 H   0  0  0  0  0  0  0  0  0  0  0  0
    6.6350    2.0420    0.0000 H   0  0  0  0  0  0  0  0  0  0  0  0
    5.7881    2.2690    0.0000 H   0  0  0  0  0  0  0  0  0  0  0  0
    5.5611    1.4220    0.0000 H   0  0  0  0  0  0  0  0  0  0  0  0
    7.9081    1.4030    0.0000 H   0  0  0  0  0  0  0  0  0  0  0  0
    7.7881   -0.5369    0.0000 H   0  0  0  0  0  0  0  0  0  0  0  0
    9.4081    0.5369    0.0000 H   0  0  0  0  0  0  0  0  0  0  0  0
   20.5730    1.3335    0.0000 H   0  0  0  0  0  0  0  0  0  0  0  0
   20.5730    2.1306    0.0000 H   0  0  0  0  0  0  0  0  0  0  0  0
   20.2181    2.5981    0.0000 H   0  0  0  0  0  0  0  0  0  0  0  0
   18.7057    3.2087    0.0000 H   0  0  0  0  0  0  0  0  0  0  0  0
   18.0155    2.8101    0.0000 H   0  0  0  0  0  0  0  0  0  0  0  0
   20.1541   -0.1709    0.0000 H   0  0  0  0  0  0  0  0  0  0  0  0
   21.0010    0.0560    0.0000 H   0  0  0  0  0  0  0  0  0  0  0  0
   20.7741    0.9030    0.0000 H   0  0  0  0  0  0  0  0  0  0  0  0
   18.9781   -0.1340    0.0000 H   0  0  0  0  0  0  0  0  0  0  0  0
   19.5981   -0.7540    0.0000 H   0  0  0  0  0  0  0  0  0  0  0  0
   20.2181   -0.1340    0.0000 H   0  0  0  0  0  0  0  0  0  0  0  0
   18.4081   -0.5369    0.0000 H   0  0  0  0  0  0  0  0  0  0  0  0
   17.0981    2.3521    0.0000 H   0  0  0  0  0  0  0  0  0  0  0  0
   16.4781    1.7320    0.0000 H   0  0  0  0  0  0  0  0  0  0  0  0
   17.0981    1.1120    0.0000 H   0  0  0  0  0  0  0  0  0  0  0  0
   20.7181    3.4641    0.0000 H   0  0  0  0  0  0  0  0  0  0  0  0
    8.5611   -1.4220    0.0000 H   0  0  0  0  0  0  0  0  0  0  0  0
    8.7881   -2.2690    0.0000 H   0  0  0  0  0  0  0  0  0  0  0  0
    9.6350   -2.0420    0.0000 H   0  0  0  0  0  0  0  0  0  0  0  0
   10.9081   -0.3291    0.0000 H   0  0  0  0  0  0  0  0  0  0  0  0
   16.7881    0.5369    0.0000 H   0  0  0  0  0  0  0  0  0  0  0  0
   10.7881   -2.2690    0.0000 H   0  0  0  0  0  0  0  0  0  0  0  0
   16.5611   -2.0420    0.0000 H   0  0  0  0  0  0  0  0  0  0  0  0
   17.4081   -2.2690    0.0000 H   0  0  0  0  0  0  0  0  0  0  0  0
   17.6350   -1.4220    0.0000 H   0  0  0  0  0  0  0  0  0  0  0  0
   15.2881   -0.3291    0.0000 H   0  0  0  0  0  0  0  0  0  0  0  0
   12.4081   -1.1951    0.0000 H   0  0  0  0  0  0  0  0  0  0  0  0
   15.4081   -2.2690    0.0000 H   0  0  0  0  0  0  0  0  0  0  0  0
   12.2881   -3.1350    0.0000 H   0  0  0  0  0  0  0  0  0  0  0  0
   13.7881   -1.1951    0.0000 H   0  0  0  0  0  0  0  0  0  0  0  0
   13.5611   -3.7741    0.0000 H   0  0  0  0  0  0  0  0  0  0  0  0
   14.4081   -4.0010    0.0000 H   0  0  0  0  0  0  0  0  0  0  0  0
   14.6350   -3.1541    0.0000 H   0  0  0  0  0  0  0  0  0  0  0  0
  1  4  1  0  0  0  0
  1  5  1  0  0  0  0
  2  9  1  0  0  0  0
  2 59  1  0  0  0  0
  3 22  1  0  0  0  0
  3 82  1  0  0  0  0
  4  5  1  0  0  0  0
  4  6  1  0  0  0  0
  4 11  1  0  0  0  0
  5  7  1  0  0  0  0
  5 10  1  0  0  0  0
  6  8  1  0  0  0  0
  6 12  1  0  0  0  0
  6 13  1  0  0  0  0
  7  9  1  0  0  0  0
  7 44  1  0  0  0  0
  7 45  1  0  0  0  0
  8  9  1  0  0  0  0
  8 46  1  0  0  0  0
  8 47  1  0  0  0  0
  9 48  1  0  0  0  0
 10 49  1  0  0  0  0
 10 50  1  0  0  0  0
 10 51  1  0  0  0  0
 11 14  2  0  0  0  0
 11 52  1  0  0  0  0
 12 55  1  0  0  0  0
 12 56  1  0  0  0  0
 12 57  1  0  0  0  0
 13 53  1  0  0  0  0
 13 54  1  0  0  0  0
 13 58  1  0  0  0  0
 14 15  1  0  0  0  0
 14 60  1  0  0  0  0
 15 16  1  0  0  0  0
 15 17  2  0  0  0  0
 16 61  1  0  0  0  0
 16 62  1  0  0  0  0
 16 63  1  0  0  0  0
 17 18  1  0  0  0  0
 17 64  1  0  0  0  0
 18 20  2  0  0  0  0
 18 65  1  0  0  0  0
 19 21  1  0  0  0  0
 19 23  1  0  0  0  0
 19 26  1  0  0  0  0
 19 27  1  0  0  0  0
 20 28  1  0  0  0  0
 20 66  1  0  0  0  0
 21 22  1  0  0  0  0
 21 67  1  0  0  0  0
 21 68  1  0  0  0  0
 22 24  1  0  0  0  0
 22 69  1  0  0  0  0
 23 25  2  0  0  0  0
 23 29  1  0  0  0  0
 24 25  1  0  0  0  0
 24 70  1  0  0  0  0
 24 71  1  0  0  0  0
 25 30  1  0  0  0  0
 26 72  1  0  0  0  0
 26 73  1  0  0  0  0
 26 74  1  0  0  0  0
 27 75  1  0  0  0  0
 27 76  1  0  0  0  0
 27 77  1  0  0  0  0
 28 31  1  0  0  0  0
 28 32  2  0  0  0  0
 29 33  2  0  0  0  0
 29 78  1  0  0  0  0
 30 79  1  0  0  0  0
 30 80  1  0  0  0  0
 30 81  1  0  0  0  0
 31 83  1  0  0  0  0
 31 84  1  0  0  0  0
 31 85  1  0  0  0  0
 32 35  1  0  0  0  0
 32 86  1  0  0  0  0
 33 34  1  0  0  0  0
 33 87  1  0  0  0  0
 34 36  1  0  0  0  0
 34 37  2  0  0  0  0
 35 38  2  0  0  0  0
 35 88  1  0  0  0  0
 36 89  1  0  0  0  0
 36 90  1  0  0  0  0
 36 91  1  0  0  0  0
 37 39  1  0  0  0  0
 37 92  1  0  0  0  0
 38 40  1  0  0  0  0
 38 93  1  0  0  0  0
 39 41  2  0  0  0  0
 39 94  1  0  0  0  0
 40 42  2  0  0  0  0
 40 95  1  0  0  0  0
 41 42  1  0  0  0  0
 41 96  1  0  0  0  0
 42 43  1  0  0  0  0
 43 97  1  0  0  0  0
 43 98  1  0  0  0  0
 43 99  1  0  0  0  0
M  END
>  <PUBCHEM_COMPOUND_CID>
131751870

>  <PUBCHEM_COMPOUND_CANONICALIZED>
1

>  <PUBCHEM_CACTVS_COMPLEXITY>
1330

>  <PUBCHEM_CACTVS_HBOND_ACCEPTOR>
3

>  <PUBCHEM_CACTVS_HBOND_DONOR>
2

>  <PUBCHEM_CACTVS_ROTATABLE_BOND>
10

>  <PUBCHEM_CACTVS_SUBSKEYS>
AAADcfB8MAAAAAAAAAAAAAAAEgAAAAAAAAAwQAAABIAAAAAAAAAAGgAACAAADlSggAICAAAABgCAAiBCAAAAAAAgAAAICAAAAAgIFAIAIQACUAAFwAAIoAPA4PQPgAAAAAAAAABCAAYQADAAAAAAAAAAAA==

>  <PUBCHEM_IUPAC_OPENEYE_NAME>
6-[(1E,3Z,5E,7E,9E,11Z,13E,15E,17E)-18-(4-hydroxy-2,6,6-trimethyl-cyclohexen-1-yl)-3,7,12,16-tetramethyl-octadeca-1,3,5,7,9,11,13,15,17-nonaenyl]-1,5,5-trimethyl-7-oxabicyclo[4.1.0]heptan-3-ol

>  <PUBCHEM_IUPAC_CAS_NAME>
6-[(1E,3Z,5E,7E,9E,11Z,13E,15E,17E)-18-(4-hydroxy-2,6,6-trimethyl-1-cyclohexenyl)-3,7,12,16-tetramethyloctadeca-1,3,5,7,9,11,13,15,17-nonaenyl]-1,5,5-trimethyl-7-oxabicyclo[4.1.0]heptan-3-ol

>  <PUBCHEM_IUPAC_NAME>
6-[(1E,3Z,5E,7E,9E,11Z,13E,15E,17E)-18-(4-hydroxy-2,6,6-trimethylcyclohexen-1-yl)-3,7,12,16-tetramethyloctadeca-1,3,5,7,9,11,13,15,17-nonaenyl]-1,5,5-trimethyl-7-oxabicyclo[4.1.0]heptan-3-ol

>  <PUBCHEM_IUPAC_SYSTEMATIC_NAME>
1,5,5-trimethyl-6-[(1E,3Z,5E,7E,9E,11Z,13E,15E,17E)-3,7,12,16-tetramethyl-18-(2,6,6-trimethyl-4-oxidanyl-cyclohexen-1-yl)octadeca-1,3,5,7,9,11,13,15,17-nonaenyl]-7-oxabicyclo[4.1.0]heptan-3-ol

>  <PUBCHEM_IUPAC_TRADITIONAL_NAME>
6-[(1E,3Z,5E,7E,9E,11Z,13E,15E,17E)-18-(4-hydroxy-2,6,6-trimethyl-cyclohexen-1-yl)-3,7,12,16-tetramethyl-octadeca-1,3,5,7,9,11,13,15,17-nonaenyl]-1,5,5-trimethyl-7-oxabicyclo[4.1.0]heptan-3-ol

>  <PUBCHEM_IUPAC_INCHI>
InChI=1S/C40H56O3/c1-29(17-13-19-31(3)21-22-36-33(5)25-34(41)26-37(36,6)7)15-11-12-16-30(2)18-14-20-32(4)23-24-40-38(8,9)27-35(42)28-39(40,10)43-40/h11-24,34-35,41-42H,25-28H2,1-10H3/b12-11+,17-13+,18-14+,22-21+,24-23+,29-15-,30-16+,31-19+,32-20-

>  <PUBCHEM_IUPAC_INCHIKEY>
OFNSUWBAQRCHAV-SPHDKFQHSA-N

>  <PUBCHEM_EXACT_MASS>
584.423

>  <PUBCHEM_MOLECULAR_FORMULA>
C40H56O3

>  <PUBCHEM_MOLECULAR_WEIGHT>
584.885

>  <PUBCHEM_OPENEYE_CAN_SMILES>
CC1=C(C(CC(C1)O)(C)C)C=CC(=CC=CC(=CC=CC=C(C)C=CC=C(C)C=CC23C(CC(CC2(O3)C)O)(C)C)C)C

>  <PUBCHEM_OPENEYE_ISO_SMILES>
CC1=C(C(CC(C1)O)(C)C)/C=C/C(=C/C=C/C(=C\C=C\C=C(/C)\C=C\C=C(\C)/C=C/C23C(CC(CC2(O3)C)O)(C)C)/C)/C

>  <PUBCHEM_CACTVS_TPSA>
53

>  <PUBCHEM_MONOISOTOPIC_WEIGHT>
584.423

>  <PUBCHEM_TOTAL_CHARGE>
0

>  <PUBCHEM_HEAVY_ATOM_COUNT>
43

>  <PUBCHEM_ATOM_DEF_STEREO_COUNT>
0

>  <PUBCHEM_ATOM_UDEF_STEREO_COUNT>
4

>  <PUBCHEM_BOND_DEF_STEREO_COUNT>
9

>  <PUBCHEM_BOND_UDEF_STEREO_COUNT>
0

>  <PUBCHEM_ISOTOPIC_ATOM_COUNT>
0

>  <PUBCHEM_COMPONENT_COUNT>
1

>  <PUBCHEM_CACTVS_TAUTO_COUNT>
437

>  <PUBCHEM_COORDINATE_TYPE>
1
5
255

>  <PUBCHEM_BONDANNOTATIONS>
9  2  3
22  3  3
4  11  3
5  10  3

$$$$
