131751989
 OpenBabel06101807152D

 64 65  0  0  1  0  0  0  0  0999 V2000
    6.0812   -3.9518    0.0000 O   0  0  0  0  0  0  0  0  0  0  0  0
    2.5369   -4.1471    0.0000 O   0  0  0  0  0  0  0  0  0  0  0  0
   11.1648    4.6471    0.0000 O   0  0  0  0  0  0  0  0  0  0  0  0
    5.1350   -3.6471    0.0000 C   0  0  3  0  0  0  0  0  0  0  0  0
    4.2690   -2.1471    0.0000 C   0  0  0  0  0  0  0  0  0  0  0  0
    5.1350   -2.6471    0.0000 C   0  0  0  0  0  0  0  0  0  0  0  0
    4.2690   -4.1471    0.0000 C   0  0  0  0  0  0  0  0  0  0  0  0
    3.4030   -2.6471    0.0000 C   0  0  0  0  0  0  0  0  0  0  0  0
    3.4030   -3.6471    0.0000 C   0  0  3  0  0  0  0  0  0  0  0  0
    6.0812   -2.3424    0.0000 C   0  0  0  0  0  0  0  0  0  0  0  0
    6.6648   -3.1471    0.0000 C   0  0  3  0  0  0  0  0  0  0  0  0
    5.1350   -4.6471    0.0000 C   0  0  0  0  0  0  0  0  0  0  0  0
    3.7690   -1.2811    0.0000 C   0  0  0  0  0  0  0  0  0  0  0  0
    4.7690   -1.2811    0.0000 C   0  0  0  0  0  0  0  0  0  0  0  0
    7.6648   -3.1471    0.0000 C   0  0  0  0  0  0  0  0  0  0  0  0
    8.1648   -4.0131    0.0000 C   0  0  0  0  0  0  0  0  0  0  0  0
    8.1648   -2.2811    0.0000 C   0  0  0  0  0  0  0  0  0  0  0  0
    7.6648   -1.4151    0.0000 C   0  0  0  0  0  0  0  0  0  0  0  0
    8.1648   -0.5490    0.0000 C   0  0  0  0  0  0  0  0  0  0  0  0
    7.6648    0.3170    0.0000 C   0  0  0  0  0  0  0  0  0  0  0  0
    6.6648    0.3170    0.0000 C   0  0  0  0  0  0  0  0  0  0  0  0
    8.1648    1.1830    0.0000 C   0  0  0  0  0  0  0  0  0  0  0  0
    7.6648    2.0490    0.0000 C   0  0  0  0  0  0  0  0  0  0  0  0
    8.1648    2.9151    0.0000 C   0  0  0  0  0  0  0  0  0  0  0  0
    9.1648    2.9151    0.0000 C   0  0  0  0  0  0  0  0  0  0  0  0
    9.6648    3.7811    0.0000 C   0  0  0  0  0  0  0  0  0  0  0  0
   10.6648    3.7811    0.0000 C   0  0  0  0  0  0  0  0  0  0  0  0
    9.1648    4.6471    0.0000 C   0  0  0  0  0  0  0  0  0  0  0  0
    3.8705   -4.6221    0.0000 H   0  0  0  0  0  0  0  0  0  0  0  0
    4.6675   -4.6221    0.0000 H   0  0  0  0  0  0  0  0  0  0  0  0
    3.1909   -2.0645    0.0000 H   0  0  0  0  0  0  0  0  0  0  0  0
    2.7924   -2.7548    0.0000 H   0  0  0  0  0  0  0  0  0  0  0  0
    3.4030   -4.2671    0.0000 H   0  0  0  0  0  0  0  0  0  0  0  0
    6.2738   -1.7531    0.0000 H   0  0  0  0  0  0  0  0  0  0  0  0
    6.9466   -3.6994    0.0000 H   0  0  0  0  0  0  0  0  0  0  0  0
    4.5150   -4.6471    0.0000 H   0  0  0  0  0  0  0  0  0  0  0  0
    5.1350   -5.2671    0.0000 H   0  0  0  0  0  0  0  0  0  0  0  0
    5.7550   -4.6471    0.0000 H   0  0  0  0  0  0  0  0  0  0  0  0
    5.3059   -1.5911    0.0000 H   0  0  0  0  0  0  0  0  0  0  0  0
    5.0790   -0.7442    0.0000 H   0  0  0  0  0  0  0  0  0  0  0  0
    4.2320   -0.9711    0.0000 H   0  0  0  0  0  0  0  0  0  0  0  0
    4.3059   -0.9711    0.0000 H   0  0  0  0  0  0  0  0  0  0  0  0
    3.4590   -0.7442    0.0000 H   0  0  0  0  0  0  0  0  0  0  0  0
    3.2320   -1.5911    0.0000 H   0  0  0  0  0  0  0  0  0  0  0  0
    2.0000   -3.8371    0.0000 H   0  0  0  0  0  0  0  0  0  0  0  0
    7.6279   -4.3231    0.0000 H   0  0  0  0  0  0  0  0  0  0  0  0
    8.4748   -4.5501    0.0000 H   0  0  0  0  0  0  0  0  0  0  0  0
    8.7018   -3.7031    0.0000 H   0  0  0  0  0  0  0  0  0  0  0  0
    8.7848   -2.2811    0.0000 H   0  0  0  0  0  0  0  0  0  0  0  0
    7.0448   -1.4151    0.0000 H   0  0  0  0  0  0  0  0  0  0  0  0
    8.7848   -0.5490    0.0000 H   0  0  0  0  0  0  0  0  0  0  0  0
    6.6648    0.9370    0.0000 H   0  0  0  0  0  0  0  0  0  0  0  0
    6.0448    0.3170    0.0000 H   0  0  0  0  0  0  0  0  0  0  0  0
    6.6648   -0.3030    0.0000 H   0  0  0  0  0  0  0  0  0  0  0  0
    8.7848    1.1830    0.0000 H   0  0  0  0  0  0  0  0  0  0  0  0
    7.0448    2.0490    0.0000 H   0  0  0  0  0  0  0  0  0  0  0  0
    7.8548    3.4520    0.0000 H   0  0  0  0  0  0  0  0  0  0  0  0
    9.4748    2.3781    0.0000 H   0  0  0  0  0  0  0  0  0  0  0  0
   10.5572    3.1705    0.0000 H   0  0  0  0  0  0  0  0  0  0  0  0
   11.2474    3.5690    0.0000 H   0  0  0  0  0  0  0  0  0  0  0  0
    9.7018    4.9571    0.0000 H   0  0  0  0  0  0  0  0  0  0  0  0
    8.8548    5.1840    0.0000 H   0  0  0  0  0  0  0  0  0  0  0  0
    8.6279    4.3371    0.0000 H   0  0  0  0  0  0  0  0  0  0  0  0
   11.7848    4.6471    0.0000 H   0  0  0  0  0  0  0  0  0  0  0  0
  1  4  1  0  0  0  0
  1 11  1  0  0  0  0
  2  9  1  0  0  0  0
  2 45  1  0  0  0  0
  3 27  1  0  0  0  0
  3 64  1  0  0  0  0
  4  6  1  0  0  0  0
  4  7  1  0  0  0  0
  4 12  1  0  0  0  0
  5  6  1  0  0  0  0
  5  8  1  0  0  0  0
  5 13  1  0  0  0  0
  5 14  1  0  0  0  0
  6 10  2  0  0  0  0
  7  9  1  0  0  0  0
  7 29  1  0  0  0  0
  7 30  1  0  0  0  0
  8  9  1  0  0  0  0
  8 31  1  0  0  0  0
  8 32  1  0  0  0  0
  9 33  1  0  0  0  0
 10 11  1  0  0  0  0
 10 34  1  0  0  0  0
 11 15  1  0  0  0  0
 11 35  1  0  0  0  0
 12 36  1  0  0  0  0
 12 37  1  0  0  0  0
 12 38  1  0  0  0  0
 13 42  1  0  0  0  0
 13 43  1  0  0  0  0
 13 44  1  0  0  0  0
 14 39  1  0  0  0  0
 14 40  1  0  0  0  0
 14 41  1  0  0  0  0
 15 16  1  0  0  0  0
 15 17  2  0  0  0  0
 16 46  1  0  0  0  0
 16 47  1  0  0  0  0
 16 48  1  0  0  0  0
 17 18  1  0  0  0  0
 17 49  1  0  0  0  0
 18 19  2  0  0  0  0
 18 50  1  0  0  0  0
 19 20  1  0  0  0  0
 19 51  1  0  0  0  0
 20 21  1  0  0  0  0
 20 22  2  0  0  0  0
 21 52  1  0  0  0  0
 21 53  1  0  0  0  0
 21 54  1  0  0  0  0
 22 23  1  0  0  0  0
 22 55  1  0  0  0  0
 23 24  2  0  0  0  0
 23 56  1  0  0  0  0
 24 25  1  0  0  0  0
 24 57  1  0  0  0  0
 25 26  2  0  0  0  0
 25 58  1  0  0  0  0
 26 27  1  0  0  0  0
 26 28  1  0  0  0  0
 27 59  1  0  0  0  0
 27 60  1  0  0  0  0
 28 61  1  0  0  0  0
 28 62  1  0  0  0  0
 28 63  1  0  0  0  0
M  END
>  <PUBCHEM_COMPOUND_CID>
131751989

>  <PUBCHEM_COMPOUND_CANONICALIZED>
1

>  <PUBCHEM_CACTVS_COMPLEXITY>
746

>  <PUBCHEM_CACTVS_HBOND_ACCEPTOR>
3

>  <PUBCHEM_CACTVS_HBOND_DONOR>
2

>  <PUBCHEM_CACTVS_ROTATABLE_BOND>
6

>  <PUBCHEM_CACTVS_SUBSKEYS>
AAADcfB4MAAAAAAAAAAAAAAAAAAAAQAAAAAwAAAAAAAAAEAAAAAAGgAACAAADlSggAICAAAABgCAAiBCAAAAAAAgAAAICAAAAAgIFAIAIQACUAAFgAAIsAOA4FwPAAAAAAAAAAAAAAYQAAAAAAAAAAAAAA==

>  <PUBCHEM_IUPAC_OPENEYE_NAME>
2-[(1Z,3E,5E,7Z,9E)-11-hydroxy-1,5,10-trimethyl-undeca-1,3,5,7,9-pentaenyl]-4,4,7a-trimethyl-2,5,6,7-tetrahydrobenzofuran-6-ol

>  <PUBCHEM_IUPAC_CAS_NAME>
2-[(2Z,4E,6E,8Z,10E)-12-hydroxy-6,11-dimethyldodeca-2,4,6,8,10-pentaen-2-yl]-4,4,7a-trimethyl-2,5,6,7-tetrahydrobenzofuran-6-ol

>  <PUBCHEM_IUPAC_NAME>
2-[(2Z,4E,6E,8Z,10E)-12-hydroxy-6,11-dimethyldodeca-2,4,6,8,10-pentaen-2-yl]-4,4,7a-trimethyl-2,5,6,7-tetrahydro-1-benzofuran-6-ol

>  <PUBCHEM_IUPAC_SYSTEMATIC_NAME>
2-[(2Z,4E,6E,8Z,10E)-6,11-dimethyl-12-oxidanyl-dodeca-2,4,6,8,10-pentaen-2-yl]-4,4,7a-trimethyl-2,5,6,7-tetrahydro-1-benzofuran-6-ol

>  <PUBCHEM_IUPAC_TRADITIONAL_NAME>
2-[(1Z,3E,5E,7Z,9E)-11-hydroxy-1,5,10-trimethyl-undeca-1,3,5,7,9-pentaenyl]-4,4,7a-trimethyl-2,5,6,7-tetrahydrobenzofuran-6-ol

>  <PUBCHEM_IUPAC_INCHI>
InChI=1S/C25H36O3/c1-18(10-7-8-11-19(2)17-26)12-9-13-20(3)22-14-23-24(4,5)15-21(27)16-25(23,6)28-22/h7-14,21-22,26-27H,15-17H2,1-6H3/b8-7-,12-9+,18-10+,19-11+,20-13-

>  <PUBCHEM_IUPAC_INCHIKEY>
MLVPRCYREVPVES-KWTPPHGWSA-N

>  <PUBCHEM_EXACT_MASS>
384.266

>  <PUBCHEM_MOLECULAR_FORMULA>
C25H36O3

>  <PUBCHEM_MOLECULAR_WEIGHT>
384.56

>  <PUBCHEM_OPENEYE_CAN_SMILES>
CC(=CC=CC=C(C)C=CC=C(C)C1C=C2C(CC(CC2(O1)C)O)(C)C)CO

>  <PUBCHEM_OPENEYE_ISO_SMILES>
C/C(=C\C=C/C=C(\C)/C=C/C=C(/C)\C1C=C2C(CC(CC2(O1)C)O)(C)C)/CO

>  <PUBCHEM_CACTVS_TPSA>
49.7

>  <PUBCHEM_MONOISOTOPIC_WEIGHT>
384.266

>  <PUBCHEM_TOTAL_CHARGE>
0

>  <PUBCHEM_HEAVY_ATOM_COUNT>
28

>  <PUBCHEM_ATOM_DEF_STEREO_COUNT>
0

>  <PUBCHEM_ATOM_UDEF_STEREO_COUNT>
3

>  <PUBCHEM_BOND_DEF_STEREO_COUNT>
5

>  <PUBCHEM_BOND_UDEF_STEREO_COUNT>
0

>  <PUBCHEM_ISOTOPIC_ATOM_COUNT>
0

>  <PUBCHEM_COMPONENT_COUNT>
1

>  <PUBCHEM_CACTVS_TAUTO_COUNT>
9

>  <PUBCHEM_COORDINATE_TYPE>
1
5
255

>  <PUBCHEM_BONDANNOTATIONS>
11  15  3
9  2  3
4  12  3

$$$$
