131752062
 OpenBabel06101807152D

 51 55  0  0  1  0  0  0  0  0999 V2000
    3.8201    3.5894    0.0000 O   0  0  0  0  0  0  0  0  0  0  0  0
    4.2841   -2.7229    0.0000 C   0  0  3  0  0  0  0  0  0  0  0  0
    3.2841   -2.7229    0.0000 C   0  0  3  0  0  0  0  0  0  0  0  0
    3.7841   -3.5894    0.0000 C   0  0  3  0  0  0  0  0  0  0  0  0
    3.7841   -1.1840    0.0000 C   0  0  3  0  0  0  0  0  0  0  0  0
    2.9180   -0.6840    0.0000 C   0  0  3  0  0  0  0  0  0  0  0  0
    4.5931   -1.7718    0.0000 C   0  0  0  0  0  0  0  0  0  0  0  0
    2.9750   -1.7718    0.0000 C   0  0  0  0  0  0  0  0  0  0  0  0
    2.5123   -2.3867    0.0000 C   0  0  0  0  0  0  0  0  0  0  0  0
    2.9180    0.3160    0.0000 C   0  0  3  0  0  0  0  0  0  0  0  0
    4.6501   -0.6840    0.0000 C   0  0  0  0  0  0  0  0  0  0  0  0
    5.2841   -2.7229    0.0000 C   0  0  0  0  0  0  0  0  0  0  0  0
    3.7841    0.8160    0.0000 C   0  0  3  0  0  0  0  0  0  0  0  0
    4.6501    0.3160    0.0000 C   0  0  0  0  0  0  0  0  0  0  0  0
    2.0080    0.8228    0.0000 C   0  0  0  0  0  0  0  0  0  0  0  0
    3.8001    1.8575    0.0000 C   0  0  3  0  0  0  0  0  0  0  0  0
    2.0520   -0.1840    0.0000 C   0  0  0  0  0  0  0  0  0  0  0  0
    2.0000    1.8644    0.0000 C   0  0  0  0  0  0  0  0  0  0  0  0
    2.9021    2.3852    0.0000 C   0  0  0  0  0  0  0  0  0  0  0  0
    4.8000    1.8459    0.0000 C   0  0  0  0  0  0  0  0  0  0  0  0
    4.3101    2.7177    0.0000 C   0  0  0  0  0  0  0  0  0  0  0  0
    2.7176   -2.9750    0.0000 H   0  0  0  0  0  0  0  0  0  0  0  0
    3.8736   -4.2029    0.0000 H   0  0  0  0  0  0  0  0  0  0  0  0
    2.3023   -0.6117    0.0000 H   0  0  0  0  0  0  0  0  0  0  0  0
    5.1595   -2.0240    0.0000 H   0  0  0  0  0  0  0  0  0  0  0  0
    4.9031   -1.2349    0.0000 H   0  0  0  0  0  0  0  0  0  0  0  0
    2.6650   -1.2349    0.0000 H   0  0  0  0  0  0  0  0  0  0  0  0
    2.4086   -2.0240    0.0000 H   0  0  0  0  0  0  0  0  0  0  0  0
    1.9433   -2.1405    0.0000 H   0  0  0  0  0  0  0  0  0  0  0  0
    2.1710   -2.9043    0.0000 H   0  0  0  0  0  0  0  0  0  0  0  0
    4.8621   -1.2666    0.0000 H   0  0  0  0  0  0  0  0  0  0  0  0
    5.2607   -0.5764    0.0000 H   0  0  0  0  0  0  0  0  0  0  0  0
    5.2841   -3.3429    0.0000 H   0  0  0  0  0  0  0  0  0  0  0  0
    5.9041   -2.7229    0.0000 H   0  0  0  0  0  0  0  0  0  0  0  0
    5.2841   -2.1029    0.0000 H   0  0  0  0  0  0  0  0  0  0  0  0
    4.3234    1.1218    0.0000 H   0  0  0  0  0  0  0  0  0  0  0  0
    5.2607    0.2083    0.0000 H   0  0  0  0  0  0  0  0  0  0  0  0
    4.8621    0.8986    0.0000 H   0  0  0  0  0  0  0  0  0  0  0  0
    1.3964    0.9242    0.0000 H   0  0  0  0  0  0  0  0  0  0  0  0
    1.8035    0.2375    0.0000 H   0  0  0  0  0  0  0  0  0  0  0  0
    1.7420    0.3529    0.0000 H   0  0  0  0  0  0  0  0  0  0  0  0
    1.5151   -0.4940    0.0000 H   0  0  0  0  0  0  0  0  0  0  0  0
    2.3620   -0.7210    0.0000 H   0  0  0  0  0  0  0  0  0  0  0  0
    1.7864    2.4465    0.0000 H   0  0  0  0  0  0  0  0  0  0  0  0
    1.3900    1.7536    0.0000 H   0  0  0  0  0  0  0  0  0  0  0  0
    3.3030    2.8581    0.0000 H   0  0  0  0  0  0  0  0  0  0  0  0
    2.5048    2.8612    0.0000 H   0  0  0  0  0  0  0  0  0  0  0  0
    4.7929    1.2260    0.0000 H   0  0  0  0  0  0  0  0  0  0  0  0
    5.4200    1.8387    0.0000 H   0  0  0  0  0  0  0  0  0  0  0  0
    4.8072    2.4659    0.0000 H   0  0  0  0  0  0  0  0  0  0  0  0
    4.9301    2.7105    0.0000 H   0  0  0  0  0  0  0  0  0  0  0  0
  1 21  2  0  0  0  0
  2  3  1  0  0  0  0
  2  4  1  0  0  0  0
  2  7  1  0  0  0  0
  2 12  1  0  0  0  0
  3  4  1  0  0  0  0
  3  8  1  0  0  0  0
  3 22  1  0  0  0  0
  4  9  1  0  0  0  0
  4 23  1  0  0  0  0
  5  6  1  0  0  0  0
  5  7  1  0  0  0  0
  5  8  1  0  0  0  0
  5 11  1  0  0  0  0
  6  9  1  0  0  0  0
  6 10  1  0  0  0  0
  6 24  1  0  0  0  0
  7 25  1  0  0  0  0
  7 26  1  0  0  0  0
  8 27  1  0  0  0  0
  8 28  1  0  0  0  0
  9 29  1  0  0  0  0
  9 30  1  0  0  0  0
 10 13  1  0  0  0  0
 10 15  1  0  0  0  0
 10 17  1  0  0  0  0
 11 14  1  0  0  0  0
 11 31  1  0  0  0  0
 11 32  1  0  0  0  0
 12 33  1  0  0  0  0
 12 34  1  0  0  0  0
 12 35  1  0  0  0  0
 13 14  1  0  0  0  0
 13 16  1  0  0  0  0
 13 36  1  0  0  0  0
 14 37  1  0  0  0  0
 14 38  1  0  0  0  0
 15 18  1  0  0  0  0
 15 39  1  0  0  0  0
 15 40  1  0  0  0  0
 16 19  1  0  0  0  0
 16 20  1  0  0  0  0
 16 21  1  0  0  0  0
 17 41  1  0  0  0  0
 17 42  1  0  0  0  0
 17 43  1  0  0  0  0
 18 19  1  0  0  0  0
 18 44  1  0  0  0  0
 18 45  1  0  0  0  0
 19 46  1  0  0  0  0
 19 47  1  0  0  0  0
 20 48  1  0  0  0  0
 20 49  1  0  0  0  0
 20 50  1  0  0  0  0
 21 51  1  0  0  0  0
M  END
>  <PUBCHEM_COMPOUND_CID>
131752062

>  <PUBCHEM_COMPOUND_CANONICALIZED>
1

>  <PUBCHEM_CACTVS_COMPLEXITY>
526

>  <PUBCHEM_CACTVS_HBOND_ACCEPTOR>
1

>  <PUBCHEM_CACTVS_HBOND_DONOR>
0

>  <PUBCHEM_CACTVS_ROTATABLE_BOND>
1

>  <PUBCHEM_CACTVS_SUBSKEYS>
AAADceB4IAAAAAAAAAAAAAAAGAAAAYAAAAAwYMGAAAAAAADAAAAAGgAAAAAADwCggAICAAAAAAAIAAgQgAAAAAAAAAAAAAEAAAAAABIAAAAAAAAAAAAAAAEIiMCPgAAAAAAAAACAAAQAACAAAQAACAAAAA==

>  <PUBCHEM_IUPAC_INCHI>
InChI=1S/C20H30O/c1-17(12-21)6-4-7-18(2)15(17)5-8-20-10-14-13(9-16(18)20)19(14,3)11-20/h12-16H,4-11H2,1-3H3

>  <PUBCHEM_IUPAC_INCHIKEY>
KHSBNJXREDZLMJ-UHFFFAOYSA-N

>  <PUBCHEM_EXACT_MASS>
286.23

>  <PUBCHEM_MOLECULAR_FORMULA>
C20H30O

>  <PUBCHEM_MOLECULAR_WEIGHT>
286.459

>  <PUBCHEM_OPENEYE_CAN_SMILES>
CC1(CCCC2(C1CCC34C2CC5C(C3)C5(C4)C)C)C=O

>  <PUBCHEM_OPENEYE_ISO_SMILES>
CC1(CCCC2(C1CCC34C2CC5C(C3)C5(C4)C)C)C=O

>  <PUBCHEM_CACTVS_TPSA>
17.1

>  <PUBCHEM_MONOISOTOPIC_WEIGHT>
286.23

>  <PUBCHEM_TOTAL_CHARGE>
0

>  <PUBCHEM_HEAVY_ATOM_COUNT>
21

>  <PUBCHEM_ATOM_DEF_STEREO_COUNT>
0

>  <PUBCHEM_ATOM_UDEF_STEREO_COUNT>
8

>  <PUBCHEM_BOND_DEF_STEREO_COUNT>
0

>  <PUBCHEM_BOND_UDEF_STEREO_COUNT>
0

>  <PUBCHEM_ISOTOPIC_ATOM_COUNT>
0

>  <PUBCHEM_COMPONENT_COUNT>
1

>  <PUBCHEM_CACTVS_TAUTO_COUNT>
1

>  <PUBCHEM_COORDINATE_TYPE>
1
5
255

>  <PUBCHEM_BONDANNOTATIONS>
10  17  3
13  14  3
16  20  3
2  12  3
3  8  3
4  9  3
5  11  3
6  9  3

$$$$
