131750938
 OpenBabel06101807152D

206211  0  0  1  0  0  0  0  0999 V2000
   19.3205   -1.7925    0.0000 O   0  0  0  0  0  0  0  0  0  0  0  0
   17.5885   -1.7925    0.0000 O   0  0  0  0  0  0  0  0  0  0  0  0
   17.5885   -4.7925    0.0000 O   0  0  0  0  0  0  0  0  0  0  0  0
   15.8564   -3.7925    0.0000 O   0  0  0  0  0  0  0  0  0  0  0  0
   18.4325    0.7733    0.0000 O   0  0  0  0  0  0  0  0  0  0  0  0
   19.3483    2.2766    0.0000 O   0  0  0  0  0  0  0  0  0  0  0  0
   19.3205   -3.7925    0.0000 O   0  0  0  0  0  0  0  0  0  0  0  0
   14.9904   -2.2925    0.0000 O   0  0  0  0  0  0  0  0  0  0  0  0
   16.2616   -5.9058    0.0000 O   0  0  0  0  0  0  0  0  0  0  0  0
   21.0765    1.2700    0.0000 O   0  0  0  0  0  0  0  0  0  0  0  0
   21.0904   -0.7616    0.0000 O   0  0  0  0  0  0  0  0  0  0  0  0
   17.5962    4.3181    0.0000 O   0  0  0  0  0  0  0  0  0  0  0  0
   19.3560    4.2766    0.0000 O   0  0  0  0  0  0  0  0  0  0  0  0
   14.1244   -4.7925    0.0000 O   0  0  0  0  0  0  0  0  0  0  0  0
   18.8741   -6.3246    0.0000 O   0  0  0  0  0  0  0  0  0  0  0  0
   12.3923   -1.7925    0.0000 O   0  0  0  0  0  0  0  0  0  0  0  0
   17.5959    1.2488    0.0000 O   0  0  0  0  0  0  0  0  0  0  0  0
   12.3923   -3.7925    0.0000 O   0  0  0  0  0  0  0  0  0  0  0  0
   18.1900   -8.2040    0.0000 O   0  0  0  0  0  0  0  0  0  0  0  0
   15.8181    2.2661    0.0000 O   0  0  0  0  0  0  0  0  0  0  0  0
   16.2203   -8.5513    0.0000 O   0  0  0  0  0  0  0  0  0  0  0  0
   20.1865   -2.2925    0.0000 O   0  0  0  0  0  0  0  0  0  0  0  0
   21.9367   -0.2334    0.0000 O   0  0  0  0  0  0  0  0  0  0  0  0
   11.5263   -3.2925    0.0000 O   0  0  0  0  0  0  0  0  0  0  0  0
   17.5885   -3.7925    0.0000 C   0  0  3  0  0  0  0  0  0  0  0  0
   16.7224   -3.2925    0.0000 C   0  0  3  0  0  0  0  0  0  0  0  0
   18.4545   -3.2925    0.0000 C   0  0  3  0  0  0  0  0  0  0  0  0
   18.4545   -2.2925    0.0000 C   0  0  3  0  0  0  0  0  0  0  0  0
   19.3205   -0.7925    0.0000 C   0  0  3  0  0  0  0  0  0  0  0  0
   16.7224   -2.2925    0.0000 C   0  0  3  0  0  0  0  0  0  0  0  0
   20.2206   -0.2682    0.0000 C   0  0  3  0  0  0  0  0  0  0  0  0
   18.4204   -0.2682    0.0000 C   0  0  3  0  0  0  0  0  0  0  0  0
   20.2085    0.7733    0.0000 C   0  0  3  0  0  0  0  0  0  0  0  0
   19.3444    1.2766    0.0000 C   0  0  3  0  0  0  0  0  0  0  0  0
   14.9904   -3.2925    0.0000 C   0  0  3  0  0  0  0  0  0  0  0  0
   17.2464   -5.7322    0.0000 C   0  0  3  0  0  0  0  0  0  0  0  0
   18.4842    2.7800    0.0000 C   0  0  3  0  0  0  0  0  0  0  0  0
   14.1244   -3.7925    0.0000 C   0  0  3  0  0  0  0  0  0  0  0  0
   17.8893   -6.4983    0.0000 C   0  0  3  0  0  0  0  0  0  0  0  0
   15.8564   -1.7925    0.0000 C   0  0  0  0  0  0  0  0  0  0  0  0
   17.5882    2.2488    0.0000 C   0  0  3  0  0  0  0  0  0  0  0  0
   13.2583   -3.2925    0.0000 C   0  0  3  0  0  0  0  0  0  0  0  0
   18.4881    3.7800    0.0000 C   0  0  3  0  0  0  0  0  0  0  0  0
   17.5472   -7.4380    0.0000 C   0  0  3  0  0  0  0  0  0  0  0  0
   13.2583   -2.2925    0.0000 C   0  0  3  0  0  0  0  0  0  0  0  0
   14.1244   -1.7925    0.0000 C   0  0  3  0  0  0  0  0  0  0  0  0
   17.5506   -0.7616    0.0000 C   0  0  0  0  0  0  0  0  0  0  0  0
   16.6841    2.7661    0.0000 C   0  0  3  0  0  0  0  0  0  0  0  0
   16.5624   -7.6116    0.0000 C   0  0  3  0  0  0  0  0  0  0  0  0
   15.9195   -6.8455    0.0000 C   0  0  3  0  0  0  0  0  0  0  0  0
   16.6881    3.8077    0.0000 C   0  0  3  0  0  0  0  0  0  0  0  0
   19.3599    5.2766    0.0000 C   0  0  3  0  0  0  0  0  0  0  0  0
   20.1865   -3.2925    0.0000 C   0  0  0  0  0  0  0  0  0  0  0  0
   14.1244   -0.7925    0.0000 C   0  0  0  0  0  0  0  0  0  0  0  0
   14.9347   -7.0191    0.0000 C   0  0  0  0  0  0  0  0  0  0  0  0
   15.8260    4.3144    0.0000 C   0  0  0  0  0  0  0  0  0  0  0  0
   20.2278    5.7733    0.0000 C   0  0  0  0  0  0  0  0  0  0  0  0
   21.9406    0.7666    0.0000 C   0  0  0  0  0  0  0  0  0  0  0  0
   18.4958    5.7800    0.0000 C   0  0  0  0  0  0  0  0  0  0  0  0
   21.0526   -3.7925    0.0000 C   0  0  0  0  0  0  0  0  0  0  0  0
   21.0919    5.2700    0.0000 C   0  0  0  0  0  0  0  0  0  0  0  0
   22.8085    1.2633    0.0000 C   0  0  0  0  0  0  0  0  0  0  0  0
   18.4996    6.7800    0.0000 C   0  0  0  0  0  0  0  0  0  0  0  0
   21.0526   -4.7925    0.0000 C   0  0  0  0  0  0  0  0  0  0  0  0
   21.9598    5.7666    0.0000 C   0  0  0  0  0  0  0  0  0  0  0  0
   22.8124    2.2633    0.0000 C   0  0  0  0  0  0  0  0  0  0  0  0
   11.5263   -2.2925    0.0000 C   0  0  0  0  0  0  0  0  0  0  0  0
   22.8239    5.2633    0.0000 C   0  0  0  0  0  0  0  0  0  0  0  0
   23.6803    2.7600    0.0000 C   0  0  0  0  0  0  0  0  0  0  0  0
   21.9186   -5.2925    0.0000 C   0  0  0  0  0  0  0  0  0  0  0  0
   17.6355    7.2833    0.0000 C   0  0  0  0  0  0  0  0  0  0  0  0
   22.8201    4.2633    0.0000 C   0  0  0  0  0  0  0  0  0  0  0  0
   23.6842    3.7599    0.0000 C   0  0  0  0  0  0  0  0  0  0  0  0
   10.6603   -1.7925    0.0000 C   0  0  0  0  0  0  0  0  0  0  0  0
   21.9186   -6.2925    0.0000 C   0  0  0  0  0  0  0  0  0  0  0  0
    9.7942   -2.2925    0.0000 C   0  0  0  0  0  0  0  0  0  0  0  0
   17.6394    8.2833    0.0000 C   0  0  0  0  0  0  0  0  0  0  0  0
   22.7846   -6.7925    0.0000 C   0  0  0  0  0  0  0  0  0  0  0  0
    8.9282   -1.7925    0.0000 C   0  0  0  0  0  0  0  0  0  0  0  0
   16.7753    8.7866    0.0000 C   0  0  0  0  0  0  0  0  0  0  0  0
    8.0622   -2.2925    0.0000 C   0  0  0  0  0  0  0  0  0  0  0  0
   22.7846   -7.7925    0.0000 C   0  0  0  0  0  0  0  0  0  0  0  0
    7.1962   -1.7925    0.0000 C   0  0  0  0  0  0  0  0  0  0  0  0
    6.3301   -2.2925    0.0000 C   0  0  0  0  0  0  0  0  0  0  0  0
   23.6506   -8.2925    0.0000 C   0  0  0  0  0  0  0  0  0  0  0  0
    5.4641   -1.7925    0.0000 C   0  0  0  0  0  0  0  0  0  0  0  0
    4.5981   -2.2925    0.0000 C   0  0  0  0  0  0  0  0  0  0  0  0
    3.7320   -1.7925    0.0000 C   0  0  0  0  0  0  0  0  0  0  0  0
    2.8660   -2.2925    0.0000 C   0  0  0  0  0  0  0  0  0  0  0  0
    2.0000   -1.7925    0.0000 C   0  0  0  0  0  0  0  0  0  0  0  0
   17.0515   -4.1025    0.0000 H   0  0  0  0  0  0  0  0  0  0  0  0
   16.1855   -2.9825    0.0000 H   0  0  0  0  0  0  0  0  0  0  0  0
   18.4545   -3.9125    0.0000 H   0  0  0  0  0  0  0  0  0  0  0  0
   18.4545   -1.6725    0.0000 H   0  0  0  0  0  0  0  0  0  0  0  0
   19.8580   -1.1015    0.0000 H   0  0  0  0  0  0  0  0  0  0  0  0
   16.7224   -1.6725    0.0000 H   0  0  0  0  0  0  0  0  0  0  0  0
   20.7545    0.0469    0.0000 H   0  0  0  0  0  0  0  0  0  0  0  0
   17.8865    0.0469    0.0000 H   0  0  0  0  0  0  0  0  0  0  0  0
   20.7467    0.4654    0.0000 H   0  0  0  0  0  0  0  0  0  0  0  0
   18.8111    1.5928    0.0000 H   0  0  0  0  0  0  0  0  0  0  0  0
   14.9904   -3.9125    0.0000 H   0  0  0  0  0  0  0  0  0  0  0  0
   16.8479   -5.2572    0.0000 H   0  0  0  0  0  0  0  0  0  0  0  0
   18.4866    2.1600    0.0000 H   0  0  0  0  0  0  0  0  0  0  0  0
   13.5874   -4.1025    0.0000 H   0  0  0  0  0  0  0  0  0  0  0  0
   18.2878   -6.9732    0.0000 H   0  0  0  0  0  0  0  0  0  0  0  0
   16.1664   -1.2556    0.0000 H   0  0  0  0  0  0  0  0  0  0  0  0
   15.3195   -1.4825    0.0000 H   0  0  0  0  0  0  0  0  0  0  0  0
   15.5464   -2.3295    0.0000 H   0  0  0  0  0  0  0  0  0  0  0  0
   18.1281    1.9440    0.0000 H   0  0  0  0  0  0  0  0  0  0  0  0
   12.7214   -2.9825    0.0000 H   0  0  0  0  0  0  0  0  0  0  0  0
   18.4952    4.3999    0.0000 H   0  0  0  0  0  0  0  0  0  0  0  0
   17.3352   -8.0206    0.0000 H   0  0  0  0  0  0  0  0  0  0  0  0
   12.7214   -2.6025    0.0000 H   0  0  0  0  0  0  0  0  0  0  0  0
   14.6613   -1.4825    0.0000 H   0  0  0  0  0  0  0  0  0  0  0  0
   16.1478    3.0771    0.0000 H   0  0  0  0  0  0  0  0  0  0  0  0
   17.2447   -0.2222    0.0000 H   0  0  0  0  0  0  0  0  0  0  0  0
   17.0113   -1.0674    0.0000 H   0  0  0  0  0  0  0  0  0  0  0  0
   17.8564   -1.3009    0.0000 H   0  0  0  0  0  0  0  0  0  0  0  0
   15.9518   -7.7193    0.0000 H   0  0  0  0  0  0  0  0  0  0  0  0
   15.5210   -6.3706    0.0000 H   0  0  0  0  0  0  0  0  0  0  0  0
   16.6941    4.4277    0.0000 H   0  0  0  0  0  0  0  0  0  0  0  0
   21.0952   -1.3815    0.0000 H   0  0  0  0  0  0  0  0  0  0  0  0
   18.8217    4.9687    0.0000 H   0  0  0  0  0  0  0  0  0  0  0  0
   14.7444   -0.7925    0.0000 H   0  0  0  0  0  0  0  0  0  0  0  0
   14.1244   -0.1725    0.0000 H   0  0  0  0  0  0  0  0  0  0  0  0
   13.5044   -0.7925    0.0000 H   0  0  0  0  0  0  0  0  0  0  0  0
   14.8271   -6.4086    0.0000 H   0  0  0  0  0  0  0  0  0  0  0  0
   14.3242   -7.1268    0.0000 H   0  0  0  0  0  0  0  0  0  0  0  0
   15.0424   -7.6297    0.0000 H   0  0  0  0  0  0  0  0  0  0  0  0
   16.1401    4.8489    0.0000 H   0  0  0  0  0  0  0  0  0  0  0  0
   15.2915    4.6285    0.0000 H   0  0  0  0  0  0  0  0  0  0  0  0
   15.5119    3.7799    0.0000 H   0  0  0  0  0  0  0  0  0  0  0  0
   13.5874   -5.1025    0.0000 H   0  0  0  0  0  0  0  0  0  0  0  0
   19.2726   -6.7995    0.0000 H   0  0  0  0  0  0  0  0  0  0  0  0
   20.6282    6.2467    0.0000 H   0  0  0  0  0  0  0  0  0  0  0  0
   19.8311    6.2498    0.0000 H   0  0  0  0  0  0  0  0  0  0  0  0
   17.0614    0.9347    0.0000 H   0  0  0  0  0  0  0  0  0  0  0  0
   12.3923   -4.4125    0.0000 H   0  0  0  0  0  0  0  0  0  0  0  0
   17.8856    5.8900    0.0000 H   0  0  0  0  0  0  0  0  0  0  0  0
   18.2815    5.1982    0.0000 H   0  0  0  0  0  0  0  0  0  0  0  0
   17.9780   -8.7866    0.0000 H   0  0  0  0  0  0  0  0  0  0  0  0
   21.6631   -3.9002    0.0000 H   0  0  0  0  0  0  0  0  0  0  0  0
   21.2646   -3.2099    0.0000 H   0  0  0  0  0  0  0  0  0  0  0  0
   15.2812    2.5761    0.0000 H   0  0  0  0  0  0  0  0  0  0  0  0
   15.6097   -8.6589    0.0000 H   0  0  0  0  0  0  0  0  0  0  0  0
   20.6915    4.7965    0.0000 H   0  0  0  0  0  0  0  0  0  0  0  0
   21.4886    4.7935    0.0000 H   0  0  0  0  0  0  0  0  0  0  0  0
   23.0183    0.6799    0.0000 H   0  0  0  0  0  0  0  0  0  0  0  0
   23.4195    1.3686    0.0000 H   0  0  0  0  0  0  0  0  0  0  0  0
   19.1098    6.6699    0.0000 H   0  0  0  0  0  0  0  0  0  0  0  0
   18.7139    7.3617    0.0000 H   0  0  0  0  0  0  0  0  0  0  0  0
   20.4420   -4.6849    0.0000 H   0  0  0  0  0  0  0  0  0  0  0  0
   20.8405   -5.3751    0.0000 H   0  0  0  0  0  0  0  0  0  0  0  0
   22.3602    6.2400    0.0000 H   0  0  0  0  0  0  0  0  0  0  0  0
   21.5631    6.2431    0.0000 H   0  0  0  0  0  0  0  0  0  0  0  0
   22.6026    2.8467    0.0000 H   0  0  0  0  0  0  0  0  0  0  0  0
   22.2014    2.1580    0.0000 H   0  0  0  0  0  0  0  0  0  0  0  0
   23.4341    5.1533    0.0000 H   0  0  0  0  0  0  0  0  0  0  0  0
   23.0382    5.8451    0.0000 H   0  0  0  0  0  0  0  0  0  0  0  0
   23.8901    2.1765    0.0000 H   0  0  0  0  0  0  0  0  0  0  0  0
   24.2913    2.8653    0.0000 H   0  0  0  0  0  0  0  0  0  0  0  0
   22.5292   -5.4002    0.0000 H   0  0  0  0  0  0  0  0  0  0  0  0
   22.1306   -4.7099    0.0000 H   0  0  0  0  0  0  0  0  0  0  0  0
   17.0254    7.3933    0.0000 H   0  0  0  0  0  0  0  0  0  0  0  0
   17.4212    6.7015    0.0000 H   0  0  0  0  0  0  0  0  0  0  0  0
   22.2099    4.3733    0.0000 H   0  0  0  0  0  0  0  0  0  0  0  0
   22.6058    3.6815    0.0000 H   0  0  0  0  0  0  0  0  0  0  0  0
   24.2943    3.6499    0.0000 H   0  0  0  0  0  0  0  0  0  0  0  0
   23.8985    4.3417    0.0000 H   0  0  0  0  0  0  0  0  0  0  0  0
   11.0588   -1.3176    0.0000 H   0  0  0  0  0  0  0  0  0  0  0  0
   10.2617   -1.3176    0.0000 H   0  0  0  0  0  0  0  0  0  0  0  0
   21.3080   -6.1849    0.0000 H   0  0  0  0  0  0  0  0  0  0  0  0
   21.7065   -6.8751    0.0000 H   0  0  0  0  0  0  0  0  0  0  0  0
    9.3957   -2.7675    0.0000 H   0  0  0  0  0  0  0  0  0  0  0  0
   10.1928   -2.7675    0.0000 H   0  0  0  0  0  0  0  0  0  0  0  0
   18.2495    8.1733    0.0000 H   0  0  0  0  0  0  0  0  0  0  0  0
   17.8537    8.8651    0.0000 H   0  0  0  0  0  0  0  0  0  0  0  0
   23.3952   -6.9002    0.0000 H   0  0  0  0  0  0  0  0  0  0  0  0
   22.9967   -6.2099    0.0000 H   0  0  0  0  0  0  0  0  0  0  0  0
    9.3267   -1.3176    0.0000 H   0  0  0  0  0  0  0  0  0  0  0  0
    8.5297   -1.3176    0.0000 H   0  0  0  0  0  0  0  0  0  0  0  0
   17.0874    9.3224    0.0000 H   0  0  0  0  0  0  0  0  0  0  0  0
   16.2396    9.0987    0.0000 H   0  0  0  0  0  0  0  0  0  0  0  0
   16.4632    8.2509    0.0000 H   0  0  0  0  0  0  0  0  0  0  0  0
    7.6636   -2.7675    0.0000 H   0  0  0  0  0  0  0  0  0  0  0  0
    8.4607   -2.7675    0.0000 H   0  0  0  0  0  0  0  0  0  0  0  0
   22.1740   -7.6849    0.0000 H   0  0  0  0  0  0  0  0  0  0  0  0
   22.5726   -8.3751    0.0000 H   0  0  0  0  0  0  0  0  0  0  0  0
    7.5947   -1.3176    0.0000 H   0  0  0  0  0  0  0  0  0  0  0  0
    6.7976   -1.3176    0.0000 H   0  0  0  0  0  0  0  0  0  0  0  0
    5.9316   -2.7675    0.0000 H   0  0  0  0  0  0  0  0  0  0  0  0
    6.7287   -2.7675    0.0000 H   0  0  0  0  0  0  0  0  0  0  0  0
   23.3406   -8.8295    0.0000 H   0  0  0  0  0  0  0  0  0  0  0  0
   24.1876   -8.6025    0.0000 H   0  0  0  0  0  0  0  0  0  0  0  0
   23.9606   -7.7556    0.0000 H   0  0  0  0  0  0  0  0  0  0  0  0
    5.8626   -1.3176    0.0000 H   0  0  0  0  0  0  0  0  0  0  0  0
    5.0656   -1.3176    0.0000 H   0  0  0  0  0  0  0  0  0  0  0  0
    4.1996   -2.7675    0.0000 H   0  0  0  0  0  0  0  0  0  0  0  0
    4.9966   -2.7675    0.0000 H   0  0  0  0  0  0  0  0  0  0  0  0
    4.1306   -1.3176    0.0000 H   0  0  0  0  0  0  0  0  0  0  0  0
    3.3335   -1.3176    0.0000 H   0  0  0  0  0  0  0  0  0  0  0  0
    2.4675   -2.7675    0.0000 H   0  0  0  0  0  0  0  0  0  0  0  0
    3.2646   -2.7675    0.0000 H   0  0  0  0  0  0  0  0  0  0  0  0
    2.3100   -1.2556    0.0000 H   0  0  0  0  0  0  0  0  0  0  0  0
    1.4631   -1.4825    0.0000 H   0  0  0  0  0  0  0  0  0  0  0  0
    1.6900   -2.3295    0.0000 H   0  0  0  0  0  0  0  0  0  0  0  0
  1 28  1  0  0  0  0
  1 29  1  0  0  0  0
  2 28  1  0  0  0  0
  2 30  1  0  0  0  0
  3 25  1  0  0  0  0
  3 36  1  0  0  0  0
  4 26  1  0  0  0  0
  4 35  1  0  0  0  0
  5 32  1  0  0  0  0
  5 34  1  0  0  0  0
  6 34  1  0  0  0  0
  6 37  1  0  0  0  0
  7 27  1  0  0  0  0
  7 53  1  0  0  0  0
  8 35  1  0  0  0  0
  8 46  1  0  0  0  0
  9 36  1  0  0  0  0
  9 50  1  0  0  0  0
 10 33  1  0  0  0  0
 10 58  1  0  0  0  0
 11 31  1  0  0  0  0
 11122  1  0  0  0  0
 12 43  1  0  0  0  0
 12 51  1  0  0  0  0
 13 43  1  0  0  0  0
 13 52  1  0  0  0  0
 14 38  1  0  0  0  0
 14133  1  0  0  0  0
 15 39  1  0  0  0  0
 15134  1  0  0  0  0
 16 45  1  0  0  0  0
 16 67  1  0  0  0  0
 17 41  1  0  0  0  0
 17137  1  0  0  0  0
 18 42  1  0  0  0  0
 18138  1  0  0  0  0
 19 44  1  0  0  0  0
 19141  1  0  0  0  0
 20 48  1  0  0  0  0
 20144  1  0  0  0  0
 21 49  1  0  0  0  0
 21145  1  0  0  0  0
 22 53  2  0  0  0  0
 23 58  2  0  0  0  0
 24 67  2  0  0  0  0
 25 26  1  0  0  0  0
 25 27  1  0  0  0  0
 25 91  1  0  0  0  0
 26 30  1  0  0  0  0
 26 92  1  0  0  0  0
 27 28  1  0  0  0  0
 27 93  1  0  0  0  0
 28 94  1  0  0  0  0
 29 31  1  0  0  0  0
 29 32  1  0  0  0  0
 29 95  1  0  0  0  0
 30 40  1  0  0  0  0
 30 96  1  0  0  0  0
 31 33  1  0  0  0  0
 31 97  1  0  0  0  0
 32 47  1  0  0  0  0
 32 98  1  0  0  0  0
 33 34  1  0  0  0  0
 33 99  1  0  0  0  0
 34100  1  0  0  0  0
 35 38  1  0  0  0  0
 35101  1  0  0  0  0
 36 39  1  0  0  0  0
 36102  1  0  0  0  0
 37 41  1  0  0  0  0
 37 43  1  0  0  0  0
 37103  1  0  0  0  0
 38 42  1  0  0  0  0
 38104  1  0  0  0  0
 39 44  1  0  0  0  0
 39105  1  0  0  0  0
 40106  1  0  0  0  0
 40107  1  0  0  0  0
 40108  1  0  0  0  0
 41 48  1  0  0  0  0
 41109  1  0  0  0  0
 42 45  1  0  0  0  0
 42110  1  0  0  0  0
 43111  1  0  0  0  0
 44 49  1  0  0  0  0
 44112  1  0  0  0  0
 45 46  1  0  0  0  0
 45113  1  0  0  0  0
 46 54  1  0  0  0  0
 46114  1  0  0  0  0
 47116  1  0  0  0  0
 47117  1  0  0  0  0
 47118  1  0  0  0  0
 48 51  1  0  0  0  0
 48115  1  0  0  0  0
 49 50  1  0  0  0  0
 49119  1  0  0  0  0
 50 55  1  0  0  0  0
 50120  1  0  0  0  0
 51 56  1  0  0  0  0
 51121  1  0  0  0  0
 52 57  1  0  0  0  0
 52 59  1  0  0  0  0
 52123  1  0  0  0  0
 53 60  1  0  0  0  0
 54124  1  0  0  0  0
 54125  1  0  0  0  0
 54126  1  0  0  0  0
 55127  1  0  0  0  0
 55128  1  0  0  0  0
 55129  1  0  0  0  0
 56130  1  0  0  0  0
 56131  1  0  0  0  0
 56132  1  0  0  0  0
 57 61  1  0  0  0  0
 57135  1  0  0  0  0
 57136  1  0  0  0  0
 58 62  1  0  0  0  0
 59 63  1  0  0  0  0
 59139  1  0  0  0  0
 59140  1  0  0  0  0
 60 64  1  0  0  0  0
 60142  1  0  0  0  0
 60143  1  0  0  0  0
 61 65  1  0  0  0  0
 61146  1  0  0  0  0
 61147  1  0  0  0  0
 62 66  1  0  0  0  0
 62148  1  0  0  0  0
 62149  1  0  0  0  0
 63 71  1  0  0  0  0
 63150  1  0  0  0  0
 63151  1  0  0  0  0
 64 70  1  0  0  0  0
 64152  1  0  0  0  0
 64153  1  0  0  0  0
 65 68  1  0  0  0  0
 65154  1  0  0  0  0
 65155  1  0  0  0  0
 66 69  1  0  0  0  0
 66156  1  0  0  0  0
 66157  1  0  0  0  0
 67 74  1  0  0  0  0
 68 72  1  0  0  0  0
 68158  1  0  0  0  0
 68159  1  0  0  0  0
 69 73  1  0  0  0  0
 69160  1  0  0  0  0
 69161  1  0  0  0  0
 70 75  1  0  0  0  0
 70162  1  0  0  0  0
 70163  1  0  0  0  0
 71 77  1  0  0  0  0
 71164  1  0  0  0  0
 71165  1  0  0  0  0
 72 73  1  0  0  0  0
 72166  1  0  0  0  0
 72167  1  0  0  0  0
 73168  1  0  0  0  0
 73169  1  0  0  0  0
 74 76  1  0  0  0  0
 74170  1  0  0  0  0
 74171  1  0  0  0  0
 75 78  1  0  0  0  0
 75172  1  0  0  0  0
 75173  1  0  0  0  0
 76 79  1  0  0  0  0
 76174  1  0  0  0  0
 76175  1  0  0  0  0
 77 80  1  0  0  0  0
 77176  1  0  0  0  0
 77177  1  0  0  0  0
 78 82  1  0  0  0  0
 78178  1  0  0  0  0
 78179  1  0  0  0  0
 79 81  1  0  0  0  0
 79180  1  0  0  0  0
 79181  1  0  0  0  0
 80182  1  0  0  0  0
 80183  1  0  0  0  0
 80184  1  0  0  0  0
 81 83  1  0  0  0  0
 81185  1  0  0  0  0
 81186  1  0  0  0  0
 82 85  1  0  0  0  0
 82187  1  0  0  0  0
 82188  1  0  0  0  0
 83 84  1  0  0  0  0
 83189  1  0  0  0  0
 83190  1  0  0  0  0
 84 86  1  0  0  0  0
 84191  1  0  0  0  0
 84192  1  0  0  0  0
 85193  1  0  0  0  0
 85194  1  0  0  0  0
 85195  1  0  0  0  0
 86 87  1  0  0  0  0
 86196  1  0  0  0  0
 86197  1  0  0  0  0
 87 88  1  0  0  0  0
 87198  1  0  0  0  0
 87199  1  0  0  0  0
 88 89  1  0  0  0  0
 88200  1  0  0  0  0
 88201  1  0  0  0  0
 89 90  1  0  0  0  0
 89202  1  0  0  0  0
 89203  1  0  0  0  0
 90204  1  0  0  0  0
 90205  1  0  0  0  0
 90206  1  0  0  0  0
M  END
>  <PUBCHEM_COMPOUND_CID>
131750938

>  <PUBCHEM_COMPOUND_CANONICALIZED>
1

>  <PUBCHEM_CACTVS_COMPLEXITY>
2030

>  <PUBCHEM_CACTVS_HBOND_ACCEPTOR>
24

>  <PUBCHEM_CACTVS_HBOND_DONOR>
8

>  <PUBCHEM_CACTVS_ROTATABLE_BOND>
30

>  <PUBCHEM_CACTVS_SUBSKEYS>
AAADcfB8PgAAAAAAAAAAAAAAAAAAAAAAAAAkSJEiQAAAAAAAAAAAGgAACAAACBSwgAMCCAAABgAIAACQCAAAAAAAAAAAAAEAAAAREBIAAAAiQAAFAAAHAAHI6KyAAAAAAAAAAAAAAAAAAAAAAAAAAAAAAA==

>  <PUBCHEM_IUPAC_INCHI>
InChI=1S/C66H116O24/c1-9-12-15-17-18-19-22-26-31-35-44(67)84-55-40(6)80-63(53(76)51(55)74)88-57-42(8)82-66(61(86-46(69)37-30-24-16-13-10-2)60(57)90-62-52(75)49(72)47(70)38(4)78-62)87-56-41(7)81-65-59(54(56)77)85-45(68)36-32-27-23-20-21-25-29-34-43(33-28-14-11-3)83-64-58(89-65)50(73)48(71)39(5)79-64/h38-43,47-66,70-77H,9-37H2,1-8H3

>  <PUBCHEM_IUPAC_INCHIKEY>
NQDAYVPCMIYPCA-UHFFFAOYSA-N

>  <PUBCHEM_EXACT_MASS>
1292.786

>  <PUBCHEM_MOLECULAR_FORMULA>
C66H116O24

>  <PUBCHEM_MOLECULAR_WEIGHT>
1293.63

>  <PUBCHEM_OPENEYE_CAN_SMILES>
CCCCCCCCCCCC(=O)OC1C(OC(C(C1O)O)OC2C(OC(C(C2OC3C(C(C(C(O3)C)O)O)O)OC(=O)CCCCCCC)OC4C(OC5C(C4O)OC(=O)CCCCCCCCCC(OC6C(O5)C(C(C(O6)C)O)O)CCCCC)C)C)C

>  <PUBCHEM_OPENEYE_ISO_SMILES>
CCCCCCCCCCCC(=O)OC1C(OC(C(C1O)O)OC2C(OC(C(C2OC3C(C(C(C(O3)C)O)O)O)OC(=O)CCCCCCC)OC4C(OC5C(C4O)OC(=O)CCCCCCCCCC(OC6C(O5)C(C(C(O6)C)O)O)CCCCC)C)C)C

>  <PUBCHEM_CACTVS_TPSA>
333

>  <PUBCHEM_MONOISOTOPIC_WEIGHT>
1292.786

>  <PUBCHEM_TOTAL_CHARGE>
0

>  <PUBCHEM_HEAVY_ATOM_COUNT>
90

>  <PUBCHEM_ATOM_DEF_STEREO_COUNT>
0

>  <PUBCHEM_ATOM_UDEF_STEREO_COUNT>
26

>  <PUBCHEM_BOND_DEF_STEREO_COUNT>
0

>  <PUBCHEM_BOND_UDEF_STEREO_COUNT>
0

>  <PUBCHEM_ISOTOPIC_ATOM_COUNT>
0

>  <PUBCHEM_COMPONENT_COUNT>
1

>  <PUBCHEM_CACTVS_TAUTO_COUNT>
1

>  <PUBCHEM_COORDINATE_TYPE>
1
5
255

>  <PUBCHEM_BONDANNOTATIONS>
28  1  3
29  1  3
33  10  3
31  11  3
43  12  3
38  14  3
39  15  3
45  16  3
41  17  3
42  18  3
44  19  3
48  20  3
49  21  3
25  3  3
36  3  3
30  40  3
32  47  3
26  4  3
35  4  3
46  54  3
34  5  3
50  55  3
51  56  3
52  59  3
37  6  3
27  7  3

$$$$
