131752855
 OpenBabel06101807152D

 56 59  0  0  1  0  0  0  0  0999 V2000
    4.2690   -1.3729    0.0000 O   0  0  0  0  0  0  0  0  0  0  0  0
    6.0010   -1.3729    0.0000 O   0  0  0  0  0  0  0  0  0  0  0  0
    4.2690   -4.3729    0.0000 O   0  0  0  0  0  0  0  0  0  0  0  0
    2.5369   -3.3729    0.0000 O   0  0  0  0  0  0  0  0  0  0  0  0
    6.0010   -3.3729    0.0000 O   0  0  0  0  0  0  0  0  0  0  0  0
    7.7570    1.6896    0.0000 O   0  0  0  0  0  0  0  0  0  0  0  0
    6.9006    4.1929    0.0000 O   0  0  0  0  0  0  0  0  0  0  0  0
    4.2548    1.7062    0.0000 O   0  0  0  0  0  0  0  0  0  0  0  0
    5.1647    3.1996    0.0000 O   0  0  0  0  0  0  0  0  0  0  0  0
   11.2326    4.6762    0.0000 O   0  0  0  0  0  0  0  0  0  0  0  0
    4.2690   -3.3729    0.0000 C   0  0  3  0  0  0  0  0  0  0  0  0
    3.4030   -2.8729    0.0000 C   0  0  3  0  0  0  0  0  0  0  0  0
    5.1350   -2.8729    0.0000 C   0  0  3  0  0  0  0  0  0  0  0  0
    3.4030   -1.8729    0.0000 C   0  0  3  0  0  0  0  0  0  0  0  0
    5.1350   -1.8729    0.0000 C   0  0  3  0  0  0  0  0  0  0  0  0
    2.5369   -1.3729    0.0000 C   0  0  0  0  0  0  0  0  0  0  0  0
    7.7609    2.6896    0.0000 C   0  0  3  0  0  0  0  0  0  0  0  0
    6.0010   -0.3729    0.0000 C   0  0  0  0  0  0  0  0  0  0  0  0
    6.8968    3.1929    0.0000 C   0  0  3  0  0  0  0  0  0  0  0  0
    6.8891    1.1930    0.0000 C   0  0  0  0  0  0  0  0  0  0  0  0
    6.0250    1.6963    0.0000 C   0  0  0  0  0  0  0  0  0  0  0  0
    6.9011    0.1514    0.0000 C   0  0  0  0  0  0  0  0  0  0  0  0
    6.0288    2.6963    0.0000 C   0  0  0  0  0  0  0  0  0  0  0  0
    5.1010    0.1514    0.0000 C   0  0  0  0  0  0  0  0  0  0  0  0
    8.6288    3.1862    0.0000 C   0  0  0  0  0  0  0  0  0  0  0  0
    5.1130    1.1930    0.0000 C   0  0  0  0  0  0  0  0  0  0  0  0
    8.6327    4.1862    0.0000 C   0  0  0  0  0  0  0  0  0  0  0  0
    9.4929    2.6829    0.0000 C   0  0  0  0  0  0  0  0  0  0  0  0
    9.5006    4.6829    0.0000 C   0  0  0  0  0  0  0  0  0  0  0  0
   10.3608    3.1796    0.0000 C   0  0  0  0  0  0  0  0  0  0  0  0
   10.3647    4.1796    0.0000 C   0  0  0  0  0  0  0  0  0  0  0  0
   12.0967    4.1729    0.0000 C   0  0  0  0  0  0  0  0  0  0  0  0
    3.7320   -3.6829    0.0000 H   0  0  0  0  0  0  0  0  0  0  0  0
    3.4030   -3.4929    0.0000 H   0  0  0  0  0  0  0  0  0  0  0  0
    5.1350   -3.4929    0.0000 H   0  0  0  0  0  0  0  0  0  0  0  0
    3.4030   -1.2529    0.0000 H   0  0  0  0  0  0  0  0  0  0  0  0
    5.1350   -1.2529    0.0000 H   0  0  0  0  0  0  0  0  0  0  0  0
    2.8469   -0.8360    0.0000 H   0  0  0  0  0  0  0  0  0  0  0  0
    2.0000   -1.0629    0.0000 H   0  0  0  0  0  0  0  0  0  0  0  0
    2.2269   -1.9098    0.0000 H   0  0  0  0  0  0  0  0  0  0  0  0
    3.7320   -4.6829    0.0000 H   0  0  0  0  0  0  0  0  0  0  0  0
    2.0000   -3.0629    0.0000 H   0  0  0  0  0  0  0  0  0  0  0  0
    7.7632    3.3096    0.0000 H   0  0  0  0  0  0  0  0  0  0  0  0
    6.0010   -3.9929    0.0000 H   0  0  0  0  0  0  0  0  0  0  0  0
    6.3610    3.5050    0.0000 H   0  0  0  0  0  0  0  0  0  0  0  0
    7.4404   -0.1545    0.0000 H   0  0  0  0  0  0  0  0  0  0  0  0
    4.5617   -0.1545    0.0000 H   0  0  0  0  0  0  0  0  0  0  0  0
    8.0969    4.4983    0.0000 H   0  0  0  0  0  0  0  0  0  0  0  0
    9.4905    2.0629    0.0000 H   0  0  0  0  0  0  0  0  0  0  0  0
    6.3649    4.5050    0.0000 H   0  0  0  0  0  0  0  0  0  0  0  0
    9.5030    5.3029    0.0000 H   0  0  0  0  0  0  0  0  0  0  0  0
   10.8966    2.8675    0.0000 H   0  0  0  0  0  0  0  0  0  0  0  0
    3.7132    1.4046    0.0000 H   0  0  0  0  0  0  0  0  0  0  0  0
   11.7847    3.6372    0.0000 H   0  0  0  0  0  0  0  0  0  0  0  0
   12.6325    3.8608    0.0000 H   0  0  0  0  0  0  0  0  0  0  0  0
   12.4088    4.7086    0.0000 H   0  0  0  0  0  0  0  0  0  0  0  0
  1 14  1  0  0  0  0
  1 15  1  0  0  0  0
  2 15  1  0  0  0  0
  2 18  1  0  0  0  0
  3 11  1  0  0  0  0
  3 41  1  0  0  0  0
  4 12  1  0  0  0  0
  4 42  1  0  0  0  0
  5 13  1  0  0  0  0
  5 44  1  0  0  0  0
  6 17  1  0  0  0  0
  6 20  1  0  0  0  0
  7 19  1  0  0  0  0
  7 50  1  0  0  0  0
  8 26  1  0  0  0  0
  8 53  1  0  0  0  0
  9 23  2  0  0  0  0
 10 31  1  0  0  0  0
 10 32  1  0  0  0  0
 11 12  1  0  0  0  0
 11 13  1  0  0  0  0
 11 33  1  0  0  0  0
 12 14  1  0  0  0  0
 12 34  1  0  0  0  0
 13 15  1  0  0  0  0
 13 35  1  0  0  0  0
 14 16  1  0  0  0  0
 14 36  1  0  0  0  0
 15 37  1  0  0  0  0
 16 38  1  0  0  0  0
 16 39  1  0  0  0  0
 16 40  1  0  0  0  0
 17 19  1  0  0  0  0
 17 25  1  0  0  0  0
 17 43  1  0  0  0  0
 18 22  1  0  0  0  0
 18 24  2  0  0  0  0
 19 23  1  0  0  0  0
 19 45  1  0  0  0  0
 20 21  1  0  0  0  0
 20 22  2  0  0  0  0
 21 23  1  0  0  0  0
 21 26  2  0  0  0  0
 22 46  1  0  0  0  0
 24 26  1  0  0  0  0
 24 47  1  0  0  0  0
 25 27  2  0  0  0  0
 25 28  1  0  0  0  0
 27 29  1  0  0  0  0
 27 48  1  0  0  0  0
 28 30  2  0  0  0  0
 28 49  1  0  0  0  0
 29 31  2  0  0  0  0
 29 51  1  0  0  0  0
 30 31  1  0  0  0  0
 30 52  1  0  0  0  0
 32 54  1  0  0  0  0
 32 55  1  0  0  0  0
 32 56  1  0  0  0  0
M  END
>  <PUBCHEM_COMPOUND_CID>
131752855

>  <PUBCHEM_COMPOUND_CANONICALIZED>
1

>  <PUBCHEM_CACTVS_COMPLEXITY>
653

>  <PUBCHEM_CACTVS_HBOND_ACCEPTOR>
10

>  <PUBCHEM_CACTVS_HBOND_DONOR>
5

>  <PUBCHEM_CACTVS_ROTATABLE_BOND>
4

>  <PUBCHEM_CACTVS_SUBSKEYS>
AAADceB4PAAAAAAAAAAAAAAAAAAAAAAAAAA0aIEAAAAAAACRQAAAGgAACAAADBSwmAMyDoAABgCIAqBSAAICCAAkIAAIiAFGCMgdNzaGNRqieWCl4BUPuQfI7OzOIAAACAAIAABAAAAQABAAAAAAAAAAAA==

>  <PUBCHEM_IUPAC_OPENEYE_NAME>
3,5-dihydroxy-2-(4-methoxyphenyl)-7-(3,4,5-trihydroxy-6-methyl-tetrahydropyran-2-yl)oxy-chroman-4-one

>  <PUBCHEM_IUPAC_CAS_NAME>
3,5-dihydroxy-2-(4-methoxyphenyl)-7-[(3,4,5-trihydroxy-6-methyl-2-oxanyl)oxy]-3,4-dihydro-2H-1-benzopyran-4-one

>  <PUBCHEM_IUPAC_NAME>
3,5-dihydroxy-2-(4-methoxyphenyl)-7-(3,4,5-trihydroxy-6-methyloxan-2-yl)oxy-2,3-dihydrochromen-4-one

>  <PUBCHEM_IUPAC_SYSTEMATIC_NAME>
2-(4-methoxyphenyl)-7-[6-methyl-3,4,5-tris(oxidanyl)oxan-2-yl]oxy-3,5-bis(oxidanyl)-2,3-dihydrochromen-4-one

>  <PUBCHEM_IUPAC_TRADITIONAL_NAME>
3,5-dihydroxy-2-(4-methoxyphenyl)-7-(3,4,5-trihydroxy-6-methyl-tetrahydropyran-2-yl)oxy-chroman-4-one

>  <PUBCHEM_IUPAC_INCHI>
InChI=1S/C22H24O10/c1-9-16(24)18(26)20(28)22(30-9)31-12-7-13(23)15-14(8-12)32-21(19(27)17(15)25)10-3-5-11(29-2)6-4-10/h3-9,16,18-24,26-28H,1-2H3

>  <PUBCHEM_IUPAC_INCHIKEY>
KDOAIGQCYMINEB-UHFFFAOYSA-N

>  <PUBCHEM_EXACT_MASS>
448.137

>  <PUBCHEM_MOLECULAR_FORMULA>
C22H24O10

>  <PUBCHEM_MOLECULAR_WEIGHT>
448.424

>  <PUBCHEM_OPENEYE_CAN_SMILES>
CC1C(C(C(C(O1)OC2=CC(=C3C(=C2)OC(C(C3=O)O)C4=CC=C(C=C4)OC)O)O)O)O

>  <PUBCHEM_OPENEYE_ISO_SMILES>
CC1C(C(C(C(O1)OC2=CC(=C3C(=C2)OC(C(C3=O)O)C4=CC=C(C=C4)OC)O)O)O)O

>  <PUBCHEM_CACTVS_TPSA>
155

>  <PUBCHEM_MONOISOTOPIC_WEIGHT>
448.137

>  <PUBCHEM_TOTAL_CHARGE>
0

>  <PUBCHEM_HEAVY_ATOM_COUNT>
32

>  <PUBCHEM_ATOM_DEF_STEREO_COUNT>
0

>  <PUBCHEM_ATOM_UDEF_STEREO_COUNT>
7

>  <PUBCHEM_BOND_DEF_STEREO_COUNT>
0

>  <PUBCHEM_BOND_UDEF_STEREO_COUNT>
0

>  <PUBCHEM_ISOTOPIC_ATOM_COUNT>
0

>  <PUBCHEM_COMPONENT_COUNT>
1

>  <PUBCHEM_CACTVS_TAUTO_COUNT>
17

>  <PUBCHEM_COORDINATE_TYPE>
1
5
255

>  <PUBCHEM_BONDANNOTATIONS>
14  16  3
17  25  3
18  22  8
18  24  8
15  2  3
20  21  8
20  22  8
21  26  8
24  26  8
25  27  8
25  28  8
27  29  8
28  30  8
29  31  8
11  3  3
30  31  8
12  4  3
13  5  3
19  7  3

$$$$
