131752187
 OpenBabel06101807152D

 93 98  0  0  1  0  0  0  0  0999 V2000
   12.9292   -0.7946    0.0000 O   0  0  0  0  0  0  0  0  0  0  0  0
   13.7953    1.7054    0.0000 O   0  0  0  0  0  0  0  0  0  0  0  0
   11.1972   -0.7946    0.0000 O   0  0  0  0  0  0  0  0  0  0  0  0
   11.1972    0.2054    0.0000 O   0  0  0  0  0  0  0  0  0  0  0  0
   11.1972    2.2054    0.0000 O   0  0  0  0  0  0  0  0  0  0  0  0
   12.9292   -2.7946    0.0000 O   0  0  0  0  0  0  0  0  0  0  0  0
   11.1972   -3.7946    0.0000 O   0  0  0  0  0  0  0  0  0  0  0  0
    9.4651   -2.7946    0.0000 O   0  0  0  0  0  0  0  0  0  0  0  0
   12.0632    3.7054    0.0000 O   0  0  0  0  0  0  0  0  0  0  0  0
    8.5991   -1.2946    0.0000 O   0  0  0  0  0  0  0  0  0  0  0  0
   15.5273    1.7054    0.0000 O   0  0  0  0  0  0  0  0  0  0  0  0
   13.7953   -1.2946    0.0000 O   0  0  0  0  0  0  0  0  0  0  0  0
   17.2873   -1.3293    0.0000 O   0  0  0  0  0  0  0  0  0  0  0  0
   17.2757    1.7400    0.0000 O   0  0  0  0  0  0  0  0  0  0  0  0
    7.7331    0.2054    0.0000 O   0  0  0  0  0  0  0  0  0  0  0  0
   19.9138   -3.8221    0.0000 O   0  0  0  0  0  0  0  0  0  0  0  0
   21.6497   -2.8288    0.0000 O   0  0  0  0  0  0  0  0  0  0  0  0
    2.5369   -2.7946    0.0000 O   0  0  0  0  0  0  0  0  0  0  0  0
   12.9292    0.2054    0.0000 C   0  0  3  0  0  0  0  0  0  0  0  0
   12.0632    0.7054    0.0000 C   0  0  3  0  0  0  0  0  0  0  0  0
   13.7953    0.7054    0.0000 C   0  0  3  0  0  0  0  0  0  0  0  0
   12.0632    1.7054    0.0000 C   0  0  3  0  0  0  0  0  0  0  0  0
   12.9292    2.2054    0.0000 C   0  0  3  0  0  0  0  0  0  0  0  0
   12.0632   -1.2946    0.0000 C   0  0  3  0  0  0  0  0  0  0  0  0
   12.0632   -2.2946    0.0000 C   0  0  3  0  0  0  0  0  0  0  0  0
   11.1972   -2.7946    0.0000 C   0  0  3  0  0  0  0  0  0  0  0  0
   10.3312   -2.2946    0.0000 C   0  0  3  0  0  0  0  0  0  0  0  0
   10.3312   -1.2946    0.0000 C   0  0  3  0  0  0  0  0  0  0  0  0
   14.6613    0.2054    0.0000 C   0  0  0  0  0  0  0  0  0  0  0  0
   12.9292    3.2054    0.0000 C   0  0  0  0  0  0  0  0  0  0  0  0
    9.4651   -0.7946    0.0000 C   0  0  0  0  0  0  0  0  0  0  0  0
   15.5273    0.7054    0.0000 C   0  0  0  0  0  0  0  0  0  0  0  0
   14.6613   -0.7946    0.0000 C   0  0  0  0  0  0  0  0  0  0  0  0
   16.3933    0.2054    0.0000 C   0  0  0  0  0  0  0  0  0  0  0  0
   15.5273   -1.2946    0.0000 C   0  0  0  0  0  0  0  0  0  0  0  0
   16.3933   -0.7946    0.0000 C   0  0  0  0  0  0  0  0  0  0  0  0
   17.2873    0.7401    0.0000 C   0  0  0  0  0  0  0  0  0  0  0  0
   18.1934    0.2262    0.0000 C   0  0  0  0  0  0  0  0  0  0  0  0
   18.1934   -0.8154    0.0000 C   0  0  0  0  0  0  0  0  0  0  0  0
    7.7331   -0.7946    0.0000 C   0  0  0  0  0  0  0  0  0  0  0  0
   19.0574   -1.3188    0.0000 C   0  0  0  0  0  0  0  0  0  0  0  0
    6.8671   -1.2946    0.0000 C   0  0  0  0  0  0  0  0  0  0  0  0
   19.0536   -2.3187    0.0000 C   0  0  0  0  0  0  0  0  0  0  0  0
   19.9254   -0.8221    0.0000 C   0  0  0  0  0  0  0  0  0  0  0  0
    6.0010   -0.7946    0.0000 C   0  0  0  0  0  0  0  0  0  0  0  0
   19.9177   -2.8221    0.0000 C   0  0  0  0  0  0  0  0  0  0  0  0
   20.7895   -1.3254    0.0000 C   0  0  0  0  0  0  0  0  0  0  0  0
   20.7856   -2.3254    0.0000 C   0  0  0  0  0  0  0  0  0  0  0  0
    5.1350   -1.2946    0.0000 C   0  0  0  0  0  0  0  0  0  0  0  0
    4.2690   -0.7946    0.0000 C   0  0  0  0  0  0  0  0  0  0  0  0
    5.1350   -2.2946    0.0000 C   0  0  0  0  0  0  0  0  0  0  0  0
   20.7779   -4.3254    0.0000 C   0  0  0  0  0  0  0  0  0  0  0  0
    3.4030   -1.2946    0.0000 C   0  0  0  0  0  0  0  0  0  0  0  0
    4.2690   -2.7946    0.0000 C   0  0  0  0  0  0  0  0  0  0  0  0
    3.4030   -2.2946    0.0000 C   0  0  0  0  0  0  0  0  0  0  0  0
   12.3923   -0.1046    0.0000 H   0  0  0  0  0  0  0  0  0  0  0  0
   12.6002    1.0154    0.0000 H   0  0  0  0  0  0  0  0  0  0  0  0
   14.3322    1.0154    0.0000 H   0  0  0  0  0  0  0  0  0  0  0  0
   11.5263    1.3954    0.0000 H   0  0  0  0  0  0  0  0  0  0  0  0
   13.4662    2.5154    0.0000 H   0  0  0  0  0  0  0  0  0  0  0  0
   12.0632   -0.6746    0.0000 H   0  0  0  0  0  0  0  0  0  0  0  0
   12.0632   -2.9146    0.0000 H   0  0  0  0  0  0  0  0  0  0  0  0
   10.6603   -3.1046    0.0000 H   0  0  0  0  0  0  0  0  0  0  0  0
    9.7942   -1.9846    0.0000 H   0  0  0  0  0  0  0  0  0  0  0  0
   10.3312   -0.6746    0.0000 H   0  0  0  0  0  0  0  0  0  0  0  0
   13.5398    3.0977    0.0000 H   0  0  0  0  0  0  0  0  0  0  0  0
   13.1413    3.7880    0.0000 H   0  0  0  0  0  0  0  0  0  0  0  0
    9.8637   -0.3197    0.0000 H   0  0  0  0  0  0  0  0  0  0  0  0
    9.0666   -0.3197    0.0000 H   0  0  0  0  0  0  0  0  0  0  0  0
   10.6603    0.5154    0.0000 H   0  0  0  0  0  0  0  0  0  0  0  0
   10.6603    1.8954    0.0000 H   0  0  0  0  0  0  0  0  0  0  0  0
   13.4662   -2.4846    0.0000 H   0  0  0  0  0  0  0  0  0  0  0  0
   11.7341   -4.1046    0.0000 H   0  0  0  0  0  0  0  0  0  0  0  0
    9.4651   -3.4146    0.0000 H   0  0  0  0  0  0  0  0  0  0  0  0
   15.5273   -1.9146    0.0000 H   0  0  0  0  0  0  0  0  0  0  0  0
   12.0632    4.3254    0.0000 H   0  0  0  0  0  0  0  0  0  0  0  0
   16.0643    2.0154    0.0000 H   0  0  0  0  0  0  0  0  0  0  0  0
   13.7953   -1.9146    0.0000 H   0  0  0  0  0  0  0  0  0  0  0  0
   18.7291    0.5383    0.0000 H   0  0  0  0  0  0  0  0  0  0  0  0
    6.8671   -1.9146    0.0000 H   0  0  0  0  0  0  0  0  0  0  0  0
   18.5155   -2.6267    0.0000 H   0  0  0  0  0  0  0  0  0  0  0  0
   19.9278   -0.2021    0.0000 H   0  0  0  0  0  0  0  0  0  0  0  0
    6.0010   -0.1746    0.0000 H   0  0  0  0  0  0  0  0  0  0  0  0
   21.3276   -1.0175    0.0000 H   0  0  0  0  0  0  0  0  0  0  0  0
    4.2690   -0.1746    0.0000 H   0  0  0  0  0  0  0  0  0  0  0  0
    5.6720   -2.6046    0.0000 H   0  0  0  0  0  0  0  0  0  0  0  0
   22.1878   -2.5208    0.0000 H   0  0  0  0  0  0  0  0  0  0  0  0
   20.4659   -4.8611    0.0000 H   0  0  0  0  0  0  0  0  0  0  0  0
   21.3137   -4.6375    0.0000 H   0  0  0  0  0  0  0  0  0  0  0  0
   21.0900   -3.7897    0.0000 H   0  0  0  0  0  0  0  0  0  0  0  0
    2.8660   -0.9846    0.0000 H   0  0  0  0  0  0  0  0  0  0  0  0
    4.2690   -3.4146    0.0000 H   0  0  0  0  0  0  0  0  0  0  0  0
    2.0000   -2.4846    0.0000 H   0  0  0  0  0  0  0  0  0  0  0  0
  1 19  1  0  0  0  0
  1 24  1  0  0  0  0
  2 21  1  0  0  0  0
  2 23  1  0  0  0  0
  3 24  1  0  0  0  0
  3 28  1  0  0  0  0
  4 20  1  0  0  0  0
  4 70  1  0  0  0  0
  5 22  1  0  0  0  0
  5 71  1  0  0  0  0
  6 25  1  0  0  0  0
  6 72  1  0  0  0  0
  7 26  1  0  0  0  0
  7 73  1  0  0  0  0
  8 27  1  0  0  0  0
  8 74  1  0  0  0  0
  9 30  1  0  0  0  0
  9 76  1  0  0  0  0
 10 31  1  0  0  0  0
 10 40  1  0  0  0  0
 11 32  1  0  0  0  0
 11 77  1  0  0  0  0
 12 33  1  0  0  0  0
 12 78  1  0  0  0  0
 13 36  1  0  0  0  0
 13 39  1  0  0  0  0
 14 37  2  0  0  0  0
 15 40  2  0  0  0  0
 16 46  1  0  0  0  0
 16 52  1  0  0  0  0
 17 48  1  0  0  0  0
 17 87  1  0  0  0  0
 18 55  1  0  0  0  0
 18 93  1  0  0  0  0
 19 20  1  0  0  0  0
 19 21  1  0  0  0  0
 19 56  1  0  0  0  0
 20 22  1  0  0  0  0
 20 57  1  0  0  0  0
 21 29  1  0  0  0  0
 21 58  1  0  0  0  0
 22 23  1  0  0  0  0
 22 59  1  0  0  0  0
 23 30  1  0  0  0  0
 23 60  1  0  0  0  0
 24 25  1  0  0  0  0
 24 61  1  0  0  0  0
 25 26  1  0  0  0  0
 25 62  1  0  0  0  0
 26 27  1  0  0  0  0
 26 63  1  0  0  0  0
 27 28  1  0  0  0  0
 27 64  1  0  0  0  0
 28 31  1  0  0  0  0
 28 65  1  0  0  0  0
 29 32  2  0  0  0  0
 29 33  1  0  0  0  0
 30 66  1  0  0  0  0
 30 67  1  0  0  0  0
 31 68  1  0  0  0  0
 31 69  1  0  0  0  0
 32 34  1  0  0  0  0
 33 35  2  0  0  0  0
 34 36  2  0  0  0  0
 34 37  1  0  0  0  0
 35 36  1  0  0  0  0
 35 75  1  0  0  0  0
 37 38  1  0  0  0  0
 38 39  2  0  0  0  0
 38 79  1  0  0  0  0
 39 41  1  0  0  0  0
 40 42  1  0  0  0  0
 41 43  2  0  0  0  0
 41 44  1  0  0  0  0
 42 45  2  0  0  0  0
 42 80  1  0  0  0  0
 43 46  1  0  0  0  0
 43 81  1  0  0  0  0
 44 47  2  0  0  0  0
 44 82  1  0  0  0  0
 45 49  1  0  0  0  0
 45 83  1  0  0  0  0
 46 48  2  0  0  0  0
 47 48  1  0  0  0  0
 47 84  1  0  0  0  0
 49 50  2  0  0  0  0
 49 51  1  0  0  0  0
 50 53  1  0  0  0  0
 50 85  1  0  0  0  0
 51 54  2  0  0  0  0
 51 86  1  0  0  0  0
 52 88  1  0  0  0  0
 52 89  1  0  0  0  0
 52 90  1  0  0  0  0
 53 55  2  0  0  0  0
 53 91  1  0  0  0  0
 54 55  1  0  0  0  0
 54 92  1  0  0  0  0
M  END
>  <PUBCHEM_COMPOUND_CID>
131752187

>  <PUBCHEM_COMPOUND_CANONICALIZED>
1

>  <PUBCHEM_CACTVS_COMPLEXITY>
1370

>  <PUBCHEM_CACTVS_HBOND_ACCEPTOR>
18

>  <PUBCHEM_CACTVS_HBOND_DONOR>
10

>  <PUBCHEM_CACTVS_ROTATABLE_BOND>
11

>  <PUBCHEM_CACTVS_SUBSKEYS>
AAADcfB8PgAAAAAAAAAAAAAAAAAAAAAAAAA0aMECAAAAAACBUAAAGgAACAAADBSwmAMyDoAABgCIAqDSCAACCAAkIAAIiAEGiMgdNzaGNRqieWOl4BUPuYfI7PzOIAADCAAIQABAAAYQABCAAAAAAAAAAA==

>  <PUBCHEM_IUPAC_OPENEYE_NAME>
[6-[2-[5,7-dihydroxy-2-(4-hydroxy-3-methoxy-phenyl)-4-oxo-chromen-6-yl]-4,5-dihydroxy-6-(hydroxymethyl)tetrahydropyran-3-yl]oxy-3,4,5-trihydroxy-tetrahydropyran-2-yl]methyl (E)-3-(4-hydroxyphenyl)prop-2-enoate

>  <PUBCHEM_IUPAC_CAS_NAME>
(E)-3-(4-hydroxyphenyl)-2-propenoic acid [6-[[2-[5,7-dihydroxy-2-(4-hydroxy-3-methoxyphenyl)-4-oxo-1-benzopyran-6-yl]-4,5-dihydroxy-6-(hydroxymethyl)-3-oxanyl]oxy]-3,4,5-trihydroxy-2-oxanyl]methyl ester

>  <PUBCHEM_IUPAC_NAME>
[6-[2-[5,7-dihydroxy-2-(4-hydroxy-3-methoxyphenyl)-4-oxochromen-6-yl]-4,5-dihydroxy-6-(hydroxymethyl)oxan-3-yl]oxy-3,4,5-trihydroxyoxan-2-yl]methyl (E)-3-(4-hydroxyphenyl)prop-2-enoate

>  <PUBCHEM_IUPAC_SYSTEMATIC_NAME>
[6-[6-(hydroxymethyl)-2-[2-(3-methoxy-4-oxidanyl-phenyl)-5,7-bis(oxidanyl)-4-oxidanylidene-chromen-6-yl]-4,5-bis(oxidanyl)oxan-3-yl]oxy-3,4,5-tris(oxidanyl)oxan-2-yl]methyl (E)-3-(4-hydroxyphenyl)prop-2-enoate

>  <PUBCHEM_IUPAC_TRADITIONAL_NAME>
(E)-3-(4-hydroxyphenyl)acrylic acid [6-[2-[5,7-dihydroxy-2-(4-hydroxy-3-methoxy-phenyl)-4-keto-chromen-6-yl]-4,5-dihydroxy-6-methylol-tetrahydropyran-3-yl]oxy-3,4,5-trihydroxy-tetrahydropyran-2-yl]methyl ester

>  <PUBCHEM_IUPAC_INCHI>
InChI=1S/C37H38O18/c1-50-22-10-16(5-8-18(22)40)21-11-19(41)27-23(52-21)12-20(42)28(31(27)46)35-36(33(48)29(44)24(13-38)53-35)55-37-34(49)32(47)30(45)25(54-37)14-51-26(43)9-4-15-2-6-17(39)7-3-15/h2-12,24-25,29-30,32-40,42,44-49H,13-14H2,1H3/b9-4+

>  <PUBCHEM_IUPAC_INCHIKEY>
PLLYYRRPIIWFON-RUDMXATFSA-N

>  <PUBCHEM_EXACT_MASS>
770.206

>  <PUBCHEM_MOLECULAR_FORMULA>
C37H38O18

>  <PUBCHEM_MOLECULAR_WEIGHT>
770.693

>  <PUBCHEM_OPENEYE_CAN_SMILES>
COC1=C(C=CC(=C1)C2=CC(=O)C3=C(C(=C(C=C3O2)O)C4C(C(C(C(O4)CO)O)O)OC5C(C(C(C(O5)COC(=O)C=CC6=CC=C(C=C6)O)O)O)O)O)O

>  <PUBCHEM_OPENEYE_ISO_SMILES>
COC1=C(C=CC(=C1)C2=CC(=O)C3=C(C(=C(C=C3O2)O)C4C(C(C(C(O4)CO)O)O)OC5C(C(C(C(O5)COC(=O)/C=C/C6=CC=C(C=C6)O)O)O)O)O)O

>  <PUBCHEM_CACTVS_TPSA>
292

>  <PUBCHEM_MONOISOTOPIC_WEIGHT>
770.206

>  <PUBCHEM_TOTAL_CHARGE>
0

>  <PUBCHEM_HEAVY_ATOM_COUNT>
55

>  <PUBCHEM_ATOM_DEF_STEREO_COUNT>
0

>  <PUBCHEM_ATOM_UDEF_STEREO_COUNT>
10

>  <PUBCHEM_BOND_DEF_STEREO_COUNT>
1

>  <PUBCHEM_BOND_UDEF_STEREO_COUNT>
0

>  <PUBCHEM_ISOTOPIC_ATOM_COUNT>
0

>  <PUBCHEM_COMPONENT_COUNT>
1

>  <PUBCHEM_CACTVS_TAUTO_COUNT>
276

>  <PUBCHEM_COORDINATE_TYPE>
1
5
255

>  <PUBCHEM_BONDANNOTATIONS>
19  1  3
24  1  3
13  36  8
13  39  8
21  29  3
23  30  3
28  31  3
29  32  8
29  33  8
32  34  8
33  35  8
34  36  8
34  37  8
35  36  8
37  38  8
38  39  8
20  4  3
41  43  8
41  44  8
43  46  8
44  47  8
46  48  8
47  48  8
49  50  8
49  51  8
22  5  3
50  53  8
51  54  8
53  55  8
54  55  8
25  6  3
26  7  3
27  8  3

$$$$
