131750896
 OpenBabel06101807152D

 74 76  0  0  1  0  0  0  0  0999 V2000
    7.5837   -1.1440    0.0000 O   0  0  0  0  0  0  0  0  0  0  0  0
    5.8517   -0.1440    0.0000 O   0  0  0  0  0  0  0  0  0  0  0  0
    4.8811    1.3505    0.0000 O   0  0  0  0  0  0  0  0  0  0  0  0
    9.3158   -1.1440    0.0000 O   0  0  0  0  0  0  0  0  0  0  0  0
   11.0478    0.8560    0.0000 O   0  0  0  0  0  0  0  0  0  0  0  0
    5.8517   -3.1440    0.0000 O   0  0  0  0  0  0  0  0  0  0  0  0
    2.6598    0.0232    0.0000 O   0  0  0  0  0  0  0  0  0  0  0  0
    7.5837   -4.1440    0.0000 O   0  0  0  0  0  0  0  0  0  0  0  0
    9.3158   -3.1440    0.0000 O   0  0  0  0  0  0  0  0  0  0  0  0
    3.8642   -1.0289    0.0000 O   0  0  0  0  0  0  0  0  0  0  0  0
    2.5369    2.1924    0.0000 O   0  0  0  0  0  0  0  0  0  0  0  0
   12.5478    4.4540    0.0000 O   0  0  0  0  0  0  0  0  0  0  0  0
   10.5478    2.7220    0.0000 C   0  0  0  0  0  0  0  0  0  0  0  0
   11.0478    1.8560    0.0000 C   0  0  3  0  0  0  0  0  0  0  0  0
    6.7177   -1.6440    0.0000 C   0  0  3  0  0  0  0  0  0  0  0  0
    6.7177   -2.6440    0.0000 C   0  0  3  0  0  0  0  0  0  0  0  0
    3.4030    0.6924    0.0000 C   0  0  3  0  0  0  0  0  0  0  0  0
    7.5837   -3.1440    0.0000 C   0  0  3  0  0  0  0  0  0  0  0  0
   11.0478    3.5880    0.0000 C   0  0  0  0  0  0  0  0  0  0  0  0
    8.4497   -2.6440    0.0000 C   0  0  3  0  0  0  0  0  0  0  0  0
    4.0721   -0.0508    0.0000 C   0  0  3  0  0  0  0  0  0  0  0  0
    8.4497   -1.6440    0.0000 C   0  0  3  0  0  0  0  0  0  0  0  0
    4.9856    0.3560    0.0000 C   0  0  3  0  0  0  0  0  0  0  0  0
   12.0478    1.8560    0.0000 C   0  0  0  0  0  0  0  0  0  0  0  0
    5.8517   -1.1440    0.0000 C   0  0  0  0  0  0  0  0  0  0  0  0
    9.6818    3.2220    0.0000 C   0  0  0  0  0  0  0  0  0  0  0  0
    9.5630    2.5484    0.0000 C   0  0  0  0  0  0  0  0  0  0  0  0
    3.9030    1.5584    0.0000 C   0  0  0  0  0  0  0  0  0  0  0  0
   10.1818    1.3560    0.0000 C   0  0  0  0  0  0  0  0  0  0  0  0
   12.0478    3.5880    0.0000 C   0  0  0  0  0  0  0  0  0  0  0  0
   12.5478    2.7220    0.0000 C   0  0  0  0  0  0  0  0  0  0  0  0
    2.5369    1.1924    0.0000 C   0  0  0  0  0  0  0  0  0  0  0  0
    9.3158   -0.1440    0.0000 C   0  0  3  0  0  0  0  0  0  0  0  0
   10.1818    0.3560    0.0000 C   0  0  0  0  0  0  0  0  0  0  0  0
   12.5478    0.9899    0.0000 C   0  0  0  0  0  0  0  0  0  0  0  0
    8.4497    0.3560    0.0000 C   0  0  0  0  0  0  0  0  0  0  0  0
    6.7177   -1.0240    0.0000 H   0  0  0  0  0  0  0  0  0  0  0  0
    6.7177   -3.2640    0.0000 H   0  0  0  0  0  0  0  0  0  0  0  0
    7.0468   -3.4540    0.0000 H   0  0  0  0  0  0  0  0  0  0  0  0
   11.1555    4.1986    0.0000 H   0  0  0  0  0  0  0  0  0  0  0  0
   10.4652    3.8001    0.0000 H   0  0  0  0  0  0  0  0  0  0  0  0
    8.4497   -3.2640    0.0000 H   0  0  0  0  0  0  0  0  0  0  0  0
    3.4732   -0.2112    0.0000 H   0  0  0  0  0  0  0  0  0  0  0  0
    8.4497   -1.0240    0.0000 H   0  0  0  0  0  0  0  0  0  0  0  0
    4.9532   -0.2632    0.0000 H   0  0  0  0  0  0  0  0  0  0  0  0
    5.2411   -1.0364    0.0000 H   0  0  0  0  0  0  0  0  0  0  0  0
    5.6396   -1.7266    0.0000 H   0  0  0  0  0  0  0  0  0  0  0  0
    9.4554    3.1590    0.0000 H   0  0  0  0  0  0  0  0  0  0  0  0
    9.9918    3.7589    0.0000 H   0  0  0  0  0  0  0  0  0  0  0  0
    9.1448    3.5320    0.0000 H   0  0  0  0  0  0  0  0  0  0  0  0
    8.9524    2.4407    0.0000 H   0  0  0  0  0  0  0  0  0  0  0  0
    9.6706    1.9378    0.0000 H   0  0  0  0  0  0  0  0  0  0  0  0
    9.3718    2.6850    0.0000 H   0  0  0  0  0  0  0  0  0  0  0  0
    4.0946    2.1480    0.0000 H   0  0  0  0  0  0  0  0  0  0  0  0
    3.3366    1.8106    0.0000 H   0  0  0  0  0  0  0  0  0  0  0  0
    9.5712    1.4636    0.0000 H   0  0  0  0  0  0  0  0  0  0  0  0
   13.1678    2.7220    0.0000 H   0  0  0  0  0  0  0  0  0  0  0  0
    1.9264    1.3000    0.0000 H   0  0  0  0  0  0  0  0  0  0  0  0
    2.3249    0.6098    0.0000 H   0  0  0  0  0  0  0  0  0  0  0  0
    9.8527   -0.4540    0.0000 H   0  0  0  0  0  0  0  0  0  0  0  0
   10.7187    0.0460    0.0000 H   0  0  0  0  0  0  0  0  0  0  0  0
   11.5848    0.5460    0.0000 H   0  0  0  0  0  0  0  0  0  0  0  0
   12.0109    0.6799    0.0000 H   0  0  0  0  0  0  0  0  0  0  0  0
   12.8578    0.4530    0.0000 H   0  0  0  0  0  0  0  0  0  0  0  0
   13.0848    1.2999    0.0000 H   0  0  0  0  0  0  0  0  0  0  0  0
    5.3147   -2.8340    0.0000 H   0  0  0  0  0  0  0  0  0  0  0  0
    2.0702    0.2148    0.0000 H   0  0  0  0  0  0  0  0  0  0  0  0
    7.0468   -4.4540    0.0000 H   0  0  0  0  0  0  0  0  0  0  0  0
    9.8527   -2.8340    0.0000 H   0  0  0  0  0  0  0  0  0  0  0  0
    3.2745   -1.2205    0.0000 H   0  0  0  0  0  0  0  0  0  0  0  0
    8.7597    0.8929    0.0000 H   0  0  0  0  0  0  0  0  0  0  0  0
    7.9128    0.6660    0.0000 H   0  0  0  0  0  0  0  0  0  0  0  0
    8.1397   -0.1810    0.0000 H   0  0  0  0  0  0  0  0  0  0  0  0
    2.0000    2.5024    0.0000 H   0  0  0  0  0  0  0  0  0  0  0  0
  1 15  1  0  0  0  0
  1 22  1  0  0  0  0
  2 23  1  0  0  0  0
  2 25  1  0  0  0  0
  3 23  1  0  0  0  0
  3 28  1  0  0  0  0
  4 22  1  0  0  0  0
  4 33  1  0  0  0  0
  5 14  1  0  0  0  0
  5 62  1  0  0  0  0
  6 16  1  0  0  0  0
  6 66  1  0  0  0  0
  7 17  1  0  0  0  0
  7 67  1  0  0  0  0
  8 18  1  0  0  0  0
  8 68  1  0  0  0  0
  9 20  1  0  0  0  0
  9 69  1  0  0  0  0
 10 21  1  0  0  0  0
 10 70  1  0  0  0  0
 11 32  1  0  0  0  0
 11 74  1  0  0  0  0
 12 30  2  0  0  0  0
 13 14  1  0  0  0  0
 13 19  1  0  0  0  0
 13 26  1  0  0  0  0
 13 27  1  0  0  0  0
 14 24  1  0  0  0  0
 14 29  1  0  0  0  0
 15 16  1  0  0  0  0
 15 25  1  0  0  0  0
 15 37  1  0  0  0  0
 16 18  1  0  0  0  0
 16 38  1  0  0  0  0
 17 21  1  0  0  0  0
 17 28  1  0  0  0  0
 17 32  1  0  0  0  0
 18 20  1  0  0  0  0
 18 39  1  0  0  0  0
 19 30  1  0  0  0  0
 19 40  1  0  0  0  0
 19 41  1  0  0  0  0
 20 22  1  0  0  0  0
 20 42  1  0  0  0  0
 21 23  1  0  0  0  0
 21 43  1  0  0  0  0
 22 44  1  0  0  0  0
 23 45  1  0  0  0  0
 24 31  2  0  0  0  0
 24 35  1  0  0  0  0
 25 46  1  0  0  0  0
 25 47  1  0  0  0  0
 26 49  1  0  0  0  0
 26 50  1  0  0  0  0
 26 53  1  0  0  0  0
 27 48  1  0  0  0  0
 27 51  1  0  0  0  0
 27 52  1  0  0  0  0
 28 54  1  0  0  0  0
 28 55  1  0  0  0  0
 29 34  2  0  0  0  0
 29 56  1  0  0  0  0
 30 31  1  0  0  0  0
 31 57  1  0  0  0  0
 32 58  1  0  0  0  0
 32 59  1  0  0  0  0
 33 34  1  0  0  0  0
 33 36  1  0  0  0  0
 33 60  1  0  0  0  0
 34 61  1  0  0  0  0
 35 63  1  0  0  0  0
 35 64  1  0  0  0  0
 35 65  1  0  0  0  0
 36 71  1  0  0  0  0
 36 72  1  0  0  0  0
 36 73  1  0  0  0  0
M  END
>  <PUBCHEM_COMPOUND_CID>
131750896

>  <PUBCHEM_COMPOUND_CANONICALIZED>
1

>  <PUBCHEM_CACTVS_COMPLEXITY>
858

>  <PUBCHEM_CACTVS_HBOND_ACCEPTOR>
12

>  <PUBCHEM_CACTVS_HBOND_DONOR>
7

>  <PUBCHEM_CACTVS_ROTATABLE_BOND>
8

>  <PUBCHEM_CACTVS_SUBSKEYS>
AAADcfB4PAAAAAAAAAAAAAAAAAAAASAAAAAkQAAAAAAAAAAAAAAAGgAACAAADlSwgAMCCAAABgCIAqBSAAAAAAAgAAAICAEAAEgRFBIAIQAiUAAFgAAPMQPK6AwPgAAAAAAAAAAAAAAAAAAAAAAAAAAAAA==

>  <PUBCHEM_IUPAC_OPENEYE_NAME>
4-[(E)-3-[6-[[3,4-dihydroxy-4-(hydroxymethyl)tetrahydrofuran-2-yl]oxymethyl]-3,4,5-trihydroxy-tetrahydropyran-2-yl]oxybut-1-enyl]-4-hydroxy-3,5,5-trimethyl-cyclohex-2-en-1-one

>  <PUBCHEM_IUPAC_CAS_NAME>
4-[(E)-3-[[6-[[3,4-dihydroxy-4-(hydroxymethyl)-2-oxolanyl]oxymethyl]-3,4,5-trihydroxy-2-oxanyl]oxy]but-1-enyl]-4-hydroxy-3,5,5-trimethyl-1-cyclohex-2-enone

>  <PUBCHEM_IUPAC_NAME>
4-[(E)-3-[6-[[3,4-dihydroxy-4-(hydroxymethyl)oxolan-2-yl]oxymethyl]-3,4,5-trihydroxyoxan-2-yl]oxybut-1-enyl]-4-hydroxy-3,5,5-trimethylcyclohex-2-en-1-one

>  <PUBCHEM_IUPAC_SYSTEMATIC_NAME>
4-[(E)-3-[6-[[4-(hydroxymethyl)-3,4-bis(oxidanyl)oxolan-2-yl]oxymethyl]-3,4,5-tris(oxidanyl)oxan-2-yl]oxybut-1-enyl]-3,5,5-trimethyl-4-oxidanyl-cyclohex-2-en-1-one

>  <PUBCHEM_IUPAC_TRADITIONAL_NAME>
4-[(E)-3-[6-[(3,4-dihydroxy-4-methylol-tetrahydrofuran-2-yl)oxymethyl]-3,4,5-trihydroxy-tetrahydropyran-2-yl]oxybut-1-enyl]-4-hydroxy-3,5,5-trimethyl-cyclohex-2-en-1-one

>  <PUBCHEM_IUPAC_INCHI>
InChI=1S/C24H38O12/c1-12-7-14(26)8-22(3,4)24(12,32)6-5-13(2)35-20-18(29)17(28)16(27)15(36-20)9-33-21-19(30)23(31,10-25)11-34-21/h5-7,13,15-21,25,27-32H,8-11H2,1-4H3/b6-5+

>  <PUBCHEM_IUPAC_INCHIKEY>
WGPMCTNBJPAHNW-AATRIKPKSA-N

>  <PUBCHEM_EXACT_MASS>
518.236

>  <PUBCHEM_MOLECULAR_FORMULA>
C24H38O12

>  <PUBCHEM_MOLECULAR_WEIGHT>
518.556

>  <PUBCHEM_OPENEYE_CAN_SMILES>
CC1=CC(=O)CC(C1(C=CC(C)OC2C(C(C(C(O2)COC3C(C(CO3)(CO)O)O)O)O)O)O)(C)C

>  <PUBCHEM_OPENEYE_ISO_SMILES>
CC1=CC(=O)CC(C1(/C=C/C(C)OC2C(C(C(C(O2)COC3C(C(CO3)(CO)O)O)O)O)O)O)(C)C

>  <PUBCHEM_CACTVS_TPSA>
196

>  <PUBCHEM_MONOISOTOPIC_WEIGHT>
518.236

>  <PUBCHEM_TOTAL_CHARGE>
0

>  <PUBCHEM_HEAVY_ATOM_COUNT>
36

>  <PUBCHEM_ATOM_DEF_STEREO_COUNT>
0

>  <PUBCHEM_ATOM_UDEF_STEREO_COUNT>
10

>  <PUBCHEM_BOND_DEF_STEREO_COUNT>
1

>  <PUBCHEM_BOND_UDEF_STEREO_COUNT>
0

>  <PUBCHEM_ISOTOPIC_ATOM_COUNT>
0

>  <PUBCHEM_COMPONENT_COUNT>
1

>  <PUBCHEM_CACTVS_TAUTO_COUNT>
5

>  <PUBCHEM_COORDINATE_TYPE>
1
5
255

>  <PUBCHEM_BONDANNOTATIONS>
21  10  3
15  25  3
23  2  3
33  36  3
22  4  3
14  5  3
16  6  3
17  7  3
18  8  3
20  9  3

$$$$
