131752309
 OpenBabel06101807152D

 83 87  0  0  1  0  0  0  0  0999 V2000
    5.1804    0.0498    0.0000 O   0  0  0  0  0  0  0  0  0  0  0  0
    9.1307   -2.7528    0.0000 O   0  0  0  0  0  0  0  0  0  0  0  0
    2.5381   -3.5059    0.0000 O   0  0  0  0  0  0  0  0  0  0  0  0
   13.0525    4.2649    0.0000 O   0  0  0  0  0  0  0  0  0  0  0  0
   13.3966    2.5674    0.0000 O   0  0  0  0  0  0  0  0  0  0  0  0
    6.0682   -1.4817    0.0000 C   0  0  3  0  0  0  0  0  0  0  0  0
    5.2022   -1.9817    0.0000 C   0  0  3  0  0  0  0  0  0  0  0  0
    5.2020   -0.9813    0.0000 C   0  0  0  0  0  0  0  0  0  0  0  0
    6.9343   -1.9817    0.0000 C   0  0  3  0  0  0  0  0  0  0  0  0
    5.2022   -2.9817    0.0000 C   0  0  3  0  0  0  0  0  0  0  0  0
    7.8443   -1.4749    0.0000 C   0  0  3  0  0  0  0  0  0  0  0  0
    6.0522   -0.4402    0.0000 C   0  0  3  0  0  0  0  0  0  0  0  0
    7.8523   -0.4333    0.0000 C   0  0  3  0  0  0  0  0  0  0  0  0
    4.3083   -1.4470    0.0000 C   0  0  0  0  0  0  0  0  0  0  0  0
    6.9343   -2.9817    0.0000 C   0  0  0  0  0  0  0  0  0  0  0  0
    6.9502    0.0876    0.0000 C   0  0  0  0  0  0  0  0  0  0  0  0
    6.0682   -3.4817    0.0000 C   0  0  0  0  0  0  0  0  0  0  0  0
    4.3083   -3.5164    0.0000 C   0  0  0  0  0  0  0  0  0  0  0  0
    8.8274   -1.7999    0.0000 C   0  0  3  0  0  0  0  0  0  0  0  0
    8.8403   -0.1235    0.0000 C   0  0  3  0  0  0  0  0  0  0  0  0
    3.4022   -1.9609    0.0000 C   0  0  0  0  0  0  0  0  0  0  0  0
    3.4022   -3.0025    0.0000 C   0  0  3  0  0  0  0  0  0  0  0  0
    9.4418   -0.9663    0.0000 C   0  0  0  0  0  0  0  0  0  0  0  0
    7.8366   -2.4748    0.0000 C   0  0  0  0  0  0  0  0  0  0  0  0
    7.8600    0.5667    0.0000 C   0  0  0  0  0  0  0  0  0  0  0  0
    9.1583    0.8246    0.0000 C   0  0  3  0  0  0  0  0  0  0  0  0
    3.8183   -4.3881    0.0000 C   0  0  0  0  0  0  0  0  0  0  0  0
    4.8183   -4.3766    0.0000 C   0  0  0  0  0  0  0  0  0  0  0  0
   10.1384    1.0233    0.0000 C   0  0  0  0  0  0  0  0  0  0  0  0
    8.4962    1.5741    0.0000 C   0  0  0  0  0  0  0  0  0  0  0  0
   10.4564    1.9714    0.0000 C   0  0  0  0  0  0  0  0  0  0  0  0
   11.4364    2.1701    0.0000 C   0  0  0  0  0  0  0  0  0  0  0  0
   11.7544    3.1182    0.0000 C   0  0  0  0  0  0  0  0  0  0  0  0
   11.0923    3.8676    0.0000 C   0  0  0  0  0  0  0  0  0  0  0  0
   12.7345    3.3168    0.0000 C   0  0  0  0  0  0  0  0  0  0  0  0
    5.4141   -0.3987    0.0000 H   0  0  0  0  0  0  0  0  0  0  0  0
    4.5914   -0.8737    0.0000 H   0  0  0  0  0  0  0  0  0  0  0  0
    7.4688   -2.2958    0.0000 H   0  0  0  0  0  0  0  0  0  0  0  0
    5.2070   -3.6017    0.0000 H   0  0  0  0  0  0  0  0  0  0  0  0
    6.0462    0.1798    0.0000 H   0  0  0  0  0  0  0  0  0  0  0  0
    4.7129   -0.9773    0.0000 H   0  0  0  0  0  0  0  0  0  0  0  0
    3.9147   -0.9680    0.0000 H   0  0  0  0  0  0  0  0  0  0  0  0
    7.1463   -3.5643    0.0000 H   0  0  0  0  0  0  0  0  0  0  0  0
    7.5449   -2.8740    0.0000 H   0  0  0  0  0  0  0  0  0  0  0  0
    7.3475    0.5635    0.0000 H   0  0  0  0  0  0  0  0  0  0  0  0
    6.5493    0.5604    0.0000 H   0  0  0  0  0  0  0  0  0  0  0  0
    5.6697   -3.9567    0.0000 H   0  0  0  0  0  0  0  0  0  0  0  0
    6.4668   -3.9567    0.0000 H   0  0  0  0  0  0  0  0  0  0  0  0
    8.3866   -2.2358    0.0000 H   0  0  0  0  0  0  0  0  0  0  0  0
    9.4536   -0.0320    0.0000 H   0  0  0  0  0  0  0  0  0  0  0  0
    3.1932   -1.3772    0.0000 H   0  0  0  0  0  0  0  0  0  0  0  0
    2.7914   -2.0670    0.0000 H   0  0  0  0  0  0  0  0  0  0  0  0
    3.4058   -3.6225    0.0000 H   0  0  0  0  0  0  0  0  0  0  0  0
    9.8994   -1.3846    0.0000 H   0  0  0  0  0  0  0  0  0  0  0  0
    9.9058   -0.5552    0.0000 H   0  0  0  0  0  0  0  0  0  0  0  0
    7.2166   -2.4700    0.0000 H   0  0  0  0  0  0  0  0  0  0  0  0
    7.8318   -3.0948    0.0000 H   0  0  0  0  0  0  0  0  0  0  0  0
    8.4566   -2.4796    0.0000 H   0  0  0  0  0  0  0  0  0  0  0  0
    8.4800    0.5619    0.0000 H   0  0  0  0  0  0  0  0  0  0  0  0
    7.8648    1.1867    0.0000 H   0  0  0  0  0  0  0  0  0  0  0  0
    7.2400    0.5715    0.0000 H   0  0  0  0  0  0  0  0  0  0  0  0
    9.3555    1.4125    0.0000 H   0  0  0  0  0  0  0  0  0  0  0  0
    5.1733    0.6697    0.0000 H   0  0  0  0  0  0  0  0  0  0  0  0
    4.2850   -4.6927    0.0000 H   0  0  0  0  0  0  0  0  0  0  0  0
    5.1344   -4.9099    0.0000 H   0  0  0  0  0  0  0  0  0  0  0  0
    5.3516   -4.0604    0.0000 H   0  0  0  0  0  0  0  0  0  0  0  0
    3.2778   -4.0844    0.0000 H   0  0  0  0  0  0  0  0  0  0  0  0
    3.5146   -4.9286    0.0000 H   0  0  0  0  0  0  0  0  0  0  0  0
    4.3588   -4.6919    0.0000 H   0  0  0  0  0  0  0  0  0  0  0  0
    9.7364   -2.8853    0.0000 H   0  0  0  0  0  0  0  0  0  0  0  0
    2.0000   -3.1979    0.0000 H   0  0  0  0  0  0  0  0  0  0  0  0
   10.1542    0.4035    0.0000 H   0  0  0  0  0  0  0  0  0  0  0  0
   10.7515    0.9312    0.0000 H   0  0  0  0  0  0  0  0  0  0  0  0
    8.9609    1.9846    0.0000 H   0  0  0  0  0  0  0  0  0  0  0  0
    8.0857    2.0387    0.0000 H   0  0  0  0  0  0  0  0  0  0  0  0
    8.0316    1.1636    0.0000 H   0  0  0  0  0  0  0  0  0  0  0  0
   10.4406    2.5912    0.0000 H   0  0  0  0  0  0  0  0  0  0  0  0
    9.8432    2.0635    0.0000 H   0  0  0  0  0  0  0  0  0  0  0  0
   11.8469    1.7054    0.0000 H   0  0  0  0  0  0  0  0  0  0  0  0
   11.5570    4.2781    0.0000 H   0  0  0  0  0  0  0  0  0  0  0  0
   10.6818    4.3322    0.0000 H   0  0  0  0  0  0  0  0  0  0  0  0
   10.6277    3.4571    0.0000 H   0  0  0  0  0  0  0  0  0  0  0  0
   13.6601    4.3881    0.0000 H   0  0  0  0  0  0  0  0  0  0  0  0
  1 12  1  0  0  0  0
  1 63  1  0  0  0  0
  2 19  1  0  0  0  0
  2 70  1  0  0  0  0
  3 22  1  0  0  0  0
  3 71  1  0  0  0  0
  4 35  1  0  0  0  0
  4 83  1  0  0  0  0
  5 35  2  0  0  0  0
  6  7  1  0  0  0  0
  6  8  1  0  0  0  0
  6  9  1  0  0  0  0
  6 12  1  0  0  0  0
  7  8  1  0  0  0  0
  7 10  1  0  0  0  0
  7 14  1  0  0  0  0
  8 36  1  0  0  0  0
  8 37  1  0  0  0  0
  9 11  1  0  0  0  0
  9 15  1  0  0  0  0
  9 38  1  0  0  0  0
 10 17  1  0  0  0  0
 10 18  1  0  0  0  0
 10 39  1  0  0  0  0
 11 13  1  0  0  0  0
 11 19  1  0  0  0  0
 11 24  1  0  0  0  0
 12 16  1  0  0  0  0
 12 40  1  0  0  0  0
 13 16  1  0  0  0  0
 13 20  1  0  0  0  0
 13 25  1  0  0  0  0
 14 21  1  0  0  0  0
 14 41  1  0  0  0  0
 14 42  1  0  0  0  0
 15 17  1  0  0  0  0
 15 43  1  0  0  0  0
 15 44  1  0  0  0  0
 16 45  1  0  0  0  0
 16 46  1  0  0  0  0
 17 47  1  0  0  0  0
 17 48  1  0  0  0  0
 18 22  1  0  0  0  0
 18 27  1  0  0  0  0
 18 28  1  0  0  0  0
 19 23  1  0  0  0  0
 19 49  1  0  0  0  0
 20 23  1  0  0  0  0
 20 26  1  0  0  0  0
 20 50  1  0  0  0  0
 21 22  1  0  0  0  0
 21 51  1  0  0  0  0
 21 52  1  0  0  0  0
 22 53  1  0  0  0  0
 23 54  1  0  0  0  0
 23 55  1  0  0  0  0
 24 56  1  0  0  0  0
 24 57  1  0  0  0  0
 24 58  1  0  0  0  0
 25 59  1  0  0  0  0
 25 60  1  0  0  0  0
 25 61  1  0  0  0  0
 26 29  1  0  0  0  0
 26 30  1  0  0  0  0
 26 62  1  0  0  0  0
 27 67  1  0  0  0  0
 27 68  1  0  0  0  0
 27 69  1  0  0  0  0
 28 64  1  0  0  0  0
 28 65  1  0  0  0  0
 28 66  1  0  0  0  0
 29 31  1  0  0  0  0
 29 72  1  0  0  0  0
 29 73  1  0  0  0  0
 30 74  1  0  0  0  0
 30 75  1  0  0  0  0
 30 76  1  0  0  0  0
 31 32  1  0  0  0  0
 31 77  1  0  0  0  0
 31 78  1  0  0  0  0
 32 33  2  0  0  0  0
 32 79  1  0  0  0  0
 33 34  1  0  0  0  0
 33 35  1  0  0  0  0
 34 80  1  0  0  0  0
 34 81  1  0  0  0  0
 34 82  1  0  0  0  0
M  END
>  <PUBCHEM_COMPOUND_CID>
131752309

>  <PUBCHEM_COMPOUND_CANONICALIZED>
1

>  <PUBCHEM_CACTVS_COMPLEXITY>
926

>  <PUBCHEM_CACTVS_HBOND_ACCEPTOR>
5

>  <PUBCHEM_CACTVS_HBOND_DONOR>
4

>  <PUBCHEM_CACTVS_ROTATABLE_BOND>
5

>  <PUBCHEM_CACTVS_SUBSKEYS>
AAADcfB4OAAAAAAAAAAAAAAAGAAAAYAAAAAwYMAABgAAAGDAAAAAGgAACAAADxSggAICCAAAAgCIAiDSCAAAAAAgAAAACAEAAEgAFAIAAQAAUAAEgAAIEYOA4PQPgAAAAAAAAADAAAYAADAAAYAADAAAAA==

>  <PUBCHEM_IUPAC_INCHI>
InChI=1S/C30H48O5/c1-17(8-7-9-18(2)25(34)35)19-14-23(32)28(6)21-11-10-20-26(3,4)22(31)12-13-29(20)16-30(21,29)24(33)15-27(19,28)5/h9,17,19-24,31-33H,7-8,10-16H2,1-6H3,(H,34,35)/b18-9+

>  <PUBCHEM_IUPAC_INCHIKEY>
ITIWNCJDHYQADX-GIJQJNRQSA-N

>  <PUBCHEM_EXACT_MASS>
488.35

>  <PUBCHEM_MOLECULAR_FORMULA>
C30H48O5

>  <PUBCHEM_MOLECULAR_WEIGHT>
488.709

>  <PUBCHEM_OPENEYE_CAN_SMILES>
CC(CCC=C(C)C(=O)O)C1CC(C2(C1(CC(C34C2CCC5C3(C4)CCC(C5(C)C)O)O)C)C)O

>  <PUBCHEM_OPENEYE_ISO_SMILES>
CC(CC/C=C(\C)/C(=O)O)C1CC(C2(C1(CC(C34C2CCC5C3(C4)CCC(C5(C)C)O)O)C)C)O

>  <PUBCHEM_CACTVS_TPSA>
98

>  <PUBCHEM_MONOISOTOPIC_WEIGHT>
488.35

>  <PUBCHEM_TOTAL_CHARGE>
0

>  <PUBCHEM_HEAVY_ATOM_COUNT>
35

>  <PUBCHEM_ATOM_DEF_STEREO_COUNT>
0

>  <PUBCHEM_ATOM_UDEF_STEREO_COUNT>
11

>  <PUBCHEM_BOND_DEF_STEREO_COUNT>
1

>  <PUBCHEM_BOND_UDEF_STEREO_COUNT>
0

>  <PUBCHEM_ISOTOPIC_ATOM_COUNT>
0

>  <PUBCHEM_COMPONENT_COUNT>
1

>  <PUBCHEM_CACTVS_TAUTO_COUNT>
1

>  <PUBCHEM_COORDINATE_TYPE>
1
5
255

>  <PUBCHEM_BONDANNOTATIONS>
12  1  3
10  17  3
11  24  3
13  25  3
19  2  3
20  23  3
26  30  3
22  3  3
6  8  3
7  14  3
9  15  3

$$$$
