131752680
 OpenBabel06101807152D

 44 46  0  0  1  0  0  0  0  0999 V2000
    6.0682   -2.4827    0.0000 O   0  0  0  0  0  0  0  0  0  0  0  0
    6.9343    1.0173    0.0000 O   0  0  0  0  0  0  0  0  0  0  0  0
    8.6663    2.0173    0.0000 O   0  0  0  0  0  0  0  0  0  0  0  0
   10.3984    1.0173    0.0000 O   0  0  0  0  0  0  0  0  0  0  0  0
   10.3984   -0.9827    0.0000 O   0  0  0  0  0  0  0  0  0  0  0  0
    2.5381   -2.5068    0.0000 O   0  0  0  0  0  0  0  0  0  0  0  0
    6.9343   -0.9827    0.0000 C   0  0  3  0  0  0  0  0  0  0  0  0
    6.0682   -0.4827    0.0000 C   0  0  0  0  0  0  0  0  0  0  0  0
    6.9343   -1.9827    0.0000 C   0  0  0  0  0  0  0  0  0  0  0  0
    7.8003   -0.4827    0.0000 C   0  0  0  0  0  0  0  0  0  0  0  0
    5.2022   -0.9827    0.0000 C   0  0  0  0  0  0  0  0  0  0  0  0
    5.2022   -1.9827    0.0000 C   0  0  0  0  0  0  0  0  0  0  0  0
    7.8003    0.5173    0.0000 C   0  0  0  0  0  0  0  0  0  0  0  0
    8.6663   -0.9827    0.0000 C   0  0  0  0  0  0  0  0  0  0  0  0
    4.3083   -0.4480    0.0000 C   0  0  0  0  0  0  0  0  0  0  0  0
    8.6663    1.0173    0.0000 C   0  0  0  0  0  0  0  0  0  0  0  0
    4.3083   -2.5173    0.0000 C   0  0  0  0  0  0  0  0  0  0  0  0
    9.5323   -0.4827    0.0000 C   0  0  0  0  0  0  0  0  0  0  0  0
    9.5323    0.5173    0.0000 C   0  0  0  0  0  0  0  0  0  0  0  0
    3.4022   -0.9619    0.0000 C   0  0  0  0  0  0  0  0  0  0  0  0
    3.4022   -2.0035    0.0000 C   0  0  0  0  0  0  0  0  0  0  0  0
    6.9343    2.0173    0.0000 C   0  0  0  0  0  0  0  0  0  0  0  0
    9.5323    2.5173    0.0000 C   0  0  0  0  0  0  0  0  0  0  0  0
   11.2644    0.5173    0.0000 C   0  0  0  0  0  0  0  0  0  0  0  0
    6.9343   -0.3627    0.0000 H   0  0  0  0  0  0  0  0  0  0  0  0
    6.4668   -0.0077    0.0000 H   0  0  0  0  0  0  0  0  0  0  0  0
    5.6697   -0.0077    0.0000 H   0  0  0  0  0  0  0  0  0  0  0  0
    7.1463   -2.5653    0.0000 H   0  0  0  0  0  0  0  0  0  0  0  0
    7.5449   -1.8750    0.0000 H   0  0  0  0  0  0  0  0  0  0  0  0
    8.6663   -1.6027    0.0000 H   0  0  0  0  0  0  0  0  0  0  0  0
    4.3154    0.1720    0.0000 H   0  0  0  0  0  0  0  0  0  0  0  0
    4.3154   -3.1373    0.0000 H   0  0  0  0  0  0  0  0  0  0  0  0
    2.8665   -0.6498    0.0000 H   0  0  0  0  0  0  0  0  0  0  0  0
    7.5543    2.0173    0.0000 H   0  0  0  0  0  0  0  0  0  0  0  0
    6.9343    2.6373    0.0000 H   0  0  0  0  0  0  0  0  0  0  0  0
    6.3143    2.0173    0.0000 H   0  0  0  0  0  0  0  0  0  0  0  0
   10.3984   -1.6027    0.0000 H   0  0  0  0  0  0  0  0  0  0  0  0
    2.0000   -2.1989    0.0000 H   0  0  0  0  0  0  0  0  0  0  0  0
    9.8424    1.9804    0.0000 H   0  0  0  0  0  0  0  0  0  0  0  0
   10.0693    2.8273    0.0000 H   0  0  0  0  0  0  0  0  0  0  0  0
    9.2224    3.0543    0.0000 H   0  0  0  0  0  0  0  0  0  0  0  0
   10.9544   -0.0196    0.0000 H   0  0  0  0  0  0  0  0  0  0  0  0
   11.8013    0.2073    0.0000 H   0  0  0  0  0  0  0  0  0  0  0  0
   11.5744    1.0543    0.0000 H   0  0  0  0  0  0  0  0  0  0  0  0
  1  9  1  0  0  0  0
  1 12  1  0  0  0  0
  2 13  1  0  0  0  0
  2 22  1  0  0  0  0
  3 16  1  0  0  0  0
  3 23  1  0  0  0  0
  4 19  1  0  0  0  0
  4 24  1  0  0  0  0
  5 18  1  0  0  0  0
  5 37  1  0  0  0  0
  6 21  1  0  0  0  0
  6 38  1  0  0  0  0
  7  8  1  0  0  0  0
  7  9  1  0  0  0  0
  7 10  1  0  0  0  0
  7 25  1  0  0  0  0
  8 11  1  0  0  0  0
  8 26  1  0  0  0  0
  8 27  1  0  0  0  0
  9 28  1  0  0  0  0
  9 29  1  0  0  0  0
 10 13  1  0  0  0  0
 10 14  2  0  0  0  0
 11 12  2  0  0  0  0
 11 15  1  0  0  0  0
 12 17  1  0  0  0  0
 13 16  2  0  0  0  0
 14 18  1  0  0  0  0
 14 30  1  0  0  0  0
 15 20  2  0  0  0  0
 15 31  1  0  0  0  0
 16 19  1  0  0  0  0
 17 21  2  0  0  0  0
 17 32  1  0  0  0  0
 18 19  2  0  0  0  0
 20 21  1  0  0  0  0
 20 33  1  0  0  0  0
 22 34  1  0  0  0  0
 22 35  1  0  0  0  0
 22 36  1  0  0  0  0
 23 39  1  0  0  0  0
 23 40  1  0  0  0  0
 23 41  1  0  0  0  0
 24 42  1  0  0  0  0
 24 43  1  0  0  0  0
 24 44  1  0  0  0  0
M  END
>  <PUBCHEM_COMPOUND_CID>
131752680

>  <PUBCHEM_COMPOUND_CANONICALIZED>
1

>  <PUBCHEM_CACTVS_COMPLEXITY>
405

>  <PUBCHEM_CACTVS_HBOND_ACCEPTOR>
6

>  <PUBCHEM_CACTVS_HBOND_DONOR>
2

>  <PUBCHEM_CACTVS_ROTATABLE_BOND>
4

>  <PUBCHEM_CACTVS_SUBSKEYS>
AAADceB4OAAAAAAAAAAAAAAAAAAAAAAAAAA0YIAAAAAAAACRQAAAGgAACAAADQSgmAIyBoAABgCAAiBCAAACCAAgIAAIiAAGiIgNJyKGMRqCeCOlwBULuAfA4PwOoQABCAAIQABCAAIQABCAAAAAAAAAAA==

>  <PUBCHEM_IUPAC_OPENEYE_NAME>
3-(5-hydroxy-2,3,4-trimethoxy-phenyl)chroman-7-ol

>  <PUBCHEM_IUPAC_CAS_NAME>
3-(5-hydroxy-2,3,4-trimethoxyphenyl)-3,4-dihydro-2H-1-benzopyran-7-ol

>  <PUBCHEM_IUPAC_NAME>
3-(5-hydroxy-2,3,4-trimethoxyphenyl)-3,4-dihydro-2H-chromen-7-ol

>  <PUBCHEM_IUPAC_SYSTEMATIC_NAME>
3-(2,3,4-trimethoxy-5-oxidanyl-phenyl)-3,4-dihydro-2H-chromen-7-ol

>  <PUBCHEM_IUPAC_TRADITIONAL_NAME>
3-(5-hydroxy-2,3,4-trimethoxy-phenyl)chroman-7-ol

>  <PUBCHEM_IUPAC_INCHI>
InChI=1S/C18H20O6/c1-21-16-13(8-14(20)17(22-2)18(16)23-3)11-6-10-4-5-12(19)7-15(10)24-9-11/h4-5,7-8,11,19-20H,6,9H2,1-3H3

>  <PUBCHEM_IUPAC_INCHIKEY>
DGDBODTZBJMGDR-UHFFFAOYSA-N

>  <PUBCHEM_EXACT_MASS>
332.126

>  <PUBCHEM_MOLECULAR_FORMULA>
C18H20O6

>  <PUBCHEM_MOLECULAR_WEIGHT>
332.352

>  <PUBCHEM_OPENEYE_CAN_SMILES>
COC1=C(C(=C(C=C1C2CC3=C(C=C(C=C3)O)OC2)O)OC)OC

>  <PUBCHEM_OPENEYE_ISO_SMILES>
COC1=C(C(=C(C=C1C2CC3=C(C=C(C=C3)O)OC2)O)OC)OC

>  <PUBCHEM_CACTVS_TPSA>
77.4

>  <PUBCHEM_MONOISOTOPIC_WEIGHT>
332.126

>  <PUBCHEM_TOTAL_CHARGE>
0

>  <PUBCHEM_HEAVY_ATOM_COUNT>
24

>  <PUBCHEM_ATOM_DEF_STEREO_COUNT>
0

>  <PUBCHEM_ATOM_UDEF_STEREO_COUNT>
1

>  <PUBCHEM_BOND_DEF_STEREO_COUNT>
0

>  <PUBCHEM_BOND_UDEF_STEREO_COUNT>
0

>  <PUBCHEM_ISOTOPIC_ATOM_COUNT>
0

>  <PUBCHEM_COMPONENT_COUNT>
1

>  <PUBCHEM_CACTVS_TAUTO_COUNT>
45

>  <PUBCHEM_COORDINATE_TYPE>
1
5
255

>  <PUBCHEM_BONDANNOTATIONS>
10  13  8
10  14  8
11  12  8
11  15  8
12  17  8
13  16  8
14  18  8
15  20  8
16  19  8
17  21  8
18  19  8
20  21  8
7  10  3

$$$$
