131751632
 OpenBabel06101807152D

114119  0  0  1  0  0  0  0  0999 V2000
    8.5991   -2.0391    0.0000 O   0  0  0  0  0  0  0  0  0  0  0  0
   10.3529    7.2403    0.0000 O   0  0  0  0  0  0  0  0  0  0  0  0
   11.2362    5.7504    0.0000 O   0  0  0  0  0  0  0  0  0  0  0  0
    6.8671   -2.0391    0.0000 O   0  0  0  0  0  0  0  0  0  0  0  0
    8.5991   -4.0391    0.0000 O   0  0  0  0  0  0  0  0  0  0  0  0
    6.8671   -5.0391    0.0000 O   0  0  0  0  0  0  0  0  0  0  0  0
    5.1350   -4.0391    0.0000 O   0  0  0  0  0  0  0  0  0  0  0  0
    4.2690   -2.5391    0.0000 O   0  0  0  0  0  0  0  0  0  0  0  0
    5.1350   -1.0391    0.0000 O   0  0  0  0  0  0  0  0  0  0  0  0
    5.1350   -5.0391    0.0000 O   0  0  0  0  0  0  0  0  0  0  0  0
    5.1350   -7.0391    0.0000 O   0  0  0  0  0  0  0  0  0  0  0  0
    6.8671   -7.0391    0.0000 O   0  0  0  0  0  0  0  0  0  0  0  0
    2.5369   -5.5391    0.0000 O   0  0  0  0  0  0  0  0  0  0  0  0
    3.4030   -4.0391    0.0000 O   0  0  0  0  0  0  0  0  0  0  0  0
    9.5002    2.6611    0.0000 C   0  0  3  0  0  0  0  0  0  0  0  0
    8.6361    2.1578    0.0000 C   0  0  3  0  0  0  0  0  0  0  0  0
    8.6240    1.1162    0.0000 C   0  0  3  0  0  0  0  0  0  0  0  0
    9.4963    3.6611    0.0000 C   0  0  3  0  0  0  0  0  0  0  0  0
    9.5241    0.5919    0.0000 C   0  0  3  0  0  0  0  0  0  0  0  0
   10.4121    2.1578    0.0000 C   0  0  0  0  0  0  0  0  0  0  0  0
    9.5366   -0.4930    0.0000 C   0  0  0  0  0  0  0  0  0  0  0  0
   10.4242    1.1162    0.0000 C   0  0  0  0  0  0  0  0  0  0  0  0
    8.6284    4.1577    0.0000 C   0  0  0  0  0  0  0  0  0  0  0  0
    7.7681    2.6544    0.0000 C   0  0  0  0  0  0  0  0  0  0  0  0
    7.6741    0.5919    0.0000 C   0  0  0  0  0  0  0  0  0  0  0  0
    8.6083    5.1992    0.0000 C   0  0  3  0  0  0  0  0  0  0  0  0
   10.4044    4.1714    0.0000 C   0  0  0  0  0  0  0  0  0  0  0  0
    9.5043    5.7304    0.0000 C   0  0  3  0  0  0  0  0  0  0  0  0
   10.4843    2.8385    0.0000 C   0  0  0  0  0  0  0  0  0  0  0  0
    8.5991   -1.0391    0.0000 C   0  0  3  0  0  0  0  0  0  0  0  0
   10.4084    5.2130    0.0000 C   0  0  0  0  0  0  0  0  0  0  0  0
    7.7600    1.6195    0.0000 C   0  0  0  0  0  0  0  0  0  0  0  0
    7.6616   -0.4930    0.0000 C   0  0  0  0  0  0  0  0  0  0  0  0
    7.7643    3.6544    0.0000 C   0  0  0  0  0  0  0  0  0  0  0  0
   10.4818    3.4912    0.0000 C   0  0  0  0  0  0  0  0  0  0  0  0
    7.6544    5.7161    0.0000 C   0  0  0  0  0  0  0  0  0  0  0  0
    9.5085    6.8154    0.0000 C   0  0  0  0  0  0  0  0  0  0  0  0
    7.6335    6.8009    0.0000 C   0  0  0  0  0  0  0  0  0  0  0  0
   10.0433   -1.3552    0.0000 C   0  0  0  0  0  0  0  0  0  0  0  0
   10.5366   -0.4853    0.0000 C   0  0  0  0  0  0  0  0  0  0  0  0
    8.5668    7.3542    0.0000 C   0  0  0  0  0  0  0  0  0  0  0  0
   10.3645    6.2404    0.0000 C   0  0  0  0  0  0  0  0  0  0  0  0
    7.1202    7.6591    0.0000 C   0  0  0  0  0  0  0  0  0  0  0  0
    6.6336    6.7855    0.0000 C   0  0  0  0  0  0  0  0  0  0  0  0
    7.7331   -2.5391    0.0000 C   0  0  3  0  0  0  0  0  0  0  0  0
    7.7331   -3.5391    0.0000 C   0  0  3  0  0  0  0  0  0  0  0  0
    6.8671   -4.0391    0.0000 C   0  0  3  0  0  0  0  0  0  0  0  0
    6.0010   -2.5391    0.0000 C   0  0  3  0  0  0  0  0  0  0  0  0
    6.0010   -3.5391    0.0000 C   0  0  3  0  0  0  0  0  0  0  0  0
    5.1350   -2.0391    0.0000 C   0  0  0  0  0  0  0  0  0  0  0  0
    6.0010   -5.5391    0.0000 C   0  0  3  0  0  0  0  0  0  0  0  0
    6.0010   -6.5391    0.0000 C   0  0  0  0  0  0  0  0  0  0  0  0
    4.2690   -5.5391    0.0000 C   0  0  0  0  0  0  0  0  0  0  0  0
    3.4030   -5.0391    0.0000 C   0  0  0  0  0  0  0  0  0  0  0  0
    9.1718    1.8457    0.0000 H   0  0  0  0  0  0  0  0  0  0  0  0
   10.0634    0.2861    0.0000 H   0  0  0  0  0  0  0  0  0  0  0  0
   11.0242    2.0587    0.0000 H   0  0  0  0  0  0  0  0  0  0  0  0
   10.6144    2.7438    0.0000 H   0  0  0  0  0  0  0  0  0  0  0  0
   10.6400    0.5350    0.0000 H   0  0  0  0  0  0  0  0  0  0  0  0
   11.0338    1.2293    0.0000 H   0  0  0  0  0  0  0  0  0  0  0  0
    7.1572    2.7597    0.0000 H   0  0  0  0  0  0  0  0  0  0  0  0
    7.5583    2.0710    0.0000 H   0  0  0  0  0  0  0  0  0  0  0  0
    7.4718    1.1780    0.0000 H   0  0  0  0  0  0  0  0  0  0  0  0
    7.0621    0.4929    0.0000 H   0  0  0  0  0  0  0  0  0  0  0  0
    8.0787    4.8768    0.0000 H   0  0  0  0  0  0  0  0  0  0  0  0
   10.6112    3.5869    0.0000 H   0  0  0  0  0  0  0  0  0  0  0  0
   11.0156    4.2752    0.0000 H   0  0  0  0  0  0  0  0  0  0  0  0
   10.5943    2.2284    0.0000 H   0  0  0  0  0  0  0  0  0  0  0  0
   11.0945    2.9486    0.0000 H   0  0  0  0  0  0  0  0  0  0  0  0
   10.3743    3.4487    0.0000 H   0  0  0  0  0  0  0  0  0  0  0  0
    8.0616   -1.3481    0.0000 H   0  0  0  0  0  0  0  0  0  0  0  0
   11.0188    5.1046    0.0000 H   0  0  0  0  0  0  0  0  0  0  0  0
   10.6197    5.7959    0.0000 H   0  0  0  0  0  0  0  0  0  0  0  0
    8.0720    2.1553    0.0000 H   0  0  0  0  0  0  0  0  0  0  0  0
    7.2242    1.9316    0.0000 H   0  0  0  0  0  0  0  0  0  0  0  0
    7.4479    1.0838    0.0000 H   0  0  0  0  0  0  0  0  0  0  0  0
    7.0520   -0.3799    0.0000 H   0  0  0  0  0  0  0  0  0  0  0  0
    7.4458   -1.0742    0.0000 H   0  0  0  0  0  0  0  0  0  0  0  0
    7.2262    3.9623    0.0000 H   0  0  0  0  0  0  0  0  0  0  0  0
   10.3765    2.8802    0.0000 H   0  0  0  0  0  0  0  0  0  0  0  0
   11.0928    3.3859    0.0000 H   0  0  0  0  0  0  0  0  0  0  0  0
   10.5871    4.1022    0.0000 H   0  0  0  0  0  0  0  0  0  0  0  0
    7.0416    5.8104    0.0000 H   0  0  0  0  0  0  0  0  0  0  0  0
    7.4566    5.1285    0.0000 H   0  0  0  0  0  0  0  0  0  0  0  0
   10.1189    6.7069    0.0000 H   0  0  0  0  0  0  0  0  0  0  0  0
    9.7198    7.3983    0.0000 H   0  0  0  0  0  0  0  0  0  0  0  0
   10.5414   -1.1053    0.0000 H   0  0  0  0  0  0  0  0  0  0  0  0
    9.5088   -1.6693    0.0000 H   0  0  0  0  0  0  0  0  0  0  0  0
   10.3574   -1.8897    0.0000 H   0  0  0  0  0  0  0  0  0  0  0  0
   10.5778   -1.0410    0.0000 H   0  0  0  0  0  0  0  0  0  0  0  0
   11.1566   -0.4805    0.0000 H   0  0  0  0  0  0  0  0  0  0  0  0
   10.5318    0.1347    0.0000 H   0  0  0  0  0  0  0  0  0  0  0  0
    8.9622    7.8317    0.0000 H   0  0  0  0  0  0  0  0  0  0  0  0
    8.1640    7.8256    0.0000 H   0  0  0  0  0  0  0  0  0  0  0  0
    6.6240    7.4054    0.0000 H   0  0  0  0  0  0  0  0  0  0  0  0
    7.6523    7.9774    0.0000 H   0  0  0  0  0  0  0  0  0  0  0  0
    6.8019    8.1912    0.0000 H   0  0  0  0  0  0  0  0  0  0  0  0
    6.5881    7.3409    0.0000 H   0  0  0  0  0  0  0  0  0  0  0  0
    6.0137    6.7759    0.0000 H   0  0  0  0  0  0  0  0  0  0  0  0
    6.6431    6.1656    0.0000 H   0  0  0  0  0  0  0  0  0  0  0  0
    7.7331   -1.9191    0.0000 H   0  0  0  0  0  0  0  0  0  0  0  0
   10.8862    7.5565    0.0000 H   0  0  0  0  0  0  0  0  0  0  0  0
    7.7331   -4.1591    0.0000 H   0  0  0  0  0  0  0  0  0  0  0  0
    6.3301   -4.3491    0.0000 H   0  0  0  0  0  0  0  0  0  0  0  0
    6.0010   -1.9191    0.0000 H   0  0  0  0  0  0  0  0  0  0  0  0
    5.4641   -3.2291    0.0000 H   0  0  0  0  0  0  0  0  0  0  0  0
    8.5991   -4.6591    0.0000 H   0  0  0  0  0  0  0  0  0  0  0  0
    4.5981   -3.7291    0.0000 H   0  0  0  0  0  0  0  0  0  0  0  0
    6.5380   -5.8491    0.0000 H   0  0  0  0  0  0  0  0  0  0  0  0
    3.7320   -2.2291    0.0000 H   0  0  0  0  0  0  0  0  0  0  0  0
    3.8705   -6.0141    0.0000 H   0  0  0  0  0  0  0  0  0  0  0  0
    4.6675   -6.0141    0.0000 H   0  0  0  0  0  0  0  0  0  0  0  0
    5.1350   -7.6591    0.0000 H   0  0  0  0  0  0  0  0  0  0  0  0
    2.0000   -5.2291    0.0000 H   0  0  0  0  0  0  0  0  0  0  0  0
  1 30  1  0  0  0  0
  1 45  1  0  0  0  0
  2 42  1  0  0  0  0
  2102  1  0  0  0  0
  3 42  2  0  0  0  0
  4 45  1  0  0  0  0
  4 48  1  0  0  0  0
  5 46  1  0  0  0  0
  5107  1  0  0  0  0
  6 47  1  0  0  0  0
  6 51  1  0  0  0  0
  7 49  1  0  0  0  0
  7108  1  0  0  0  0
  8 50  1  0  0  0  0
  8110  1  0  0  0  0
  9 50  2  0  0  0  0
 10 51  1  0  0  0  0
 10 53  1  0  0  0  0
 11 52  1  0  0  0  0
 11113  1  0  0  0  0
 12 52  2  0  0  0  0
 13 54  1  0  0  0  0
 13114  1  0  0  0  0
 14 54  2  0  0  0  0
 15 16  1  0  0  0  0
 15 18  1  0  0  0  0
 15 20  1  0  0  0  0
 15 29  1  0  0  0  0
 16 17  1  0  0  0  0
 16 24  1  0  0  0  0
 16 55  1  0  0  0  0
 17 19  1  0  0  0  0
 17 25  1  0  0  0  0
 17 32  1  0  0  0  0
 18 23  1  0  0  0  0
 18 27  1  0  0  0  0
 18 35  1  0  0  0  0
 19 21  1  0  0  0  0
 19 22  1  0  0  0  0
 19 56  1  0  0  0  0
 20 22  1  0  0  0  0
 20 57  1  0  0  0  0
 20 58  1  0  0  0  0
 21 30  1  0  0  0  0
 21 39  1  0  0  0  0
 21 40  1  0  0  0  0
 22 59  1  0  0  0  0
 22 60  1  0  0  0  0
 23 26  1  0  0  0  0
 23 34  2  0  0  0  0
 24 34  1  0  0  0  0
 24 61  1  0  0  0  0
 24 62  1  0  0  0  0
 25 33  1  0  0  0  0
 25 63  1  0  0  0  0
 25 64  1  0  0  0  0
 26 28  1  0  0  0  0
 26 36  1  0  0  0  0
 26 65  1  0  0  0  0
 27 31  1  0  0  0  0
 27 66  1  0  0  0  0
 27 67  1  0  0  0  0
 28 31  1  0  0  0  0
 28 37  1  0  0  0  0
 28 42  1  0  0  0  0
 29 68  1  0  0  0  0
 29 69  1  0  0  0  0
 29 70  1  0  0  0  0
 30 33  1  0  0  0  0
 30 71  1  0  0  0  0
 31 72  1  0  0  0  0
 31 73  1  0  0  0  0
 32 74  1  0  0  0  0
 32 75  1  0  0  0  0
 32 76  1  0  0  0  0
 33 77  1  0  0  0  0
 33 78  1  0  0  0  0
 34 79  1  0  0  0  0
 35 80  1  0  0  0  0
 35 81  1  0  0  0  0
 35 82  1  0  0  0  0
 36 38  1  0  0  0  0
 36 83  1  0  0  0  0
 36 84  1  0  0  0  0
 37 41  1  0  0  0  0
 37 85  1  0  0  0  0
 37 86  1  0  0  0  0
 38 41  1  0  0  0  0
 38 43  1  0  0  0  0
 38 44  1  0  0  0  0
 39 88  1  0  0  0  0
 39 89  1  0  0  0  0
 39 90  1  0  0  0  0
 40 87  1  0  0  0  0
 40 91  1  0  0  0  0
 40 92  1  0  0  0  0
 41 93  1  0  0  0  0
 41 94  1  0  0  0  0
 43 96  1  0  0  0  0
 43 97  1  0  0  0  0
 43 98  1  0  0  0  0
 44 95  1  0  0  0  0
 44 99  1  0  0  0  0
 44100  1  0  0  0  0
 45 46  1  0  0  0  0
 45101  1  0  0  0  0
 46 47  1  0  0  0  0
 46103  1  0  0  0  0
 47 49  1  0  0  0  0
 47104  1  0  0  0  0
 48 49  1  0  0  0  0
 48 50  1  0  0  0  0
 48105  1  0  0  0  0
 49106  1  0  0  0  0
 51 52  1  0  0  0  0
 51109  1  0  0  0  0
 53 54  1  0  0  0  0
 53111  1  0  0  0  0
 53112  1  0  0  0  0
M  END
>  <PUBCHEM_COMPOUND_CID>
131751632

>  <PUBCHEM_COMPOUND_CANONICALIZED>
1

>  <PUBCHEM_CACTVS_COMPLEXITY>
1560

>  <PUBCHEM_CACTVS_HBOND_ACCEPTOR>
14

>  <PUBCHEM_CACTVS_HBOND_DONOR>
6

>  <PUBCHEM_CACTVS_ROTATABLE_BOND>
10

>  <PUBCHEM_CACTVS_SUBSKEYS>
AAADcfB8PAAAAAAAAAAAAAAAAAAAAAAAAAA0YMGCAAAAAADAAAAAGgAACAAADxSwgAMCCAAABgCIAiDSCAIAAAAgAAAACAFAAAgREBYAAQQiQAAFoAAPAAPK7PzPgAAAAAAAAADAAAYAADAAAAAAAAAAAA==

>  <PUBCHEM_IUPAC_OPENEYE_NAME>
6-[(8a-carboxy-4,4,6a,6b,11,11,14b-heptamethyl-1,2,3,4a,5,6,7,8,9,10,12,12a,14,14a-tetradecahydropicen-3-yl)oxy]-4-[carboxy(carboxymethoxy)methoxy]-3,5-dihydroxy-tetrahydropyran-2-carboxylic acid

>  <PUBCHEM_IUPAC_CAS_NAME>
6-[(8a-carboxy-4,4,6a,6b,11,11,14b-heptamethyl-1,2,3,4a,5,6,7,8,9,10,12,12a,14,14a-tetradecahydropicen-3-yl)oxy]-4-[carboxy(carboxymethoxy)methoxy]-3,5-dihydroxy-2-oxanecarboxylic acid

>  <PUBCHEM_IUPAC_NAME>
6-[(8a-carboxy-4,4,6a,6b,11,11,14b-heptamethyl-1,2,3,4a,5,6,7,8,9,10,12,12a,14,14a-tetradecahydropicen-3-yl)oxy]-4-[carboxy(carboxymethoxy)methoxy]-3,5-dihydroxyoxane-2-carboxylic acid

>  <PUBCHEM_IUPAC_SYSTEMATIC_NAME>
6-[(8a-carboxy-4,4,6a,6b,11,11,14b-heptamethyl-1,2,3,4a,5,6,7,8,9,10,12,12a,14,14a-tetradecahydropicen-3-yl)oxy]-4-[1-(2-hydroxy-2-oxoethyloxy)-2-oxidanyl-2-oxidanylidene-ethoxy]-3,5-bis(oxidanyl)oxane-2-carboxylic acid

>  <PUBCHEM_IUPAC_TRADITIONAL_NAME>
6-[(8a-carboxy-4,4,6a,6b,11,11,14b-heptamethyl-1,2,3,4a,5,6,7,8,9,10,12,12a,14,14a-tetradecahydropicen-3-yl)oxy]-4-[carboxy(carboxymethoxy)methoxy]-3,5-dihydroxy-tetrahydropyran-2-carboxylic acid

>  <PUBCHEM_IUPAC_INCHI>
InChI=1S/C40H60O14/c1-35(2)14-16-40(34(49)50)17-15-38(6)20(21(40)18-35)8-9-23-37(5)12-11-24(36(3,4)22(37)10-13-39(23,38)7)52-32-27(44)28(26(43)29(54-32)30(45)46)53-33(31(47)48)51-19-25(41)42/h8,21-24,26-29,32-33,43-44H,9-19H2,1-7H3,(H,41,42)(H,45,46)(H,47,48)(H,49,50)

>  <PUBCHEM_IUPAC_INCHIKEY>
WEUHEQAOZHTARY-UHFFFAOYSA-N

>  <PUBCHEM_EXACT_MASS>
764.398

>  <PUBCHEM_MOLECULAR_FORMULA>
C40H60O14

>  <PUBCHEM_MOLECULAR_WEIGHT>
764.906

>  <PUBCHEM_OPENEYE_CAN_SMILES>
CC1(CCC2(CCC3(C(=CCC4C3(CCC5C4(CCC(C5(C)C)OC6C(C(C(C(O6)C(=O)O)O)OC(C(=O)O)OCC(=O)O)O)C)C)C2C1)C)C(=O)O)C

>  <PUBCHEM_OPENEYE_ISO_SMILES>
CC1(CCC2(CCC3(C(=CCC4C3(CCC5C4(CCC(C5(C)C)OC6C(C(C(C(O6)C(=O)O)O)OC(C(=O)O)OCC(=O)O)O)C)C)C2C1)C)C(=O)O)C

>  <PUBCHEM_CACTVS_TPSA>
227

>  <PUBCHEM_MONOISOTOPIC_WEIGHT>
764.398

>  <PUBCHEM_TOTAL_CHARGE>
0

>  <PUBCHEM_HEAVY_ATOM_COUNT>
54

>  <PUBCHEM_ATOM_DEF_STEREO_COUNT>
0

>  <PUBCHEM_ATOM_UDEF_STEREO_COUNT>
14

>  <PUBCHEM_BOND_DEF_STEREO_COUNT>
0

>  <PUBCHEM_BOND_UDEF_STEREO_COUNT>
0

>  <PUBCHEM_ISOTOPIC_ATOM_COUNT>
0

>  <PUBCHEM_COMPONENT_COUNT>
1

>  <PUBCHEM_CACTVS_TAUTO_COUNT>
1

>  <PUBCHEM_COORDINATE_TYPE>
1
5
255

>  <PUBCHEM_BONDANNOTATIONS>
30  1  3
45  1  3
15  29  3
16  24  3
17  32  3
18  35  3
19  22  3
26  36  3
28  42  3
48  50  3
46  5  3
51  52  3
47  6  3
49  7  3

$$$$
