131752174
 OpenBabel06101807152D

 89 94  0  0  1  0  0  0  0  0999 V2000
    6.8671   -4.7820    0.0000 O   0  0  0  0  0  0  0  0  0  0  0  0
    4.2690   -7.2820    0.0000 O   0  0  0  0  0  0  0  0  0  0  0  0
    6.0010   -7.2820    0.0000 O   0  0  0  0  0  0  0  0  0  0  0  0
    7.7331   -7.2820    0.0000 O   0  0  0  0  0  0  0  0  0  0  0  0
    9.4651   -6.2820    0.0000 O   0  0  0  0  0  0  0  0  0  0  0  0
    7.7331   -3.2820    0.0000 O   0  0  0  0  0  0  0  0  0  0  0  0
    9.4651   -4.2820    0.0000 O   0  0  0  0  0  0  0  0  0  0  0  0
    6.0010   -9.2820    0.0000 O   0  0  0  0  0  0  0  0  0  0  0  0
    4.2690  -10.2820    0.0000 O   0  0  0  0  0  0  0  0  0  0  0  0
    2.5369   -9.2820    0.0000 O   0  0  0  0  0  0  0  0  0  0  0  0
    5.9589   -0.2300    0.0000 O   0  0  0  0  0  0  0  0  0  0  0  0
    4.1934   -3.2547    0.0000 O   0  0  0  0  0  0  0  0  0  0  0  0
    3.3550   -1.7200    0.0000 O   0  0  0  0  0  0  0  0  0  0  0  0
    5.1102    4.2733    0.0000 O   0  0  0  0  0  0  0  0  0  0  0  0
    3.3782    4.2800    0.0000 O   0  0  0  0  0  0  0  0  0  0  0  0
    5.1295    9.2733    0.0000 O   0  0  0  0  0  0  0  0  0  0  0  0
    3.4013   10.2799    0.0000 O   0  0  0  0  0  0  0  0  0  0  0  0
    6.8671   -5.7820    0.0000 C   0  0  3  0  0  0  0  0  0  0  0  0
    7.7331   -6.2820    0.0000 C   0  0  3  0  0  0  0  0  0  0  0  0
    8.5991   -5.7820    0.0000 C   0  0  3  0  0  0  0  0  0  0  0  0
    8.5991   -4.7820    0.0000 C   0  0  3  0  0  0  0  0  0  0  0  0
    5.1350   -8.7820    0.0000 C   0  0  3  0  0  0  0  0  0  0  0  0
    5.1350   -7.7820    0.0000 C   0  0  3  0  0  0  0  0  0  0  0  0
    4.2690   -9.2820    0.0000 C   0  0  3  0  0  0  0  0  0  0  0  0
    3.4030   -8.7820    0.0000 C   0  0  3  0  0  0  0  0  0  0  0  0
    7.7331   -4.2820    0.0000 C   0  0  3  0  0  0  0  0  0  0  0  0
    3.4030   -7.7820    0.0000 C   0  0  3  0  0  0  0  0  0  0  0  0
    6.0010   -6.2820    0.0000 C   0  0  0  0  0  0  0  0  0  0  0  0
    2.5369   -7.2820    0.0000 C   0  0  0  0  0  0  0  0  0  0  0  0
    6.8671   -2.7820    0.0000 C   0  0  0  0  0  0  0  0  0  0  0  0
    6.8630   -1.7404    0.0000 C   0  0  0  0  0  0  0  0  0  0  0  0
    5.9630   -3.2993    0.0000 C   0  0  0  0  0  0  0  0  0  0  0  0
    5.9550   -1.2300    0.0000 C   0  0  0  0  0  0  0  0  0  0  0  0
    5.0670   -2.7681    0.0000 C   0  0  0  0  0  0  0  0  0  0  0  0
    5.0871   -1.7267    0.0000 C   0  0  0  0  0  0  0  0  0  0  0  0
    4.2230   -1.2233    0.0000 C   0  0  0  0  0  0  0  0  0  0  0  0
    5.0948    0.2733    0.0000 C   0  0  0  0  0  0  0  0  0  0  0  0
    4.2268   -0.2233    0.0000 C   0  0  0  0  0  0  0  0  0  0  0  0
    5.0986    1.2733    0.0000 C   0  0  0  0  0  0  0  0  0  0  0  0
    4.2345    1.7766    0.0000 C   0  0  0  0  0  0  0  0  0  0  0  0
    5.9666    1.7700    0.0000 C   0  0  0  0  0  0  0  0  0  0  0  0
    4.2384    2.7766    0.0000 C   0  0  0  0  0  0  0  0  0  0  0  0
    5.9704    2.7700    0.0000 C   0  0  0  0  0  0  0  0  0  0  0  0
    5.1063    3.2733    0.0000 C   0  0  0  0  0  0  0  0  0  0  0  0
    4.2461    4.7766    0.0000 C   0  0  0  0  0  0  0  0  0  0  0  0
    4.2500    5.7766    0.0000 C   0  0  0  0  0  0  0  0  0  0  0  0
    3.3859    6.2800    0.0000 C   0  0  0  0  0  0  0  0  0  0  0  0
    3.3897    7.2799    0.0000 C   0  0  0  0  0  0  0  0  0  0  0  0
    4.2577    7.7766    0.0000 C   0  0  0  0  0  0  0  0  0  0  0  0
    2.5256    7.7833    0.0000 C   0  0  0  0  0  0  0  0  0  0  0  0
    4.2615    8.7766    0.0000 C   0  0  0  0  0  0  0  0  0  0  0  0
    2.5295    8.7833    0.0000 C   0  0  0  0  0  0  0  0  0  0  0  0
    3.3974    9.2799    0.0000 C   0  0  0  0  0  0  0  0  0  0  0  0
    6.3301   -5.4720    0.0000 H   0  0  0  0  0  0  0  0  0  0  0  0
    8.2700   -6.5920    0.0000 H   0  0  0  0  0  0  0  0  0  0  0  0
    9.1360   -5.4720    0.0000 H   0  0  0  0  0  0  0  0  0  0  0  0
    8.5991   -4.1620    0.0000 H   0  0  0  0  0  0  0  0  0  0  0  0
    5.1350   -9.4020    0.0000 H   0  0  0  0  0  0  0  0  0  0  0  0
    5.1350   -7.1620    0.0000 H   0  0  0  0  0  0  0  0  0  0  0  0
    3.7320   -9.5920    0.0000 H   0  0  0  0  0  0  0  0  0  0  0  0
    3.4030   -9.4020    0.0000 H   0  0  0  0  0  0  0  0  0  0  0  0
    7.1962   -3.9720    0.0000 H   0  0  0  0  0  0  0  0  0  0  0  0
    3.4030   -7.1620    0.0000 H   0  0  0  0  0  0  0  0  0  0  0  0
    5.7890   -5.6994    0.0000 H   0  0  0  0  0  0  0  0  0  0  0  0
    5.3905   -6.3896    0.0000 H   0  0  0  0  0  0  0  0  0  0  0  0
    2.8469   -6.7450    0.0000 H   0  0  0  0  0  0  0  0  0  0  0  0
    2.0000   -6.9720    0.0000 H   0  0  0  0  0  0  0  0  0  0  0  0
    2.2269   -7.8189    0.0000 H   0  0  0  0  0  0  0  0  0  0  0  0
    8.2700   -7.5920    0.0000 H   0  0  0  0  0  0  0  0  0  0  0  0
   10.0021   -5.9720    0.0000 H   0  0  0  0  0  0  0  0  0  0  0  0
    9.4651   -3.6620    0.0000 H   0  0  0  0  0  0  0  0  0  0  0  0
    6.5380   -8.9720    0.0000 H   0  0  0  0  0  0  0  0  0  0  0  0
    3.7320  -10.5920    0.0000 H   0  0  0  0  0  0  0  0  0  0  0  0
    2.0000   -8.9720    0.0000 H   0  0  0  0  0  0  0  0  0  0  0  0
    7.3976   -1.4262    0.0000 H   0  0  0  0  0  0  0  0  0  0  0  0
    5.9582   -3.9193    0.0000 H   0  0  0  0  0  0  0  0  0  0  0  0
    3.6911    0.0887    0.0000 H   0  0  0  0  0  0  0  0  0  0  0  0
    4.1838   -3.8746    0.0000 H   0  0  0  0  0  0  0  0  0  0  0  0
    3.6964    1.4687    0.0000 H   0  0  0  0  0  0  0  0  0  0  0  0
    6.5023    1.4579    0.0000 H   0  0  0  0  0  0  0  0  0  0  0  0
    3.7026    3.0887    0.0000 H   0  0  0  0  0  0  0  0  0  0  0  0
    6.5085    3.0779    0.0000 H   0  0  0  0  0  0  0  0  0  0  0  0
    4.7881    6.0845    0.0000 H   0  0  0  0  0  0  0  0  0  0  0  0
    2.8477    5.9720    0.0000 H   0  0  0  0  0  0  0  0  0  0  0  0
    4.7934    7.4645    0.0000 H   0  0  0  0  0  0  0  0  0  0  0  0
    1.9875    7.4754    0.0000 H   0  0  0  0  0  0  0  0  0  0  0  0
    1.9937    9.0953    0.0000 H   0  0  0  0  0  0  0  0  0  0  0  0
    5.1318    9.8932    0.0000 H   0  0  0  0  0  0  0  0  0  0  0  0
    2.8655   10.5920    0.0000 H   0  0  0  0  0  0  0  0  0  0  0  0
  1 18  1  0  0  0  0
  1 26  1  0  0  0  0
  2 23  1  0  0  0  0
  2 27  1  0  0  0  0
  3 23  1  0  0  0  0
  3 28  1  0  0  0  0
  4 19  1  0  0  0  0
  4 69  1  0  0  0  0
  5 20  1  0  0  0  0
  5 70  1  0  0  0  0
  6 26  1  0  0  0  0
  6 30  1  0  0  0  0
  7 21  1  0  0  0  0
  7 71  1  0  0  0  0
  8 22  1  0  0  0  0
  8 72  1  0  0  0  0
  9 24  1  0  0  0  0
  9 73  1  0  0  0  0
 10 25  1  0  0  0  0
 10 74  1  0  0  0  0
 11 33  1  0  0  0  0
 11 37  1  0  0  0  0
 12 34  1  0  0  0  0
 12 78  1  0  0  0  0
 13 36  2  0  0  0  0
 14 44  1  0  0  0  0
 14 45  1  0  0  0  0
 15 45  2  0  0  0  0
 16 51  1  0  0  0  0
 16 88  1  0  0  0  0
 17 53  1  0  0  0  0
 17 89  1  0  0  0  0
 18 19  1  0  0  0  0
 18 28  1  0  0  0  0
 18 54  1  0  0  0  0
 19 20  1  0  0  0  0
 19 55  1  0  0  0  0
 20 21  1  0  0  0  0
 20 56  1  0  0  0  0
 21 26  1  0  0  0  0
 21 57  1  0  0  0  0
 22 23  1  0  0  0  0
 22 24  1  0  0  0  0
 22 58  1  0  0  0  0
 23 59  1  0  0  0  0
 24 25  1  0  0  0  0
 24 60  1  0  0  0  0
 25 27  1  0  0  0  0
 25 61  1  0  0  0  0
 26 62  1  0  0  0  0
 27 29  1  0  0  0  0
 27 63  1  0  0  0  0
 28 64  1  0  0  0  0
 28 65  1  0  0  0  0
 29 66  1  0  0  0  0
 29 67  1  0  0  0  0
 29 68  1  0  0  0  0
 30 31  1  0  0  0  0
 30 32  2  0  0  0  0
 31 33  2  0  0  0  0
 31 75  1  0  0  0  0
 32 34  1  0  0  0  0
 32 76  1  0  0  0  0
 33 35  1  0  0  0  0
 34 35  2  0  0  0  0
 35 36  1  0  0  0  0
 36 38  1  0  0  0  0
 37 38  2  0  0  0  0
 37 39  1  0  0  0  0
 38 77  1  0  0  0  0
 39 40  2  0  0  0  0
 39 41  1  0  0  0  0
 40 42  1  0  0  0  0
 40 79  1  0  0  0  0
 41 43  2  0  0  0  0
 41 80  1  0  0  0  0
 42 44  2  0  0  0  0
 42 81  1  0  0  0  0
 43 44  1  0  0  0  0
 43 82  1  0  0  0  0
 45 46  1  0  0  0  0
 46 47  2  0  0  0  0
 46 83  1  0  0  0  0
 47 48  1  0  0  0  0
 47 84  1  0  0  0  0
 48 49  2  0  0  0  0
 48 50  1  0  0  0  0
 49 51  1  0  0  0  0
 49 85  1  0  0  0  0
 50 52  2  0  0  0  0
 50 86  1  0  0  0  0
 51 53  2  0  0  0  0
 52 53  1  0  0  0  0
 52 87  1  0  0  0  0
M  END
>  <PUBCHEM_COMPOUND_CID>
131752174

>  <PUBCHEM_COMPOUND_CANONICALIZED>
1

>  <PUBCHEM_CACTVS_COMPLEXITY>
1320

>  <PUBCHEM_CACTVS_HBOND_ACCEPTOR>
17

>  <PUBCHEM_CACTVS_HBOND_DONOR>
9

>  <PUBCHEM_CACTVS_ROTATABLE_BOND>
10

>  <PUBCHEM_CACTVS_SUBSKEYS>
AAADcfB8PgAAAAAAAAAAAAAAAAAAAAAAAAA0aMECAAAAAACBUAAAGgAACAAADBSwmAMyDoAABgCIAqDSCAACCAAkIAAIiAEGiMgdNzaGNRqie2Gl4BUPuYfI7LzOIAABCAAIQABAAAIQABCAAAAAAAAAAA==

>  <PUBCHEM_IUPAC_OPENEYE_NAME>
[4-[5-hydroxy-4-oxo-7-[3,4,5-trihydroxy-6-[(3,4,5-trihydroxy-6-methyl-tetrahydropyran-2-yl)oxymethyl]tetrahydropyran-2-yl]oxy-chromen-2-yl]phenyl] (E)-3-(3,4-dihydroxyphenyl)prop-2-enoate

>  <PUBCHEM_IUPAC_CAS_NAME>
(E)-3-(3,4-dihydroxyphenyl)-2-propenoic acid [4-[5-hydroxy-4-oxo-7-[[3,4,5-trihydroxy-6-[(3,4,5-trihydroxy-6-methyl-2-oxanyl)oxymethyl]-2-oxanyl]oxy]-1-benzopyran-2-yl]phenyl] ester

>  <PUBCHEM_IUPAC_NAME>
[4-[5-hydroxy-4-oxo-7-[3,4,5-trihydroxy-6-[(3,4,5-trihydroxy-6-methyloxan-2-yl)oxymethyl]oxan-2-yl]oxychromen-2-yl]phenyl] (E)-3-(3,4-dihydroxyphenyl)prop-2-enoate

>  <PUBCHEM_IUPAC_SYSTEMATIC_NAME>
[4-[7-[6-[[6-methyl-3,4,5-tris(oxidanyl)oxan-2-yl]oxymethyl]-3,4,5-tris(oxidanyl)oxan-2-yl]oxy-5-oxidanyl-4-oxidanylidene-chromen-2-yl]phenyl] (E)-3-[3,4-bis(oxidanyl)phenyl]prop-2-enoate

>  <PUBCHEM_IUPAC_TRADITIONAL_NAME>
(E)-3-(3,4-dihydroxyphenyl)acrylic acid [4-[5-hydroxy-4-keto-7-[3,4,5-trihydroxy-6-[(3,4,5-trihydroxy-6-methyl-tetrahydropyran-2-yl)oxymethyl]tetrahydropyran-2-yl]oxy-chromen-2-yl]phenyl] ester

>  <PUBCHEM_IUPAC_INCHI>
InChI=1S/C36H36O17/c1-15-29(42)31(44)33(46)35(49-15)48-14-26-30(43)32(45)34(47)36(53-26)51-19-11-22(39)28-23(40)13-24(52-25(28)12-19)17-4-6-18(7-5-17)50-27(41)9-3-16-2-8-20(37)21(38)10-16/h2-13,15,26,29-39,42-47H,14H2,1H3/b9-3+

>  <PUBCHEM_IUPAC_INCHIKEY>
VFFCBWDFYBEZAX-YCRREMRBSA-N

>  <PUBCHEM_EXACT_MASS>
740.195

>  <PUBCHEM_MOLECULAR_FORMULA>
C36H36O17

>  <PUBCHEM_MOLECULAR_WEIGHT>
740.667

>  <PUBCHEM_OPENEYE_CAN_SMILES>
CC1C(C(C(C(O1)OCC2C(C(C(C(O2)OC3=CC(=C4C(=C3)OC(=CC4=O)C5=CC=C(C=C5)OC(=O)C=CC6=CC(=C(C=C6)O)O)O)O)O)O)O)O)O

>  <PUBCHEM_OPENEYE_ISO_SMILES>
CC1C(C(C(C(O1)OCC2C(C(C(C(O2)OC3=CC(=C4C(=C3)OC(=CC4=O)C5=CC=C(C=C5)OC(=O)/C=C/C6=CC(=C(C=C6)O)O)O)O)O)O)O)O)O

>  <PUBCHEM_CACTVS_TPSA>
272

>  <PUBCHEM_MONOISOTOPIC_WEIGHT>
740.195

>  <PUBCHEM_TOTAL_CHARGE>
0

>  <PUBCHEM_HEAVY_ATOM_COUNT>
53

>  <PUBCHEM_ATOM_DEF_STEREO_COUNT>
0

>  <PUBCHEM_ATOM_UDEF_STEREO_COUNT>
10

>  <PUBCHEM_BOND_DEF_STEREO_COUNT>
1

>  <PUBCHEM_BOND_UDEF_STEREO_COUNT>
0

>  <PUBCHEM_ISOTOPIC_ATOM_COUNT>
0

>  <PUBCHEM_COMPONENT_COUNT>
1

>  <PUBCHEM_CACTVS_TAUTO_COUNT>
80

>  <PUBCHEM_COORDINATE_TYPE>
1
5
255

>  <PUBCHEM_BONDANNOTATIONS>
25  10  3
11  33  8
11  37  8
18  28  3
27  29  3
23  3  3
30  31  8
30  32  8
31  33  8
32  34  8
33  35  8
34  35  8
35  36  8
36  38  8
37  38  8
39  40  8
39  41  8
19  4  3
40  42  8
41  43  8
42  44  8
43  44  8
48  49  8
48  50  8
49  51  8
20  5  3
50  52  8
51  53  8
52  53  8
26  6  3
21  7  3
22  8  3
24  9  3

$$$$
