131752224
 OpenBabel06101807152D

 76 80  0  0  1  0  0  0  0  0999 V2000
    5.4028    3.0670    0.0000 O   0  0  0  0  0  0  0  0  0  0  0  0
    6.3733   -2.4276    0.0000 O   0  0  0  0  0  0  0  0  0  0  0  0
    6.3733    1.5724    0.0000 O   0  0  0  0  0  0  0  0  0  0  0  0
    2.9301    2.3043    0.0000 O   0  0  0  0  0  0  0  0  0  0  0  0
    4.3858    0.6876    0.0000 O   0  0  0  0  0  0  0  0  0  0  0  0
    4.6056    4.9974    0.0000 O   0  0  0  0  0  0  0  0  0  0  0  0
    8.1054   -2.4276    0.0000 O   0  0  0  0  0  0  0  0  0  0  0  0
    6.3733   -5.4276    0.0000 O   0  0  0  0  0  0  0  0  0  0  0  0
    4.6412   -4.4276    0.0000 O   0  0  0  0  0  0  0  0  0  0  0  0
    8.1054   -4.4276    0.0000 O   0  0  0  0  0  0  0  0  0  0  0  0
    2.6166    5.2065    0.0000 O   0  0  0  0  0  0  0  0  0  0  0  0
    8.9714    2.0724    0.0000 O   0  0  0  0  0  0  0  0  0  0  0  0
    6.3733   -1.4276    0.0000 O   0  0  0  0  0  0  0  0  0  0  0  0
    6.3733    3.5724    0.0000 O   0  0  0  0  0  0  0  0  0  0  0  0
    7.2175    5.1039    0.0000 O   0  0  0  0  0  0  0  0  0  0  0  0
   10.7574    5.1175    0.0000 O   0  0  0  0  0  0  0  0  0  0  0  0
    4.4246    3.2749    0.0000 C   0  0  3  0  0  0  0  0  0  0  0  0
    3.9246    2.4089    0.0000 C   0  0  3  0  0  0  0  0  0  0  0  0
    4.5937    1.6657    0.0000 C   0  0  3  0  0  0  0  0  0  0  0  0
    5.5073    2.0724    0.0000 C   0  0  3  0  0  0  0  0  0  0  0  0
    4.0179    4.1884    0.0000 C   0  0  3  0  0  0  0  0  0  0  0  0
    6.3733   -4.4276    0.0000 C   0  0  3  0  0  0  0  0  0  0  0  0
    5.5073   -3.9276    0.0000 C   0  0  3  0  0  0  0  0  0  0  0  0
    7.2393   -3.9276    0.0000 C   0  0  3  0  0  0  0  0  0  0  0  0
    5.5073   -2.9276    0.0000 C   0  0  3  0  0  0  0  0  0  0  0  0
    7.2393   -2.9276    0.0000 C   0  0  3  0  0  0  0  0  0  0  0  0
    3.0233    4.2930    0.0000 C   0  0  0  0  0  0  0  0  0  0  0  0
    4.6412   -2.4276    0.0000 C   0  0  0  0  0  0  0  0  0  0  0  0
    7.2393    2.0724    0.0000 C   0  0  0  0  0  0  0  0  0  0  0  0
    8.1054    1.5724    0.0000 C   0  0  0  0  0  0  0  0  0  0  0  0
    8.1054   -1.4276    0.0000 C   0  0  0  0  0  0  0  0  0  0  0  0
    7.2393    3.0724    0.0000 C   0  0  0  0  0  0  0  0  0  0  0  0
    8.1054    0.5724    0.0000 C   0  0  0  0  0  0  0  0  0  0  0  0
    7.2393   -0.9276    0.0000 C   0  0  0  0  0  0  0  0  0  0  0  0
    8.1054    3.5724    0.0000 C   0  0  0  0  0  0  0  0  0  0  0  0
    8.9714   -0.9276    0.0000 C   0  0  0  0  0  0  0  0  0  0  0  0
    7.2393    0.0725    0.0000 C   0  0  0  0  0  0  0  0  0  0  0  0
    8.9714    0.0725    0.0000 C   0  0  0  0  0  0  0  0  0  0  0  0
    8.9714    3.0724    0.0000 C   0  0  0  0  0  0  0  0  0  0  0  0
    8.0893    4.6140    0.0000 C   0  0  0  0  0  0  0  0  0  0  0  0
    9.8814    3.5793    0.0000 C   0  0  0  0  0  0  0  0  0  0  0  0
    8.9873    5.1417    0.0000 C   0  0  0  0  0  0  0  0  0  0  0  0
    9.8894    4.6209    0.0000 C   0  0  0  0  0  0  0  0  0  0  0  0
    5.5073   -0.9276    0.0000 C   0  0  0  0  0  0  0  0  0  0  0  0
    4.8148    3.7567    0.0000 H   0  0  0  0  0  0  0  0  0  0  0  0
    3.7024    1.8300    0.0000 H   0  0  0  0  0  0  0  0  0  0  0  0
    5.0756    1.2755    0.0000 H   0  0  0  0  0  0  0  0  0  0  0  0
    5.4748    1.4533    0.0000 H   0  0  0  0  0  0  0  0  0  0  0  0
    4.6345    4.1236    0.0000 H   0  0  0  0  0  0  0  0  0  0  0  0
    6.9102   -4.7376    0.0000 H   0  0  0  0  0  0  0  0  0  0  0  0
    4.9703   -3.6176    0.0000 H   0  0  0  0  0  0  0  0  0  0  0  0
    7.7763   -3.6176    0.0000 H   0  0  0  0  0  0  0  0  0  0  0  0
    5.5073   -2.3076    0.0000 H   0  0  0  0  0  0  0  0  0  0  0  0
    7.2393   -2.3076    0.0000 H   0  0  0  0  0  0  0  0  0  0  0  0
    2.4218    4.1430    0.0000 H   0  0  0  0  0  0  0  0  0  0  0  0
    3.0666    3.6745    0.0000 H   0  0  0  0  0  0  0  0  0  0  0  0
    2.6779    1.7379    0.0000 H   0  0  0  0  0  0  0  0  0  0  0  0
    3.7962    0.4960    0.0000 H   0  0  0  0  0  0  0  0  0  0  0  0
    4.9512   -1.8906    0.0000 H   0  0  0  0  0  0  0  0  0  0  0  0
    4.1043   -2.1176    0.0000 H   0  0  0  0  0  0  0  0  0  0  0  0
    4.3312   -2.9645    0.0000 H   0  0  0  0  0  0  0  0  0  0  0  0
    4.3535    5.5638    0.0000 H   0  0  0  0  0  0  0  0  0  0  0  0
    5.8364   -5.7376    0.0000 H   0  0  0  0  0  0  0  0  0  0  0  0
    4.1043   -4.1175    0.0000 H   0  0  0  0  0  0  0  0  0  0  0  0
    8.1054   -5.0476    0.0000 H   0  0  0  0  0  0  0  0  0  0  0  0
    2.0000    5.2713    0.0000 H   0  0  0  0  0  0  0  0  0  0  0  0
    9.5083   -1.2376    0.0000 H   0  0  0  0  0  0  0  0  0  0  0  0
    6.7024    0.3824    0.0000 H   0  0  0  0  0  0  0  0  0  0  0  0
    9.5083    0.3824    0.0000 H   0  0  0  0  0  0  0  0  0  0  0  0
   10.4147    3.2631    0.0000 H   0  0  0  0  0  0  0  0  0  0  0  0
    8.9849    5.7617    0.0000 H   0  0  0  0  0  0  0  0  0  0  0  0
    5.8173   -0.3906    0.0000 H   0  0  0  0  0  0  0  0  0  0  0  0
    4.9703   -0.6176    0.0000 H   0  0  0  0  0  0  0  0  0  0  0  0
    5.1973   -1.4645    0.0000 H   0  0  0  0  0  0  0  0  0  0  0  0
    7.2104    5.7239    0.0000 H   0  0  0  0  0  0  0  0  0  0  0  0
   10.7597    5.7376    0.0000 H   0  0  0  0  0  0  0  0  0  0  0  0
  1 17  1  0  0  0  0
  1 20  1  0  0  0  0
  2 25  1  0  0  0  0
  2 26  1  0  0  0  0
  3 20  1  0  0  0  0
  3 29  1  0  0  0  0
  4 18  1  0  0  0  0
  4 57  1  0  0  0  0
  5 19  1  0  0  0  0
  5 58  1  0  0  0  0
  6 21  1  0  0  0  0
  6 62  1  0  0  0  0
  7 26  1  0  0  0  0
  7 31  1  0  0  0  0
  8 22  1  0  0  0  0
  8 63  1  0  0  0  0
  9 23  1  0  0  0  0
  9 64  1  0  0  0  0
 10 24  1  0  0  0  0
 10 65  1  0  0  0  0
 11 27  1  0  0  0  0
 11 66  1  0  0  0  0
 12 30  1  0  0  0  0
 12 39  1  0  0  0  0
 13 34  1  0  0  0  0
 13 44  1  0  0  0  0
 14 32  2  0  0  0  0
 15 40  1  0  0  0  0
 15 75  1  0  0  0  0
 16 43  1  0  0  0  0
 16 76  1  0  0  0  0
 17 18  1  0  0  0  0
 17 21  1  0  0  0  0
 17 45  1  0  0  0  0
 18 19  1  0  0  0  0
 18 46  1  0  0  0  0
 19 20  1  0  0  0  0
 19 47  1  0  0  0  0
 20 48  1  0  0  0  0
 21 27  1  0  0  0  0
 21 49  1  0  0  0  0
 22 23  1  0  0  0  0
 22 24  1  0  0  0  0
 22 50  1  0  0  0  0
 23 25  1  0  0  0  0
 23 51  1  0  0  0  0
 24 26  1  0  0  0  0
 24 52  1  0  0  0  0
 25 28  1  0  0  0  0
 25 53  1  0  0  0  0
 26 54  1  0  0  0  0
 27 55  1  0  0  0  0
 27 56  1  0  0  0  0
 28 59  1  0  0  0  0
 28 60  1  0  0  0  0
 28 61  1  0  0  0  0
 29 30  2  0  0  0  0
 29 32  1  0  0  0  0
 30 33  1  0  0  0  0
 31 34  2  0  0  0  0
 31 36  1  0  0  0  0
 32 35  1  0  0  0  0
 33 37  2  0  0  0  0
 33 38  1  0  0  0  0
 34 37  1  0  0  0  0
 35 39  1  0  0  0  0
 35 40  2  0  0  0  0
 36 38  2  0  0  0  0
 36 67  1  0  0  0  0
 37 68  1  0  0  0  0
 38 69  1  0  0  0  0
 39 41  2  0  0  0  0
 40 42  1  0  0  0  0
 41 43  1  0  0  0  0
 41 70  1  0  0  0  0
 42 43  2  0  0  0  0
 42 71  1  0  0  0  0
 44 72  1  0  0  0  0
 44 73  1  0  0  0  0
 44 74  1  0  0  0  0
M  END
>  <PUBCHEM_COMPOUND_CID>
131752224

>  <PUBCHEM_COMPOUND_CANONICALIZED>
1

>  <PUBCHEM_CACTVS_COMPLEXITY>
1040

>  <PUBCHEM_CACTVS_HBOND_ACCEPTOR>
16

>  <PUBCHEM_CACTVS_HBOND_DONOR>
9

>  <PUBCHEM_CACTVS_ROTATABLE_BOND>
8

>  <PUBCHEM_CACTVS_SUBSKEYS>
AAADcfB4PgAAAAAAAAAAAAAAAAAAASAAAAA0YIEAAAAAAACBQAAAGgAACAAADBSwmAMyDoAABgCIAqBSAAICCAAkIAAIiAFGiMgdNzaGNR6ieWKl4BUPuQfI7LzOIAABCAAIQABAAAIQABCAAAAAAAAAAA==

>  <PUBCHEM_IUPAC_OPENEYE_NAME>
3-[5-(1,2-dihydroxyethyl)-3,4-dihydroxy-tetrahydrofuran-2-yl]oxy-5,7-dihydroxy-2-[3-methoxy-4-(3,4,5-trihydroxy-6-methyl-tetrahydropyran-2-yl)oxy-phenyl]chromen-4-one

>  <PUBCHEM_IUPAC_CAS_NAME>
3-[[5-(1,2-dihydroxyethyl)-3,4-dihydroxy-2-oxolanyl]oxy]-5,7-dihydroxy-2-[3-methoxy-4-[(3,4,5-trihydroxy-6-methyl-2-oxanyl)oxy]phenyl]-1-benzopyran-4-one

>  <PUBCHEM_IUPAC_NAME>
3-[5-(1,2-dihydroxyethyl)-3,4-dihydroxyoxolan-2-yl]oxy-5,7-dihydroxy-2-[3-methoxy-4-(3,4,5-trihydroxy-6-methyloxan-2-yl)oxyphenyl]chromen-4-one

>  <PUBCHEM_IUPAC_SYSTEMATIC_NAME>
3-[5-[1,2-bis(oxidanyl)ethyl]-3,4-bis(oxidanyl)oxolan-2-yl]oxy-2-[3-methoxy-4-[6-methyl-3,4,5-tris(oxidanyl)oxan-2-yl]oxy-phenyl]-5,7-bis(oxidanyl)chromen-4-one

>  <PUBCHEM_IUPAC_TRADITIONAL_NAME>
3-[5-(1,2-dihydroxyethyl)-3,4-dihydroxy-tetrahydrofuran-2-yl]oxy-5,7-dihydroxy-2-[3-methoxy-4-(3,4,5-trihydroxy-6-methyl-tetrahydropyran-2-yl)oxy-phenyl]chromone

>  <PUBCHEM_IUPAC_INCHI>
InChI=1S/C28H32O16/c1-9-18(33)20(35)22(37)27(40-9)42-14-4-3-10(5-15(14)39-2)24-26(19(34)17-12(31)6-11(30)7-16(17)41-24)44-28-23(38)21(36)25(43-28)13(32)8-29/h3-7,9,13,18,20-23,25,27-33,35-38H,8H2,1-2H3

>  <PUBCHEM_IUPAC_INCHIKEY>
ZLIPIZSDFWLLOS-UHFFFAOYSA-N

>  <PUBCHEM_EXACT_MASS>
624.169

>  <PUBCHEM_MOLECULAR_FORMULA>
C28H32O16

>  <PUBCHEM_MOLECULAR_WEIGHT>
624.548

>  <PUBCHEM_OPENEYE_CAN_SMILES>
CC1C(C(C(C(O1)OC2=C(C=C(C=C2)C3=C(C(=O)C4=C(C=C(C=C4O3)O)O)OC5C(C(C(O5)C(CO)O)O)O)OC)O)O)O

>  <PUBCHEM_OPENEYE_ISO_SMILES>
CC1C(C(C(C(O1)OC2=C(C=C(C=C2)C3=C(C(=O)C4=C(C=C(C=C4O3)O)O)OC5C(C(C(O5)C(CO)O)O)O)OC)O)O)O

>  <PUBCHEM_CACTVS_TPSA>
255

>  <PUBCHEM_MONOISOTOPIC_WEIGHT>
624.169

>  <PUBCHEM_TOTAL_CHARGE>
0

>  <PUBCHEM_HEAVY_ATOM_COUNT>
44

>  <PUBCHEM_ATOM_DEF_STEREO_COUNT>
0

>  <PUBCHEM_ATOM_UDEF_STEREO_COUNT>
10

>  <PUBCHEM_BOND_DEF_STEREO_COUNT>
0

>  <PUBCHEM_BOND_UDEF_STEREO_COUNT>
0

>  <PUBCHEM_ISOTOPIC_ATOM_COUNT>
0

>  <PUBCHEM_COMPONENT_COUNT>
1

>  <PUBCHEM_CACTVS_TAUTO_COUNT>
12

>  <PUBCHEM_COORDINATE_TYPE>
1
5
255

>  <PUBCHEM_BONDANNOTATIONS>
17  1  3
24  10  3
12  30  8
12  39  8
25  28  3
29  30  8
29  32  8
20  3  3
31  34  8
31  36  8
32  35  8
33  37  8
33  38  8
34  37  8
35  39  8
35  40  8
36  38  8
39  41  8
18  4  3
40  42  8
41  43  8
42  43  8
19  5  3
21  6  3
26  7  3
22  8  3
23  9  3

$$$$
