131751601
 OpenBabel06101807152D

 65 67  0  0  1  0  0  0  0  0999 V2000
    4.6254   -1.6972    0.0000 O   0  0  0  0  0  0  0  0  0  0  0  0
    4.4791    0.9469    0.0000 O   0  0  0  0  0  0  0  0  0  0  0  0
    6.8855   -3.5148    0.0000 O   0  0  0  0  0  0  0  0  0  0  0  0
    8.1456   -2.2547    0.0000 O   0  0  0  0  0  0  0  0  0  0  0  0
    3.3383   -0.5382    0.0000 O   0  0  0  0  0  0  0  0  0  0  0  0
    5.3277    2.4567    0.0000 O   0  0  0  0  0  0  0  0  0  0  0  0
    6.8855   -0.4371    0.0000 C   0  0  3  0  0  0  0  0  0  0  0  0
    5.8855   -0.4371    0.0000 C   0  0  3  0  0  0  0  0  0  0  0  0
    6.3855   -1.9759    0.0000 C   0  0  3  0  0  0  0  0  0  0  0  0
    7.1945   -1.3882    0.0000 C   0  0  0  0  0  0  0  0  0  0  0  0
    5.5765   -1.3882    0.0000 C   0  0  3  0  0  0  0  0  0  0  0  0
    7.4202    0.4568    0.0000 C   0  0  3  0  0  0  0  0  0  0  0  0
    5.3508    0.4568    0.0000 C   0  0  3  0  0  0  0  0  0  0  0  0
    6.9063    1.3629    0.0000 C   0  0  0  0  0  0  0  0  0  0  0  0
    5.8647    1.3629    0.0000 C   0  0  0  0  0  0  0  0  0  0  0  0
    7.8855   -0.4371    0.0000 C   0  0  0  0  0  0  0  0  0  0  0  0
    5.5765   -2.5637    0.0000 C   0  0  0  0  0  0  0  0  0  0  0  0
    7.1945   -2.5637    0.0000 C   0  0  0  0  0  0  0  0  0  0  0  0
    8.4201    0.4453    0.0000 C   0  0  0  0  0  0  0  0  0  0  0  0
    5.8855   -3.5148    0.0000 C   0  0  0  0  0  0  0  0  0  0  0  0
    4.5983   -2.7716    0.0000 C   0  0  0  0  0  0  0  0  0  0  0  0
    3.6473   -1.4893    0.0000 C   0  0  0  0  0  0  0  0  0  0  0  0
    4.4675    1.9467    0.0000 C   0  0  0  0  0  0  0  0  0  0  0  0
    2.9782   -2.2324    0.0000 C   0  0  0  0  0  0  0  0  0  0  0  0
    3.5958    2.4367    0.0000 C   0  0  0  0  0  0  0  0  0  0  0  0
    2.0000   -2.0245    0.0000 C   0  0  0  0  0  0  0  0  0  0  0  0
    3.2871   -3.1834    0.0000 C   0  0  0  0  0  0  0  0  0  0  0  0
    2.7356    1.9268    0.0000 C   0  0  0  0  0  0  0  0  0  0  0  0
    3.5842    3.4366    0.0000 C   0  0  0  0  0  0  0  0  0  0  0  0
    2.6180   -3.9266    0.0000 C   0  0  0  0  0  0  0  0  0  0  0  0
    2.7125    3.9266    0.0000 C   0  0  0  0  0  0  0  0  0  0  0  0
    5.2694   -0.5067    0.0000 H   0  0  0  0  0  0  0  0  0  0  0  0
    7.5045   -1.9251    0.0000 H   0  0  0  0  0  0  0  0  0  0  0  0
    7.7609   -1.1360    0.0000 H   0  0  0  0  0  0  0  0  0  0  0  0
    5.1381   -0.9498    0.0000 H   0  0  0  0  0  0  0  0  0  0  0  0
    7.7353    0.9908    0.0000 H   0  0  0  0  0  0  0  0  0  0  0  0
    4.9184    0.0126    0.0000 H   0  0  0  0  0  0  0  0  0  0  0  0
    7.4900    1.5720    0.0000 H   0  0  0  0  0  0  0  0  0  0  0  0
    6.8002    1.9738    0.0000 H   0  0  0  0  0  0  0  0  0  0  0  0
    5.9708    1.9738    0.0000 H   0  0  0  0  0  0  0  0  0  0  0  0
    5.2810    1.5720    0.0000 H   0  0  0  0  0  0  0  0  0  0  0  0
    7.8855   -1.0571    0.0000 H   0  0  0  0  0  0  0  0  0  0  0  0
    8.5055   -0.4371    0.0000 H   0  0  0  0  0  0  0  0  0  0  0  0
    7.8855    0.1829    0.0000 H   0  0  0  0  0  0  0  0  0  0  0  0
    8.4129   -0.1747    0.0000 H   0  0  0  0  0  0  0  0  0  0  0  0
    9.0401    0.4381    0.0000 H   0  0  0  0  0  0  0  0  0  0  0  0
    8.4273    1.0652    0.0000 H   0  0  0  0  0  0  0  0  0  0  0  0
    5.2790   -3.6437    0.0000 H   0  0  0  0  0  0  0  0  0  0  0  0
    5.9503   -4.1314    0.0000 H   0  0  0  0  0  0  0  0  0  0  0  0
    4.1835   -2.3109    0.0000 H   0  0  0  0  0  0  0  0  0  0  0  0
    4.4067   -3.3613    0.0000 H   0  0  0  0  0  0  0  0  0  0  0  0
    2.1289   -1.4180    0.0000 H   0  0  0  0  0  0  0  0  0  0  0  0
    1.3936   -1.8956    0.0000 H   0  0  0  0  0  0  0  0  0  0  0  0
    1.8711   -2.6310    0.0000 H   0  0  0  0  0  0  0  0  0  0  0  0
    3.8936   -3.3124    0.0000 H   0  0  0  0  0  0  0  0  0  0  0  0
    2.4195    2.4601    0.0000 H   0  0  0  0  0  0  0  0  0  0  0  0
    2.2023    1.6106    0.0000 H   0  0  0  0  0  0  0  0  0  0  0  0
    3.0518    1.3934    0.0000 H   0  0  0  0  0  0  0  0  0  0  0  0
    4.1175    3.7528    0.0000 H   0  0  0  0  0  0  0  0  0  0  0  0
    2.1572   -3.5117    0.0000 H   0  0  0  0  0  0  0  0  0  0  0  0
    2.2031   -4.3873    0.0000 H   0  0  0  0  0  0  0  0  0  0  0  0
    3.0787   -4.3414    0.0000 H   0  0  0  0  0  0  0  0  0  0  0  0
    3.0162    4.4671    0.0000 H   0  0  0  0  0  0  0  0  0  0  0  0
    2.1720    4.2303    0.0000 H   0  0  0  0  0  0  0  0  0  0  0  0
    2.4087    3.3861    0.0000 H   0  0  0  0  0  0  0  0  0  0  0  0
  1 11  1  0  0  0  0
  1 22  1  0  0  0  0
  2 13  1  0  0  0  0
  2 23  1  0  0  0  0
  3 18  1  0  0  0  0
  3 20  1  0  0  0  0
  4 18  2  0  0  0  0
  5 22  2  0  0  0  0
  6 23  2  0  0  0  0
  7  8  1  0  0  0  0
  7 10  1  0  0  0  0
  7 12  1  0  0  0  0
  7 16  1  0  0  0  0
  8 11  1  0  0  0  0
  8 13  1  0  0  0  0
  8 32  1  0  0  0  0
  9 10  1  0  0  0  0
  9 11  1  0  0  0  0
  9 17  1  0  0  0  0
  9 18  1  0  0  0  0
 10 33  1  0  0  0  0
 10 34  1  0  0  0  0
 11 35  1  0  0  0  0
 12 14  1  0  0  0  0
 12 19  1  0  0  0  0
 12 36  1  0  0  0  0
 13 15  1  0  0  0  0
 13 37  1  0  0  0  0
 14 15  1  0  0  0  0
 14 38  1  0  0  0  0
 14 39  1  0  0  0  0
 15 40  1  0  0  0  0
 15 41  1  0  0  0  0
 16 42  1  0  0  0  0
 16 43  1  0  0  0  0
 16 44  1  0  0  0  0
 17 20  1  0  0  0  0
 17 21  2  0  0  0  0
 19 45  1  0  0  0  0
 19 46  1  0  0  0  0
 19 47  1  0  0  0  0
 20 48  1  0  0  0  0
 20 49  1  0  0  0  0
 21 50  1  0  0  0  0
 21 51  1  0  0  0  0
 22 24  1  0  0  0  0
 23 25  1  0  0  0  0
 24 26  1  0  0  0  0
 24 27  2  0  0  0  0
 25 28  1  0  0  0  0
 25 29  2  0  0  0  0
 26 52  1  0  0  0  0
 26 53  1  0  0  0  0
 26 54  1  0  0  0  0
 27 30  1  0  0  0  0
 27 55  1  0  0  0  0
 28 56  1  0  0  0  0
 28 57  1  0  0  0  0
 28 58  1  0  0  0  0
 29 31  1  0  0  0  0
 29 59  1  0  0  0  0
 30 60  1  0  0  0  0
 30 61  1  0  0  0  0
 30 62  1  0  0  0  0
 31 63  1  0  0  0  0
 31 64  1  0  0  0  0
 31 65  1  0  0  0  0
M  END
>  <PUBCHEM_COMPOUND_CID>
131751601

>  <PUBCHEM_COMPOUND_CANONICALIZED>
1

>  <PUBCHEM_CACTVS_COMPLEXITY>
867

>  <PUBCHEM_CACTVS_HBOND_ACCEPTOR>
6

>  <PUBCHEM_CACTVS_HBOND_DONOR>
0

>  <PUBCHEM_CACTVS_ROTATABLE_BOND>
6

>  <PUBCHEM_CACTVS_SUBSKEYS>
AAADcfB4OAAAAAAAAAAAAAAAAAAAAaIAAAAwAAAAAAAAAGAAAAAAGgAAAAAADxSggAICCAAABACIAiDSCAAAAAAgAAAACAEAAEgABBYAIQACEAAF4AAAIYHK7PzPgAAAAAAAAABAAAYAADAAAYAADAAAAA==

>  <PUBCHEM_IUPAC_OPENEYE_NAME>
[7,7a-dimethyl-3-[(E)-2-methylbut-2-enoyl]oxy-4'-methylene-2'-oxo-spiro[3,3a,4,5,6,7-hexahydro-1H-indene-2,3'-tetrahydrofuran]-4-yl] (E)-2-methylbut-2-enoate

>  <PUBCHEM_IUPAC_CAS_NAME>
(E)-2-methyl-2-butenoic acid [7,7a-dimethyl-4'-methylene-3-[(E)-2-methyl-1-oxobut-2-enoxy]-2'-oxo-4-spiro[3,3a,4,5,6,7-hexahydro-1H-indene-2,3'-oxolane]yl] ester

>  <PUBCHEM_IUPAC_NAME>
[7,7a-dimethyl-3-[(E)-2-methylbut-2-enoyl]oxy-4'-methylidene-2'-oxospiro[3,3a,4,5,6,7-hexahydro-1H-indene-2,3'-oxolane]-4-yl] (E)-2-methylbut-2-enoate

>  <PUBCHEM_IUPAC_SYSTEMATIC_NAME>
[7,7a-dimethyl-3-[(E)-2-methylbut-2-enoyl]oxy-4'-methylidene-2'-oxidanylidene-spiro[3,3a,4,5,6,7-hexahydro-1H-indene-2,3'-oxolane]-4-yl] (E)-2-methylbut-2-enoate

>  <PUBCHEM_IUPAC_TRADITIONAL_NAME>
(E)-2-methylbut-2-enoic acid [2'-keto-7,7a-dimethyl-3-[(E)-2-methylbut-2-enoyl]oxy-4'-methylene-spiro[3,3a,4,5,6,7-hexahydro-1H-indene-2,3'-tetrahydrofuran]-4-yl] ester

>  <PUBCHEM_IUPAC_INCHI>
InChI=1S/C25H34O6/c1-8-14(3)21(26)30-18-11-10-16(5)24(7)13-25(17(6)12-29-23(25)28)20(19(18)24)31-22(27)15(4)9-2/h8-9,16,18-20H,6,10-13H2,1-5,7H3/b14-8+,15-9+

>  <PUBCHEM_IUPAC_INCHIKEY>
SRBBDMVRDLLMJD-VOMDNODZSA-N

>  <PUBCHEM_EXACT_MASS>
430.236

>  <PUBCHEM_MOLECULAR_FORMULA>
C25H34O6

>  <PUBCHEM_MOLECULAR_WEIGHT>
430.541

>  <PUBCHEM_OPENEYE_CAN_SMILES>
CC=C(C)C(=O)OC1CCC(C2(C1C(C3(C2)C(=C)COC3=O)OC(=O)C(=CC)C)C)C

>  <PUBCHEM_OPENEYE_ISO_SMILES>
C/C=C(\C)/C(=O)OC1CCC(C2(C1C(C3(C2)C(=C)COC3=O)OC(=O)/C(=C/C)/C)C)C

>  <PUBCHEM_CACTVS_TPSA>
78.9

>  <PUBCHEM_MONOISOTOPIC_WEIGHT>
430.236

>  <PUBCHEM_TOTAL_CHARGE>
0

>  <PUBCHEM_HEAVY_ATOM_COUNT>
31

>  <PUBCHEM_ATOM_DEF_STEREO_COUNT>
0

>  <PUBCHEM_ATOM_UDEF_STEREO_COUNT>
6

>  <PUBCHEM_BOND_DEF_STEREO_COUNT>
2

>  <PUBCHEM_BOND_UDEF_STEREO_COUNT>
0

>  <PUBCHEM_ISOTOPIC_ATOM_COUNT>
0

>  <PUBCHEM_COMPONENT_COUNT>
1

>  <PUBCHEM_CACTVS_TAUTO_COUNT>
1

>  <PUBCHEM_COORDINATE_TYPE>
1
5
255

>  <PUBCHEM_BONDANNOTATIONS>
11  1  3
12  19  3
13  2  3
7  16  3
8  13  3
9  10  3

$$$$
