131750992
 OpenBabel06101807152D

 80 82  0  0  1  0  0  0  0  0999 V2000
    2.8757    3.5000    0.0000 O   0  0  0  0  0  0  0  0  0  0  0  0
    8.0719   -3.5000    0.0000 O   0  0  0  0  0  0  0  0  0  0  0  0
    7.2058   -5.0000    0.0000 O   0  0  0  0  0  0  0  0  0  0  0  0
    3.7417    5.0000    0.0000 O   0  0  0  0  0  0  0  0  0  0  0  0
    7.2058   -1.0000    0.0000 N   0  0  0  0  0  0  0  0  0  0  0  0
    3.7417    1.0000    0.0000 N   0  0  0  0  0  0  0  0  0  0  0  0
    2.8757    0.5000    0.0000 C   0  0  3  0  0  0  0  0  0  0  0  0
    8.0719   -0.5000    0.0000 C   0  0  3  0  0  0  0  0  0  0  0  0
    2.0000    0.9966    0.0000 C   0  0  0  0  0  0  0  0  0  0  0  0
    8.9379   -1.0000    0.0000 C   0  0  0  0  0  0  0  0  0  0  0  0
    2.8757   -0.5000    0.0000 C   0  0  0  0  0  0  0  0  0  0  0  0
    8.0719    0.5000    0.0000 C   0  0  0  0  0  0  0  0  0  0  0  0
    2.0000    2.0034    0.0000 C   0  0  0  0  0  0  0  0  0  0  0  0
    8.9379   -2.0000    0.0000 C   0  0  0  0  0  0  0  0  0  0  0  0
    2.8757    2.5000    0.0000 C   0  0  3  0  0  0  0  0  0  0  0  0
    8.0719   -2.5000    0.0000 C   0  0  3  0  0  0  0  0  0  0  0  0
    3.7417   -1.0000    0.0000 C   0  0  0  0  0  0  0  0  0  0  0  0
    7.2058    1.0000    0.0000 C   0  0  0  0  0  0  0  0  0  0  0  0
    7.2058    2.0000    0.0000 C   0  0  0  0  0  0  0  0  0  0  0  0
    3.7417   -2.0000    0.0000 C   0  0  0  0  0  0  0  0  0  0  0  0
    7.2058   -2.0000    0.0000 C   0  0  0  0  0  0  0  0  0  0  0  0
    3.7417    2.0000    0.0000 C   0  0  0  0  0  0  0  0  0  0  0  0
    6.3398    2.5000    0.0000 C   0  0  0  0  0  0  0  0  0  0  0  0
    4.6078   -2.5000    0.0000 C   0  0  0  0  0  0  0  0  0  0  0  0
    6.3398    3.5000    0.0000 C   0  0  0  0  0  0  0  0  0  0  0  0
    4.6078   -3.5000    0.0000 C   0  0  0  0  0  0  0  0  0  0  0  0
    5.4738   -4.0000    0.0000 C   0  0  0  0  0  0  0  0  0  0  0  0
    5.4738    4.0000    0.0000 C   0  0  0  0  0  0  0  0  0  0  0  0
    4.6078    2.5000    0.0000 C   0  0  0  0  0  0  0  0  0  0  0  0
    6.3398   -2.5000    0.0000 C   0  0  0  0  0  0  0  0  0  0  0  0
    4.6078    3.5000    0.0000 C   0  0  0  0  0  0  0  0  0  0  0  0
    6.3398   -3.5000    0.0000 C   0  0  0  0  0  0  0  0  0  0  0  0
    7.2058   -4.0000    0.0000 C   0  0  0  0  0  0  0  0  0  0  0  0
    3.7417    4.0000    0.0000 C   0  0  0  0  0  0  0  0  0  0  0  0
    8.6088   -0.1900    0.0000 H   0  0  0  0  0  0  0  0  0  0  0  0
    2.3400    0.1879    0.0000 H   0  0  0  0  0  0  0  0  0  0  0  0
    9.5485   -1.1077    0.0000 H   0  0  0  0  0  0  0  0  0  0  0  0
    1.3891    1.1027    0.0000 H   0  0  0  0  0  0  0  0  0  0  0  0
    1.7909    0.4129    0.0000 H   0  0  0  0  0  0  0  0  0  0  0  0
    9.1499   -0.4174    0.0000 H   0  0  0  0  0  0  0  0  0  0  0  0
    8.6824    0.3923    0.0000 H   0  0  0  0  0  0  0  0  0  0  0  0
    8.2839    1.0826    0.0000 H   0  0  0  0  0  0  0  0  0  0  0  0
    2.2651   -0.3923    0.0000 H   0  0  0  0  0  0  0  0  0  0  0  0
    2.6637   -1.0826    0.0000 H   0  0  0  0  0  0  0  0  0  0  0  0
    1.7909    2.5871    0.0000 H   0  0  0  0  0  0  0  0  0  0  0  0
    9.1499   -2.5826    0.0000 H   0  0  0  0  0  0  0  0  0  0  0  0
    9.5485   -1.8923    0.0000 H   0  0  0  0  0  0  0  0  0  0  0  0
    1.3891    1.8973    0.0000 H   0  0  0  0  0  0  0  0  0  0  0  0
    8.6088   -2.8100    0.0000 H   0  0  0  0  0  0  0  0  0  0  0  0
    3.4126    2.8100    0.0000 H   0  0  0  0  0  0  0  0  0  0  0  0
    4.3523   -1.1077    0.0000 H   0  0  0  0  0  0  0  0  0  0  0  0
    3.9538   -0.4174    0.0000 H   0  0  0  0  0  0  0  0  0  0  0  0
    6.5953    1.1077    0.0000 H   0  0  0  0  0  0  0  0  0  0  0  0
    6.9938    0.4174    0.0000 H   0  0  0  0  0  0  0  0  0  0  0  0
    3.1312   -1.8923    0.0000 H   0  0  0  0  0  0  0  0  0  0  0  0
    3.5297   -2.5826    0.0000 H   0  0  0  0  0  0  0  0  0  0  0  0
    7.8164    1.8923    0.0000 H   0  0  0  0  0  0  0  0  0  0  0  0
    7.4179    2.5826    0.0000 H   0  0  0  0  0  0  0  0  0  0  0  0
    5.2184   -2.6077    0.0000 H   0  0  0  0  0  0  0  0  0  0  0  0
    5.7292    2.6077    0.0000 H   0  0  0  0  0  0  0  0  0  0  0  0
    6.1278    1.9174    0.0000 H   0  0  0  0  0  0  0  0  0  0  0  0
    4.8198   -1.9174    0.0000 H   0  0  0  0  0  0  0  0  0  0  0  0
    6.9504    3.3923    0.0000 H   0  0  0  0  0  0  0  0  0  0  0  0
    6.5519    4.0826    0.0000 H   0  0  0  0  0  0  0  0  0  0  0  0
    3.9972   -3.3923    0.0000 H   0  0  0  0  0  0  0  0  0  0  0  0
    4.3957   -4.0826    0.0000 H   0  0  0  0  0  0  0  0  0  0  0  0
    5.8723    4.4750    0.0000 H   0  0  0  0  0  0  0  0  0  0  0  0
    5.0753    4.4750    0.0000 H   0  0  0  0  0  0  0  0  0  0  0  0
    5.0753   -4.4750    0.0000 H   0  0  0  0  0  0  0  0  0  0  0  0
    5.8723   -4.4750    0.0000 H   0  0  0  0  0  0  0  0  0  0  0  0
    4.9178    1.9631    0.0000 H   0  0  0  0  0  0  0  0  0  0  0  0
    5.1447    2.8100    0.0000 H   0  0  0  0  0  0  0  0  0  0  0  0
    4.2978    3.0369    0.0000 H   0  0  0  0  0  0  0  0  0  0  0  0
    6.0298   -1.9631    0.0000 H   0  0  0  0  0  0  0  0  0  0  0  0
    5.8029   -2.8100    0.0000 H   0  0  0  0  0  0  0  0  0  0  0  0
    6.6498   -3.0369    0.0000 H   0  0  0  0  0  0  0  0  0  0  0  0
    4.2092    3.0250    0.0000 H   0  0  0  0  0  0  0  0  0  0  0  0
    5.0063    3.0250    0.0000 H   0  0  0  0  0  0  0  0  0  0  0  0
    6.7383   -3.0250    0.0000 H   0  0  0  0  0  0  0  0  0  0  0  0
    5.9413   -3.0250    0.0000 H   0  0  0  0  0  0  0  0  0  0  0  0
  1 15  1  0  0  0  0
  1 34  1  0  0  0  0
  2 16  1  0  0  0  0
  2 33  1  0  0  0  0
  3 33  2  0  0  0  0
  4 34  2  0  0  0  0
  5  8  1  0  0  0  0
  5 21  2  0  0  0  0
  6  7  1  0  0  0  0
  6 22  2  0  0  0  0
  7  9  1  0  0  0  0
  7 11  1  0  0  0  0
  7 36  1  0  0  0  0
  8 10  1  0  0  0  0
  8 12  1  0  0  0  0
  8 35  1  0  0  0  0
  9 13  1  0  0  0  0
  9 38  1  0  0  0  0
  9 39  1  0  0  0  0
 10 14  1  0  0  0  0
 10 37  1  0  0  0  0
 10 40  1  0  0  0  0
 11 17  1  0  0  0  0
 11 43  1  0  0  0  0
 11 44  1  0  0  0  0
 12 18  1  0  0  0  0
 12 41  1  0  0  0  0
 12 42  1  0  0  0  0
 13 15  1  0  0  0  0
 13 45  1  0  0  0  0
 13 48  1  0  0  0  0
 14 16  1  0  0  0  0
 14 46  1  0  0  0  0
 14 47  1  0  0  0  0
 15 22  1  0  0  0  0
 15 50  1  0  0  0  0
 16 21  1  0  0  0  0
 16 49  1  0  0  0  0
 17 20  1  0  0  0  0
 17 51  1  0  0  0  0
 17 52  1  0  0  0  0
 18 19  1  0  0  0  0
 18 53  1  0  0  0  0
 18 54  1  0  0  0  0
 19 23  1  0  0  0  0
 19 57  1  0  0  0  0
 19 58  1  0  0  0  0
 20 24  1  0  0  0  0
 20 55  1  0  0  0  0
 20 56  1  0  0  0  0
 21 30  1  0  0  0  0
 22 29  1  0  0  0  0
 23 25  1  0  0  0  0
 23 60  1  0  0  0  0
 23 61  1  0  0  0  0
 24 26  1  0  0  0  0
 24 59  1  0  0  0  0
 24 62  1  0  0  0  0
 25 28  1  0  0  0  0
 25 63  1  0  0  0  0
 25 64  1  0  0  0  0
 26 27  1  0  0  0  0
 26 65  1  0  0  0  0
 26 66  1  0  0  0  0
 27 32  1  0  0  0  0
 27 69  1  0  0  0  0
 27 70  1  0  0  0  0
 28 31  1  0  0  0  0
 28 67  1  0  0  0  0
 28 68  1  0  0  0  0
 29 71  1  0  0  0  0
 29 72  1  0  0  0  0
 29 73  1  0  0  0  0
 30 74  1  0  0  0  0
 30 75  1  0  0  0  0
 30 76  1  0  0  0  0
 31 34  1  0  0  0  0
 31 77  1  0  0  0  0
 31 78  1  0  0  0  0
 32 33  1  0  0  0  0
 32 79  1  0  0  0  0
 32 80  1  0  0  0  0
M  END
>  <PUBCHEM_COMPOUND_CID>
131750992

>  <PUBCHEM_COMPOUND_CANONICALIZED>
1

>  <PUBCHEM_CACTVS_COMPLEXITY>
657

>  <PUBCHEM_CACTVS_HBOND_ACCEPTOR>
6

>  <PUBCHEM_CACTVS_HBOND_DONOR>
0

>  <PUBCHEM_CACTVS_ROTATABLE_BOND>
0

>  <PUBCHEM_CACTVS_SUBSKEYS>
AAADcfB7OAAAAAAAAAAAAAAAAAAAAAAAAAAgQAAAAAAAAAAAAAAAHgAAAAAACDzhgAYCCAIABAAoAQCwDAQAAAAAAAAAAAEwAAAAABIAgAACAAAEAAAAAAG4yKCAAAAAAAAAAAAAAAAAAAAAAAAAAAAAAA==

>  <PUBCHEM_IUPAC_INCHI>
InChI=1S/C28H46N2O4/c1-21-25-19-17-23(29-21)13-9-5-3-8-12-16-28(32)34-26-20-18-24(30-22(26)2)14-10-6-4-7-11-15-27(31)33-25/h23-26H,3-20H2,1-2H3

>  <PUBCHEM_IUPAC_INCHIKEY>
OEDAQCLCHGASNH-UHFFFAOYSA-N

>  <PUBCHEM_EXACT_MASS>
474.346

>  <PUBCHEM_MOLECULAR_FORMULA>
C28H46N2O4

>  <PUBCHEM_MOLECULAR_WEIGHT>
474.686

>  <PUBCHEM_OPENEYE_CAN_SMILES>
CC1=NC2CCCCCCCC(=O)OC3CCC(CCCCCCCC(=O)OC1CC2)N=C3C

>  <PUBCHEM_OPENEYE_ISO_SMILES>
CC1=NC2CCCCCCCC(=O)OC3CCC(CCCCCCCC(=O)OC1CC2)N=C3C

>  <PUBCHEM_CACTVS_TPSA>
77.3

>  <PUBCHEM_MONOISOTOPIC_WEIGHT>
474.346

>  <PUBCHEM_TOTAL_CHARGE>
0

>  <PUBCHEM_HEAVY_ATOM_COUNT>
34

>  <PUBCHEM_ATOM_DEF_STEREO_COUNT>
0

>  <PUBCHEM_ATOM_UDEF_STEREO_COUNT>
4

>  <PUBCHEM_BOND_DEF_STEREO_COUNT>
0

>  <PUBCHEM_BOND_UDEF_STEREO_COUNT>
0

>  <PUBCHEM_ISOTOPIC_ATOM_COUNT>
0

>  <PUBCHEM_COMPONENT_COUNT>
1

>  <PUBCHEM_CACTVS_TAUTO_COUNT>
6

>  <PUBCHEM_COORDINATE_TYPE>
1
5
255

>  <PUBCHEM_BONDANNOTATIONS>
15  13  3
16  14  3
7  11  3
8  12  3

$$$$
