131752313
 OpenBabel06101807152D

 63 67  0  0  1  0  0  0  0  0999 V2000
    6.3192   -1.5587    0.0000 O   0  0  0  0  0  0  0  0  0  0  0  0
    9.0138   -2.1003    0.0000 O   0  0  0  0  0  0  0  0  0  0  0  0
    5.4813   -2.0865    0.0000 O   0  0  0  0  0  0  0  0  0  0  0  0
    8.1078   -3.6211    0.0000 O   0  0  0  0  0  0  0  0  0  0  0  0
    5.4898    2.7147    0.0000 O   0  0  0  0  0  0  0  0  0  0  0  0
    3.6996   -1.0760    0.0000 O   0  0  0  0  0  0  0  0  0  0  0  0
   11.4446   -0.1941    0.0000 O   0  0  0  0  0  0  0  0  0  0  0  0
    2.4900    2.7494    0.0000 O   0  0  0  0  0  0  0  0  0  0  0  0
    3.9999    3.5980    0.0000 O   0  0  0  0  0  0  0  0  0  0  0  0
    7.2297   -1.0519    0.0000 C   0  0  1  0  0  0  0  0  0  0  0  0
    6.3637   -0.5519    0.0000 C   0  0  1  0  0  0  0  0  0  0  0  0
    8.0957   -0.5519    0.0000 C   0  0  1  0  0  0  0  0  0  0  0  0
    6.3637    0.4481    0.0000 C   0  0  3  0  0  0  0  0  0  0  0  0
    7.2136   -2.0934    0.0000 C   0  0  1  0  0  0  0  0  0  0  0  0
    8.0957    0.4481    0.0000 C   0  0  0  0  0  0  0  0  0  0  0  0
    5.4697    0.9828    0.0000 C   0  0  2  0  0  0  0  0  0  0  0  0
    7.2297    0.9481    0.0000 C   0  0  0  0  0  0  0  0  0  0  0  0
    5.4697   -1.0865    0.0000 C   0  0  3  0  0  0  0  0  0  0  0  0
    9.0057   -1.0587    0.0000 C   0  0  2  0  0  0  0  0  0  0  0  0
    7.0138   -1.6777    0.0000 C   0  0  0  0  0  0  0  0  0  0  0  0
    8.9617   -0.0519    0.0000 C   0  0  0  0  0  0  0  0  0  0  0  0
    4.5637    0.4689    0.0000 C   0  0  0  0  0  0  0  0  0  0  0  0
    8.1117   -2.6212    0.0000 C   0  0  0  0  0  0  0  0  0  0  0  0
    4.5637   -0.5727    0.0000 C   0  0  0  0  0  0  0  0  0  0  0  0
    4.9798    1.8545    0.0000 C   0  0  2  0  0  0  0  0  0  0  0  0
    5.9797    1.8430    0.0000 C   0  0  0  0  0  0  0  0  0  0  0  0
    9.8659   -0.5488    0.0000 C   0  0  0  0  0  0  0  0  0  0  0  0
    3.9798    1.8661    0.0000 C   0  0  0  0  0  0  0  0  0  0  0  0
    9.9589    0.4469    0.0000 C   0  0  0  0  0  0  0  0  0  0  0  0
   10.7841   -0.9449    0.0000 C   0  0  0  0  0  0  0  0  0  0  0  0
    3.4899    2.7378    0.0000 C   0  0  0  0  0  0  0  0  0  0  0  0
   10.9346    0.6661    0.0000 C   0  0  0  0  0  0  0  0  0  0  0  0
    2.0000    3.6211    0.0000 C   0  0  0  0  0  0  0  0  0  0  0  0
    6.3684    1.0681    0.0000 H   0  0  0  0  0  0  0  0  0  0  0  0
    6.7802   -2.8246    0.0000 H   0  0  0  0  0  0  0  0  0  0  0  0
    8.7063    0.3404    0.0000 H   0  0  0  0  0  0  0  0  0  0  0  0
    8.3078    1.0307    0.0000 H   0  0  0  0  0  0  0  0  0  0  0  0
    7.6282    1.4231    0.0000 H   0  0  0  0  0  0  0  0  0  0  0  0
    6.8312    1.4231    0.0000 H   0  0  0  0  0  0  0  0  0  0  0  0
    4.9358   -1.4017    0.0000 H   0  0  0  0  0  0  0  0  0  0  0  0
    9.5456   -1.3636    0.0000 H   0  0  0  0  0  0  0  0  0  0  0  0
    6.4769   -1.9877    0.0000 H   0  0  0  0  0  0  0  0  0  0  0  0
    7.3238   -2.2146    0.0000 H   0  0  0  0  0  0  0  0  0  0  0  0
    7.5507   -1.3676    0.0000 H   0  0  0  0  0  0  0  0  0  0  0  0
    9.2717   -0.5888    0.0000 H   0  0  0  0  0  0  0  0  0  0  0  0
    9.4987    0.2581    0.0000 H   0  0  0  0  0  0  0  0  0  0  0  0
    8.6517    0.4850    0.0000 H   0  0  0  0  0  0  0  0  0  0  0  0
    4.3546    1.0526    0.0000 H   0  0  0  0  0  0  0  0  0  0  0  0
    3.9528    0.3628    0.0000 H   0  0  0  0  0  0  0  0  0  0  0  0
    4.6760    2.3950    0.0000 H   0  0  0  0  0  0  0  0  0  0  0  0
    6.5130    1.5268    0.0000 H   0  0  0  0  0  0  0  0  0  0  0  0
    6.2959    2.3763    0.0000 H   0  0  0  0  0  0  0  0  0  0  0  0
    5.4464    2.1591    0.0000 H   0  0  0  0  0  0  0  0  0  0  0  0
    4.9480   -2.4027    0.0000 H   0  0  0  0  0  0  0  0  0  0  0  0
    3.3948    1.6608    0.0000 H   0  0  0  0  0  0  0  0  0  0  0  0
    4.0804    1.2543    0.0000 H   0  0  0  0  0  0  0  0  0  0  0  0
    5.1860    3.2552    0.0000 H   0  0  0  0  0  0  0  0  0  0  0  0
    9.4934    0.8564    0.0000 H   0  0  0  0  0  0  0  0  0  0  0  0
   10.9200   -1.5498    0.0000 H   0  0  0  0  0  0  0  0  0  0  0  0
   11.1802    1.2354    0.0000 H   0  0  0  0  0  0  0  0  0  0  0  0
    2.5405    3.9249    0.0000 H   0  0  0  0  0  0  0  0  0  0  0  0
    1.6962    4.1616    0.0000 H   0  0  0  0  0  0  0  0  0  0  0  0
    1.4595    3.3174    0.0000 H   0  0  0  0  0  0  0  0  0  0  0  0
  1 14  1  0  0  0  0
  2 19  1  0  0  0  0
  2 23  1  0  0  0  0
  3 18  1  0  0  0  0
  3 54  1  0  0  0  0
  4 23  2  0  0  0  0
  5 57  1  0  0  0  0
  6 24  2  0  0  0  0
  7 30  1  0  0  0  0
  7 32  1  0  0  0  0
  8 31  1  0  0  0  0
  8 33  1  0  0  0  0
  9 31  2  0  0  0  0
 10  1  1  0  0  0  0
 10 11  1  6  0  0  0
 11 13  1  1  0  0  0
 11 18  1  0  0  0  0
 11 20  1  0  0  0  0
 12 10  1  6  0  0  0
 12 15  1  0  0  0  0
 12 21  1  0  0  0  0
 13 17  1  0  0  0  0
 13 34  1  0  0  0  0
 14 10  1  6  0  0  0
 14 23  1  0  0  0  0
 14 35  1  0  0  0  0
 15 17  1  0  0  0  0
 15 36  1  0  0  0  0
 15 37  1  0  0  0  0
 16 13  1  6  0  0  0
 16 22  1  0  0  0  0
 16 25  1  0  0  0  0
 16 26  1  0  0  0  0
 17 38  1  0  0  0  0
 17 39  1  0  0  0  0
 18 24  1  0  0  0  0
 18 40  1  0  0  0  0
 19 12  1  1  0  0  0
 19 27  1  0  0  0  0
 19 41  1  0  0  0  0
 20 42  1  0  0  0  0
 20 43  1  0  0  0  0
 20 44  1  0  0  0  0
 21 45  1  0  0  0  0
 21 46  1  0  0  0  0
 21 47  1  0  0  0  0
 22 24  1  0  0  0  0
 22 48  1  0  0  0  0
 22 49  1  0  0  0  0
 25  5  1  0  0  0  0
 25 28  1  0  0  0  0
 25 50  1  1  0  0  0
 26 51  1  0  0  0  0
 26 52  1  0  0  0  0
 26 53  1  0  0  0  0
 27 29  1  0  0  0  0
 27 30  2  0  0  0  0
 28 31  1  0  0  0  0
 28 55  1  0  0  0  0
 28 56  1  0  0  0  0
 29 32  2  0  0  0  0
 29 58  1  0  0  0  0
 30 59  1  0  0  0  0
 32 60  1  0  0  0  0
 33 61  1  0  0  0  0
 33 62  1  0  0  0  0
 33 63  1  0  0  0  0
M  END
>  <PUBCHEM_COMPOUND_CID>
131752313

>  <PUBCHEM_COMPOUND_CANONICALIZED>
1

>  <PUBCHEM_CACTVS_COMPLEXITY>
889

>  <PUBCHEM_CACTVS_HBOND_ACCEPTOR>
9

>  <PUBCHEM_CACTVS_HBOND_DONOR>
2

>  <PUBCHEM_CACTVS_ROTATABLE_BOND>
5

>  <PUBCHEM_CACTVS_SUBSKEYS>
AAADceB4PAAAAAAAAAAAAAAAEgAAASAAAAA0YIAABIAAAADRgAAAGgAACAAAD1SgmAIyDIAABkCIAqjSiAICCAAkIAAIiAFGCMgNNxYENQ6CWSCl4BEKKYPK7PzPgAAAAAAAAADAAAYAADAAAAAAAAAAAA==

>  <PUBCHEM_IUPAC_INCHI>
InChI=1S/C24H30O9/c1-21(15(26)9-16(27)30-4)10-13(25)17(28)23(3)14(21)5-7-22(2)18(12-6-8-31-11-12)32-20(29)19-24(22,23)33-19/h6,8,11,14-15,17-19,26,28H,5,7,9-10H2,1-4H3/t14?,15-,17?,18-,19+,21-,22-,23-,24+/m0/s1

>  <PUBCHEM_IUPAC_INCHIKEY>
HMNKPIJMXBZMJF-IHGWNHGOSA-N

>  <PUBCHEM_EXACT_MASS>
462.189

>  <PUBCHEM_MOLECULAR_FORMULA>
C24H30O9

>  <PUBCHEM_MOLECULAR_WEIGHT>
462.495

>  <PUBCHEM_OPENEYE_CAN_SMILES>
CC12CCC3C(CC(=O)C(C3(C14C(O4)C(=O)OC2C5=COC=C5)C)O)(C)C(CC(=O)OC)O

>  <PUBCHEM_OPENEYE_ISO_SMILES>
C[C@@]12CCC3[C@@](CC(=O)C([C@]3([C@@]14[C@H](O4)C(=O)O[C@H]2C5=COC=C5)C)O)(C)[C@H](CC(=O)OC)O

>  <PUBCHEM_CACTVS_TPSA>
136

>  <PUBCHEM_MONOISOTOPIC_WEIGHT>
462.189

>  <PUBCHEM_TOTAL_CHARGE>
0

>  <PUBCHEM_HEAVY_ATOM_COUNT>
33

>  <PUBCHEM_ATOM_DEF_STEREO_COUNT>
7

>  <PUBCHEM_ATOM_UDEF_STEREO_COUNT>
2

>  <PUBCHEM_BOND_DEF_STEREO_COUNT>
0

>  <PUBCHEM_BOND_UDEF_STEREO_COUNT>
0

>  <PUBCHEM_ISOTOPIC_ATOM_COUNT>
0

>  <PUBCHEM_COMPONENT_COUNT>
1

>  <PUBCHEM_CACTVS_TAUTO_COUNT>
4

>  <PUBCHEM_COORDINATE_TYPE>
1
5
255

>  <PUBCHEM_BONDANNOTATIONS>
10  1  5
11  20  5
12  21  6
13  17  3
14  35  6
16  26  5
19  27  6
27  29  8
27  30  8
29  32  8
18  3  3
25  5  6
7  30  8
7  32  8

$$$$
