131752232
 OpenBabel06101807152D

 41 43  0  0  1  0  0  0  0  0999 V2000
    3.9061    1.0000    0.0000 O   0  0  0  0  0  0  0  0  0  0  0  0
    2.1359   -1.0588    0.0000 O   0  0  0  0  0  0  0  0  0  0  0  0
    6.5480    2.5346    0.0000 O   0  0  0  0  0  0  0  0  0  0  0  0
    5.6660   -2.0346    0.0000 O   0  0  0  0  0  0  0  0  0  0  0  0
    4.7782    2.4968    0.0000 O   0  0  0  0  0  0  0  0  0  0  0  0
    3.0000    0.4862    0.0000 C   0  0  0  0  0  0  0  0  0  0  0  0
    3.0000   -0.5554    0.0000 C   0  0  3  0  0  0  0  0  0  0  0  0
    3.9061   -1.0693    0.0000 C   0  0  0  0  0  0  0  0  0  0  0  0
    4.8000   -0.5346    0.0000 C   0  0  0  0  0  0  0  0  0  0  0  0
    4.8000    0.4654    0.0000 C   0  0  0  0  0  0  0  0  0  0  0  0
    5.6660    0.9654    0.0000 C   0  0  0  0  0  0  0  0  0  0  0  0
    6.5320    0.4654    0.0000 C   0  0  0  0  0  0  0  0  0  0  0  0
    2.0000    0.4900    0.0000 C   0  0  0  0  0  0  0  0  0  0  0  0
    2.5033    1.3541    0.0000 C   0  0  0  0  0  0  0  0  0  0  0  0
    5.6660   -1.0346    0.0000 C   0  0  0  0  0  0  0  0  0  0  0  0
    7.4420    0.9722    0.0000 C   0  0  0  0  0  0  0  0  0  0  0  0
    7.4501    2.0138    0.0000 C   0  0  3  0  0  0  0  0  0  0  0  0
    6.5320   -0.5346    0.0000 C   0  0  0  0  0  0  0  0  0  0  0  0
    5.6500    2.0069    0.0000 C   0  0  0  0  0  0  0  0  0  0  0  0
    8.3180    2.5105    0.0000 C   0  0  0  0  0  0  0  0  0  0  0  0
    6.5320   -2.5346    0.0000 C   0  0  0  0  0  0  0  0  0  0  0  0
    3.0036   -1.1754    0.0000 H   0  0  0  0  0  0  0  0  0  0  0  0
    3.5124   -1.5483    0.0000 H   0  0  0  0  0  0  0  0  0  0  0  0
    4.3107   -1.5391    0.0000 H   0  0  0  0  0  0  0  0  0  0  0  0
    2.0024    1.1100    0.0000 H   0  0  0  0  0  0  0  0  0  0  0  0
    1.3800    0.4924    0.0000 H   0  0  0  0  0  0  0  0  0  0  0  0
    1.9976   -0.1300    0.0000 H   0  0  0  0  0  0  0  0  0  0  0  0
    3.0415    1.6621    0.0000 H   0  0  0  0  0  0  0  0  0  0  0  0
    2.1954    1.8923    0.0000 H   0  0  0  0  0  0  0  0  0  0  0  0
    1.9652    1.0462    0.0000 H   0  0  0  0  0  0  0  0  0  0  0  0
    7.6466    0.3869    0.0000 H   0  0  0  0  0  0  0  0  0  0  0  0
    8.0537    1.0736    0.0000 H   0  0  0  0  0  0  0  0  0  0  0  0
    7.4513    2.6338    0.0000 H   0  0  0  0  0  0  0  0  0  0  0  0
    7.0690   -0.8446    0.0000 H   0  0  0  0  0  0  0  0  0  0  0  0
    2.1383   -1.6788    0.0000 H   0  0  0  0  0  0  0  0  0  0  0  0
    8.6260    1.9724    0.0000 H   0  0  0  0  0  0  0  0  0  0  0  0
    8.8562    2.8184    0.0000 H   0  0  0  0  0  0  0  0  0  0  0  0
    8.0101    3.0486    0.0000 H   0  0  0  0  0  0  0  0  0  0  0  0
    6.2220   -3.0716    0.0000 H   0  0  0  0  0  0  0  0  0  0  0  0
    7.0690   -2.8446    0.0000 H   0  0  0  0  0  0  0  0  0  0  0  0
    6.8420   -1.9977    0.0000 H   0  0  0  0  0  0  0  0  0  0  0  0
  1  6  1  0  0  0  0
  1 10  1  0  0  0  0
  2  7  1  0  0  0  0
  2 35  1  0  0  0  0
  3 17  1  0  0  0  0
  3 19  1  0  0  0  0
  4 15  1  0  0  0  0
  4 21  1  0  0  0  0
  5 19  2  0  0  0  0
  6  7  1  0  0  0  0
  6 13  1  0  0  0  0
  6 14  1  0  0  0  0
  7  8  1  0  0  0  0
  7 22  1  0  0  0  0
  8  9  1  0  0  0  0
  8 23  1  0  0  0  0
  8 24  1  0  0  0  0
  9 10  1  0  0  0  0
  9 15  2  0  0  0  0
 10 11  2  0  0  0  0
 11 12  1  0  0  0  0
 11 19  1  0  0  0  0
 12 16  1  0  0  0  0
 12 18  2  0  0  0  0
 13 25  1  0  0  0  0
 13 26  1  0  0  0  0
 13 27  1  0  0  0  0
 14 28  1  0  0  0  0
 14 29  1  0  0  0  0
 14 30  1  0  0  0  0
 15 18  1  0  0  0  0
 16 17  1  0  0  0  0
 16 31  1  0  0  0  0
 16 32  1  0  0  0  0
 17 20  1  0  0  0  0
 17 33  1  0  0  0  0
 18 34  1  0  0  0  0
 20 36  1  0  0  0  0
 20 37  1  0  0  0  0
 20 38  1  0  0  0  0
 21 39  1  0  0  0  0
 21 40  1  0  0  0  0
 21 41  1  0  0  0  0
M  END
>  <PUBCHEM_COMPOUND_CID>
131752232

>  <PUBCHEM_COMPOUND_CANONICALIZED>
1

>  <PUBCHEM_CACTVS_COMPLEXITY>
421

>  <PUBCHEM_CACTVS_HBOND_ACCEPTOR>
5

>  <PUBCHEM_CACTVS_HBOND_DONOR>
1

>  <PUBCHEM_CACTVS_ROTATABLE_BOND>
1

>  <PUBCHEM_CACTVS_SUBSKEYS>
AAADceB4OAAAAAAAAAAAAAAAAAAAAAAAAAA0SIAAAAAAAACRAAAAGgAACAAADFSgmAIyDoAABgCIAiDSCAACCAAkIAAAiAEGCMgNNzaENRqCeWCl4BULqQfI7PzO4AADCAAYAADAAAYQADAAAAAAAAAAAA==

>  <PUBCHEM_IUPAC_OPENEYE_NAME>
3-hydroxy-5-methoxy-2,2,8-trimethyl-3,4,7,8-tetrahydropyrano[4,3-h]chromen-10-one

>  <PUBCHEM_IUPAC_CAS_NAME>
3-hydroxy-5-methoxy-2,2,8-trimethyl-3,4,7,8-tetrahydropyrano[4,3-h][1]benzopyran-10-one

>  <PUBCHEM_IUPAC_NAME>
3-hydroxy-5-methoxy-2,2,8-trimethyl-3,4,7,8-tetrahydropyrano[4,3-h]chromen-10-one

>  <PUBCHEM_IUPAC_SYSTEMATIC_NAME>
5-methoxy-2,2,8-trimethyl-3-oxidanyl-3,4,7,8-tetrahydropyrano[4,3-h]chromen-10-one

>  <PUBCHEM_IUPAC_TRADITIONAL_NAME>
3-hydroxy-5-methoxy-2,2,8-trimethyl-3,4,7,8-tetrahydropyrano[4,3-h]chromen-10-one

>  <PUBCHEM_IUPAC_INCHI>
InChI=1S/C16H20O5/c1-8-5-9-6-11(19-4)10-7-12(17)16(2,3)21-14(10)13(9)15(18)20-8/h6,8,12,17H,5,7H2,1-4H3

>  <PUBCHEM_IUPAC_INCHIKEY>
BWHXOOBBSCGLBC-UHFFFAOYSA-N

>  <PUBCHEM_EXACT_MASS>
292.131

>  <PUBCHEM_MOLECULAR_FORMULA>
C16H20O5

>  <PUBCHEM_MOLECULAR_WEIGHT>
292.331

>  <PUBCHEM_OPENEYE_CAN_SMILES>
CC1CC2=CC(=C3CC(C(OC3=C2C(=O)O1)(C)C)O)OC

>  <PUBCHEM_OPENEYE_ISO_SMILES>
CC1CC2=CC(=C3CC(C(OC3=C2C(=O)O1)(C)C)O)OC

>  <PUBCHEM_CACTVS_TPSA>
65

>  <PUBCHEM_MONOISOTOPIC_WEIGHT>
292.131

>  <PUBCHEM_TOTAL_CHARGE>
0

>  <PUBCHEM_HEAVY_ATOM_COUNT>
21

>  <PUBCHEM_ATOM_DEF_STEREO_COUNT>
0

>  <PUBCHEM_ATOM_UDEF_STEREO_COUNT>
2

>  <PUBCHEM_BOND_DEF_STEREO_COUNT>
0

>  <PUBCHEM_BOND_UDEF_STEREO_COUNT>
0

>  <PUBCHEM_ISOTOPIC_ATOM_COUNT>
0

>  <PUBCHEM_COMPONENT_COUNT>
1

>  <PUBCHEM_CACTVS_TAUTO_COUNT>
4

>  <PUBCHEM_COORDINATE_TYPE>
1
5
255

>  <PUBCHEM_BONDANNOTATIONS>
10  11  8
11  12  8
12  18  8
15  18  8
17  20  3
7  2  3
9  10  8
9  15  8

$$$$
