131752470
 OpenBabel06101807152D

 83 87  0  0  1  0  0  0  0  0999 V2000
    3.9271    1.1009    0.0000 O   0  0  0  0  0  0  0  0  0  0  0  0
   10.1330    2.7452    0.0000 O   0  0  0  0  0  0  0  0  0  0  0  0
    2.9755    0.6579    0.0000 O   0  0  0  0  0  0  0  0  0  0  0  0
    6.5251   -0.3991    0.0000 C   0  0  1  0  0  0  0  0  0  0  0  0
    5.6591   -0.8991    0.0000 C   0  0  1  0  0  0  0  0  0  0  0  0
    6.5251    0.6009    0.0000 C   0  0  1  0  0  0  0  0  0  0  0  0
    4.7931   -0.3991    0.0000 C   0  0  3  0  0  0  0  0  0  0  0  0
    7.4191    1.1355    0.0000 C   0  0  2  0  0  0  0  0  0  0  0  0
    3.8831   -0.9060    0.0000 C   0  0  2  0  0  0  0  0  0  0  0  0
    8.3252    0.6217    0.0000 C   0  0  1  0  0  0  0  0  0  0  0  0
    7.4191   -0.9338    0.0000 C   0  0  0  0  0  0  0  0  0  0  0  0
    5.6591    1.1009    0.0000 C   0  0  0  0  0  0  0  0  0  0  0  0
    4.7931    0.6009    0.0000 C   0  0  3  0  0  0  0  0  0  0  0  0
    3.8751   -1.9476    0.0000 C   0  0  3  0  0  0  0  0  0  0  0  0
    5.6752   -1.9406    0.0000 C   0  0  0  0  0  0  0  0  0  0  0  0
    8.3252   -0.4199    0.0000 C   0  0  0  0  0  0  0  0  0  0  0  0
    9.2689    1.1569    0.0000 C   0  0  0  0  0  0  0  0  0  0  0  0
    4.7771   -2.4684    0.0000 C   0  0  0  0  0  0  0  0  0  0  0  0
    7.3940    2.2202    0.0000 C   0  0  0  0  0  0  0  0  0  0  0  0
    6.8672   -1.3388    0.0000 C   0  0  0  0  0  0  0  0  0  0  0  0
    6.3019   -1.6652    0.0000 C   0  0  0  0  0  0  0  0  0  0  0  0
    2.9396   -2.4973    0.0000 C   0  0  0  0  0  0  0  0  0  0  0  0
    6.5492    1.6288    0.0000 C   0  0  0  0  0  0  0  0  0  0  0  0
    9.2689    2.2419    0.0000 C   0  0  3  0  0  0  0  0  0  0  0  0
    2.9562   -0.3419    0.0000 C   0  0  0  0  0  0  0  0  0  0  0  0
    8.3252    2.7772    0.0000 C   0  0  0  0  0  0  0  0  0  0  0  0
    3.8908    0.0940    0.0000 C   0  0  0  0  0  0  0  0  0  0  0  0
    2.0000   -1.9548    0.0000 C   0  0  0  0  0  0  0  0  0  0  0  0
    2.0084   -0.8698    0.0000 C   0  0  0  0  0  0  0  0  0  0  0  0
   10.2689    1.1531    0.0000 C   0  0  0  0  0  0  0  0  0  0  0  0
    9.7656    0.2890    0.0000 C   0  0  0  0  0  0  0  0  0  0  0  0
    2.4430   -3.3652    0.0000 C   0  0  0  0  0  0  0  0  0  0  0  0
    3.4430   -3.3614    0.0000 C   0  0  0  0  0  0  0  0  0  0  0  0
    7.2645    0.1816    0.0000 H   0  0  0  0  0  0  0  0  0  0  0  0
    5.3300   -0.0891    0.0000 H   0  0  0  0  0  0  0  0  0  0  0  0
    9.0596    0.1939    0.0000 H   0  0  0  0  0  0  0  0  0  0  0  0
    7.0145   -1.4036    0.0000 H   0  0  0  0  0  0  0  0  0  0  0  0
    7.8127   -1.4128    0.0000 H   0  0  0  0  0  0  0  0  0  0  0  0
    6.0576    1.5758    0.0000 H   0  0  0  0  0  0  0  0  0  0  0  0
    5.2606    1.5758    0.0000 H   0  0  0  0  0  0  0  0  0  0  0  0
    4.2562    0.2909    0.0000 H   0  0  0  0  0  0  0  0  0  0  0  0
    3.8774   -2.5676    0.0000 H   0  0  0  0  0  0  0  0  0  0  0  0
    5.8932   -2.5210    0.0000 H   0  0  0  0  0  0  0  0  0  0  0  0
    6.2843   -1.8251    0.0000 H   0  0  0  0  0  0  0  0  0  0  0  0
    8.5342   -1.0036    0.0000 H   0  0  0  0  0  0  0  0  0  0  0  0
    8.9360   -0.3139    0.0000 H   0  0  0  0  0  0  0  0  0  0  0  0
    4.3798   -2.9444    0.0000 H   0  0  0  0  0  0  0  0  0  0  0  0
    5.1781   -2.9413    0.0000 H   0  0  0  0  0  0  0  0  0  0  0  0
    7.1715    2.7989    0.0000 H   0  0  0  0  0  0  0  0  0  0  0  0
    6.7858    2.1000    0.0000 H   0  0  0  0  0  0  0  0  0  0  0  0
    6.2847   -1.5509    0.0000 H   0  0  0  0  0  0  0  0  0  0  0  0
    7.0794   -1.9214    0.0000 H   0  0  0  0  0  0  0  0  0  0  0  0
    7.4498   -1.1267    0.0000 H   0  0  0  0  0  0  0  0  0  0  0  0
    5.8270   -2.0637    0.0000 H   0  0  0  0  0  0  0  0  0  0  0  0
    6.7004   -2.1401    0.0000 H   0  0  0  0  0  0  0  0  0  0  0  0
    6.7768   -1.2666    0.0000 H   0  0  0  0  0  0  0  0  0  0  0  0
    6.8551    2.1681    0.0000 H   0  0  0  0  0  0  0  0  0  0  0  0
    6.0099    1.9347    0.0000 H   0  0  0  0  0  0  0  0  0  0  0  0
    6.2434    1.0895    0.0000 H   0  0  0  0  0  0  0  0  0  0  0  0
    9.2654    2.8619    0.0000 H   0  0  0  0  0  0  0  0  0  0  0  0
    8.7188    3.2562    0.0000 H   0  0  0  0  0  0  0  0  0  0  0  0
    7.9206    3.2469    0.0000 H   0  0  0  0  0  0  0  0  0  0  0  0
    4.5108    0.0892    0.0000 H   0  0  0  0  0  0  0  0  0  0  0  0
    3.8956    0.7140    0.0000 H   0  0  0  0  0  0  0  0  0  0  0  0
    3.2708    0.0988    0.0000 H   0  0  0  0  0  0  0  0  0  0  0  0
    1.3900   -1.8440    0.0000 H   0  0  0  0  0  0  0  0  0  0  0  0
    1.7864   -2.5369    0.0000 H   0  0  0  0  0  0  0  0  0  0  0  0
    1.8038   -0.2846    0.0000 H   0  0  0  0  0  0  0  0  0  0  0  0
    1.3967   -0.9712    0.0000 H   0  0  0  0  0  0  0  0  0  0  0  0
   10.2665    0.5331    0.0000 H   0  0  0  0  0  0  0  0  0  0  0  0
   10.8889    1.1507    0.0000 H   0  0  0  0  0  0  0  0  0  0  0  0
   10.2713    1.7731    0.0000 H   0  0  0  0  0  0  0  0  0  0  0  0
    9.2275   -0.0190    0.0000 H   0  0  0  0  0  0  0  0  0  0  0  0
   10.0735   -0.2492    0.0000 H   0  0  0  0  0  0  0  0  0  0  0  0
   10.3037    0.5969    0.0000 H   0  0  0  0  0  0  0  0  0  0  0  0
    3.9271    1.7209    0.0000 H   0  0  0  0  0  0  0  0  0  0  0  0
    1.9048   -3.0573    0.0000 H   0  0  0  0  0  0  0  0  0  0  0  0
    2.1350   -3.9034    0.0000 H   0  0  0  0  0  0  0  0  0  0  0  0
    2.9811   -3.6732    0.0000 H   0  0  0  0  0  0  0  0  0  0  0  0
    2.9072   -3.6735    0.0000 H   0  0  0  0  0  0  0  0  0  0  0  0
    3.7550   -3.8971    0.0000 H   0  0  0  0  0  0  0  0  0  0  0  0
    3.9787   -3.0493    0.0000 H   0  0  0  0  0  0  0  0  0  0  0  0
   10.1306    3.3652    0.0000 H   0  0  0  0  0  0  0  0  0  0  0  0
  1 13  1  0  0  0  0
  1 76  1  0  0  0  0
  2 24  1  0  0  0  0
  2 83  1  0  0  0  0
  3 25  2  0  0  0  0
  4  5  1  1  0  0  0
  4 11  1  0  0  0  0
  4 20  1  0  0  0  0
  5  7  1  1  0  0  0
  5 15  1  0  0  0  0
  5 21  1  0  0  0  0
  6  4  1  6  0  0  0
  6 12  1  0  0  0  0
  6 34  1  0  0  0  0
  7 13  1  0  0  0  0
  7 35  1  0  0  0  0
  8  6  1  1  0  0  0
  8 19  1  0  0  0  0
  8 23  1  0  0  0  0
  9  7  1  6  0  0  0
  9 14  1  0  0  0  0
  9 25  1  0  0  0  0
  9 27  1  0  0  0  0
 10  8  1  1  0  0  0
 10 16  1  0  0  0  0
 10 17  1  0  0  0  0
 10 36  1  0  0  0  0
 11 16  1  0  0  0  0
 11 37  1  0  0  0  0
 11 38  1  0  0  0  0
 12 13  1  0  0  0  0
 12 39  1  0  0  0  0
 12 40  1  0  0  0  0
 13 41  1  0  0  0  0
 14 18  1  0  0  0  0
 14 22  1  0  0  0  0
 14 42  1  0  0  0  0
 15 18  1  0  0  0  0
 15 43  1  0  0  0  0
 15 44  1  0  0  0  0
 16 45  1  0  0  0  0
 16 46  1  0  0  0  0
 17 24  1  0  0  0  0
 17 30  1  0  0  0  0
 17 31  1  0  0  0  0
 18 47  1  0  0  0  0
 18 48  1  0  0  0  0
 19 26  1  0  0  0  0
 19 49  1  0  0  0  0
 19 50  1  0  0  0  0
 20 51  1  0  0  0  0
 20 52  1  0  0  0  0
 20 53  1  0  0  0  0
 21 54  1  0  0  0  0
 21 55  1  0  0  0  0
 21 56  1  0  0  0  0
 22 28  1  0  0  0  0
 22 32  1  0  0  0  0
 22 33  1  0  0  0  0
 23 57  1  0  0  0  0
 23 58  1  0  0  0  0
 23 59  1  0  0  0  0
 24 26  1  0  0  0  0
 24 60  1  0  0  0  0
 25 29  1  0  0  0  0
 26 61  1  0  0  0  0
 26 62  1  0  0  0  0
 27 63  1  0  0  0  0
 27 64  1  0  0  0  0
 27 65  1  0  0  0  0
 28 29  1  0  0  0  0
 28 66  1  0  0  0  0
 28 67  1  0  0  0  0
 29 68  1  0  0  0  0
 29 69  1  0  0  0  0
 30 70  1  0  0  0  0
 30 71  1  0  0  0  0
 30 72  1  0  0  0  0
 31 73  1  0  0  0  0
 31 74  1  0  0  0  0
 31 75  1  0  0  0  0
 32 77  1  0  0  0  0
 32 78  1  0  0  0  0
 32 79  1  0  0  0  0
 33 80  1  0  0  0  0
 33 81  1  0  0  0  0
 33 82  1  0  0  0  0
M  END
>  <PUBCHEM_COMPOUND_CID>
131752470

>  <PUBCHEM_COMPOUND_CANONICALIZED>
1

>  <PUBCHEM_CACTVS_COMPLEXITY>
846

>  <PUBCHEM_CACTVS_HBOND_ACCEPTOR>
3

>  <PUBCHEM_CACTVS_HBOND_DONOR>
2

>  <PUBCHEM_CACTVS_ROTATABLE_BOND>
0

>  <PUBCHEM_CACTVS_SUBSKEYS>
AAADcfB4MAAAAAAAAAAAAAAAAAAAAAAAAAAwYMGDAAAAAADAAAAAGgAACAAADxSggAICAAAAAgAIAIAQAAAAAAAAAAAAAAEAAAAAEBIAAAAAQAAEAAAAAAGKyPCPgAAAAAAAAADAAAYAADAAAAAAAAAAAA==

>  <PUBCHEM_IUPAC_OPENEYE_NAME>
(6aR,6aR,6bR,8aR,12aR,14S,14bS)-10,14-dihydroxy-4,4,6a,6b,9,9,12a,14b-octamethyl-3,4a,5,6,6a,7,8,8a,10,11,12,13,14,14a-tetradecahydro-2H-picen-1-one

>  <PUBCHEM_IUPAC_CAS_NAME>
(6aR,6aR,6bR,8aR,12aR,14S,14bS)-10,14-dihydroxy-4,4,6a,6b,9,9,12a,14b-octamethyl-3,4a,5,6,6a,7,8,8a,10,11,12,13,14,14a-tetradecahydro-2H-picen-1-one

>  <PUBCHEM_IUPAC_NAME>
(6aR,6aR,6bR,8aR,12aR,14S,14bS)-10,14-dihydroxy-4,4,6a,6b,9,9,12a,14b-octamethyl-3,4a,5,6,6a,7,8,8a,10,11,12,13,14,14a-tetradecahydro-2H-picen-1-one

>  <PUBCHEM_IUPAC_SYSTEMATIC_NAME>
(6aR,6aR,6bR,8aR,12aR,14S,14bS)-4,4,6a,6b,9,9,12a,14b-octamethyl-10,14-bis(oxidanyl)-3,4a,5,6,6a,7,8,8a,10,11,12,13,14,14a-tetradecahydro-2H-picen-1-one

>  <PUBCHEM_IUPAC_TRADITIONAL_NAME>
(6aR,6aR,6bR,8aR,12aR,14S,14bS)-10,14-dihydroxy-4,4,6a,6b,9,9,12a,14b-octamethyl-3,4a,5,6,6a,7,8,8a,10,11,12,13,14,14a-tetradecahydro-2H-picen-1-one

>  <PUBCHEM_IUPAC_INCHI>
InChI=1S/C30H50O3/c1-25(2)13-11-23(33)30(8)19(25)9-16-29(7)24(30)18(31)17-21-27(5)14-12-22(32)26(3,4)20(27)10-15-28(21,29)6/h18-22,24,31-32H,9-17H2,1-8H3/t18-,19?,20-,21+,22?,24?,27-,28+,29+,30+/m0/s1

>  <PUBCHEM_IUPAC_INCHIKEY>
GGVUQGXIFKUXHY-RFXAPONZSA-N

>  <PUBCHEM_EXACT_MASS>
458.376

>  <PUBCHEM_MOLECULAR_FORMULA>
C30H50O3

>  <PUBCHEM_MOLECULAR_WEIGHT>
458.727

>  <PUBCHEM_OPENEYE_CAN_SMILES>
CC1(CCC(=O)C2(C1CCC3(C2C(CC4C3(CCC5C4(CCC(C5(C)C)O)C)C)O)C)C)C

>  <PUBCHEM_OPENEYE_ISO_SMILES>
C[C@]12CCC(C([C@@H]1CC[C@@]3([C@@H]2C[C@@H](C4[C@]3(CCC5[C@@]4(C(=O)CCC5(C)C)C)C)O)C)(C)C)O

>  <PUBCHEM_CACTVS_TPSA>
57.5

>  <PUBCHEM_MONOISOTOPIC_WEIGHT>
458.376

>  <PUBCHEM_TOTAL_CHARGE>
0

>  <PUBCHEM_HEAVY_ATOM_COUNT>
33

>  <PUBCHEM_ATOM_DEF_STEREO_COUNT>
7

>  <PUBCHEM_ATOM_UDEF_STEREO_COUNT>
3

>  <PUBCHEM_BOND_DEF_STEREO_COUNT>
0

>  <PUBCHEM_BOND_UDEF_STEREO_COUNT>
0

>  <PUBCHEM_ISOTOPIC_ATOM_COUNT>
0

>  <PUBCHEM_COMPONENT_COUNT>
1

>  <PUBCHEM_CACTVS_TAUTO_COUNT>
2

>  <PUBCHEM_COORDINATE_TYPE>
1
5
255

>  <PUBCHEM_BONDANNOTATIONS>
10  36  5
14  22  3
24  2  3
4  20  6
5  21  5
6  34  5
7  13  3
8  23  6
9  27  5

$$$$
