131751319
 OpenBabel06101807152D

150154  0  0  1  0  0  0  0  0999 V2000
   21.9186   -4.4699    0.0000 O   0  0  0  0  0  0  0  0  0  0  0  0
   20.1865   -4.4699    0.0000 O   0  0  0  0  0  0  0  0  0  0  0  0
   21.9186   -6.4699    0.0000 O   0  0  0  0  0  0  0  0  0  0  0  0
   20.1865   -7.4699    0.0000 O   0  0  0  0  0  0  0  0  0  0  0  0
   18.4545   -6.4699    0.0000 O   0  0  0  0  0  0  0  0  0  0  0  0
   17.5885   -4.9699    0.0000 O   0  0  0  0  0  0  0  0  0  0  0  0
   16.7224   -3.4699    0.0000 O   0  0  0  0  0  0  0  0  0  0  0  0
   21.9478    1.7270    0.0000 C   0  0  3  0  0  0  0  0  0  0  0  0
   22.8158    1.2303    0.0000 C   0  0  3  0  0  0  0  0  0  0  0  0
   22.8196    0.2303    0.0000 C   0  0  3  0  0  0  0  0  0  0  0  0
   21.9556   -0.2730    0.0000 C   0  0  3  0  0  0  0  0  0  0  0  0
   22.1533    2.6996    0.0000 C   0  0  3  0  0  0  0  0  0  0  0  0
   21.0838    1.2236    0.0000 C   0  0  0  0  0  0  0  0  0  0  0  0
   21.9435   -1.3146    0.0000 C   0  0  3  0  0  0  0  0  0  0  0  0
   23.5502    1.9002    0.0000 C   0  0  0  0  0  0  0  0  0  0  0  0
   21.0876    0.2237    0.0000 C   0  0  0  0  0  0  0  0  0  0  0  0
   23.1416    2.8065    0.0000 C   0  0  0  0  0  0  0  0  0  0  0  0
   23.7316   -0.2730    0.0000 C   0  0  0  0  0  0  0  0  0  0  0  0
   21.4826    3.4413    0.0000 C   0  0  3  0  0  0  0  0  0  0  0  0
   21.0799    2.2236    0.0000 C   0  0  0  0  0  0  0  0  0  0  0  0
   22.8436   -1.8389    0.0000 C   0  0  0  0  0  0  0  0  0  0  0  0
   20.9936   -1.8389    0.0000 C   0  0  0  0  0  0  0  0  0  0  0  0
   23.7436   -1.3146    0.0000 C   0  0  0  0  0  0  0  0  0  0  0  0
   21.0794   -0.8112    0.0000 C   0  0  0  0  0  0  0  0  0  0  0  0
   22.8561   -2.9238    0.0000 C   0  0  0  0  0  0  0  0  0  0  0  0
   20.9810   -2.9238    0.0000 C   0  0  0  0  0  0  0  0  0  0  0  0
   21.7896    4.3930    0.0000 C   0  0  0  0  0  0  0  0  0  0  0  0
   21.9186   -3.4699    0.0000 C   0  0  3  0  0  0  0  0  0  0  0  0
   20.5049    3.2313    0.0000 C   0  0  0  0  0  0  0  0  0  0  0  0
   21.1189    5.1348    0.0000 C   0  0  0  0  0  0  0  0  0  0  0  0
   21.4259    6.0865    0.0000 C   0  0  0  0  0  0  0  0  0  0  0  0
   21.0526   -4.9699    0.0000 C   0  0  3  0  0  0  0  0  0  0  0  0
   20.7552    6.8282    0.0000 C   0  0  0  0  0  0  0  0  0  0  0  0
   21.0526   -5.9699    0.0000 C   0  0  3  0  0  0  0  0  0  0  0  0
   22.4036    6.2964    0.0000 C   0  0  0  0  0  0  0  0  0  0  0  0
   20.1865   -6.4699    0.0000 C   0  0  3  0  0  0  0  0  0  0  0  0
   19.3205   -4.9699    0.0000 C   0  0  3  0  0  0  0  0  0  0  0  0
   19.3205   -5.9699    0.0000 C   0  0  3  0  0  0  0  0  0  0  0  0
   21.0622    7.7799    0.0000 C   0  0  0  0  0  0  0  0  0  0  0  0
   19.7775    6.6182    0.0000 C   0  0  0  0  0  0  0  0  0  0  0  0
   23.0743    5.5547    0.0000 C   0  0  0  0  0  0  0  0  0  0  0  0
   18.4545   -4.4699    0.0000 C   0  0  0  0  0  0  0  0  0  0  0  0
   16.7224   -4.4699    0.0000 C   0  0  0  0  0  0  0  0  0  0  0  0
   15.8564   -4.9699    0.0000 C   0  0  0  0  0  0  0  0  0  0  0  0
   14.9904   -4.4699    0.0000 C   0  0  0  0  0  0  0  0  0  0  0  0
   14.1244   -4.9699    0.0000 C   0  0  0  0  0  0  0  0  0  0  0  0
   13.2583   -4.4699    0.0000 C   0  0  0  0  0  0  0  0  0  0  0  0
   12.3923   -4.9699    0.0000 C   0  0  0  0  0  0  0  0  0  0  0  0
   11.5263   -4.4699    0.0000 C   0  0  0  0  0  0  0  0  0  0  0  0
   10.6603   -4.9699    0.0000 C   0  0  0  0  0  0  0  0  0  0  0  0
    9.7942   -4.4699    0.0000 C   0  0  0  0  0  0  0  0  0  0  0  0
    8.9282   -4.9699    0.0000 C   0  0  0  0  0  0  0  0  0  0  0  0
    8.0622   -4.4699    0.0000 C   0  0  0  0  0  0  0  0  0  0  0  0
    7.1962   -4.9699    0.0000 C   0  0  0  0  0  0  0  0  0  0  0  0
    6.3301   -4.4699    0.0000 C   0  0  0  0  0  0  0  0  0  0  0  0
    5.4641   -4.9699    0.0000 C   0  0  0  0  0  0  0  0  0  0  0  0
    4.5981   -4.4699    0.0000 C   0  0  0  0  0  0  0  0  0  0  0  0
    3.7320   -4.9699    0.0000 C   0  0  0  0  0  0  0  0  0  0  0  0
    2.8660   -4.4699    0.0000 C   0  0  0  0  0  0  0  0  0  0  0  0
    2.0000   -4.9699    0.0000 C   0  0  0  0  0  0  0  0  0  0  0  0
   23.3835    0.9811    0.0000 H   0  0  0  0  0  0  0  0  0  0  0  0
   23.3530    0.5465    0.0000 H   0  0  0  0  0  0  0  0  0  0  0  0
   22.4913   -0.5851    0.0000 H   0  0  0  0  0  0  0  0  0  0  0  0
   22.3740    3.2790    0.0000 H   0  0  0  0  0  0  0  0  0  0  0  0
   20.8695    1.8054    0.0000 H   0  0  0  0  0  0  0  0  0  0  0  0
   20.4736    1.1136    0.0000 H   0  0  0  0  0  0  0  0  0  0  0  0
   23.9176    1.4008    0.0000 H   0  0  0  0  0  0  0  0  0  0  0  0
   24.0855    2.2131    0.0000 H   0  0  0  0  0  0  0  0  0  0  0  0
   20.4766    0.3290    0.0000 H   0  0  0  0  0  0  0  0  0  0  0  0
   20.8778   -0.3598    0.0000 H   0  0  0  0  0  0  0  0  0  0  0  0
   23.7305    3.0005    0.0000 H   0  0  0  0  0  0  0  0  0  0  0  0
   23.0106    3.4124    0.0000 H   0  0  0  0  0  0  0  0  0  0  0  0
   24.3436   -0.3720    0.0000 H   0  0  0  0  0  0  0  0  0  0  0  0
   23.9339    0.3131    0.0000 H   0  0  0  0  0  0  0  0  0  0  0  0
   21.2923    2.8513    0.0000 H   0  0  0  0  0  0  0  0  0  0  0  0
   21.3878    2.7618    0.0000 H   0  0  0  0  0  0  0  0  0  0  0  0
   20.5418    2.5316    0.0000 H   0  0  0  0  0  0  0  0  0  0  0  0
   20.7720    1.6855    0.0000 H   0  0  0  0  0  0  0  0  0  0  0  0
   20.7913   -1.2528    0.0000 H   0  0  0  0  0  0  0  0  0  0  0  0
   20.3816   -1.9379    0.0000 H   0  0  0  0  0  0  0  0  0  0  0  0
   24.2829   -1.6204    0.0000 H   0  0  0  0  0  0  0  0  0  0  0  0
   21.3915   -0.2755    0.0000 H   0  0  0  0  0  0  0  0  0  0  0  0
   20.5437   -0.4992    0.0000 H   0  0  0  0  0  0  0  0  0  0  0  0
   20.7673   -1.3470    0.0000 H   0  0  0  0  0  0  0  0  0  0  0  0
   23.0719   -3.5050    0.0000 H   0  0  0  0  0  0  0  0  0  0  0  0
   23.4657   -2.8106    0.0000 H   0  0  0  0  0  0  0  0  0  0  0  0
   20.3715   -2.8106    0.0000 H   0  0  0  0  0  0  0  0  0  0  0  0
   20.7653   -3.5050    0.0000 H   0  0  0  0  0  0  0  0  0  0  0  0
   22.3376    4.1031    0.0000 H   0  0  0  0  0  0  0  0  0  0  0  0
   22.1703    4.8824    0.0000 H   0  0  0  0  0  0  0  0  0  0  0  0
   22.4561   -3.7789    0.0000 H   0  0  0  0  0  0  0  0  0  0  0  0
   20.3747    3.8375    0.0000 H   0  0  0  0  0  0  0  0  0  0  0  0
   19.8987    3.1011    0.0000 H   0  0  0  0  0  0  0  0  0  0  0  0
   20.6351    2.6252    0.0000 H   0  0  0  0  0  0  0  0  0  0  0  0
   20.5708    5.4247    0.0000 H   0  0  0  0  0  0  0  0  0  0  0  0
   20.7382    4.6454    0.0000 H   0  0  0  0  0  0  0  0  0  0  0  0
   21.0526   -4.3499    0.0000 H   0  0  0  0  0  0  0  0  0  0  0  0
   20.5648    6.2381    0.0000 H   0  0  0  0  0  0  0  0  0  0  0  0
   21.0526   -6.5899    0.0000 H   0  0  0  0  0  0  0  0  0  0  0  0
   22.5939    6.8865    0.0000 H   0  0  0  0  0  0  0  0  0  0  0  0
   19.6496   -6.7799    0.0000 H   0  0  0  0  0  0  0  0  0  0  0  0
   19.3205   -4.3499    0.0000 H   0  0  0  0  0  0  0  0  0  0  0  0
   18.7836   -5.6599    0.0000 H   0  0  0  0  0  0  0  0  0  0  0  0
   21.6522    7.5896    0.0000 H   0  0  0  0  0  0  0  0  0  0  0  0
   21.2525    8.3700    0.0000 H   0  0  0  0  0  0  0  0  0  0  0  0
   20.4721    7.9702    0.0000 H   0  0  0  0  0  0  0  0  0  0  0  0
   19.6473    7.2244    0.0000 H   0  0  0  0  0  0  0  0  0  0  0  0
   19.1713    6.4880    0.0000 H   0  0  0  0  0  0  0  0  0  0  0  0
   19.9077    6.0120    0.0000 H   0  0  0  0  0  0  0  0  0  0  0  0
   22.6144    5.1389    0.0000 H   0  0  0  0  0  0  0  0  0  0  0  0
   23.4901    5.0949    0.0000 H   0  0  0  0  0  0  0  0  0  0  0  0
   23.5342    5.9706    0.0000 H   0  0  0  0  0  0  0  0  0  0  0  0
   21.9186   -7.0899    0.0000 H   0  0  0  0  0  0  0  0  0  0  0  0
   18.8530   -3.9950    0.0000 H   0  0  0  0  0  0  0  0  0  0  0  0
   18.0560   -3.9950    0.0000 H   0  0  0  0  0  0  0  0  0  0  0  0
   19.6496   -7.7799    0.0000 H   0  0  0  0  0  0  0  0  0  0  0  0
   18.4545   -7.0899    0.0000 H   0  0  0  0  0  0  0  0  0  0  0  0
   15.4579   -5.4448    0.0000 H   0  0  0  0  0  0  0  0  0  0  0  0
   16.2549   -5.4448    0.0000 H   0  0  0  0  0  0  0  0  0  0  0  0
   15.3889   -3.9950    0.0000 H   0  0  0  0  0  0  0  0  0  0  0  0
   14.5919   -3.9950    0.0000 H   0  0  0  0  0  0  0  0  0  0  0  0
   13.7258   -5.4448    0.0000 H   0  0  0  0  0  0  0  0  0  0  0  0
   14.5229   -5.4448    0.0000 H   0  0  0  0  0  0  0  0  0  0  0  0
   13.6569   -3.9950    0.0000 H   0  0  0  0  0  0  0  0  0  0  0  0
   12.8598   -3.9950    0.0000 H   0  0  0  0  0  0  0  0  0  0  0  0
   11.9938   -5.4448    0.0000 H   0  0  0  0  0  0  0  0  0  0  0  0
   12.7908   -5.4448    0.0000 H   0  0  0  0  0  0  0  0  0  0  0  0
   11.9248   -3.9950    0.0000 H   0  0  0  0  0  0  0  0  0  0  0  0
   11.1278   -3.9950    0.0000 H   0  0  0  0  0  0  0  0  0  0  0  0
   10.2617   -5.4448    0.0000 H   0  0  0  0  0  0  0  0  0  0  0  0
   11.0588   -5.4448    0.0000 H   0  0  0  0  0  0  0  0  0  0  0  0
    9.7942   -3.8499    0.0000 H   0  0  0  0  0  0  0  0  0  0  0  0
    8.9282   -5.5899    0.0000 H   0  0  0  0  0  0  0  0  0  0  0  0
    8.4607   -3.9950    0.0000 H   0  0  0  0  0  0  0  0  0  0  0  0
    7.6636   -3.9950    0.0000 H   0  0  0  0  0  0  0  0  0  0  0  0
    6.7976   -5.4448    0.0000 H   0  0  0  0  0  0  0  0  0  0  0  0
    7.5947   -5.4448    0.0000 H   0  0  0  0  0  0  0  0  0  0  0  0
    6.7287   -3.9950    0.0000 H   0  0  0  0  0  0  0  0  0  0  0  0
    5.9316   -3.9950    0.0000 H   0  0  0  0  0  0  0  0  0  0  0  0
    5.0656   -5.4448    0.0000 H   0  0  0  0  0  0  0  0  0  0  0  0
    5.8626   -5.4448    0.0000 H   0  0  0  0  0  0  0  0  0  0  0  0
    4.9966   -3.9950    0.0000 H   0  0  0  0  0  0  0  0  0  0  0  0
    4.1996   -3.9950    0.0000 H   0  0  0  0  0  0  0  0  0  0  0  0
    3.3335   -5.4448    0.0000 H   0  0  0  0  0  0  0  0  0  0  0  0
    4.1306   -5.4448    0.0000 H   0  0  0  0  0  0  0  0  0  0  0  0
    3.2646   -3.9950    0.0000 H   0  0  0  0  0  0  0  0  0  0  0  0
    2.4675   -3.9950    0.0000 H   0  0  0  0  0  0  0  0  0  0  0  0
    1.6900   -4.4330    0.0000 H   0  0  0  0  0  0  0  0  0  0  0  0
    1.4631   -5.2799    0.0000 H   0  0  0  0  0  0  0  0  0  0  0  0
    2.3100   -5.5068    0.0000 H   0  0  0  0  0  0  0  0  0  0  0  0
  1 28  1  0  0  0  0
  1 32  1  0  0  0  0
  2 32  1  0  0  0  0
  2 37  1  0  0  0  0
  3 34  1  0  0  0  0
  3113  1  0  0  0  0
  4 36  1  0  0  0  0
  4116  1  0  0  0  0
  5 38  1  0  0  0  0
  5117  1  0  0  0  0
  6 42  1  0  0  0  0
  6 43  1  0  0  0  0
  7 43  2  0  0  0  0
  8  9  1  0  0  0  0
  8 12  1  0  0  0  0
  8 13  1  0  0  0  0
  8 20  1  0  0  0  0
  9 10  1  0  0  0  0
  9 15  1  0  0  0  0
  9 61  1  0  0  0  0
 10 11  1  0  0  0  0
 10 18  1  0  0  0  0
 10 62  1  0  0  0  0
 11 14  1  0  0  0  0
 11 16  1  0  0  0  0
 11 63  1  0  0  0  0
 12 17  1  0  0  0  0
 12 19  1  0  0  0  0
 12 64  1  0  0  0  0
 13 16  1  0  0  0  0
 13 65  1  0  0  0  0
 13 66  1  0  0  0  0
 14 21  1  0  0  0  0
 14 22  1  0  0  0  0
 14 24  1  0  0  0  0
 15 17  1  0  0  0  0
 15 67  1  0  0  0  0
 15 68  1  0  0  0  0
 16 69  1  0  0  0  0
 16 70  1  0  0  0  0
 17 71  1  0  0  0  0
 17 72  1  0  0  0  0
 18 23  1  0  0  0  0
 18 73  1  0  0  0  0
 18 74  1  0  0  0  0
 19 27  1  0  0  0  0
 19 29  1  0  0  0  0
 19 75  1  0  0  0  0
 20 76  1  0  0  0  0
 20 77  1  0  0  0  0
 20 78  1  0  0  0  0
 21 23  2  0  0  0  0
 21 25  1  0  0  0  0
 22 26  1  0  0  0  0
 22 79  1  0  0  0  0
 22 80  1  0  0  0  0
 23 81  1  0  0  0  0
 24 82  1  0  0  0  0
 24 83  1  0  0  0  0
 24 84  1  0  0  0  0
 25 28  1  0  0  0  0
 25 85  1  0  0  0  0
 25 86  1  0  0  0  0
 26 28  1  0  0  0  0
 26 87  1  0  0  0  0
 26 88  1  0  0  0  0
 27 30  1  0  0  0  0
 27 89  1  0  0  0  0
 27 90  1  0  0  0  0
 28 91  1  0  0  0  0
 29 92  1  0  0  0  0
 29 93  1  0  0  0  0
 29 94  1  0  0  0  0
 30 31  1  0  0  0  0
 30 95  1  0  0  0  0
 30 96  1  0  0  0  0
 31 33  1  0  0  0  0
 31 35  2  0  0  0  0
 32 34  1  0  0  0  0
 32 97  1  0  0  0  0
 33 39  1  0  0  0  0
 33 40  1  0  0  0  0
 33 98  1  0  0  0  0
 34 36  1  0  0  0  0
 34 99  1  0  0  0  0
 35 41  1  0  0  0  0
 35100  1  0  0  0  0
 36 38  1  0  0  0  0
 36101  1  0  0  0  0
 37 38  1  0  0  0  0
 37 42  1  0  0  0  0
 37102  1  0  0  0  0
 38103  1  0  0  0  0
 39104  1  0  0  0  0
 39105  1  0  0  0  0
 39106  1  0  0  0  0
 40107  1  0  0  0  0
 40108  1  0  0  0  0
 40109  1  0  0  0  0
 41110  1  0  0  0  0
 41111  1  0  0  0  0
 41112  1  0  0  0  0
 42114  1  0  0  0  0
 42115  1  0  0  0  0
 43 44  1  0  0  0  0
 44 45  1  0  0  0  0
 44118  1  0  0  0  0
 44119  1  0  0  0  0
 45 46  1  0  0  0  0
 45120  1  0  0  0  0
 45121  1  0  0  0  0
 46 47  1  0  0  0  0
 46122  1  0  0  0  0
 46123  1  0  0  0  0
 47 48  1  0  0  0  0
 47124  1  0  0  0  0
 47125  1  0  0  0  0
 48 49  1  0  0  0  0
 48126  1  0  0  0  0
 48127  1  0  0  0  0
 49 50  1  0  0  0  0
 49128  1  0  0  0  0
 49129  1  0  0  0  0
 50 51  1  0  0  0  0
 50130  1  0  0  0  0
 50131  1  0  0  0  0
 51 52  2  0  0  0  0
 51132  1  0  0  0  0
 52 53  1  0  0  0  0
 52133  1  0  0  0  0
 53 54  1  0  0  0  0
 53134  1  0  0  0  0
 53135  1  0  0  0  0
 54 55  1  0  0  0  0
 54136  1  0  0  0  0
 54137  1  0  0  0  0
 55 56  1  0  0  0  0
 55138  1  0  0  0  0
 55139  1  0  0  0  0
 56 57  1  0  0  0  0
 56140  1  0  0  0  0
 56141  1  0  0  0  0
 57 58  1  0  0  0  0
 57142  1  0  0  0  0
 57143  1  0  0  0  0
 58 59  1  0  0  0  0
 58144  1  0  0  0  0
 58145  1  0  0  0  0
 59 60  1  0  0  0  0
 59146  1  0  0  0  0
 59147  1  0  0  0  0
 60148  1  0  0  0  0
 60149  1  0  0  0  0
 60150  1  0  0  0  0
M  END
>  <PUBCHEM_COMPOUND_CID>
131751319

>  <PUBCHEM_COMPOUND_CANONICALIZED>
1

>  <PUBCHEM_CACTVS_COMPLEXITY>
1390

>  <PUBCHEM_CACTVS_HBOND_ACCEPTOR>
7

>  <PUBCHEM_CACTVS_HBOND_DONOR>
3

>  <PUBCHEM_CACTVS_ROTATABLE_BOND>
25

>  <PUBCHEM_CACTVS_SUBSKEYS>
AAADcfB8OAAAAAAAAAAAAAAAAAAAAYAAAAA0YIEAAAAAAGCAAAAAGgAACAAADxSwgAMCCAAABgCIAiDSCAAAAAAgAAAICAEAAAgREBIAAQAiQAAFwAAPAAPI6PyPgAAAAAAAAADAAAQAACAAAQAACAAAAA==

>  <PUBCHEM_IUPAC_OPENEYE_NAME>
[3,4,5-trihydroxy-6-[[17-[(E)-4-isopropyl-1-methyl-hex-4-enyl]-10,13-dimethyl-2,3,4,7,8,9,11,12,14,15,16,17-dodecahydro-1H-cyclopenta[a]phenanthren-3-yl]oxy]tetrahydropyran-2-yl]methyl (E)-octadec-9-enoate

>  <PUBCHEM_IUPAC_CAS_NAME>
(E)-9-octadecenoic acid [6-[[10,13-dimethyl-17-[(E)-5-propan-2-ylhept-5-en-2-yl]-2,3,4,7,8,9,11,12,14,15,16,17-dodecahydro-1H-cyclopenta[a]phenanthren-3-yl]oxy]-3,4,5-trihydroxy-2-oxanyl]methyl ester

>  <PUBCHEM_IUPAC_NAME>
[6-[[10,13-dimethyl-17-[(E)-5-propan-2-ylhept-5-en-2-yl]-2,3,4,7,8,9,11,12,14,15,16,17-dodecahydro-1H-cyclopenta[a]phenanthren-3-yl]oxy]-3,4,5-trihydroxyoxan-2-yl]methyl (E)-octadec-9-enoate

>  <PUBCHEM_IUPAC_SYSTEMATIC_NAME>
[6-[[10,13-dimethyl-17-[(E)-5-propan-2-ylhept-5-en-2-yl]-2,3,4,7,8,9,11,12,14,15,16,17-dodecahydro-1H-cyclopenta[a]phenanthren-3-yl]oxy]-3,4,5-tris(oxidanyl)oxan-2-yl]methyl (E)-octadec-9-enoate

>  <PUBCHEM_IUPAC_TRADITIONAL_NAME>
(E)-octadec-9-enoic acid [3,4,5-trihydroxy-6-[[17-[(E)-4-isopropyl-1-methyl-hex-4-enyl]-10,13-dimethyl-2,3,4,7,8,9,11,12,14,15,16,17-dodecahydro-1H-cyclopenta[a]phenanthren-3-yl]oxy]tetrahydropyran-2-yl]methyl ester

>  <PUBCHEM_IUPAC_INCHI>
InChI=1S/C53H90O7/c1-8-10-11-12-13-14-15-16-17-18-19-20-21-22-23-24-47(54)58-36-46-48(55)49(56)50(57)51(60-46)59-41-31-33-52(6)40(35-41)27-28-42-44-30-29-43(53(44,7)34-32-45(42)52)38(5)25-26-39(9-2)37(3)4/h9,16-17,27,37-38,41-46,48-51,55-57H,8,10-15,18-26,28-36H2,1-7H3/b17-16+,39-9+

>  <PUBCHEM_IUPAC_INCHIKEY>
YEAUSGDLYXRRSE-LMNLQXKHSA-N

>  <PUBCHEM_EXACT_MASS>
838.669

>  <PUBCHEM_MOLECULAR_FORMULA>
C53H90O7

>  <PUBCHEM_MOLECULAR_WEIGHT>
839.296

>  <PUBCHEM_OPENEYE_CAN_SMILES>
CCCCCCCCC=CCCCCCCCC(=O)OCC1C(C(C(C(O1)OC2CCC3(C4CCC5(C(C4CC=C3C2)CCC5C(C)CCC(=CC)C(C)C)C)C)O)O)O

>  <PUBCHEM_OPENEYE_ISO_SMILES>
CCCCCCCC/C=C/CCCCCCCC(=O)OCC1C(C(C(C(O1)OC2CCC3(C4CCC5(C(C4CC=C3C2)CCC5C(C)CC/C(=C\C)/C(C)C)C)C)O)O)O

>  <PUBCHEM_CACTVS_TPSA>
105

>  <PUBCHEM_MONOISOTOPIC_WEIGHT>
838.669

>  <PUBCHEM_TOTAL_CHARGE>
0

>  <PUBCHEM_HEAVY_ATOM_COUNT>
60

>  <PUBCHEM_ATOM_DEF_STEREO_COUNT>
0

>  <PUBCHEM_ATOM_UDEF_STEREO_COUNT>
13

>  <PUBCHEM_BOND_DEF_STEREO_COUNT>
2

>  <PUBCHEM_BOND_UDEF_STEREO_COUNT>
0

>  <PUBCHEM_ISOTOPIC_ATOM_COUNT>
0

>  <PUBCHEM_COMPONENT_COUNT>
1

>  <PUBCHEM_CACTVS_TAUTO_COUNT>
1

>  <PUBCHEM_COORDINATE_TYPE>
1
5
255

>  <PUBCHEM_BONDANNOTATIONS>
28  1  3
32  1  3
10  18  3
11  16  3
12  17  3
14  24  3
19  29  3
34  3  3
37  42  3
36  4  3
38  5  3
8  20  3
9  15  3

$$$$
