131751665
 OpenBabel06101807152D

 54 53  0  0  0  0  0  0  0  0999 V2000
    2.8660    3.2500    0.0000 O   0  0  0  0  0  0  0  0  0  0  0  0
   14.1244   -3.2500    0.0000 O   0  0  0  0  0  0  0  0  0  0  0  0
    3.7320    1.7500    0.0000 O   0  0  0  0  0  0  0  0  0  0  0  0
   13.2583   -1.7500    0.0000 O   0  0  0  0  0  0  0  0  0  0  0  0
    8.0622    3.2500    0.0000 C   0  0  0  0  0  0  0  0  0  0  0  0
   10.6603   -0.2500    0.0000 C   0  0  0  0  0  0  0  0  0  0  0  0
    8.9282    2.7500    0.0000 C   0  0  0  0  0  0  0  0  0  0  0  0
    9.7942    0.2500    0.0000 C   0  0  0  0  0  0  0  0  0  0  0  0
    7.1962    2.7500    0.0000 C   0  0  0  0  0  0  0  0  0  0  0  0
   10.6603   -1.2500    0.0000 C   0  0  0  0  0  0  0  0  0  0  0  0
    8.9282    1.7500    0.0000 C   0  0  0  0  0  0  0  0  0  0  0  0
    9.7942    1.2500    0.0000 C   0  0  0  0  0  0  0  0  0  0  0  0
    8.0622    4.2500    0.0000 C   0  0  0  0  0  0  0  0  0  0  0  0
   11.5263    0.2500    0.0000 C   0  0  0  0  0  0  0  0  0  0  0  0
    6.3301    3.2500    0.0000 C   0  0  0  0  0  0  0  0  0  0  0  0
   11.5263   -1.7500    0.0000 C   0  0  0  0  0  0  0  0  0  0  0  0
    4.5981    3.2500    0.0000 C   0  0  0  0  0  0  0  0  0  0  0  0
   12.3923   -3.2500    0.0000 C   0  0  0  0  0  0  0  0  0  0  0  0
    5.4641    2.7500    0.0000 C   0  0  0  0  0  0  0  0  0  0  0  0
   11.5263   -2.7500    0.0000 C   0  0  0  0  0  0  0  0  0  0  0  0
    4.5981    4.2500    0.0000 C   0  0  0  0  0  0  0  0  0  0  0  0
   12.3923   -4.2500    0.0000 C   0  0  0  0  0  0  0  0  0  0  0  0
    3.7320    2.7500    0.0000 C   0  0  0  0  0  0  0  0  0  0  0  0
   13.2583   -2.7500    0.0000 C   0  0  0  0  0  0  0  0  0  0  0  0
    2.0000    2.7500    0.0000 C   0  0  0  0  0  0  0  0  0  0  0  0
   14.9904   -2.7500    0.0000 C   0  0  0  0  0  0  0  0  0  0  0  0
    9.4651    3.0600    0.0000 H   0  0  0  0  0  0  0  0  0  0  0  0
    9.2573   -0.0600    0.0000 H   0  0  0  0  0  0  0  0  0  0  0  0
    7.1962    2.1300    0.0000 H   0  0  0  0  0  0  0  0  0  0  0  0
   10.1233   -1.5600    0.0000 H   0  0  0  0  0  0  0  0  0  0  0  0
    8.3913    1.4400    0.0000 H   0  0  0  0  0  0  0  0  0  0  0  0
   10.3312    1.5600    0.0000 H   0  0  0  0  0  0  0  0  0  0  0  0
    8.6822    4.2500    0.0000 H   0  0  0  0  0  0  0  0  0  0  0  0
    8.0622    4.8700    0.0000 H   0  0  0  0  0  0  0  0  0  0  0  0
    7.4422    4.2500    0.0000 H   0  0  0  0  0  0  0  0  0  0  0  0
   11.8363   -0.2869    0.0000 H   0  0  0  0  0  0  0  0  0  0  0  0
   12.0632    0.5600    0.0000 H   0  0  0  0  0  0  0  0  0  0  0  0
   11.2163    0.7869    0.0000 H   0  0  0  0  0  0  0  0  0  0  0  0
    6.3301    3.8700    0.0000 H   0  0  0  0  0  0  0  0  0  0  0  0
   12.0632   -1.4400    0.0000 H   0  0  0  0  0  0  0  0  0  0  0  0
    5.4641    2.1300    0.0000 H   0  0  0  0  0  0  0  0  0  0  0  0
   10.9893   -3.0600    0.0000 H   0  0  0  0  0  0  0  0  0  0  0  0
    5.2181    4.2500    0.0000 H   0  0  0  0  0  0  0  0  0  0  0  0
    4.5981    4.8700    0.0000 H   0  0  0  0  0  0  0  0  0  0  0  0
    3.9781    4.2500    0.0000 H   0  0  0  0  0  0  0  0  0  0  0  0
   11.7723   -4.2500    0.0000 H   0  0  0  0  0  0  0  0  0  0  0  0
   12.3923   -4.8700    0.0000 H   0  0  0  0  0  0  0  0  0  0  0  0
   13.0123   -4.2500    0.0000 H   0  0  0  0  0  0  0  0  0  0  0  0
    1.6900    3.2869    0.0000 H   0  0  0  0  0  0  0  0  0  0  0  0
    1.4631    2.4400    0.0000 H   0  0  0  0  0  0  0  0  0  0  0  0
    2.3100    2.2131    0.0000 H   0  0  0  0  0  0  0  0  0  0  0  0
   15.3004   -3.2869    0.0000 H   0  0  0  0  0  0  0  0  0  0  0  0
   15.5273   -2.4400    0.0000 H   0  0  0  0  0  0  0  0  0  0  0  0
   14.6804   -2.2131    0.0000 H   0  0  0  0  0  0  0  0  0  0  0  0
  1 23  1  0  0  0  0
  1 25  1  0  0  0  0
  2 24  1  0  0  0  0
  2 26  1  0  0  0  0
  3 23  2  0  0  0  0
  4 24  2  0  0  0  0
  5  7  2  0  0  0  0
  5  9  1  0  0  0  0
  5 13  1  0  0  0  0
  6  8  2  0  0  0  0
  6 10  1  0  0  0  0
  6 14  1  0  0  0  0
  7 11  1  0  0  0  0
  7 27  1  0  0  0  0
  8 12  1  0  0  0  0
  8 28  1  0  0  0  0
  9 15  2  0  0  0  0
  9 29  1  0  0  0  0
 10 16  2  0  0  0  0
 10 30  1  0  0  0  0
 11 12  2  0  0  0  0
 11 31  1  0  0  0  0
 12 32  1  0  0  0  0
 13 33  1  0  0  0  0
 13 34  1  0  0  0  0
 13 35  1  0  0  0  0
 14 36  1  0  0  0  0
 14 37  1  0  0  0  0
 14 38  1  0  0  0  0
 15 19  1  0  0  0  0
 15 39  1  0  0  0  0
 16 20  1  0  0  0  0
 16 40  1  0  0  0  0
 17 19  2  0  0  0  0
 17 21  1  0  0  0  0
 17 23  1  0  0  0  0
 18 20  2  0  0  0  0
 18 22  1  0  0  0  0
 18 24  1  0  0  0  0
 19 41  1  0  0  0  0
 20 42  1  0  0  0  0
 21 43  1  0  0  0  0
 21 44  1  0  0  0  0
 21 45  1  0  0  0  0
 22 46  1  0  0  0  0
 22 47  1  0  0  0  0
 22 48  1  0  0  0  0
 25 49  1  0  0  0  0
 25 50  1  0  0  0  0
 25 51  1  0  0  0  0
 26 52  1  0  0  0  0
 26 53  1  0  0  0  0
 26 54  1  0  0  0  0
M  END
>  <PUBCHEM_COMPOUND_CID>
131751665

>  <PUBCHEM_COMPOUND_CANONICALIZED>
1

>  <PUBCHEM_CACTVS_COMPLEXITY>
636

>  <PUBCHEM_CACTVS_HBOND_ACCEPTOR>
4

>  <PUBCHEM_CACTVS_HBOND_DONOR>
0

>  <PUBCHEM_CACTVS_ROTATABLE_BOND>
10

>  <PUBCHEM_CACTVS_SUBSKEYS>
AAADceB4OAAAAAAAAAAAAAAAAAAAAAAAAAAAAAAAAAAAAAAAAAAAGgAAAAAADACAgAICCAAABACIAiDSCAAAAAAgAAAICAEAAEgIBAAAIQAAEAAAAAAIoYIAAAAAAAAAAAAAAAAAAAAAAAAAAAAAAAAAAA==

>  <PUBCHEM_IUPAC_OPENEYE_NAME>
dimethyl (2E,4E,6Z,8E,10E,12E,14Z)-2,6,11,15-tetramethylhexadeca-2,4,6,8,10,12,14-heptaenedioate

>  <PUBCHEM_IUPAC_CAS_NAME>
(2E,4E,6Z,8E,10E,12E,14Z)-2,6,11,15-tetramethylhexadeca-2,4,6,8,10,12,14-heptaenedioic acid dimethyl ester

>  <PUBCHEM_IUPAC_NAME>
dimethyl (2E,4E,6Z,8E,10E,12E,14Z)-2,6,11,15-tetramethylhexadeca-2,4,6,8,10,12,14-heptaenedioate

>  <PUBCHEM_IUPAC_SYSTEMATIC_NAME>
dimethyl (2E,4E,6Z,8E,10E,12E,14Z)-2,6,11,15-tetramethylhexadeca-2,4,6,8,10,12,14-heptaenedioate

>  <PUBCHEM_IUPAC_TRADITIONAL_NAME>
(2E,4E,6Z,8E,10E,12E,14Z)-2,6,11,15-tetramethylhexadeca-2,4,6,8,10,12,14-heptaenedioic acid dimethyl ester

>  <PUBCHEM_IUPAC_INCHI>
InChI=1S/C22H28O4/c1-17(13-9-15-19(3)21(23)25-5)11-7-8-12-18(2)14-10-16-20(4)22(24)26-6/h7-16H,1-6H3/b8-7+,13-9+,14-10+,17-11-,18-12+,19-15+,20-16-

>  <PUBCHEM_IUPAC_INCHIKEY>
OXNHRKGZZFWUQZ-KYBHHSLLSA-N

>  <PUBCHEM_EXACT_MASS>
356.199

>  <PUBCHEM_MOLECULAR_FORMULA>
C22H28O4

>  <PUBCHEM_MOLECULAR_WEIGHT>
356.462

>  <PUBCHEM_OPENEYE_CAN_SMILES>
CC(=CC=CC=C(C)C=CC=C(C)C(=O)OC)C=CC=C(C)C(=O)OC

>  <PUBCHEM_OPENEYE_ISO_SMILES>
C/C(=C\C=C\C=C(\C)/C=C/C=C(\C)/C(=O)OC)/C=C/C=C(/C)\C(=O)OC

>  <PUBCHEM_CACTVS_TPSA>
52.6

>  <PUBCHEM_MONOISOTOPIC_WEIGHT>
356.199

>  <PUBCHEM_TOTAL_CHARGE>
0

>  <PUBCHEM_HEAVY_ATOM_COUNT>
26

>  <PUBCHEM_ATOM_DEF_STEREO_COUNT>
0

>  <PUBCHEM_ATOM_UDEF_STEREO_COUNT>
0

>  <PUBCHEM_BOND_DEF_STEREO_COUNT>
7

>  <PUBCHEM_BOND_UDEF_STEREO_COUNT>
0

>  <PUBCHEM_ISOTOPIC_ATOM_COUNT>
0

>  <PUBCHEM_COMPONENT_COUNT>
1

>  <PUBCHEM_CACTVS_TAUTO_COUNT>
51

>  <PUBCHEM_COORDINATE_TYPE>
1
5
255

$$$$
