131751269
 OpenBabel06101807152D

 44 47  0  0  0  0  0  0  0  0999 V2000
    9.8984    1.3176    0.0000 O   0  0  0  0  0  0  0  0  0  0  0  0
    6.3624    1.3455    0.0000 O   0  0  0  0  0  0  0  0  0  0  0  0
    4.5923    1.3350    0.0000 O   0  0  0  0  0  0  0  0  0  0  0  0
    3.7205    0.7833    0.0000 O   0  0  0  0  0  0  0  0  0  0  0  0
    2.0000   -2.2234    0.0000 O   0  0  0  0  0  0  0  0  0  0  0  0
    9.9065    2.3592    0.0000 C   0  0  0  0  0  0  0  0  0  0  0  0
    8.1224    1.3108    0.0000 C   0  0  0  0  0  0  0  0  0  0  0  0
    8.9884    0.8108    0.0000 C   0  0  0  0  0  0  0  0  0  0  0  0
    9.0044    2.8801    0.0000 C   0  0  0  0  0  0  0  0  0  0  0  0
    7.2564    0.8108    0.0000 C   0  0  0  0  0  0  0  0  0  0  0  0
    8.1063    2.3523    0.0000 C   0  0  0  0  0  0  0  0  0  0  0  0
   10.4098    3.2233    0.0000 C   0  0  0  0  0  0  0  0  0  0  0  0
   10.9065    2.3554    0.0000 C   0  0  0  0  0  0  0  0  0  0  0  0
    7.2564   -0.1892    0.0000 C   0  0  0  0  0  0  0  0  0  0  0  0
    8.9884   -0.1892    0.0000 C   0  0  0  0  0  0  0  0  0  0  0  0
    8.1224   -0.6892    0.0000 C   0  0  0  0  0  0  0  0  0  0  0  0
    6.3624   -0.7239    0.0000 C   0  0  0  0  0  0  0  0  0  0  0  0
    5.4564   -0.2100    0.0000 C   0  0  0  0  0  0  0  0  0  0  0  0
    5.4564    0.8316    0.0000 C   0  0  0  0  0  0  0  0  0  0  0  0
    4.5923   -0.7133    0.0000 C   0  0  0  0  0  0  0  0  0  0  0  0
    3.7243   -0.2167    0.0000 C   0  0  0  0  0  0  0  0  0  0  0  0
    4.5961   -1.7133    0.0000 C   0  0  0  0  0  0  0  0  0  0  0  0
    2.8602   -0.7200    0.0000 C   0  0  0  0  0  0  0  0  0  0  0  0
    3.7320   -2.2167    0.0000 C   0  0  0  0  0  0  0  0  0  0  0  0
    2.8641   -1.7200    0.0000 C   0  0  0  0  0  0  0  0  0  0  0  0
    2.0038   -3.2233    0.0000 C   0  0  0  0  0  0  0  0  0  0  0  0
    9.0020    3.5001    0.0000 H   0  0  0  0  0  0  0  0  0  0  0  0
    7.5659    2.6561    0.0000 H   0  0  0  0  0  0  0  0  0  0  0  0
   10.9041    1.7354    0.0000 H   0  0  0  0  0  0  0  0  0  0  0  0
   11.5264    2.3530    0.0000 H   0  0  0  0  0  0  0  0  0  0  0  0
   10.9455    2.9113    0.0000 H   0  0  0  0  0  0  0  0  0  0  0  0
   10.7219    3.7591    0.0000 H   0  0  0  0  0  0  0  0  0  0  0  0
    9.8740    3.5354    0.0000 H   0  0  0  0  0  0  0  0  0  0  0  0
   10.9088    2.9754    0.0000 H   0  0  0  0  0  0  0  0  0  0  0  0
    9.5254   -0.4992    0.0000 H   0  0  0  0  0  0  0  0  0  0  0  0
    8.1224   -1.3092    0.0000 H   0  0  0  0  0  0  0  0  0  0  0  0
    6.3696   -1.3438    0.0000 H   0  0  0  0  0  0  0  0  0  0  0  0
    5.1343   -2.0213    0.0000 H   0  0  0  0  0  0  0  0  0  0  0  0
    2.3221   -0.4121    0.0000 H   0  0  0  0  0  0  0  0  0  0  0  0
    3.7344   -2.8367    0.0000 H   0  0  0  0  0  0  0  0  0  0  0  0
    3.1824    1.0912    0.0000 H   0  0  0  0  0  0  0  0  0  0  0  0
    1.3839   -3.2257    0.0000 H   0  0  0  0  0  0  0  0  0  0  0  0
    2.0062   -3.8433    0.0000 H   0  0  0  0  0  0  0  0  0  0  0  0
    2.6238   -3.2210    0.0000 H   0  0  0  0  0  0  0  0  0  0  0  0
  1  6  1  0  0  0  0
  1  8  1  0  0  0  0
  2 10  1  0  0  0  0
  2 19  1  0  0  0  0
  3 19  2  0  0  0  0
  4 21  1  0  0  0  0
  4 41  1  0  0  0  0
  5 25  1  0  0  0  0
  5 26  1  0  0  0  0
  6  9  1  0  0  0  0
  6 12  1  0  0  0  0
  6 13  1  0  0  0  0
  7  8  2  0  0  0  0
  7 10  1  0  0  0  0
  7 11  1  0  0  0  0
  8 15  1  0  0  0  0
  9 11  2  0  0  0  0
  9 27  1  0  0  0  0
 10 14  2  0  0  0  0
 11 28  1  0  0  0  0
 12 31  1  0  0  0  0
 12 32  1  0  0  0  0
 12 33  1  0  0  0  0
 13 29  1  0  0  0  0
 13 30  1  0  0  0  0
 13 34  1  0  0  0  0
 14 16  1  0  0  0  0
 14 17  1  0  0  0  0
 15 16  2  0  0  0  0
 15 35  1  0  0  0  0
 16 36  1  0  0  0  0
 17 18  2  0  0  0  0
 17 37  1  0  0  0  0
 18 19  1  0  0  0  0
 18 20  1  0  0  0  0
 20 21  2  0  0  0  0
 20 22  1  0  0  0  0
 21 23  1  0  0  0  0
 22 24  2  0  0  0  0
 22 38  1  0  0  0  0
 23 25  2  0  0  0  0
 23 39  1  0  0  0  0
 24 25  1  0  0  0  0
 24 40  1  0  0  0  0
 26 42  1  0  0  0  0
 26 43  1  0  0  0  0
 26 44  1  0  0  0  0
M  END
>  <PUBCHEM_COMPOUND_CID>
131751269

>  <PUBCHEM_COMPOUND_CANONICALIZED>
1

>  <PUBCHEM_CACTVS_COMPLEXITY>
622

>  <PUBCHEM_CACTVS_HBOND_ACCEPTOR>
5

>  <PUBCHEM_CACTVS_HBOND_DONOR>
1

>  <PUBCHEM_CACTVS_ROTATABLE_BOND>
2

>  <PUBCHEM_CACTVS_SUBSKEYS>
AAADceB4OAAAAAAAAAAAAAAAAAAAAAAAAAAwYIEAAAAAAACBQAAAGgAACAAADESAmAIyDoAABgCIAiDSCAACCAAgIAAIiAEGCMgMJzKGNRqCeiClwBUIuYfK6OyOIAACCAAIAABAAAQQABAAAAAAAAAAAA==

>  <PUBCHEM_IUPAC_OPENEYE_NAME>
3-(2-hydroxy-4-methoxy-phenyl)-8,8-dimethyl-pyrano[2,3-f]chromen-2-one

>  <PUBCHEM_IUPAC_CAS_NAME>
3-(2-hydroxy-4-methoxyphenyl)-8,8-dimethyl-2-pyrano[2,3-f][1]benzopyranone

>  <PUBCHEM_IUPAC_NAME>
3-(2-hydroxy-4-methoxyphenyl)-8,8-dimethylpyrano[2,3-f]chromen-2-one

>  <PUBCHEM_IUPAC_SYSTEMATIC_NAME>
3-(4-methoxy-2-oxidanyl-phenyl)-8,8-dimethyl-pyrano[2,3-f]chromen-2-one

>  <PUBCHEM_IUPAC_TRADITIONAL_NAME>
3-(2-hydroxy-4-methoxy-phenyl)-8,8-dimethyl-pyrano[2,3-f]chromen-2-one

>  <PUBCHEM_IUPAC_INCHI>
InChI=1S/C21H18O5/c1-21(2)9-8-15-18(26-21)7-4-12-10-16(20(23)25-19(12)15)14-6-5-13(24-3)11-17(14)22/h4-11,22H,1-3H3

>  <PUBCHEM_IUPAC_INCHIKEY>
HYXYVJUECMXNLJ-UHFFFAOYSA-N

>  <PUBCHEM_EXACT_MASS>
350.115

>  <PUBCHEM_MOLECULAR_FORMULA>
C21H18O5

>  <PUBCHEM_MOLECULAR_WEIGHT>
350.37

>  <PUBCHEM_OPENEYE_CAN_SMILES>
CC1(C=CC2=C(O1)C=CC3=C2OC(=O)C(=C3)C4=C(C=C(C=C4)OC)O)C

>  <PUBCHEM_OPENEYE_ISO_SMILES>
CC1(C=CC2=C(O1)C=CC3=C2OC(=O)C(=C3)C4=C(C=C(C=C4)OC)O)C

>  <PUBCHEM_CACTVS_TPSA>
65

>  <PUBCHEM_MONOISOTOPIC_WEIGHT>
350.115

>  <PUBCHEM_TOTAL_CHARGE>
0

>  <PUBCHEM_HEAVY_ATOM_COUNT>
26

>  <PUBCHEM_ATOM_DEF_STEREO_COUNT>
0

>  <PUBCHEM_ATOM_UDEF_STEREO_COUNT>
0

>  <PUBCHEM_BOND_DEF_STEREO_COUNT>
0

>  <PUBCHEM_BOND_UDEF_STEREO_COUNT>
0

>  <PUBCHEM_ISOTOPIC_ATOM_COUNT>
0

>  <PUBCHEM_COMPONENT_COUNT>
1

>  <PUBCHEM_CACTVS_TAUTO_COUNT>
6

>  <PUBCHEM_COORDINATE_TYPE>
1
5
255

>  <PUBCHEM_BONDANNOTATIONS>
10  14  8
14  16  8
14  17  8
15  16  8
17  18  8
18  19  8
2  10  8
2  19  8
20  21  8
20  22  8
21  23  8
22  24  8
23  25  8
24  25  8
7  10  8
7  8  8
8  15  8

$$$$
