131752094
 OpenBabel06101807152D

 98 99  0  0  1  0  0  0  0  0999 V2000
   19.6711    4.5412    0.0000 O   0  0  0  0  0  0  0  0  0  0  0  0
   15.8716    2.5124    0.0000 O   0  0  0  0  0  0  0  0  0  0  0  0
   17.2224    3.7048    0.0000 C   0  0  0  0  0  0  0  0  0  0  0  0
   17.7224    2.8388    0.0000 C   0  0  3  0  0  0  0  0  0  0  0  0
   17.8916    4.4479    0.0000 C   0  0  0  0  0  0  0  0  0  0  0  0
   18.7006    3.0467    0.0000 C   0  0  0  0  0  0  0  0  0  0  0  0
   18.8051    4.0412    0.0000 C   0  0  3  0  0  0  0  0  0  0  0  0
   16.4793    4.3739    0.0000 C   0  0  0  0  0  0  0  0  0  0  0  0
   16.2376    3.5312    0.0000 C   0  0  0  0  0  0  0  0  0  0  0  0
   17.9303    1.8606    0.0000 C   0  0  0  0  0  0  0  0  0  0  0  0
   16.8564    2.3388    0.0000 C   0  0  0  0  0  0  0  0  0  0  0  0
   16.8564    1.3388    0.0000 C   0  0  0  0  0  0  0  0  0  0  0  0
   15.9904    0.8388    0.0000 C   0  0  0  0  0  0  0  0  0  0  0  0
    3.0000   -3.6612    0.0000 C   0  0  0  0  0  0  0  0  0  0  0  0
   15.9904   -0.1612    0.0000 C   0  0  0  0  0  0  0  0  0  0  0  0
    3.0000   -4.6612    0.0000 C   0  0  0  0  0  0  0  0  0  0  0  0
    3.8660   -5.1612    0.0000 C   0  0  0  0  0  0  0  0  0  0  0  0
    3.8660   -3.1612    0.0000 C   0  0  0  0  0  0  0  0  0  0  0  0
    4.7320   -4.6612    0.0000 C   0  0  0  0  0  0  0  0  0  0  0  0
    4.7320   -3.6612    0.0000 C   0  0  0  0  0  0  0  0  0  0  0  0
    2.0000   -3.6612    0.0000 C   0  0  0  0  0  0  0  0  0  0  0  0
    2.5000   -2.7952    0.0000 C   0  0  0  0  0  0  0  0  0  0  0  0
   16.8564   -0.6612    0.0000 C   0  0  0  0  0  0  0  0  0  0  0  0
   15.1244   -0.6612    0.0000 C   0  0  0  0  0  0  0  0  0  0  0  0
    3.8660   -2.1612    0.0000 C   0  0  0  0  0  0  0  0  0  0  0  0
    5.5981   -3.1612    0.0000 C   0  0  0  0  0  0  0  0  0  0  0  0
    4.7320   -1.6612    0.0000 C   0  0  0  0  0  0  0  0  0  0  0  0
   14.2583   -0.1612    0.0000 C   0  0  0  0  0  0  0  0  0  0  0  0
    4.7320   -0.6612    0.0000 C   0  0  0  0  0  0  0  0  0  0  0  0
   13.3923   -0.6612    0.0000 C   0  0  0  0  0  0  0  0  0  0  0  0
    3.8660   -0.1612    0.0000 C   0  0  0  0  0  0  0  0  0  0  0  0
    5.5981   -0.1612    0.0000 C   0  0  0  0  0  0  0  0  0  0  0  0
   12.5263   -0.1612    0.0000 C   0  0  0  0  0  0  0  0  0  0  0  0
    6.4641   -0.6612    0.0000 C   0  0  0  0  0  0  0  0  0  0  0  0
   12.5263    0.8388    0.0000 C   0  0  0  0  0  0  0  0  0  0  0  0
   11.6603   -0.6612    0.0000 C   0  0  0  0  0  0  0  0  0  0  0  0
    7.3301   -0.1612    0.0000 C   0  0  0  0  0  0  0  0  0  0  0  0
   10.7942   -0.1612    0.0000 C   0  0  0  0  0  0  0  0  0  0  0  0
    8.1962   -0.6612    0.0000 C   0  0  0  0  0  0  0  0  0  0  0  0
    9.9282   -0.6612    0.0000 C   0  0  0  0  0  0  0  0  0  0  0  0
    9.0622   -0.1612    0.0000 C   0  0  0  0  0  0  0  0  0  0  0  0
    8.1962   -1.6612    0.0000 C   0  0  0  0  0  0  0  0  0  0  0  0
   18.2016    4.9849    0.0000 H   0  0  0  0  0  0  0  0  0  0  0  0
   17.3900    4.8124    0.0000 H   0  0  0  0  0  0  0  0  0  0  0  0
   18.7654    2.4301    0.0000 H   0  0  0  0  0  0  0  0  0  0  0  0
   19.3206    3.0467    0.0000 H   0  0  0  0  0  0  0  0  0  0  0  0
   18.7727    4.6604    0.0000 H   0  0  0  0  0  0  0  0  0  0  0  0
   16.1300    4.1418    0.0000 H   0  0  0  0  0  0  0  0  0  0  0  0
   16.8941    4.8347    0.0000 H   0  0  0  0  0  0  0  0  0  0  0  0
   16.0185    4.7888    0.0000 H   0  0  0  0  0  0  0  0  0  0  0  0
   16.0644    3.9132    0.0000 H   0  0  0  0  0  0  0  0  0  0  0  0
   15.6270    3.4236    0.0000 H   0  0  0  0  0  0  0  0  0  0  0  0
   16.3453    2.9206    0.0000 H   0  0  0  0  0  0  0  0  0  0  0  0
   17.3239    1.7317    0.0000 H   0  0  0  0  0  0  0  0  0  0  0  0
   18.0592    1.2542    0.0000 H   0  0  0  0  0  0  0  0  0  0  0  0
   18.5368    1.9895    0.0000 H   0  0  0  0  0  0  0  0  0  0  0  0
   19.6711    5.1612    0.0000 H   0  0  0  0  0  0  0  0  0  0  0  0
   17.3933    1.0288    0.0000 H   0  0  0  0  0  0  0  0  0  0  0  0
   15.4534    1.1488    0.0000 H   0  0  0  0  0  0  0  0  0  0  0  0
    2.3894   -4.5536    0.0000 H   0  0  0  0  0  0  0  0  0  0  0  0
    2.7880   -5.2438    0.0000 H   0  0  0  0  0  0  0  0  0  0  0  0
    3.4675   -5.6362    0.0000 H   0  0  0  0  0  0  0  0  0  0  0  0
    4.2646   -5.6362    0.0000 H   0  0  0  0  0  0  0  0  0  0  0  0
    4.9441   -5.2438    0.0000 H   0  0  0  0  0  0  0  0  0  0  0  0
    5.3426   -4.5536    0.0000 H   0  0  0  0  0  0  0  0  0  0  0  0
    2.0000   -3.0412    0.0000 H   0  0  0  0  0  0  0  0  0  0  0  0
    3.0369   -2.4852    0.0000 H   0  0  0  0  0  0  0  0  0  0  0  0
    2.1900   -2.2583    0.0000 H   0  0  0  0  0  0  0  0  0  0  0  0
    1.9631   -3.1052    0.0000 H   0  0  0  0  0  0  0  0  0  0  0  0
    1.3800   -3.6612    0.0000 H   0  0  0  0  0  0  0  0  0  0  0  0
    2.0000   -4.2812    0.0000 H   0  0  0  0  0  0  0  0  0  0  0  0
   16.5464   -1.1982    0.0000 H   0  0  0  0  0  0  0  0  0  0  0  0
   17.3933   -0.9712    0.0000 H   0  0  0  0  0  0  0  0  0  0  0  0
   17.1664   -0.1243    0.0000 H   0  0  0  0  0  0  0  0  0  0  0  0
   15.1244   -1.2812    0.0000 H   0  0  0  0  0  0  0  0  0  0  0  0
    3.3291   -1.8512    0.0000 H   0  0  0  0  0  0  0  0  0  0  0  0
    5.9081   -3.6982    0.0000 H   0  0  0  0  0  0  0  0  0  0  0  0
    6.1350   -2.8512    0.0000 H   0  0  0  0  0  0  0  0  0  0  0  0
    5.2881   -2.6243    0.0000 H   0  0  0  0  0  0  0  0  0  0  0  0
    5.2690   -1.9712    0.0000 H   0  0  0  0  0  0  0  0  0  0  0  0
   14.2583    0.4588    0.0000 H   0  0  0  0  0  0  0  0  0  0  0  0
   13.3923   -1.2812    0.0000 H   0  0  0  0  0  0  0  0  0  0  0  0
    4.1760    0.3757    0.0000 H   0  0  0  0  0  0  0  0  0  0  0  0
    3.3291    0.1488    0.0000 H   0  0  0  0  0  0  0  0  0  0  0  0
    3.5560   -0.6982    0.0000 H   0  0  0  0  0  0  0  0  0  0  0  0
    5.5981    0.4588    0.0000 H   0  0  0  0  0  0  0  0  0  0  0  0
    6.4641   -1.2812    0.0000 H   0  0  0  0  0  0  0  0  0  0  0  0
   13.1463    0.8388    0.0000 H   0  0  0  0  0  0  0  0  0  0  0  0
   12.5263    1.4588    0.0000 H   0  0  0  0  0  0  0  0  0  0  0  0
   11.9063    0.8388    0.0000 H   0  0  0  0  0  0  0  0  0  0  0  0
   11.6603   -1.2812    0.0000 H   0  0  0  0  0  0  0  0  0  0  0  0
    7.3301    0.4588    0.0000 H   0  0  0  0  0  0  0  0  0  0  0  0
   10.7942    0.4588    0.0000 H   0  0  0  0  0  0  0  0  0  0  0  0
    9.9282   -1.2812    0.0000 H   0  0  0  0  0  0  0  0  0  0  0  0
    9.0622    0.4588    0.0000 H   0  0  0  0  0  0  0  0  0  0  0  0
    7.5762   -1.6612    0.0000 H   0  0  0  0  0  0  0  0  0  0  0  0
    8.1962   -2.2812    0.0000 H   0  0  0  0  0  0  0  0  0  0  0  0
    8.8162   -1.6612    0.0000 H   0  0  0  0  0  0  0  0  0  0  0  0
  1  7  1  0  0  0  0
  1 57  1  0  0  0  0
  2 11  2  0  0  0  0
  3  4  1  0  0  0  0
  3  5  1  0  0  0  0
  3  8  1  0  0  0  0
  3  9  1  0  0  0  0
  4  6  1  0  0  0  0
  4 10  1  0  0  0  0
  4 11  1  0  0  0  0
  5  7  1  0  0  0  0
  5 43  1  0  0  0  0
  5 44  1  0  0  0  0
  6  7  1  0  0  0  0
  6 45  1  0  0  0  0
  6 46  1  0  0  0  0
  7 47  1  0  0  0  0
  8 49  1  0  0  0  0
  8 50  1  0  0  0  0
  8 51  1  0  0  0  0
  9 48  1  0  0  0  0
  9 52  1  0  0  0  0
  9 53  1  0  0  0  0
 10 54  1  0  0  0  0
 10 55  1  0  0  0  0
 10 56  1  0  0  0  0
 11 12  1  0  0  0  0
 12 13  2  0  0  0  0
 12 58  1  0  0  0  0
 13 15  1  0  0  0  0
 13 59  1  0  0  0  0
 14 16  1  0  0  0  0
 14 18  1  0  0  0  0
 14 21  1  0  0  0  0
 14 22  1  0  0  0  0
 15 23  1  0  0  0  0
 15 24  2  0  0  0  0
 16 17  1  0  0  0  0
 16 60  1  0  0  0  0
 16 61  1  0  0  0  0
 17 19  1  0  0  0  0
 17 62  1  0  0  0  0
 17 63  1  0  0  0  0
 18 20  2  0  0  0  0
 18 25  1  0  0  0  0
 19 20  1  0  0  0  0
 19 64  1  0  0  0  0
 19 65  1  0  0  0  0
 20 26  1  0  0  0  0
 21 66  1  0  0  0  0
 21 70  1  0  0  0  0
 21 71  1  0  0  0  0
 22 67  1  0  0  0  0
 22 68  1  0  0  0  0
 22 69  1  0  0  0  0
 23 72  1  0  0  0  0
 23 73  1  0  0  0  0
 23 74  1  0  0  0  0
 24 28  1  0  0  0  0
 24 75  1  0  0  0  0
 25 27  2  0  0  0  0
 25 76  1  0  0  0  0
 26 77  1  0  0  0  0
 26 78  1  0  0  0  0
 26 79  1  0  0  0  0
 27 29  1  0  0  0  0
 27 80  1  0  0  0  0
 28 30  2  0  0  0  0
 28 81  1  0  0  0  0
 29 31  1  0  0  0  0
 29 32  2  0  0  0  0
 30 33  1  0  0  0  0
 30 82  1  0  0  0  0
 31 83  1  0  0  0  0
 31 84  1  0  0  0  0
 31 85  1  0  0  0  0
 32 34  1  0  0  0  0
 32 86  1  0  0  0  0
 33 35  1  0  0  0  0
 33 36  2  0  0  0  0
 34 37  2  0  0  0  0
 34 87  1  0  0  0  0
 35 88  1  0  0  0  0
 35 89  1  0  0  0  0
 35 90  1  0  0  0  0
 36 38  1  0  0  0  0
 36 91  1  0  0  0  0
 37 39  1  0  0  0  0
 37 92  1  0  0  0  0
 38 40  2  0  0  0  0
 38 93  1  0  0  0  0
 39 41  2  0  0  0  0
 39 42  1  0  0  0  0
 40 41  1  0  0  0  0
 40 94  1  0  0  0  0
 41 95  1  0  0  0  0
 42 96  1  0  0  0  0
 42 97  1  0  0  0  0
 42 98  1  0  0  0  0
M  END
>  <PUBCHEM_COMPOUND_CID>
131752094

>  <PUBCHEM_COMPOUND_CANONICALIZED>
1

>  <PUBCHEM_CACTVS_COMPLEXITY>
1280

>  <PUBCHEM_CACTVS_HBOND_ACCEPTOR>
2

>  <PUBCHEM_CACTVS_HBOND_DONOR>
1

>  <PUBCHEM_CACTVS_ROTATABLE_BOND>
11

>  <PUBCHEM_CACTVS_SUBSKEYS>
AAADcfB8MAAAAAAAAAAAAAAAAAAAAYAAAAAgAAAAAAAAAAAAAAAAGgAACAAADhSggAICAAAAAgCIAqBSAAAAAAAgAAAICAEAAEgIEBIAAQAAQAAEgAAIgYOKzMDPgAAAAAAAAAAAAAAAAAAAAIAACAAAAA==

>  <PUBCHEM_IUPAC_OPENEYE_NAME>
(2E,4Z,6E,8E,10E,12E,14E,16Z,18E)-1-(4-hydroxy-1,2,2-trimethyl-cyclopentyl)-4,8,13,17-tetramethyl-19-(2,6,6-trimethylcyclohexen-1-yl)nonadeca-2,4,6,8,10,12,14,16,18-nonaen-1-one

>  <PUBCHEM_IUPAC_CAS_NAME>
(2E,4Z,6E,8E,10E,12E,14E,16Z,18E)-1-(4-hydroxy-1,2,2-trimethylcyclopentyl)-4,8,13,17-tetramethyl-19-(2,6,6-trimethyl-1-cyclohexenyl)-1-nonadeca-2,4,6,8,10,12,14,16,18-nonaenone

>  <PUBCHEM_IUPAC_NAME>
(2E,4Z,6E,8E,10E,12E,14E,16Z,18E)-1-(4-hydroxy-1,2,2-trimethylcyclopentyl)-4,8,13,17-tetramethyl-19-(2,6,6-trimethylcyclohexen-1-yl)nonadeca-2,4,6,8,10,12,14,16,18-nonaen-1-one

>  <PUBCHEM_IUPAC_SYSTEMATIC_NAME>
(2E,4Z,6E,8E,10E,12E,14E,16Z,18E)-4,8,13,17-tetramethyl-19-(2,6,6-trimethylcyclohexen-1-yl)-1-(1,2,2-trimethyl-4-oxidanyl-cyclopentyl)nonadeca-2,4,6,8,10,12,14,16,18-nonaen-1-one

>  <PUBCHEM_IUPAC_TRADITIONAL_NAME>
(2E,4Z,6E,8E,10E,12E,14E,16Z,18E)-1-(4-hydroxy-1,2,2-trimethyl-cyclopentyl)-4,8,13,17-tetramethyl-19-(2,6,6-trimethylcyclohexen-1-yl)nonadeca-2,4,6,8,10,12,14,16,18-nonaen-1-one

>  <PUBCHEM_IUPAC_INCHI>
InChI=1S/C40H56O2/c1-30(18-13-20-32(3)23-25-36-34(5)22-15-27-38(36,6)7)16-11-12-17-31(2)19-14-21-33(4)24-26-37(42)40(10)29-35(41)28-39(40,8)9/h11-14,16-21,23-26,35,41H,15,22,27-29H2,1-10H3/b12-11+,18-13+,19-14+,25-23+,26-24+,30-16+,31-17+,32-20-,33-21-

>  <PUBCHEM_IUPAC_INCHIKEY>
ITZNDVRDABSNRE-JLPYQHGFSA-N

>  <PUBCHEM_EXACT_MASS>
568.428

>  <PUBCHEM_MOLECULAR_FORMULA>
C40H56O2

>  <PUBCHEM_MOLECULAR_WEIGHT>
568.886

>  <PUBCHEM_OPENEYE_CAN_SMILES>
CC1=C(C(CCC1)(C)C)C=CC(=CC=CC(=CC=CC=C(C)C=CC=C(C)C=CC(=O)C2(CC(CC2(C)C)O)C)C)C

>  <PUBCHEM_OPENEYE_ISO_SMILES>
CC1=C(C(CCC1)(C)C)/C=C/C(=C\C=C\C(=C\C=C\C=C(/C)\C=C\C=C(\C)/C=C/C(=O)C2(CC(CC2(C)C)O)C)\C)/C

>  <PUBCHEM_CACTVS_TPSA>
37.3

>  <PUBCHEM_MONOISOTOPIC_WEIGHT>
568.428

>  <PUBCHEM_TOTAL_CHARGE>
0

>  <PUBCHEM_HEAVY_ATOM_COUNT>
42

>  <PUBCHEM_ATOM_DEF_STEREO_COUNT>
0

>  <PUBCHEM_ATOM_UDEF_STEREO_COUNT>
2

>  <PUBCHEM_BOND_DEF_STEREO_COUNT>
9

>  <PUBCHEM_BOND_UDEF_STEREO_COUNT>
0

>  <PUBCHEM_ISOTOPIC_ATOM_COUNT>
0

>  <PUBCHEM_COMPONENT_COUNT>
1

>  <PUBCHEM_CACTVS_TAUTO_COUNT>
1001

>  <PUBCHEM_COORDINATE_TYPE>
1
5
255

>  <PUBCHEM_BONDANNOTATIONS>
7  1  3
4  10  3

$$$$
