131751421
 OpenBabel06101807152D

 50 54  0  0  1  0  0  0  0  0999 V2000
    5.5162    1.0057    0.0000 O   0  0  0  0  0  0  0  0  0  0  0  0
    6.0117   -2.4003    0.0000 O   0  0  0  0  0  0  0  0  0  0  0  0
    2.9461   -2.5434    0.0000 O   0  0  0  0  0  0  0  0  0  0  0  0
    8.4608   -0.0949    0.0000 O   0  0  0  0  0  0  0  0  0  0  0  0
    7.9380    1.5623    0.0000 O   0  0  0  0  0  0  0  0  0  0  0  0
    4.4394    2.2341    0.0000 O   0  0  0  0  0  0  0  0  0  0  0  0
    6.1653    2.0886    0.0000 O   0  0  0  0  0  0  0  0  0  0  0  0
    4.4481    0.1174    0.0000 C   0  0  3  0  0  0  0  0  0  0  0  0
    5.6621   -0.7282    0.0000 C   0  0  3  0  0  0  0  0  0  0  0  0
    4.7500   -0.7498    0.0000 C   0  0  3  0  0  0  0  0  0  0  0  0
    5.9251    0.1458    0.0000 C   0  0  3  0  0  0  0  0  0  0  0  0
    5.1763    0.6666    0.0000 C   0  0  3  0  0  0  0  0  0  0  0  0
    6.8424    0.3618    0.0000 C   0  0  3  0  0  0  0  0  0  0  0  0
    3.7521   -0.7150    0.0000 C   0  0  0  0  0  0  0  0  0  0  0  0
    3.5812    0.4221    0.0000 C   0  0  0  0  0  0  0  0  0  0  0  0
    4.2598   -1.5263    0.0000 C   0  0  0  0  0  0  0  0  0  0  0  0
    6.2999   -1.4428    0.0000 C   0  0  3  0  0  0  0  0  0  0  0  0
    2.6992   -0.9776    0.0000 C   0  0  3  0  0  0  0  0  0  0  0  0
    3.3475   -1.6276    0.0000 C   0  0  3  0  0  0  0  0  0  0  0  0
    7.4875   -0.3243    0.0000 C   0  0  3  0  0  0  0  0  0  0  0  0
    7.2160   -1.2270    0.0000 C   0  0  0  0  0  0  0  0  0  0  0  0
    2.8036   -0.0650    0.0000 C   0  0  0  0  0  0  0  0  0  0  0  0
    7.1072    1.0057    0.0000 C   0  0  0  0  0  0  0  0  0  0  0  0
    5.2603    1.6631    0.0000 C   0  0  0  0  0  0  0  0  0  0  0  0
    7.8258    0.5430    0.0000 C   0  0  0  0  0  0  0  0  0  0  0  0
    2.0000    0.5302    0.0000 C   0  0  0  0  0  0  0  0  0  0  0  0
    5.0558   -1.2892    0.0000 H   0  0  0  0  0  0  0  0  0  0  0  0
    6.0411    0.7549    0.0000 H   0  0  0  0  0  0  0  0  0  0  0  0
    4.6335    0.9663    0.0000 H   0  0  0  0  0  0  0  0  0  0  0  0
    3.7092   -1.3335    0.0000 H   0  0  0  0  0  0  0  0  0  0  0  0
    4.3272   -0.9466    0.0000 H   0  0  0  0  0  0  0  0  0  0  0  0
    3.9118    0.9466    0.0000 H   0  0  0  0  0  0  0  0  0  0  0  0
    3.1434    0.8611    0.0000 H   0  0  0  0  0  0  0  0  0  0  0  0
    4.1892   -2.1423    0.0000 H   0  0  0  0  0  0  0  0  0  0  0  0
    4.8446   -1.7322    0.0000 H   0  0  0  0  0  0  0  0  0  0  0  0
    5.6946   -1.5770    0.0000 H   0  0  0  0  0  0  0  0  0  0  0  0
    2.1137   -1.1814    0.0000 H   0  0  0  0  0  0  0  0  0  0  0  0
    3.7148   -2.1270    0.0000 H   0  0  0  0  0  0  0  0  0  0  0  0
    7.9124   -0.7758    0.0000 H   0  0  0  0  0  0  0  0  0  0  0  0
    7.2512   -1.8460    0.0000 H   0  0  0  0  0  0  0  0  0  0  0  0
    7.8318   -1.2998    0.0000 H   0  0  0  0  0  0  0  0  0  0  0  0
    7.9382   -0.0667    0.0000 H   0  0  0  0  0  0  0  0  0  0  0  0
    8.4356    0.6554    0.0000 H   0  0  0  0  0  0  0  0  0  0  0  0
    7.7135    1.1528    0.0000 H   0  0  0  0  0  0  0  0  0  0  0  0
    6.4365   -2.8519    0.0000 H   0  0  0  0  0  0  0  0  0  0  0  0
    2.0704    1.1462    0.0000 H   0  0  0  0  0  0  0  0  0  0  0  0
    1.4313    0.2832    0.0000 H   0  0  0  0  0  0  0  0  0  0  0  0
    2.3298   -2.6118    0.0000 H   0  0  0  0  0  0  0  0  0  0  0  0
    8.8858   -0.5464    0.0000 H   0  0  0  0  0  0  0  0  0  0  0  0
    4.4915    2.8519    0.0000 H   0  0  0  0  0  0  0  0  0  0  0  0
  1  9  1  0  0  0  0
  1 23  1  0  0  0  0
  2 17  1  0  0  0  0
  2 45  1  0  0  0  0
  3 19  1  0  0  0  0
  3 48  1  0  0  0  0
  4 20  1  0  0  0  0
  4 49  1  0  0  0  0
  5 23  2  0  0  0  0
  6 24  1  0  0  0  0
  6 50  1  0  0  0  0
  7 24  2  0  0  0  0
  8 10  1  0  0  0  0
  8 12  1  0  0  0  0
  8 14  1  0  0  0  0
  8 15  1  0  0  0  0
  9 10  1  0  0  0  0
  9 11  1  0  0  0  0
  9 17  1  0  0  0  0
 10 16  1  0  0  0  0
 10 27  1  0  0  0  0
 11 12  1  0  0  0  0
 11 13  1  0  0  0  0
 11 28  1  0  0  0  0
 12 24  1  0  0  0  0
 12 29  1  0  0  0  0
 13 20  1  0  0  0  0
 13 23  1  0  0  0  0
 13 25  1  0  0  0  0
 14 18  1  0  0  0  0
 14 30  1  0  0  0  0
 14 31  1  0  0  0  0
 15 22  1  0  0  0  0
 15 32  1  0  0  0  0
 15 33  1  0  0  0  0
 16 19  1  0  0  0  0
 16 34  1  0  0  0  0
 16 35  1  0  0  0  0
 17 21  1  0  0  0  0
 17 36  1  0  0  0  0
 18 19  1  0  0  0  0
 18 22  1  0  0  0  0
 18 37  1  0  0  0  0
 19 38  1  0  0  0  0
 20 21  1  0  0  0  0
 20 39  1  0  0  0  0
 21 40  1  0  0  0  0
 21 41  1  0  0  0  0
 22 26  2  0  0  0  0
 25 42  1  0  0  0  0
 25 43  1  0  0  0  0
 25 44  1  0  0  0  0
 26 46  1  0  0  0  0
 26 47  1  0  0  0  0
M  END
>  <PUBCHEM_COMPOUND_CID>
131751421

>  <PUBCHEM_COMPOUND_CANONICALIZED>
1

>  <PUBCHEM_CACTVS_COMPLEXITY>
748

>  <PUBCHEM_CACTVS_HBOND_ACCEPTOR>
7

>  <PUBCHEM_CACTVS_HBOND_DONOR>
4

>  <PUBCHEM_CACTVS_ROTATABLE_BOND>
1

>  <PUBCHEM_CACTVS_SUBSKEYS>
AAADceB4OAAAAAAAAAAAAAAAAAAAAaMEAAAwYAAABogSAGDAAAAAGgAACAAAD1SggAICCAAABgCIAgDSCAAAAAAgAAAAAAEAAAgBEBYAAQACQAAF4AADAAHK7vzPgAAAAAAAAADCAAYQADCAAYAADAAAAA==

>  <PUBCHEM_IUPAC_INCHI>
InChI=1S/C19H24O7/c1-7-5-18-6-8(7)9(20)3-10(18)19-12(22)4-11(21)17(2,16(25)26-19)14(19)13(18)15(23)24/h8-14,20-22H,1,3-6H2,2H3,(H,23,24)

>  <PUBCHEM_IUPAC_INCHIKEY>
QNHFLCWFHADENI-UHFFFAOYSA-N

>  <PUBCHEM_EXACT_MASS>
364.152

>  <PUBCHEM_MOLECULAR_FORMULA>
C19H24O7

>  <PUBCHEM_MOLECULAR_WEIGHT>
364.394

>  <PUBCHEM_OPENEYE_CAN_SMILES>
CC12C(CC(C3(C1C(C45C3CC(C(C4)C(=C)C5)O)C(=O)O)OC2=O)O)O

>  <PUBCHEM_OPENEYE_ISO_SMILES>
CC12C(CC(C3(C1C(C45C3CC(C(C4)C(=C)C5)O)C(=O)O)OC2=O)O)O

>  <PUBCHEM_CACTVS_TPSA>
124

>  <PUBCHEM_MONOISOTOPIC_WEIGHT>
364.152

>  <PUBCHEM_TOTAL_CHARGE>
0

>  <PUBCHEM_HEAVY_ATOM_COUNT>
26

>  <PUBCHEM_ATOM_DEF_STEREO_COUNT>
0

>  <PUBCHEM_ATOM_UDEF_STEREO_COUNT>
10

>  <PUBCHEM_BOND_DEF_STEREO_COUNT>
0

>  <PUBCHEM_BOND_UDEF_STEREO_COUNT>
0

>  <PUBCHEM_ISOTOPIC_ATOM_COUNT>
0

>  <PUBCHEM_COMPONENT_COUNT>
1

>  <PUBCHEM_CACTVS_TAUTO_COUNT>
1

>  <PUBCHEM_COORDINATE_TYPE>
1
5
255

>  <PUBCHEM_BONDANNOTATIONS>
9  1  3
10  16  3
11  12  3
12  24  3
13  25  3
18  14  3
17  2  3
19  3  3
20  4  3
8  14  3

$$$$
