131752205
 OpenBabel06101807152D

 99101  0  0  1  0  0  0  0  0999 V2000
    6.0812   -5.6877    0.0000 O   0  0  0  0  0  0  0  0  0  0  0  0
    2.5369   -5.8830    0.0000 O   0  0  0  0  0  0  0  0  0  0  0  0
   17.9702    5.9844    0.0000 O   0  0  0  0  0  0  0  0  0  0  0  0
    5.1350   -5.3830    0.0000 C   0  0  3  0  0  0  0  0  0  0  0  0
    4.2690   -3.8830    0.0000 C   0  0  0  0  0  0  0  0  0  0  0  0
    5.1350   -4.3830    0.0000 C   0  0  0  0  0  0  0  0  0  0  0  0
    4.2690   -5.8830    0.0000 C   0  0  0  0  0  0  0  0  0  0  0  0
    3.4030   -4.3830    0.0000 C   0  0  0  0  0  0  0  0  0  0  0  0
    3.4030   -5.3830    0.0000 C   0  0  3  0  0  0  0  0  0  0  0  0
    6.0812   -4.0782    0.0000 C   0  0  0  0  0  0  0  0  0  0  0  0
    6.6648   -4.8830    0.0000 C   0  0  3  0  0  0  0  0  0  0  0  0
    5.1350   -6.3830    0.0000 C   0  0  0  0  0  0  0  0  0  0  0  0
    3.7690   -3.0170    0.0000 C   0  0  0  0  0  0  0  0  0  0  0  0
    4.7690   -3.0170    0.0000 C   0  0  0  0  0  0  0  0  0  0  0  0
    7.6648   -4.8830    0.0000 C   0  0  0  0  0  0  0  0  0  0  0  0
    8.1648   -5.7490    0.0000 C   0  0  0  0  0  0  0  0  0  0  0  0
    8.1648   -4.0170    0.0000 C   0  0  0  0  0  0  0  0  0  0  0  0
   17.5515    3.3720    0.0000 C   0  0  0  0  0  0  0  0  0  0  0  0
   17.3779    4.3569    0.0000 C   0  0  0  0  0  0  0  0  0  0  0  0
   18.1439    4.9996    0.0000 C   0  0  3  0  0  0  0  0  0  0  0  0
   18.4912    3.0300    0.0000 C   0  0  0  0  0  0  0  0  0  0  0  0
   19.0836    4.6576    0.0000 C   0  0  0  0  0  0  0  0  0  0  0  0
   19.2572    3.6728    0.0000 C   0  0  0  0  0  0  0  0  0  0  0  0
   16.5667    3.1984    0.0000 C   0  0  0  0  0  0  0  0  0  0  0  0
   17.2095    2.4324    0.0000 C   0  0  0  0  0  0  0  0  0  0  0  0
    9.1648   -4.0170    0.0000 C   0  0  0  0  0  0  0  0  0  0  0  0
   18.6648    2.0452    0.0000 C   0  0  0  0  0  0  0  0  0  0  0  0
   20.1969    3.3308    0.0000 C   0  0  0  0  0  0  0  0  0  0  0  0
    9.6648   -3.1509    0.0000 C   0  0  0  0  0  0  0  0  0  0  0  0
   18.1648    1.1792    0.0000 C   0  0  0  0  0  0  0  0  0  0  0  0
   10.6648   -3.1509    0.0000 C   0  0  0  0  0  0  0  0  0  0  0  0
   17.1648    1.1792    0.0000 C   0  0  0  0  0  0  0  0  0  0  0  0
   11.1648   -4.0170    0.0000 C   0  0  0  0  0  0  0  0  0  0  0  0
   11.1648   -2.2849    0.0000 C   0  0  0  0  0  0  0  0  0  0  0  0
   16.3988    1.8220    0.0000 C   0  0  0  0  0  0  0  0  0  0  0  0
   16.6648    0.3132    0.0000 C   0  0  0  0  0  0  0  0  0  0  0  0
   12.1648   -2.2849    0.0000 C   0  0  0  0  0  0  0  0  0  0  0  0
   15.6648    0.3132    0.0000 C   0  0  0  0  0  0  0  0  0  0  0  0
   12.6648   -1.4189    0.0000 C   0  0  0  0  0  0  0  0  0  0  0  0
   15.1648   -0.5529    0.0000 C   0  0  0  0  0  0  0  0  0  0  0  0
   14.1648   -0.5529    0.0000 C   0  0  0  0  0  0  0  0  0  0  0  0
   13.6648   -1.4189    0.0000 C   0  0  0  0  0  0  0  0  0  0  0  0
   13.6648    0.3132    0.0000 C   0  0  0  0  0  0  0  0  0  0  0  0
    3.8705   -6.3579    0.0000 H   0  0  0  0  0  0  0  0  0  0  0  0
    4.6675   -6.3579    0.0000 H   0  0  0  0  0  0  0  0  0  0  0  0
    3.1909   -3.8004    0.0000 H   0  0  0  0  0  0  0  0  0  0  0  0
    2.7924   -4.4906    0.0000 H   0  0  0  0  0  0  0  0  0  0  0  0
    3.4030   -6.0030    0.0000 H   0  0  0  0  0  0  0  0  0  0  0  0
    6.2738   -3.4889    0.0000 H   0  0  0  0  0  0  0  0  0  0  0  0
    6.9466   -5.4353    0.0000 H   0  0  0  0  0  0  0  0  0  0  0  0
    4.5150   -6.3830    0.0000 H   0  0  0  0  0  0  0  0  0  0  0  0
    5.1350   -7.0030    0.0000 H   0  0  0  0  0  0  0  0  0  0  0  0
    5.7550   -6.3830    0.0000 H   0  0  0  0  0  0  0  0  0  0  0  0
    4.3059   -2.7070    0.0000 H   0  0  0  0  0  0  0  0  0  0  0  0
    5.3059   -3.3270    0.0000 H   0  0  0  0  0  0  0  0  0  0  0  0
    5.0790   -2.4800    0.0000 H   0  0  0  0  0  0  0  0  0  0  0  0
    4.2320   -2.7070    0.0000 H   0  0  0  0  0  0  0  0  0  0  0  0
    3.4590   -2.4800    0.0000 H   0  0  0  0  0  0  0  0  0  0  0  0
    3.2320   -3.3270    0.0000 H   0  0  0  0  0  0  0  0  0  0  0  0
    2.0000   -5.5730    0.0000 H   0  0  0  0  0  0  0  0  0  0  0  0
    7.6279   -6.0590    0.0000 H   0  0  0  0  0  0  0  0  0  0  0  0
    8.4748   -6.2859    0.0000 H   0  0  0  0  0  0  0  0  0  0  0  0
    8.7018   -5.4390    0.0000 H   0  0  0  0  0  0  0  0  0  0  0  0
    7.8548   -3.4800    0.0000 H   0  0  0  0  0  0  0  0  0  0  0  0
   17.0679    4.8938    0.0000 H   0  0  0  0  0  0  0  0  0  0  0  0
   16.7952    4.1448    0.0000 H   0  0  0  0  0  0  0  0  0  0  0  0
   18.6188    5.3982    0.0000 H   0  0  0  0  0  0  0  0  0  0  0  0
   19.7036    4.6576    0.0000 H   0  0  0  0  0  0  0  0  0  0  0  0
   19.1913    5.2682    0.0000 H   0  0  0  0  0  0  0  0  0  0  0  0
   16.4590    3.8090    0.0000 H   0  0  0  0  0  0  0  0  0  0  0  0
   15.9561    3.0907    0.0000 H   0  0  0  0  0  0  0  0  0  0  0  0
   16.6744    2.5878    0.0000 H   0  0  0  0  0  0  0  0  0  0  0  0
   16.6269    2.6445    0.0000 H   0  0  0  0  0  0  0  0  0  0  0  0
   16.9974    1.8498    0.0000 H   0  0  0  0  0  0  0  0  0  0  0  0
   17.7921    2.2204    0.0000 H   0  0  0  0  0  0  0  0  0  0  0  0
    9.4748   -4.5539    0.0000 H   0  0  0  0  0  0  0  0  0  0  0  0
   19.2848    2.0452    0.0000 H   0  0  0  0  0  0  0  0  0  0  0  0
   19.9849    2.7482    0.0000 H   0  0  0  0  0  0  0  0  0  0  0  0
   20.7795    3.1187    0.0000 H   0  0  0  0  0  0  0  0  0  0  0  0
   20.4090    3.9134    0.0000 H   0  0  0  0  0  0  0  0  0  0  0  0
   18.4452    6.3830    0.0000 H   0  0  0  0  0  0  0  0  0  0  0  0
    9.3548   -2.6140    0.0000 H   0  0  0  0  0  0  0  0  0  0  0  0
   18.4748    0.6423    0.0000 H   0  0  0  0  0  0  0  0  0  0  0  0
   10.6279   -4.3270    0.0000 H   0  0  0  0  0  0  0  0  0  0  0  0
   11.4748   -4.5539    0.0000 H   0  0  0  0  0  0  0  0  0  0  0  0
   11.7018   -3.7070    0.0000 H   0  0  0  0  0  0  0  0  0  0  0  0
   10.8548   -1.7480    0.0000 H   0  0  0  0  0  0  0  0  0  0  0  0
   16.7973    2.2969    0.0000 H   0  0  0  0  0  0  0  0  0  0  0  0
   15.9238    2.2205    0.0000 H   0  0  0  0  0  0  0  0  0  0  0  0
   16.0003    1.3470    0.0000 H   0  0  0  0  0  0  0  0  0  0  0  0
   16.9748   -0.2238    0.0000 H   0  0  0  0  0  0  0  0  0  0  0  0
   12.4748   -2.8218    0.0000 H   0  0  0  0  0  0  0  0  0  0  0  0
   15.3548    0.8501    0.0000 H   0  0  0  0  0  0  0  0  0  0  0  0
   15.4748   -1.0898    0.0000 H   0  0  0  0  0  0  0  0  0  0  0  0
   12.3548   -0.8819    0.0000 H   0  0  0  0  0  0  0  0  0  0  0  0
   13.9748   -1.9558    0.0000 H   0  0  0  0  0  0  0  0  0  0  0  0
   14.2018    0.6232    0.0000 H   0  0  0  0  0  0  0  0  0  0  0  0
   13.3548    0.8501    0.0000 H   0  0  0  0  0  0  0  0  0  0  0  0
   13.1279    0.0032    0.0000 H   0  0  0  0  0  0  0  0  0  0  0  0
  1  4  1  0  0  0  0
  1 11  1  0  0  0  0
  2  9  1  0  0  0  0
  2 60  1  0  0  0  0
  3 20  1  0  0  0  0
  3 81  1  0  0  0  0
  4  6  1  0  0  0  0
  4  7  1  0  0  0  0
  4 12  1  0  0  0  0
  5  6  1  0  0  0  0
  5  8  1  0  0  0  0
  5 13  1  0  0  0  0
  5 14  1  0  0  0  0
  6 10  2  0  0  0  0
  7  9  1  0  0  0  0
  7 44  1  0  0  0  0
  7 45  1  0  0  0  0
  8  9  1  0  0  0  0
  8 46  1  0  0  0  0
  8 47  1  0  0  0  0
  9 48  1  0  0  0  0
 10 11  1  0  0  0  0
 10 49  1  0  0  0  0
 11 15  1  0  0  0  0
 11 50  1  0  0  0  0
 12 51  1  0  0  0  0
 12 52  1  0  0  0  0
 12 53  1  0  0  0  0
 13 54  1  0  0  0  0
 13 58  1  0  0  0  0
 13 59  1  0  0  0  0
 14 55  1  0  0  0  0
 14 56  1  0  0  0  0
 14 57  1  0  0  0  0
 15 16  1  0  0  0  0
 15 17  2  0  0  0  0
 16 61  1  0  0  0  0
 16 62  1  0  0  0  0
 16 63  1  0  0  0  0
 17 26  1  0  0  0  0
 17 64  1  0  0  0  0
 18 19  1  0  0  0  0
 18 21  1  0  0  0  0
 18 24  1  0  0  0  0
 18 25  1  0  0  0  0
 19 20  1  0  0  0  0
 19 65  1  0  0  0  0
 19 66  1  0  0  0  0
 20 22  1  0  0  0  0
 20 67  1  0  0  0  0
 21 23  2  0  0  0  0
 21 27  1  0  0  0  0
 22 23  1  0  0  0  0
 22 68  1  0  0  0  0
 22 69  1  0  0  0  0
 23 28  1  0  0  0  0
 24 70  1  0  0  0  0
 24 71  1  0  0  0  0
 24 72  1  0  0  0  0
 25 73  1  0  0  0  0
 25 74  1  0  0  0  0
 25 75  1  0  0  0  0
 26 29  2  0  0  0  0
 26 76  1  0  0  0  0
 27 30  2  0  0  0  0
 27 77  1  0  0  0  0
 28 78  1  0  0  0  0
 28 79  1  0  0  0  0
 28 80  1  0  0  0  0
 29 31  1  0  0  0  0
 29 82  1  0  0  0  0
 30 32  1  0  0  0  0
 30 83  1  0  0  0  0
 31 33  1  0  0  0  0
 31 34  2  0  0  0  0
 32 35  1  0  0  0  0
 32 36  2  0  0  0  0
 33 84  1  0  0  0  0
 33 85  1  0  0  0  0
 33 86  1  0  0  0  0
 34 37  1  0  0  0  0
 34 87  1  0  0  0  0
 35 88  1  0  0  0  0
 35 89  1  0  0  0  0
 35 90  1  0  0  0  0
 36 38  1  0  0  0  0
 36 91  1  0  0  0  0
 37 39  2  0  0  0  0
 37 92  1  0  0  0  0
 38 40  2  0  0  0  0
 38 93  1  0  0  0  0
 39 42  1  0  0  0  0
 39 95  1  0  0  0  0
 40 41  1  0  0  0  0
 40 94  1  0  0  0  0
 41 42  2  0  0  0  0
 41 43  1  0  0  0  0
 42 96  1  0  0  0  0
 43 97  1  0  0  0  0
 43 98  1  0  0  0  0
 43 99  1  0  0  0  0
M  END
>  <PUBCHEM_COMPOUND_CID>
131752205

>  <PUBCHEM_COMPOUND_CANONICALIZED>
1

>  <PUBCHEM_CACTVS_COMPLEXITY>
1330

>  <PUBCHEM_CACTVS_HBOND_ACCEPTOR>
3

>  <PUBCHEM_CACTVS_HBOND_DONOR>
2

>  <PUBCHEM_CACTVS_ROTATABLE_BOND>
9

>  <PUBCHEM_CACTVS_SUBSKEYS>
AAADcfB8MAAAAAAAAAAAAAAAAAAAAQAAAAAwQAAAAAAAAEAAAAAAGgAACAAADlSggAICAAAABgCAAiBCAAAAAAAgAAAICAAAAAgIFAIAIQACUAAFwAAIoAOA4NwPAAAAAAAAAAAAAAYQAAAAAAAAAAAAAA==

>  <PUBCHEM_IUPAC_OPENEYE_NAME>
2-[(1E,3E,5E,7E,9E,11E,13E,15Z)-16-(4-hydroxy-2,6,6-trimethyl-cyclohexen-1-yl)-1,5,10,14-tetramethyl-hexadeca-1,3,5,7,9,11,13,15-octaenyl]-4,4,7a-trimethyl-2,5,6,7-tetrahydrobenzofuran-6-ol

>  <PUBCHEM_IUPAC_CAS_NAME>
2-[(2E,4E,6E,8E,10E,12E,14E,16Z)-17-(4-hydroxy-2,6,6-trimethyl-1-cyclohexenyl)-6,11,15-trimethylheptadeca-2,4,6,8,10,12,14,16-octaen-2-yl]-4,4,7a-trimethyl-2,5,6,7-tetrahydrobenzofuran-6-ol

>  <PUBCHEM_IUPAC_NAME>
2-[(2E,4E,6E,8E,10E,12E,14E,16Z)-17-(4-hydroxy-2,6,6-trimethylcyclohexen-1-yl)-6,11,15-trimethylheptadeca-2,4,6,8,10,12,14,16-octaen-2-yl]-4,4,7a-trimethyl-2,5,6,7-tetrahydro-1-benzofuran-6-ol

>  <PUBCHEM_IUPAC_SYSTEMATIC_NAME>
4,4,7a-trimethyl-2-[(2E,4E,6E,8E,10E,12E,14E,16Z)-6,11,15-trimethyl-17-(2,6,6-trimethyl-4-oxidanyl-cyclohexen-1-yl)heptadeca-2,4,6,8,10,12,14,16-octaen-2-yl]-2,5,6,7-tetrahydro-1-benzofuran-6-ol

>  <PUBCHEM_IUPAC_TRADITIONAL_NAME>
2-[(1E,3E,5E,7E,9E,11E,13E,15Z)-16-(4-hydroxy-2,6,6-trimethyl-cyclohexen-1-yl)-1,5,10,14-tetramethyl-hexadeca-1,3,5,7,9,11,13,15-octaenyl]-4,4,7a-trimethyl-2,5,6,7-tetrahydrobenzofuran-6-ol

>  <PUBCHEM_IUPAC_INCHI>
InChI=1S/C40H56O3/c1-28(17-13-18-30(3)21-22-35-32(5)23-33(41)25-38(35,6)7)15-11-12-16-29(2)19-14-20-31(4)36-24-37-39(8,9)26-34(42)27-40(37,10)43-36/h11-22,24,33-34,36,41-42H,23,25-27H2,1-10H3/b12-11+,17-13+,19-14+,22-21-,28-15+,29-16+,30-18+,31-20+

>  <PUBCHEM_IUPAC_INCHIKEY>
IFYMEZNJCAQUME-MTCCZOJNSA-N

>  <PUBCHEM_EXACT_MASS>
584.423

>  <PUBCHEM_MOLECULAR_FORMULA>
C40H56O3

>  <PUBCHEM_MOLECULAR_WEIGHT>
584.885

>  <PUBCHEM_OPENEYE_CAN_SMILES>
CC1=C(C(CC(C1)O)(C)C)C=CC(=CC=CC(=CC=CC=C(C)C=CC=C(C)C2C=C3C(CC(CC3(O2)C)O)(C)C)C)C

>  <PUBCHEM_OPENEYE_ISO_SMILES>
CC1=C(C(CC(C1)O)(C)C)/C=C\C(=C\C=C\C(=C\C=C\C=C(/C)\C=C\C=C(/C)\C2C=C3C(CC(CC3(O2)C)O)(C)C)\C)\C

>  <PUBCHEM_CACTVS_TPSA>
49.7

>  <PUBCHEM_MONOISOTOPIC_WEIGHT>
584.423

>  <PUBCHEM_TOTAL_CHARGE>
0

>  <PUBCHEM_HEAVY_ATOM_COUNT>
43

>  <PUBCHEM_ATOM_DEF_STEREO_COUNT>
0

>  <PUBCHEM_ATOM_UDEF_STEREO_COUNT>
4

>  <PUBCHEM_BOND_DEF_STEREO_COUNT>
8

>  <PUBCHEM_BOND_UDEF_STEREO_COUNT>
0

>  <PUBCHEM_ISOTOPIC_ATOM_COUNT>
0

>  <PUBCHEM_COMPONENT_COUNT>
1

>  <PUBCHEM_CACTVS_TAUTO_COUNT>
365

>  <PUBCHEM_COORDINATE_TYPE>
1
5
255

>  <PUBCHEM_BONDANNOTATIONS>
11  15  3
9  2  3
20  3  3
4  12  3

$$$$
