131753105
 OpenBabel06101807152D

 57 58  0  0  1  0  0  0  0  0999 V2000
    5.1350    0.3100    0.0000 O   0  0  0  0  0  0  0  0  0  0  0  0
    5.1350    2.3100    0.0000 O   0  0  0  0  0  0  0  0  0  0  0  0
    9.4651    1.8100    0.0000 O   0  0  0  0  0  0  0  0  0  0  0  0
    3.4030   -0.6900    0.0000 O   0  0  0  0  0  0  0  0  0  0  0  0
    6.8671   -0.6900    0.0000 O   0  0  0  0  0  0  0  0  0  0  0  0
    9.4651    3.8100    0.0000 O   0  0  0  0  0  0  0  0  0  0  0  0
    2.5369   -4.1900    0.0000 O   0  0  0  0  0  0  0  0  0  0  0  0
    6.0010    0.8100    0.0000 C   0  0  3  0  0  0  0  0  0  0  0  0
    6.0010    1.8100    0.0000 C   0  0  3  0  0  0  0  0  0  0  0  0
    6.8671    2.3100    0.0000 C   0  0  0  0  0  0  0  0  0  0  0  0
    6.8671    0.3100    0.0000 C   0  0  0  0  0  0  0  0  0  0  0  0
    7.7331    1.8100    0.0000 C   0  0  0  0  0  0  0  0  0  0  0  0
    5.1350   -0.6900    0.0000 C   0  0  0  0  0  0  0  0  0  0  0  0
    6.8671    3.3100    0.0000 C   0  0  0  0  0  0  0  0  0  0  0  0
    8.5991    2.3100    0.0000 C   0  0  0  0  0  0  0  0  0  0  0  0
    4.2690   -1.1900    0.0000 C   0  0  0  0  0  0  0  0  0  0  0  0
    6.0010   -1.1900    0.0000 C   0  0  0  0  0  0  0  0  0  0  0  0
    7.7331    3.8100    0.0000 C   0  0  0  0  0  0  0  0  0  0  0  0
    8.5991    3.3100    0.0000 C   0  0  0  0  0  0  0  0  0  0  0  0
    5.1350   -2.6900    0.0000 C   0  0  0  0  0  0  0  0  0  0  0  0
    4.2690   -2.1900    0.0000 C   0  0  0  0  0  0  0  0  0  0  0  0
    6.0010   -2.1900    0.0000 C   0  0  0  0  0  0  0  0  0  0  0  0
    5.1350   -3.6900    0.0000 C   0  0  0  0  0  0  0  0  0  0  0  0
   10.3312    2.3100    0.0000 C   0  0  0  0  0  0  0  0  0  0  0  0
    4.2690   -4.1900    0.0000 C   0  0  0  0  0  0  0  0  0  0  0  0
    2.5369   -1.1900    0.0000 C   0  0  0  0  0  0  0  0  0  0  0  0
    7.7331   -1.1900    0.0000 C   0  0  0  0  0  0  0  0  0  0  0  0
    9.4651    4.8100    0.0000 C   0  0  0  0  0  0  0  0  0  0  0  0
    3.4030   -3.6900    0.0000 C   0  0  0  0  0  0  0  0  0  0  0  0
    5.4641    1.1200    0.0000 H   0  0  0  0  0  0  0  0  0  0  0  0
    6.0010    2.4300    0.0000 H   0  0  0  0  0  0  0  0  0  0  0  0
    6.5571   -0.2269    0.0000 H   0  0  0  0  0  0  0  0  0  0  0  0
    7.4040   -0.0000    0.0000 H   0  0  0  0  0  0  0  0  0  0  0  0
    7.1771    0.8469    0.0000 H   0  0  0  0  0  0  0  0  0  0  0  0
    7.7331    1.1900    0.0000 H   0  0  0  0  0  0  0  0  0  0  0  0
    6.3301    3.6200    0.0000 H   0  0  0  0  0  0  0  0  0  0  0  0
    5.1350    2.9300    0.0000 H   0  0  0  0  0  0  0  0  0  0  0  0
    7.7331    4.4300    0.0000 H   0  0  0  0  0  0  0  0  0  0  0  0
    3.7320   -2.5000    0.0000 H   0  0  0  0  0  0  0  0  0  0  0  0
    6.5380   -2.5000    0.0000 H   0  0  0  0  0  0  0  0  0  0  0  0
    5.6720   -4.0000    0.0000 H   0  0  0  0  0  0  0  0  0  0  0  0
   10.6412    1.7731    0.0000 H   0  0  0  0  0  0  0  0  0  0  0  0
   10.8681    2.6200    0.0000 H   0  0  0  0  0  0  0  0  0  0  0  0
   10.0212    2.8469    0.0000 H   0  0  0  0  0  0  0  0  0  0  0  0
    4.2690   -4.8100    0.0000 H   0  0  0  0  0  0  0  0  0  0  0  0
    2.2269   -0.6531    0.0000 H   0  0  0  0  0  0  0  0  0  0  0  0
    2.0000   -1.5000    0.0000 H   0  0  0  0  0  0  0  0  0  0  0  0
    2.8469   -1.7269    0.0000 H   0  0  0  0  0  0  0  0  0  0  0  0
    7.4231   -1.7269    0.0000 H   0  0  0  0  0  0  0  0  0  0  0  0
    8.2700   -1.5000    0.0000 H   0  0  0  0  0  0  0  0  0  0  0  0
    8.0431   -0.6531    0.0000 H   0  0  0  0  0  0  0  0  0  0  0  0
   10.0851    4.8100    0.0000 H   0  0  0  0  0  0  0  0  0  0  0  0
    9.4651    5.4300    0.0000 H   0  0  0  0  0  0  0  0  0  0  0  0
    8.8451    4.8100    0.0000 H   0  0  0  0  0  0  0  0  0  0  0  0
    3.8015   -3.2151    0.0000 H   0  0  0  0  0  0  0  0  0  0  0  0
    3.0044   -3.2151    0.0000 H   0  0  0  0  0  0  0  0  0  0  0  0
    2.0000   -3.8800    0.0000 H   0  0  0  0  0  0  0  0  0  0  0  0
  1  8  1  0  0  0  0
  1 13  1  0  0  0  0
  2  9  1  0  0  0  0
  2 37  1  0  0  0  0
  3 15  1  0  0  0  0
  3 24  1  0  0  0  0
  4 16  1  0  0  0  0
  4 26  1  0  0  0  0
  5 17  1  0  0  0  0
  5 27  1  0  0  0  0
  6 19  1  0  0  0  0
  6 28  1  0  0  0  0
  7 29  1  0  0  0  0
  7 57  1  0  0  0  0
  8  9  1  0  0  0  0
  8 11  1  0  0  0  0
  8 30  1  0  0  0  0
  9 10  1  0  0  0  0
  9 31  1  0  0  0  0
 10 12  2  0  0  0  0
 10 14  1  0  0  0  0
 11 32  1  0  0  0  0
 11 33  1  0  0  0  0
 11 34  1  0  0  0  0
 12 15  1  0  0  0  0
 12 35  1  0  0  0  0
 13 16  2  0  0  0  0
 13 17  1  0  0  0  0
 14 18  2  0  0  0  0
 14 36  1  0  0  0  0
 15 19  2  0  0  0  0
 16 21  1  0  0  0  0
 17 22  2  0  0  0  0
 18 19  1  0  0  0  0
 18 38  1  0  0  0  0
 20 21  2  0  0  0  0
 20 22  1  0  0  0  0
 20 23  1  0  0  0  0
 21 39  1  0  0  0  0
 22 40  1  0  0  0  0
 23 25  2  0  0  0  0
 23 41  1  0  0  0  0
 24 42  1  0  0  0  0
 24 43  1  0  0  0  0
 24 44  1  0  0  0  0
 25 29  1  0  0  0  0
 25 45  1  0  0  0  0
 26 46  1  0  0  0  0
 26 47  1  0  0  0  0
 26 48  1  0  0  0  0
 27 49  1  0  0  0  0
 27 50  1  0  0  0  0
 27 51  1  0  0  0  0
 28 52  1  0  0  0  0
 28 53  1  0  0  0  0
 28 54  1  0  0  0  0
 29 55  1  0  0  0  0
 29 56  1  0  0  0  0
M  END
>  <PUBCHEM_COMPOUND_CID>
131753105

>  <PUBCHEM_COMPOUND_CANONICALIZED>
1

>  <PUBCHEM_CACTVS_COMPLEXITY>
472

>  <PUBCHEM_CACTVS_HBOND_ACCEPTOR>
7

>  <PUBCHEM_CACTVS_HBOND_DONOR>
2

>  <PUBCHEM_CACTVS_ROTATABLE_BOND>
10

>  <PUBCHEM_CACTVS_SUBSKEYS>
AAADceB4OAAAAAAAAAAAAAAAAAAAAAAAAAAwYAAAAAAAAAABQAAAGgAACAAADBSgmAIyBoAABgCAAiBCAAACCAAgIAAIiAAGiIgNNyKEMRqCeCKlwBULuAfA4LwOIAABCAAAQABAAAIQAACAAAAAAAAAAA==

>  <PUBCHEM_IUPAC_OPENEYE_NAME>
1-(3,4-dimethoxyphenyl)-2-[4-[(Z)-3-hydroxyprop-1-enyl]-2,6-dimethoxy-phenoxy]propan-1-ol

>  <PUBCHEM_IUPAC_CAS_NAME>
1-(3,4-dimethoxyphenyl)-2-[4-[(Z)-3-hydroxyprop-1-enyl]-2,6-dimethoxyphenoxy]-1-propanol

>  <PUBCHEM_IUPAC_NAME>
1-(3,4-dimethoxyphenyl)-2-[4-[(Z)-3-hydroxyprop-1-enyl]-2,6-dimethoxyphenoxy]propan-1-ol

>  <PUBCHEM_IUPAC_SYSTEMATIC_NAME>
2-[2,6-dimethoxy-4-[(Z)-3-oxidanylprop-1-enyl]phenoxy]-1-(3,4-dimethoxyphenyl)propan-1-ol

>  <PUBCHEM_IUPAC_TRADITIONAL_NAME>
1-(3,4-dimethoxyphenyl)-2-[4-[(Z)-3-hydroxyprop-1-enyl]-2,6-dimethoxy-phenoxy]propan-1-ol

>  <PUBCHEM_IUPAC_INCHI>
InChI=1S/C22H28O7/c1-14(21(24)16-8-9-17(25-2)18(13-16)26-3)29-22-19(27-4)11-15(7-6-10-23)12-20(22)28-5/h6-9,11-14,21,23-24H,10H2,1-5H3/b7-6-

>  <PUBCHEM_IUPAC_INCHIKEY>
JTUBQGXAXOEMNN-SREVYHEPSA-N

>  <PUBCHEM_EXACT_MASS>
404.184

>  <PUBCHEM_MOLECULAR_FORMULA>
C22H28O7

>  <PUBCHEM_MOLECULAR_WEIGHT>
404.459

>  <PUBCHEM_OPENEYE_CAN_SMILES>
CC(C(C1=CC(=C(C=C1)OC)OC)O)OC2=C(C=C(C=C2OC)C=CCO)OC

>  <PUBCHEM_OPENEYE_ISO_SMILES>
CC(C(C1=CC(=C(C=C1)OC)OC)O)OC2=C(C=C(C=C2OC)/C=C\CO)OC

>  <PUBCHEM_CACTVS_TPSA>
86.6

>  <PUBCHEM_MONOISOTOPIC_WEIGHT>
404.184

>  <PUBCHEM_TOTAL_CHARGE>
0

>  <PUBCHEM_HEAVY_ATOM_COUNT>
29

>  <PUBCHEM_ATOM_DEF_STEREO_COUNT>
0

>  <PUBCHEM_ATOM_UDEF_STEREO_COUNT>
2

>  <PUBCHEM_BOND_DEF_STEREO_COUNT>
1

>  <PUBCHEM_BOND_UDEF_STEREO_COUNT>
0

>  <PUBCHEM_ISOTOPIC_ATOM_COUNT>
0

>  <PUBCHEM_COMPONENT_COUNT>
1

>  <PUBCHEM_CACTVS_TAUTO_COUNT>
1

>  <PUBCHEM_COORDINATE_TYPE>
1
5
255

>  <PUBCHEM_BONDANNOTATIONS>
10  12  8
10  14  8
12  15  8
13  16  8
13  17  8
14  18  8
15  19  8
16  21  8
17  22  8
18  19  8
9  2  3
20  21  8
20  22  8
8  11  3

$$$$
