131751059
 OpenBabel06101807152D

 84 88  0  0  1  0  0  0  0  0999 V2000
    6.8671   -0.8450    0.0000 O   0  0  0  0  0  0  0  0  0  0  0  0
    5.1350    1.1550    0.0000 O   0  0  0  0  0  0  0  0  0  0  0  0
    6.0010   -2.3450    0.0000 O   0  0  0  0  0  0  0  0  0  0  0  0
    6.8671    1.1550    0.0000 O   0  0  0  0  0  0  0  0  0  0  0  0
    5.1350   -1.8450    0.0000 O   0  0  0  0  0  0  0  0  0  0  0  0
    3.4030   -0.8450    0.0000 O   0  0  0  0  0  0  0  0  0  0  0  0
    8.5991   -1.8450    0.0000 O   0  0  0  0  0  0  0  0  0  0  0  0
    8.5991   -3.8450    0.0000 O   0  0  0  0  0  0  0  0  0  0  0  0
    6.8671   -4.8450    0.0000 O   0  0  0  0  0  0  0  0  0  0  0  0
    2.5369    0.6550    0.0000 O   0  0  0  0  0  0  0  0  0  0  0  0
    8.6270    4.1897    0.0000 O   0  0  0  0  0  0  0  0  0  0  0  0
    5.1350    4.1550    0.0000 O   0  0  0  0  0  0  0  0  0  0  0  0
    8.6155    1.1204    0.0000 O   0  0  0  0  0  0  0  0  0  0  0  0
   11.2536   -0.3725    0.0000 O   0  0  0  0  0  0  0  0  0  0  0  0
   12.9895    0.6208    0.0000 O   0  0  0  0  0  0  0  0  0  0  0  0
    6.0010   -0.3450    0.0000 C   0  0  3  0  0  0  0  0  0  0  0  0
    5.1350   -0.8450    0.0000 C   0  0  3  0  0  0  0  0  0  0  0  0
    4.2690   -0.3450    0.0000 C   0  0  3  0  0  0  0  0  0  0  0  0
    6.8671   -1.8450    0.0000 C   0  0  3  0  0  0  0  0  0  0  0  0
    6.0010    0.6550    0.0000 C   0  0  3  0  0  0  0  0  0  0  0  0
    4.2690    0.6550    0.0000 C   0  0  3  0  0  0  0  0  0  0  0  0
    7.7331   -2.3450    0.0000 C   0  0  3  0  0  0  0  0  0  0  0  0
    7.7331   -3.3450    0.0000 C   0  0  3  0  0  0  0  0  0  0  0  0
    6.8671   -3.8450    0.0000 C   0  0  3  0  0  0  0  0  0  0  0  0
    6.0010   -3.3450    0.0000 C   0  0  3  0  0  0  0  0  0  0  0  0
    3.4030    1.1550    0.0000 C   0  0  0  0  0  0  0  0  0  0  0  0
    5.1350   -3.8450    0.0000 C   0  0  0  0  0  0  0  0  0  0  0  0
    6.8671    2.1550    0.0000 C   0  0  0  0  0  0  0  0  0  0  0  0
    7.7331    2.6550    0.0000 C   0  0  0  0  0  0  0  0  0  0  0  0
    6.0010    2.6550    0.0000 C   0  0  0  0  0  0  0  0  0  0  0  0
    7.7331    3.6550    0.0000 C   0  0  0  0  0  0  0  0  0  0  0  0
    6.0010    3.6550    0.0000 C   0  0  0  0  0  0  0  0  0  0  0  0
    6.8671    4.1550    0.0000 C   0  0  0  0  0  0  0  0  0  0  0  0
    8.6270    2.1203    0.0000 C   0  0  0  0  0  0  0  0  0  0  0  0
    9.5331    2.6342    0.0000 C   0  0  0  0  0  0  0  0  0  0  0  0
    6.8671    5.1550    0.0000 C   0  0  0  0  0  0  0  0  0  0  0  0
    9.5331    3.6758    0.0000 C   0  0  0  0  0  0  0  0  0  0  0  0
   10.3972    2.1308    0.0000 C   0  0  0  0  0  0  0  0  0  0  0  0
    5.1350    5.1550    0.0000 C   0  0  0  0  0  0  0  0  0  0  0  0
   10.3933    1.1309    0.0000 C   0  0  0  0  0  0  0  0  0  0  0  0
   11.2651    2.6275    0.0000 C   0  0  0  0  0  0  0  0  0  0  0  0
   11.2574    0.6275    0.0000 C   0  0  0  0  0  0  0  0  0  0  0  0
   12.1292    2.1242    0.0000 C   0  0  0  0  0  0  0  0  0  0  0  0
   12.1254    1.1242    0.0000 C   0  0  0  0  0  0  0  0  0  0  0  0
   12.1177   -0.8758    0.0000 C   0  0  0  0  0  0  0  0  0  0  0  0
   13.8574    1.1175    0.0000 C   0  0  0  0  0  0  0  0  0  0  0  0
    6.0010   -0.9650    0.0000 H   0  0  0  0  0  0  0  0  0  0  0  0
    4.5981   -1.1550    0.0000 H   0  0  0  0  0  0  0  0  0  0  0  0
    4.2690   -0.9650    0.0000 H   0  0  0  0  0  0  0  0  0  0  0  0
    7.4040   -1.5350    0.0000 H   0  0  0  0  0  0  0  0  0  0  0  0
    6.0010    1.2750    0.0000 H   0  0  0  0  0  0  0  0  0  0  0  0
    4.2690    1.2750    0.0000 H   0  0  0  0  0  0  0  0  0  0  0  0
    8.2700   -2.6550    0.0000 H   0  0  0  0  0  0  0  0  0  0  0  0
    7.7331   -3.9650    0.0000 H   0  0  0  0  0  0  0  0  0  0  0  0
    7.4040   -4.1550    0.0000 H   0  0  0  0  0  0  0  0  0  0  0  0
    5.4641   -3.0350    0.0000 H   0  0  0  0  0  0  0  0  0  0  0  0
    3.8015    1.6300    0.0000 H   0  0  0  0  0  0  0  0  0  0  0  0
    3.0044    1.6300    0.0000 H   0  0  0  0  0  0  0  0  0  0  0  0
    4.8250   -3.3081    0.0000 H   0  0  0  0  0  0  0  0  0  0  0  0
    4.5981   -4.1550    0.0000 H   0  0  0  0  0  0  0  0  0  0  0  0
    5.4450   -4.3819    0.0000 H   0  0  0  0  0  0  0  0  0  0  0  0
    4.5981   -2.1550    0.0000 H   0  0  0  0  0  0  0  0  0  0  0  0
    3.4030   -1.4650    0.0000 H   0  0  0  0  0  0  0  0  0  0  0  0
    9.1360   -2.1550    0.0000 H   0  0  0  0  0  0  0  0  0  0  0  0
    9.1360   -3.5350    0.0000 H   0  0  0  0  0  0  0  0  0  0  0  0
    6.3301   -5.1550    0.0000 H   0  0  0  0  0  0  0  0  0  0  0  0
    2.0000    0.9650    0.0000 H   0  0  0  0  0  0  0  0  0  0  0  0
    5.4641    2.3450    0.0000 H   0  0  0  0  0  0  0  0  0  0  0  0
    7.4871    5.1550    0.0000 H   0  0  0  0  0  0  0  0  0  0  0  0
    6.8671    5.7750    0.0000 H   0  0  0  0  0  0  0  0  0  0  0  0
    6.2471    5.1550    0.0000 H   0  0  0  0  0  0  0  0  0  0  0  0
   10.0688    3.9879    0.0000 H   0  0  0  0  0  0  0  0  0  0  0  0
    5.7550    5.1550    0.0000 H   0  0  0  0  0  0  0  0  0  0  0  0
    5.1350    5.7750    0.0000 H   0  0  0  0  0  0  0  0  0  0  0  0
    4.5150    5.1550    0.0000 H   0  0  0  0  0  0  0  0  0  0  0  0
    9.8552    0.8229    0.0000 H   0  0  0  0  0  0  0  0  0  0  0  0
   11.2675    3.2475    0.0000 H   0  0  0  0  0  0  0  0  0  0  0  0
   12.6674    2.4321    0.0000 H   0  0  0  0  0  0  0  0  0  0  0  0
   11.8056   -1.4115    0.0000 H   0  0  0  0  0  0  0  0  0  0  0  0
   12.6534   -1.1879    0.0000 H   0  0  0  0  0  0  0  0  0  0  0  0
   12.4297   -0.3401    0.0000 H   0  0  0  0  0  0  0  0  0  0  0  0
   14.1653    0.5794    0.0000 H   0  0  0  0  0  0  0  0  0  0  0  0
   14.3955    1.4254    0.0000 H   0  0  0  0  0  0  0  0  0  0  0  0
   13.5495    1.6556    0.0000 H   0  0  0  0  0  0  0  0  0  0  0  0
  1 16  1  0  0  0  0
  1 19  1  0  0  0  0
  2 20  1  0  0  0  0
  2 21  1  0  0  0  0
  3 19  1  0  0  0  0
  3 25  1  0  0  0  0
  4 20  1  0  0  0  0
  4 28  1  0  0  0  0
  5 17  1  0  0  0  0
  5 62  1  0  0  0  0
  6 18  1  0  0  0  0
  6 63  1  0  0  0  0
  7 22  1  0  0  0  0
  7 64  1  0  0  0  0
  8 23  1  0  0  0  0
  8 65  1  0  0  0  0
  9 24  1  0  0  0  0
  9 66  1  0  0  0  0
 10 26  1  0  0  0  0
 10 67  1  0  0  0  0
 11 31  1  0  0  0  0
 11 37  1  0  0  0  0
 12 32  1  0  0  0  0
 12 39  1  0  0  0  0
 13 34  2  0  0  0  0
 14 42  1  0  0  0  0
 14 45  1  0  0  0  0
 15 44  1  0  0  0  0
 15 46  1  0  0  0  0
 16 17  1  0  0  0  0
 16 20  1  0  0  0  0
 16 47  1  0  0  0  0
 17 18  1  0  0  0  0
 17 48  1  0  0  0  0
 18 21  1  0  0  0  0
 18 49  1  0  0  0  0
 19 22  1  0  0  0  0
 19 50  1  0  0  0  0
 20 51  1  0  0  0  0
 21 26  1  0  0  0  0
 21 52  1  0  0  0  0
 22 23  1  0  0  0  0
 22 53  1  0  0  0  0
 23 24  1  0  0  0  0
 23 54  1  0  0  0  0
 24 25  1  0  0  0  0
 24 55  1  0  0  0  0
 25 27  1  0  0  0  0
 25 56  1  0  0  0  0
 26 57  1  0  0  0  0
 26 58  1  0  0  0  0
 27 59  1  0  0  0  0
 27 60  1  0  0  0  0
 27 61  1  0  0  0  0
 28 29  2  0  0  0  0
 28 30  1  0  0  0  0
 29 31  1  0  0  0  0
 29 34  1  0  0  0  0
 30 32  2  0  0  0  0
 30 68  1  0  0  0  0
 31 33  2  0  0  0  0
 32 33  1  0  0  0  0
 33 36  1  0  0  0  0
 34 35  1  0  0  0  0
 35 37  2  0  0  0  0
 35 38  1  0  0  0  0
 36 69  1  0  0  0  0
 36 70  1  0  0  0  0
 36 71  1  0  0  0  0
 37 72  1  0  0  0  0
 38 40  2  0  0  0  0
 38 41  1  0  0  0  0
 39 73  1  0  0  0  0
 39 74  1  0  0  0  0
 39 75  1  0  0  0  0
 40 42  1  0  0  0  0
 40 76  1  0  0  0  0
 41 43  2  0  0  0  0
 41 77  1  0  0  0  0
 42 44  2  0  0  0  0
 43 44  1  0  0  0  0
 43 78  1  0  0  0  0
 45 79  1  0  0  0  0
 45 80  1  0  0  0  0
 45 81  1  0  0  0  0
 46 82  1  0  0  0  0
 46 83  1  0  0  0  0
 46 84  1  0  0  0  0
M  END
>  <PUBCHEM_COMPOUND_CID>
131751059

>  <PUBCHEM_COMPOUND_CANONICALIZED>
1

>  <PUBCHEM_CACTVS_COMPLEXITY>
1060

>  <PUBCHEM_CACTVS_HBOND_ACCEPTOR>
15

>  <PUBCHEM_CACTVS_HBOND_DONOR>
6

>  <PUBCHEM_CACTVS_ROTATABLE_BOND>
9

>  <PUBCHEM_CACTVS_SUBSKEYS>
AAADcfB4PAAAAAAAAAAAAAAAAAAAAAAAAAA0aIECAAAAAACBQAAAGgAACAAADBSwmAMyDoAABgCIAqBSAAACCAAkIAAIiAEGiMgdNzaENRqieWKl4BUPqYfI7PzOIAADCAAIQABAAAYQABCAAAAAAAAAAA==

>  <PUBCHEM_IUPAC_OPENEYE_NAME>
5-[4,5-dihydroxy-6-(hydroxymethyl)-3-(3,4,5-trihydroxy-6-methyl-tetrahydropyran-2-yl)oxy-tetrahydropyran-2-yl]oxy-3-(3,4-dimethoxyphenyl)-7-methoxy-8-methyl-chromen-4-one

>  <PUBCHEM_IUPAC_CAS_NAME>
5-[[4,5-dihydroxy-6-(hydroxymethyl)-3-[(3,4,5-trihydroxy-6-methyl-2-oxanyl)oxy]-2-oxanyl]oxy]-3-(3,4-dimethoxyphenyl)-7-methoxy-8-methyl-1-benzopyran-4-one

>  <PUBCHEM_IUPAC_NAME>
5-[4,5-dihydroxy-6-(hydroxymethyl)-3-(3,4,5-trihydroxy-6-methyloxan-2-yl)oxyoxan-2-yl]oxy-3-(3,4-dimethoxyphenyl)-7-methoxy-8-methylchromen-4-one

>  <PUBCHEM_IUPAC_SYSTEMATIC_NAME>
3-(3,4-dimethoxyphenyl)-5-[6-(hydroxymethyl)-3-[6-methyl-3,4,5-tris(oxidanyl)oxan-2-yl]oxy-4,5-bis(oxidanyl)oxan-2-yl]oxy-7-methoxy-8-methyl-chromen-4-one

>  <PUBCHEM_IUPAC_TRADITIONAL_NAME>
5-[4,5-dihydroxy-6-methylol-3-(3,4,5-trihydroxy-6-methyl-tetrahydropyran-2-yl)oxy-tetrahydropyran-2-yl]oxy-3-(3,4-dimethoxyphenyl)-7-methoxy-8-methyl-chromone

>  <PUBCHEM_IUPAC_INCHI>
InChI=1S/C31H38O15/c1-12-17(40-4)9-19(21-23(34)15(11-42-28(12)21)14-6-7-16(39-3)18(8-14)41-5)44-31-29(26(37)24(35)20(10-32)45-31)46-30-27(38)25(36)22(33)13(2)43-30/h6-9,11,13,20,22,24-27,29-33,35-38H,10H2,1-5H3

>  <PUBCHEM_IUPAC_INCHIKEY>
HBIBVIWVUMZFQY-UHFFFAOYSA-N

>  <PUBCHEM_EXACT_MASS>
650.221

>  <PUBCHEM_MOLECULAR_FORMULA>
C31H38O15

>  <PUBCHEM_MOLECULAR_WEIGHT>
650.63

>  <PUBCHEM_OPENEYE_CAN_SMILES>
CC1C(C(C(C(O1)OC2C(C(C(OC2OC3=CC(=C(C4=C3C(=O)C(=CO4)C5=CC(=C(C=C5)OC)OC)C)OC)CO)O)O)O)O)O

>  <PUBCHEM_OPENEYE_ISO_SMILES>
CC1C(C(C(C(O1)OC2C(C(C(OC2OC3=CC(=C(C4=C3C(=O)C(=CO4)C5=CC(=C(C=C5)OC)OC)C)OC)CO)O)O)O)O)O

>  <PUBCHEM_CACTVS_TPSA>
212

>  <PUBCHEM_MONOISOTOPIC_WEIGHT>
650.221

>  <PUBCHEM_TOTAL_CHARGE>
0

>  <PUBCHEM_HEAVY_ATOM_COUNT>
46

>  <PUBCHEM_ATOM_DEF_STEREO_COUNT>
0

>  <PUBCHEM_ATOM_UDEF_STEREO_COUNT>
10

>  <PUBCHEM_BOND_DEF_STEREO_COUNT>
0

>  <PUBCHEM_BOND_UDEF_STEREO_COUNT>
0

>  <PUBCHEM_ISOTOPIC_ATOM_COUNT>
0

>  <PUBCHEM_COMPONENT_COUNT>
1

>  <PUBCHEM_CACTVS_TAUTO_COUNT>
1

>  <PUBCHEM_COORDINATE_TYPE>
1
5
255

>  <PUBCHEM_BONDANNOTATIONS>
16  1  3
19  1  3
11  31  8
11  37  8
21  26  3
25  27  3
28  29  8
28  30  8
29  31  8
29  34  8
30  32  8
31  33  8
32  33  8
34  35  8
35  37  8
38  40  8
38  41  8
20  4  3
40  42  8
41  43  8
42  44  8
43  44  8
17  5  3
18  6  3
22  7  3
23  8  3
24  9  3

$$$$
