131751405
 OpenBabel06101807152D

 57 60  0  0  1  0  0  0  0  0999 V2000
    4.6557    0.0355    0.0000 O   0  0  0  0  0  0  0  0  0  0  0  0
    7.7244    0.0355    0.0000 O   0  0  0  0  0  0  0  0  0  0  0  0
    6.1945    1.5354    0.0000 O   0  0  0  0  0  0  0  0  0  0  0  0
    7.9266    1.5354    0.0000 O   0  0  0  0  0  0  0  0  0  0  0  0
    2.6691    3.1624    0.0000 O   0  0  0  0  0  0  0  0  0  0  0  0
    6.4264   -4.1589    0.0000 O   0  0  0  0  0  0  0  0  0  0  0  0
    8.3834   -4.5714    0.0000 O   0  0  0  0  0  0  0  0  0  0  0  0
    4.0074    4.6487    0.0000 O   0  0  0  0  0  0  0  0  0  0  0  0
    6.1945    0.5355    0.0000 C   0  0  3  0  0  0  0  0  0  0  0  0
    6.1945   -0.4645    0.0000 C   0  0  3  0  0  0  0  0  0  0  0  0
    5.2435    0.8445    0.0000 C   0  0  3  0  0  0  0  0  0  0  0  0
    7.1407   -0.7693    0.0000 C   0  0  3  0  0  0  0  0  0  0  0  0
    7.1407    0.8402    0.0000 C   0  0  0  0  0  0  0  0  0  0  0  0
    5.2435   -0.7736    0.0000 C   0  0  0  0  0  0  0  0  0  0  0  0
    4.9344    1.7955    0.0000 C   0  0  0  0  0  0  0  0  0  0  0  0
    7.4514   -1.7198    0.0000 C   0  0  0  0  0  0  0  0  0  0  0  0
    3.9563    2.0034    0.0000 C   0  0  0  0  0  0  0  0  0  0  0  0
    5.6036    2.5387    0.0000 C   0  0  0  0  0  0  0  0  0  0  0  0
    6.7836   -2.4641    0.0000 C   0  0  0  0  0  0  0  0  0  0  0  0
    8.4299   -1.9260    0.0000 C   0  0  0  0  0  0  0  0  0  0  0  0
    7.0605    2.0354    0.0000 C   0  0  0  0  0  0  0  0  0  0  0  0
    3.6473    2.9545    0.0000 C   0  0  0  0  0  0  0  0  0  0  0  0
    7.0942   -3.4146    0.0000 C   0  0  0  0  0  0  0  0  0  0  0  0
    5.2946    3.4897    0.0000 C   0  0  0  0  0  0  0  0  0  0  0  0
    8.7406   -2.8765    0.0000 C   0  0  0  0  0  0  0  0  0  0  0  0
    7.0605    3.0354    0.0000 C   0  0  0  0  0  0  0  0  0  0  0  0
    8.0727   -3.6208    0.0000 C   0  0  0  0  0  0  0  0  0  0  0  0
    4.3164    3.6976    0.0000 C   0  0  0  0  0  0  0  0  0  0  0  0
    2.0000    2.4193    0.0000 C   0  0  0  0  0  0  0  0  0  0  0  0
    6.7370   -5.1094    0.0000 C   0  0  0  0  0  0  0  0  0  0  0  0
    9.3619   -4.7776    0.0000 C   0  0  0  0  0  0  0  0  0  0  0  0
    6.1953   -1.0845    0.0000 H   0  0  0  0  0  0  0  0  0  0  0  0
    4.6311    0.9415    0.0000 H   0  0  0  0  0  0  0  0  0  0  0  0
    7.7532   -0.8655    0.0000 H   0  0  0  0  0  0  0  0  0  0  0  0
    7.6781    1.1494    0.0000 H   0  0  0  0  0  0  0  0  0  0  0  0
    6.8897    1.4071    0.0000 H   0  0  0  0  0  0  0  0  0  0  0  0
    4.7065   -1.0836    0.0000 H   0  0  0  0  0  0  0  0  0  0  0  0
    5.4956   -1.3400    0.0000 H   0  0  0  0  0  0  0  0  0  0  0  0
    3.5414    1.5427    0.0000 H   0  0  0  0  0  0  0  0  0  0  0  0
    6.2100    2.4098    0.0000 H   0  0  0  0  0  0  0  0  0  0  0  0
    6.1769   -2.3362    0.0000 H   0  0  0  0  0  0  0  0  0  0  0  0
    8.8440   -1.4646    0.0000 H   0  0  0  0  0  0  0  0  0  0  0  0
    5.7094    3.9505    0.0000 H   0  0  0  0  0  0  0  0  0  0  0  0
    9.3472   -3.0044    0.0000 H   0  0  0  0  0  0  0  0  0  0  0  0
    7.6805    3.0354    0.0000 H   0  0  0  0  0  0  0  0  0  0  0  0
    7.0605    3.6554    0.0000 H   0  0  0  0  0  0  0  0  0  0  0  0
    6.4405    3.0354    0.0000 H   0  0  0  0  0  0  0  0  0  0  0  0
    4.4222    5.1094    0.0000 H   0  0  0  0  0  0  0  0  0  0  0  0
    1.5392    2.8341    0.0000 H   0  0  0  0  0  0  0  0  0  0  0  0
    1.5851    1.9585    0.0000 H   0  0  0  0  0  0  0  0  0  0  0  0
    2.4608    2.0044    0.0000 H   0  0  0  0  0  0  0  0  0  0  0  0
    6.1477   -5.3021    0.0000 H   0  0  0  0  0  0  0  0  0  0  0  0
    6.9296   -5.6988    0.0000 H   0  0  0  0  0  0  0  0  0  0  0  0
    7.3264   -4.9168    0.0000 H   0  0  0  0  0  0  0  0  0  0  0  0
    9.2340   -5.3842    0.0000 H   0  0  0  0  0  0  0  0  0  0  0  0
    9.9686   -4.9054    0.0000 H   0  0  0  0  0  0  0  0  0  0  0  0
    9.4898   -4.1709    0.0000 H   0  0  0  0  0  0  0  0  0  0  0  0
  1 11  1  0  0  0  0
  1 14  1  0  0  0  0
  2 12  1  0  0  0  0
  2 13  1  0  0  0  0
  3  9  1  0  0  0  0
  3 21  1  0  0  0  0
  4 21  2  0  0  0  0
  5 22  1  0  0  0  0
  5 29  1  0  0  0  0
  6 23  1  0  0  0  0
  6 30  1  0  0  0  0
  7 27  1  0  0  0  0
  7 31  1  0  0  0  0
  8 28  1  0  0  0  0
  8 48  1  0  0  0  0
  9 10  1  0  0  0  0
  9 11  1  0  0  0  0
  9 13  1  0  0  0  0
 10 12  1  0  0  0  0
 10 14  1  0  0  0  0
 10 32  1  0  0  0  0
 11 15  1  0  0  0  0
 11 33  1  0  0  0  0
 12 16  1  0  0  0  0
 12 34  1  0  0  0  0
 13 35  1  0  0  0  0
 13 36  1  0  0  0  0
 14 37  1  0  0  0  0
 14 38  1  0  0  0  0
 15 17  2  0  0  0  0
 15 18  1  0  0  0  0
 16 19  2  0  0  0  0
 16 20  1  0  0  0  0
 17 22  1  0  0  0  0
 17 39  1  0  0  0  0
 18 24  2  0  0  0  0
 18 40  1  0  0  0  0
 19 23  1  0  0  0  0
 19 41  1  0  0  0  0
 20 25  2  0  0  0  0
 20 42  1  0  0  0  0
 21 26  1  0  0  0  0
 22 28  2  0  0  0  0
 23 27  2  0  0  0  0
 24 28  1  0  0  0  0
 24 43  1  0  0  0  0
 25 27  1  0  0  0  0
 25 44  1  0  0  0  0
 26 45  1  0  0  0  0
 26 46  1  0  0  0  0
 26 47  1  0  0  0  0
 29 49  1  0  0  0  0
 29 50  1  0  0  0  0
 29 51  1  0  0  0  0
 30 52  1  0  0  0  0
 30 53  1  0  0  0  0
 30 54  1  0  0  0  0
 31 55  1  0  0  0  0
 31 56  1  0  0  0  0
 31 57  1  0  0  0  0
M  END
>  <PUBCHEM_COMPOUND_CID>
131751405

>  <PUBCHEM_COMPOUND_CANONICALIZED>
1

>  <PUBCHEM_CACTVS_COMPLEXITY>
629

>  <PUBCHEM_CACTVS_HBOND_ACCEPTOR>
8

>  <PUBCHEM_CACTVS_HBOND_DONOR>
1

>  <PUBCHEM_CACTVS_ROTATABLE_BOND>
7

>  <PUBCHEM_CACTVS_SUBSKEYS>
AAADceB4PAAAAAAAAAAAAAAAAAAAASJAAAAwYAAAAAASAAABQAAAGgAACAAADVSgmAIyDoAABgCIAiDSCAACCAAgIAAIiAAGiIgNJiKGMRqCcCMlwBELuAfA4PwOoAABAAAAQABAAAIAAACAAAAAAAAAAA==

>  <PUBCHEM_IUPAC_OPENEYE_NAME>
[6-(3,4-dimethoxyphenyl)-3-(4-hydroxy-3-methoxy-phenyl)-3,4,6,6a-tetrahydro-1H-furo[3,4-c]furan-3a-yl] acetate

>  <PUBCHEM_IUPAC_CAS_NAME>
acetic acid [6-(3,4-dimethoxyphenyl)-3-(4-hydroxy-3-methoxyphenyl)-3,4,6,6a-tetrahydro-1H-furo[3,4-c]furan-3a-yl] ester

>  <PUBCHEM_IUPAC_NAME>
[6-(3,4-dimethoxyphenyl)-3-(4-hydroxy-3-methoxyphenyl)-3,4,6,6a-tetrahydro-1H-furo[3,4-c]furan-3a-yl] acetate

>  <PUBCHEM_IUPAC_SYSTEMATIC_NAME>
[6-(3,4-dimethoxyphenyl)-3-(3-methoxy-4-oxidanyl-phenyl)-3,4,6,6a-tetrahydro-1H-furo[3,4-c]furan-3a-yl] ethanoate

>  <PUBCHEM_IUPAC_TRADITIONAL_NAME>
acetic acid [6-(3,4-dimethoxyphenyl)-3-(4-hydroxy-3-methoxy-phenyl)-3,4,6,6a-tetrahydro-1H-furo[3,4-c]furan-3a-yl] ester

>  <PUBCHEM_IUPAC_INCHI>
InChI=1S/C23H26O8/c1-13(24)31-23-12-30-21(14-6-8-18(26-2)20(9-14)28-4)16(23)11-29-22(23)15-5-7-17(25)19(10-15)27-3/h5-10,16,21-22,25H,11-12H2,1-4H3

>  <PUBCHEM_IUPAC_INCHIKEY>
ZVILPMKYRJCFAE-UHFFFAOYSA-N

>  <PUBCHEM_EXACT_MASS>
430.163

>  <PUBCHEM_MOLECULAR_FORMULA>
C23H26O8

>  <PUBCHEM_MOLECULAR_WEIGHT>
430.453

>  <PUBCHEM_OPENEYE_CAN_SMILES>
CC(=O)OC12COC(C1COC2C3=CC(=C(C=C3)O)OC)C4=CC(=C(C=C4)OC)OC

>  <PUBCHEM_OPENEYE_ISO_SMILES>
CC(=O)OC12COC(C1COC2C3=CC(=C(C=C3)O)OC)C4=CC(=C(C=C4)OC)OC

>  <PUBCHEM_CACTVS_TPSA>
92.7

>  <PUBCHEM_MONOISOTOPIC_WEIGHT>
430.163

>  <PUBCHEM_TOTAL_CHARGE>
0

>  <PUBCHEM_HEAVY_ATOM_COUNT>
31

>  <PUBCHEM_ATOM_DEF_STEREO_COUNT>
0

>  <PUBCHEM_ATOM_UDEF_STEREO_COUNT>
4

>  <PUBCHEM_BOND_DEF_STEREO_COUNT>
0

>  <PUBCHEM_BOND_UDEF_STEREO_COUNT>
0

>  <PUBCHEM_ISOTOPIC_ATOM_COUNT>
0

>  <PUBCHEM_COMPONENT_COUNT>
1

>  <PUBCHEM_CACTVS_TAUTO_COUNT>
3

>  <PUBCHEM_COORDINATE_TYPE>
1
5
255

>  <PUBCHEM_BONDANNOTATIONS>
10  14  3
11  15  3
12  16  3
15  17  8
15  18  8
16  19  8
16  20  8
17  22  8
18  24  8
19  23  8
20  25  8
22  28  8
23  27  8
24  28  8
25  27  8
9  3  3

$$$$
