131752266
 OpenBabel06101807152D

 73 77  0  0  1  0  0  0  0  0999 V2000
    5.1350   -0.8812    0.0000 O   0  0  0  0  0  0  0  0  0  0  0  0
   11.2079   -1.3968    0.0000 O   0  0  0  0  0  0  0  0  0  0  0  0
    6.8671   -0.8812    0.0000 O   0  0  0  0  0  0  0  0  0  0  0  0
   10.3592    0.1131    0.0000 O   0  0  0  0  0  0  0  0  0  0  0  0
    5.1350   -3.8812    0.0000 O   0  0  0  0  0  0  0  0  0  0  0  0
    3.4030   -2.8812    0.0000 O   0  0  0  0  0  0  0  0  0  0  0  0
    6.8671   -2.8812    0.0000 O   0  0  0  0  0  0  0  0  0  0  0  0
    8.5926   -2.8666    0.0000 O   0  0  0  0  0  0  0  0  0  0  0  0
   10.3130   -3.8866    0.0000 O   0  0  0  0  0  0  0  0  0  0  0  0
    8.6158   -0.8668    0.0000 O   0  0  0  0  0  0  0  0  0  0  0  0
    2.5369   -1.3812    0.0000 O   0  0  0  0  0  0  0  0  0  0  0  0
    8.6504    2.1330    0.0000 O   0  3  0  0  0  0  0  0  0  0  0  0
    5.1208    2.1980    0.0000 O   0  0  0  0  0  0  0  0  0  0  0  0
   12.9745    1.5830    0.0000 O   0  0  0  0  0  0  0  0  0  0  0  0
   12.9976    3.5828    0.0000 O   0  0  0  0  0  0  0  0  0  0  0  0
    5.1350   -2.8812    0.0000 C   0  0  3  0  0  0  0  0  0  0  0  0
    4.2690   -2.3812    0.0000 C   0  0  3  0  0  0  0  0  0  0  0  0
    6.0010   -2.3812    0.0000 C   0  0  3  0  0  0  0  0  0  0  0  0
    4.2690   -1.3812    0.0000 C   0  0  3  0  0  0  0  0  0  0  0  0
    9.4644   -2.3767    0.0000 C   0  0  3  0  0  0  0  0  0  0  0  0
   10.3246   -2.8867    0.0000 C   0  0  3  0  0  0  0  0  0  0  0  0
    9.4759   -1.3768    0.0000 C   0  0  3  0  0  0  0  0  0  0  0  0
   11.1963   -2.3967    0.0000 C   0  0  3  0  0  0  0  0  0  0  0  0
    6.0010   -1.3812    0.0000 C   0  0  3  0  0  0  0  0  0  0  0  0
   10.3477   -0.8868    0.0000 C   0  0  3  0  0  0  0  0  0  0  0  0
    3.4030   -0.8812    0.0000 C   0  0  0  0  0  0  0  0  0  0  0  0
   12.0565   -2.9067    0.0000 C   0  0  0  0  0  0  0  0  0  0  0  0
    6.8671    0.1188    0.0000 C   0  0  0  0  0  0  0  0  0  0  0  0
    9.4991    0.6231    0.0000 C   0  0  0  0  0  0  0  0  0  0  0  0
    7.7671    0.6431    0.0000 C   0  0  0  0  0  0  0  0  0  0  0  0
    8.6273    0.1331    0.0000 C   0  0  0  0  0  0  0  0  0  0  0  0
    9.5106    1.6230    0.0000 C   0  0  0  0  0  0  0  0  0  0  0  0
    7.7787    1.6431    0.0000 C   0  0  0  0  0  0  0  0  0  0  0  0
    5.9670    0.6431    0.0000 C   0  0  0  0  0  0  0  0  0  0  0  0
    6.8910    2.1880    0.0000 C   0  0  0  0  0  0  0  0  0  0  0  0
    5.9790    1.6847    0.0000 C   0  0  0  0  0  0  0  0  0  0  0  0
   10.3824    2.1130    0.0000 C   0  0  0  0  0  0  0  0  0  0  0  0
   11.2426    1.6030    0.0000 C   0  0  0  0  0  0  0  0  0  0  0  0
   10.3939    3.1129    0.0000 C   0  0  0  0  0  0  0  0  0  0  0  0
   12.1143    2.0930    0.0000 C   0  0  0  0  0  0  0  0  0  0  0  0
   11.2657    3.6029    0.0000 C   0  0  0  0  0  0  0  0  0  0  0  0
   12.1259    3.0929    0.0000 C   0  0  0  0  0  0  0  0  0  0  0  0
    4.5981   -3.1912    0.0000 H   0  0  0  0  0  0  0  0  0  0  0  0
    4.2690   -3.0012    0.0000 H   0  0  0  0  0  0  0  0  0  0  0  0
    6.0010   -3.0012    0.0000 H   0  0  0  0  0  0  0  0  0  0  0  0
    4.2690   -0.7612    0.0000 H   0  0  0  0  0  0  0  0  0  0  0  0
   10.0049   -2.0729    0.0000 H   0  0  0  0  0  0  0  0  0  0  0  0
   10.8579   -3.2029    0.0000 H   0  0  0  0  0  0  0  0  0  0  0  0
    8.9354   -1.6805    0.0000 H   0  0  0  0  0  0  0  0  0  0  0  0
   11.7368   -2.0930    0.0000 H   0  0  0  0  0  0  0  0  0  0  0  0
    6.0010   -0.7612    0.0000 H   0  0  0  0  0  0  0  0  0  0  0  0
    9.8144   -0.5706    0.0000 H   0  0  0  0  0  0  0  0  0  0  0  0
    3.8015   -0.4062    0.0000 H   0  0  0  0  0  0  0  0  0  0  0  0
    3.0044   -0.4062    0.0000 H   0  0  0  0  0  0  0  0  0  0  0  0
   11.7403   -3.4400    0.0000 H   0  0  0  0  0  0  0  0  0  0  0  0
   12.5898   -3.2229    0.0000 H   0  0  0  0  0  0  0  0  0  0  0  0
   12.3727   -2.3734    0.0000 H   0  0  0  0  0  0  0  0  0  0  0  0
    4.5981   -4.1912    0.0000 H   0  0  0  0  0  0  0  0  0  0  0  0
    3.4030   -3.5012    0.0000 H   0  0  0  0  0  0  0  0  0  0  0  0
    6.8671   -3.5012    0.0000 H   0  0  0  0  0  0  0  0  0  0  0  0
    8.5854   -3.4866    0.0000 H   0  0  0  0  0  0  0  0  0  0  0  0
   10.8463   -4.2028    0.0000 H   0  0  0  0  0  0  0  0  0  0  0  0
    8.0753   -1.1706    0.0000 H   0  0  0  0  0  0  0  0  0  0  0  0
    8.6201   -0.4868    0.0000 H   0  0  0  0  0  0  0  0  0  0  0  0
    2.0000   -1.0712    0.0000 H   0  0  0  0  0  0  0  0  0  0  0  0
    5.4277    0.3373    0.0000 H   0  0  0  0  0  0  0  0  0  0  0  0
    6.9053    2.8079    0.0000 H   0  0  0  0  0  0  0  0  0  0  0  0
   11.2354    0.9830    0.0000 H   0  0  0  0  0  0  0  0  0  0  0  0
    9.8606    3.4291    0.0000 H   0  0  0  0  0  0  0  0  0  0  0  0
    5.1304    2.8179    0.0000 H   0  0  0  0  0  0  0  0  0  0  0  0
   11.2729    4.2228    0.0000 H   0  0  0  0  0  0  0  0  0  0  0  0
   13.5150    1.8868    0.0000 H   0  0  0  0  0  0  0  0  0  0  0  0
   13.0048    4.2028    0.0000 H   0  0  0  0  0  0  0  0  0  0  0  0
  1 19  1  0  0  0  0
  1 24  1  0  0  0  0
  2 23  1  0  0  0  0
  2 25  1  0  0  0  0
  3 24  1  0  0  0  0
  3 28  1  0  0  0  0
  4 25  1  0  0  0  0
  4 29  1  0  0  0  0
  5 16  1  0  0  0  0
  5 58  1  0  0  0  0
  6 17  1  0  0  0  0
  6 59  1  0  0  0  0
  7 18  1  0  0  0  0
  7 60  1  0  0  0  0
  8 20  1  0  0  0  0
  8 61  1  0  0  0  0
  9 21  1  0  0  0  0
  9 62  1  0  0  0  0
 10 22  1  0  0  0  0
 10 63  1  0  0  0  0
 11 26  1  0  0  0  0
 11 65  1  0  0  0  0
 12 32  1  0  0  0  0
 12 33  2  0  0  0  0
 13 36  1  0  0  0  0
 13 70  1  0  0  0  0
 14 40  1  0  0  0  0
 14 72  1  0  0  0  0
 15 42  1  0  0  0  0
 15 73  1  0  0  0  0
 16 17  1  0  0  0  0
 16 18  1  0  0  0  0
 16 43  1  0  0  0  0
 17 19  1  0  0  0  0
 17 44  1  0  0  0  0
 18 24  1  0  0  0  0
 18 45  1  0  0  0  0
 19 26  1  0  0  0  0
 19 46  1  0  0  0  0
 20 21  1  0  0  0  0
 20 22  1  0  0  0  0
 20 47  1  0  0  0  0
 21 23  1  0  0  0  0
 21 48  1  0  0  0  0
 22 25  1  0  0  0  0
 22 49  1  0  0  0  0
 23 27  1  0  0  0  0
 23 50  1  0  0  0  0
 24 51  1  0  0  0  0
 25 52  1  0  0  0  0
 26 53  1  0  0  0  0
 26 54  1  0  0  0  0
 27 55  1  0  0  0  0
 27 56  1  0  0  0  0
 27 57  1  0  0  0  0
 28 30  1  0  0  0  0
 28 34  2  0  0  0  0
 29 31  1  0  0  0  0
 29 32  2  0  0  0  0
 30 31  2  0  0  0  0
 30 33  1  0  0  0  0
 31 64  1  0  0  0  0
 32 37  1  0  0  0  0
 33 35  1  0  0  0  0
 34 36  1  0  0  0  0
 34 66  1  0  0  0  0
 35 36  2  0  0  0  0
 35 67  1  0  0  0  0
 37 38  2  0  0  0  0
 37 39  1  0  0  0  0
 38 40  1  0  0  0  0
 38 68  1  0  0  0  0
 39 41  2  0  0  0  0
 39 69  1  0  0  0  0
 40 42  2  0  0  0  0
 41 42  1  0  0  0  0
 41 71  1  0  0  0  0
M  CHG  1  12   1
M  END
>  <PUBCHEM_COMPOUND_CID>
131752266

>  <PUBCHEM_COMPOUND_CANONICALIZED>
1

>  <PUBCHEM_CACTVS_COMPLEXITY>
883

>  <PUBCHEM_CACTVS_HBOND_ACCEPTOR>
14

>  <PUBCHEM_CACTVS_HBOND_DONOR>
10

>  <PUBCHEM_CACTVS_ROTATABLE_BOND>
6

>  <PUBCHEM_CACTVS_SUBSKEYS>
AAADceB4PAAAAAAAAAAAAAAAAAAAAAAAAAA0aJECAAAAAACR9AAAGgAACAAADBSwmAMyDsAABkCIAqBSAAICCAAkIAAIiAFGiMgdNzaGNR6ieWOl4BUPuYfK7PzOIAABCAAIQABAAAIQABCAAAAAAAAAAA==

>  <PUBCHEM_IUPAC_OPENEYE_NAME>
2-[2-(3,4-dihydroxyphenyl)-7-hydroxy-5-[3,4,5-trihydroxy-6-(hydroxymethyl)tetrahydropyran-2-yl]oxy-chromenylium-3-yl]oxy-6-methyl-tetrahydropyran-3,4,5-triol

>  <PUBCHEM_IUPAC_CAS_NAME>
2-[[2-(3,4-dihydroxyphenyl)-7-hydroxy-5-[[3,4,5-trihydroxy-6-(hydroxymethyl)-2-oxanyl]oxy]-1-benzopyrylium-3-yl]oxy]-6-methyloxane-3,4,5-triol

>  <PUBCHEM_IUPAC_NAME>
2-[2-(3,4-dihydroxyphenyl)-7-hydroxy-5-[3,4,5-trihydroxy-6-(hydroxymethyl)oxan-2-yl]oxychromenylium-3-yl]oxy-6-methyloxane-3,4,5-triol

>  <PUBCHEM_IUPAC_SYSTEMATIC_NAME>
2-[2-[3,4-bis(oxidanyl)phenyl]-5-[6-(hydroxymethyl)-3,4,5-tris(oxidanyl)oxan-2-yl]oxy-7-oxidanyl-chromenylium-3-yl]oxy-6-methyl-oxane-3,4,5-triol

>  <PUBCHEM_IUPAC_TRADITIONAL_NAME>
2-[[2-(3,4-dihydroxyphenyl)-7-hydroxy-5-(3,4,5-trihydroxy-6-methylol-tetrahydropyran-2-yl)oxy-1-benzopyrylium-3-yl]oxy]-6-methyl-tetrahydropyran-3,4,5-triol

>  <PUBCHEM_IUPAC_INCHI>
InChI=1S/C27H30O15/c1-9-19(32)21(34)23(36)26(38-9)41-17-7-12-15(39-25(17)10-2-3-13(30)14(31)4-10)5-11(29)6-16(12)40-27-24(37)22(35)20(33)18(8-28)42-27/h2-7,9,18-24,26-28,32-37H,8H2,1H3,(H2-,29,30,31)/p+1

>  <PUBCHEM_IUPAC_INCHIKEY>
MVXCPXSXBRABAU-UHFFFAOYSA-O

>  <PUBCHEM_EXACT_MASS>
595.166

>  <PUBCHEM_MOLECULAR_FORMULA>
C27H31O15+

>  <PUBCHEM_MOLECULAR_WEIGHT>
595.53

>  <PUBCHEM_OPENEYE_CAN_SMILES>
CC1C(C(C(C(O1)OC2=C([O+]=C3C=C(C=C(C3=C2)OC4C(C(C(C(O4)CO)O)O)O)O)C5=CC(=C(C=C5)O)O)O)O)O

>  <PUBCHEM_OPENEYE_ISO_SMILES>
CC1C(C(C(C(O1)OC2=C([O+]=C3C=C(C=C(C3=C2)OC4C(C(C(C(O4)CO)O)O)O)O)C5=CC(=C(C=C5)O)O)O)O)O

>  <PUBCHEM_CACTVS_TPSA>
240

>  <PUBCHEM_MONOISOTOPIC_WEIGHT>
595.166

>  <PUBCHEM_TOTAL_CHARGE>
1

>  <PUBCHEM_HEAVY_ATOM_COUNT>
42

>  <PUBCHEM_ATOM_DEF_STEREO_COUNT>
0

>  <PUBCHEM_ATOM_UDEF_STEREO_COUNT>
10

>  <PUBCHEM_BOND_DEF_STEREO_COUNT>
0

>  <PUBCHEM_BOND_UDEF_STEREO_COUNT>
0

>  <PUBCHEM_ISOTOPIC_ATOM_COUNT>
0

>  <PUBCHEM_COMPONENT_COUNT>
1

>  <PUBCHEM_CACTVS_TAUTO_COUNT>
97

>  <PUBCHEM_COORDINATE_TYPE>
1
5
255

>  <PUBCHEM_BONDANNOTATIONS>
22  10  3
12  32  8
12  33  8
19  26  3
23  27  3
28  30  8
28  34  8
29  31  8
29  32  8
24  3  3
30  31  8
30  33  8
33  35  8
34  36  8
35  36  8
37  38  8
37  39  8
38  40  8
39  41  8
25  4  3
40  42  8
41  42  8
16  5  3
17  6  3
18  7  3
20  8  3
21  9  3

$$$$
