131752096
 OpenBabel06101807152D

 97 98  0  0  1  0  0  0  0  0999 V2000
   19.0885    3.6340    0.0000 O   0  0  0  0  0  0  0  0  0  0  0  0
   19.5885    4.5000    0.0000 C   0  0  0  0  0  0  0  0  0  0  0  0
   18.5885    4.5000    0.0000 C   0  0  3  0  0  0  0  0  0  0  0  0
   17.7224    5.0000    0.0000 C   0  0  0  0  0  0  0  0  0  0  0  0
    3.0000   -4.5000    0.0000 C   0  0  0  0  0  0  0  0  0  0  0  0
   20.4545    4.0000    0.0000 C   0  0  0  0  0  0  0  0  0  0  0  0
   19.5885    5.5000    0.0000 C   0  0  0  0  0  0  0  0  0  0  0  0
    3.8660   -4.0000    0.0000 C   0  0  3  0  0  0  0  0  0  0  0  0
    3.0000   -5.5000    0.0000 C   0  0  0  0  0  0  0  0  0  0  0  0
   16.8564    4.5000    0.0000 C   0  0  0  0  0  0  0  0  0  0  0  0
    3.8660   -6.0000    0.0000 C   0  0  0  0  0  0  0  0  0  0  0  0
    4.7320   -4.5000    0.0000 C   0  0  0  0  0  0  0  0  0  0  0  0
    2.0000   -4.5000    0.0000 C   0  0  0  0  0  0  0  0  0  0  0  0
    2.5000   -3.6340    0.0000 C   0  0  0  0  0  0  0  0  0  0  0  0
    4.7320   -5.5000    0.0000 C   0  0  0  0  0  0  0  0  0  0  0  0
    3.8660   -3.0000    0.0000 C   0  0  0  0  0  0  0  0  0  0  0  0
   15.9904    5.0000    0.0000 C   0  0  0  0  0  0  0  0  0  0  0  0
    5.5981   -4.0000    0.0000 C   0  0  0  0  0  0  0  0  0  0  0  0
    4.7320   -2.5000    0.0000 C   0  0  0  0  0  0  0  0  0  0  0  0
   15.9904    6.0000    0.0000 C   0  0  0  0  0  0  0  0  0  0  0  0
   15.1244    4.5000    0.0000 C   0  0  0  0  0  0  0  0  0  0  0  0
    4.7320   -1.5000    0.0000 C   0  0  0  0  0  0  0  0  0  0  0  0
   15.1244    3.5000    0.0000 C   0  0  0  0  0  0  0  0  0  0  0  0
    3.8660   -1.0000    0.0000 C   0  0  0  0  0  0  0  0  0  0  0  0
    5.5981   -1.0000    0.0000 C   0  0  0  0  0  0  0  0  0  0  0  0
   14.2583    3.0000    0.0000 C   0  0  0  0  0  0  0  0  0  0  0  0
    6.4641   -1.5000    0.0000 C   0  0  0  0  0  0  0  0  0  0  0  0
   14.2583    2.0000    0.0000 C   0  0  0  0  0  0  0  0  0  0  0  0
    7.3301   -1.0000    0.0000 C   0  0  0  0  0  0  0  0  0  0  0  0
   15.1244    1.5000    0.0000 C   0  0  0  0  0  0  0  0  0  0  0  0
   13.3923    1.5000    0.0000 C   0  0  0  0  0  0  0  0  0  0  0  0
    8.1962   -1.5000    0.0000 C   0  0  0  0  0  0  0  0  0  0  0  0
   13.3923    0.5000    0.0000 C   0  0  0  0  0  0  0  0  0  0  0  0
    8.1962   -2.5000    0.0000 C   0  0  0  0  0  0  0  0  0  0  0  0
    9.0622   -1.0000    0.0000 C   0  0  0  0  0  0  0  0  0  0  0  0
   12.5263    0.0000    0.0000 C   0  0  0  0  0  0  0  0  0  0  0  0
    9.9282   -1.5000    0.0000 C   0  0  0  0  0  0  0  0  0  0  0  0
   12.5263   -1.0000    0.0000 C   0  0  0  0  0  0  0  0  0  0  0  0
   10.7942   -1.0000    0.0000 C   0  0  0  0  0  0  0  0  0  0  0  0
   11.6603   -1.5000    0.0000 C   0  0  0  0  0  0  0  0  0  0  0  0
   13.3923   -1.5000    0.0000 C   0  0  0  0  0  0  0  0  0  0  0  0
   18.1501    4.0616    0.0000 H   0  0  0  0  0  0  0  0  0  0  0  0
   18.1210    5.4750    0.0000 H   0  0  0  0  0  0  0  0  0  0  0  0
   17.3239    5.4750    0.0000 H   0  0  0  0  0  0  0  0  0  0  0  0
   20.2085    5.5000    0.0000 H   0  0  0  0  0  0  0  0  0  0  0  0
   19.5885    6.1200    0.0000 H   0  0  0  0  0  0  0  0  0  0  0  0
   18.9685    5.5000    0.0000 H   0  0  0  0  0  0  0  0  0  0  0  0
   20.1445    3.4631    0.0000 H   0  0  0  0  0  0  0  0  0  0  0  0
   20.9914    3.6900    0.0000 H   0  0  0  0  0  0  0  0  0  0  0  0
   20.7645    4.5369    0.0000 H   0  0  0  0  0  0  0  0  0  0  0  0
    4.4030   -3.6900    0.0000 H   0  0  0  0  0  0  0  0  0  0  0  0
    2.3894   -5.3923    0.0000 H   0  0  0  0  0  0  0  0  0  0  0  0
    2.7880   -6.0826    0.0000 H   0  0  0  0  0  0  0  0  0  0  0  0
   16.4579    4.0250    0.0000 H   0  0  0  0  0  0  0  0  0  0  0  0
   17.2549    4.0250    0.0000 H   0  0  0  0  0  0  0  0  0  0  0  0
    3.4675   -6.4750    0.0000 H   0  0  0  0  0  0  0  0  0  0  0  0
    4.2646   -6.4750    0.0000 H   0  0  0  0  0  0  0  0  0  0  0  0
    3.0369   -3.3240    0.0000 H   0  0  0  0  0  0  0  0  0  0  0  0
    2.1900   -3.0970    0.0000 H   0  0  0  0  0  0  0  0  0  0  0  0
    2.0000   -3.8800    0.0000 H   0  0  0  0  0  0  0  0  0  0  0  0
    1.3800   -4.5000    0.0000 H   0  0  0  0  0  0  0  0  0  0  0  0
    2.0000   -5.1200    0.0000 H   0  0  0  0  0  0  0  0  0  0  0  0
    1.9631   -3.9440    0.0000 H   0  0  0  0  0  0  0  0  0  0  0  0
    5.2690   -5.8100    0.0000 H   0  0  0  0  0  0  0  0  0  0  0  0
    3.3291   -2.6900    0.0000 H   0  0  0  0  0  0  0  0  0  0  0  0
    5.9081   -4.5369    0.0000 H   0  0  0  0  0  0  0  0  0  0  0  0
    6.1350   -3.6900    0.0000 H   0  0  0  0  0  0  0  0  0  0  0  0
    5.2881   -3.4631    0.0000 H   0  0  0  0  0  0  0  0  0  0  0  0
    5.2690   -2.8100    0.0000 H   0  0  0  0  0  0  0  0  0  0  0  0
   16.6104    6.0000    0.0000 H   0  0  0  0  0  0  0  0  0  0  0  0
   15.9904    6.6200    0.0000 H   0  0  0  0  0  0  0  0  0  0  0  0
   15.3704    6.0000    0.0000 H   0  0  0  0  0  0  0  0  0  0  0  0
   14.5874    4.8100    0.0000 H   0  0  0  0  0  0  0  0  0  0  0  0
   15.6613    3.1900    0.0000 H   0  0  0  0  0  0  0  0  0  0  0  0
    4.1760   -0.4631    0.0000 H   0  0  0  0  0  0  0  0  0  0  0  0
    3.3291   -0.6900    0.0000 H   0  0  0  0  0  0  0  0  0  0  0  0
    3.5560   -1.5369    0.0000 H   0  0  0  0  0  0  0  0  0  0  0  0
    5.5981   -0.3800    0.0000 H   0  0  0  0  0  0  0  0  0  0  0  0
   13.7214    3.3100    0.0000 H   0  0  0  0  0  0  0  0  0  0  0  0
    6.4641   -2.1200    0.0000 H   0  0  0  0  0  0  0  0  0  0  0  0
    7.3301   -0.3800    0.0000 H   0  0  0  0  0  0  0  0  0  0  0  0
   14.8144    0.9631    0.0000 H   0  0  0  0  0  0  0  0  0  0  0  0
   15.6613    1.1900    0.0000 H   0  0  0  0  0  0  0  0  0  0  0  0
   15.4344    2.0369    0.0000 H   0  0  0  0  0  0  0  0  0  0  0  0
   12.8554    1.8100    0.0000 H   0  0  0  0  0  0  0  0  0  0  0  0
   13.9292    0.1900    0.0000 H   0  0  0  0  0  0  0  0  0  0  0  0
    7.5762   -2.5000    0.0000 H   0  0  0  0  0  0  0  0  0  0  0  0
    8.1962   -3.1200    0.0000 H   0  0  0  0  0  0  0  0  0  0  0  0
    8.8162   -2.5000    0.0000 H   0  0  0  0  0  0  0  0  0  0  0  0
    9.0622   -0.3800    0.0000 H   0  0  0  0  0  0  0  0  0  0  0  0
   11.9893    0.3100    0.0000 H   0  0  0  0  0  0  0  0  0  0  0  0
    9.9282   -2.1200    0.0000 H   0  0  0  0  0  0  0  0  0  0  0  0
   10.7942   -0.3800    0.0000 H   0  0  0  0  0  0  0  0  0  0  0  0
   11.6603   -2.1200    0.0000 H   0  0  0  0  0  0  0  0  0  0  0  0
   13.0823   -2.0369    0.0000 H   0  0  0  0  0  0  0  0  0  0  0  0
   13.9292   -1.8100    0.0000 H   0  0  0  0  0  0  0  0  0  0  0  0
   13.7023   -0.9631    0.0000 H   0  0  0  0  0  0  0  0  0  0  0  0
  1  2  1  0  0  0  0
  1  3  1  0  0  0  0
  2  3  1  0  0  0  0
  2  6  1  0  0  0  0
  2  7  1  0  0  0  0
  3  4  1  0  0  0  0
  3 42  1  0  0  0  0
  4 10  1  0  0  0  0
  4 43  1  0  0  0  0
  4 44  1  0  0  0  0
  5  8  1  0  0  0  0
  5  9  1  0  0  0  0
  5 13  1  0  0  0  0
  5 14  1  0  0  0  0
  6 48  1  0  0  0  0
  6 49  1  0  0  0  0
  6 50  1  0  0  0  0
  7 45  1  0  0  0  0
  7 46  1  0  0  0  0
  7 47  1  0  0  0  0
  8 12  1  0  0  0  0
  8 16  1  0  0  0  0
  8 51  1  0  0  0  0
  9 11  1  0  0  0  0
  9 52  1  0  0  0  0
  9 53  1  0  0  0  0
 10 17  1  0  0  0  0
 10 54  1  0  0  0  0
 10 55  1  0  0  0  0
 11 15  1  0  0  0  0
 11 56  1  0  0  0  0
 11 57  1  0  0  0  0
 12 15  2  0  0  0  0
 12 18  1  0  0  0  0
 13 60  1  0  0  0  0
 13 61  1  0  0  0  0
 13 62  1  0  0  0  0
 14 58  1  0  0  0  0
 14 59  1  0  0  0  0
 14 63  1  0  0  0  0
 15 64  1  0  0  0  0
 16 19  2  0  0  0  0
 16 65  1  0  0  0  0
 17 20  1  0  0  0  0
 17 21  2  0  0  0  0
 18 66  1  0  0  0  0
 18 67  1  0  0  0  0
 18 68  1  0  0  0  0
 19 22  1  0  0  0  0
 19 69  1  0  0  0  0
 20 70  1  0  0  0  0
 20 71  1  0  0  0  0
 20 72  1  0  0  0  0
 21 23  1  0  0  0  0
 21 73  1  0  0  0  0
 22 24  1  0  0  0  0
 22 25  2  0  0  0  0
 23 26  2  0  0  0  0
 23 74  1  0  0  0  0
 24 75  1  0  0  0  0
 24 76  1  0  0  0  0
 24 77  1  0  0  0  0
 25 27  1  0  0  0  0
 25 78  1  0  0  0  0
 26 28  1  0  0  0  0
 26 79  1  0  0  0  0
 27 29  2  0  0  0  0
 27 80  1  0  0  0  0
 28 30  1  0  0  0  0
 28 31  2  0  0  0  0
 29 32  1  0  0  0  0
 29 81  1  0  0  0  0
 30 82  1  0  0  0  0
 30 83  1  0  0  0  0
 30 84  1  0  0  0  0
 31 33  1  0  0  0  0
 31 85  1  0  0  0  0
 32 34  1  0  0  0  0
 32 35  2  0  0  0  0
 33 36  2  0  0  0  0
 33 86  1  0  0  0  0
 34 87  1  0  0  0  0
 34 88  1  0  0  0  0
 34 89  1  0  0  0  0
 35 37  1  0  0  0  0
 35 90  1  0  0  0  0
 36 38  1  0  0  0  0
 36 91  1  0  0  0  0
 37 39  2  0  0  0  0
 37 92  1  0  0  0  0
 38 40  2  0  0  0  0
 38 41  1  0  0  0  0
 39 40  1  0  0  0  0
 39 93  1  0  0  0  0
 40 94  1  0  0  0  0
 41 95  1  0  0  0  0
 41 96  1  0  0  0  0
 41 97  1  0  0  0  0
M  END
>  <PUBCHEM_COMPOUND_CID>
131752096

>  <PUBCHEM_COMPOUND_CANONICALIZED>
1

>  <PUBCHEM_CACTVS_COMPLEXITY>
1210

>  <PUBCHEM_CACTVS_HBOND_ACCEPTOR>
1

>  <PUBCHEM_CACTVS_HBOND_DONOR>
0

>  <PUBCHEM_CACTVS_ROTATABLE_BOND>
13

>  <PUBCHEM_CACTVS_SUBSKEYS>
AAADcfB8IAAAAAAAAAAAAAAAEgAAAAAAAAAgAAAAAAAAAAAAAAAAGgAAAAAAD1SggAICAAAABACAAiBCAAAAAAAgAAAICAAAAAgIAAIAAQACAAAEgAAIgAOAwEAPgAAAAAAAAAAAAAAAAAAAAAAAAAAAAA==

>  <PUBCHEM_IUPAC_OPENEYE_NAME>
2,2-dimethyl-3-[(3Z,5E,7E,9E,11Z,13E,15E,17E,19Z,21E)-3,7,11,16,20-pentamethyl-22-(2,6,6-trimethylcyclohex-2-en-1-yl)docosa-3,5,7,9,11,13,15,17,19,21-decaenyl]oxirane

>  <PUBCHEM_IUPAC_CAS_NAME>
2,2-dimethyl-3-[(3Z,5E,7E,9E,11Z,13E,15E,17E,19Z,21E)-3,7,11,16,20-pentamethyl-22-(2,6,6-trimethyl-1-cyclohex-2-enyl)docosa-3,5,7,9,11,13,15,17,19,21-decaenyl]oxirane

>  <PUBCHEM_IUPAC_NAME>
2,2-dimethyl-3-[(3Z,5E,7E,9E,11Z,13E,15E,17E,19Z,21E)-3,7,11,16,20-pentamethyl-22-(2,6,6-trimethylcyclohex-2-en-1-yl)docosa-3,5,7,9,11,13,15,17,19,21-decaenyl]oxirane

>  <PUBCHEM_IUPAC_SYSTEMATIC_NAME>
2,2-dimethyl-3-[(3Z,5E,7E,9E,11Z,13E,15E,17E,19Z,21E)-3,7,11,16,20-pentamethyl-22-(2,6,6-trimethylcyclohex-2-en-1-yl)docosa-3,5,7,9,11,13,15,17,19,21-decaenyl]oxirane

>  <PUBCHEM_IUPAC_TRADITIONAL_NAME>
2,2-dimethyl-3-[(3Z,5E,7E,9E,11Z,13E,15E,17E,19Z,21E)-3,7,11,16,20-pentamethyl-22-(2,6,6-trimethylcyclohex-2-en-1-yl)docosa-3,5,7,9,11,13,15,17,19,21-decaenyl]oxirane

>  <PUBCHEM_IUPAC_INCHI>
InChI=1S/C40H56O/c1-31(19-13-21-33(3)22-15-24-35(5)27-29-38-40(9,10)41-38)17-11-12-18-32(2)20-14-23-34(4)26-28-37-36(6)25-16-30-39(37,7)8/h11-15,17-26,28,37-38H,16,27,29-30H2,1-10H3/b12-11+,19-13+,20-14+,22-15+,28-26+,31-17-,32-18+,33-21+,34-23-,35-24-

>  <PUBCHEM_IUPAC_INCHIKEY>
CGHSLDCVYVQRJG-URLQBFNESA-N

>  <PUBCHEM_EXACT_MASS>
552.433

>  <PUBCHEM_MOLECULAR_FORMULA>
C40H56O

>  <PUBCHEM_MOLECULAR_WEIGHT>
552.887

>  <PUBCHEM_OPENEYE_CAN_SMILES>
CC1=CCCC(C1C=CC(=CC=CC(=CC=CC=C(C)C=CC=C(C)C=CC=C(C)CCC2C(O2)(C)C)C)C)(C)C

>  <PUBCHEM_OPENEYE_ISO_SMILES>
CC1=CCCC(C1/C=C/C(=C\C=C\C(=C\C=C\C=C(\C)/C=C/C=C(\C)/C=C/C=C(/C)\CCC2C(O2)(C)C)\C)/C)(C)C

>  <PUBCHEM_CACTVS_TPSA>
12.5

>  <PUBCHEM_MONOISOTOPIC_WEIGHT>
552.433

>  <PUBCHEM_TOTAL_CHARGE>
0

>  <PUBCHEM_HEAVY_ATOM_COUNT>
41

>  <PUBCHEM_ATOM_DEF_STEREO_COUNT>
0

>  <PUBCHEM_ATOM_UDEF_STEREO_COUNT>
2

>  <PUBCHEM_BOND_DEF_STEREO_COUNT>
10

>  <PUBCHEM_BOND_UDEF_STEREO_COUNT>
0

>  <PUBCHEM_ISOTOPIC_ATOM_COUNT>
0

>  <PUBCHEM_COMPONENT_COUNT>
1

>  <PUBCHEM_CACTVS_TAUTO_COUNT>
1001

>  <PUBCHEM_COORDINATE_TYPE>
1
5
255

>  <PUBCHEM_BONDANNOTATIONS>
3  4  3
8  16  3

$$$$
