131751479
 OpenBabel06101807152D

 93 98  0  0  1  0  0  0  0  0999 V2000
   10.4446   -3.2857    0.0000 O   0  0  0  0  0  0  0  0  0  0  0  0
    8.7126   -1.2857    0.0000 O   0  0  0  0  0  0  0  0  0  0  0  0
   11.3107   -1.7857    0.0000 O   0  0  0  0  0  0  0  0  0  0  0  0
    6.3378   -0.5196    0.0000 O   0  0  0  0  0  0  0  0  0  0  0  0
    8.7126   -4.2857    0.0000 O   0  0  0  0  0  0  0  0  0  0  0  0
   10.4446   -1.2857    0.0000 O   0  0  0  0  0  0  0  0  0  0  0  0
    6.9806   -3.2857    0.0000 O   0  0  0  0  0  0  0  0  0  0  0  0
    4.7102    0.0728    0.0000 O   0  0  0  0  0  0  0  0  0  0  0  0
   12.1767   -4.2857    0.0000 O   0  0  0  0  0  0  0  0  0  0  0  0
   13.9088   -3.2857    0.0000 O   0  0  0  0  0  0  0  0  0  0  0  0
   13.9088   -1.2857    0.0000 O   0  0  0  0  0  0  0  0  0  0  0  0
    5.6536   -2.3989    0.0000 O   0  0  0  0  0  0  0  0  0  0  0  0
    3.6841   -2.7463    0.0000 O   0  0  0  0  0  0  0  0  0  0  0  0
    2.3985   -1.2142    0.0000 O   0  0  0  0  0  0  0  0  0  0  0  0
   13.0427    0.2143    0.0000 O   0  0  0  0  0  0  0  0  0  0  0  0
    9.5786    1.2143    0.0000 O   0  3  0  0  0  0  0  0  0  0  0  0
   13.0809    1.2112    0.0000 O   0  0  0  0  0  0  0  0  0  0  0  0
   11.3228    4.2836    0.0000 O   0  0  0  0  0  0  0  0  0  0  0  0
    5.6394    0.9090    0.0000 O   0  0  0  0  0  0  0  0  0  0  0  0
    9.5786   -2.7857    0.0000 C   0  0  2  0  0  0  0  0  0  0  0  0
    8.7126   -3.2857    0.0000 C   0  0  2  0  0  0  0  0  0  0  0  0
    7.8466   -2.7857    0.0000 C   0  0  1  0  0  0  0  0  0  0  0  0
    7.8466   -1.7857    0.0000 C   0  0  1  0  0  0  0  0  0  0  0  0
    9.5786   -1.7857    0.0000 C   0  0  1  0  0  0  0  0  0  0  0  0
   11.3107   -2.7857    0.0000 C   0  0  2  0  0  0  0  0  0  0  0  0
   12.1767   -3.2857    0.0000 C   0  0  1  0  0  0  0  0  0  0  0  0
   13.0427   -2.7857    0.0000 C   0  0  2  0  0  0  0  0  0  0  0  0
   13.0427   -1.7857    0.0000 C   0  0  1  0  0  0  0  0  0  0  0  0
   12.1767   -1.2857    0.0000 C   0  0  3  0  0  0  0  0  0  0  0  0
    6.9806   -1.2857    0.0000 C   0  0  0  0  0  0  0  0  0  0  0  0
    5.3530   -0.6933    0.0000 C   0  0  2  0  0  0  0  0  0  0  0  0
    5.0109   -1.6330    0.0000 C   0  0  1  0  0  0  0  0  0  0  0  0
    4.0261   -1.8066    0.0000 C   0  0  1  0  0  0  0  0  0  0  0  0
    3.3833   -1.0406    0.0000 C   0  0  2  0  0  0  0  0  0  0  0  0
    3.7254   -0.1009    0.0000 C   0  0  2  0  0  0  0  0  0  0  0  0
   12.1767   -0.2857    0.0000 C   0  0  0  0  0  0  0  0  0  0  0  0
    3.0826    0.6652    0.0000 C   0  0  0  0  0  0  0  0  0  0  0  0
   10.4446   -0.2857    0.0000 C   0  0  0  0  0  0  0  0  0  0  0  0
    9.5786    0.2143    0.0000 C   0  0  0  0  0  0  0  0  0  0  0  0
   11.3107    0.2143    0.0000 C   0  0  0  0  0  0  0  0  0  0  0  0
   11.3107    1.2143    0.0000 C   0  0  0  0  0  0  0  0  0  0  0  0
    8.5938    0.3880    0.0000 C   0  0  0  0  0  0  0  0  0  0  0  0
   10.4446    1.7143    0.0000 C   0  0  0  0  0  0  0  0  0  0  0  0
   12.2207    1.7212    0.0000 C   0  0  0  0  0  0  0  0  0  0  0  0
   10.4286    2.7558    0.0000 C   0  0  0  0  0  0  0  0  0  0  0  0
    7.9510   -0.3781    0.0000 C   0  0  0  0  0  0  0  0  0  0  0  0
    8.2519    1.3278    0.0000 C   0  0  0  0  0  0  0  0  0  0  0  0
   12.2287    2.7628    0.0000 C   0  0  0  0  0  0  0  0  0  0  0  0
   11.3266    3.2836    0.0000 C   0  0  0  0  0  0  0  0  0  0  0  0
    6.9662   -0.2044    0.0000 C   0  0  0  0  0  0  0  0  0  0  0  0
    7.2670    1.5014    0.0000 C   0  0  0  0  0  0  0  0  0  0  0  0
    6.6242    0.7353    0.0000 C   0  0  0  0  0  0  0  0  0  0  0  0
    9.5786   -3.4057    0.0000 H   0  0  0  0  0  0  0  0  0  0  0  0
    8.1757   -3.5957    0.0000 H   0  0  0  0  0  0  0  0  0  0  0  0
    7.8466   -3.4057    0.0000 H   0  0  0  0  0  0  0  0  0  0  0  0
    7.8466   -1.1657    0.0000 H   0  0  0  0  0  0  0  0  0  0  0  0
    9.5786   -1.1657    0.0000 H   0  0  0  0  0  0  0  0  0  0  0  0
   10.7737   -2.4757    0.0000 H   0  0  0  0  0  0  0  0  0  0  0  0
   12.7136   -3.5957    0.0000 H   0  0  0  0  0  0  0  0  0  0  0  0
   13.5797   -2.4757    0.0000 H   0  0  0  0  0  0  0  0  0  0  0  0
   13.0427   -1.1657    0.0000 H   0  0  0  0  0  0  0  0  0  0  0  0
   11.6398   -0.9757    0.0000 H   0  0  0  0  0  0  0  0  0  0  0  0
    6.3866   -1.4635    0.0000 H   0  0  0  0  0  0  0  0  0  0  0  0
    7.3791   -0.8107    0.0000 H   0  0  0  0  0  0  0  0  0  0  0  0
    5.5650   -0.1107    0.0000 H   0  0  0  0  0  0  0  0  0  0  0  0
    5.6215   -1.5253    0.0000 H   0  0  0  0  0  0  0  0  0  0  0  0
    3.4155   -1.9143    0.0000 H   0  0  0  0  0  0  0  0  0  0  0  0
    2.9848   -0.5656    0.0000 H   0  0  0  0  0  0  0  0  0  0  0  0
    3.9374    0.4817    0.0000 H   0  0  0  0  0  0  0  0  0  0  0  0
    8.1757   -4.5957    0.0000 H   0  0  0  0  0  0  0  0  0  0  0  0
   11.9646    0.2969    0.0000 H   0  0  0  0  0  0  0  0  0  0  0  0
   11.5661   -0.3933    0.0000 H   0  0  0  0  0  0  0  0  0  0  0  0
    6.9806   -3.9057    0.0000 H   0  0  0  0  0  0  0  0  0  0  0  0
   12.7136   -4.5957    0.0000 H   0  0  0  0  0  0  0  0  0  0  0  0
   13.9088   -3.9057    0.0000 H   0  0  0  0  0  0  0  0  0  0  0  0
   14.4457   -1.5957    0.0000 H   0  0  0  0  0  0  0  0  0  0  0  0
    3.5575    1.0637    0.0000 H   0  0  0  0  0  0  0  0  0  0  0  0
    2.6840    1.1401    0.0000 H   0  0  0  0  0  0  0  0  0  0  0  0
    2.6076    0.2666    0.0000 H   0  0  0  0  0  0  0  0  0  0  0  0
    5.4416   -2.9816    0.0000 H   0  0  0  0  0  0  0  0  0  0  0  0
    3.0735   -2.8540    0.0000 H   0  0  0  0  0  0  0  0  0  0  0  0
    2.0000   -0.7393    0.0000 H   0  0  0  0  0  0  0  0  0  0  0  0
   13.5797   -0.0957    0.0000 H   0  0  0  0  0  0  0  0  0  0  0  0
   11.8476   -0.0957    0.0000 H   0  0  0  0  0  0  0  0  0  0  0  0
    9.8881    3.0596    0.0000 H   0  0  0  0  0  0  0  0  0  0  0  0
    8.1631   -0.9607    0.0000 H   0  0  0  0  0  0  0  0  0  0  0  0
    8.6504    1.8027    0.0000 H   0  0  0  0  0  0  0  0  0  0  0  0
   12.7668    3.0707    0.0000 H   0  0  0  0  0  0  0  0  0  0  0  0
    6.5677   -0.6794    0.0000 H   0  0  0  0  0  0  0  0  0  0  0  0
    7.0550    2.0840    0.0000 H   0  0  0  0  0  0  0  0  0  0  0  0
   13.6213    1.5150    0.0000 H   0  0  0  0  0  0  0  0  0  0  0  0
   11.8585    4.5957    0.0000 H   0  0  0  0  0  0  0  0  0  0  0  0
    5.2409    0.4340    0.0000 H   0  0  0  0  0  0  0  0  0  0  0  0
  2 23  1  0  0  0  0
  2 24  1  0  0  0  0
  3 25  1  0  0  0  0
  3 29  1  0  0  0  0
  4 30  1  0  0  0  0
  5 70  1  0  0  0  0
  6 38  1  0  0  0  0
  7 73  1  0  0  0  0
  8 31  1  0  0  0  0
  8 35  1  0  0  0  0
  9 74  1  0  0  0  0
 10 75  1  0  0  0  0
 11 76  1  0  0  0  0
 12 80  1  0  0  0  0
 13 81  1  0  0  0  0
 14 82  1  0  0  0  0
 15 36  1  0  0  0  0
 15 83  1  0  0  0  0
 16 39  2  0  0  0  0
 16 43  1  0  0  0  0
 17 44  1  0  0  0  0
 17 91  1  0  0  0  0
 18 49  1  0  0  0  0
 18 92  1  0  0  0  0
 19 52  1  0  0  0  0
 19 93  1  0  0  0  0
 20  1  1  0  0  0  0
 20 21  1  6  0  0  0
 20 53  1  0  0  0  0
 21  5  1  0  0  0  0
 21 22  1  1  0  0  0
 21 54  1  0  0  0  0
 22  7  1  0  0  0  0
 22 23  1  1  0  0  0
 22 55  1  0  0  0  0
 23 30  1  0  0  0  0
 23 56  1  6  0  0  0
 24  6  1  0  0  0  0
 24 20  1  6  0  0  0
 24 57  1  0  0  0  0
 25  1  1  0  0  0  0
 25 26  1  1  0  0  0
 25 58  1  0  0  0  0
 26  9  1  0  0  0  0
 26 27  1  1  0  0  0
 26 59  1  0  0  0  0
 27 10  1  0  0  0  0
 27 28  1  6  0  0  0
 27 60  1  0  0  0  0
 28 11  1  0  0  0  0
 28 29  1  1  0  0  0
 28 61  1  0  0  0  0
 29 36  1  0  0  0  0
 29 62  1  0  0  0  0
 30 63  1  0  0  0  0
 30 64  1  0  0  0  0
 31  4  1  0  0  0  0
 31 32  1  6  0  0  0
 31 65  1  0  0  0  0
 32 12  1  0  0  0  0
 32 33  1  1  0  0  0
 32 66  1  0  0  0  0
 33 13  1  0  0  0  0
 33 34  1  6  0  0  0
 33 67  1  0  0  0  0
 34 14  1  0  0  0  0
 34 35  1  1  0  0  0
 34 68  1  0  0  0  0
 35 37  1  0  0  0  0
 35 69  1  1  0  0  0
 36 71  1  0  0  0  0
 36 72  1  0  0  0  0
 37 77  1  0  0  0  0
 37 78  1  0  0  0  0
 37 79  1  0  0  0  0
 38 39  1  0  0  0  0
 38 40  2  0  0  0  0
 39 42  1  0  0  0  0
 40 41  1  0  0  0  0
 40 84  1  0  0  0  0
 41 43  1  0  0  0  0
 41 44  2  0  0  0  0
 42 46  2  0  0  0  0
 42 47  1  0  0  0  0
 43 45  2  0  0  0  0
 44 48  1  0  0  0  0
 45 49  1  0  0  0  0
 45 85  1  0  0  0  0
 46 50  1  0  0  0  0
 46 86  1  0  0  0  0
 47 51  2  0  0  0  0
 47 87  1  0  0  0  0
 48 49  2  0  0  0  0
 48 88  1  0  0  0  0
 50 52  2  0  0  0  0
 50 89  1  0  0  0  0
 51 52  1  0  0  0  0
 51 90  1  0  0  0  0
M  CHG  1  16   1
M  END
>  <PUBCHEM_COMPOUND_CID>
131751479

>  <PUBCHEM_COMPOUND_CANONICALIZED>
1

>  <PUBCHEM_CACTVS_COMPLEXITY>
1130

>  <PUBCHEM_CACTVS_HBOND_ACCEPTOR>
18

>  <PUBCHEM_CACTVS_HBOND_DONOR>
12

>  <PUBCHEM_CACTVS_ROTATABLE_BOND>
9

>  <PUBCHEM_CACTVS_SUBSKEYS>
AAADcfB8PgAAAAAAAAAAAAAAAAAAAAAAAAA0aJEiAAAAAACR9AAAGgAACAAADBSwmAMyDsAABkCIAqBSAAICCAAkIAAIiAFGiMgdNzaGNR6ieWKl4BUPuYfK7OzOIAAACAAIAABAAAAQABAAAAAAAAAAAA==

>  <PUBCHEM_IUPAC_OPENEYE_NAME>
(2R,3R,4R,5R,6S)-2-[[(2R,3S,4S,5R,6S)-6-[5,7-dihydroxy-2-(4-hydroxyphenyl)chromenylium-3-yl]oxy-3,4-dihydroxy-5-[(2S,3R,4S,5S)-3,4,5-trihydroxy-6-(hydroxymethyl)tetrahydropyran-2-yl]oxy-tetrahydropyran-2-yl]methoxy]-6-methyl-tetrahydropyran-3,4,5-triol

>  <PUBCHEM_IUPAC_CAS_NAME>
(2R,3R,4R,5R,6S)-2-[[(2R,3S,4S,5R,6S)-6-[[5,7-dihydroxy-2-(4-hydroxyphenyl)-1-benzopyrylium-3-yl]oxy]-3,4-dihydroxy-5-[[(2S,3R,4S,5S)-3,4,5-trihydroxy-6-(hydroxymethyl)-2-oxanyl]oxy]-2-oxanyl]methoxy]-6-methyloxane-3,4,5-triol

>  <PUBCHEM_IUPAC_NAME>
(2R,3R,4R,5R,6S)-2-[[(2R,3S,4S,5R,6S)-6-[5,7-dihydroxy-2-(4-hydroxyphenyl)chromenylium-3-yl]oxy-3,4-dihydroxy-5-[(2S,3R,4S,5S)-3,4,5-trihydroxy-6-(hydroxymethyl)oxan-2-yl]oxyoxan-2-yl]methoxy]-6-methyloxane-3,4,5-triol

>  <PUBCHEM_IUPAC_SYSTEMATIC_NAME>
(2R,3R,4R,5R,6S)-2-[[(2R,3S,4S,5R,6S)-5-[(2S,3R,4S,5S)-6-(hydroxymethyl)-3,4,5-tris(oxidanyl)oxan-2-yl]oxy-6-[2-(4-hydroxyphenyl)-5,7-bis(oxidanyl)chromenylium-3-yl]oxy-3,4-bis(oxidanyl)oxan-2-yl]methoxy]-6-methyl-oxane-3,4,5-triol

>  <PUBCHEM_IUPAC_TRADITIONAL_NAME>
(2R,3R,4R,5R,6S)-2-[[(2R,3S,4S,5R,6S)-6-[[5,7-dihydroxy-2-(4-hydroxyphenyl)-1-benzopyrylium-3-yl]oxy]-3,4-dihydroxy-5-[(2S,3R,4S,5S)-3,4,5-trihydroxy-6-methylol-tetrahydropyran-2-yl]oxy-tetrahydropyran-2-yl]methoxy]-6-methyl-tetrahydropyran-3,4,5-triol

>  <PUBCHEM_IUPAC_INCHI>
InChI=1S/C33H40O19/c1-11-21(38)24(41)27(44)31(47-11)46-10-20-23(40)26(43)30(52-32-28(45)25(42)22(39)19(9-34)50-32)33(51-20)49-18-8-15-16(37)6-14(36)7-17(15)48-29(18)12-2-4-13(35)5-3-12/h2-8,11,19-28,30-34,38-45H,9-10H2,1H3,(H2-,35,36,37)/p+1/t11-,19?,20+,21-,22+,23+,24+,25-,26-,27+,28+,30+,31+,32-,33+/m0/s1

>  <PUBCHEM_IUPAC_INCHIKEY>
YGSWCXGIDLPEGH-HVZHPKBVSA-O

>  <PUBCHEM_EXACT_MASS>
741.224

>  <PUBCHEM_MOLECULAR_FORMULA>
C33H41O19+

>  <PUBCHEM_MOLECULAR_WEIGHT>
741.672

>  <PUBCHEM_OPENEYE_CAN_SMILES>
CC1C(C(C(C(O1)OCC2C(C(C(C(O2)OC3=C([O+]=C4C=C(C=C(C4=C3)O)O)C5=CC=C(C=C5)O)OC6C(C(C(C(O6)CO)O)O)O)O)O)O)O)O

>  <PUBCHEM_OPENEYE_ISO_SMILES>
C[C@H]1[C@@H]([C@H]([C@H]([C@@H](O1)OC[C@@H]2[C@H]([C@@H]([C@H]([C@@H](O2)OC3=C([O+]=C4C=C(C=C(C4=C3)O)O)C5=CC=C(C=C5)O)O[C@H]6[C@@H]([C@H]([C@@H](C(O6)CO)O)O)O)O)O)O)O)O

>  <PUBCHEM_CACTVS_TPSA>
299

>  <PUBCHEM_MONOISOTOPIC_WEIGHT>
741.224

>  <PUBCHEM_TOTAL_CHARGE>
1

>  <PUBCHEM_HEAVY_ATOM_COUNT>
52

>  <PUBCHEM_ATOM_DEF_STEREO_COUNT>
14

>  <PUBCHEM_ATOM_UDEF_STEREO_COUNT>
1

>  <PUBCHEM_BOND_DEF_STEREO_COUNT>
0

>  <PUBCHEM_BOND_UDEF_STEREO_COUNT>
0

>  <PUBCHEM_ISOTOPIC_ATOM_COUNT>
0

>  <PUBCHEM_COMPONENT_COUNT>
1

>  <PUBCHEM_CACTVS_TAUTO_COUNT>
70

>  <PUBCHEM_COORDINATE_TYPE>
1
5
255

>  <PUBCHEM_BONDANNOTATIONS>
20  1  6
25  1  6
27  10  6
28  11  5
32  12  6
33  13  6
34  14  5
16  39  8
16  43  8
23  30  5
29  36  3
35  37  6
38  39  8
38  40  8
31  4  5
40  41  8
41  43  8
41  44  8
42  46  8
42  47  8
43  45  8
44  48  8
45  49  8
46  50  8
47  51  8
48  49  8
21  5  5
50  52  8
51  52  8
24  6  5
22  7  6
26  9  5

$$$$
