131751144
 OpenBabel06101807152D

137141  0  0  1  0  0  0  0  0999 V2000
    7.2720   -4.8430    0.0000 Mg  0  2  0  0  0 15  0  0  0  0  0  0
    8.1005   -4.2831    0.0000 O   0  5  0  0  0  0  0  0  0  0  0  0
   10.4256   -3.3697    0.0000 O   0  0  0  0  0  0  0  0  0  0  0  0
   13.1449   -0.6900    0.0000 O   0  0  0  0  0  0  0  0  0  0  0  0
   10.6312   -1.6499    0.0000 O   0  0  0  0  0  0  0  0  0  0  0  0
   12.1022   -2.0731    0.0000 O   0  0  0  0  0  0  0  0  0  0  0  0
    2.0000    0.9056    0.0000 O   0  0  0  0  0  0  0  0  0  0  0  0
    8.1923    0.1932    0.0000 N   0  0  0  0  0  0  0  0  0  0  0  0
    6.7126   -1.1562    0.0000 N   0  0  0  0  0  0  0  0  0  0  0  0
    6.6795    1.5427    0.0000 N   0  0  0  0  0  0  0  0  0  0  0  0
    5.2309    0.1932    0.0000 N   0  0  0  0  0  0  0  0  0  0  0  0
    9.7067   -0.2671    0.0000 C   0  0  3  0  0  0  0  0  0  0  0  0
    9.7067    0.7194    0.0000 C   0  0  3  0  0  0  0  0  0  0  0  0
    8.7846   -0.5310    0.0000 C   0  0  0  0  0  0  0  0  0  0  0  0
   10.5052   -0.8691    0.0000 C   0  0  0  0  0  0  0  0  0  0  0  0
    8.4894   -1.4847    0.0000 C   0  0  0  0  0  0  0  0  0  0  0  0
    8.7516    0.9834    0.0000 C   0  0  0  0  0  0  0  0  0  0  0  0
    9.0390   -2.3317    0.0000 C   0  0  3  0  0  0  0  0  0  0  0  0
    7.5028   -1.7486    0.0000 C   0  0  0  0  0  0  0  0  0  0  0  0
   10.5025    1.3250    0.0000 C   0  0  0  0  0  0  0  0  0  0  0  0
    7.2058   -2.7022    0.0000 C   0  0  0  0  0  0  0  0  0  0  0  0
   11.4258   -0.4785    0.0000 C   0  0  0  0  0  0  0  0  0  0  0  0
    8.0299   -3.2856    0.0000 C   0  0  0  0  0  0  0  0  0  0  0  0
    8.4563    1.9041    0.0000 C   0  0  0  0  0  0  0  0  0  0  0  0
    6.2190   -2.7022    0.0000 C   0  0  0  0  0  0  0  0  0  0  0  0
   22.5389   -2.3494    0.0000 C   0  0  3  0  0  0  0  0  0  0  0  0
   21.7404   -1.7474    0.0000 C   0  0  0  0  0  0  0  0  0  0  0  0
   19.1007   -1.9265    0.0000 C   0  0  3  0  0  0  0  0  0  0  0  0
   20.8198   -2.1380    0.0000 C   0  0  0  0  0  0  0  0  0  0  0  0
   20.0213   -1.5360    0.0000 C   0  0  0  0  0  0  0  0  0  0  0  0
   10.0319   -2.4504    0.0000 C   0  0  0  0  0  0  0  0  0  0  0  0
    5.9222   -1.7817    0.0000 C   0  0  0  0  0  0  0  0  0  0  0  0
   23.4595   -1.9589    0.0000 C   0  0  0  0  0  0  0  0  0  0  0  0
    7.5028    2.2011    0.0000 C   0  0  0  0  0  0  0  0  0  0  0  0
   18.3022   -1.3245    0.0000 C   0  0  0  0  0  0  0  0  0  0  0  0
   24.2580   -2.5609    0.0000 C   0  0  0  0  0  0  0  0  0  0  0  0
   12.2243   -1.0805    0.0000 C   0  0  0  0  0  0  0  0  0  0  0  0
    5.6304   -3.5106    0.0000 C   0  0  0  0  0  0  0  0  0  0  0  0
   25.1785   -2.1704    0.0000 C   0  0  0  0  0  0  0  0  0  0  0  0
   22.4168   -3.3420    0.0000 C   0  0  0  0  0  0  0  0  0  0  0  0
   17.3816   -1.7150    0.0000 C   0  0  0  0  0  0  0  0  0  0  0  0
    7.1727    3.1216    0.0000 C   0  0  0  0  0  0  0  0  0  0  0  0
   18.9786   -2.9190    0.0000 C   0  0  0  0  0  0  0  0  0  0  0  0
    4.9686   -1.4847    0.0000 C   0  0  0  0  0  0  0  0  0  0  0  0
   25.9770   -2.7724    0.0000 C   0  0  0  0  0  0  0  0  0  0  0  0
    5.8892    2.1681    0.0000 C   0  0  0  0  0  0  0  0  0  0  0  0
    6.1862    3.1216    0.0000 C   0  0  0  0  0  0  0  0  0  0  0  0
   16.5831   -1.1130    0.0000 C   0  0  0  0  0  0  0  0  0  0  0  0
    4.6717   -0.5640    0.0000 C   0  0  0  0  0  0  0  0  0  0  0  0
    7.7482    3.9394    0.0000 C   0  0  0  0  0  0  0  0  0  0  0  0
   15.6625   -1.5035    0.0000 C   0  0  0  0  0  0  0  0  0  0  0  0
    4.9356    1.9041    0.0000 C   0  0  0  0  0  0  0  0  0  0  0  0
    3.7181   -0.3000    0.0000 C   0  0  0  0  0  0  0  0  0  0  0  0
   13.9434   -1.2920    0.0000 C   0  0  0  0  0  0  0  0  0  0  0  0
   26.8976   -2.3819    0.0000 C   0  0  0  0  0  0  0  0  0  0  0  0
   25.8549   -3.7649    0.0000 C   0  0  0  0  0  0  0  0  0  0  0  0
    4.6717    0.9504    0.0000 C   0  0  0  0  0  0  0  0  0  0  0  0
    3.7181    0.6865    0.0000 C   0  0  0  0  0  0  0  0  0  0  0  0
   14.8640   -0.9015    0.0000 C   0  0  0  0  0  0  0  0  0  0  0  0
    5.5934    3.9270    0.0000 C   0  0  0  0  0  0  0  0  0  0  0  0
   11.4185   -3.4884    0.0000 C   0  0  0  0  0  0  0  0  0  0  0  0
    2.9223   -0.9055    0.0000 C   0  0  0  0  0  0  0  0  0  0  0  0
   15.5404   -2.4960    0.0000 C   0  0  0  0  0  0  0  0  0  0  0  0
    2.9223    1.2921    0.0000 C   0  0  0  0  0  0  0  0  0  0  0  0
    3.0487   -1.8975    0.0000 C   0  0  0  0  0  0  0  0  0  0  0  0
    5.9946    4.8430    0.0000 C   0  0  0  0  0  0  0  0  0  0  0  0
   10.2616    0.0095    0.0000 H   0  0  0  0  0  0  0  0  0  0  0  0
    9.5894    1.3282    0.0000 H   0  0  0  0  0  0  0  0  0  0  0  0
   10.0517   -1.2918    0.0000 H   0  0  0  0  0  0  0  0  0  0  0  0
   10.8428   -1.3891    0.0000 H   0  0  0  0  0  0  0  0  0  0  0  0
    9.3668   -1.8054    0.0000 H   0  0  0  0  0  0  0  0  0  0  0  0
   10.8780    0.8317    0.0000 H   0  0  0  0  0  0  0  0  0  0  0  0
   10.9958    1.7005    0.0000 H   0  0  0  0  0  0  0  0  0  0  0  0
   10.1270    1.8184    0.0000 H   0  0  0  0  0  0  0  0  0  0  0  0
   11.8794   -0.0558    0.0000 H   0  0  0  0  0  0  0  0  0  0  0  0
   11.0883    0.0415    0.0000 H   0  0  0  0  0  0  0  0  0  0  0  0
    8.8928    2.3444    0.0000 H   0  0  0  0  0  0  0  0  0  0  0  0
   21.9681   -2.5916    0.0000 H   0  0  0  0  0  0  0  0  0  0  0  0
   22.1939   -1.3247    0.0000 H   0  0  0  0  0  0  0  0  0  0  0  0
   21.4028   -1.2274    0.0000 H   0  0  0  0  0  0  0  0  0  0  0  0
   18.5299   -2.1686    0.0000 H   0  0  0  0  0  0  0  0  0  0  0  0
   20.3662   -2.5607    0.0000 H   0  0  0  0  0  0  0  0  0  0  0  0
   21.1573   -2.6580    0.0000 H   0  0  0  0  0  0  0  0  0  0  0  0
   20.4748   -1.1132    0.0000 H   0  0  0  0  0  0  0  0  0  0  0  0
   19.6837   -1.0159    0.0000 H   0  0  0  0  0  0  0  0  0  0  0  0
   23.9130   -1.5362    0.0000 H   0  0  0  0  0  0  0  0  0  0  0  0
   23.1219   -1.4389    0.0000 H   0  0  0  0  0  0  0  0  0  0  0  0
   18.7557   -0.9017    0.0000 H   0  0  0  0  0  0  0  0  0  0  0  0
   17.9646   -0.8044    0.0000 H   0  0  0  0  0  0  0  0  0  0  0  0
   23.8044   -2.9837    0.0000 H   0  0  0  0  0  0  0  0  0  0  0  0
   24.5955   -3.0810    0.0000 H   0  0  0  0  0  0  0  0  0  0  0  0
    5.1292   -3.1456    0.0000 H   0  0  0  0  0  0  0  0  0  0  0  0
    5.2654   -4.0118    0.0000 H   0  0  0  0  0  0  0  0  0  0  0  0
    6.1316   -3.8755    0.0000 H   0  0  0  0  0  0  0  0  0  0  0  0
   25.6321   -1.7477    0.0000 H   0  0  0  0  0  0  0  0  0  0  0  0
   24.8410   -1.6504    0.0000 H   0  0  0  0  0  0  0  0  0  0  0  0
   21.8014   -3.2663    0.0000 H   0  0  0  0  0  0  0  0  0  0  0  0
   22.3411   -3.9573    0.0000 H   0  0  0  0  0  0  0  0  0  0  0  0
   23.0321   -3.4177    0.0000 H   0  0  0  0  0  0  0  0  0  0  0  0
   16.9281   -2.1377    0.0000 H   0  0  0  0  0  0  0  0  0  0  0  0
   17.7191   -2.2351    0.0000 H   0  0  0  0  0  0  0  0  0  0  0  0
   18.3632   -2.8433    0.0000 H   0  0  0  0  0  0  0  0  0  0  0  0
   18.9029   -3.5344    0.0000 H   0  0  0  0  0  0  0  0  0  0  0  0
   19.5939   -2.9947    0.0000 H   0  0  0  0  0  0  0  0  0  0  0  0
    4.5324   -1.9253    0.0000 H   0  0  0  0  0  0  0  0  0  0  0  0
    6.6811    0.9227    0.0000 H   0  0  0  0  0  0  0  0  0  0  0  0
   26.4721   -3.1457    0.0000 H   0  0  0  0  0  0  0  0  0  0  0  0
   17.0366   -0.6903    0.0000 H   0  0  0  0  0  0  0  0  0  0  0  0
   16.2455   -0.5929    0.0000 H   0  0  0  0  0  0  0  0  0  0  0  0
    8.2553    3.5826    0.0000 H   0  0  0  0  0  0  0  0  0  0  0  0
    8.1050    4.4464    0.0000 H   0  0  0  0  0  0  0  0  0  0  0  0
    7.2412    4.2962    0.0000 H   0  0  0  0  0  0  0  0  0  0  0  0
    4.4972    2.3425    0.0000 H   0  0  0  0  0  0  0  0  0  0  0  0
   13.4899   -1.7148    0.0000 H   0  0  0  0  0  0  0  0  0  0  0  0
   14.2810   -1.8121    0.0000 H   0  0  0  0  0  0  0  0  0  0  0  0
   27.1398   -2.9527    0.0000 H   0  0  0  0  0  0  0  0  0  0  0  0
   25.2396   -3.6892    0.0000 H   0  0  0  0  0  0  0  0  0  0  0  0
   25.7792   -4.3803    0.0000 H   0  0  0  0  0  0  0  0  0  0  0  0
   27.4684   -2.1398    0.0000 H   0  0  0  0  0  0  0  0  0  0  0  0
   26.6555   -1.8111    0.0000 H   0  0  0  0  0  0  0  0  0  0  0  0
   26.4703   -3.8406    0.0000 H   0  0  0  0  0  0  0  0  0  0  0  0
   14.9397   -0.2861    0.0000 H   0  0  0  0  0  0  0  0  0  0  0  0
    4.9772    3.8584    0.0000 H   0  0  0  0  0  0  0  0  0  0  0  0
   11.3449   -4.1040    0.0000 H   0  0  0  0  0  0  0  0  0  0  0  0
   12.0341   -3.5620    0.0000 H   0  0  0  0  0  0  0  0  0  0  0  0
   11.4921   -2.8728    0.0000 H   0  0  0  0  0  0  0  0  0  0  0  0
    2.6383   -0.3544    0.0000 H   0  0  0  0  0  0  0  0  0  0  0  0
    2.3302   -1.0895    0.0000 H   0  0  0  0  0  0  0  0  0  0  0  0
   14.9250   -2.4203    0.0000 H   0  0  0  0  0  0  0  0  0  0  0  0
   15.4647   -3.1114    0.0000 H   0  0  0  0  0  0  0  0  0  0  0  0
   16.1558   -2.5717    0.0000 H   0  0  0  0  0  0  0  0  0  0  0  0
    3.0007    1.9071    0.0000 H   0  0  0  0  0  0  0  0  0  0  0  0
    2.4337   -1.9759    0.0000 H   0  0  0  0  0  0  0  0  0  0  0  0
    3.1271   -2.5125    0.0000 H   0  0  0  0  0  0  0  0  0  0  0  0
    3.6637   -1.8191    0.0000 H   0  0  0  0  0  0  0  0  0  0  0  0
    6.6108    4.9116    0.0000 H   0  0  0  0  0  0  0  0  0  0  0  0
    5.6271    5.3424    0.0000 H   0  0  0  0  0  0  0  0  0  0  0  0
  2 23  1  0  0  0  0
  3 31  1  0  0  0  0
  3 61  1  0  0  0  0
  4 37  1  0  0  0  0
  4 54  1  0  0  0  0
  5 31  2  0  0  0  0
  6 37  2  0  0  0  0
  7 64  2  0  0  0  0
  8 14  1  0  0  0  0
  8 17  2  0  0  0  0
  9 19  2  0  0  0  0
  9 32  1  0  0  0  0
 10 34  1  0  0  0  0
 10 46  1  0  0  0  0
 10106  1  0  0  0  0
 11 49  1  0  0  0  0
 11 57  2  0  0  0  0
 12 13  1  0  0  0  0
 12 14  1  0  0  0  0
 12 15  1  0  0  0  0
 12 67  1  0  0  0  0
 13 17  1  0  0  0  0
 13 20  1  0  0  0  0
 13 68  1  0  0  0  0
 14 16  2  0  0  0  0
 15 22  1  0  0  0  0
 15 69  1  0  0  0  0
 15 70  1  0  0  0  0
 16 18  1  0  0  0  0
 16 19  1  0  0  0  0
 17 24  1  0  0  0  0
 18 23  1  0  0  0  0
 18 31  1  0  0  0  0
 18 71  1  0  0  0  0
 19 21  1  0  0  0  0
 20 72  1  0  0  0  0
 20 73  1  0  0  0  0
 20 74  1  0  0  0  0
 21 23  2  0  0  0  0
 21 25  1  0  0  0  0
 22 37  1  0  0  0  0
 22 75  1  0  0  0  0
 22 76  1  0  0  0  0
 24 34  2  0  0  0  0
 24 77  1  0  0  0  0
 25 32  2  0  0  0  0
 25 38  1  0  0  0  0
 26 27  1  0  0  0  0
 26 33  1  0  0  0  0
 26 40  1  0  0  0  0
 26 78  1  0  0  0  0
 27 29  1  0  0  0  0
 27 79  1  0  0  0  0
 27 80  1  0  0  0  0
 28 30  1  0  0  0  0
 28 35  1  0  0  0  0
 28 43  1  0  0  0  0
 28 81  1  0  0  0  0
 29 30  1  0  0  0  0
 29 82  1  0  0  0  0
 29 83  1  0  0  0  0
 30 84  1  0  0  0  0
 30 85  1  0  0  0  0
 32 44  1  0  0  0  0
 33 36  1  0  0  0  0
 33 86  1  0  0  0  0
 33 87  1  0  0  0  0
 34 42  1  0  0  0  0
 35 41  1  0  0  0  0
 35 88  1  0  0  0  0
 35 89  1  0  0  0  0
 36 39  1  0  0  0  0
 36 90  1  0  0  0  0
 36 91  1  0  0  0  0
 38 92  1  0  0  0  0
 38 93  1  0  0  0  0
 38 94  1  0  0  0  0
 39 45  1  0  0  0  0
 39 95  1  0  0  0  0
 39 96  1  0  0  0  0
 40 97  1  0  0  0  0
 40 98  1  0  0  0  0
 40 99  1  0  0  0  0
 41 48  1  0  0  0  0
 41100  1  0  0  0  0
 41101  1  0  0  0  0
 42 47  2  0  0  0  0
 42 50  1  0  0  0  0
 43102  1  0  0  0  0
 43103  1  0  0  0  0
 43104  1  0  0  0  0
 44 49  2  0  0  0  0
 44105  1  0  0  0  0
 45 55  1  0  0  0  0
 45 56  1  0  0  0  0
 45107  1  0  0  0  0
 46 47  1  0  0  0  0
 46 52  2  0  0  0  0
 47 60  1  0  0  0  0
 48 51  1  0  0  0  0
 48108  1  0  0  0  0
 48109  1  0  0  0  0
 49 53  1  0  0  0  0
 50110  1  0  0  0  0
 50111  1  0  0  0  0
 50112  1  0  0  0  0
 51 59  2  0  0  0  0
 51 63  1  0  0  0  0
 52 57  1  0  0  0  0
 52113  1  0  0  0  0
 53 58  2  0  0  0  0
 53 62  1  0  0  0  0
 54 59  1  0  0  0  0
 54114  1  0  0  0  0
 54115  1  0  0  0  0
 55116  1  0  0  0  0
 55119  1  0  0  0  0
 55120  1  0  0  0  0
 56117  1  0  0  0  0
 56118  1  0  0  0  0
 56121  1  0  0  0  0
 57 58  1  0  0  0  0
 58 64  1  0  0  0  0
 59122  1  0  0  0  0
 60 66  2  0  0  0  0
 60123  1  0  0  0  0
 61124  1  0  0  0  0
 61125  1  0  0  0  0
 61126  1  0  0  0  0
 62 65  1  0  0  0  0
 62127  1  0  0  0  0
 62128  1  0  0  0  0
 63129  1  0  0  0  0
 63130  1  0  0  0  0
 63131  1  0  0  0  0
 64132  1  0  0  0  0
 65133  1  0  0  0  0
 65134  1  0  0  0  0
 65135  1  0  0  0  0
 66136  1  0  0  0  0
 66137  1  0  0  0  0
M  CHG  2   1   2   2  -1
M  END
>  <PUBCHEM_COMPOUND_CID>
131751144

>  <PUBCHEM_COMPOUND_CANONICALIZED>
1

>  <PUBCHEM_CACTVS_COMPLEXITY>
2350

>  <PUBCHEM_CACTVS_HBOND_ACCEPTOR>
10

>  <PUBCHEM_CACTVS_HBOND_DONOR>
1

>  <PUBCHEM_CACTVS_ROTATABLE_BOND>
23

>  <PUBCHEM_CACTVS_SUBSKEYS>
AAADcfB/uAAAACAAAAAAAAAAAAAAAQIECBAAAAAAAAAAAAAAAAAAHgAQAAAADQyhgAICCALABACoAyzyzACAAAAgIgAICAEwAFgIBBYAoQAGEAAF4ACIoQOY2fCOgAAAAAAAAAAAAAAAAAAAAAAAAAAAAA==

>  <PUBCHEM_IUPAC_INCHI>
InChI=1S/C55H72N4O6.Mg/c1-12-38-35(8)42-27-43-36(9)40(23-24-48(61)65-26-25-34(7)22-16-21-33(6)20-15-19-32(5)18-14-17-31(3)4)52(58-43)50-51(55(63)64-11)54(62)49-37(10)44(59-53(49)50)28-46-39(13-2)41(30-60)47(57-46)29-45(38)56-42;/h12,25,27-33,36,40,51,56,62H,1,13-24,26H2,2-11H3;/q;+2/p-1/b34-25+,42-27?,45-29?,46-28?,52-50?;

>  <PUBCHEM_IUPAC_INCHIKEY>
IPFFJTAKHDUFIM-WYLZRGPBSA-M

>  <PUBCHEM_EXACT_MASS>
907.522

>  <PUBCHEM_MOLECULAR_FORMULA>
C55H71MgN4O6+

>  <PUBCHEM_MOLECULAR_WEIGHT>
908.5

>  <PUBCHEM_OPENEYE_CAN_SMILES>
CCC1=C(C2=NC1=CC3=C(C4=C(C(C(=C5C(C(C(=N5)C=C6C(=C(C(=C2)N6)C=C)C)C)CCC(=O)OCC=C(C)CCCC(C)CCCC(C)CCCC(C)C)C4=N3)C(=O)OC)[O-])C)C=O.[Mg+2]

>  <PUBCHEM_OPENEYE_ISO_SMILES>
CCC1=C(C2=NC1=CC3=C(C4=C(C(C(=C5C(C(C(=N5)C=C6C(=C(C(=C2)N6)C=C)C)C)CCC(=O)OC/C=C(\C)/CCCC(C)CCCC(C)CCCC(C)C)C4=N3)C(=O)OC)[O-])C)C=O.[Mg+2]

>  <PUBCHEM_CACTVS_TPSA>
142

>  <PUBCHEM_MONOISOTOPIC_WEIGHT>
907.522

>  <PUBCHEM_TOTAL_CHARGE>
1

>  <PUBCHEM_HEAVY_ATOM_COUNT>
66

>  <PUBCHEM_ATOM_DEF_STEREO_COUNT>
0

>  <PUBCHEM_ATOM_UDEF_STEREO_COUNT>
5

>  <PUBCHEM_BOND_DEF_STEREO_COUNT>
1

>  <PUBCHEM_BOND_UDEF_STEREO_COUNT>
0

>  <PUBCHEM_ISOTOPIC_ATOM_COUNT>
0

>  <PUBCHEM_COMPONENT_COUNT>
2

>  <PUBCHEM_CACTVS_TAUTO_COUNT>
1001

>  <PUBCHEM_COORDINATE_TYPE>
1
5
255

>  <PUBCHEM_BONDANNOTATIONS>
10  34  8
10  46  8
11  49  8
11  57  8
12  15  3
13  20  3
14  16  8
16  19  8
17  24  8
18  31  3
19  21  8
21  25  8
24  34  8
25  32  8
26  40  3
28  43  3
32  44  8
34  42  8
42  47  8
44  49  8
46  47  8
46  52  8
49  53  8
52  57  8
53  58  8
57  58  8
8  14  8
8  17  8
9  19  8
9  32  8

$$$$
