131751235
 OpenBabel06101807152D

 61 60  0  0  0  0  0  0  0  0999 V2000
   13.2583   -5.7500    0.0000 O   0  0  0  0  0  0  0  0  0  0  0  0
    3.7320    6.7500    0.0000 O   0  0  0  0  0  0  0  0  0  0  0  0
   12.3923   -4.2500    0.0000 O   0  0  0  0  0  0  0  0  0  0  0  0
    5.4641    0.7500    0.0000 C   0  0  0  0  0  0  0  0  0  0  0  0
    8.0622   -2.7500    0.0000 C   0  0  0  0  0  0  0  0  0  0  0  0
    5.4641    1.7500    0.0000 C   0  0  0  0  0  0  0  0  0  0  0  0
    3.7320    3.7500    0.0000 C   0  0  0  0  0  0  0  0  0  0  0  0
    6.3301    0.2500    0.0000 C   0  0  0  0  0  0  0  0  0  0  0  0
    7.1962   -2.2500    0.0000 C   0  0  0  0  0  0  0  0  0  0  0  0
    8.0622   -3.7500    0.0000 C   0  0  0  0  0  0  0  0  0  0  0  0
    4.5981    3.2500    0.0000 C   0  0  0  0  0  0  0  0  0  0  0  0
    4.5981    2.2500    0.0000 C   0  0  0  0  0  0  0  0  0  0  0  0
    9.7942   -5.7500    0.0000 C   0  0  0  0  0  0  0  0  0  0  0  0
    6.3301   -0.7500    0.0000 C   0  0  0  0  0  0  0  0  0  0  0  0
    4.5981    0.2500    0.0000 C   0  0  0  0  0  0  0  0  0  0  0  0
    7.1962   -1.2500    0.0000 C   0  0  0  0  0  0  0  0  0  0  0  0
    8.9282   -2.2500    0.0000 C   0  0  0  0  0  0  0  0  0  0  0  0
    8.9282   -4.2500    0.0000 C   0  0  0  0  0  0  0  0  0  0  0  0
    8.9282   -5.2500    0.0000 C   0  0  0  0  0  0  0  0  0  0  0  0
    2.8660    3.2500    0.0000 C   0  0  0  0  0  0  0  0  0  0  0  0
    3.7320    4.7500    0.0000 C   0  0  0  0  0  0  0  0  0  0  0  0
    9.7942   -6.7500    0.0000 C   0  0  0  0  0  0  0  0  0  0  0  0
   10.6603   -5.2500    0.0000 C   0  0  0  0  0  0  0  0  0  0  0  0
    2.8660    5.2500    0.0000 C   0  0  0  0  0  0  0  0  0  0  0  0
   11.5263   -5.7500    0.0000 C   0  0  0  0  0  0  0  0  0  0  0  0
    2.8660    6.2500    0.0000 C   0  0  0  0  0  0  0  0  0  0  0  0
    2.0000    6.7500    0.0000 C   0  0  0  0  0  0  0  0  0  0  0  0
   12.3923   -5.2500    0.0000 C   0  0  0  0  0  0  0  0  0  0  0  0
   14.1244   -5.2500    0.0000 C   0  0  0  0  0  0  0  0  0  0  0  0
    6.0010    2.0600    0.0000 H   0  0  0  0  0  0  0  0  0  0  0  0
    6.8671    0.5600    0.0000 H   0  0  0  0  0  0  0  0  0  0  0  0
    6.6592   -2.5600    0.0000 H   0  0  0  0  0  0  0  0  0  0  0  0
    7.5252   -4.0600    0.0000 H   0  0  0  0  0  0  0  0  0  0  0  0
    5.1350    3.5600    0.0000 H   0  0  0  0  0  0  0  0  0  0  0  0
    4.0611    1.9400    0.0000 H   0  0  0  0  0  0  0  0  0  0  0  0
    5.7932   -1.0600    0.0000 H   0  0  0  0  0  0  0  0  0  0  0  0
    4.2881    0.7869    0.0000 H   0  0  0  0  0  0  0  0  0  0  0  0
    4.0611   -0.0600    0.0000 H   0  0  0  0  0  0  0  0  0  0  0  0
    4.9081   -0.2869    0.0000 H   0  0  0  0  0  0  0  0  0  0  0  0
    7.7331   -0.9400    0.0000 H   0  0  0  0  0  0  0  0  0  0  0  0
    9.2382   -2.7869    0.0000 H   0  0  0  0  0  0  0  0  0  0  0  0
    9.4651   -1.9400    0.0000 H   0  0  0  0  0  0  0  0  0  0  0  0
    8.6182   -1.7131    0.0000 H   0  0  0  0  0  0  0  0  0  0  0  0
    9.4651   -3.9400    0.0000 H   0  0  0  0  0  0  0  0  0  0  0  0
    8.3913   -5.5600    0.0000 H   0  0  0  0  0  0  0  0  0  0  0  0
    2.5560    3.7869    0.0000 H   0  0  0  0  0  0  0  0  0  0  0  0
    2.3291    2.9400    0.0000 H   0  0  0  0  0  0  0  0  0  0  0  0
    3.1760    2.7131    0.0000 H   0  0  0  0  0  0  0  0  0  0  0  0
    4.2690    5.0600    0.0000 H   0  0  0  0  0  0  0  0  0  0  0  0
    9.1742   -6.7500    0.0000 H   0  0  0  0  0  0  0  0  0  0  0  0
    9.7942   -7.3700    0.0000 H   0  0  0  0  0  0  0  0  0  0  0  0
   10.4142   -6.7500    0.0000 H   0  0  0  0  0  0  0  0  0  0  0  0
   10.6603   -4.6300    0.0000 H   0  0  0  0  0  0  0  0  0  0  0  0
    2.3291    4.9400    0.0000 H   0  0  0  0  0  0  0  0  0  0  0  0
   11.5263   -6.3700    0.0000 H   0  0  0  0  0  0  0  0  0  0  0  0
    2.3100    7.2869    0.0000 H   0  0  0  0  0  0  0  0  0  0  0  0
    1.4631    7.0600    0.0000 H   0  0  0  0  0  0  0  0  0  0  0  0
    1.6900    6.2131    0.0000 H   0  0  0  0  0  0  0  0  0  0  0  0
   14.4344   -5.7869    0.0000 H   0  0  0  0  0  0  0  0  0  0  0  0
   14.6613   -4.9400    0.0000 H   0  0  0  0  0  0  0  0  0  0  0  0
   13.8144   -4.7131    0.0000 H   0  0  0  0  0  0  0  0  0  0  0  0
  1 28  1  0  0  0  0
  1 29  1  0  0  0  0
  2 26  2  0  0  0  0
  3 28  2  0  0  0  0
  4  6  1  0  0  0  0
  4  8  2  0  0  0  0
  4 15  1  0  0  0  0
  5  9  2  0  0  0  0
  5 10  1  0  0  0  0
  5 17  1  0  0  0  0
  6 12  2  0  0  0  0
  6 30  1  0  0  0  0
  7 11  2  0  0  0  0
  7 20  1  0  0  0  0
  7 21  1  0  0  0  0
  8 14  1  0  0  0  0
  8 31  1  0  0  0  0
  9 16  1  0  0  0  0
  9 32  1  0  0  0  0
 10 18  2  0  0  0  0
 10 33  1  0  0  0  0
 11 12  1  0  0  0  0
 11 34  1  0  0  0  0
 12 35  1  0  0  0  0
 13 19  2  0  0  0  0
 13 22  1  0  0  0  0
 13 23  1  0  0  0  0
 14 16  2  0  0  0  0
 14 36  1  0  0  0  0
 15 37  1  0  0  0  0
 15 38  1  0  0  0  0
 15 39  1  0  0  0  0
 16 40  1  0  0  0  0
 17 41  1  0  0  0  0
 17 42  1  0  0  0  0
 17 43  1  0  0  0  0
 18 19  1  0  0  0  0
 18 44  1  0  0  0  0
 19 45  1  0  0  0  0
 20 46  1  0  0  0  0
 20 47  1  0  0  0  0
 20 48  1  0  0  0  0
 21 24  2  0  0  0  0
 21 49  1  0  0  0  0
 22 50  1  0  0  0  0
 22 51  1  0  0  0  0
 22 52  1  0  0  0  0
 23 25  2  0  0  0  0
 23 53  1  0  0  0  0
 24 26  1  0  0  0  0
 24 54  1  0  0  0  0
 25 28  1  0  0  0  0
 25 55  1  0  0  0  0
 26 27  1  0  0  0  0
 27 56  1  0  0  0  0
 27 57  1  0  0  0  0
 27 58  1  0  0  0  0
 29 59  1  0  0  0  0
 29 60  1  0  0  0  0
 29 61  1  0  0  0  0
M  END
>  <PUBCHEM_COMPOUND_CID>
131751235

>  <PUBCHEM_COMPOUND_CANONICALIZED>
1

>  <PUBCHEM_CACTVS_COMPLEXITY>
820

>  <PUBCHEM_CACTVS_HBOND_ACCEPTOR>
3

>  <PUBCHEM_CACTVS_HBOND_DONOR>
0

>  <PUBCHEM_CACTVS_ROTATABLE_BOND>
11

>  <PUBCHEM_CACTVS_SUBSKEYS>
AAADcfB4MAAAAAAAAAAAAAAAAAAAAAAAAAAAAAAAAAAAAAAAAAAAGgAAAAAADASAgAICCAAABACIAqDSCAAAAAAgAAAICAAAAEgIBAAAIQAAEAAAAAAIoYIAAAAAAAAAAAAAAAAAAAAAAAAAAAAAAAAAAA==

>  <PUBCHEM_IUPAC_OPENEYE_NAME>
methyl (2E,4Z,6E,8E,10E,12E,14E,16E,18E)-4,8,13,17-tetramethyl-20-oxo-henicosa-2,4,6,8,10,12,14,16,18-nonaenoate

>  <PUBCHEM_IUPAC_CAS_NAME>
(2E,4Z,6E,8E,10E,12E,14E,16E,18E)-4,8,13,17-tetramethyl-20-oxoheneicosa-2,4,6,8,10,12,14,16,18-nonaenoic acid methyl ester

>  <PUBCHEM_IUPAC_NAME>
methyl (2E,4Z,6E,8E,10E,12E,14E,16E,18E)-4,8,13,17-tetramethyl-20-oxohenicosa-2,4,6,8,10,12,14,16,18-nonaenoate

>  <PUBCHEM_IUPAC_SYSTEMATIC_NAME>
methyl (2E,4Z,6E,8E,10E,12E,14E,16E,18E)-4,8,13,17-tetramethyl-20-oxidanylidene-henicosa-2,4,6,8,10,12,14,16,18-nonaenoate

>  <PUBCHEM_IUPAC_TRADITIONAL_NAME>
(2E,4Z,6E,8E,10E,12E,14E,16E,18E)-20-keto-4,8,13,17-tetramethyl-heneicosa-2,4,6,8,10,12,14,16,18-nonaenoic acid methyl ester

>  <PUBCHEM_IUPAC_INCHI>
InChI=1S/C26H32O3/c1-21(13-9-15-23(3)17-19-25(5)27)11-7-8-12-22(2)14-10-16-24(4)18-20-26(28)29-6/h7-20H,1-6H3/b8-7+,13-9+,14-10+,19-17+,20-18+,21-11+,22-12+,23-15+,24-16-

>  <PUBCHEM_IUPAC_INCHIKEY>
QJUIMMSGBIDDCA-XXTRIWPXSA-N

>  <PUBCHEM_EXACT_MASS>
392.235

>  <PUBCHEM_MOLECULAR_FORMULA>
C26H32O3

>  <PUBCHEM_MOLECULAR_WEIGHT>
392.539

>  <PUBCHEM_OPENEYE_CAN_SMILES>
CC(=CC=CC=C(C)C=CC=C(C)C=CC(=O)OC)C=CC=C(C)C=CC(=O)C

>  <PUBCHEM_OPENEYE_ISO_SMILES>
C/C(=C\C=C\C=C(/C)\C=C\C=C(\C)/C=C/C(=O)OC)/C=C/C=C(\C)/C=C/C(=O)C

>  <PUBCHEM_CACTVS_TPSA>
43.4

>  <PUBCHEM_MONOISOTOPIC_WEIGHT>
392.235

>  <PUBCHEM_TOTAL_CHARGE>
0

>  <PUBCHEM_HEAVY_ATOM_COUNT>
29

>  <PUBCHEM_ATOM_DEF_STEREO_COUNT>
0

>  <PUBCHEM_ATOM_UDEF_STEREO_COUNT>
0

>  <PUBCHEM_BOND_DEF_STEREO_COUNT>
9

>  <PUBCHEM_BOND_UDEF_STEREO_COUNT>
0

>  <PUBCHEM_ISOTOPIC_ATOM_COUNT>
0

>  <PUBCHEM_COMPONENT_COUNT>
1

>  <PUBCHEM_CACTVS_TAUTO_COUNT>
204

>  <PUBCHEM_COORDINATE_TYPE>
1
5
255

$$$$
