131751234
 OpenBabel06101807152D

 47 46  0  0  0  0  0  0  0  0999 V2000
   11.5263   -4.2500    0.0000 O   0  0  0  0  0  0  0  0  0  0  0  0
   10.6603   -2.7500    0.0000 O   0  0  0  0  0  0  0  0  0  0  0  0
    2.0000    5.2500    0.0000 O   0  0  0  0  0  0  0  0  0  0  0  0
    6.3301   -1.2500    0.0000 C   0  0  0  0  0  0  0  0  0  0  0  0
    8.0622   -4.2500    0.0000 C   0  0  0  0  0  0  0  0  0  0  0  0
    6.3301   -2.2500    0.0000 C   0  0  0  0  0  0  0  0  0  0  0  0
    5.4641   -0.7500    0.0000 C   0  0  0  0  0  0  0  0  0  0  0  0
    7.1962   -3.7500    0.0000 C   0  0  0  0  0  0  0  0  0  0  0  0
    7.1962   -2.7500    0.0000 C   0  0  0  0  0  0  0  0  0  0  0  0
    7.1962   -0.7500    0.0000 C   0  0  0  0  0  0  0  0  0  0  0  0
    5.4641    0.2500    0.0000 C   0  0  0  0  0  0  0  0  0  0  0  0
    3.7320    2.2500    0.0000 C   0  0  0  0  0  0  0  0  0  0  0  0
    8.0622   -5.2500    0.0000 C   0  0  0  0  0  0  0  0  0  0  0  0
    4.5981    1.7500    0.0000 C   0  0  0  0  0  0  0  0  0  0  0  0
    4.5981    0.7500    0.0000 C   0  0  0  0  0  0  0  0  0  0  0  0
    8.9282   -3.7500    0.0000 C   0  0  0  0  0  0  0  0  0  0  0  0
    2.8660    1.7500    0.0000 C   0  0  0  0  0  0  0  0  0  0  0  0
    3.7320    3.2500    0.0000 C   0  0  0  0  0  0  0  0  0  0  0  0
    9.7942   -4.2500    0.0000 C   0  0  0  0  0  0  0  0  0  0  0  0
    2.8660    3.7500    0.0000 C   0  0  0  0  0  0  0  0  0  0  0  0
   10.6603   -3.7500    0.0000 C   0  0  0  0  0  0  0  0  0  0  0  0
    2.8660    4.7500    0.0000 C   0  0  0  0  0  0  0  0  0  0  0  0
   12.3923   -3.7500    0.0000 C   0  0  0  0  0  0  0  0  0  0  0  0
    5.7932   -2.5600    0.0000 H   0  0  0  0  0  0  0  0  0  0  0  0
    4.9272   -1.0600    0.0000 H   0  0  0  0  0  0  0  0  0  0  0  0
    6.6592   -4.0600    0.0000 H   0  0  0  0  0  0  0  0  0  0  0  0
    7.7331   -2.4400    0.0000 H   0  0  0  0  0  0  0  0  0  0  0  0
    7.5062   -1.2869    0.0000 H   0  0  0  0  0  0  0  0  0  0  0  0
    7.7331   -0.4400    0.0000 H   0  0  0  0  0  0  0  0  0  0  0  0
    6.8862   -0.2131    0.0000 H   0  0  0  0  0  0  0  0  0  0  0  0
    6.0010    0.5600    0.0000 H   0  0  0  0  0  0  0  0  0  0  0  0
    7.4422   -5.2500    0.0000 H   0  0  0  0  0  0  0  0  0  0  0  0
    8.0622   -5.8700    0.0000 H   0  0  0  0  0  0  0  0  0  0  0  0
    8.6822   -5.2500    0.0000 H   0  0  0  0  0  0  0  0  0  0  0  0
    5.1350    2.0600    0.0000 H   0  0  0  0  0  0  0  0  0  0  0  0
    4.0611    0.4400    0.0000 H   0  0  0  0  0  0  0  0  0  0  0  0
    8.9282   -3.1300    0.0000 H   0  0  0  0  0  0  0  0  0  0  0  0
    2.5560    2.2869    0.0000 H   0  0  0  0  0  0  0  0  0  0  0  0
    2.3291    1.4400    0.0000 H   0  0  0  0  0  0  0  0  0  0  0  0
    3.1760    1.2131    0.0000 H   0  0  0  0  0  0  0  0  0  0  0  0
    4.2690    3.5600    0.0000 H   0  0  0  0  0  0  0  0  0  0  0  0
    9.7942   -4.8700    0.0000 H   0  0  0  0  0  0  0  0  0  0  0  0
    2.3291    3.4400    0.0000 H   0  0  0  0  0  0  0  0  0  0  0  0
    3.4030    5.0600    0.0000 H   0  0  0  0  0  0  0  0  0  0  0  0
   12.7023   -4.2869    0.0000 H   0  0  0  0  0  0  0  0  0  0  0  0
   12.9292   -3.4400    0.0000 H   0  0  0  0  0  0  0  0  0  0  0  0
   12.0823   -3.2131    0.0000 H   0  0  0  0  0  0  0  0  0  0  0  0
  1 21  1  0  0  0  0
  1 23  1  0  0  0  0
  2 21  2  0  0  0  0
  3 22  2  0  0  0  0
  4  6  1  0  0  0  0
  4  7  2  0  0  0  0
  4 10  1  0  0  0  0
  5  8  2  0  0  0  0
  5 13  1  0  0  0  0
  5 16  1  0  0  0  0
  6  9  2  0  0  0  0
  6 24  1  0  0  0  0
  7 11  1  0  0  0  0
  7 25  1  0  0  0  0
  8  9  1  0  0  0  0
  8 26  1  0  0  0  0
  9 27  1  0  0  0  0
 10 28  1  0  0  0  0
 10 29  1  0  0  0  0
 10 30  1  0  0  0  0
 11 15  2  0  0  0  0
 11 31  1  0  0  0  0
 12 14  2  0  0  0  0
 12 17  1  0  0  0  0
 12 18  1  0  0  0  0
 13 32  1  0  0  0  0
 13 33  1  0  0  0  0
 13 34  1  0  0  0  0
 14 15  1  0  0  0  0
 14 35  1  0  0  0  0
 15 36  1  0  0  0  0
 16 19  2  0  0  0  0
 16 37  1  0  0  0  0
 17 38  1  0  0  0  0
 17 39  1  0  0  0  0
 17 40  1  0  0  0  0
 18 20  2  0  0  0  0
 18 41  1  0  0  0  0
 19 21  1  0  0  0  0
 19 42  1  0  0  0  0
 20 22  1  0  0  0  0
 20 43  1  0  0  0  0
 22 44  1  0  0  0  0
 23 45  1  0  0  0  0
 23 46  1  0  0  0  0
 23 47  1  0  0  0  0
M  END
>  <PUBCHEM_COMPOUND_CID>
131751234

>  <PUBCHEM_COMPOUND_CANONICALIZED>
1

>  <PUBCHEM_CACTVS_COMPLEXITY>
594

>  <PUBCHEM_CACTVS_HBOND_ACCEPTOR>
3

>  <PUBCHEM_CACTVS_HBOND_DONOR>
0

>  <PUBCHEM_CACTVS_ROTATABLE_BOND>
9

>  <PUBCHEM_CACTVS_SUBSKEYS>
AAADceB4MAAAAAAAAAAAAAAAAAAAAAAAAAAAAAAAAAAAAAAAAAAAGgAAAAAADACggAICCAAABACIAijSiAAAAAAgAAAICAAAAEgIBAAAIQAAEAAAAAAIoYIAAAAAAAAAAAAAAAAAAAAAAAAAAAAAAAAAAA==

>  <PUBCHEM_IUPAC_OPENEYE_NAME>
methyl (2E,4Z,6E,8E,10E,12E,14E)-4,8,13-trimethyl-16-oxo-hexadeca-2,4,6,8,10,12,14-heptaenoate

>  <PUBCHEM_IUPAC_CAS_NAME>
(2E,4Z,6E,8E,10E,12E,14E)-4,8,13-trimethyl-16-oxohexadeca-2,4,6,8,10,12,14-heptaenoic acid methyl ester

>  <PUBCHEM_IUPAC_NAME>
methyl (2E,4Z,6E,8E,10E,12E,14E)-4,8,13-trimethyl-16-oxohexadeca-2,4,6,8,10,12,14-heptaenoate

>  <PUBCHEM_IUPAC_SYSTEMATIC_NAME>
methyl (2E,4Z,6E,8E,10E,12E,14E)-4,8,13-trimethyl-16-oxidanylidene-hexadeca-2,4,6,8,10,12,14-heptaenoate

>  <PUBCHEM_IUPAC_TRADITIONAL_NAME>
(2E,4Z,6E,8E,10E,12E,14E)-16-keto-4,8,13-trimethyl-hexadeca-2,4,6,8,10,12,14-heptaenoic acid methyl ester

>  <PUBCHEM_IUPAC_INCHI>
InChI=1S/C20H24O3/c1-17(9-5-6-10-18(2)13-8-16-21)11-7-12-19(3)14-15-20(22)23-4/h5-16H,1-4H3/b6-5+,11-7+,13-8+,15-14+,17-9+,18-10+,19-12-

>  <PUBCHEM_IUPAC_INCHIKEY>
NXZZZYUALZNGOO-OKMAZBOSSA-N

>  <PUBCHEM_EXACT_MASS>
312.173

>  <PUBCHEM_MOLECULAR_FORMULA>
C20H24O3

>  <PUBCHEM_MOLECULAR_WEIGHT>
312.409

>  <PUBCHEM_OPENEYE_CAN_SMILES>
CC(=CC=CC=C(C)C=CC=O)C=CC=C(C)C=CC(=O)OC

>  <PUBCHEM_OPENEYE_ISO_SMILES>
C/C(=C\C=C\C=C(/C)\C=C\C=O)/C=C/C=C(/C)\C=C\C(=O)OC

>  <PUBCHEM_CACTVS_TPSA>
43.4

>  <PUBCHEM_MONOISOTOPIC_WEIGHT>
312.173

>  <PUBCHEM_TOTAL_CHARGE>
0

>  <PUBCHEM_HEAVY_ATOM_COUNT>
23

>  <PUBCHEM_ATOM_DEF_STEREO_COUNT>
0

>  <PUBCHEM_ATOM_UDEF_STEREO_COUNT>
0

>  <PUBCHEM_BOND_DEF_STEREO_COUNT>
7

>  <PUBCHEM_BOND_UDEF_STEREO_COUNT>
0

>  <PUBCHEM_ISOTOPIC_ATOM_COUNT>
0

>  <PUBCHEM_COMPONENT_COUNT>
1

>  <PUBCHEM_CACTVS_TAUTO_COUNT>
21

>  <PUBCHEM_COORDINATE_TYPE>
1
5
255

$$$$
