131752770
 OpenBabel06101807152D

 55 56  0  0  1  0  0  0  0  0999 V2000
    4.2690   -1.3080    0.0000 O   0  0  0  0  0  0  0  0  0  0  0  0
    6.0010   -1.3080    0.0000 O   0  0  0  0  0  0  0  0  0  0  0  0
    4.2690   -4.3080    0.0000 O   0  0  0  0  0  0  0  0  0  0  0  0
    5.9730    2.9707    0.0000 O   0  0  0  0  0  0  0  0  0  0  0  0
    2.5369   -3.3080    0.0000 O   0  0  0  0  0  0  0  0  0  0  0  0
    6.0010   -3.3080    0.0000 O   0  0  0  0  0  0  0  0  0  0  0  0
    2.5369   -0.3080    0.0000 O   0  0  0  0  0  0  0  0  0  0  0  0
   11.1874    3.3309    0.0000 O   0  0  0  0  0  0  0  0  0  0  0  0
   10.0284    4.6180    0.0000 O   0  0  0  0  0  0  0  0  0  0  0  0
    8.5421    3.2798    0.0000 C   0  0  3  0  0  0  0  0  0  0  0  0
    7.7331    2.6920    0.0000 C   0  0  3  0  0  0  0  0  0  0  0  0
    8.2331    4.2308    0.0000 C   0  0  0  0  0  0  0  0  0  0  0  0
    7.2331    4.2308    0.0000 C   0  0  0  0  0  0  0  0  0  0  0  0
    6.9241    3.2798    0.0000 C   0  0  0  0  0  0  0  0  0  0  0  0
    7.7331    1.6920    0.0000 C   0  0  0  0  0  0  0  0  0  0  0  0
    9.4932    2.9707    0.0000 C   0  0  0  0  0  0  0  0  0  0  0  0
    4.2690   -3.3080    0.0000 C   0  0  3  0  0  0  0  0  0  0  0  0
    3.4030   -2.8080    0.0000 C   0  0  3  0  0  0  0  0  0  0  0  0
    5.1350   -2.8080    0.0000 C   0  0  3  0  0  0  0  0  0  0  0  0
    3.4030   -1.8080    0.0000 C   0  0  3  0  0  0  0  0  0  0  0  0
    5.1350   -1.8080    0.0000 C   0  0  3  0  0  0  0  0  0  0  0  0
    6.8671    1.1920    0.0000 C   0  0  0  0  0  0  0  0  0  0  0  0
    6.0010   -0.3080    0.0000 C   0  0  3  0  0  0  0  0  0  0  0  0
    2.5369   -1.3080    0.0000 C   0  0  0  0  0  0  0  0  0  0  0  0
    6.8671    0.1920    0.0000 C   0  0  0  0  0  0  0  0  0  0  0  0
   10.2363    3.6399    0.0000 C   0  0  0  0  0  0  0  0  0  0  0  0
    5.1350    0.1920    0.0000 C   0  0  0  0  0  0  0  0  0  0  0  0
    8.6391    2.6674    0.0000 H   0  0  0  0  0  0  0  0  0  0  0  0
    7.1807    2.4105    0.0000 H   0  0  0  0  0  0  0  0  0  0  0  0
    8.8395    4.3597    0.0000 H   0  0  0  0  0  0  0  0  0  0  0  0
    8.1683    4.8474    0.0000 H   0  0  0  0  0  0  0  0  0  0  0  0
    7.2979    4.8474    0.0000 H   0  0  0  0  0  0  0  0  0  0  0  0
    6.6266    4.3597    0.0000 H   0  0  0  0  0  0  0  0  0  0  0  0
    7.9451    1.1094    0.0000 H   0  0  0  0  0  0  0  0  0  0  0  0
    8.3437    1.7996    0.0000 H   0  0  0  0  0  0  0  0  0  0  0  0
    9.2021    2.4233    0.0000 H   0  0  0  0  0  0  0  0  0  0  0  0
    9.9817    2.5890    0.0000 H   0  0  0  0  0  0  0  0  0  0  0  0
    3.7320   -3.6180    0.0000 H   0  0  0  0  0  0  0  0  0  0  0  0
    3.4030   -3.4280    0.0000 H   0  0  0  0  0  0  0  0  0  0  0  0
    5.1350   -3.4280    0.0000 H   0  0  0  0  0  0  0  0  0  0  0  0
    3.4030   -1.1880    0.0000 H   0  0  0  0  0  0  0  0  0  0  0  0
    5.1350   -1.1880    0.0000 H   0  0  0  0  0  0  0  0  0  0  0  0
    6.3301    1.5020    0.0000 H   0  0  0  0  0  0  0  0  0  0  0  0
    1.9264   -1.2004    0.0000 H   0  0  0  0  0  0  0  0  0  0  0  0
    2.3249   -1.8906    0.0000 H   0  0  0  0  0  0  0  0  0  0  0  0
    6.5380   -0.6180    0.0000 H   0  0  0  0  0  0  0  0  0  0  0  0
    7.4040   -0.1180    0.0000 H   0  0  0  0  0  0  0  0  0  0  0  0
    3.7320   -4.6180    0.0000 H   0  0  0  0  0  0  0  0  0  0  0  0
    2.0000   -2.9980    0.0000 H   0  0  0  0  0  0  0  0  0  0  0  0
    6.5380   -2.9980    0.0000 H   0  0  0  0  0  0  0  0  0  0  0  0
    5.4450    0.7289    0.0000 H   0  0  0  0  0  0  0  0  0  0  0  0
    4.5981    0.5020    0.0000 H   0  0  0  0  0  0  0  0  0  0  0  0
    4.8250   -0.3450    0.0000 H   0  0  0  0  0  0  0  0  0  0  0  0
    2.0000    0.0020    0.0000 H   0  0  0  0  0  0  0  0  0  0  0  0
   11.6481    3.7457    0.0000 H   0  0  0  0  0  0  0  0  0  0  0  0
  1 20  1  0  0  0  0
  1 21  1  0  0  0  0
  2 21  1  0  0  0  0
  2 23  1  0  0  0  0
  3 17  1  0  0  0  0
  3 48  1  0  0  0  0
  4 14  2  0  0  0  0
  5 18  1  0  0  0  0
  5 49  1  0  0  0  0
  6 19  1  0  0  0  0
  6 50  1  0  0  0  0
  7 24  1  0  0  0  0
  7 54  1  0  0  0  0
  8 26  1  0  0  0  0
  8 55  1  0  0  0  0
  9 26  2  0  0  0  0
 10 11  1  0  0  0  0
 10 12  1  0  0  0  0
 10 16  1  0  0  0  0
 10 28  1  0  0  0  0
 11 14  1  0  0  0  0
 11 15  1  0  0  0  0
 11 29  1  0  0  0  0
 12 13  1  0  0  0  0
 12 30  1  0  0  0  0
 12 31  1  0  0  0  0
 13 14  1  0  0  0  0
 13 32  1  0  0  0  0
 13 33  1  0  0  0  0
 15 22  1  0  0  0  0
 15 34  1  0  0  0  0
 15 35  1  0  0  0  0
 16 26  1  0  0  0  0
 16 36  1  0  0  0  0
 16 37  1  0  0  0  0
 17 18  1  0  0  0  0
 17 19  1  0  0  0  0
 17 38  1  0  0  0  0
 18 20  1  0  0  0  0
 18 39  1  0  0  0  0
 19 21  1  0  0  0  0
 19 40  1  0  0  0  0
 20 24  1  0  0  0  0
 20 41  1  0  0  0  0
 21 42  1  0  0  0  0
 22 25  2  0  0  0  0
 22 43  1  0  0  0  0
 23 25  1  0  0  0  0
 23 27  1  0  0  0  0
 23 46  1  0  0  0  0
 24 44  1  0  0  0  0
 24 45  1  0  0  0  0
 25 47  1  0  0  0  0
 27 51  1  0  0  0  0
 27 52  1  0  0  0  0
 27 53  1  0  0  0  0
M  END
>  <PUBCHEM_COMPOUND_CID>
131752770

>  <PUBCHEM_COMPOUND_CANONICALIZED>
1

>  <PUBCHEM_CACTVS_COMPLEXITY>
549

>  <PUBCHEM_CACTVS_HBOND_ACCEPTOR>
9

>  <PUBCHEM_CACTVS_HBOND_DONOR>
5

>  <PUBCHEM_CACTVS_ROTATABLE_BOND>
8

>  <PUBCHEM_CACTVS_SUBSKEYS>
AAADceB4PAAAAAAAAAAAAAAAAAAAAYAAAAAkAAAAAAAAAAAAAAAAGgAACAAADRSwgAMCCAAABgCIAKDSCAAAAAAgAAAICAEAAAgRFBIAIQAiUAAFgAAPIAPI7qyugAAAAAAAAAAAAAAAAAAAAAAACAAAAA==

>  <PUBCHEM_IUPAC_OPENEYE_NAME>
2-[3-oxo-2-[(E)-4-[3,4,5-trihydroxy-6-(hydroxymethyl)tetrahydropyran-2-yl]oxypent-2-enyl]cyclopentyl]acetic acid

>  <PUBCHEM_IUPAC_CAS_NAME>
2-[3-oxo-2-[(E)-4-[[3,4,5-trihydroxy-6-(hydroxymethyl)-2-oxanyl]oxy]pent-2-enyl]cyclopentyl]acetic acid

>  <PUBCHEM_IUPAC_NAME>
2-[3-oxo-2-[(E)-4-[3,4,5-trihydroxy-6-(hydroxymethyl)oxan-2-yl]oxypent-2-enyl]cyclopentyl]acetic acid

>  <PUBCHEM_IUPAC_SYSTEMATIC_NAME>
2-[2-[(E)-4-[6-(hydroxymethyl)-3,4,5-tris(oxidanyl)oxan-2-yl]oxypent-2-enyl]-3-oxidanylidene-cyclopentyl]ethanoic acid

>  <PUBCHEM_IUPAC_TRADITIONAL_NAME>
2-[3-keto-2-[(E)-4-(3,4,5-trihydroxy-6-methylol-tetrahydropyran-2-yl)oxypent-2-enyl]cyclopentyl]acetic acid

>  <PUBCHEM_IUPAC_INCHI>
InChI=1S/C18H28O9/c1-9(26-18-17(25)16(24)15(23)13(8-19)27-18)3-2-4-11-10(7-14(21)22)5-6-12(11)20/h2-3,9-11,13,15-19,23-25H,4-8H2,1H3,(H,21,22)/b3-2+

>  <PUBCHEM_IUPAC_INCHIKEY>
LAYQBSCEPAXXNJ-NSCUHMNNSA-N

>  <PUBCHEM_EXACT_MASS>
388.173

>  <PUBCHEM_MOLECULAR_FORMULA>
C18H28O9

>  <PUBCHEM_MOLECULAR_WEIGHT>
388.413

>  <PUBCHEM_OPENEYE_CAN_SMILES>
CC(C=CCC1C(CCC1=O)CC(=O)O)OC2C(C(C(C(O2)CO)O)O)O

>  <PUBCHEM_OPENEYE_ISO_SMILES>
CC(/C=C/CC1C(CCC1=O)CC(=O)O)OC2C(C(C(C(O2)CO)O)O)O

>  <PUBCHEM_CACTVS_TPSA>
154

>  <PUBCHEM_MONOISOTOPIC_WEIGHT>
388.173

>  <PUBCHEM_TOTAL_CHARGE>
0

>  <PUBCHEM_HEAVY_ATOM_COUNT>
27

>  <PUBCHEM_ATOM_DEF_STEREO_COUNT>
0

>  <PUBCHEM_ATOM_UDEF_STEREO_COUNT>
8

>  <PUBCHEM_BOND_DEF_STEREO_COUNT>
1

>  <PUBCHEM_BOND_UDEF_STEREO_COUNT>
0

>  <PUBCHEM_ISOTOPIC_ATOM_COUNT>
0

>  <PUBCHEM_COMPONENT_COUNT>
1

>  <PUBCHEM_CACTVS_TAUTO_COUNT>
3

>  <PUBCHEM_COORDINATE_TYPE>
1
5
255

>  <PUBCHEM_BONDANNOTATIONS>
10  16  3
11  15  3
21  2  3
20  24  3
23  27  3
17  3  3
18  5  3
19  6  3

$$$$
