131751317
 OpenBabel06101807152D

146150  0  0  1  0  0  0  0  0999 V2000
   20.1865   -4.4699    0.0000 O   0  0  0  0  0  0  0  0  0  0  0  0
   18.4545   -4.4699    0.0000 O   0  0  0  0  0  0  0  0  0  0  0  0
   20.1865   -6.4699    0.0000 O   0  0  0  0  0  0  0  0  0  0  0  0
   18.4545   -7.4699    0.0000 O   0  0  0  0  0  0  0  0  0  0  0  0
   16.7224   -6.4699    0.0000 O   0  0  0  0  0  0  0  0  0  0  0  0
   15.8564   -4.9699    0.0000 O   0  0  0  0  0  0  0  0  0  0  0  0
   14.9904   -3.4699    0.0000 O   0  0  0  0  0  0  0  0  0  0  0  0
   20.2158    1.7270    0.0000 C   0  0  3  0  0  0  0  0  0  0  0  0
   21.0837    1.2303    0.0000 C   0  0  3  0  0  0  0  0  0  0  0  0
   21.0876    0.2303    0.0000 C   0  0  3  0  0  0  0  0  0  0  0  0
   20.2235   -0.2730    0.0000 C   0  0  3  0  0  0  0  0  0  0  0  0
   20.4212    2.6996    0.0000 C   0  0  3  0  0  0  0  0  0  0  0  0
   19.3517    1.2236    0.0000 C   0  0  0  0  0  0  0  0  0  0  0  0
   20.2115   -1.3146    0.0000 C   0  0  3  0  0  0  0  0  0  0  0  0
   21.8182    1.9002    0.0000 C   0  0  0  0  0  0  0  0  0  0  0  0
   19.3556    0.2237    0.0000 C   0  0  0  0  0  0  0  0  0  0  0  0
   21.4096    2.8065    0.0000 C   0  0  0  0  0  0  0  0  0  0  0  0
   21.9995   -0.2730    0.0000 C   0  0  0  0  0  0  0  0  0  0  0  0
   19.7505    3.4413    0.0000 C   0  0  3  0  0  0  0  0  0  0  0  0
   19.3478    2.2236    0.0000 C   0  0  0  0  0  0  0  0  0  0  0  0
   21.1115   -1.8389    0.0000 C   0  0  0  0  0  0  0  0  0  0  0  0
   19.2615   -1.8389    0.0000 C   0  0  0  0  0  0  0  0  0  0  0  0
   22.0116   -1.3146    0.0000 C   0  0  0  0  0  0  0  0  0  0  0  0
   19.3474   -0.8112    0.0000 C   0  0  0  0  0  0  0  0  0  0  0  0
   21.1241   -2.9238    0.0000 C   0  0  0  0  0  0  0  0  0  0  0  0
   19.2490   -2.9238    0.0000 C   0  0  0  0  0  0  0  0  0  0  0  0
   20.0575    4.3930    0.0000 C   0  0  0  0  0  0  0  0  0  0  0  0
   20.1865   -3.4699    0.0000 C   0  0  3  0  0  0  0  0  0  0  0  0
   18.7728    3.2313    0.0000 C   0  0  0  0  0  0  0  0  0  0  0  0
   19.3868    5.1348    0.0000 C   0  0  0  0  0  0  0  0  0  0  0  0
   19.6938    6.0865    0.0000 C   0  0  0  0  0  0  0  0  0  0  0  0
   19.3205   -4.9699    0.0000 C   0  0  3  0  0  0  0  0  0  0  0  0
   19.0231    6.8282    0.0000 C   0  0  0  0  0  0  0  0  0  0  0  0
   19.3205   -5.9699    0.0000 C   0  0  3  0  0  0  0  0  0  0  0  0
   20.6715    6.2964    0.0000 C   0  0  0  0  0  0  0  0  0  0  0  0
   18.4545   -6.4699    0.0000 C   0  0  3  0  0  0  0  0  0  0  0  0
   17.5885   -4.9699    0.0000 C   0  0  3  0  0  0  0  0  0  0  0  0
   17.5885   -5.9699    0.0000 C   0  0  3  0  0  0  0  0  0  0  0  0
   19.3301    7.7799    0.0000 C   0  0  0  0  0  0  0  0  0  0  0  0
   18.0454    6.6182    0.0000 C   0  0  0  0  0  0  0  0  0  0  0  0
   21.3422    5.5547    0.0000 C   0  0  0  0  0  0  0  0  0  0  0  0
   16.7224   -4.4699    0.0000 C   0  0  0  0  0  0  0  0  0  0  0  0
   14.9904   -4.4699    0.0000 C   0  0  0  0  0  0  0  0  0  0  0  0
   14.1244   -4.9699    0.0000 C   0  0  0  0  0  0  0  0  0  0  0  0
   13.2583   -4.4699    0.0000 C   0  0  0  0  0  0  0  0  0  0  0  0
   12.3923   -4.9699    0.0000 C   0  0  0  0  0  0  0  0  0  0  0  0
   11.5263   -4.4699    0.0000 C   0  0  0  0  0  0  0  0  0  0  0  0
   10.6603   -4.9699    0.0000 C   0  0  0  0  0  0  0  0  0  0  0  0
    9.7942   -4.4699    0.0000 C   0  0  0  0  0  0  0  0  0  0  0  0
    8.9282   -4.9699    0.0000 C   0  0  0  0  0  0  0  0  0  0  0  0
    8.0622   -4.4699    0.0000 C   0  0  0  0  0  0  0  0  0  0  0  0
    7.1962   -4.9699    0.0000 C   0  0  0  0  0  0  0  0  0  0  0  0
    6.3301   -4.4699    0.0000 C   0  0  0  0  0  0  0  0  0  0  0  0
    5.4641   -4.9699    0.0000 C   0  0  0  0  0  0  0  0  0  0  0  0
    4.5981   -4.4699    0.0000 C   0  0  0  0  0  0  0  0  0  0  0  0
    3.7320   -4.9699    0.0000 C   0  0  0  0  0  0  0  0  0  0  0  0
    2.8660   -4.4699    0.0000 C   0  0  0  0  0  0  0  0  0  0  0  0
    2.0000   -4.9699    0.0000 C   0  0  0  0  0  0  0  0  0  0  0  0
   21.6514    0.9811    0.0000 H   0  0  0  0  0  0  0  0  0  0  0  0
   21.6209    0.5465    0.0000 H   0  0  0  0  0  0  0  0  0  0  0  0
   20.7592   -0.5851    0.0000 H   0  0  0  0  0  0  0  0  0  0  0  0
   20.6420    3.2790    0.0000 H   0  0  0  0  0  0  0  0  0  0  0  0
   19.1374    1.8054    0.0000 H   0  0  0  0  0  0  0  0  0  0  0  0
   18.7415    1.1136    0.0000 H   0  0  0  0  0  0  0  0  0  0  0  0
   22.1855    1.4008    0.0000 H   0  0  0  0  0  0  0  0  0  0  0  0
   22.3535    2.2131    0.0000 H   0  0  0  0  0  0  0  0  0  0  0  0
   18.7446    0.3290    0.0000 H   0  0  0  0  0  0  0  0  0  0  0  0
   19.1458   -0.3598    0.0000 H   0  0  0  0  0  0  0  0  0  0  0  0
   21.9984    3.0005    0.0000 H   0  0  0  0  0  0  0  0  0  0  0  0
   21.2785    3.4124    0.0000 H   0  0  0  0  0  0  0  0  0  0  0  0
   22.6116   -0.3720    0.0000 H   0  0  0  0  0  0  0  0  0  0  0  0
   22.2018    0.3131    0.0000 H   0  0  0  0  0  0  0  0  0  0  0  0
   19.3347    3.9012    0.0000 H   0  0  0  0  0  0  0  0  0  0  0  0
   19.6558    2.7618    0.0000 H   0  0  0  0  0  0  0  0  0  0  0  0
   18.8097    2.5316    0.0000 H   0  0  0  0  0  0  0  0  0  0  0  0
   19.0399    1.6855    0.0000 H   0  0  0  0  0  0  0  0  0  0  0  0
   19.0593   -1.2528    0.0000 H   0  0  0  0  0  0  0  0  0  0  0  0
   18.6495   -1.9379    0.0000 H   0  0  0  0  0  0  0  0  0  0  0  0
   22.5509   -1.6204    0.0000 H   0  0  0  0  0  0  0  0  0  0  0  0
   19.6594   -0.2755    0.0000 H   0  0  0  0  0  0  0  0  0  0  0  0
   18.8116   -0.4992    0.0000 H   0  0  0  0  0  0  0  0  0  0  0  0
   19.0353   -1.3470    0.0000 H   0  0  0  0  0  0  0  0  0  0  0  0
   21.3399   -3.5050    0.0000 H   0  0  0  0  0  0  0  0  0  0  0  0
   21.7337   -2.8106    0.0000 H   0  0  0  0  0  0  0  0  0  0  0  0
   18.6394   -2.8106    0.0000 H   0  0  0  0  0  0  0  0  0  0  0  0
   19.0332   -3.5050    0.0000 H   0  0  0  0  0  0  0  0  0  0  0  0
   20.6056    4.1031    0.0000 H   0  0  0  0  0  0  0  0  0  0  0  0
   20.4382    4.8824    0.0000 H   0  0  0  0  0  0  0  0  0  0  0  0
   19.6490   -3.7789    0.0000 H   0  0  0  0  0  0  0  0  0  0  0  0
   18.6426    3.8375    0.0000 H   0  0  0  0  0  0  0  0  0  0  0  0
   18.1667    3.1011    0.0000 H   0  0  0  0  0  0  0  0  0  0  0  0
   18.9030    2.6252    0.0000 H   0  0  0  0  0  0  0  0  0  0  0  0
   18.8388    5.4247    0.0000 H   0  0  0  0  0  0  0  0  0  0  0  0
   19.0062    4.6454    0.0000 H   0  0  0  0  0  0  0  0  0  0  0  0
   19.8574   -5.2799    0.0000 H   0  0  0  0  0  0  0  0  0  0  0  0
   18.6073    7.2880    0.0000 H   0  0  0  0  0  0  0  0  0  0  0  0
   19.3205   -6.5899    0.0000 H   0  0  0  0  0  0  0  0  0  0  0  0
   20.8619    6.8865    0.0000 H   0  0  0  0  0  0  0  0  0  0  0  0
   17.9175   -6.7799    0.0000 H   0  0  0  0  0  0  0  0  0  0  0  0
   17.5885   -4.3499    0.0000 H   0  0  0  0  0  0  0  0  0  0  0  0
   17.5885   -6.5899    0.0000 H   0  0  0  0  0  0  0  0  0  0  0  0
   19.9202    7.5896    0.0000 H   0  0  0  0  0  0  0  0  0  0  0  0
   19.5205    8.3700    0.0000 H   0  0  0  0  0  0  0  0  0  0  0  0
   18.7401    7.9702    0.0000 H   0  0  0  0  0  0  0  0  0  0  0  0
   17.9152    7.2244    0.0000 H   0  0  0  0  0  0  0  0  0  0  0  0
   17.4392    6.4880    0.0000 H   0  0  0  0  0  0  0  0  0  0  0  0
   18.1756    6.0120    0.0000 H   0  0  0  0  0  0  0  0  0  0  0  0
   20.8824    5.1389    0.0000 H   0  0  0  0  0  0  0  0  0  0  0  0
   21.7581    5.0949    0.0000 H   0  0  0  0  0  0  0  0  0  0  0  0
   21.8021    5.9706    0.0000 H   0  0  0  0  0  0  0  0  0  0  0  0
   20.1865   -7.0899    0.0000 H   0  0  0  0  0  0  0  0  0  0  0  0
   17.1210   -3.9950    0.0000 H   0  0  0  0  0  0  0  0  0  0  0  0
   16.3239   -3.9950    0.0000 H   0  0  0  0  0  0  0  0  0  0  0  0
   17.9175   -7.7799    0.0000 H   0  0  0  0  0  0  0  0  0  0  0  0
   16.7224   -7.0899    0.0000 H   0  0  0  0  0  0  0  0  0  0  0  0
   13.7258   -5.4448    0.0000 H   0  0  0  0  0  0  0  0  0  0  0  0
   14.5229   -5.4448    0.0000 H   0  0  0  0  0  0  0  0  0  0  0  0
   13.6569   -3.9950    0.0000 H   0  0  0  0  0  0  0  0  0  0  0  0
   12.8598   -3.9950    0.0000 H   0  0  0  0  0  0  0  0  0  0  0  0
   11.9938   -5.4448    0.0000 H   0  0  0  0  0  0  0  0  0  0  0  0
   12.7908   -5.4448    0.0000 H   0  0  0  0  0  0  0  0  0  0  0  0
   11.9248   -3.9950    0.0000 H   0  0  0  0  0  0  0  0  0  0  0  0
   11.1278   -3.9950    0.0000 H   0  0  0  0  0  0  0  0  0  0  0  0
   10.2617   -5.4448    0.0000 H   0  0  0  0  0  0  0  0  0  0  0  0
   11.0588   -5.4448    0.0000 H   0  0  0  0  0  0  0  0  0  0  0  0
   10.1928   -3.9950    0.0000 H   0  0  0  0  0  0  0  0  0  0  0  0
    9.3957   -3.9950    0.0000 H   0  0  0  0  0  0  0  0  0  0  0  0
    8.5297   -5.4448    0.0000 H   0  0  0  0  0  0  0  0  0  0  0  0
    9.3267   -5.4448    0.0000 H   0  0  0  0  0  0  0  0  0  0  0  0
    8.4607   -3.9950    0.0000 H   0  0  0  0  0  0  0  0  0  0  0  0
    7.6636   -3.9950    0.0000 H   0  0  0  0  0  0  0  0  0  0  0  0
    6.7976   -5.4448    0.0000 H   0  0  0  0  0  0  0  0  0  0  0  0
    7.5947   -5.4448    0.0000 H   0  0  0  0  0  0  0  0  0  0  0  0
    6.7287   -3.9950    0.0000 H   0  0  0  0  0  0  0  0  0  0  0  0
    5.9316   -3.9950    0.0000 H   0  0  0  0  0  0  0  0  0  0  0  0
    5.0656   -5.4448    0.0000 H   0  0  0  0  0  0  0  0  0  0  0  0
    5.8626   -5.4448    0.0000 H   0  0  0  0  0  0  0  0  0  0  0  0
    4.9966   -3.9950    0.0000 H   0  0  0  0  0  0  0  0  0  0  0  0
    4.1996   -3.9950    0.0000 H   0  0  0  0  0  0  0  0  0  0  0  0
    3.3335   -5.4448    0.0000 H   0  0  0  0  0  0  0  0  0  0  0  0
    4.1306   -5.4448    0.0000 H   0  0  0  0  0  0  0  0  0  0  0  0
    3.2646   -3.9950    0.0000 H   0  0  0  0  0  0  0  0  0  0  0  0
    2.4675   -3.9950    0.0000 H   0  0  0  0  0  0  0  0  0  0  0  0
    1.6900   -4.4330    0.0000 H   0  0  0  0  0  0  0  0  0  0  0  0
    1.4631   -5.2799    0.0000 H   0  0  0  0  0  0  0  0  0  0  0  0
    2.3100   -5.5068    0.0000 H   0  0  0  0  0  0  0  0  0  0  0  0
  1 28  1  0  0  0  0
  1 32  1  0  0  0  0
  2 32  1  0  0  0  0
  2 37  1  0  0  0  0
  3 34  1  0  0  0  0
  3111  1  0  0  0  0
  4 36  1  0  0  0  0
  4114  1  0  0  0  0
  5 38  1  0  0  0  0
  5115  1  0  0  0  0
  6 42  1  0  0  0  0
  6 43  1  0  0  0  0
  7 43  2  0  0  0  0
  8  9  1  0  0  0  0
  8 12  1  0  0  0  0
  8 13  1  0  0  0  0
  8 20  1  0  0  0  0
  9 10  1  0  0  0  0
  9 15  1  0  0  0  0
  9 59  1  0  0  0  0
 10 11  1  0  0  0  0
 10 18  1  0  0  0  0
 10 60  1  0  0  0  0
 11 14  1  0  0  0  0
 11 16  1  0  0  0  0
 11 61  1  0  0  0  0
 12 17  1  0  0  0  0
 12 19  1  0  0  0  0
 12 62  1  0  0  0  0
 13 16  1  0  0  0  0
 13 63  1  0  0  0  0
 13 64  1  0  0  0  0
 14 21  1  0  0  0  0
 14 22  1  0  0  0  0
 14 24  1  0  0  0  0
 15 17  1  0  0  0  0
 15 65  1  0  0  0  0
 15 66  1  0  0  0  0
 16 67  1  0  0  0  0
 16 68  1  0  0  0  0
 17 69  1  0  0  0  0
 17 70  1  0  0  0  0
 18 23  1  0  0  0  0
 18 71  1  0  0  0  0
 18 72  1  0  0  0  0
 19 27  1  0  0  0  0
 19 29  1  0  0  0  0
 19 73  1  0  0  0  0
 20 74  1  0  0  0  0
 20 75  1  0  0  0  0
 20 76  1  0  0  0  0
 21 23  2  0  0  0  0
 21 25  1  0  0  0  0
 22 26  1  0  0  0  0
 22 77  1  0  0  0  0
 22 78  1  0  0  0  0
 23 79  1  0  0  0  0
 24 80  1  0  0  0  0
 24 81  1  0  0  0  0
 24 82  1  0  0  0  0
 25 28  1  0  0  0  0
 25 83  1  0  0  0  0
 25 84  1  0  0  0  0
 26 28  1  0  0  0  0
 26 85  1  0  0  0  0
 26 86  1  0  0  0  0
 27 30  1  0  0  0  0
 27 87  1  0  0  0  0
 27 88  1  0  0  0  0
 28 89  1  0  0  0  0
 29 90  1  0  0  0  0
 29 91  1  0  0  0  0
 29 92  1  0  0  0  0
 30 31  1  0  0  0  0
 30 93  1  0  0  0  0
 30 94  1  0  0  0  0
 31 33  1  0  0  0  0
 31 35  2  0  0  0  0
 32 34  1  0  0  0  0
 32 95  1  0  0  0  0
 33 39  1  0  0  0  0
 33 40  1  0  0  0  0
 33 96  1  0  0  0  0
 34 36  1  0  0  0  0
 34 97  1  0  0  0  0
 35 41  1  0  0  0  0
 35 98  1  0  0  0  0
 36 38  1  0  0  0  0
 36 99  1  0  0  0  0
 37 38  1  0  0  0  0
 37 42  1  0  0  0  0
 37100  1  0  0  0  0
 38101  1  0  0  0  0
 39102  1  0  0  0  0
 39103  1  0  0  0  0
 39104  1  0  0  0  0
 40105  1  0  0  0  0
 40106  1  0  0  0  0
 40107  1  0  0  0  0
 41108  1  0  0  0  0
 41109  1  0  0  0  0
 41110  1  0  0  0  0
 42112  1  0  0  0  0
 42113  1  0  0  0  0
 43 44  1  0  0  0  0
 44 45  1  0  0  0  0
 44116  1  0  0  0  0
 44117  1  0  0  0  0
 45 46  1  0  0  0  0
 45118  1  0  0  0  0
 45119  1  0  0  0  0
 46 47  1  0  0  0  0
 46120  1  0  0  0  0
 46121  1  0  0  0  0
 47 48  1  0  0  0  0
 47122  1  0  0  0  0
 47123  1  0  0  0  0
 48 49  1  0  0  0  0
 48124  1  0  0  0  0
 48125  1  0  0  0  0
 49 50  1  0  0  0  0
 49126  1  0  0  0  0
 49127  1  0  0  0  0
 50 51  1  0  0  0  0
 50128  1  0  0  0  0
 50129  1  0  0  0  0
 51 52  1  0  0  0  0
 51130  1  0  0  0  0
 51131  1  0  0  0  0
 52 53  1  0  0  0  0
 52132  1  0  0  0  0
 52133  1  0  0  0  0
 53 54  1  0  0  0  0
 53134  1  0  0  0  0
 53135  1  0  0  0  0
 54 55  1  0  0  0  0
 54136  1  0  0  0  0
 54137  1  0  0  0  0
 55 56  1  0  0  0  0
 55138  1  0  0  0  0
 55139  1  0  0  0  0
 56 57  1  0  0  0  0
 56140  1  0  0  0  0
 56141  1  0  0  0  0
 57 58  1  0  0  0  0
 57142  1  0  0  0  0
 57143  1  0  0  0  0
 58144  1  0  0  0  0
 58145  1  0  0  0  0
 58146  1  0  0  0  0
M  END
>  <PUBCHEM_COMPOUND_CID>
131751317

>  <PUBCHEM_COMPOUND_CANONICALIZED>
1

>  <PUBCHEM_CACTVS_COMPLEXITY>
1310

>  <PUBCHEM_CACTVS_HBOND_ACCEPTOR>
7

>  <PUBCHEM_CACTVS_HBOND_DONOR>
3

>  <PUBCHEM_CACTVS_ROTATABLE_BOND>
24

>  <PUBCHEM_CACTVS_SUBSKEYS>
AAADcfB8OAAAAAAAAAAAAAAAAAAAAYAAAAA0YIEAAAAAAGCAAAAAGgAACAAADxSwgAMCCAAABgCIAiDSCAAAAAAgAAAACAEAAAgREBIAAQAiQAAFwAAPAAPI6PyPgAAAAAAAAADAAAQAACAAAQAACAAAAA==

>  <PUBCHEM_IUPAC_OPENEYE_NAME>
[3,4,5-trihydroxy-6-[[17-[(E)-4-isopropyl-1-methyl-hex-4-enyl]-10,13-dimethyl-2,3,4,7,8,9,11,12,14,15,16,17-dodecahydro-1H-cyclopenta[a]phenanthren-3-yl]oxy]tetrahydropyran-2-yl]methyl hexadecanoate

>  <PUBCHEM_IUPAC_CAS_NAME>
hexadecanoic acid [6-[[10,13-dimethyl-17-[(E)-5-propan-2-ylhept-5-en-2-yl]-2,3,4,7,8,9,11,12,14,15,16,17-dodecahydro-1H-cyclopenta[a]phenanthren-3-yl]oxy]-3,4,5-trihydroxy-2-oxanyl]methyl ester

>  <PUBCHEM_IUPAC_NAME>
[6-[[10,13-dimethyl-17-[(E)-5-propan-2-ylhept-5-en-2-yl]-2,3,4,7,8,9,11,12,14,15,16,17-dodecahydro-1H-cyclopenta[a]phenanthren-3-yl]oxy]-3,4,5-trihydroxyoxan-2-yl]methyl hexadecanoate

>  <PUBCHEM_IUPAC_SYSTEMATIC_NAME>
[6-[[10,13-dimethyl-17-[(E)-5-propan-2-ylhept-5-en-2-yl]-2,3,4,7,8,9,11,12,14,15,16,17-dodecahydro-1H-cyclopenta[a]phenanthren-3-yl]oxy]-3,4,5-tris(oxidanyl)oxan-2-yl]methyl hexadecanoate

>  <PUBCHEM_IUPAC_TRADITIONAL_NAME>
palmitic acid [3,4,5-trihydroxy-6-[[17-[(E)-4-isopropyl-1-methyl-hex-4-enyl]-10,13-dimethyl-2,3,4,7,8,9,11,12,14,15,16,17-dodecahydro-1H-cyclopenta[a]phenanthren-3-yl]oxy]tetrahydropyran-2-yl]methyl ester

>  <PUBCHEM_IUPAC_INCHI>
InChI=1S/C51H88O7/c1-8-10-11-12-13-14-15-16-17-18-19-20-21-22-45(52)56-34-44-46(53)47(54)48(55)49(58-44)57-39-29-31-50(6)38(33-39)25-26-40-42-28-27-41(51(42,7)32-30-43(40)50)36(5)23-24-37(9-2)35(3)4/h9,25,35-36,39-44,46-49,53-55H,8,10-24,26-34H2,1-7H3/b37-9+

>  <PUBCHEM_IUPAC_INCHIKEY>
MDOIIJYPVORHPW-ILPJYELKSA-N

>  <PUBCHEM_EXACT_MASS>
812.653

>  <PUBCHEM_MOLECULAR_FORMULA>
C51H88O7

>  <PUBCHEM_MOLECULAR_WEIGHT>
813.258

>  <PUBCHEM_OPENEYE_CAN_SMILES>
CCCCCCCCCCCCCCCC(=O)OCC1C(C(C(C(O1)OC2CCC3(C4CCC5(C(C4CC=C3C2)CCC5C(C)CCC(=CC)C(C)C)C)C)O)O)O

>  <PUBCHEM_OPENEYE_ISO_SMILES>
CCCCCCCCCCCCCCCC(=O)OCC1C(C(C(C(O1)OC2CCC3(C4CCC5(C(C4CC=C3C2)CCC5C(C)CC/C(=C\C)/C(C)C)C)C)O)O)O

>  <PUBCHEM_CACTVS_TPSA>
105

>  <PUBCHEM_MONOISOTOPIC_WEIGHT>
812.653

>  <PUBCHEM_TOTAL_CHARGE>
0

>  <PUBCHEM_HEAVY_ATOM_COUNT>
58

>  <PUBCHEM_ATOM_DEF_STEREO_COUNT>
0

>  <PUBCHEM_ATOM_UDEF_STEREO_COUNT>
13

>  <PUBCHEM_BOND_DEF_STEREO_COUNT>
1

>  <PUBCHEM_BOND_UDEF_STEREO_COUNT>
0

>  <PUBCHEM_ISOTOPIC_ATOM_COUNT>
0

>  <PUBCHEM_COMPONENT_COUNT>
1

>  <PUBCHEM_CACTVS_TAUTO_COUNT>
1

>  <PUBCHEM_COORDINATE_TYPE>
1
5
255

>  <PUBCHEM_BONDANNOTATIONS>
28  1  3
32  1  3
10  18  3
11  16  3
12  17  3
14  24  3
19  29  3
34  3  3
37  42  3
36  4  3
38  5  3
8  20  3
9  15  3

$$$$
