131752699
 OpenBabel06101807152D

 80 84  0  0  1  0  0  0  0  0999 V2000
    9.6830    3.5035    0.0000 O   0  0  0  0  0  0  0  0  0  0  0  0
    2.0000   -2.5969    0.0000 O   0  0  0  0  0  0  0  0  0  0  0  0
    6.5271   -1.0445    0.0000 C   0  0  3  0  0  0  0  0  0  0  0  0
    7.3931   -0.5445    0.0000 C   0  0  3  0  0  0  0  0  0  0  0  0
    5.6610   -0.5445    0.0000 C   0  0  3  0  0  0  0  0  0  0  0  0
    4.7510   -1.0514    0.0000 C   0  0  3  0  0  0  0  0  0  0  0  0
    4.7430   -2.0930    0.0000 C   0  0  3  0  0  0  0  0  0  0  0  0
    7.3931    0.4555    0.0000 C   0  0  0  0  0  0  0  0  0  0  0  0
    8.2870    0.9901    0.0000 C   0  0  3  0  0  0  0  0  0  0  0  0
    6.5431   -2.0860    0.0000 C   0  0  0  0  0  0  0  0  0  0  0  0
    9.1931    0.4763    0.0000 C   0  0  3  0  0  0  0  0  0  0  0  0
    8.2870   -1.0792    0.0000 C   0  0  0  0  0  0  0  0  0  0  0  0
    5.6451   -2.6138    0.0000 C   0  0  0  0  0  0  0  0  0  0  0  0
    5.6610    0.4555    0.0000 C   0  0  0  0  0  0  0  0  0  0  0  0
    9.1931   -0.5654    0.0000 C   0  0  0  0  0  0  0  0  0  0  0  0
    3.8076   -2.6427    0.0000 C   0  0  0  0  0  0  0  0  0  0  0  0
    3.8242   -0.4873    0.0000 C   0  0  0  0  0  0  0  0  0  0  0  0
    8.2619    2.0748    0.0000 C   0  0  3  0  0  0  0  0  0  0  0  0
    7.1698   -1.8106    0.0000 C   0  0  0  0  0  0  0  0  0  0  0  0
    6.5271    0.9555    0.0000 C   0  0  0  0  0  0  0  0  0  0  0  0
    7.7352   -1.4842    0.0000 C   0  0  0  0  0  0  0  0  0  0  0  0
   10.1369    1.0115    0.0000 C   0  0  0  0  0  0  0  0  0  0  0  0
    4.7587   -0.0514    0.0000 C   0  0  0  0  0  0  0  0  0  0  0  0
    9.1931    2.6317    0.0000 C   0  0  3  0  0  0  0  0  0  0  0  0
    2.8763   -1.0152    0.0000 C   0  0  0  0  0  0  0  0  0  0  0  0
   10.1369    2.0965    0.0000 C   0  0  0  0  0  0  0  0  0  0  0  0
    2.8680   -2.1002    0.0000 C   0  0  0  0  0  0  0  0  0  0  0  0
   10.0629   -0.0170    0.0000 C   0  0  0  0  0  0  0  0  0  0  0  0
    3.3109   -3.5107    0.0000 C   0  0  0  0  0  0  0  0  0  0  0  0
    4.3109   -3.5068    0.0000 C   0  0  0  0  0  0  0  0  0  0  0  0
    7.3864    2.5580    0.0000 C   0  0  0  0  0  0  0  0  0  0  0  0
    8.6831    3.4919    0.0000 C   0  0  0  0  0  0  0  0  0  0  0  0
    6.1980   -0.2345    0.0000 H   0  0  0  0  0  0  0  0  0  0  0  0
    4.7454   -2.7130    0.0000 H   0  0  0  0  0  0  0  0  0  0  0  0
    7.7442    1.2897    0.0000 H   0  0  0  0  0  0  0  0  0  0  0  0
    6.7612   -2.6665    0.0000 H   0  0  0  0  0  0  0  0  0  0  0  0
    7.1523   -1.9706    0.0000 H   0  0  0  0  0  0  0  0  0  0  0  0
    7.8824   -1.5490    0.0000 H   0  0  0  0  0  0  0  0  0  0  0  0
    8.6806   -1.5582    0.0000 H   0  0  0  0  0  0  0  0  0  0  0  0
    5.2478   -3.0898    0.0000 H   0  0  0  0  0  0  0  0  0  0  0  0
    6.0460   -3.0867    0.0000 H   0  0  0  0  0  0  0  0  0  0  0  0
    5.4490    1.0381    0.0000 H   0  0  0  0  0  0  0  0  0  0  0  0
    5.0504    0.3478    0.0000 H   0  0  0  0  0  0  0  0  0  0  0  0
    9.4022   -1.1490    0.0000 H   0  0  0  0  0  0  0  0  0  0  0  0
    9.8040   -0.4593    0.0000 H   0  0  0  0  0  0  0  0  0  0  0  0
    4.2324   -0.0207    0.0000 H   0  0  0  0  0  0  0  0  0  0  0  0
    3.4343   -0.0053    0.0000 H   0  0  0  0  0  0  0  0  0  0  0  0
    7.7317    1.7535    0.0000 H   0  0  0  0  0  0  0  0  0  0  0  0
    6.6949   -2.2091    0.0000 H   0  0  0  0  0  0  0  0  0  0  0  0
    7.5684   -2.2855    0.0000 H   0  0  0  0  0  0  0  0  0  0  0  0
    7.6448   -1.4121    0.0000 H   0  0  0  0  0  0  0  0  0  0  0  0
    6.5271    1.5755    0.0000 H   0  0  0  0  0  0  0  0  0  0  0  0
    7.1526   -1.6963    0.0000 H   0  0  0  0  0  0  0  0  0  0  0  0
    7.9473   -2.0668    0.0000 H   0  0  0  0  0  0  0  0  0  0  0  0
    8.3178   -1.2721    0.0000 H   0  0  0  0  0  0  0  0  0  0  0  0
   10.3459    0.4278    0.0000 H   0  0  0  0  0  0  0  0  0  0  0  0
   10.7477    1.1176    0.0000 H   0  0  0  0  0  0  0  0  0  0  0  0
    5.3787   -0.0562    0.0000 H   0  0  0  0  0  0  0  0  0  0  0  0
    4.7635    0.5686    0.0000 H   0  0  0  0  0  0  0  0  0  0  0  0
    4.1388   -0.0466    0.0000 H   0  0  0  0  0  0  0  0  0  0  0  0
    2.6718   -0.4300    0.0000 H   0  0  0  0  0  0  0  0  0  0  0  0
    2.2647   -1.1166    0.0000 H   0  0  0  0  0  0  0  0  0  0  0  0
   10.7477    1.9904    0.0000 H   0  0  0  0  0  0  0  0  0  0  0  0
   10.3459    2.6802    0.0000 H   0  0  0  0  0  0  0  0  0  0  0  0
    9.7571   -0.5563    0.0000 H   0  0  0  0  0  0  0  0  0  0  0  0
   10.6023   -0.3229    0.0000 H   0  0  0  0  0  0  0  0  0  0  0  0
   10.3688    0.5223    0.0000 H   0  0  0  0  0  0  0  0  0  0  0  0
    2.7728   -3.2027    0.0000 H   0  0  0  0  0  0  0  0  0  0  0  0
    3.0030   -4.0488    0.0000 H   0  0  0  0  0  0  0  0  0  0  0  0
    3.7752   -3.8189    0.0000 H   0  0  0  0  0  0  0  0  0  0  0  0
    4.6230   -4.0425    0.0000 H   0  0  0  0  0  0  0  0  0  0  0  0
    3.8490   -3.8186    0.0000 H   0  0  0  0  0  0  0  0  0  0  0  0
    4.8466   -3.1947    0.0000 H   0  0  0  0  0  0  0  0  0  0  0  0
    7.6860    3.1008    0.0000 H   0  0  0  0  0  0  0  0  0  0  0  0
    6.8436    2.8576    0.0000 H   0  0  0  0  0  0  0  0  0  0  0  0
    7.0868    2.0152    0.0000 H   0  0  0  0  0  0  0  0  0  0  0  0
    9.2164    3.8081    0.0000 H   0  0  0  0  0  0  0  0  0  0  0  0
    8.3669    4.0252    0.0000 H   0  0  0  0  0  0  0  0  0  0  0  0
    8.1498    3.1757    0.0000 H   0  0  0  0  0  0  0  0  0  0  0  0
   10.3030    3.5107    0.0000 H   0  0  0  0  0  0  0  0  0  0  0  0
  1 24  1  0  0  0  0
  1 80  1  0  0  0  0
  2 27  2  0  0  0  0
  3  4  1  0  0  0  0
  3  5  1  0  0  0  0
  3 10  1  0  0  0  0
  3 19  1  0  0  0  0
  4  8  1  0  0  0  0
  4 12  1  0  0  0  0
  4 21  1  0  0  0  0
  5  6  1  0  0  0  0
  5 14  1  0  0  0  0
  5 33  1  0  0  0  0
  6  7  1  0  0  0  0
  6 17  1  0  0  0  0
  6 23  1  0  0  0  0
  7 13  1  0  0  0  0
  7 16  1  0  0  0  0
  7 34  1  0  0  0  0
  8  9  1  0  0  0  0
  8 20  2  0  0  0  0
  9 11  1  0  0  0  0
  9 18  1  0  0  0  0
  9 35  1  0  0  0  0
 10 13  1  0  0  0  0
 10 36  1  0  0  0  0
 10 37  1  0  0  0  0
 11 15  1  0  0  0  0
 11 22  1  0  0  0  0
 11 28  1  0  0  0  0
 12 15  1  0  0  0  0
 12 38  1  0  0  0  0
 12 39  1  0  0  0  0
 13 40  1  0  0  0  0
 13 41  1  0  0  0  0
 14 20  1  0  0  0  0
 14 42  1  0  0  0  0
 14 43  1  0  0  0  0
 15 44  1  0  0  0  0
 15 45  1  0  0  0  0
 16 27  1  0  0  0  0
 16 29  1  0  0  0  0
 16 30  1  0  0  0  0
 17 25  1  0  0  0  0
 17 46  1  0  0  0  0
 17 47  1  0  0  0  0
 18 24  1  0  0  0  0
 18 31  1  0  0  0  0
 18 48  1  0  0  0  0
 19 49  1  0  0  0  0
 19 50  1  0  0  0  0
 19 51  1  0  0  0  0
 20 52  1  0  0  0  0
 21 53  1  0  0  0  0
 21 54  1  0  0  0  0
 21 55  1  0  0  0  0
 22 26  1  0  0  0  0
 22 56  1  0  0  0  0
 22 57  1  0  0  0  0
 23 58  1  0  0  0  0
 23 59  1  0  0  0  0
 23 60  1  0  0  0  0
 24 26  1  0  0  0  0
 24 32  1  0  0  0  0
 25 27  1  0  0  0  0
 25 61  1  0  0  0  0
 25 62  1  0  0  0  0
 26 63  1  0  0  0  0
 26 64  1  0  0  0  0
 28 65  1  0  0  0  0
 28 66  1  0  0  0  0
 28 67  1  0  0  0  0
 29 68  1  0  0  0  0
 29 69  1  0  0  0  0
 29 72  1  0  0  0  0
 30 70  1  0  0  0  0
 30 71  1  0  0  0  0
 30 73  1  0  0  0  0
 31 74  1  0  0  0  0
 31 75  1  0  0  0  0
 31 76  1  0  0  0  0
 32 77  1  0  0  0  0
 32 78  1  0  0  0  0
 32 79  1  0  0  0  0
M  END
>  <PUBCHEM_COMPOUND_CID>
131752699

>  <PUBCHEM_COMPOUND_CANONICALIZED>
1

>  <PUBCHEM_CACTVS_COMPLEXITY>
870

>  <PUBCHEM_CACTVS_HBOND_ACCEPTOR>
2

>  <PUBCHEM_CACTVS_HBOND_DONOR>
1

>  <PUBCHEM_CACTVS_ROTATABLE_BOND>
0

>  <PUBCHEM_CACTVS_SUBSKEYS>
AAADcfB4MAAAAAAAAAAAAAAAAAAAAAAAAAAwYMGCAAAAAADAAAAAGgAACAAAD0SAgAACAAAAAgCIAqBSAAAAAAAgAAAACAEAAAgAABIAAQAAQAAEgAAIAAOIyPCPgAAAAAAAAADAAAYAADAAAAAAAAAAAA==

>  <PUBCHEM_IUPAC_OPENEYE_NAME>
11-hydroxy-4,4,6a,6b,8a,11,12,14b-octamethyl-2,4a,5,6,7,8,9,10,12,12a,14,14a-dodecahydro-1H-picen-3-one

>  <PUBCHEM_IUPAC_CAS_NAME>
11-hydroxy-4,4,6a,6b,8a,11,12,14b-octamethyl-2,4a,5,6,7,8,9,10,12,12a,14,14a-dodecahydro-1H-picen-3-one

>  <PUBCHEM_IUPAC_NAME>
11-hydroxy-4,4,6a,6b,8a,11,12,14b-octamethyl-2,4a,5,6,7,8,9,10,12,12a,14,14a-dodecahydro-1H-picen-3-one

>  <PUBCHEM_IUPAC_SYSTEMATIC_NAME>
4,4,6a,6b,8a,11,12,14b-octamethyl-11-oxidanyl-2,4a,5,6,7,8,9,10,12,12a,14,14a-dodecahydro-1H-picen-3-one

>  <PUBCHEM_IUPAC_TRADITIONAL_NAME>
11-hydroxy-4,4,6a,6b,8a,11,12,14b-octamethyl-2,4a,5,6,7,8,9,10,12,12a,14,14a-dodecahydro-1H-picen-3-one

>  <PUBCHEM_IUPAC_INCHI>
InChI=1S/C30H48O2/c1-19-24-20-9-10-22-27(5)13-12-23(31)25(2,3)21(27)11-14-29(22,7)28(20,6)17-15-26(24,4)16-18-30(19,8)32/h9,19,21-22,24,32H,10-18H2,1-8H3

>  <PUBCHEM_IUPAC_INCHIKEY>
JGOGEYGCWRVPQA-UHFFFAOYSA-N

>  <PUBCHEM_EXACT_MASS>
440.365

>  <PUBCHEM_MOLECULAR_FORMULA>
C30H48O2

>  <PUBCHEM_MOLECULAR_WEIGHT>
440.712

>  <PUBCHEM_OPENEYE_CAN_SMILES>
CC1C2C3=CCC4C5(CCC(=O)C(C5CCC4(C3(CCC2(CCC1(C)O)C)C)C)(C)C)C

>  <PUBCHEM_OPENEYE_ISO_SMILES>
CC1C2C3=CCC4C5(CCC(=O)C(C5CCC4(C3(CCC2(CCC1(C)O)C)C)C)(C)C)C

>  <PUBCHEM_CACTVS_TPSA>
37.3

>  <PUBCHEM_MONOISOTOPIC_WEIGHT>
440.365

>  <PUBCHEM_TOTAL_CHARGE>
0

>  <PUBCHEM_HEAVY_ATOM_COUNT>
32

>  <PUBCHEM_ATOM_DEF_STEREO_COUNT>
0

>  <PUBCHEM_ATOM_UDEF_STEREO_COUNT>
9

>  <PUBCHEM_BOND_DEF_STEREO_COUNT>
0

>  <PUBCHEM_BOND_UDEF_STEREO_COUNT>
0

>  <PUBCHEM_ISOTOPIC_ATOM_COUNT>
0

>  <PUBCHEM_COMPONENT_COUNT>
1

>  <PUBCHEM_CACTVS_TAUTO_COUNT>
2

>  <PUBCHEM_COORDINATE_TYPE>
1
5
255

>  <PUBCHEM_BONDANNOTATIONS>
24  1  3
11  28  3
18  31  3
3  19  3
4  21  3
5  14  3
6  23  3
7  13  3
9  8  3

$$$$
