131751655
 OpenBabel06101807152D

 53 57  0  0  1  0  0  0  0  0999 V2000
    6.3330   -0.8027    0.0000 O   0  0  0  0  0  0  0  0  0  0  0  0
    4.3641    2.0462    0.0000 O   0  0  0  0  0  0  0  0  0  0  0  0
    3.2614   -2.4672    0.0000 O   0  0  0  0  0  0  0  0  0  0  0  0
    2.2922   -0.6697    0.0000 O   0  0  0  0  0  0  0  0  0  0  0  0
    8.0485   -0.3832    0.0000 O   0  0  0  0  0  0  0  0  0  0  0  0
    5.9662   -2.6387    0.0000 O   0  0  0  0  0  0  0  0  0  0  0  0
    7.3491   -1.9678    0.0000 O   0  0  0  0  0  0  0  0  0  0  0  0
    6.4625    0.4149    0.0000 C   0  0  3  0  0  0  0  0  0  0  0  0
    4.8764    0.1285    0.0000 C   0  0  3  0  0  0  0  0  0  0  0  0
    5.5615    0.8488    0.0000 C   0  0  3  0  0  0  0  0  0  0  0  0
    5.3482   -0.7465    0.0000 C   0  0  3  0  0  0  0  0  0  0  0  0
    6.3265   -0.5698    0.0000 C   0  0  3  0  0  0  0  0  0  0  0  0
    4.8183   -1.6361    0.0000 C   0  0  3  0  0  0  0  0  0  0  0  0
    6.3556    1.5916    0.0000 C   0  0  0  0  0  0  0  0  0  0  0  0
    5.3390    1.8237    0.0000 C   0  0  3  0  0  0  0  0  0  0  0  0
    7.3634    0.8488    0.0000 C   0  0  0  0  0  0  0  0  0  0  0  0
    3.8420    0.1745    0.0000 C   0  0  0  0  0  0  0  0  0  0  0  0
    6.9625    2.6055    0.0000 C   0  0  3  0  0  0  0  0  0  0  0  0
    5.8697    0.0774    0.0000 C   0  0  0  0  0  0  0  0  0  0  0  0
    5.9625    2.6055    0.0000 C   0  0  0  0  0  0  0  0  0  0  0  0
    3.7831   -1.6140    0.0000 C   0  0  3  0  0  0  0  0  0  0  0  0
    3.2916   -0.7026    0.0000 C   0  0  3  0  0  0  0  0  0  0  0  0
    7.5860    1.8237    0.0000 C   0  0  0  0  0  0  0  0  0  0  0  0
    5.8128   -1.6505    0.0000 C   0  0  0  0  0  0  0  0  0  0  0  0
    7.2414   -0.9736    0.0000 C   0  0  0  0  0  0  0  0  0  0  0  0
    4.8004   -2.6359    0.0000 C   0  0  0  0  0  0  0  0  0  0  0  0
    8.5609    2.0462    0.0000 C   0  0  0  0  0  0  0  0  0  0  0  0
    6.0462    1.2353    0.0000 H   0  0  0  0  0  0  0  0  0  0  0  0
    5.7014   -1.2561    0.0000 H   0  0  0  0  0  0  0  0  0  0  0  0
    6.2532   -1.1855    0.0000 H   0  0  0  0  0  0  0  0  0  0  0  0
    5.9478    2.0587    0.0000 H   0  0  0  0  0  0  0  0  0  0  0  0
    5.7856    1.3478    0.0000 H   0  0  0  0  0  0  0  0  0  0  0  0
    5.1342    2.4089    0.0000 H   0  0  0  0  0  0  0  0  0  0  0  0
    7.5014    0.2443    0.0000 H   0  0  0  0  0  0  0  0  0  0  0  0
    7.9834    0.8488    0.0000 H   0  0  0  0  0  0  0  0  0  0  0  0
    3.9751    0.7800    0.0000 H   0  0  0  0  0  0  0  0  0  0  0  0
    3.2682    0.4093    0.0000 H   0  0  0  0  0  0  0  0  0  0  0  0
    7.2315    3.1641    0.0000 H   0  0  0  0  0  0  0  0  0  0  0  0
    6.4610    0.2641    0.0000 H   0  0  0  0  0  0  0  0  0  0  0  0
    5.7910    0.6924    0.0000 H   0  0  0  0  0  0  0  0  0  0  0  0
    6.1004    3.2100    0.0000 H   0  0  0  0  0  0  0  0  0  0  0  0
    5.4039    2.8745    0.0000 H   0  0  0  0  0  0  0  0  0  0  0  0
    4.0805   -2.1580    0.0000 H   0  0  0  0  0  0  0  0  0  0  0  0
    2.9651   -1.2297    0.0000 H   0  0  0  0  0  0  0  0  0  0  0  0
    4.1805   -2.6248    0.0000 H   0  0  0  0  0  0  0  0  0  0  0  0
    4.7893   -3.2558    0.0000 H   0  0  0  0  0  0  0  0  0  0  0  0
    5.4203   -2.6470    0.0000 H   0  0  0  0  0  0  0  0  0  0  0  0
    4.1813    2.6387    0.0000 H   0  0  0  0  0  0  0  0  0  0  0  0
    8.9826    1.5917    0.0000 H   0  0  0  0  0  0  0  0  0  0  0  0
    8.7436    2.6387    0.0000 H   0  0  0  0  0  0  0  0  0  0  0  0
    2.6416   -2.4515    0.0000 H   0  0  0  0  0  0  0  0  0  0  0  0
    2.0000   -0.1228    0.0000 H   0  0  0  0  0  0  0  0  0  0  0  0
    8.6157   -0.6335    0.0000 H   0  0  0  0  0  0  0  0  0  0  0  0
  1 19  1  0  0  0  0
  1 24  1  0  0  0  0
  2 15  1  0  0  0  0
  2 48  1  0  0  0  0
  3 21  1  0  0  0  0
  3 51  1  0  0  0  0
  4 22  1  0  0  0  0
  4 52  1  0  0  0  0
  5 25  1  0  0  0  0
  5 53  1  0  0  0  0
  6 24  2  0  0  0  0
  7 25  2  0  0  0  0
  8 10  1  0  0  0  0
  8 12  1  0  0  0  0
  8 14  1  0  0  0  0
  8 16  1  0  0  0  0
  9 10  1  0  0  0  0
  9 11  1  0  0  0  0
  9 17  1  0  0  0  0
  9 19  1  0  0  0  0
 10 15  1  0  0  0  0
 10 28  1  0  0  0  0
 11 12  1  0  0  0  0
 11 13  1  0  0  0  0
 11 29  1  0  0  0  0
 12 25  1  0  0  0  0
 12 30  1  0  0  0  0
 13 21  1  0  0  0  0
 13 24  1  0  0  0  0
 13 26  1  0  0  0  0
 14 18  1  0  0  0  0
 14 31  1  0  0  0  0
 14 32  1  0  0  0  0
 15 20  1  0  0  0  0
 15 33  1  0  0  0  0
 16 23  1  0  0  0  0
 16 34  1  0  0  0  0
 16 35  1  0  0  0  0
 17 22  1  0  0  0  0
 17 36  1  0  0  0  0
 17 37  1  0  0  0  0
 18 20  1  0  0  0  0
 18 23  1  0  0  0  0
 18 38  1  0  0  0  0
 19 39  1  0  0  0  0
 19 40  1  0  0  0  0
 20 41  1  0  0  0  0
 20 42  1  0  0  0  0
 21 22  1  0  0  0  0
 21 43  1  0  0  0  0
 22 44  1  0  0  0  0
 23 27  2  0  0  0  0
 26 45  1  0  0  0  0
 26 46  1  0  0  0  0
 26 47  1  0  0  0  0
 27 49  1  0  0  0  0
 27 50  1  0  0  0  0
M  END
>  <PUBCHEM_COMPOUND_CID>
131751655

>  <PUBCHEM_COMPOUND_CANONICALIZED>
1

>  <PUBCHEM_CACTVS_COMPLEXITY>
763

>  <PUBCHEM_CACTVS_HBOND_ACCEPTOR>
7

>  <PUBCHEM_CACTVS_HBOND_DONOR>
4

>  <PUBCHEM_CACTVS_ROTATABLE_BOND>
1

>  <PUBCHEM_CACTVS_SUBSKEYS>
AAADceB4OAAAAAAAAAAAAAAAAAAAAYMAAAA0YIAABgASAGjAAAAAGgAACAAADxSggAICCAAABgCIAgDSCAAAAAAgAAAAAAEAAAgBEBYAAQACQAAFoAABAAHK7vzPgAAAAAAAAADAAAYAADCAAQAACAAAAA==

>  <PUBCHEM_IUPAC_INCHI>
InChI=1S/C20H26O7/c1-8-4-19-5-9(8)3-10(21)13(19)20-6-11(22)15(23)18(2,17(26)27-7-20)14(20)12(19)16(24)25/h9-15,21-23H,1,3-7H2,2H3,(H,24,25)

>  <PUBCHEM_IUPAC_INCHIKEY>
RERZXVXKJOZXIL-UHFFFAOYSA-N

>  <PUBCHEM_EXACT_MASS>
378.168

>  <PUBCHEM_MOLECULAR_FORMULA>
C20H26O7

>  <PUBCHEM_MOLECULAR_WEIGHT>
378.421

>  <PUBCHEM_OPENEYE_CAN_SMILES>
CC12C3C(C45CC(CC(C4C3(CC(C1O)O)COC2=O)O)C(=C)C5)C(=O)O

>  <PUBCHEM_OPENEYE_ISO_SMILES>
CC12C3C(C45CC(CC(C4C3(CC(C1O)O)COC2=O)O)C(=C)C5)C(=O)O

>  <PUBCHEM_CACTVS_TPSA>
124

>  <PUBCHEM_MONOISOTOPIC_WEIGHT>
378.168

>  <PUBCHEM_TOTAL_CHARGE>
0

>  <PUBCHEM_HEAVY_ATOM_COUNT>
27

>  <PUBCHEM_ATOM_DEF_STEREO_COUNT>
0

>  <PUBCHEM_ATOM_UDEF_STEREO_COUNT>
10

>  <PUBCHEM_BOND_DEF_STEREO_COUNT>
0

>  <PUBCHEM_BOND_UDEF_STEREO_COUNT>
0

>  <PUBCHEM_ISOTOPIC_ATOM_COUNT>
0

>  <PUBCHEM_COMPONENT_COUNT>
1

>  <PUBCHEM_CACTVS_TAUTO_COUNT>
1

>  <PUBCHEM_COORDINATE_TYPE>
1
5
255

>  <PUBCHEM_BONDANNOTATIONS>
10  15  3
11  12  3
12  25  3
13  26  3
18  20  3
15  2  3
21  3  3
22  4  3
8  14  3
9  17  3

$$$$
