131752231
 OpenBabel06101807152D

 41 43  0  0  1  0  0  0  0  0999 V2000
    4.8936    0.7701    0.0000 O   0  0  0  0  0  0  0  0  0  0  0  0
    2.3100   -0.0346    0.0000 O   0  0  0  0  0  0  0  0  0  0  0  0
    7.5878    2.5346    0.0000 O   0  0  0  0  0  0  0  0  0  0  0  0
    6.7058   -2.0346    0.0000 O   0  0  0  0  0  0  0  0  0  0  0  0
    5.8181    2.4968    0.0000 O   0  0  0  0  0  0  0  0  0  0  0  0
    4.3100   -0.0346    0.0000 C   0  0  3  0  0  0  0  0  0  0  0  0
    4.8936   -0.8394    0.0000 C   0  0  0  0  0  0  0  0  0  0  0  0
    3.3100   -0.0346    0.0000 C   0  0  0  0  0  0  0  0  0  0  0  0
    5.8398   -0.5346    0.0000 C   0  0  0  0  0  0  0  0  0  0  0  0
    5.8398    0.4654    0.0000 C   0  0  0  0  0  0  0  0  0  0  0  0
    6.7058    0.9654    0.0000 C   0  0  0  0  0  0  0  0  0  0  0  0
    7.5719    0.4654    0.0000 C   0  0  0  0  0  0  0  0  0  0  0  0
    6.7058   -1.0346    0.0000 C   0  0  0  0  0  0  0  0  0  0  0  0
    8.4819    0.9722    0.0000 C   0  0  0  0  0  0  0  0  0  0  0  0
    3.3100   -1.0346    0.0000 C   0  0  0  0  0  0  0  0  0  0  0  0
    3.3100    0.9654    0.0000 C   0  0  0  0  0  0  0  0  0  0  0  0
    8.4899    2.0138    0.0000 C   0  0  3  0  0  0  0  0  0  0  0  0
    7.5719   -0.5346    0.0000 C   0  0  0  0  0  0  0  0  0  0  0  0
    6.6898    2.0069    0.0000 C   0  0  0  0  0  0  0  0  0  0  0  0
    9.3579    2.5105    0.0000 C   0  0  0  0  0  0  0  0  0  0  0  0
    7.5719   -2.5346    0.0000 C   0  0  0  0  0  0  0  0  0  0  0  0
    4.0283    0.5177    0.0000 H   0  0  0  0  0  0  0  0  0  0  0  0
    4.3562   -1.1486    0.0000 H   0  0  0  0  0  0  0  0  0  0  0  0
    5.1446   -1.4063    0.0000 H   0  0  0  0  0  0  0  0  0  0  0  0
    8.6864    0.3869    0.0000 H   0  0  0  0  0  0  0  0  0  0  0  0
    9.0935    1.0736    0.0000 H   0  0  0  0  0  0  0  0  0  0  0  0
    2.6900   -1.0346    0.0000 H   0  0  0  0  0  0  0  0  0  0  0  0
    3.3100   -1.6546    0.0000 H   0  0  0  0  0  0  0  0  0  0  0  0
    3.9300   -1.0346    0.0000 H   0  0  0  0  0  0  0  0  0  0  0  0
    3.9300    0.9654    0.0000 H   0  0  0  0  0  0  0  0  0  0  0  0
    3.3100    1.5854    0.0000 H   0  0  0  0  0  0  0  0  0  0  0  0
    2.6900    0.9654    0.0000 H   0  0  0  0  0  0  0  0  0  0  0  0
    8.4911    2.6338    0.0000 H   0  0  0  0  0  0  0  0  0  0  0  0
    8.1088   -0.8446    0.0000 H   0  0  0  0  0  0  0  0  0  0  0  0
    2.0000   -0.5716    0.0000 H   0  0  0  0  0  0  0  0  0  0  0  0
    9.6658    1.9724    0.0000 H   0  0  0  0  0  0  0  0  0  0  0  0
    9.8960    2.8184    0.0000 H   0  0  0  0  0  0  0  0  0  0  0  0
    9.0499    3.0486    0.0000 H   0  0  0  0  0  0  0  0  0  0  0  0
    7.2619   -3.0716    0.0000 H   0  0  0  0  0  0  0  0  0  0  0  0
    8.1088   -2.8446    0.0000 H   0  0  0  0  0  0  0  0  0  0  0  0
    7.8819   -1.9977    0.0000 H   0  0  0  0  0  0  0  0  0  0  0  0
  1  6  1  0  0  0  0
  1 10  1  0  0  0  0
  2  8  1  0  0  0  0
  2 35  1  0  0  0  0
  3 17  1  0  0  0  0
  3 19  1  0  0  0  0
  4 13  1  0  0  0  0
  4 21  1  0  0  0  0
  5 19  2  0  0  0  0
  6  7  1  0  0  0  0
  6  8  1  0  0  0  0
  6 22  1  0  0  0  0
  7  9  1  0  0  0  0
  7 23  1  0  0  0  0
  7 24  1  0  0  0  0
  8 15  1  0  0  0  0
  8 16  1  0  0  0  0
  9 10  1  0  0  0  0
  9 13  2  0  0  0  0
 10 11  2  0  0  0  0
 11 12  1  0  0  0  0
 11 19  1  0  0  0  0
 12 14  1  0  0  0  0
 12 18  2  0  0  0  0
 13 18  1  0  0  0  0
 14 17  1  0  0  0  0
 14 25  1  0  0  0  0
 14 26  1  0  0  0  0
 15 27  1  0  0  0  0
 15 28  1  0  0  0  0
 15 29  1  0  0  0  0
 16 30  1  0  0  0  0
 16 31  1  0  0  0  0
 16 32  1  0  0  0  0
 17 20  1  0  0  0  0
 17 33  1  0  0  0  0
 18 34  1  0  0  0  0
 20 36  1  0  0  0  0
 20 37  1  0  0  0  0
 20 38  1  0  0  0  0
 21 39  1  0  0  0  0
 21 40  1  0  0  0  0
 21 41  1  0  0  0  0
M  END
>  <PUBCHEM_COMPOUND_CID>
131752231

>  <PUBCHEM_COMPOUND_CANONICALIZED>
1

>  <PUBCHEM_CACTVS_COMPLEXITY>
421

>  <PUBCHEM_CACTVS_HBOND_ACCEPTOR>
5

>  <PUBCHEM_CACTVS_HBOND_DONOR>
1

>  <PUBCHEM_CACTVS_ROTATABLE_BOND>
2

>  <PUBCHEM_CACTVS_SUBSKEYS>
AAADceB4OAAAAAAAAAAAAAAAAAAAASAAAAA0QAAAAAAAAEiRAAAAGgAACAAADFSgmAIyDoAABgCIAiDSCAACCAAkIAAAiAEGCMgNJzaENRqCeWCl4BULqQfI7PzO4AADCAAYAADAAAYQADAAAAAAAAAAAA==

>  <PUBCHEM_IUPAC_OPENEYE_NAME>
2-(1-hydroxy-1-methyl-ethyl)-4-methoxy-7-methyl-2,3,6,7-tetrahydrofuro[3,2-h]isochromen-9-one

>  <PUBCHEM_IUPAC_CAS_NAME>
2-(2-hydroxypropan-2-yl)-4-methoxy-7-methyl-2,3,6,7-tetrahydrofuro[3,2-h][2]benzopyran-9-one

>  <PUBCHEM_IUPAC_NAME>
2-(2-hydroxypropan-2-yl)-4-methoxy-7-methyl-2,3,6,7-tetrahydrofuro[3,2-h]isochromen-9-one

>  <PUBCHEM_IUPAC_SYSTEMATIC_NAME>
4-methoxy-7-methyl-2-(2-oxidanylpropan-2-yl)-2,3,6,7-tetrahydrofuro[3,2-h]isochromen-9-one

>  <PUBCHEM_IUPAC_TRADITIONAL_NAME>
2-(1-hydroxy-1-methyl-ethyl)-4-methoxy-7-methyl-2,3,6,7-tetrahydrofur[3,2-h]isochromen-9-one

>  <PUBCHEM_IUPAC_INCHI>
InChI=1S/C16H20O5/c1-8-5-9-6-11(19-4)10-7-12(16(2,3)18)21-14(10)13(9)15(17)20-8/h6,8,12,18H,5,7H2,1-4H3

>  <PUBCHEM_IUPAC_INCHIKEY>
QBALHQFWXZYTDM-UHFFFAOYSA-N

>  <PUBCHEM_EXACT_MASS>
292.131

>  <PUBCHEM_MOLECULAR_FORMULA>
C16H20O5

>  <PUBCHEM_MOLECULAR_WEIGHT>
292.331

>  <PUBCHEM_OPENEYE_CAN_SMILES>
CC1CC2=CC(=C3CC(OC3=C2C(=O)O1)C(C)(C)O)OC

>  <PUBCHEM_OPENEYE_ISO_SMILES>
CC1CC2=CC(=C3CC(OC3=C2C(=O)O1)C(C)(C)O)OC

>  <PUBCHEM_CACTVS_TPSA>
65

>  <PUBCHEM_MONOISOTOPIC_WEIGHT>
292.131

>  <PUBCHEM_TOTAL_CHARGE>
0

>  <PUBCHEM_HEAVY_ATOM_COUNT>
21

>  <PUBCHEM_ATOM_DEF_STEREO_COUNT>
0

>  <PUBCHEM_ATOM_UDEF_STEREO_COUNT>
2

>  <PUBCHEM_BOND_DEF_STEREO_COUNT>
0

>  <PUBCHEM_BOND_UDEF_STEREO_COUNT>
0

>  <PUBCHEM_ISOTOPIC_ATOM_COUNT>
0

>  <PUBCHEM_COMPONENT_COUNT>
1

>  <PUBCHEM_CACTVS_TAUTO_COUNT>
4

>  <PUBCHEM_COORDINATE_TYPE>
1
5
255

>  <PUBCHEM_BONDANNOTATIONS>
10  11  8
11  12  8
12  18  8
13  18  8
17  20  3
6  8  3
9  10  8
9  13  8

$$$$
