131751825
 OpenBabel06101807152D

 74 74  0  0  0  0  0  0  0  0999 V2000
   12.5263    5.5000    0.0000 O   0  0  0  0  0  0  0  0  0  0  0  0
    3.0000   -4.0000    0.0000 C   0  0  0  0  0  0  0  0  0  0  0  0
    3.0000   -5.0000    0.0000 C   0  0  0  0  0  0  0  0  0  0  0  0
    3.8660   -5.5000    0.0000 C   0  0  0  0  0  0  0  0  0  0  0  0
    3.8660   -3.5000    0.0000 C   0  0  0  0  0  0  0  0  0  0  0  0
    4.7320   -5.0000    0.0000 C   0  0  0  0  0  0  0  0  0  0  0  0
    4.7320   -4.0000    0.0000 C   0  0  0  0  0  0  0  0  0  0  0  0
    2.0000   -4.0000    0.0000 C   0  0  0  0  0  0  0  0  0  0  0  0
    2.5000   -3.1340    0.0000 C   0  0  0  0  0  0  0  0  0  0  0  0
    3.8660   -2.5000    0.0000 C   0  0  0  0  0  0  0  0  0  0  0  0
    5.5981   -3.5000    0.0000 C   0  0  0  0  0  0  0  0  0  0  0  0
    4.7320   -2.0000    0.0000 C   0  0  0  0  0  0  0  0  0  0  0  0
    4.7320   -1.0000    0.0000 C   0  0  0  0  0  0  0  0  0  0  0  0
    3.8660   -0.5000    0.0000 C   0  0  0  0  0  0  0  0  0  0  0  0
    5.5981   -0.5000    0.0000 C   0  0  0  0  0  0  0  0  0  0  0  0
    6.4641   -1.0000    0.0000 C   0  0  0  0  0  0  0  0  0  0  0  0
    7.3301   -0.5000    0.0000 C   0  0  0  0  0  0  0  0  0  0  0  0
    8.1962   -1.0000    0.0000 C   0  0  0  0  0  0  0  0  0  0  0  0
    8.1962   -2.0000    0.0000 C   0  0  0  0  0  0  0  0  0  0  0  0
    9.0622   -0.5000    0.0000 C   0  0  0  0  0  0  0  0  0  0  0  0
    9.9282   -1.0000    0.0000 C   0  0  0  0  0  0  0  0  0  0  0  0
   10.7942   -0.5000    0.0000 C   0  0  0  0  0  0  0  0  0  0  0  0
   10.7942    0.5000    0.0000 C   0  0  0  0  0  0  0  0  0  0  0  0
   11.6603    1.0000    0.0000 C   0  0  0  0  0  0  0  0  0  0  0  0
   11.6603    2.0000    0.0000 C   0  0  0  0  0  0  0  0  0  0  0  0
   12.5263    0.5000    0.0000 C   0  0  0  0  0  0  0  0  0  0  0  0
   13.3923    4.0000    0.0000 C   0  0  0  0  0  0  0  0  0  0  0  0
   12.5263    2.5000    0.0000 C   0  0  0  0  0  0  0  0  0  0  0  0
   12.5263    3.5000    0.0000 C   0  0  0  0  0  0  0  0  0  0  0  0
   14.2583    3.5000    0.0000 C   0  0  0  0  0  0  0  0  0  0  0  0
   13.3923    5.0000    0.0000 C   0  0  0  0  0  0  0  0  0  0  0  0
   14.2583    5.5000    0.0000 C   0  0  0  0  0  0  0  0  0  0  0  0
    2.3894   -4.8923    0.0000 H   0  0  0  0  0  0  0  0  0  0  0  0
    2.7880   -5.5826    0.0000 H   0  0  0  0  0  0  0  0  0  0  0  0
    3.4675   -5.9750    0.0000 H   0  0  0  0  0  0  0  0  0  0  0  0
    4.2646   -5.9750    0.0000 H   0  0  0  0  0  0  0  0  0  0  0  0
    4.9441   -5.5826    0.0000 H   0  0  0  0  0  0  0  0  0  0  0  0
    5.3426   -4.8923    0.0000 H   0  0  0  0  0  0  0  0  0  0  0  0
    3.0369   -2.8240    0.0000 H   0  0  0  0  0  0  0  0  0  0  0  0
    2.1900   -2.5970    0.0000 H   0  0  0  0  0  0  0  0  0  0  0  0
    1.9631   -3.4440    0.0000 H   0  0  0  0  0  0  0  0  0  0  0  0
    2.0000   -3.3800    0.0000 H   0  0  0  0  0  0  0  0  0  0  0  0
    1.3800   -4.0000    0.0000 H   0  0  0  0  0  0  0  0  0  0  0  0
    2.0000   -4.6200    0.0000 H   0  0  0  0  0  0  0  0  0  0  0  0
    3.3291   -2.1900    0.0000 H   0  0  0  0  0  0  0  0  0  0  0  0
    5.9081   -4.0369    0.0000 H   0  0  0  0  0  0  0  0  0  0  0  0
    6.1350   -3.1900    0.0000 H   0  0  0  0  0  0  0  0  0  0  0  0
    5.2881   -2.9631    0.0000 H   0  0  0  0  0  0  0  0  0  0  0  0
    5.2690   -2.3100    0.0000 H   0  0  0  0  0  0  0  0  0  0  0  0
    4.1760    0.0369    0.0000 H   0  0  0  0  0  0  0  0  0  0  0  0
    3.3291   -0.1900    0.0000 H   0  0  0  0  0  0  0  0  0  0  0  0
    3.5560   -1.0369    0.0000 H   0  0  0  0  0  0  0  0  0  0  0  0
    5.5981    0.1200    0.0000 H   0  0  0  0  0  0  0  0  0  0  0  0
    6.4641   -1.6200    0.0000 H   0  0  0  0  0  0  0  0  0  0  0  0
    7.3301    0.1200    0.0000 H   0  0  0  0  0  0  0  0  0  0  0  0
    7.5762   -2.0000    0.0000 H   0  0  0  0  0  0  0  0  0  0  0  0
    8.1962   -2.6200    0.0000 H   0  0  0  0  0  0  0  0  0  0  0  0
    8.8162   -2.0000    0.0000 H   0  0  0  0  0  0  0  0  0  0  0  0
    9.0622    0.1200    0.0000 H   0  0  0  0  0  0  0  0  0  0  0  0
    9.9282   -1.6200    0.0000 H   0  0  0  0  0  0  0  0  0  0  0  0
   11.3312   -0.8100    0.0000 H   0  0  0  0  0  0  0  0  0  0  0  0
   10.2573    0.8100    0.0000 H   0  0  0  0  0  0  0  0  0  0  0  0
   11.1233    2.3100    0.0000 H   0  0  0  0  0  0  0  0  0  0  0  0
   12.2163   -0.0369    0.0000 H   0  0  0  0  0  0  0  0  0  0  0  0
   13.0632    0.1900    0.0000 H   0  0  0  0  0  0  0  0  0  0  0  0
   12.8363    1.0369    0.0000 H   0  0  0  0  0  0  0  0  0  0  0  0
   13.0632    2.1900    0.0000 H   0  0  0  0  0  0  0  0  0  0  0  0
   11.9893    3.8100    0.0000 H   0  0  0  0  0  0  0  0  0  0  0  0
   13.9483    2.9631    0.0000 H   0  0  0  0  0  0  0  0  0  0  0  0
   14.7953    3.1900    0.0000 H   0  0  0  0  0  0  0  0  0  0  0  0
   14.5683    4.0369    0.0000 H   0  0  0  0  0  0  0  0  0  0  0  0
   14.5683    4.9631    0.0000 H   0  0  0  0  0  0  0  0  0  0  0  0
   14.7953    5.8100    0.0000 H   0  0  0  0  0  0  0  0  0  0  0  0
   13.9483    6.0369    0.0000 H   0  0  0  0  0  0  0  0  0  0  0  0
  1 31  2  0  0  0  0
  2  3  1  0  0  0  0
  2  5  1  0  0  0  0
  2  8  1  0  0  0  0
  2  9  1  0  0  0  0
  3  4  1  0  0  0  0
  3 33  1  0  0  0  0
  3 34  1  0  0  0  0
  4  6  1  0  0  0  0
  4 35  1  0  0  0  0
  4 36  1  0  0  0  0
  5  7  2  0  0  0  0
  5 10  1  0  0  0  0
  6  7  1  0  0  0  0
  6 37  1  0  0  0  0
  6 38  1  0  0  0  0
  7 11  1  0  0  0  0
  8 42  1  0  0  0  0
  8 43  1  0  0  0  0
  8 44  1  0  0  0  0
  9 39  1  0  0  0  0
  9 40  1  0  0  0  0
  9 41  1  0  0  0  0
 10 12  2  0  0  0  0
 10 45  1  0  0  0  0
 11 46  1  0  0  0  0
 11 47  1  0  0  0  0
 11 48  1  0  0  0  0
 12 13  1  0  0  0  0
 12 49  1  0  0  0  0
 13 14  1  0  0  0  0
 13 15  2  0  0  0  0
 14 50  1  0  0  0  0
 14 51  1  0  0  0  0
 14 52  1  0  0  0  0
 15 16  1  0  0  0  0
 15 53  1  0  0  0  0
 16 17  2  0  0  0  0
 16 54  1  0  0  0  0
 17 18  1  0  0  0  0
 17 55  1  0  0  0  0
 18 19  1  0  0  0  0
 18 20  2  0  0  0  0
 19 56  1  0  0  0  0
 19 57  1  0  0  0  0
 19 58  1  0  0  0  0
 20 21  1  0  0  0  0
 20 59  1  0  0  0  0
 21 22  2  0  0  0  0
 21 60  1  0  0  0  0
 22 23  1  0  0  0  0
 22 61  1  0  0  0  0
 23 24  2  0  0  0  0
 23 62  1  0  0  0  0
 24 25  1  0  0  0  0
 24 26  1  0  0  0  0
 25 28  2  0  0  0  0
 25 63  1  0  0  0  0
 26 64  1  0  0  0  0
 26 65  1  0  0  0  0
 26 66  1  0  0  0  0
 27 29  2  0  0  0  0
 27 30  1  0  0  0  0
 27 31  1  0  0  0  0
 28 29  1  0  0  0  0
 28 67  1  0  0  0  0
 29 68  1  0  0  0  0
 30 69  1  0  0  0  0
 30 70  1  0  0  0  0
 30 71  1  0  0  0  0
 31 32  1  0  0  0  0
 32 72  1  0  0  0  0
 32 73  1  0  0  0  0
 32 74  1  0  0  0  0
M  END
>  <PUBCHEM_COMPOUND_CID>
131751825

>  <PUBCHEM_COMPOUND_CANONICALIZED>
1

>  <PUBCHEM_CACTVS_COMPLEXITY>
931

>  <PUBCHEM_CACTVS_HBOND_ACCEPTOR>
1

>  <PUBCHEM_CACTVS_HBOND_DONOR>
0

>  <PUBCHEM_CACTVS_ROTATABLE_BOND>
9

>  <PUBCHEM_CACTVS_SUBSKEYS>
AAADcfB4IAAAAAAAAAAAAAAAAAAAAAAAAAAgAAAAAAAAAAAAAAAAGgAAAAAADgSAgAACAAAAAACIAqBSAAAAAAAgAAAICAEAAEgIAAIAAQAAAAAAgAAIgYMAgMAPAAAAAAAAAAAAAAAAAAAAAAAAAAAAAA==

>  <PUBCHEM_IUPAC_OPENEYE_NAME>
(3E,5E,7E,9Z,11E,13E,15Z,17E)-3,7,12,16-tetramethyl-18-(2,6,6-trimethylcyclohexen-1-yl)octadeca-3,5,7,9,11,13,15,17-octaen-2-one

>  <PUBCHEM_IUPAC_CAS_NAME>
(3E,5E,7E,9Z,11E,13E,15Z,17E)-3,7,12,16-tetramethyl-18-(2,6,6-trimethyl-1-cyclohexenyl)-2-octadeca-3,5,7,9,11,13,15,17-octaenone

>  <PUBCHEM_IUPAC_NAME>
(3E,5E,7E,9Z,11E,13E,15Z,17E)-3,7,12,16-tetramethyl-18-(2,6,6-trimethylcyclohexen-1-yl)octadeca-3,5,7,9,11,13,15,17-octaen-2-one

>  <PUBCHEM_IUPAC_SYSTEMATIC_NAME>
(3E,5E,7E,9Z,11E,13E,15Z,17E)-3,7,12,16-tetramethyl-18-(2,6,6-trimethylcyclohexen-1-yl)octadeca-3,5,7,9,11,13,15,17-octaen-2-one

>  <PUBCHEM_IUPAC_TRADITIONAL_NAME>
(3E,5E,7E,9Z,11E,13E,15Z,17E)-3,7,12,16-tetramethyl-18-(2,6,6-trimethylcyclohexen-1-yl)octadeca-3,5,7,9,11,13,15,17-octaen-2-one

>  <PUBCHEM_IUPAC_INCHI>
InChI=1S/C31H42O/c1-24(14-9-10-15-25(2)18-12-19-27(4)29(6)32)16-11-17-26(3)21-22-30-28(5)20-13-23-31(30,7)8/h9-12,14-19,21-22H,13,20,23H2,1-8H3/b10-9-,16-11+,18-12+,22-21+,24-14+,25-15+,26-17-,27-19+

>  <PUBCHEM_IUPAC_INCHIKEY>
SLQHGWZKKZPZEK-ZQFWBWLTSA-N

>  <PUBCHEM_EXACT_MASS>
430.324

>  <PUBCHEM_MOLECULAR_FORMULA>
C31H42O

>  <PUBCHEM_MOLECULAR_WEIGHT>
430.676

>  <PUBCHEM_OPENEYE_CAN_SMILES>
CC1=C(C(CCC1)(C)C)C=CC(=CC=CC(=CC=CC=C(C)C=CC=C(C)C(=O)C)C)C

>  <PUBCHEM_OPENEYE_ISO_SMILES>
CC1=C(C(CCC1)(C)C)/C=C/C(=C\C=C\C(=C\C=C/C=C(\C)/C=C/C=C(\C)/C(=O)C)\C)/C

>  <PUBCHEM_CACTVS_TPSA>
17.1

>  <PUBCHEM_MONOISOTOPIC_WEIGHT>
430.324

>  <PUBCHEM_TOTAL_CHARGE>
0

>  <PUBCHEM_HEAVY_ATOM_COUNT>
32

>  <PUBCHEM_ATOM_DEF_STEREO_COUNT>
0

>  <PUBCHEM_ATOM_UDEF_STEREO_COUNT>
0

>  <PUBCHEM_BOND_DEF_STEREO_COUNT>
8

>  <PUBCHEM_BOND_UDEF_STEREO_COUNT>
0

>  <PUBCHEM_ISOTOPIC_ATOM_COUNT>
0

>  <PUBCHEM_COMPONENT_COUNT>
1

>  <PUBCHEM_CACTVS_TAUTO_COUNT>
1001

>  <PUBCHEM_COORDINATE_TYPE>
1
5
255

$$$$
