131751023
 OpenBabel06101807152D

 79 81  0  0  1  0  0  0  0  0999 V2000
   11.2774   -1.8977    0.0000 O   0  0  0  0  0  0  0  0  0  0  0  0
   12.5666    0.8685    0.0000 O   0  0  0  0  0  0  0  0  0  0  0  0
    9.4651   -3.0930    0.0000 O   0  0  0  0  0  0  0  0  0  0  0  0
   15.8610   -1.0930    0.0000 O   0  0  0  0  0  0  0  0  0  0  0  0
    7.7331   -2.0930    0.0000 O   0  0  0  0  0  0  0  0  0  0  0  0
   10.9202    1.4066    0.0000 N   0  0  0  0  0  0  0  0  0  0  0  0
    6.0010   -2.0930    0.0000 N   0  0  0  0  0  0  0  0  0  0  0  0
   10.5165    5.7467    0.0000 N   0  0  0  0  0  0  0  0  0  0  0  0
    4.2690   -6.0930    0.0000 N   0  0  0  0  0  0  0  0  0  0  0  0
   10.1593    7.4415    0.0000 N   0  0  0  0  0  0  0  0  0  0  0  0
    8.8702    6.2848    0.0000 N   0  0  0  0  0  0  0  0  0  0  0  0
    3.4030   -7.5930    0.0000 N   0  0  0  0  0  0  0  0  0  0  0  0
    2.5369   -6.0930    0.0000 N   0  0  0  0  0  0  0  0  0  0  0  0
   11.2774   -0.2883    0.0000 C   0  0  3  0  0  0  0  0  0  0  0  0
   11.8610   -1.0930    0.0000 C   0  0  3  0  0  0  0  0  0  0  0  0
   10.3312   -0.5930    0.0000 C   0  0  0  0  0  0  0  0  0  0  0  0
   10.3312   -1.5930    0.0000 C   0  0  0  0  0  0  0  0  0  0  0  0
   12.8610   -1.0930    0.0000 C   0  0  0  0  0  0  0  0  0  0  0  0
   11.5880    0.6622    0.0000 C   0  0  0  0  0  0  0  0  0  0  0  0
    9.4651   -0.0930    0.0000 C   0  0  0  0  0  0  0  0  0  0  0  0
    9.4651   -2.0930    0.0000 C   0  0  0  0  0  0  0  0  0  0  0  0
    8.5991   -0.5930    0.0000 C   0  0  0  0  0  0  0  0  0  0  0  0
    8.5991   -1.5930    0.0000 C   0  0  0  0  0  0  0  0  0  0  0  0
   13.3610   -0.2270    0.0000 C   0  0  0  0  0  0  0  0  0  0  0  0
   13.3610   -1.9590    0.0000 C   0  0  0  0  0  0  0  0  0  0  0  0
   11.2309    2.3571    0.0000 C   0  0  0  0  0  0  0  0  0  0  0  0
   10.5630    3.1014    0.0000 C   0  0  0  0  0  0  0  0  0  0  0  0
   14.3610   -0.2270    0.0000 C   0  0  0  0  0  0  0  0  0  0  0  0
   14.3610   -1.9590    0.0000 C   0  0  0  0  0  0  0  0  0  0  0  0
    7.7331   -0.0930    0.0000 C   0  0  0  0  0  0  0  0  0  0  0  0
   10.8737    4.0519    0.0000 C   0  0  0  0  0  0  0  0  0  0  0  0
   14.8610   -1.0930    0.0000 C   0  0  0  0  0  0  0  0  0  0  0  0
   10.2058    4.7962    0.0000 C   0  0  0  0  0  0  0  0  0  0  0  0
    6.8671   -0.5930    0.0000 C   0  0  0  0  0  0  0  0  0  0  0  0
    6.8671   -1.5930    0.0000 C   0  0  0  0  0  0  0  0  0  0  0  0
    6.0010   -3.0930    0.0000 C   0  0  0  0  0  0  0  0  0  0  0  0
    5.1350   -3.5930    0.0000 C   0  0  0  0  0  0  0  0  0  0  0  0
    5.1350   -4.5930    0.0000 C   0  0  0  0  0  0  0  0  0  0  0  0
    4.2690   -5.0930    0.0000 C   0  0  0  0  0  0  0  0  0  0  0  0
    9.8487    6.4910    0.0000 C   0  0  0  0  0  0  0  0  0  0  0  0
    3.4030   -6.5930    0.0000 C   0  0  0  0  0  0  0  0  0  0  0  0
   10.8399    0.1511    0.0000 H   0  0  0  0  0  0  0  0  0  0  0  0
   12.1427   -1.6453    0.0000 H   0  0  0  0  0  0  0  0  0  0  0  0
    9.4651    0.5270    0.0000 H   0  0  0  0  0  0  0  0  0  0  0  0
   10.3135    1.2787    0.0000 H   0  0  0  0  0  0  0  0  0  0  0  0
    8.0622   -1.9030    0.0000 H   0  0  0  0  0  0  0  0  0  0  0  0
   13.0510    0.3100    0.0000 H   0  0  0  0  0  0  0  0  0  0  0  0
   13.0510   -2.4960    0.0000 H   0  0  0  0  0  0  0  0  0  0  0  0
   11.7778    2.0650    0.0000 H   0  0  0  0  0  0  0  0  0  0  0  0
   11.6134    2.8450    0.0000 H   0  0  0  0  0  0  0  0  0  0  0  0
   10.0161    3.3934    0.0000 H   0  0  0  0  0  0  0  0  0  0  0  0
   10.1805    2.6135    0.0000 H   0  0  0  0  0  0  0  0  0  0  0  0
   14.6710    0.3100    0.0000 H   0  0  0  0  0  0  0  0  0  0  0  0
   14.6710   -2.4960    0.0000 H   0  0  0  0  0  0  0  0  0  0  0  0
    7.7331    0.5270    0.0000 H   0  0  0  0  0  0  0  0  0  0  0  0
   11.4206    3.7599    0.0000 H   0  0  0  0  0  0  0  0  0  0  0  0
   11.2562    4.5398    0.0000 H   0  0  0  0  0  0  0  0  0  0  0  0
    8.9282   -3.4030    0.0000 H   0  0  0  0  0  0  0  0  0  0  0  0
    9.6589    5.0882    0.0000 H   0  0  0  0  0  0  0  0  0  0  0  0
    9.8233    4.3083    0.0000 H   0  0  0  0  0  0  0  0  0  0  0  0
    6.3301   -0.2830    0.0000 H   0  0  0  0  0  0  0  0  0  0  0  0
   16.1710   -1.6299    0.0000 H   0  0  0  0  0  0  0  0  0  0  0  0
    6.2131   -3.6756    0.0000 H   0  0  0  0  0  0  0  0  0  0  0  0
    6.6116   -2.9853    0.0000 H   0  0  0  0  0  0  0  0  0  0  0  0
    4.9230   -3.0104    0.0000 H   0  0  0  0  0  0  0  0  0  0  0  0
    4.5244   -3.7007    0.0000 H   0  0  0  0  0  0  0  0  0  0  0  0
    5.4641   -1.7830    0.0000 H   0  0  0  0  0  0  0  0  0  0  0  0
    5.3471   -5.1756    0.0000 H   0  0  0  0  0  0  0  0  0  0  0  0
    5.7456   -4.4853    0.0000 H   0  0  0  0  0  0  0  0  0  0  0  0
    4.0569   -4.5104    0.0000 H   0  0  0  0  0  0  0  0  0  0  0  0
    3.6584   -5.2007    0.0000 H   0  0  0  0  0  0  0  0  0  0  0  0
    9.7453    7.9030    0.0000 H   0  0  0  0  0  0  0  0  0  0  0  0
   10.7660    7.5694    0.0000 H   0  0  0  0  0  0  0  0  0  0  0  0
    8.4561    6.7463    0.0000 H   0  0  0  0  0  0  0  0  0  0  0  0
    8.6775    5.6955    0.0000 H   0  0  0  0  0  0  0  0  0  0  0  0
    2.0000   -6.4030    0.0000 H   0  0  0  0  0  0  0  0  0  0  0  0
    2.5369   -5.4730    0.0000 H   0  0  0  0  0  0  0  0  0  0  0  0
    2.8660   -7.9030    0.0000 H   0  0  0  0  0  0  0  0  0  0  0  0
    3.9399   -7.9030    0.0000 H   0  0  0  0  0  0  0  0  0  0  0  0
  1 15  1  0  0  0  0
  1 17  1  0  0  0  0
  2 19  2  0  0  0  0
  3 21  1  0  0  0  0
  3 58  1  0  0  0  0
  4 32  1  0  0  0  0
  4 62  1  0  0  0  0
  5 35  2  0  0  0  0
  6 19  1  0  0  0  0
  6 26  1  0  0  0  0
  6 45  1  0  0  0  0
  7 35  1  0  0  0  0
  7 36  1  0  0  0  0
  7 67  1  0  0  0  0
  8 33  1  0  0  0  0
  8 40  2  0  0  0  0
  9 39  1  0  0  0  0
  9 41  2  0  0  0  0
 10 40  1  0  0  0  0
 10 72  1  0  0  0  0
 10 73  1  0  0  0  0
 11 40  1  0  0  0  0
 11 74  1  0  0  0  0
 11 75  1  0  0  0  0
 12 41  1  0  0  0  0
 12 78  1  0  0  0  0
 12 79  1  0  0  0  0
 13 41  1  0  0  0  0
 13 76  1  0  0  0  0
 13 77  1  0  0  0  0
 14 15  1  0  0  0  0
 14 16  1  0  0  0  0
 14 19  1  0  0  0  0
 14 42  1  0  0  0  0
 15 18  1  0  0  0  0
 15 43  1  0  0  0  0
 16 17  2  0  0  0  0
 16 20  1  0  0  0  0
 17 21  1  0  0  0  0
 18 24  2  0  0  0  0
 18 25  1  0  0  0  0
 20 22  2  0  0  0  0
 20 44  1  0  0  0  0
 21 23  2  0  0  0  0
 22 23  1  0  0  0  0
 22 30  1  0  0  0  0
 23 46  1  0  0  0  0
 24 28  1  0  0  0  0
 24 47  1  0  0  0  0
 25 29  2  0  0  0  0
 25 48  1  0  0  0  0
 26 27  1  0  0  0  0
 26 49  1  0  0  0  0
 26 50  1  0  0  0  0
 27 31  1  0  0  0  0
 27 51  1  0  0  0  0
 27 52  1  0  0  0  0
 28 32  2  0  0  0  0
 28 53  1  0  0  0  0
 29 32  1  0  0  0  0
 29 54  1  0  0  0  0
 30 34  2  0  0  0  0
 30 55  1  0  0  0  0
 31 33  1  0  0  0  0
 31 56  1  0  0  0  0
 31 57  1  0  0  0  0
 33 59  1  0  0  0  0
 33 60  1  0  0  0  0
 34 35  1  0  0  0  0
 34 61  1  0  0  0  0
 36 37  1  0  0  0  0
 36 63  1  0  0  0  0
 36 64  1  0  0  0  0
 37 38  1  0  0  0  0
 37 65  1  0  0  0  0
 37 66  1  0  0  0  0
 38 39  1  0  0  0  0
 38 68  1  0  0  0  0
 38 69  1  0  0  0  0
 39 70  1  0  0  0  0
 39 71  1  0  0  0  0
M  END
>  <PUBCHEM_COMPOUND_CID>
131751023

>  <PUBCHEM_COMPOUND_CANONICALIZED>
1

>  <PUBCHEM_CACTVS_COMPLEXITY>
928

>  <PUBCHEM_CACTVS_HBOND_ACCEPTOR>
7

>  <PUBCHEM_CACTVS_HBOND_DONOR>
8

>  <PUBCHEM_CACTVS_ROTATABLE_BOND>
14

>  <PUBCHEM_CACTVS_SUBSKEYS>
AAADcfB7+AAAAAAAAAAAAAAAAAAAASAAAAAwYAAAAAAAAEgBQAAAHgAQCAAADRThmAYxBoLABgCoAiFSNACCCAEgIAAIiIEOiMgNJjaGtRuGeCOm9hGLuYe6/P7OoAADAAAIQABAAAYAABCAAAAAAAAAAA==

>  <PUBCHEM_IUPAC_OPENEYE_NAME>
N-(4-guanidinobutyl)-5-[(Z)-3-(4-guanidinobutylamino)-3-oxo-prop-1-enyl]-7-hydroxy-2-(4-hydroxyphenyl)-2,3-dihydrobenzofuran-3-carboxamide

>  <PUBCHEM_IUPAC_CAS_NAME>
N-[4-(diaminomethylideneamino)butyl]-5-[(Z)-3-[4-(diaminomethylideneamino)butylamino]-3-oxoprop-1-enyl]-7-hydroxy-2-(4-hydroxyphenyl)-2,3-dihydrobenzofuran-3-carboxamide

>  <PUBCHEM_IUPAC_NAME>
N-[4-(diaminomethylideneamino)butyl]-5-[(Z)-3-[4-(diaminomethylideneamino)butylamino]-3-oxoprop-1-enyl]-7-hydroxy-2-(4-hydroxyphenyl)-2,3-dihydro-1-benzofuran-3-carboxamide

>  <PUBCHEM_IUPAC_SYSTEMATIC_NAME>
N-[4-[bis(azanyl)methylideneamino]butyl]-5-[(Z)-3-[4-[bis(azanyl)methylideneamino]butylamino]-3-oxidanylidene-prop-1-enyl]-2-(4-hydroxyphenyl)-7-oxidanyl-2,3-dihydro-1-benzofuran-3-carboxamide

>  <PUBCHEM_IUPAC_TRADITIONAL_NAME>
N-(4-guanidinobutyl)-5-[(Z)-3-(4-guanidinobutylamino)-3-keto-prop-1-enyl]-7-hydroxy-2-(4-hydroxyphenyl)coumaran-3-carboxamide

>  <PUBCHEM_IUPAC_INCHI>
InChI=1S/C28H38N8O5/c29-27(30)35-13-3-1-11-33-22(39)10-5-17-15-20-23(26(40)34-12-2-4-14-36-28(31)32)24(41-25(20)21(38)16-17)18-6-8-19(37)9-7-18/h5-10,15-16,23-24,37-38H,1-4,11-14H2,(H,33,39)(H,34,40)(H4,29,30,35)(H4,31,32,36)/b10-5-

>  <PUBCHEM_IUPAC_INCHIKEY>
FCINNGNGQHGDFW-YHYXMXQVSA-N

>  <PUBCHEM_EXACT_MASS>
566.297

>  <PUBCHEM_MOLECULAR_FORMULA>
C28H38N8O5

>  <PUBCHEM_MOLECULAR_WEIGHT>
566.663

>  <PUBCHEM_OPENEYE_CAN_SMILES>
C1=CC(=CC=C1C2C(C3=C(O2)C(=CC(=C3)C=CC(=O)NCCCCN=C(N)N)O)C(=O)NCCCCN=C(N)N)O

>  <PUBCHEM_OPENEYE_ISO_SMILES>
C1=CC(=CC=C1C2C(C3=C(O2)C(=CC(=C3)/C=C\C(=O)NCCCCN=C(N)N)O)C(=O)NCCCCN=C(N)N)O

>  <PUBCHEM_CACTVS_TPSA>
237

>  <PUBCHEM_MONOISOTOPIC_WEIGHT>
566.297

>  <PUBCHEM_TOTAL_CHARGE>
0

>  <PUBCHEM_HEAVY_ATOM_COUNT>
41

>  <PUBCHEM_ATOM_DEF_STEREO_COUNT>
0

>  <PUBCHEM_ATOM_UDEF_STEREO_COUNT>
2

>  <PUBCHEM_BOND_DEF_STEREO_COUNT>
1

>  <PUBCHEM_BOND_UDEF_STEREO_COUNT>
0

>  <PUBCHEM_ISOTOPIC_ATOM_COUNT>
0

>  <PUBCHEM_COMPONENT_COUNT>
1

>  <PUBCHEM_CACTVS_TAUTO_COUNT>
352

>  <PUBCHEM_COORDINATE_TYPE>
1
5
255

>  <PUBCHEM_BONDANNOTATIONS>
14  19  3
15  18  3
16  17  8
16  20  8
17  21  8
18  24  8
18  25  8
20  22  8
21  23  8
22  23  8
24  28  8
25  29  8
28  32  8
29  32  8

$$$$
