131750936
 OpenBabel06101807152D

 49 50  0  0  1  0  0  0  0  0999 V2000
    4.2690    0.6550    0.0000 O   0  0  0  0  0  0  0  0  0  0  0  0
    2.5369   -1.3450    0.0000 O   0  0  0  0  0  0  0  0  0  0  0  0
    9.5331   -0.3658    0.0000 O   0  0  0  0  0  0  0  0  0  0  0  0
    5.1350    1.1550    0.0000 O   0  0  0  0  0  0  0  0  0  0  0  0
    6.8671   -1.8450    0.0000 O   0  0  0  0  0  0  0  0  0  0  0  0
    8.6155   -1.8796    0.0000 O   0  0  0  0  0  0  0  0  0  0  0  0
    2.5369    0.6550    0.0000 O   0  0  0  0  0  0  0  0  0  0  0  0
    4.2690   -0.3450    0.0000 C   0  0  3  0  0  0  0  0  0  0  0  0
    3.4030   -0.8450    0.0000 C   0  0  0  0  0  0  0  0  0  0  0  0
    5.1350   -0.8450    0.0000 C   0  0  0  0  0  0  0  0  0  0  0  0
    6.0010   -0.3450    0.0000 C   0  0  0  0  0  0  0  0  0  0  0  0
    7.7331    0.6550    0.0000 C   0  0  0  0  0  0  0  0  0  0  0  0
    8.6270    1.1897    0.0000 C   0  0  0  0  0  0  0  0  0  0  0  0
    7.7331   -0.3450    0.0000 C   0  0  0  0  0  0  0  0  0  0  0  0
    6.8671   -0.8450    0.0000 C   0  0  0  0  0  0  0  0  0  0  0  0
    9.5331    0.6758    0.0000 C   0  0  3  0  0  0  0  0  0  0  0  0
    6.0010    0.6550    0.0000 C   0  0  0  0  0  0  0  0  0  0  0  0
    2.9030    0.0210    0.0000 C   0  0  0  0  0  0  0  0  0  0  0  0
    3.9030   -1.7110    0.0000 C   0  0  0  0  0  0  0  0  0  0  0  0
    6.8671    1.1550    0.0000 C   0  0  0  0  0  0  0  0  0  0  0  0
    8.6270   -0.8797    0.0000 C   0  0  0  0  0  0  0  0  0  0  0  0
   10.3972    1.1792    0.0000 C   0  0  0  0  0  0  0  0  0  0  0  0
    3.4030    1.1550    0.0000 C   0  0  0  0  0  0  0  0  0  0  0  0
    5.1350    2.1550    0.0000 C   0  0  0  0  0  0  0  0  0  0  0  0
    3.4030    2.1550    0.0000 C   0  0  0  0  0  0  0  0  0  0  0  0
    4.8059   -0.0350    0.0000 H   0  0  0  0  0  0  0  0  0  0  0  0
    4.7365   -1.3200    0.0000 H   0  0  0  0  0  0  0  0  0  0  0  0
    5.5335   -1.3200    0.0000 H   0  0  0  0  0  0  0  0  0  0  0  0
    9.0207    1.6687    0.0000 H   0  0  0  0  0  0  0  0  0  0  0  0
    8.2224    1.6594    0.0000 H   0  0  0  0  0  0  0  0  0  0  0  0
   10.0706    0.3669    0.0000 H   0  0  0  0  0  0  0  0  0  0  0  0
    3.4399    0.3310    0.0000 H   0  0  0  0  0  0  0  0  0  0  0  0
    2.5930    0.5580    0.0000 H   0  0  0  0  0  0  0  0  0  0  0  0
    2.3660   -0.2890    0.0000 H   0  0  0  0  0  0  0  0  0  0  0  0
    3.3660   -2.0210    0.0000 H   0  0  0  0  0  0  0  0  0  0  0  0
    4.2130   -2.2480    0.0000 H   0  0  0  0  0  0  0  0  0  0  0  0
    4.4399   -1.4010    0.0000 H   0  0  0  0  0  0  0  0  0  0  0  0
    6.8671    1.7750    0.0000 H   0  0  0  0  0  0  0  0  0  0  0  0
    2.0000   -1.0350    0.0000 H   0  0  0  0  0  0  0  0  0  0  0  0
   10.7093    0.6434    0.0000 H   0  0  0  0  0  0  0  0  0  0  0  0
   10.9329    1.4912    0.0000 H   0  0  0  0  0  0  0  0  0  0  0  0
   10.0851    1.7149    0.0000 H   0  0  0  0  0  0  0  0  0  0  0  0
    6.3301   -2.1550    0.0000 H   0  0  0  0  0  0  0  0  0  0  0  0
    5.7550    2.1550    0.0000 H   0  0  0  0  0  0  0  0  0  0  0  0
    5.1350    2.7750    0.0000 H   0  0  0  0  0  0  0  0  0  0  0  0
    4.5150    2.1550    0.0000 H   0  0  0  0  0  0  0  0  0  0  0  0
    4.0230    2.1550    0.0000 H   0  0  0  0  0  0  0  0  0  0  0  0
    3.4030    2.7750    0.0000 H   0  0  0  0  0  0  0  0  0  0  0  0
    2.7830    2.1550    0.0000 H   0  0  0  0  0  0  0  0  0  0  0  0
  1  8  1  0  0  0  0
  1 23  1  0  0  0  0
  2  9  1  0  0  0  0
  2 39  1  0  0  0  0
  3 16  1  0  0  0  0
  3 21  1  0  0  0  0
  4 17  1  0  0  0  0
  4 24  1  0  0  0  0
  5 15  1  0  0  0  0
  5 43  1  0  0  0  0
  6 21  2  0  0  0  0
  7 23  2  0  0  0  0
  8  9  1  0  0  0  0
  8 10  1  0  0  0  0
  8 26  1  0  0  0  0
  9 18  1  0  0  0  0
  9 19  1  0  0  0  0
 10 11  1  0  0  0  0
 10 27  1  0  0  0  0
 10 28  1  0  0  0  0
 11 15  1  0  0  0  0
 11 17  2  0  0  0  0
 12 13  1  0  0  0  0
 12 14  1  0  0  0  0
 12 20  2  0  0  0  0
 13 16  1  0  0  0  0
 13 29  1  0  0  0  0
 13 30  1  0  0  0  0
 14 15  2  0  0  0  0
 14 21  1  0  0  0  0
 16 22  1  0  0  0  0
 16 31  1  0  0  0  0
 17 20  1  0  0  0  0
 18 32  1  0  0  0  0
 18 33  1  0  0  0  0
 18 34  1  0  0  0  0
 19 35  1  0  0  0  0
 19 36  1  0  0  0  0
 19 37  1  0  0  0  0
 20 38  1  0  0  0  0
 22 40  1  0  0  0  0
 22 41  1  0  0  0  0
 22 42  1  0  0  0  0
 23 25  1  0  0  0  0
 24 44  1  0  0  0  0
 24 45  1  0  0  0  0
 24 46  1  0  0  0  0
 25 47  1  0  0  0  0
 25 48  1  0  0  0  0
 25 49  1  0  0  0  0
M  END
>  <PUBCHEM_COMPOUND_CID>
131750936

>  <PUBCHEM_COMPOUND_CANONICALIZED>
1

>  <PUBCHEM_CACTVS_COMPLEXITY>
504

>  <PUBCHEM_CACTVS_HBOND_ACCEPTOR>
7

>  <PUBCHEM_CACTVS_HBOND_DONOR>
2

>  <PUBCHEM_CACTVS_ROTATABLE_BOND>
6

>  <PUBCHEM_CACTVS_SUBSKEYS>
AAADceB4OAAAAAAAAAAAAAAAAAAAAAAAAAA0QAAAAAAAAACRAAAAGgAACAAADFSgmAIyDoAABgCIAiDSCAACCAAkIAAAiAEGCMgNJzaGNRqCcWAl4BULuQfI7PzO4AADCAAYAADAAAYQADAAAAAAAAAAAA==

>  <PUBCHEM_IUPAC_OPENEYE_NAME>
[2-hydroxy-1-[(8-hydroxy-6-methoxy-3-methyl-1-oxo-isochroman-7-yl)methyl]-2-methyl-propyl] acetate

>  <PUBCHEM_IUPAC_CAS_NAME>
acetic acid [3-hydroxy-1-(8-hydroxy-6-methoxy-3-methyl-1-oxo-3,4-dihydro-1H-2-benzopyran-7-yl)-3-methylbutan-2-yl] ester

>  <PUBCHEM_IUPAC_NAME>
[3-hydroxy-1-(8-hydroxy-6-methoxy-3-methyl-1-oxo-3,4-dihydroisochromen-7-yl)-3-methylbutan-2-yl] acetate

>  <PUBCHEM_IUPAC_SYSTEMATIC_NAME>
[1-(6-methoxy-3-methyl-8-oxidanyl-1-oxidanylidene-3,4-dihydroisochromen-7-yl)-3-methyl-3-oxidanyl-butan-2-yl] ethanoate

>  <PUBCHEM_IUPAC_TRADITIONAL_NAME>
acetic acid [2-hydroxy-1-[(8-hydroxy-1-keto-6-methoxy-3-methyl-isochroman-7-yl)methyl]-2-methyl-propyl] ester

>  <PUBCHEM_IUPAC_INCHI>
InChI=1S/C18H24O7/c1-9-6-11-7-13(23-5)12(16(20)15(11)17(21)24-9)8-14(18(3,4)22)25-10(2)19/h7,9,14,20,22H,6,8H2,1-5H3

>  <PUBCHEM_IUPAC_INCHIKEY>
ZSKZYWHCOISHNI-UHFFFAOYSA-N

>  <PUBCHEM_EXACT_MASS>
352.152

>  <PUBCHEM_MOLECULAR_FORMULA>
C18H24O7

>  <PUBCHEM_MOLECULAR_WEIGHT>
352.383

>  <PUBCHEM_OPENEYE_CAN_SMILES>
CC1CC2=CC(=C(C(=C2C(=O)O1)O)CC(C(C)(C)O)OC(=O)C)OC

>  <PUBCHEM_OPENEYE_ISO_SMILES>
CC1CC2=CC(=C(C(=C2C(=O)O1)O)CC(C(C)(C)O)OC(=O)C)OC

>  <PUBCHEM_CACTVS_TPSA>
102

>  <PUBCHEM_MONOISOTOPIC_WEIGHT>
352.152

>  <PUBCHEM_TOTAL_CHARGE>
0

>  <PUBCHEM_HEAVY_ATOM_COUNT>
25

>  <PUBCHEM_ATOM_DEF_STEREO_COUNT>
0

>  <PUBCHEM_ATOM_UDEF_STEREO_COUNT>
2

>  <PUBCHEM_BOND_DEF_STEREO_COUNT>
0

>  <PUBCHEM_BOND_UDEF_STEREO_COUNT>
0

>  <PUBCHEM_ISOTOPIC_ATOM_COUNT>
0

>  <PUBCHEM_COMPONENT_COUNT>
1

>  <PUBCHEM_CACTVS_TAUTO_COUNT>
13

>  <PUBCHEM_COORDINATE_TYPE>
1
5
255

>  <PUBCHEM_BONDANNOTATIONS>
11  15  8
11  17  8
12  14  8
12  20  8
14  15  8
16  22  3
17  20  8
8  10  3

$$$$
