131751406
 OpenBabel06101807152D

 52 55  0  0  1  0  0  0  0  0999 V2000
    4.6557    0.0355    0.0000 O   0  0  0  0  0  0  0  0  0  0  0  0
    7.7244    0.0355    0.0000 O   0  0  0  0  0  0  0  0  0  0  0  0
    6.1945    1.5354    0.0000 O   0  0  0  0  0  0  0  0  0  0  0  0
    6.4264   -4.1589    0.0000 O   0  0  0  0  0  0  0  0  0  0  0  0
    2.6691    3.1624    0.0000 O   0  0  0  0  0  0  0  0  0  0  0  0
    8.3834   -4.5714    0.0000 O   0  0  0  0  0  0  0  0  0  0  0  0
    4.0074    4.6487    0.0000 O   0  0  0  0  0  0  0  0  0  0  0  0
    6.1945    0.5355    0.0000 C   0  0  3  0  0  0  0  0  0  0  0  0
    6.1945   -0.4645    0.0000 C   0  0  3  0  0  0  0  0  0  0  0  0
    5.2435    0.8445    0.0000 C   0  0  3  0  0  0  0  0  0  0  0  0
    7.1407   -0.7693    0.0000 C   0  0  3  0  0  0  0  0  0  0  0  0
    7.1407    0.8402    0.0000 C   0  0  0  0  0  0  0  0  0  0  0  0
    5.2435   -0.7736    0.0000 C   0  0  0  0  0  0  0  0  0  0  0  0
    4.9344    1.7955    0.0000 C   0  0  0  0  0  0  0  0  0  0  0  0
    7.4514   -1.7198    0.0000 C   0  0  0  0  0  0  0  0  0  0  0  0
    3.9563    2.0034    0.0000 C   0  0  0  0  0  0  0  0  0  0  0  0
    6.7836   -2.4641    0.0000 C   0  0  0  0  0  0  0  0  0  0  0  0
    5.6036    2.5387    0.0000 C   0  0  0  0  0  0  0  0  0  0  0  0
    8.4299   -1.9260    0.0000 C   0  0  0  0  0  0  0  0  0  0  0  0
    7.0942   -3.4146    0.0000 C   0  0  0  0  0  0  0  0  0  0  0  0
    3.6473    2.9545    0.0000 C   0  0  0  0  0  0  0  0  0  0  0  0
    8.7406   -2.8765    0.0000 C   0  0  0  0  0  0  0  0  0  0  0  0
    5.2946    3.4897    0.0000 C   0  0  0  0  0  0  0  0  0  0  0  0
    8.0727   -3.6208    0.0000 C   0  0  0  0  0  0  0  0  0  0  0  0
    4.3164    3.6976    0.0000 C   0  0  0  0  0  0  0  0  0  0  0  0
    6.7370   -5.1094    0.0000 C   0  0  0  0  0  0  0  0  0  0  0  0
    2.0000    2.4193    0.0000 C   0  0  0  0  0  0  0  0  0  0  0  0
    9.3619   -4.7776    0.0000 C   0  0  0  0  0  0  0  0  0  0  0  0
    6.1953   -1.0845    0.0000 H   0  0  0  0  0  0  0  0  0  0  0  0
    4.6311    0.9415    0.0000 H   0  0  0  0  0  0  0  0  0  0  0  0
    7.7532   -0.8655    0.0000 H   0  0  0  0  0  0  0  0  0  0  0  0
    7.6781    1.1494    0.0000 H   0  0  0  0  0  0  0  0  0  0  0  0
    6.8897    1.4071    0.0000 H   0  0  0  0  0  0  0  0  0  0  0  0
    4.7065   -1.0836    0.0000 H   0  0  0  0  0  0  0  0  0  0  0  0
    5.4956   -1.3400    0.0000 H   0  0  0  0  0  0  0  0  0  0  0  0
    6.7314    1.8454    0.0000 H   0  0  0  0  0  0  0  0  0  0  0  0
    3.5414    1.5427    0.0000 H   0  0  0  0  0  0  0  0  0  0  0  0
    6.1769   -2.3362    0.0000 H   0  0  0  0  0  0  0  0  0  0  0  0
    6.2100    2.4098    0.0000 H   0  0  0  0  0  0  0  0  0  0  0  0
    8.8440   -1.4646    0.0000 H   0  0  0  0  0  0  0  0  0  0  0  0
    9.3472   -3.0044    0.0000 H   0  0  0  0  0  0  0  0  0  0  0  0
    5.7094    3.9505    0.0000 H   0  0  0  0  0  0  0  0  0  0  0  0
    4.4222    5.1094    0.0000 H   0  0  0  0  0  0  0  0  0  0  0  0
    6.1477   -5.3021    0.0000 H   0  0  0  0  0  0  0  0  0  0  0  0
    6.9296   -5.6988    0.0000 H   0  0  0  0  0  0  0  0  0  0  0  0
    7.3264   -4.9168    0.0000 H   0  0  0  0  0  0  0  0  0  0  0  0
    1.5392    2.8341    0.0000 H   0  0  0  0  0  0  0  0  0  0  0  0
    1.5851    1.9585    0.0000 H   0  0  0  0  0  0  0  0  0  0  0  0
    2.4608    2.0044    0.0000 H   0  0  0  0  0  0  0  0  0  0  0  0
    9.2340   -5.3842    0.0000 H   0  0  0  0  0  0  0  0  0  0  0  0
    9.9686   -4.9054    0.0000 H   0  0  0  0  0  0  0  0  0  0  0  0
    9.4898   -4.1709    0.0000 H   0  0  0  0  0  0  0  0  0  0  0  0
  1 10  1  0  0  0  0
  1 13  1  0  0  0  0
  2 11  1  0  0  0  0
  2 12  1  0  0  0  0
  3  8  1  0  0  0  0
  3 36  1  0  0  0  0
  4 20  1  0  0  0  0
  4 26  1  0  0  0  0
  5 21  1  0  0  0  0
  5 27  1  0  0  0  0
  6 24  1  0  0  0  0
  6 28  1  0  0  0  0
  7 25  1  0  0  0  0
  7 43  1  0  0  0  0
  8  9  1  0  0  0  0
  8 10  1  0  0  0  0
  8 12  1  0  0  0  0
  9 11  1  0  0  0  0
  9 13  1  0  0  0  0
  9 29  1  0  0  0  0
 10 14  1  0  0  0  0
 10 30  1  0  0  0  0
 11 15  1  0  0  0  0
 11 31  1  0  0  0  0
 12 32  1  0  0  0  0
 12 33  1  0  0  0  0
 13 34  1  0  0  0  0
 13 35  1  0  0  0  0
 14 16  2  0  0  0  0
 14 18  1  0  0  0  0
 15 17  2  0  0  0  0
 15 19  1  0  0  0  0
 16 21  1  0  0  0  0
 16 37  1  0  0  0  0
 17 20  1  0  0  0  0
 17 38  1  0  0  0  0
 18 23  2  0  0  0  0
 18 39  1  0  0  0  0
 19 22  2  0  0  0  0
 19 40  1  0  0  0  0
 20 24  2  0  0  0  0
 21 25  2  0  0  0  0
 22 24  1  0  0  0  0
 22 41  1  0  0  0  0
 23 25  1  0  0  0  0
 23 42  1  0  0  0  0
 26 44  1  0  0  0  0
 26 45  1  0  0  0  0
 26 46  1  0  0  0  0
 27 47  1  0  0  0  0
 27 48  1  0  0  0  0
 27 49  1  0  0  0  0
 28 50  1  0  0  0  0
 28 51  1  0  0  0  0
 28 52  1  0  0  0  0
M  END
>  <PUBCHEM_COMPOUND_CID>
131751406

>  <PUBCHEM_COMPOUND_CANONICALIZED>
1

>  <PUBCHEM_CACTVS_COMPLEXITY>
531

>  <PUBCHEM_CACTVS_HBOND_ACCEPTOR>
7

>  <PUBCHEM_CACTVS_HBOND_DONOR>
2

>  <PUBCHEM_CACTVS_ROTATABLE_BOND>
5

>  <PUBCHEM_CACTVS_SUBSKEYS>
AAADceB4OAAAAAAAAAAAAAAAAAAAASJAAAAwYAAAAAASAAABQAAAGgAACAAADVSgmAIyBoAABgCAAiBCAAACCAAgIAAIiAAGiIgNJiKGMRqCcCMlwBELuAfA4PwOoAABAAAAQABAAAIAAACAAAAAAAAAAA==

>  <PUBCHEM_IUPAC_OPENEYE_NAME>
6-(3,4-dimethoxyphenyl)-3-(4-hydroxy-3-methoxy-phenyl)-3,4,6,6a-tetrahydro-1H-furo[3,4-c]furan-3a-ol

>  <PUBCHEM_IUPAC_CAS_NAME>
6-(3,4-dimethoxyphenyl)-3-(4-hydroxy-3-methoxyphenyl)-3,4,6,6a-tetrahydro-1H-furo[3,4-c]furan-3a-ol

>  <PUBCHEM_IUPAC_NAME>
6-(3,4-dimethoxyphenyl)-3-(4-hydroxy-3-methoxyphenyl)-3,4,6,6a-tetrahydro-1H-furo[3,4-c]furan-3a-ol

>  <PUBCHEM_IUPAC_SYSTEMATIC_NAME>
6-(3,4-dimethoxyphenyl)-3-(3-methoxy-4-oxidanyl-phenyl)-3,4,6,6a-tetrahydro-1H-furo[3,4-c]furan-3a-ol

>  <PUBCHEM_IUPAC_TRADITIONAL_NAME>
6-(3,4-dimethoxyphenyl)-3-(4-hydroxy-3-methoxy-phenyl)-3,4,6,6a-tetrahydro-1H-furo[3,4-c]furan-3a-ol

>  <PUBCHEM_IUPAC_INCHI>
InChI=1S/C21H24O7/c1-24-16-7-5-12(8-18(16)26-3)19-14-10-27-20(21(14,23)11-28-19)13-4-6-15(22)17(9-13)25-2/h4-9,14,19-20,22-23H,10-11H2,1-3H3

>  <PUBCHEM_IUPAC_INCHIKEY>
JDOYVXXEQQTICM-UHFFFAOYSA-N

>  <PUBCHEM_EXACT_MASS>
388.152

>  <PUBCHEM_MOLECULAR_FORMULA>
C21H24O7

>  <PUBCHEM_MOLECULAR_WEIGHT>
388.416

>  <PUBCHEM_OPENEYE_CAN_SMILES>
COC1=C(C=C(C=C1)C2C3COC(C3(CO2)O)C4=CC(=C(C=C4)O)OC)OC

>  <PUBCHEM_OPENEYE_ISO_SMILES>
COC1=C(C=C(C=C1)C2C3COC(C3(CO2)O)C4=CC(=C(C=C4)O)OC)OC

>  <PUBCHEM_CACTVS_TPSA>
86.6

>  <PUBCHEM_MONOISOTOPIC_WEIGHT>
388.152

>  <PUBCHEM_TOTAL_CHARGE>
0

>  <PUBCHEM_HEAVY_ATOM_COUNT>
28

>  <PUBCHEM_ATOM_DEF_STEREO_COUNT>
0

>  <PUBCHEM_ATOM_UDEF_STEREO_COUNT>
4

>  <PUBCHEM_BOND_DEF_STEREO_COUNT>
0

>  <PUBCHEM_BOND_UDEF_STEREO_COUNT>
0

>  <PUBCHEM_ISOTOPIC_ATOM_COUNT>
0

>  <PUBCHEM_COMPONENT_COUNT>
1

>  <PUBCHEM_CACTVS_TAUTO_COUNT>
3

>  <PUBCHEM_COORDINATE_TYPE>
1
5
255

>  <PUBCHEM_BONDANNOTATIONS>
10  14  3
11  15  3
14  16  8
14  18  8
15  17  8
15  19  8
16  21  8
17  20  8
18  23  8
19  22  8
20  24  8
21  25  8
22  24  8
23  25  8
8  3  3
9  13  3

$$$$
