131752294
 OpenBabel06101807152D

 52 55  0  0  1  0  0  0  0  0999 V2000
    5.0929   -1.4064    0.0000 O   0  0  0  0  0  0  0  0  0  0  0  0
    6.8530   -1.6851    0.0000 O   0  0  0  0  0  0  0  0  0  0  0  0
    4.0051   -3.7542    0.0000 O   0  0  0  0  0  0  0  0  0  0  0  0
    6.1807   -3.7542    0.0000 O   0  0  0  0  0  0  0  0  0  0  0  0
    2.5896   -2.3542    0.0000 O   0  0  0  0  0  0  0  0  0  0  0  0
    8.2198    0.5802    0.0000 O   0  3  0  0  0  0  0  0  0  0  0  0
    4.7935    1.3053    0.0000 O   0  0  0  0  0  0  0  0  0  0  0  0
    9.0824   -3.6925    0.0000 O   0  0  0  0  0  0  0  0  0  0  0  0
    7.1519    3.9450    0.0000 O   0  0  0  0  0  0  0  0  0  0  0  0
   10.9845   -3.0745    0.0000 O   0  0  0  0  0  0  0  0  0  0  0  0
    4.5929   -2.9452    0.0000 C   0  0  1  0  0  0  0  0  0  0  0  0
    5.5929   -2.9452    0.0000 C   0  0  1  0  0  0  0  0  0  0  0  0
    4.2839   -1.9941    0.0000 C   0  0  1  0  0  0  0  0  0  0  0  0
    5.9019   -1.9941    0.0000 C   0  0  2  0  0  0  0  0  0  0  0  0
    3.3328   -1.6851    0.0000 C   0  0  0  0  0  0  0  0  0  0  0  0
    7.0609   -0.7070    0.0000 C   0  0  0  0  0  0  0  0  0  0  0  0
    8.0119   -0.3980    0.0000 C   0  0  0  0  0  0  0  0  0  0  0  0
    6.3177   -0.0378    0.0000 C   0  0  0  0  0  0  0  0  0  0  0  0
    6.5256    0.9403    0.0000 C   0  0  0  0  0  0  0  0  0  0  0  0
    7.4767    1.2493    0.0000 C   0  0  0  0  0  0  0  0  0  0  0  0
    8.7551   -1.0671    0.0000 C   0  0  0  0  0  0  0  0  0  0  0  0
    5.7409    1.6253    0.0000 C   0  0  0  0  0  0  0  0  0  0  0  0
    7.7089    2.2647    0.0000 C   0  0  0  0  0  0  0  0  0  0  0  0
    8.5472   -2.0452    0.0000 C   0  0  0  0  0  0  0  0  0  0  0  0
    9.7061   -0.7581    0.0000 C   0  0  0  0  0  0  0  0  0  0  0  0
    5.9496    2.6458    0.0000 C   0  0  0  0  0  0  0  0  0  0  0  0
    6.9402    2.9677    0.0000 C   0  0  0  0  0  0  0  0  0  0  0  0
    9.2903   -2.7144    0.0000 C   0  0  0  0  0  0  0  0  0  0  0  0
   10.4493   -1.4272    0.0000 C   0  0  0  0  0  0  0  0  0  0  0  0
   10.2413   -2.4053    0.0000 C   0  0  0  0  0  0  0  0  0  0  0  0
    9.8255   -4.3616    0.0000 C   0  0  0  0  0  0  0  0  0  0  0  0
    3.9805   -2.8482    0.0000 H   0  0  0  0  0  0  0  0  0  0  0  0
    5.3114   -3.4976    0.0000 H   0  0  0  0  0  0  0  0  0  0  0  0
    4.1869   -1.3818    0.0000 H   0  0  0  0  0  0  0  0  0  0  0  0
    6.3403   -2.4325    0.0000 H   0  0  0  0  0  0  0  0  0  0  0  0
    3.6239   -1.1377    0.0000 H   0  0  0  0  0  0  0  0  0  0  0  0
    2.8442   -1.3034    0.0000 H   0  0  0  0  0  0  0  0  0  0  0  0
    4.2573   -4.3206    0.0000 H   0  0  0  0  0  0  0  0  0  0  0  0
    5.9285   -4.3206    0.0000 H   0  0  0  0  0  0  0  0  0  0  0  0
    2.0000   -2.1627    0.0000 H   0  0  0  0  0  0  0  0  0  0  0  0
    5.7281   -0.2294    0.0000 H   0  0  0  0  0  0  0  0  0  0  0  0
    8.3008    2.4495    0.0000 H   0  0  0  0  0  0  0  0  0  0  0  0
    7.9575   -2.2368    0.0000 H   0  0  0  0  0  0  0  0  0  0  0  0
    9.8350   -0.1516    0.0000 H   0  0  0  0  0  0  0  0  0  0  0  0
    5.4873    3.0589    0.0000 H   0  0  0  0  0  0  0  0  0  0  0  0
   11.0389   -1.2356    0.0000 H   0  0  0  0  0  0  0  0  0  0  0  0
    4.3280    1.7148    0.0000 H   0  0  0  0  0  0  0  0  0  0  0  0
    6.6928    4.3616    0.0000 H   0  0  0  0  0  0  0  0  0  0  0  0
   11.5741   -2.8829    0.0000 H   0  0  0  0  0  0  0  0  0  0  0  0
    9.4107   -4.8224    0.0000 H   0  0  0  0  0  0  0  0  0  0  0  0
   10.2863   -4.7765    0.0000 H   0  0  0  0  0  0  0  0  0  0  0  0
   10.2404   -3.9009    0.0000 H   0  0  0  0  0  0  0  0  0  0  0  0
  1 13  1  0  0  0  0
  1 14  1  0  0  0  0
  2 16  1  0  0  0  0
  3 38  1  0  0  0  0
  4 39  1  0  0  0  0
  5 15  1  0  0  0  0
  5 40  1  0  0  0  0
  6 17  2  0  0  0  0
  6 20  1  0  0  0  0
  7 22  1  0  0  0  0
  7 47  1  0  0  0  0
  8 28  1  0  0  0  0
  8 31  1  0  0  0  0
  9 27  1  0  0  0  0
  9 48  1  0  0  0  0
 10 30  1  0  0  0  0
 10 49  1  0  0  0  0
 11  3  1  0  0  0  0
 11 12  1  1  0  0  0
 11 32  1  0  0  0  0
 12  4  1  0  0  0  0
 12 14  1  6  0  0  0
 12 33  1  0  0  0  0
 13 11  1  6  0  0  0
 13 15  1  0  0  0  0
 13 34  1  0  0  0  0
 14  2  1  0  0  0  0
 14 35  1  1  0  0  0
 15 36  1  0  0  0  0
 15 37  1  0  0  0  0
 16 17  1  0  0  0  0
 16 18  2  0  0  0  0
 17 21  1  0  0  0  0
 18 19  1  0  0  0  0
 18 41  1  0  0  0  0
 19 20  1  0  0  0  0
 19 22  2  0  0  0  0
 20 23  2  0  0  0  0
 21 24  2  0  0  0  0
 21 25  1  0  0  0  0
 22 26  1  0  0  0  0
 23 27  1  0  0  0  0
 23 42  1  0  0  0  0
 24 28  1  0  0  0  0
 24 43  1  0  0  0  0
 25 29  2  0  0  0  0
 25 44  1  0  0  0  0
 26 27  2  0  0  0  0
 26 45  1  0  0  0  0
 28 30  2  0  0  0  0
 29 30  1  0  0  0  0
 29 46  1  0  0  0  0
 31 50  1  0  0  0  0
 31 51  1  0  0  0  0
 31 52  1  0  0  0  0
M  CHG  1   6   1
M  END
>  <PUBCHEM_COMPOUND_CID>
131752294

>  <PUBCHEM_COMPOUND_CANONICALIZED>
1

>  <PUBCHEM_CACTVS_COMPLEXITY>
593

>  <PUBCHEM_CACTVS_HBOND_ACCEPTOR>
9

>  <PUBCHEM_CACTVS_HBOND_DONOR>
6

>  <PUBCHEM_CACTVS_ROTATABLE_BOND>
5

>  <PUBCHEM_CACTVS_SUBSKEYS>
AAADceB4PAAAAAAAAAAAAAAAAAAAASAAAAA0YIAAAAAAAACR9AAAGgAACAAADBSwmAMyDsAABkCIAqBSAAICCAAkIAAIiAFGiMgdNzaGNR6ieWOl4BUPuYfK7PzOIAABCAAIQABAAAIQABCAAAAAAAAAAA==

>  <PUBCHEM_IUPAC_OPENEYE_NAME>
3-[(2R,3S,4S,5R)-3,4-dihydroxy-5-(hydroxymethyl)tetrahydrofuran-2-yl]oxy-2-(4-hydroxy-3-methoxy-phenyl)chromenylium-5,7-diol

>  <PUBCHEM_IUPAC_CAS_NAME>
3-[[(2R,3S,4S,5R)-3,4-dihydroxy-5-(hydroxymethyl)-2-oxolanyl]oxy]-2-(4-hydroxy-3-methoxyphenyl)-1-benzopyrylium-5,7-diol

>  <PUBCHEM_IUPAC_NAME>
3-[(2R,3S,4S,5R)-3,4-dihydroxy-5-(hydroxymethyl)oxolan-2-yl]oxy-2-(4-hydroxy-3-methoxyphenyl)chromenylium-5,7-diol

>  <PUBCHEM_IUPAC_SYSTEMATIC_NAME>
3-[(2R,3S,4S,5R)-5-(hydroxymethyl)-3,4-bis(oxidanyl)oxolan-2-yl]oxy-2-(3-methoxy-4-oxidanyl-phenyl)chromenylium-5,7-diol

>  <PUBCHEM_IUPAC_TRADITIONAL_NAME>
3-[(2R,3S,4S,5R)-3,4-dihydroxy-5-methylol-tetrahydrofuran-2-yl]oxy-2-(4-hydroxy-3-methoxy-phenyl)-1-benzopyrylium-5,7-diol

>  <PUBCHEM_IUPAC_INCHI>
InChI=1S/C21H20O10/c1-28-15-4-9(2-3-12(15)24)20-16(30-21-19(27)18(26)17(8-22)31-21)7-11-13(25)5-10(23)6-14(11)29-20/h2-7,17-19,21-22,26-27H,8H2,1H3,(H2-,23,24,25)/p+1/t17-,18-,19+,21+/m1/s1

>  <PUBCHEM_IUPAC_INCHIKEY>
KGHFAKPGOXLHAB-BNDYYXHWSA-O

>  <PUBCHEM_EXACT_MASS>
433.113

>  <PUBCHEM_MOLECULAR_FORMULA>
C21H21O10+

>  <PUBCHEM_MOLECULAR_WEIGHT>
433.389

>  <PUBCHEM_OPENEYE_CAN_SMILES>
COC1=C(C=CC(=C1)C2=C(C=C3C(=CC(=CC3=[O+]2)O)O)OC4C(C(C(O4)CO)O)O)O

>  <PUBCHEM_OPENEYE_ISO_SMILES>
COC1=C(C=CC(=C1)C2=C(C=C3C(=CC(=CC3=[O+]2)O)O)O[C@@H]4[C@H]([C@@H]([C@H](O4)CO)O)O)O

>  <PUBCHEM_CACTVS_TPSA>
150

>  <PUBCHEM_MONOISOTOPIC_WEIGHT>
433.113

>  <PUBCHEM_TOTAL_CHARGE>
1

>  <PUBCHEM_HEAVY_ATOM_COUNT>
31

>  <PUBCHEM_ATOM_DEF_STEREO_COUNT>
4

>  <PUBCHEM_ATOM_UDEF_STEREO_COUNT>
0

>  <PUBCHEM_BOND_DEF_STEREO_COUNT>
0

>  <PUBCHEM_BOND_UDEF_STEREO_COUNT>
0

>  <PUBCHEM_ISOTOPIC_ATOM_COUNT>
0

>  <PUBCHEM_COMPONENT_COUNT>
1

>  <PUBCHEM_CACTVS_TAUTO_COUNT>
85

>  <PUBCHEM_COORDINATE_TYPE>
1
5
255

>  <PUBCHEM_BONDANNOTATIONS>
13  15  5
16  17  8
16  18  8
18  19  8
19  20  8
19  22  8
14  2  6
20  23  8
21  24  8
21  25  8
22  26  8
23  27  8
24  28  8
25  29  8
26  27  8
28  30  8
29  30  8
11  3  6
12  4  5
6  17  8
6  20  8

$$$$
