131751644
 OpenBabel06101807152D

102103  0  0  1  0  0  0  0  0999 V2000
   11.3664   -4.5305    0.0000 O   0  0  0  0  0  0  0  0  0  0  0  0
   10.0004   -5.8965    0.0000 O   0  0  0  0  0  0  0  0  0  0  0  0
   11.8664   -8.3965    0.0000 O   0  0  0  0  0  0  0  0  0  0  0  0
    2.1077    8.0960    0.0000 O   0  0  0  0  0  0  0  0  0  0  0  0
   12.7325   -5.8965    0.0000 C   0  0  0  0  0  0  0  0  0  0  0  0
   11.8664   -5.3965    0.0000 C   0  0  3  0  0  0  0  0  0  0  0  0
   11.0004   -5.8965    0.0000 C   0  0  3  0  0  0  0  0  0  0  0  0
   12.7325   -6.8965    0.0000 C   0  0  0  0  0  0  0  0  0  0  0  0
   11.0004   -6.8965    0.0000 C   0  0  0  0  0  0  0  0  0  0  0  0
   11.8664   -7.3965    0.0000 C   0  0  3  0  0  0  0  0  0  0  0  0
   13.7325   -5.8965    0.0000 C   0  0  0  0  0  0  0  0  0  0  0  0
   13.4985   -5.2537    0.0000 C   0  0  0  0  0  0  0  0  0  0  0  0
   10.3576   -5.1305    0.0000 C   0  0  0  0  0  0  0  0  0  0  0  0
   12.3664   -4.5305    0.0000 C   0  0  0  0  0  0  0  0  0  0  0  0
   11.8664   -3.6645    0.0000 C   0  0  0  0  0  0  0  0  0  0  0  0
   12.3664   -2.7984    0.0000 C   0  0  0  0  0  0  0  0  0  0  0  0
    4.1607    6.4271    0.0000 C   0  0  0  0  0  0  0  0  0  0  0  0
    3.2210    6.7692    0.0000 C   0  0  0  0  0  0  0  0  0  0  0  0
    3.0474    7.7540    0.0000 C   0  0  3  0  0  0  0  0  0  0  0  0
    4.9268    7.0700    0.0000 C   0  0  0  0  0  0  0  0  0  0  0  0
   13.3664   -2.7984    0.0000 C   0  0  0  0  0  0  0  0  0  0  0  0
    3.8134    8.3967    0.0000 C   0  0  0  0  0  0  0  0  0  0  0  0
   11.8664   -1.9324    0.0000 C   0  0  0  0  0  0  0  0  0  0  0  0
    4.7531    8.0547    0.0000 C   0  0  0  0  0  0  0  0  0  0  0  0
    3.8187    5.4874    0.0000 C   0  0  0  0  0  0  0  0  0  0  0  0
    4.8035    5.6610    0.0000 C   0  0  0  0  0  0  0  0  0  0  0  0
    5.8664    6.7278    0.0000 C   0  0  0  0  0  0  0  0  0  0  0  0
    5.5191    8.6975    0.0000 C   0  0  0  0  0  0  0  0  0  0  0  0
   12.3664   -1.0664    0.0000 C   0  0  0  0  0  0  0  0  0  0  0  0
    6.3664    5.8618    0.0000 C   0  0  0  0  0  0  0  0  0  0  0  0
   11.8664   -0.2004    0.0000 C   0  0  0  0  0  0  0  0  0  0  0  0
    5.8664    4.9958    0.0000 C   0  0  0  0  0  0  0  0  0  0  0  0
   10.8664   -0.2004    0.0000 C   0  0  0  0  0  0  0  0  0  0  0  0
    4.9267    4.6539    0.0000 C   0  0  0  0  0  0  0  0  0  0  0  0
    6.3664    4.1298    0.0000 C   0  0  0  0  0  0  0  0  0  0  0  0
   10.3664   -1.0664    0.0000 C   0  0  0  0  0  0  0  0  0  0  0  0
   10.3664    0.6657    0.0000 C   0  0  0  0  0  0  0  0  0  0  0  0
    7.3664    4.1298    0.0000 C   0  0  0  0  0  0  0  0  0  0  0  0
    9.3664    0.6657    0.0000 C   0  0  0  0  0  0  0  0  0  0  0  0
    7.8664    3.2638    0.0000 C   0  0  0  0  0  0  0  0  0  0  0  0
    7.3664    2.3977    0.0000 C   0  0  0  0  0  0  0  0  0  0  0  0
    8.8664    1.5317    0.0000 C   0  0  0  0  0  0  0  0  0  0  0  0
    7.8664    1.5317    0.0000 C   0  0  0  0  0  0  0  0  0  0  0  0
    6.3664    2.3977    0.0000 C   0  0  0  0  0  0  0  0  0  0  0  0
   12.9445   -7.4791    0.0000 H   0  0  0  0  0  0  0  0  0  0  0  0
   13.3430   -6.7888    0.0000 H   0  0  0  0  0  0  0  0  0  0  0  0
   10.3898   -6.7888    0.0000 H   0  0  0  0  0  0  0  0  0  0  0  0
   10.7884   -7.4791    0.0000 H   0  0  0  0  0  0  0  0  0  0  0  0
   11.3295   -7.7065    0.0000 H   0  0  0  0  0  0  0  0  0  0  0  0
   13.8970   -5.7287    0.0000 H   0  0  0  0  0  0  0  0  0  0  0  0
   13.9734   -4.8552    0.0000 H   0  0  0  0  0  0  0  0  0  0  0  0
   13.1000   -4.7788    0.0000 H   0  0  0  0  0  0  0  0  0  0  0  0
   13.7325   -6.5165    0.0000 H   0  0  0  0  0  0  0  0  0  0  0  0
   14.3525   -5.8965    0.0000 H   0  0  0  0  0  0  0  0  0  0  0  0
   13.7325   -5.2765    0.0000 H   0  0  0  0  0  0  0  0  0  0  0  0
   10.8326   -4.7319    0.0000 H   0  0  0  0  0  0  0  0  0  0  0  0
    9.9591   -4.6555    0.0000 H   0  0  0  0  0  0  0  0  0  0  0  0
    9.8827   -5.5290    0.0000 H   0  0  0  0  0  0  0  0  0  0  0  0
   12.9490   -4.3184    0.0000 H   0  0  0  0  0  0  0  0  0  0  0  0
   10.7559   -4.4227    0.0000 H   0  0  0  0  0  0  0  0  0  0  0  0
    9.6904   -6.4334    0.0000 H   0  0  0  0  0  0  0  0  0  0  0  0
   12.4034   -8.7065    0.0000 H   0  0  0  0  0  0  0  0  0  0  0  0
   11.2464   -3.6645    0.0000 H   0  0  0  0  0  0  0  0  0  0  0  0
    2.6010    6.7692    0.0000 H   0  0  0  0  0  0  0  0  0  0  0  0
    3.1133    6.1586    0.0000 H   0  0  0  0  0  0  0  0  0  0  0  0
    2.9397    8.3646    0.0000 H   0  0  0  0  0  0  0  0  0  0  0  0
   13.3664   -3.4184    0.0000 H   0  0  0  0  0  0  0  0  0  0  0  0
   13.9864   -2.7984    0.0000 H   0  0  0  0  0  0  0  0  0  0  0  0
   13.3664   -2.1784    0.0000 H   0  0  0  0  0  0  0  0  0  0  0  0
    4.1234    8.9336    0.0000 H   0  0  0  0  0  0  0  0  0  0  0  0
    3.3385    8.7952    0.0000 H   0  0  0  0  0  0  0  0  0  0  0  0
   11.2464   -1.9324    0.0000 H   0  0  0  0  0  0  0  0  0  0  0  0
    3.2361    5.6994    0.0000 H   0  0  0  0  0  0  0  0  0  0  0  0
    4.3286    5.2625    0.0000 H   0  0  0  0  0  0  0  0  0  0  0  0
    5.2020    5.1860    0.0000 H   0  0  0  0  0  0  0  0  0  0  0  0
    5.2785    6.0595    0.0000 H   0  0  0  0  0  0  0  0  0  0  0  0
    3.6066    4.9048    0.0000 H   0  0  0  0  0  0  0  0  0  0  0  0
    4.4013    5.2753    0.0000 H   0  0  0  0  0  0  0  0  0  0  0  0
    6.1764    7.2648    0.0000 H   0  0  0  0  0  0  0  0  0  0  0  0
    5.9177    8.2225    0.0000 H   0  0  0  0  0  0  0  0  0  0  0  0
    5.9941    9.0960    0.0000 H   0  0  0  0  0  0  0  0  0  0  0  0
    5.1206    9.1724    0.0000 H   0  0  0  0  0  0  0  0  0  0  0  0
    2.0000    8.7065    0.0000 H   0  0  0  0  0  0  0  0  0  0  0  0
   12.9864   -1.0664    0.0000 H   0  0  0  0  0  0  0  0  0  0  0  0
    6.9864    5.8618    0.0000 H   0  0  0  0  0  0  0  0  0  0  0  0
   12.1764    0.3366    0.0000 H   0  0  0  0  0  0  0  0  0  0  0  0
    4.7147    5.2365    0.0000 H   0  0  0  0  0  0  0  0  0  0  0  0
    4.3441    4.4419    0.0000 H   0  0  0  0  0  0  0  0  0  0  0  0
    5.1387    4.0712    0.0000 H   0  0  0  0  0  0  0  0  0  0  0  0
    6.0564    3.5928    0.0000 H   0  0  0  0  0  0  0  0  0  0  0  0
    9.8295   -0.7564    0.0000 H   0  0  0  0  0  0  0  0  0  0  0  0
   10.0564   -1.6033    0.0000 H   0  0  0  0  0  0  0  0  0  0  0  0
   10.9034   -1.3764    0.0000 H   0  0  0  0  0  0  0  0  0  0  0  0
   10.6764    1.2026    0.0000 H   0  0  0  0  0  0  0  0  0  0  0  0
    7.6764    4.6667    0.0000 H   0  0  0  0  0  0  0  0  0  0  0  0
    9.0564    0.1287    0.0000 H   0  0  0  0  0  0  0  0  0  0  0  0
    8.4864    3.2638    0.0000 H   0  0  0  0  0  0  0  0  0  0  0  0
    9.1764    2.0686    0.0000 H   0  0  0  0  0  0  0  0  0  0  0  0
    7.5564    0.9948    0.0000 H   0  0  0  0  0  0  0  0  0  0  0  0
    6.3664    3.0177    0.0000 H   0  0  0  0  0  0  0  0  0  0  0  0
    5.7464    2.3977    0.0000 H   0  0  0  0  0  0  0  0  0  0  0  0
    6.3664    1.7777    0.0000 H   0  0  0  0  0  0  0  0  0  0  0  0
  1  6  1  0  0  0  0
  1 60  1  0  0  0  0
  2  7  1  0  0  0  0
  2 61  1  0  0  0  0
  3 10  1  0  0  0  0
  3 62  1  0  0  0  0
  4 19  1  0  0  0  0
  4 83  1  0  0  0  0
  5  6  1  0  0  0  0
  5  8  1  0  0  0  0
  5 11  1  0  0  0  0
  5 12  1  0  0  0  0
  6  7  1  0  0  0  0
  6 14  1  0  0  0  0
  7  9  1  0  0  0  0
  7 13  1  0  0  0  0
  8 10  1  0  0  0  0
  8 45  1  0  0  0  0
  8 46  1  0  0  0  0
  9 10  1  0  0  0  0
  9 47  1  0  0  0  0
  9 48  1  0  0  0  0
 10 49  1  0  0  0  0
 11 53  1  0  0  0  0
 11 54  1  0  0  0  0
 11 55  1  0  0  0  0
 12 50  1  0  0  0  0
 12 51  1  0  0  0  0
 12 52  1  0  0  0  0
 13 56  1  0  0  0  0
 13 57  1  0  0  0  0
 13 58  1  0  0  0  0
 14 15  2  0  0  0  0
 14 59  1  0  0  0  0
 15 16  1  0  0  0  0
 15 63  1  0  0  0  0
 16 21  1  0  0  0  0
 16 23  2  0  0  0  0
 17 18  1  0  0  0  0
 17 20  1  0  0  0  0
 17 25  1  0  0  0  0
 17 26  1  0  0  0  0
 18 19  1  0  0  0  0
 18 64  1  0  0  0  0
 18 65  1  0  0  0  0
 19 22  1  0  0  0  0
 19 66  1  0  0  0  0
 20 24  2  0  0  0  0
 20 27  1  0  0  0  0
 21 67  1  0  0  0  0
 21 68  1  0  0  0  0
 21 69  1  0  0  0  0
 22 24  1  0  0  0  0
 22 70  1  0  0  0  0
 22 71  1  0  0  0  0
 23 29  1  0  0  0  0
 23 72  1  0  0  0  0
 24 28  1  0  0  0  0
 25 73  1  0  0  0  0
 25 77  1  0  0  0  0
 25 78  1  0  0  0  0
 26 74  1  0  0  0  0
 26 75  1  0  0  0  0
 26 76  1  0  0  0  0
 27 30  2  0  0  0  0
 27 79  1  0  0  0  0
 28 80  1  0  0  0  0
 28 81  1  0  0  0  0
 28 82  1  0  0  0  0
 29 31  2  0  0  0  0
 29 84  1  0  0  0  0
 30 32  1  0  0  0  0
 30 85  1  0  0  0  0
 31 33  1  0  0  0  0
 31 86  1  0  0  0  0
 32 34  1  0  0  0  0
 32 35  2  0  0  0  0
 33 36  1  0  0  0  0
 33 37  2  0  0  0  0
 34 87  1  0  0  0  0
 34 88  1  0  0  0  0
 34 89  1  0  0  0  0
 35 38  1  0  0  0  0
 35 90  1  0  0  0  0
 36 91  1  0  0  0  0
 36 92  1  0  0  0  0
 36 93  1  0  0  0  0
 37 39  1  0  0  0  0
 37 94  1  0  0  0  0
 38 40  2  0  0  0  0
 38 95  1  0  0  0  0
 39 42  2  0  0  0  0
 39 96  1  0  0  0  0
 40 41  1  0  0  0  0
 40 97  1  0  0  0  0
 41 43  2  0  0  0  0
 41 44  1  0  0  0  0
 42 43  1  0  0  0  0
 42 98  1  0  0  0  0
 43 99  1  0  0  0  0
 44100  1  0  0  0  0
 44101  1  0  0  0  0
 44102  1  0  0  0  0
M  END
>  <PUBCHEM_COMPOUND_CID>
131751644

>  <PUBCHEM_COMPOUND_CANONICALIZED>
1

>  <PUBCHEM_CACTVS_COMPLEXITY>
1320

>  <PUBCHEM_CACTVS_HBOND_ACCEPTOR>
4

>  <PUBCHEM_CACTVS_HBOND_DONOR>
4

>  <PUBCHEM_CACTVS_ROTATABLE_BOND>
10

>  <PUBCHEM_CACTVS_SUBSKEYS>
AAADcfB8OAAAAAAAAAAAAAAAAAAAAAAAAAAwQAAAAAAAAAAAAAAAGgAACAAADlSggAICAAAAAgCAAiBCAAAAAAAgAAAICAAAAAgJFAIAAQAAUAAFwAAJkAPA4PQPgAAAAAAAAABCAAYQADCAAAAAAAAAAA==

>  <PUBCHEM_IUPAC_OPENEYE_NAME>
1-[(1E,3E,5Z,7E,9E,11Z,13Z,15Z,17Z)-18-(4-hydroxy-2,6,6-trimethyl-cyclohexen-1-yl)-3,7,12,16-tetramethyl-octadeca-1,3,5,7,9,11,13,15,17-nonaenyl]-2,6,6-trimethyl-cyclohexane-1,2,4-triol

>  <PUBCHEM_IUPAC_CAS_NAME>
1-[(1E,3E,5Z,7E,9E,11Z,13Z,15Z,17Z)-18-(4-hydroxy-2,6,6-trimethyl-1-cyclohexenyl)-3,7,12,16-tetramethyloctadeca-1,3,5,7,9,11,13,15,17-nonaenyl]-2,6,6-trimethylcyclohexane-1,2,4-triol

>  <PUBCHEM_IUPAC_NAME>
1-[(1E,3E,5Z,7E,9E,11Z,13Z,15Z,17Z)-18-(4-hydroxy-2,6,6-trimethylcyclohexen-1-yl)-3,7,12,16-tetramethyloctadeca-1,3,5,7,9,11,13,15,17-nonaenyl]-2,6,6-trimethylcyclohexane-1,2,4-triol

>  <PUBCHEM_IUPAC_SYSTEMATIC_NAME>
2,6,6-trimethyl-1-[(1E,3E,5Z,7E,9E,11Z,13Z,15Z,17Z)-3,7,12,16-tetramethyl-18-(2,6,6-trimethyl-4-oxidanyl-cyclohexen-1-yl)octadeca-1,3,5,7,9,11,13,15,17-nonaenyl]cyclohexane-1,2,4-triol

>  <PUBCHEM_IUPAC_TRADITIONAL_NAME>
1-[(1E,3E,5Z,7E,9E,11Z,13Z,15Z,17Z)-18-(4-hydroxy-2,6,6-trimethyl-cyclohexen-1-yl)-3,7,12,16-tetramethyl-octadeca-1,3,5,7,9,11,13,15,17-nonaenyl]-2,6,6-trimethyl-cyclohexane-1,2,4-triol

>  <PUBCHEM_IUPAC_INCHI>
InChI=1S/C40H58O4/c1-29(17-13-19-31(3)21-22-36-33(5)25-34(41)26-37(36,6)7)15-11-12-16-30(2)18-14-20-32(4)23-24-40(44)38(8,9)27-35(42)28-39(40,10)43/h11-24,34-35,41-44H,25-28H2,1-10H3/b12-11+,17-13-,18-14-,22-21-,24-23+,29-15-,30-16+,31-19-,32-20+

>  <PUBCHEM_IUPAC_INCHIKEY>
DJOWTWWHMWQATC-BXBIEBEISA-N

>  <PUBCHEM_EXACT_MASS>
602.434

>  <PUBCHEM_MOLECULAR_FORMULA>
C40H58O4

>  <PUBCHEM_MOLECULAR_WEIGHT>
602.9

>  <PUBCHEM_OPENEYE_CAN_SMILES>
CC1=C(C(CC(C1)O)(C)C)C=CC(=CC=CC(=CC=CC=C(C)C=CC=C(C)C=CC2(C(CC(CC2(C)O)O)(C)C)O)C)C

>  <PUBCHEM_OPENEYE_ISO_SMILES>
CC1=C(C(CC(C1)O)(C)C)/C=C\C(=C/C=C\C(=C/C=C/C=C(\C)/C=C\C=C(/C)\C=C\C2(C(CC(CC2(C)O)O)(C)C)O)\C)\C

>  <PUBCHEM_CACTVS_TPSA>
80.9

>  <PUBCHEM_MONOISOTOPIC_WEIGHT>
602.434

>  <PUBCHEM_TOTAL_CHARGE>
0

>  <PUBCHEM_HEAVY_ATOM_COUNT>
44

>  <PUBCHEM_ATOM_DEF_STEREO_COUNT>
0

>  <PUBCHEM_ATOM_UDEF_STEREO_COUNT>
4

>  <PUBCHEM_BOND_DEF_STEREO_COUNT>
9

>  <PUBCHEM_BOND_UDEF_STEREO_COUNT>
0

>  <PUBCHEM_ISOTOPIC_ATOM_COUNT>
0

>  <PUBCHEM_COMPONENT_COUNT>
1

>  <PUBCHEM_CACTVS_TAUTO_COUNT>
437

>  <PUBCHEM_COORDINATE_TYPE>
1
5
255

>  <PUBCHEM_BONDANNOTATIONS>
6  1  3
7  2  3
10  3  3
19  4  3

$$$$
