131752420
 OpenBabel06101807152D

160164  0  0  1  0  0  0  0  0999 V2000
    4.3958   -1.6211    0.0000 O   0  0  0  0  0  0  0  0  0  0  0  0
    5.1343   -1.5080    0.0000 O   0  0  0  0  0  0  0  0  0  0  0  0
    4.3958    2.3790    0.0000 O   0  0  0  0  0  0  0  0  0  0  0  0
    4.5083   -4.0708    0.0000 O   0  0  0  0  0  0  0  0  0  0  0  0
    5.6279    3.2450    0.0000 O   0  0  0  0  0  0  0  0  0  0  0  0
    7.4570   -2.2994    0.0000 O   0  0  0  0  0  0  0  0  0  0  0  0
    9.3026    0.4307    0.0000 O   0  0  0  0  0  0  0  0  0  0  0  0
    8.0832    3.6450    0.0000 O   0  0  0  0  0  0  0  0  0  0  0  0
   11.4495    1.0095    0.0000 O   0  0  0  0  0  0  0  0  0  0  0  0
    3.5298   -0.1210    0.0000 N   0  0  0  0  0  0  0  0  0  0  0  0
    6.1279   -0.6210    0.0000 N   0  0  0  0  0  0  0  0  0  0  0  0
    5.2619    0.8790    0.0000 N   0  0  0  0  0  0  0  0  0  0  0  0
    6.1813   -3.6225    0.0000 N   0  0  0  0  0  0  0  0  0  0  0  0
    5.6637   -1.6907    0.0000 N   0  0  0  0  0  0  0  0  0  0  0  0
    6.9939    2.8790    0.0000 N   0  0  0  0  0  0  0  0  0  0  0  0
    8.3367   -1.2424    0.0000 N   0  0  0  0  0  0  0  0  0  0  0  0
    9.5920    2.3790    0.0000 N   0  0  0  0  0  0  0  0  0  0  0  0
   10.7169   -0.0870    0.0000 N   0  0  0  0  0  0  0  0  0  0  0  0
    5.2619   -0.1210    0.0000 C   0  0  3  0  0  0  0  0  0  0  0  0
    5.3547    1.3739    0.0000 C   0  0  0  0  0  0  0  0  0  0  0  0
    3.5298    0.8790    0.0000 C   0  0  3  0  0  0  0  0  0  0  0  0
    6.8348    1.6034    0.0000 C   0  0  0  0  0  0  0  0  0  0  0  0
    7.3761    0.2068    0.0000 C   0  0  0  0  0  0  0  0  0  0  0  0
    4.3958   -0.6210    0.0000 C   0  0  0  0  0  0  0  0  0  0  0  0
    2.5836    1.1837    0.0000 C   0  0  0  0  0  0  0  0  0  0  0  0
    2.5836   -0.4258    0.0000 C   0  0  0  0  0  0  0  0  0  0  0  0
    2.0000    0.3790    0.0000 C   0  0  0  0  0  0  0  0  0  0  0  0
    6.1279   -1.6211    0.0000 C   0  0  0  0  0  0  0  0  0  0  0  0
    6.4401   -2.6566    0.0000 C   0  0  2  0  0  0  0  0  0  0  0  0
    4.3958    1.3789    0.0000 C   0  0  0  0  0  0  0  0  0  0  0  0
    7.2393   -3.2577    0.0000 C   0  0  0  0  0  0  0  0  0  0  0  0
    7.6309   -4.1778    0.0000 C   0  0  0  0  0  0  0  0  0  0  0  0
    6.1279    1.3789    0.0000 C   0  0  1  0  0  0  0  0  0  0  0  0
    5.2154   -3.3637    0.0000 C   0  0  0  0  0  0  0  0  0  0  0  0
    4.9566   -2.3978    0.0000 C   0  0  1  0  0  0  0  0  0  0  0  0
    8.6235   -4.2989    0.0000 C   0  0  0  0  0  0  0  0  0  0  0  0
    7.0297   -4.9770    0.0000 C   0  0  0  0  0  0  0  0  0  0  0  0
    6.7707    2.1450    0.0000 C   0  0  0  0  0  0  0  0  0  0  0  0
    3.9906   -2.1390    0.0000 C   0  0  0  0  0  0  0  0  0  0  0  0
    6.1279    2.3790    0.0000 C   0  0  0  0  0  0  0  0  0  0  0  0
    3.2835   -2.8460    0.0000 C   0  0  0  0  0  0  0  0  0  0  0  0
    7.3708   -0.9836    0.0000 C   0  0  1  0  0  0  0  0  0  0  0  0
    6.1280    2.9111    0.0000 C   0  0  0  0  0  0  0  0  0  0  0  0
    7.1120   -0.0176    0.0000 C   0  0  2  0  0  0  0  0  0  0  0  0
    6.6637   -1.6907    0.0000 C   0  0  0  0  0  0  0  0  0  0  0  0
    7.8600    2.3790    0.0000 C   0  0  2  0  0  0  0  0  0  0  0  0
    2.3176   -2.5872    0.0000 C   0  0  0  0  0  0  0  0  0  0  0  0
    3.5424   -3.8120    0.0000 C   0  0  0  0  0  0  0  0  0  0  0  0
    7.8191    0.6895    0.0000 C   0  0  0  0  0  0  0  0  0  0  0  0
   10.0097   -0.7941    0.0000 C   0  0  2  0  0  0  0  0  0  0  0  0
    6.1460    0.2412    0.0000 C   0  0  0  0  0  0  0  0  0  0  0  0
    9.5920    1.3789    0.0000 C   0  0  1  0  0  0  0  0  0  0  0  0
    8.8600    2.3790    0.0000 C   0  0  0  0  0  0  0  0  0  0  0  0
    9.0438   -0.5353    0.0000 C   0  0  0  0  0  0  0  0  0  0  0  0
   10.2686   -1.7600    0.0000 C   0  0  0  0  0  0  0  0  0  0  0  0
    6.4699    3.8507    0.0000 C   0  0  0  0  0  0  0  0  0  0  0  0
    5.1431    2.7374    0.0000 C   0  0  0  0  0  0  0  0  0  0  0  0
    8.7260    2.8790    0.0000 C   0  0  0  0  0  0  0  0  0  0  0  0
    8.7260    0.8790    0.0000 C   0  0  0  0  0  0  0  0  0  0  0  0
   10.4580    0.8790    0.0000 C   0  0  0  0  0  0  0  0  0  0  0  0
    8.7260   -0.1210    0.0000 C   0  0  0  0  0  0  0  0  0  0  0  0
    7.5602    1.6554    0.0000 C   0  0  0  0  0  0  0  0  0  0  0  0
    9.3600    3.2450    0.0000 C   0  0  0  0  0  0  0  0  0  0  0  0
    5.8271    4.6168    0.0000 C   0  0  0  0  0  0  0  0  0  0  0  0
    4.5003    3.5035    0.0000 C   0  0  0  0  0  0  0  0  0  0  0  0
   11.2345   -2.0188    0.0000 C   0  0  0  0  0  0  0  0  0  0  0  0
    9.5615   -2.4671    0.0000 C   0  0  0  0  0  0  0  0  0  0  0  0
    4.8424    4.4432    0.0000 C   0  0  0  0  0  0  0  0  0  0  0  0
    9.7260   -0.1210    0.0000 C   0  0  0  0  0  0  0  0  0  0  0  0
    7.8600   -0.6210    0.0000 C   0  0  0  0  0  0  0  0  0  0  0  0
   10.3600    3.2449    0.0000 C   0  0  0  0  0  0  0  0  0  0  0  0
    8.8600    4.1110    0.0000 C   0  0  0  0  0  0  0  0  0  0  0  0
   10.8600    4.1108    0.0000 C   0  0  0  0  0  0  0  0  0  0  0  0
    9.3601    4.9770    0.0000 C   0  0  0  0  0  0  0  0  0  0  0  0
   10.3601    4.9769    0.0000 C   0  0  0  0  0  0  0  0  0  0  0  0
    4.7348    0.2055    0.0000 H   0  0  0  0  0  0  0  0  0  0  0  0
    5.3040    1.9918    0.0000 H   0  0  0  0  0  0  0  0  0  0  0  0
    4.7348    1.3677    0.0000 H   0  0  0  0  0  0  0  0  0  0  0  0
    3.4642    1.4955    0.0000 H   0  0  0  0  0  0  0  0  0  0  0  0
    7.4276    1.7853    0.0000 H   0  0  0  0  0  0  0  0  0  0  0  0
    6.6960    2.2077    0.0000 H   0  0  0  0  0  0  0  0  0  0  0  0
    7.6808   -0.3332    0.0000 H   0  0  0  0  0  0  0  0  0  0  0  0
    7.9366    0.4719    0.0000 H   0  0  0  0  0  0  0  0  0  0  0  0
    2.8346    1.7506    0.0000 H   0  0  0  0  0  0  0  0  0  0  0  0
    2.0462    1.4929    0.0000 H   0  0  0  0  0  0  0  0  0  0  0  0
    2.0462   -0.7350    0.0000 H   0  0  0  0  0  0  0  0  0  0  0  0
    2.8346   -0.9927    0.0000 H   0  0  0  0  0  0  0  0  0  0  0  0
    1.5391    0.7937    0.0000 H   0  0  0  0  0  0  0  0  0  0  0  0
    1.5391   -0.0358    0.0000 H   0  0  0  0  0  0  0  0  0  0  0  0
    6.6422   -3.2427    0.0000 H   0  0  0  0  0  0  0  0  0  0  0  0
    7.8584   -3.2247    0.0000 H   0  0  0  0  0  0  0  0  0  0  0  0
    6.7511   -3.6399    0.0000 H   0  0  0  0  0  0  0  0  0  0  0  0
    8.0036   -3.6823    0.0000 H   0  0  0  0  0  0  0  0  0  0  0  0
    4.7250    0.5688    0.0000 H   0  0  0  0  0  0  0  0  0  0  0  0
    6.1813   -4.2425    0.0000 H   0  0  0  0  0  0  0  0  0  0  0  0
    6.5264    0.9040    0.0000 H   0  0  0  0  0  0  0  0  0  0  0  0
    4.7961   -1.7989    0.0000 H   0  0  0  0  0  0  0  0  0  0  0  0
    8.5484   -4.9143    0.0000 H   0  0  0  0  0  0  0  0  0  0  0  0
    9.2389   -4.3739    0.0000 H   0  0  0  0  0  0  0  0  0  0  0  0
    8.6985   -3.6834    0.0000 H   0  0  0  0  0  0  0  0  0  0  0  0
    6.5343   -4.6043    0.0000 H   0  0  0  0  0  0  0  0  0  0  0  0
    6.6570   -5.4725    0.0000 H   0  0  0  0  0  0  0  0  0  0  0  0
    7.5252   -5.3497    0.0000 H   0  0  0  0  0  0  0  0  0  0  0  0
    7.2216    1.7195    0.0000 H   0  0  0  0  0  0  0  0  0  0  0  0
    7.2217    2.5704    0.0000 H   0  0  0  0  0  0  0  0  0  0  0  0
    4.2527   -1.5770    0.0000 H   0  0  0  0  0  0  0  0  0  0  0  0
    3.4828   -1.7833    0.0000 H   0  0  0  0  0  0  0  0  0  0  0  0
    2.8451   -3.2845    0.0000 H   0  0  0  0  0  0  0  0  0  0  0  0
    5.5295   -1.0854    0.0000 H   0  0  0  0  0  0  0  0  0  0  0  0
    7.9718   -0.3825    0.0000 H   0  0  0  0  0  0  0  0  0  0  0  0
    6.9515    0.5812    0.0000 H   0  0  0  0  0  0  0  0  0  0  0  0
    6.9939    3.4990    0.0000 H   0  0  0  0  0  0  0  0  0  0  0  0
    7.6995    1.7801    0.0000 H   0  0  0  0  0  0  0  0  0  0  0  0
    2.4781   -1.9884    0.0000 H   0  0  0  0  0  0  0  0  0  0  0  0
    2.9435   -3.9724    0.0000 H   0  0  0  0  0  0  0  0  0  0  0  0
    3.7028   -4.4108    0.0000 H   0  0  0  0  0  0  0  0  0  0  0  0
    4.1412   -3.6515    0.0000 H   0  0  0  0  0  0  0  0  0  0  0  0
    1.7187   -2.4268    0.0000 H   0  0  0  0  0  0  0  0  0  0  0  0
    2.1572   -3.1861    0.0000 H   0  0  0  0  0  0  0  0  0  0  0  0
    8.4972   -1.8412    0.0000 H   0  0  0  0  0  0  0  0  0  0  0  0
    8.1747    0.1816    0.0000 H   0  0  0  0  0  0  0  0  0  0  0  0
    8.3810    0.9515    0.0000 H   0  0  0  0  0  0  0  0  0  0  0  0
   10.6086   -0.9546    0.0000 H   0  0  0  0  0  0  0  0  0  0  0  0
    6.3065    0.8401    0.0000 H   0  0  0  0  0  0  0  0  0  0  0  0
    5.5472    0.4017    0.0000 H   0  0  0  0  0  0  0  0  0  0  0  0
    5.9856   -0.3577    0.0000 H   0  0  0  0  0  0  0  0  0  0  0  0
    9.0551    1.6890    0.0000 H   0  0  0  0  0  0  0  0  0  0  0  0
    8.7523    1.7685    0.0000 H   0  0  0  0  0  0  0  0  0  0  0  0
    9.4426    2.1670    0.0000 H   0  0  0  0  0  0  0  0  0  0  0  0
    9.6697   -1.5995    0.0000 H   0  0  0  0  0  0  0  0  0  0  0  0
    7.0805    3.9584    0.0000 H   0  0  0  0  0  0  0  0  0  0  0  0
    4.9311    2.1548    0.0000 H   0  0  0  0  0  0  0  0  0  0  0  0
    8.5139    1.4616    0.0000 H   0  0  0  0  0  0  0  0  0  0  0  0
    8.1154    0.7713    0.0000 H   0  0  0  0  0  0  0  0  0  0  0  0
   10.1289    2.6890    0.0000 H   0  0  0  0  0  0  0  0  0  0  0  0
   11.3157   -0.2474    0.0000 H   0  0  0  0  0  0  0  0  0  0  0  0
    8.8864   -0.7199    0.0000 H   0  0  0  0  0  0  0  0  0  0  0  0
    8.1591    1.8159    0.0000 H   0  0  0  0  0  0  0  0  0  0  0  0
    7.3998    2.2543    0.0000 H   0  0  0  0  0  0  0  0  0  0  0  0
    6.9614    1.4949    0.0000 H   0  0  0  0  0  0  0  0  0  0  0  0
    9.1230   -2.0287    0.0000 H   0  0  0  0  0  0  0  0  0  0  0  0
    9.1230   -2.9055    0.0000 H   0  0  0  0  0  0  0  0  0  0  0  0
    9.9999   -2.9055    0.0000 H   0  0  0  0  0  0  0  0  0  0  0  0
   11.0740   -2.6177    0.0000 H   0  0  0  0  0  0  0  0  0  0  0  0
   11.8334   -2.1793    0.0000 H   0  0  0  0  0  0  0  0  0  0  0  0
   11.3950   -1.4200    0.0000 H   0  0  0  0  0  0  0  0  0  0  0  0
    6.0392    5.1994    0.0000 H   0  0  0  0  0  0  0  0  0  0  0  0
    3.8898    3.3958    0.0000 H   0  0  0  0  0  0  0  0  0  0  0  0
    4.4439    4.9182    0.0000 H   0  0  0  0  0  0  0  0  0  0  0  0
    9.7260   -0.7410    0.0000 H   0  0  0  0  0  0  0  0  0  0  0  0
    7.5500   -0.0841    0.0000 H   0  0  0  0  0  0  0  0  0  0  0  0
    7.3230   -0.9310    0.0000 H   0  0  0  0  0  0  0  0  0  0  0  0
    8.1700   -1.1580    0.0000 H   0  0  0  0  0  0  0  0  0  0  0  0
   10.3460   -0.1210    0.0000 H   0  0  0  0  0  0  0  0  0  0  0  0
    9.7260    0.4990    0.0000 H   0  0  0  0  0  0  0  0  0  0  0  0
   10.6699    2.7079    0.0000 H   0  0  0  0  0  0  0  0  0  0  0  0
    8.2400    4.1111    0.0000 H   0  0  0  0  0  0  0  0  0  0  0  0
   11.4800    4.1108    0.0000 H   0  0  0  0  0  0  0  0  0  0  0  0
    9.0502    5.5140    0.0000 H   0  0  0  0  0  0  0  0  0  0  0  0
   10.6702    5.5138    0.0000 H   0  0  0  0  0  0  0  0  0  0  0  0
  1 24  2  0  0  0  0
  2 28  2  0  0  0  0
  3 30  2  0  0  0  0
  4 34  2  0  0  0  0
  5 40  2  0  0  0  0
  6 45  2  0  0  0  0
  7 54  2  0  0  0  0
  8 58  2  0  0  0  0
  9 60  2  0  0  0  0
 10 21  1  0  0  0  0
 10 24  1  0  0  0  0
 10 26  1  0  0  0  0
 11 19  1  0  0  0  0
 11 23  1  0  0  0  0
 11 28  1  0  0  0  0
 12 30  1  0  0  0  0
 12 33  1  0  0  0  0
 12 94  1  0  0  0  0
 13 29  1  0  0  0  0
 13 34  1  0  0  0  0
 13 95  1  0  0  0  0
 14 35  1  0  0  0  0
 14 45  1  0  0  0  0
 14109  1  0  0  0  0
 15 40  1  0  0  0  0
 15 46  1  0  0  0  0
 15112  1  0  0  0  0
 16 42  1  0  0  0  0
 16 54  1  0  0  0  0
 16120  1  0  0  0  0
 17 52  1  0  0  0  0
 17 58  1  0  0  0  0
 17135  1  0  0  0  0
 18 50  1  0  0  0  0
 18 60  1  0  0  0  0
 18136  1  0  0  0  0
 19 20  1  0  0  0  0
 19 24  1  0  0  0  0
 19 76  1  0  0  0  0
 20 22  1  0  0  0  0
 20 77  1  0  0  0  0
 20 78  1  0  0  0  0
 21 25  1  0  0  0  0
 21 30  1  0  0  0  0
 21 79  1  0  0  0  0
 22 23  1  0  0  0  0
 22 80  1  0  0  0  0
 22 81  1  0  0  0  0
 23 82  1  0  0  0  0
 23 83  1  0  0  0  0
 25 27  1  0  0  0  0
 25 84  1  0  0  0  0
 25 85  1  0  0  0  0
 26 27  1  0  0  0  0
 26 86  1  0  0  0  0
 26 87  1  0  0  0  0
 27 88  1  0  0  0  0
 27 89  1  0  0  0  0
 28 29  1  0  0  0  0
 29 31  1  0  0  0  0
 29 90  1  1  0  0  0
 31 32  1  0  0  0  0
 31 91  1  0  0  0  0
 31 92  1  0  0  0  0
 32 36  1  0  0  0  0
 32 37  1  0  0  0  0
 32 93  1  0  0  0  0
 33 38  1  0  0  0  0
 33 40  1  0  0  0  0
 33 96  1  1  0  0  0
 34 35  1  0  0  0  0
 35 39  1  0  0  0  0
 35 97  1  6  0  0  0
 36 98  1  0  0  0  0
 36 99  1  0  0  0  0
 36100  1  0  0  0  0
 37101  1  0  0  0  0
 37102  1  0  0  0  0
 37103  1  0  0  0  0
 38 43  1  0  0  0  0
 38104  1  0  0  0  0
 38105  1  0  0  0  0
 39 41  1  0  0  0  0
 39106  1  0  0  0  0
 39107  1  0  0  0  0
 41 47  1  0  0  0  0
 41 48  1  0  0  0  0
 41108  1  0  0  0  0
 42 44  1  0  0  0  0
 42 45  1  0  0  0  0
 42110  1  1  0  0  0
 43 56  2  0  0  0  0
 43 57  1  0  0  0  0
 44 49  1  0  0  0  0
 44 51  1  0  0  0  0
 44111  1  6  0  0  0
 46 53  1  0  0  0  0
 46 58  1  0  0  0  0
 46113  1  6  0  0  0
 47114  1  0  0  0  0
 47118  1  0  0  0  0
 47119  1  0  0  0  0
 48115  1  0  0  0  0
 48116  1  0  0  0  0
 48117  1  0  0  0  0
 49 62  1  0  0  0  0
 49121  1  0  0  0  0
 49122  1  0  0  0  0
 50 54  1  0  0  0  0
 50 55  1  0  0  0  0
 50123  1  6  0  0  0
 51124  1  0  0  0  0
 51125  1  0  0  0  0
 51126  1  0  0  0  0
 52 59  1  0  0  0  0
 52 60  1  0  0  0  0
 52127  1  1  0  0  0
 53 63  1  0  0  0  0
 53128  1  0  0  0  0
 53129  1  0  0  0  0
 55 66  1  0  0  0  0
 55 67  1  0  0  0  0
 55130  1  0  0  0  0
 56 64  1  0  0  0  0
 56131  1  0  0  0  0
 57 65  2  0  0  0  0
 57132  1  0  0  0  0
 59 61  1  0  0  0  0
 59133  1  0  0  0  0
 59134  1  0  0  0  0
 61 69  1  0  0  0  0
 61 70  1  0  0  0  0
 61137  1  0  0  0  0
 62138  1  0  0  0  0
 62139  1  0  0  0  0
 62140  1  0  0  0  0
 63 71  2  0  0  0  0
 63 72  1  0  0  0  0
 64 68  2  0  0  0  0
 64147  1  0  0  0  0
 65 68  1  0  0  0  0
 65148  1  0  0  0  0
 66144  1  0  0  0  0
 66145  1  0  0  0  0
 66146  1  0  0  0  0
 67141  1  0  0  0  0
 67142  1  0  0  0  0
 67143  1  0  0  0  0
 68149  1  0  0  0  0
 69150  1  0  0  0  0
 69154  1  0  0  0  0
 69155  1  0  0  0  0
 70151  1  0  0  0  0
 70152  1  0  0  0  0
 70153  1  0  0  0  0
 71 73  1  0  0  0  0
 71156  1  0  0  0  0
 72 74  2  0  0  0  0
 72157  1  0  0  0  0
 73 75  2  0  0  0  0
 73158  1  0  0  0  0
 74 75  1  0  0  0  0
 74159  1  0  0  0  0
 75160  1  0  0  0  0
M  END
>  <PUBCHEM_COMPOUND_CID>
131752420

>  <PUBCHEM_COMPOUND_CANONICALIZED>
1

>  <PUBCHEM_CACTVS_COMPLEXITY>
1970

>  <PUBCHEM_CACTVS_HBOND_ACCEPTOR>
9

>  <PUBCHEM_CACTVS_HBOND_DONOR>
7

>  <PUBCHEM_CACTVS_ROTATABLE_BOND>
13

>  <PUBCHEM_CACTVS_SUBSKEYS>
AAADcfB//AAAAAAAAAAAAAAAAAAAAWLAAAAwYAAAAAAAAAABQAAAHgAQAAAADSjBmAQyAIPAAACIAiFSEAACAAAgAAAIiIGIAIgIYDKAkTGUIAAglgCIiAcYiYCOAAAAAAAAAAAAAAAAAAAAAAAAAAAAAA==

>  <PUBCHEM_IUPAC_INCHI>
InChI=1S/C57H85N9O9/c1-11-37(10)48-55(73)61-40(28-33(2)3)49(67)62-44(30-35(6)7)56(74)66-27-19-25-46(66)57(75)65-26-18-24-45(65)53(71)60-43(32-39-22-16-13-17-23-39)51(69)59-42(31-38-20-14-12-15-21-38)50(68)58-41(29-34(4)5)52(70)63-47(36(8)9)54(72)64-48/h12-17,20-23,33-37,40-48H,11,18-19,24-32H2,1-10H3,(H,58,68)(H,59,69)(H,60,71)(H,61,73)(H,62,67)(H,63,70)(H,64,72)/t37-,40+,41-,42+,43-,44-,45?,46?,47-,48-/m0/s1

>  <PUBCHEM_IUPAC_INCHIKEY>
DTEHCBOGAUCOJT-NWGSHBOFSA-N

>  <PUBCHEM_EXACT_MASS>
1039.647

>  <PUBCHEM_MOLECULAR_FORMULA>
C57H85N9O9

>  <PUBCHEM_MOLECULAR_WEIGHT>
1040.361

>  <PUBCHEM_OPENEYE_CAN_SMILES>
CCC(C)C1C(=O)NC(C(=O)NC(C(=O)N2CCCC2C(=O)N3CCCC3C(=O)NC(C(=O)NC(C(=O)NC(C(=O)NC(C(=O)N1)C(C)C)CC(C)C)CC4=CC=CC=C4)CC5=CC=CC=C5)CC(C)C)CC(C)C

>  <PUBCHEM_OPENEYE_ISO_SMILES>
CC[C@H](C)[C@H]1C(=O)N[C@@H](C(=O)N[C@H](C(=O)N2CCCC2C(=O)N3CCCC3C(=O)N[C@H](C(=O)N[C@@H](C(=O)N[C@H](C(=O)N[C@H](C(=O)N1)C(C)C)CC(C)C)CC4=CC=CC=C4)CC5=CC=CC=C5)CC(C)C)CC(C)C

>  <PUBCHEM_CACTVS_TPSA>
244

>  <PUBCHEM_MONOISOTOPIC_WEIGHT>
1039.647

>  <PUBCHEM_TOTAL_CHARGE>
0

>  <PUBCHEM_HEAVY_ATOM_COUNT>
75

>  <PUBCHEM_ATOM_DEF_STEREO_COUNT>
8

>  <PUBCHEM_ATOM_UDEF_STEREO_COUNT>
2

>  <PUBCHEM_BOND_DEF_STEREO_COUNT>
0

>  <PUBCHEM_BOND_UDEF_STEREO_COUNT>
0

>  <PUBCHEM_ISOTOPIC_ATOM_COUNT>
0

>  <PUBCHEM_COMPONENT_COUNT>
1

>  <PUBCHEM_CACTVS_TAUTO_COUNT>
512

>  <PUBCHEM_COORDINATE_TYPE>
1
5
255

>  <PUBCHEM_BONDANNOTATIONS>
19  20  3
21  25  3
29  31  6
33  38  6
35  39  5
42  110  5
43  56  8
43  57  8
44  51  5
46  53  5
50  55  5
52  59  6
56  64  8
57  65  8
63  71  8
63  72  8
64  68  8
65  68  8
71  73  8
72  74  8
73  75  8
74  75  8

$$$$
