131752038
 OpenBabel06101807152D

 49 50  0  0  1  0  0  0  0  0999 V2000
    3.5836   -1.3647    0.0000 O   0  0  0  0  0  0  0  0  0  0  0  0
    5.3958    1.4400    0.0000 O   0  0  0  0  0  0  0  0  0  0  0  0
    2.0000   -0.5600    0.0000 O   0  0  0  0  0  0  0  0  0  0  0  0
    6.2619   -4.0600    0.0000 O   0  0  0  0  0  0  0  0  0  0  0  0
    7.1279    1.4400    0.0000 O   0  0  0  0  0  0  0  0  0  0  0  0
    4.5298   -0.0600    0.0000 C   0  0  3  0  0  0  0  0  0  0  0  0
    5.3958    0.4400    0.0000 C   0  0  3  0  0  0  0  0  0  0  0  0
    4.5298   -1.0600    0.0000 C   0  0  3  0  0  0  0  0  0  0  0  0
    6.2619   -0.0600    0.0000 C   0  0  0  0  0  0  0  0  0  0  0  0
    3.5836    0.2447    0.0000 C   0  0  0  0  0  0  0  0  0  0  0  0
    5.3958   -1.5600    0.0000 C   0  0  0  0  0  0  0  0  0  0  0  0
    3.0000   -0.5600    0.0000 C   0  0  0  0  0  0  0  0  0  0  0  0
    6.2619   -1.0600    0.0000 C   0  0  0  0  0  0  0  0  0  0  0  0
    5.3958   -2.5600    0.0000 C   0  0  0  0  0  0  0  0  0  0  0  0
    3.2729    1.1952    0.0000 C   0  0  0  0  0  0  0  0  0  0  0  0
    7.1279   -1.5600    0.0000 C   0  0  0  0  0  0  0  0  0  0  0  0
    7.1279   -2.5600    0.0000 C   0  0  0  0  0  0  0  0  0  0  0  0
    6.2619   -3.0600    0.0000 C   0  0  0  0  0  0  0  0  0  0  0  0
    4.8053   -1.5901    0.0000 C   0  0  0  0  0  0  0  0  0  0  0  0
    6.2619    1.9400    0.0000 C   0  0  0  0  0  0  0  0  0  0  0  0
    4.5298   -3.0600    0.0000 C   0  0  0  0  0  0  0  0  0  0  0  0
    6.2619    2.9400    0.0000 C   0  0  0  0  0  0  0  0  0  0  0  0
    5.3958    3.4400    0.0000 C   0  0  0  0  0  0  0  0  0  0  0  0
    7.1279    3.4400    0.0000 C   0  0  0  0  0  0  0  0  0  0  0  0
    7.9939    2.9400    0.0000 C   0  0  0  0  0  0  0  0  0  0  0  0
    4.4642    0.5565    0.0000 H   0  0  0  0  0  0  0  0  0  0  0  0
    5.9328    0.7500    0.0000 H   0  0  0  0  0  0  0  0  0  0  0  0
    4.4642   -1.6765    0.0000 H   0  0  0  0  0  0  0  0  0  0  0  0
    6.8725   -0.1677    0.0000 H   0  0  0  0  0  0  0  0  0  0  0  0
    6.4739    0.5226    0.0000 H   0  0  0  0  0  0  0  0  0  0  0  0
    6.0064   -1.6677    0.0000 H   0  0  0  0  0  0  0  0  0  0  0  0
    3.6870    1.6567    0.0000 H   0  0  0  0  0  0  0  0  0  0  0  0
    2.6663    1.3231    0.0000 H   0  0  0  0  0  0  0  0  0  0  0  0
    7.6648   -1.2500    0.0000 H   0  0  0  0  0  0  0  0  0  0  0  0
    7.3400   -3.1426    0.0000 H   0  0  0  0  0  0  0  0  0  0  0  0
    7.7385   -2.4523    0.0000 H   0  0  0  0  0  0  0  0  0  0  0  0
    4.5933   -1.0075    0.0000 H   0  0  0  0  0  0  0  0  0  0  0  0
    4.2227   -1.8021    0.0000 H   0  0  0  0  0  0  0  0  0  0  0  0
    5.0174   -2.1727    0.0000 H   0  0  0  0  0  0  0  0  0  0  0  0
    4.2198   -2.5231    0.0000 H   0  0  0  0  0  0  0  0  0  0  0  0
    3.9929   -3.3700    0.0000 H   0  0  0  0  0  0  0  0  0  0  0  0
    4.8398   -3.5969    0.0000 H   0  0  0  0  0  0  0  0  0  0  0  0
    5.7058    3.9769    0.0000 H   0  0  0  0  0  0  0  0  0  0  0  0
    4.8589    3.7500    0.0000 H   0  0  0  0  0  0  0  0  0  0  0  0
    5.0858    2.9031    0.0000 H   0  0  0  0  0  0  0  0  0  0  0  0
    7.1279    4.0600    0.0000 H   0  0  0  0  0  0  0  0  0  0  0  0
    7.6839    2.4031    0.0000 H   0  0  0  0  0  0  0  0  0  0  0  0
    8.5309    2.6300    0.0000 H   0  0  0  0  0  0  0  0  0  0  0  0
    8.3039    3.4769    0.0000 H   0  0  0  0  0  0  0  0  0  0  0  0
  1  8  1  0  0  0  0
  1 12  1  0  0  0  0
  2  7  1  0  0  0  0
  2 20  1  0  0  0  0
  3 12  2  0  0  0  0
  4 18  2  0  0  0  0
  5 20  2  0  0  0  0
  6  7  1  0  0  0  0
  6  8  1  0  0  0  0
  6 10  1  0  0  0  0
  6 26  1  0  0  0  0
  7  9  1  0  0  0  0
  7 27  1  0  0  0  0
  8 11  1  0  0  0  0
  8 28  1  0  0  0  0
  9 13  1  0  0  0  0
  9 29  1  0  0  0  0
  9 30  1  0  0  0  0
 10 12  1  0  0  0  0
 10 15  2  0  0  0  0
 11 14  2  0  0  0  0
 11 31  1  0  0  0  0
 13 16  2  0  0  0  0
 13 19  1  0  0  0  0
 14 18  1  0  0  0  0
 14 21  1  0  0  0  0
 15 32  1  0  0  0  0
 15 33  1  0  0  0  0
 16 17  1  0  0  0  0
 16 34  1  0  0  0  0
 17 18  1  0  0  0  0
 17 35  1  0  0  0  0
 17 36  1  0  0  0  0
 19 37  1  0  0  0  0
 19 38  1  0  0  0  0
 19 39  1  0  0  0  0
 20 22  1  0  0  0  0
 21 40  1  0  0  0  0
 21 41  1  0  0  0  0
 21 42  1  0  0  0  0
 22 23  1  0  0  0  0
 22 24  2  0  0  0  0
 23 43  1  0  0  0  0
 23 44  1  0  0  0  0
 23 45  1  0  0  0  0
 24 25  1  0  0  0  0
 24 46  1  0  0  0  0
 25 47  1  0  0  0  0
 25 48  1  0  0  0  0
 25 49  1  0  0  0  0
M  END
>  <PUBCHEM_COMPOUND_CID>
131752038

>  <PUBCHEM_COMPOUND_CANONICALIZED>
1

>  <PUBCHEM_CACTVS_COMPLEXITY>
708

>  <PUBCHEM_CACTVS_HBOND_ACCEPTOR>
5

>  <PUBCHEM_CACTVS_HBOND_DONOR>
0

>  <PUBCHEM_CACTVS_ROTATABLE_BOND>
3

>  <PUBCHEM_CACTVS_SUBSKEYS>
AAADceB4OAAAAAAAAAAAAAAAAAAAASAAAAAAAAAAAAAAAACAAAAAGgAAAAAADRSggAICCAAABACIAqDSCAAAAAAgAAAACAEAAEgABBIAIQACEAAFwAAIIYPKyCCOAAAAAAAAAAAAAAAAAAAAAAAAAAAAAA==

>  <PUBCHEM_IUPAC_OPENEYE_NAME>
[(6E,10E)-6,10-dimethyl-3-methylene-2,9-dioxo-4,5,8,11a-tetrahydro-3aH-cyclodeca[b]furan-4-yl] (Z)-2-methylbut-2-enoate

>  <PUBCHEM_IUPAC_CAS_NAME>
(Z)-2-methyl-2-butenoic acid [(6E,10E)-6,10-dimethyl-3-methylene-2,9-dioxo-4,5,8,11a-tetrahydro-3aH-cyclodeca[b]furan-4-yl] ester

>  <PUBCHEM_IUPAC_NAME>
[(6E,10E)-6,10-dimethyl-3-methylidene-2,9-dioxo-4,5,8,11a-tetrahydro-3aH-cyclodeca[b]furan-4-yl] (Z)-2-methylbut-2-enoate

>  <PUBCHEM_IUPAC_SYSTEMATIC_NAME>
[(6E,10E)-6,10-dimethyl-3-methylidene-2,9-bis(oxidanylidene)-4,5,8,11a-tetrahydro-3aH-cyclodeca[b]furan-4-yl] (Z)-2-methylbut-2-enoate

>  <PUBCHEM_IUPAC_TRADITIONAL_NAME>
(Z)-2-methylbut-2-enoic acid [(6E,10E)-2,9-diketo-6,10-dimethyl-3-methylene-4,5,8,11a-tetrahydro-3aH-cyclodeca[b]furan-4-yl] ester

>  <PUBCHEM_IUPAC_INCHI>
InChI=1S/C20H24O5/c1-6-12(3)19(22)24-16-9-11(2)7-8-15(21)13(4)10-17-18(16)14(5)20(23)25-17/h6-7,10,16-18H,5,8-9H2,1-4H3/b11-7+,12-6-,13-10+

>  <PUBCHEM_IUPAC_INCHIKEY>
FKDIIXZIKCNXAT-QLDBJWRKSA-N

>  <PUBCHEM_EXACT_MASS>
344.162

>  <PUBCHEM_MOLECULAR_FORMULA>
C20H24O5

>  <PUBCHEM_MOLECULAR_WEIGHT>
344.407

>  <PUBCHEM_OPENEYE_CAN_SMILES>
CC=C(C)C(=O)OC1CC(=CCC(=O)C(=CC2C1C(=C)C(=O)O2)C)C

>  <PUBCHEM_OPENEYE_ISO_SMILES>
C/C=C(/C)\C(=O)OC1C/C(=C/CC(=O)/C(=C/C2C1C(=C)C(=O)O2)/C)/C

>  <PUBCHEM_CACTVS_TPSA>
69.7

>  <PUBCHEM_MONOISOTOPIC_WEIGHT>
344.162

>  <PUBCHEM_TOTAL_CHARGE>
0

>  <PUBCHEM_HEAVY_ATOM_COUNT>
25

>  <PUBCHEM_ATOM_DEF_STEREO_COUNT>
0

>  <PUBCHEM_ATOM_UDEF_STEREO_COUNT>
3

>  <PUBCHEM_BOND_DEF_STEREO_COUNT>
3

>  <PUBCHEM_BOND_UDEF_STEREO_COUNT>
0

>  <PUBCHEM_ISOTOPIC_ATOM_COUNT>
0

>  <PUBCHEM_COMPONENT_COUNT>
1

>  <PUBCHEM_CACTVS_TAUTO_COUNT>
10

>  <PUBCHEM_COORDINATE_TYPE>
1
5
255

>  <PUBCHEM_BONDANNOTATIONS>
7  2  3
6  10  3
8  11  3

$$$$
