131751514
 OpenBabel06101807152D

233238  0  0  1  0  0  0  0  0999 V2000
   21.5895    1.6550    0.0000 O   0  0  0  0  0  0  0  0  0  0  0  0
   19.8574    1.6550    0.0000 O   0  0  0  0  0  0  0  0  0  0  0  0
   31.9818   -4.3450    0.0000 O   0  0  0  0  0  0  0  0  0  0  0  0
   30.2497   -2.3450    0.0000 O   0  0  0  0  0  0  0  0  0  0  0  0
   21.5895    4.6550    0.0000 O   0  0  0  0  0  0  0  0  0  0  0  0
   32.8478   -2.8450    0.0000 O   0  0  0  0  0  0  0  0  0  0  0  0
   31.9818   -2.3450    0.0000 O   0  0  0  0  0  0  0  0  0  0  0  0
   18.1254    2.6550    0.0000 O   0  0  0  0  0  0  0  0  0  0  0  0
   30.2497   -5.3450    0.0000 O   0  0  0  0  0  0  0  0  0  0  0  0
   21.5895   -0.3450    0.0000 O   0  0  0  0  0  0  0  0  0  0  0  0
   18.1254   -0.3450    0.0000 O   0  0  0  0  0  0  0  0  0  0  0  0
   19.8574   -1.3450    0.0000 O   0  0  0  0  0  0  0  0  0  0  0  0
   19.8574    2.6550    0.0000 O   0  0  0  0  0  0  0  0  0  0  0  0
   17.2594    4.1550    0.0000 O   0  0  0  0  0  0  0  0  0  0  0  0
   28.5177   -4.3450    0.0000 O   0  0  0  0  0  0  0  0  0  0  0  0
   23.3215    2.6550    0.0000 O   0  0  0  0  0  0  0  0  0  0  0  0
   23.3215    4.6550    0.0000 O   0  0  0  0  0  0  0  0  0  0  0  0
   33.7139   -5.3450    0.0000 O   0  0  0  0  0  0  0  0  0  0  0  0
   35.4459   -4.3450    0.0000 O   0  0  0  0  0  0  0  0  0  0  0  0
   35.4459   -2.3450    0.0000 O   0  0  0  0  0  0  0  0  0  0  0  0
   16.3933    1.6550    0.0000 O   0  0  0  0  0  0  0  0  0  0  0  0
   14.6613    2.6550    0.0000 O   0  0  0  0  0  0  0  0  0  0  0  0
   28.5177   -1.3450    0.0000 O   0  0  0  0  0  0  0  0  0  0  0  0
   14.6613    4.6550    0.0000 O   0  0  0  0  0  0  0  0  0  0  0  0
   34.5799   -0.8450    0.0000 O   0  0  0  0  0  0  0  0  0  0  0  0
    4.2690   -2.3450    0.0000 O   0  0  0  0  0  0  0  0  0  0  0  0
    6.0010   -2.3450    0.0000 O   0  0  0  0  0  0  0  0  0  0  0  0
    4.2690   -5.3450    0.0000 O   0  0  0  0  0  0  0  0  0  0  0  0
    6.0010   -4.3450    0.0000 O   0  0  0  0  0  0  0  0  0  0  0  0
    2.5369   -4.3450    0.0000 O   0  0  0  0  0  0  0  0  0  0  0  0
   14.6613    1.6550    0.0000 O   0  0  0  0  0  0  0  0  0  0  0  0
    2.5369   -1.3450    0.0000 O   0  0  0  0  0  0  0  0  0  0  0  0
   13.7953    1.1550    0.0000 O   0  0  0  0  0  0  0  0  0  0  0  0
   31.1158   -3.8450    0.0000 C   0  0  3  0  0  0  0  0  0  0  0  0
   21.5895    2.6550    0.0000 C   0  0  3  0  0  0  0  0  0  0  0  0
   20.7235    1.1550    0.0000 C   0  0  3  0  0  0  0  0  0  0  0  0
   30.2497   -4.3450    0.0000 C   0  0  3  0  0  0  0  0  0  0  0  0
   18.9914    1.1550    0.0000 C   0  0  3  0  0  0  0  0  0  0  0  0
   20.7235    0.1550    0.0000 C   0  0  3  0  0  0  0  0  0  0  0  0
   18.9914    0.1550    0.0000 C   0  0  3  0  0  0  0  0  0  0  0  0
   19.8574   -0.3450    0.0000 C   0  0  3  0  0  0  0  0  0  0  0  0
   20.7235    3.1550    0.0000 C   0  0  3  0  0  0  0  0  0  0  0  0
   31.1158   -2.8450    0.0000 C   0  0  3  0  0  0  0  0  0  0  0  0
   29.3837   -3.8450    0.0000 C   0  0  3  0  0  0  0  0  0  0  0  0
   22.4555    3.1550    0.0000 C   0  0  3  0  0  0  0  0  0  0  0  0
   29.3837   -2.8450    0.0000 C   0  0  3  0  0  0  0  0  0  0  0  0
   32.8478   -3.8450    0.0000 C   0  0  3  0  0  0  0  0  0  0  0  0
   20.7235    4.1550    0.0000 C   0  0  3  0  0  0  0  0  0  0  0  0
   33.7139   -4.3450    0.0000 C   0  0  3  0  0  0  0  0  0  0  0  0
   22.4555    4.1550    0.0000 C   0  0  3  0  0  0  0  0  0  0  0  0
   34.5799   -3.8450    0.0000 C   0  0  3  0  0  0  0  0  0  0  0  0
   34.5799   -2.8450    0.0000 C   0  0  3  0  0  0  0  0  0  0  0  0
   18.1254    1.6550    0.0000 C   0  0  0  0  0  0  0  0  0  0  0  0
   33.7139   -2.3450    0.0000 C   0  0  3  0  0  0  0  0  0  0  0  0
   17.2594    3.1550    0.0000 C   0  0  3  0  0  0  0  0  0  0  0  0
   16.3933    2.6550    0.0000 C   0  0  3  0  0  0  0  0  0  0  0  0
   31.9818   -1.3450    0.0000 C   0  0  3  0  0  0  0  0  0  0  0  0
   15.5273    3.1550    0.0000 C   0  0  3  0  0  0  0  0  0  0  0  0
   28.5177   -2.3450    0.0000 C   0  0  0  0  0  0  0  0  0  0  0  0
   15.5273    4.1550    0.0000 C   0  0  3  0  0  0  0  0  0  0  0  0
   16.3933    4.6550    0.0000 C   0  0  3  0  0  0  0  0  0  0  0  0
   19.8574    4.6550    0.0000 C   0  0  0  0  0  0  0  0  0  0  0  0
   33.7139   -1.3450    0.0000 C   0  0  0  0  0  0  0  0  0  0  0  0
   31.9818   -0.3450    0.0000 C   0  0  0  0  0  0  0  0  0  0  0  0
   30.9818   -1.3450    0.0000 C   0  0  0  0  0  0  0  0  0  0  0  0
   16.3933    5.6550    0.0000 C   0  0  0  0  0  0  0  0  0  0  0  0
   32.9818   -1.3450    0.0000 C   0  0  0  0  0  0  0  0  0  0  0  0
   31.1158    0.1550    0.0000 C   0  0  0  0  0  0  0  0  0  0  0  0
   24.1876    4.1550    0.0000 C   0  0  0  0  0  0  0  0  0  0  0  0
   25.0536    4.6550    0.0000 C   0  0  0  0  0  0  0  0  0  0  0  0
    4.2690   -4.3450    0.0000 C   0  0  3  0  0  0  0  0  0  0  0  0
   31.1158    1.1550    0.0000 C   0  0  0  0  0  0  0  0  0  0  0  0
    5.1350   -3.8450    0.0000 C   0  0  3  0  0  0  0  0  0  0  0  0
    3.4030   -3.8450    0.0000 C   0  0  3  0  0  0  0  0  0  0  0  0
    5.1350   -2.8450    0.0000 C   0  0  3  0  0  0  0  0  0  0  0  0
    3.4030   -2.8450    0.0000 C   0  0  3  0  0  0  0  0  0  0  0  0
   15.5273    1.1550    0.0000 C   0  0  0  0  0  0  0  0  0  0  0  0
   33.4818   -0.4790    0.0000 C   0  0  0  0  0  0  0  0  0  0  0  0
   30.2497    1.6550    0.0000 C   0  0  0  0  0  0  0  0  0  0  0  0
    6.8671   -2.8450    0.0000 C   0  0  3  0  0  0  0  0  0  0  0  0
   25.9196    4.1550    0.0000 C   0  0  0  0  0  0  0  0  0  0  0  0
   25.0536    5.6550    0.0000 C   0  0  0  0  0  0  0  0  0  0  0  0
    2.5369   -2.3450    0.0000 C   0  0  0  0  0  0  0  0  0  0  0  0
   15.5273    0.1550    0.0000 C   0  0  0  0  0  0  0  0  0  0  0  0
   30.2497    2.6550    0.0000 C   0  0  0  0  0  0  0  0  0  0  0  0
    7.7331   -3.3450    0.0000 C   0  0  0  0  0  0  0  0  0  0  0  0
   26.7856    4.6550    0.0000 C   0  0  0  0  0  0  0  0  0  0  0  0
    7.3671   -1.9790    0.0000 C   0  0  0  0  0  0  0  0  0  0  0  0
   29.3837    1.1550    0.0000 C   0  0  0  0  0  0  0  0  0  0  0  0
   29.3837    3.1550    0.0000 C   0  0  0  0  0  0  0  0  0  0  0  0
   27.6517    4.1550    0.0000 C   0  0  0  0  0  0  0  0  0  0  0  0
    8.5991   -2.8450    0.0000 C   0  0  0  0  0  0  0  0  0  0  0  0
    6.3671   -3.7110    0.0000 C   0  0  0  0  0  0  0  0  0  0  0  0
   14.6613   -0.3450    0.0000 C   0  0  0  0  0  0  0  0  0  0  0  0
   16.3933   -0.3450    0.0000 C   0  0  0  0  0  0  0  0  0  0  0  0
   28.5177    4.6550    0.0000 C   0  0  0  0  0  0  0  0  0  0  0  0
   29.3837    4.1550    0.0000 C   0  0  0  0  0  0  0  0  0  0  0  0
   13.7953    0.1550    0.0000 C   0  0  3  0  0  0  0  0  0  0  0  0
    9.4651   -3.3450    0.0000 C   0  0  0  0  0  0  0  0  0  0  0  0
   12.9292   -0.3450    0.0000 C   0  0  0  0  0  0  0  0  0  0  0  0
   28.5177    5.6550    0.0000 C   0  0  0  0  0  0  0  0  0  0  0  0
    6.8671   -4.5770    0.0000 C   0  0  0  0  0  0  0  0  0  0  0  0
   10.3312   -2.8450    0.0000 C   0  0  0  0  0  0  0  0  0  0  0  0
   10.3312   -1.8450    0.0000 C   0  0  0  0  0  0  0  0  0  0  0  0
   12.0632    0.1550    0.0000 C   0  0  0  0  0  0  0  0  0  0  0  0
   11.1972   -1.3450    0.0000 C   0  0  0  0  0  0  0  0  0  0  0  0
   11.1972   -0.3450    0.0000 C   0  0  0  0  0  0  0  0  0  0  0  0
   11.1972   -3.3450    0.0000 C   0  0  0  0  0  0  0  0  0  0  0  0
   12.0632    1.1550    0.0000 C   0  0  0  0  0  0  0  0  0  0  0  0
   31.1158   -4.4650    0.0000 H   0  0  0  0  0  0  0  0  0  0  0  0
   21.0526    2.3450    0.0000 H   0  0  0  0  0  0  0  0  0  0  0  0
   20.7235    1.7750    0.0000 H   0  0  0  0  0  0  0  0  0  0  0  0
   29.7128   -4.6550    0.0000 H   0  0  0  0  0  0  0  0  0  0  0  0
   18.9914    1.7750    0.0000 H   0  0  0  0  0  0  0  0  0  0  0  0
   21.2604    0.4650    0.0000 H   0  0  0  0  0  0  0  0  0  0  0  0
   18.9914   -0.4650    0.0000 H   0  0  0  0  0  0  0  0  0  0  0  0
   20.3944   -0.6550    0.0000 H   0  0  0  0  0  0  0  0  0  0  0  0
   20.7235    2.5350    0.0000 H   0  0  0  0  0  0  0  0  0  0  0  0
   31.1158   -2.2250    0.0000 H   0  0  0  0  0  0  0  0  0  0  0  0
   28.8468   -3.5350    0.0000 H   0  0  0  0  0  0  0  0  0  0  0  0
   22.4555    2.5350    0.0000 H   0  0  0  0  0  0  0  0  0  0  0  0
   29.3837   -2.2250    0.0000 H   0  0  0  0  0  0  0  0  0  0  0  0
   32.3109   -3.5350    0.0000 H   0  0  0  0  0  0  0  0  0  0  0  0
   20.7235    4.7750    0.0000 H   0  0  0  0  0  0  0  0  0  0  0  0
   34.2508   -4.6550    0.0000 H   0  0  0  0  0  0  0  0  0  0  0  0
   22.9925    3.8450    0.0000 H   0  0  0  0  0  0  0  0  0  0  0  0
   34.5799   -4.4650    0.0000 H   0  0  0  0  0  0  0  0  0  0  0  0
   35.1168   -3.1550    0.0000 H   0  0  0  0  0  0  0  0  0  0  0  0
   17.5148    1.7627    0.0000 H   0  0  0  0  0  0  0  0  0  0  0  0
   17.9133    1.0724    0.0000 H   0  0  0  0  0  0  0  0  0  0  0  0
   33.1769   -2.0350    0.0000 H   0  0  0  0  0  0  0  0  0  0  0  0
   17.2594    2.5350    0.0000 H   0  0  0  0  0  0  0  0  0  0  0  0
   15.8564    2.3450    0.0000 H   0  0  0  0  0  0  0  0  0  0  0  0
   14.9904    3.4650    0.0000 H   0  0  0  0  0  0  0  0  0  0  0  0
   27.9071   -2.2373    0.0000 H   0  0  0  0  0  0  0  0  0  0  0  0
   28.3056   -2.9276    0.0000 H   0  0  0  0  0  0  0  0  0  0  0  0
   15.5273    4.7750    0.0000 H   0  0  0  0  0  0  0  0  0  0  0  0
   16.9303    4.9650    0.0000 H   0  0  0  0  0  0  0  0  0  0  0  0
   20.1674    5.1919    0.0000 H   0  0  0  0  0  0  0  0  0  0  0  0
   19.3205    4.9650    0.0000 H   0  0  0  0  0  0  0  0  0  0  0  0
   19.5474    4.1181    0.0000 H   0  0  0  0  0  0  0  0  0  0  0  0
   33.5018   -0.7624    0.0000 H   0  0  0  0  0  0  0  0  0  0  0  0
   33.1033   -1.4527    0.0000 H   0  0  0  0  0  0  0  0  0  0  0  0
   29.7128   -5.6550    0.0000 H   0  0  0  0  0  0  0  0  0  0  0  0
   21.5895   -0.9650    0.0000 H   0  0  0  0  0  0  0  0  0  0  0  0
   17.5885   -0.0350    0.0000 H   0  0  0  0  0  0  0  0  0  0  0  0
   19.3205   -1.6550    0.0000 H   0  0  0  0  0  0  0  0  0  0  0  0
   32.5924   -0.4527    0.0000 H   0  0  0  0  0  0  0  0  0  0  0  0
   32.1939    0.2376    0.0000 H   0  0  0  0  0  0  0  0  0  0  0  0
   19.3205    2.9650    0.0000 H   0  0  0  0  0  0  0  0  0  0  0  0
   27.9808   -4.0350    0.0000 H   0  0  0  0  0  0  0  0  0  0  0  0
   23.3215    2.0350    0.0000 H   0  0  0  0  0  0  0  0  0  0  0  0
   34.2508   -5.6550    0.0000 H   0  0  0  0  0  0  0  0  0  0  0  0
   30.9818   -0.7250    0.0000 H   0  0  0  0  0  0  0  0  0  0  0  0
   30.3618   -1.3450    0.0000 H   0  0  0  0  0  0  0  0  0  0  0  0
   30.9818   -1.9650    0.0000 H   0  0  0  0  0  0  0  0  0  0  0  0
   35.9828   -4.0350    0.0000 H   0  0  0  0  0  0  0  0  0  0  0  0
   35.9828   -2.6550    0.0000 H   0  0  0  0  0  0  0  0  0  0  0  0
   17.0133    5.6550    0.0000 H   0  0  0  0  0  0  0  0  0  0  0  0
   16.3933    6.2750    0.0000 H   0  0  0  0  0  0  0  0  0  0  0  0
   15.7733    5.6550    0.0000 H   0  0  0  0  0  0  0  0  0  0  0  0
   33.2918   -1.8819    0.0000 H   0  0  0  0  0  0  0  0  0  0  0  0
   30.5052    0.2627    0.0000 H   0  0  0  0  0  0  0  0  0  0  0  0
   30.9037   -0.4276    0.0000 H   0  0  0  0  0  0  0  0  0  0  0  0
   23.7890    3.6800    0.0000 H   0  0  0  0  0  0  0  0  0  0  0  0
   24.5861    3.6800    0.0000 H   0  0  0  0  0  0  0  0  0  0  0  0
   14.1244    2.9650    0.0000 H   0  0  0  0  0  0  0  0  0  0  0  0
   27.9808   -1.0350    0.0000 H   0  0  0  0  0  0  0  0  0  0  0  0
   14.6613    5.2750    0.0000 H   0  0  0  0  0  0  0  0  0  0  0  0
   34.5799   -0.2250    0.0000 H   0  0  0  0  0  0  0  0  0  0  0  0
    3.7320   -4.6550    0.0000 H   0  0  0  0  0  0  0  0  0  0  0  0
    5.1350   -4.4650    0.0000 H   0  0  0  0  0  0  0  0  0  0  0  0
    3.4030   -4.4650    0.0000 H   0  0  0  0  0  0  0  0  0  0  0  0
   31.6527    1.4650    0.0000 H   0  0  0  0  0  0  0  0  0  0  0  0
    5.6720   -3.1550    0.0000 H   0  0  0  0  0  0  0  0  0  0  0  0
    3.4030   -2.2250    0.0000 H   0  0  0  0  0  0  0  0  0  0  0  0
   34.1018   -0.4790    0.0000 H   0  0  0  0  0  0  0  0  0  0  0  0
   33.1718    0.0580    0.0000 H   0  0  0  0  0  0  0  0  0  0  0  0
   25.9196    3.5350    0.0000 H   0  0  0  0  0  0  0  0  0  0  0  0
   25.6736    5.6550    0.0000 H   0  0  0  0  0  0  0  0  0  0  0  0
   25.0536    6.2750    0.0000 H   0  0  0  0  0  0  0  0  0  0  0  0
   24.4336    5.6550    0.0000 H   0  0  0  0  0  0  0  0  0  0  0  0
    1.9264   -2.2373    0.0000 H   0  0  0  0  0  0  0  0  0  0  0  0
    2.3249   -2.9276    0.0000 H   0  0  0  0  0  0  0  0  0  0  0  0
   30.8603    2.5473    0.0000 H   0  0  0  0  0  0  0  0  0  0  0  0
   30.4618    3.2376    0.0000 H   0  0  0  0  0  0  0  0  0  0  0  0
    7.3346   -3.8200    0.0000 H   0  0  0  0  0  0  0  0  0  0  0  0
    8.1316   -3.8200    0.0000 H   0  0  0  0  0  0  0  0  0  0  0  0
   27.1842    5.1300    0.0000 H   0  0  0  0  0  0  0  0  0  0  0  0
   26.3871    5.1300    0.0000 H   0  0  0  0  0  0  0  0  0  0  0  0
    3.7320   -5.6550    0.0000 H   0  0  0  0  0  0  0  0  0  0  0  0
    6.0010   -4.9650    0.0000 H   0  0  0  0  0  0  0  0  0  0  0  0
    2.0000   -4.0350    0.0000 H   0  0  0  0  0  0  0  0  0  0  0  0
    7.9040   -2.2890    0.0000 H   0  0  0  0  0  0  0  0  0  0  0  0
    7.6771   -1.4420    0.0000 H   0  0  0  0  0  0  0  0  0  0  0  0
    6.8301   -1.6690    0.0000 H   0  0  0  0  0  0  0  0  0  0  0  0
   29.0737    1.6919    0.0000 H   0  0  0  0  0  0  0  0  0  0  0  0
   28.8468    0.8450    0.0000 H   0  0  0  0  0  0  0  0  0  0  0  0
   29.6937    0.6181    0.0000 H   0  0  0  0  0  0  0  0  0  0  0  0
   28.7731    3.2627    0.0000 H   0  0  0  0  0  0  0  0  0  0  0  0
   29.1717    2.5724    0.0000 H   0  0  0  0  0  0  0  0  0  0  0  0
   27.2531    3.6800    0.0000 H   0  0  0  0  0  0  0  0  0  0  0  0
   28.0502    3.6800    0.0000 H   0  0  0  0  0  0  0  0  0  0  0  0
    8.9976   -2.3700    0.0000 H   0  0  0  0  0  0  0  0  0  0  0  0
    8.2006   -2.3700    0.0000 H   0  0  0  0  0  0  0  0  0  0  0  0
    5.7471   -3.7110    0.0000 H   0  0  0  0  0  0  0  0  0  0  0  0
   14.6613   -0.9650    0.0000 H   0  0  0  0  0  0  0  0  0  0  0  0
   16.0833   -0.8819    0.0000 H   0  0  0  0  0  0  0  0  0  0  0  0
   16.9303   -0.6550    0.0000 H   0  0  0  0  0  0  0  0  0  0  0  0
   16.7033    0.1919    0.0000 H   0  0  0  0  0  0  0  0  0  0  0  0
   29.9207    4.4650    0.0000 H   0  0  0  0  0  0  0  0  0  0  0  0
   14.3322    0.4650    0.0000 H   0  0  0  0  0  0  0  0  0  0  0  0
    2.0000   -1.0350    0.0000 H   0  0  0  0  0  0  0  0  0  0  0  0
    9.4651   -3.9650    0.0000 H   0  0  0  0  0  0  0  0  0  0  0  0
   12.5307   -0.8199    0.0000 H   0  0  0  0  0  0  0  0  0  0  0  0
   13.3278   -0.8199    0.0000 H   0  0  0  0  0  0  0  0  0  0  0  0
   29.1377    5.6550    0.0000 H   0  0  0  0  0  0  0  0  0  0  0  0
   28.5177    6.2750    0.0000 H   0  0  0  0  0  0  0  0  0  0  0  0
   27.8977    5.6550    0.0000 H   0  0  0  0  0  0  0  0  0  0  0  0
    6.5571   -5.1140    0.0000 H   0  0  0  0  0  0  0  0  0  0  0  0
    7.4871   -4.5770    0.0000 H   0  0  0  0  0  0  0  0  0  0  0  0
   10.1191   -1.2624    0.0000 H   0  0  0  0  0  0  0  0  0  0  0  0
    9.7206   -1.9527    0.0000 H   0  0  0  0  0  0  0  0  0  0  0  0
   11.4092   -1.9276    0.0000 H   0  0  0  0  0  0  0  0  0  0  0  0
   11.8078   -1.2373    0.0000 H   0  0  0  0  0  0  0  0  0  0  0  0
   13.2583    1.4650    0.0000 H   0  0  0  0  0  0  0  0  0  0  0  0
   10.6603   -0.0350    0.0000 H   0  0  0  0  0  0  0  0  0  0  0  0
   10.8872   -3.8819    0.0000 H   0  0  0  0  0  0  0  0  0  0  0  0
   11.7341   -3.6550    0.0000 H   0  0  0  0  0  0  0  0  0  0  0  0
   11.5072   -2.8081    0.0000 H   0  0  0  0  0  0  0  0  0  0  0  0
   12.6832    1.1550    0.0000 H   0  0  0  0  0  0  0  0  0  0  0  0
   12.0632    1.7750    0.0000 H   0  0  0  0  0  0  0  0  0  0  0  0
   11.4432    1.1550    0.0000 H   0  0  0  0  0  0  0  0  0  0  0  0
  1 35  1  0  0  0  0
  1 36  1  0  0  0  0
  2 36  1  0  0  0  0
  2 38  1  0  0  0  0
  3 34  1  0  0  0  0
  3 47  1  0  0  0  0
  4 43  1  0  0  0  0
  4 46  1  0  0  0  0
  5 48  1  0  0  0  0
  5 50  1  0  0  0  0
  6 47  1  0  0  0  0
  6 54  1  0  0  0  0
  7 43  1  0  0  0  0
  7 57  1  0  0  0  0
  8 53  1  0  0  0  0
  8 55  1  0  0  0  0
  9 37  1  0  0  0  0
  9144  1  0  0  0  0
 10 39  1  0  0  0  0
 10145  1  0  0  0  0
 11 40  1  0  0  0  0
 11146  1  0  0  0  0
 12 41  1  0  0  0  0
 12147  1  0  0  0  0
 13 42  1  0  0  0  0
 13150  1  0  0  0  0
 14 55  1  0  0  0  0
 14 61  1  0  0  0  0
 15 44  1  0  0  0  0
 15151  1  0  0  0  0
 16 45  1  0  0  0  0
 16152  1  0  0  0  0
 17 50  1  0  0  0  0
 17 69  1  0  0  0  0
 18 49  1  0  0  0  0
 18153  1  0  0  0  0
 19 51  1  0  0  0  0
 19157  1  0  0  0  0
 20 52  1  0  0  0  0
 20158  1  0  0  0  0
 21 56  1  0  0  0  0
 21 77  1  0  0  0  0
 22 58  1  0  0  0  0
 22167  1  0  0  0  0
 23 59  1  0  0  0  0
 23168  1  0  0  0  0
 24 60  1  0  0  0  0
 24169  1  0  0  0  0
 25 63  1  0  0  0  0
 25170  1  0  0  0  0
 26 75  1  0  0  0  0
 26 76  1  0  0  0  0
 27 75  1  0  0  0  0
 27 80  1  0  0  0  0
 28 71  1  0  0  0  0
 28191  1  0  0  0  0
 29 73  1  0  0  0  0
 29192  1  0  0  0  0
 30 74  1  0  0  0  0
 30193  1  0  0  0  0
 31 77  2  0  0  0  0
 32 83  1  0  0  0  0
 32213  1  0  0  0  0
 33 98  1  0  0  0  0
 33226  1  0  0  0  0
 34 37  1  0  0  0  0
 34 43  1  0  0  0  0
 34110  1  0  0  0  0
 35 42  1  0  0  0  0
 35 45  1  0  0  0  0
 35111  1  0  0  0  0
 36 39  1  0  0  0  0
 36112  1  0  0  0  0
 37 44  1  0  0  0  0
 37113  1  0  0  0  0
 38 40  1  0  0  0  0
 38 53  1  0  0  0  0
 38114  1  0  0  0  0
 39 41  1  0  0  0  0
 39115  1  0  0  0  0
 40 41  1  0  0  0  0
 40116  1  0  0  0  0
 41117  1  0  0  0  0
 42 48  1  0  0  0  0
 42118  1  0  0  0  0
 43119  1  0  0  0  0
 44 46  1  0  0  0  0
 44120  1  0  0  0  0
 45 50  1  0  0  0  0
 45121  1  0  0  0  0
 46 59  1  0  0  0  0
 46122  1  0  0  0  0
 47 49  1  0  0  0  0
 47123  1  0  0  0  0
 48 62  1  0  0  0  0
 48124  1  0  0  0  0
 49 51  1  0  0  0  0
 49125  1  0  0  0  0
 50126  1  0  0  0  0
 51 52  1  0  0  0  0
 51127  1  0  0  0  0
 52 54  1  0  0  0  0
 52128  1  0  0  0  0
 53129  1  0  0  0  0
 53130  1  0  0  0  0
 54 63  1  0  0  0  0
 54131  1  0  0  0  0
 55 56  1  0  0  0  0
 55132  1  0  0  0  0
 56 58  1  0  0  0  0
 56133  1  0  0  0  0
 57 64  1  0  0  0  0
 57 65  1  0  0  0  0
 57 67  1  0  0  0  0
 58 60  1  0  0  0  0
 58134  1  0  0  0  0
 59135  1  0  0  0  0
 59136  1  0  0  0  0
 60 61  1  0  0  0  0
 60137  1  0  0  0  0
 61 66  1  0  0  0  0
 61138  1  0  0  0  0
 62139  1  0  0  0  0
 62140  1  0  0  0  0
 62141  1  0  0  0  0
 63142  1  0  0  0  0
 63143  1  0  0  0  0
 64 68  1  0  0  0  0
 64148  1  0  0  0  0
 64149  1  0  0  0  0
 65154  1  0  0  0  0
 65155  1  0  0  0  0
 65156  1  0  0  0  0
 66159  1  0  0  0  0
 66160  1  0  0  0  0
 66161  1  0  0  0  0
 67 78  2  0  0  0  0
 67162  1  0  0  0  0
 68 72  1  0  0  0  0
 68163  1  0  0  0  0
 68164  1  0  0  0  0
 69 70  1  0  0  0  0
 69165  1  0  0  0  0
 69166  1  0  0  0  0
 70 81  2  0  0  0  0
 70 82  1  0  0  0  0
 71 73  1  0  0  0  0
 71 74  1  0  0  0  0
 71171  1  0  0  0  0
 72 79  2  0  0  0  0
 72174  1  0  0  0  0
 73 75  1  0  0  0  0
 73172  1  0  0  0  0
 74 76  1  0  0  0  0
 74173  1  0  0  0  0
 75175  1  0  0  0  0
 76 83  1  0  0  0  0
 76176  1  0  0  0  0
 77 84  1  0  0  0  0
 78177  1  0  0  0  0
 78178  1  0  0  0  0
 79 85  1  0  0  0  0
 79 89  1  0  0  0  0
 80 86  1  0  0  0  0
 80 88  1  0  0  0  0
 80 93  1  0  0  0  0
 81 87  1  0  0  0  0
 81179  1  0  0  0  0
 82180  1  0  0  0  0
 82181  1  0  0  0  0
 82182  1  0  0  0  0
 83183  1  0  0  0  0
 83184  1  0  0  0  0
 84 94  2  0  0  0  0
 84 95  1  0  0  0  0
 85 90  1  0  0  0  0
 85185  1  0  0  0  0
 85186  1  0  0  0  0
 86 92  1  0  0  0  0
 86187  1  0  0  0  0
 86188  1  0  0  0  0
 87 91  1  0  0  0  0
 87189  1  0  0  0  0
 87190  1  0  0  0  0
 88194  1  0  0  0  0
 88195  1  0  0  0  0
 88196  1  0  0  0  0
 89197  1  0  0  0  0
 89198  1  0  0  0  0
 89199  1  0  0  0  0
 90 97  1  0  0  0  0
 90200  1  0  0  0  0
 90201  1  0  0  0  0
 91 96  1  0  0  0  0
 91202  1  0  0  0  0
 91203  1  0  0  0  0
 92 99  1  0  0  0  0
 92204  1  0  0  0  0
 92205  1  0  0  0  0
 93102  2  0  0  0  0
 93206  1  0  0  0  0
 94 98  1  0  0  0  0
 94207  1  0  0  0  0
 95208  1  0  0  0  0
 95209  1  0  0  0  0
 95210  1  0  0  0  0
 96 97  2  0  0  0  0
 96101  1  0  0  0  0
 97211  1  0  0  0  0
 98100  1  0  0  0  0
 98212  1  0  0  0  0
 99103  2  0  0  0  0
 99214  1  0  0  0  0
100105  1  0  0  0  0
100215  1  0  0  0  0
100216  1  0  0  0  0
101217  1  0  0  0  0
101218  1  0  0  0  0
101219  1  0  0  0  0
102220  1  0  0  0  0
102221  1  0  0  0  0
103104  1  0  0  0  0
103108  1  0  0  0  0
104106  1  0  0  0  0
104222  1  0  0  0  0
104223  1  0  0  0  0
105107  2  0  0  0  0
105109  1  0  0  0  0
106107  1  0  0  0  0
106224  1  0  0  0  0
106225  1  0  0  0  0
107227  1  0  0  0  0
108228  1  0  0  0  0
108229  1  0  0  0  0
108230  1  0  0  0  0
109231  1  0  0  0  0
109232  1  0  0  0  0
109233  1  0  0  0  0
M  END
>  <PUBCHEM_COMPOUND_CID>
131751514

>  <PUBCHEM_COMPOUND_CANONICALIZED>
1

>  <PUBCHEM_CACTVS_COMPLEXITY>
3000

>  <PUBCHEM_CACTVS_HBOND_ACCEPTOR>
33

>  <PUBCHEM_CACTVS_HBOND_DONOR>
19

>  <PUBCHEM_CACTVS_ROTATABLE_BOND>
40

>  <PUBCHEM_CACTVS_SUBSKEYS>
AAADcfB8PgAAAAAAAAAAAAAAAAAAAAAAAAAkSJEiQAAAAAAAAAAAGgAACAAADFSwgAMCCAAABgCIAiDSCAAAAAAgAAAICAEAAEgRFAIAIQAiUAAFwAAPMYPAYAwMAAAAAAAAAAAAAAAAAAAAAAAAAAAAAA==

>  <PUBCHEM_IUPAC_OPENEYE_NAME>
[2-[[6-[2-[(2E,6Z,10E)-14-[4,5-dihydroxy-6-(hydroxymethyl)-3-[3,4,5-trihydroxy-6-(hydroxymethyl)tetrahydropyran-2-yl]oxy-tetrahydropyran-2-yl]oxy-2,6,10,14-tetramethyl-hexadeca-2,6,10,15-tetraenoxy]-3,5-dihydroxy-6-methyl-tetrahydropyran-4-yl]oxy-3,4,5-trihydroxy-tetrahydropyran-2-yl]methoxy]-4,5-dihydroxy-6-methyl-tetrahydropyran-3-yl] (2Z,6Z,10Z)-4-hydroxy-2,6,10,14-tetramethyl-14-[3,4,5-trihydroxy-6-(hydroxymethyl)tetrahydropyran-2-yl]oxy-hexadeca-2,6,10,15-tetraenoate

>  <PUBCHEM_IUPAC_CAS_NAME>
(2Z,6Z,10Z)-4-hydroxy-2,6,10,14-tetramethyl-14-[[3,4,5-trihydroxy-6-(hydroxymethyl)-2-oxanyl]oxy]hexadeca-2,6,10,15-tetraenoic acid [2-[[6-[[2-[(2E,6Z,10E)-14-[[4,5-dihydroxy-6-(hydroxymethyl)-3-[[3,4,5-trihydroxy-6-(hydroxymethyl)-2-oxanyl]oxy]-2-oxanyl]oxy]-2,6,10,14-tetramethylhexadeca-2,6,10,15-tetraenoxy]-3,5-dihydroxy-6-methyl-4-oxanyl]oxy]-3,4,5-trihydroxy-2-oxanyl]methoxy]-4,5-dihydroxy-6-methyl-3-oxanyl] ester

>  <PUBCHEM_IUPAC_NAME>
[2-[[6-[2-[(2E,6Z,10E)-14-[4,5-dihydroxy-6-(hydroxymethyl)-3-[3,4,5-trihydroxy-6-(hydroxymethyl)oxan-2-yl]oxyoxan-2-yl]oxy-2,6,10,14-tetramethylhexadeca-2,6,10,15-tetraenoxy]-3,5-dihydroxy-6-methyloxan-4-yl]oxy-3,4,5-trihydroxyoxan-2-yl]methoxy]-4,5-dihydroxy-6-methyloxan-3-yl] (2Z,6Z,10Z)-4-hydroxy-2,6,10,14-tetramethyl-14-[3,4,5-trihydroxy-6-(hydroxymethyl)oxan-2-yl]oxyhexadeca-2,6,10,15-tetraenoate

>  <PUBCHEM_IUPAC_SYSTEMATIC_NAME>
[2-[[6-[2-[(2E,6Z,10E)-14-[6-(hydroxymethyl)-3-[6-(hydroxymethyl)-3,4,5-tris(oxidanyl)oxan-2-yl]oxy-4,5-bis(oxidanyl)oxan-2-yl]oxy-2,6,10,14-tetramethyl-hexadeca-2,6,10,15-tetraenoxy]-6-methyl-3,5-bis(oxidanyl)oxan-4-yl]oxy-3,4,5-tris(oxidanyl)oxan-2-yl]methoxy]-6-methyl-4,5-bis(oxidanyl)oxan-3-yl] (2Z,6Z,10Z)-14-[6-(hydroxymethyl)-3,4,5-tris(oxidanyl)oxan-2-yl]oxy-2,6,10,14-tetramethyl-4-oxidanyl-hexadeca-2,6,10,15-tetraenoate

>  <PUBCHEM_IUPAC_TRADITIONAL_NAME>
(2Z,6Z,10Z)-4-hydroxy-2,6,10,14-tetramethyl-14-(3,4,5-trihydroxy-6-methylol-tetrahydropyran-2-yl)oxy-hexadeca-2,6,10,15-tetraenoic acid [2-[[6-[2-[(2E,6Z,10E)-14-[4,5-dihydroxy-6-methylol-3-(3,4,5-trihydroxy-6-methylol-tetrahydropyran-2-yl)oxy-tetrahydropyran-2-yl]oxy-2,6,10,14-tetramethyl-hexadeca-2,6,10,15-tetraenoxy]-3,5-dihydroxy-6-methyl-tetrahydropyran-4-yl]oxy-3,4,5-trihydroxy-tetrahydropyran-2-yl]methoxy]-4,5-dihydroxy-6-methyl-tetrahydropyran-3-yl] ester

>  <PUBCHEM_IUPAC_INCHI>
InChI=1S/C76H124O33/c1-13-75(11,108-72-63(94)57(88)53(84)47(33-78)102-72)28-18-26-39(5)22-16-24-40(6)30-45(80)31-42(8)68(96)105-66-59(90)50(81)43(9)100-73(66)98-36-49-55(86)58(89)62(93)71(104-49)106-65-51(82)44(10)99-69(64(65)95)97-35-41(7)25-17-23-37(3)20-15-21-38(4)27-19-29-76(12,14-2)109-74-67(60(91)54(85)48(34-79)103-74)107-70-61(92)56(87)52(83)46(32-77)101-70/h13-14,20,24-27,31,43-67,69-74,77-95H,1-2,15-19,21-23,28-30,32-36H2,3-12H3/b37-20-,38-27+,39-26-,40-24-,41-25+,42-31-

>  <PUBCHEM_IUPAC_INCHIKEY>
KUPGGXGLYVOMMG-UOSNZFRRSA-N

>  <PUBCHEM_EXACT_MASS>
1564.802

>  <PUBCHEM_MOLECULAR_FORMULA>
C76H124O33

>  <PUBCHEM_MOLECULAR_WEIGHT>
1565.795

>  <PUBCHEM_OPENEYE_CAN_SMILES>
CC1C(C(C(C(O1)OCC2C(C(C(C(O2)OC3C(C(OC(C3O)OCC(=CCCC(=CCCC(=CCCC(C)(C=C)OC4C(C(C(C(O4)CO)O)O)OC5C(C(C(C(O5)CO)O)O)O)C)C)C)C)O)O)O)O)OC(=O)C(=CC(CC(=CCCC(=CCCC(C)(C=C)OC6C(C(C(C(O6)CO)O)O)O)C)C)O)C)O)O

>  <PUBCHEM_OPENEYE_ISO_SMILES>
CC1C(C(C(C(O1)OCC2C(C(C(C(O2)OC3C(C(OC(C3O)OC/C(=C/CC/C(=C\CC/C(=C/CCC(C)(C=C)OC4C(C(C(C(O4)CO)O)O)OC5C(C(C(C(O5)CO)O)O)O)/C)/C)/C)C)O)O)O)O)OC(=O)/C(=C\C(C/C(=C\CC/C(=C\CCC(C)(C=C)OC6C(C(C(C(O6)CO)O)O)O)/C)/C)O)/C)O)O

>  <PUBCHEM_CACTVS_TPSA>
521

>  <PUBCHEM_MONOISOTOPIC_WEIGHT>
1564.802

>  <PUBCHEM_TOTAL_CHARGE>
0

>  <PUBCHEM_HEAVY_ATOM_COUNT>
109

>  <PUBCHEM_ATOM_DEF_STEREO_COUNT>
0

>  <PUBCHEM_ATOM_UDEF_STEREO_COUNT>
33

>  <PUBCHEM_BOND_DEF_STEREO_COUNT>
6

>  <PUBCHEM_BOND_UDEF_STEREO_COUNT>
0

>  <PUBCHEM_ISOTOPIC_ATOM_COUNT>
0

>  <PUBCHEM_COMPONENT_COUNT>
1

>  <PUBCHEM_CACTVS_TAUTO_COUNT>
1

>  <PUBCHEM_COORDINATE_TYPE>
1
5
255

>  <PUBCHEM_BONDANNOTATIONS>
35  1  3
36  1  3
39  10  3
40  11  3
41  12  3
42  13  3
44  15  3
45  16  3
50  17  3
49  18  3
51  19  3
52  20  3
56  21  3
58  22  3
60  24  3
75  27  3
71  28  3
73  29  3
34  3  3
47  3  3
74  30  3
98  33  3
38  53  3
46  59  3
48  62  3
54  63  3
57  65  3
61  66  3
43  7  3
76  83  3
55  8  3
80  88  3
37  9  3

$$$$
