131752547
 OpenBabel06101807152D

104103  0  0  0  0  0  0  0  0999 V2000
    8.0622    1.2500    0.0000 C   0  0  0  0  0  0  0  0  0  0  0  0
   20.1865    0.2500    0.0000 C   0  0  0  0  0  0  0  0  0  0  0  0
    7.1962    1.7500    0.0000 C   0  0  0  0  0  0  0  0  0  0  0  0
   21.0526   -0.2500    0.0000 C   0  0  0  0  0  0  0  0  0  0  0  0
    8.0622    0.2500    0.0000 C   0  0  0  0  0  0  0  0  0  0  0  0
   19.3205   -0.2500    0.0000 C   0  0  0  0  0  0  0  0  0  0  0  0
    9.7942    0.2500    0.0000 C   0  0  0  0  0  0  0  0  0  0  0  0
    6.3301    3.2500    0.0000 C   0  0  0  0  0  0  0  0  0  0  0  0
   17.5885   -0.2500    0.0000 C   0  0  0  0  0  0  0  0  0  0  0  0
   22.7846   -0.2500    0.0000 C   0  0  0  0  0  0  0  0  0  0  0  0
    5.4641    2.7500    0.0000 C   0  0  0  0  0  0  0  0  0  0  0  0
   22.7846   -1.2500    0.0000 C   0  0  0  0  0  0  0  0  0  0  0  0
    7.1962    2.7500    0.0000 C   0  0  0  0  0  0  0  0  0  0  0  0
   21.9186    0.2500    0.0000 C   0  0  0  0  0  0  0  0  0  0  0  0
    8.9282   -0.2500    0.0000 C   0  0  0  0  0  0  0  0  0  0  0  0
   18.4545    0.2500    0.0000 C   0  0  0  0  0  0  0  0  0  0  0  0
   10.6603   -0.2500    0.0000 C   0  0  0  0  0  0  0  0  0  0  0  0
   16.7224    0.2500    0.0000 C   0  0  0  0  0  0  0  0  0  0  0  0
    4.5981    3.2500    0.0000 C   0  0  0  0  0  0  0  0  0  0  0  0
   23.6506   -1.7500    0.0000 C   0  0  0  0  0  0  0  0  0  0  0  0
    7.1962   -0.2500    0.0000 C   0  0  0  0  0  0  0  0  0  0  0  0
   19.3205   -1.2500    0.0000 C   0  0  0  0  0  0  0  0  0  0  0  0
   11.5263    0.2500    0.0000 C   0  0  0  0  0  0  0  0  0  0  0  0
   15.8564   -0.2500    0.0000 C   0  0  0  0  0  0  0  0  0  0  0  0
    6.3301    4.2500    0.0000 C   0  0  0  0  0  0  0  0  0  0  0  0
   23.6506    0.2500    0.0000 C   0  0  0  0  0  0  0  0  0  0  0  0
    3.7320    2.7500    0.0000 C   0  0  0  0  0  0  0  0  0  0  0  0
   23.6506   -2.7500    0.0000 C   0  0  0  0  0  0  0  0  0  0  0  0
   12.3923   -0.2500    0.0000 C   0  0  0  0  0  0  0  0  0  0  0  0
   14.9904    0.2500    0.0000 C   0  0  0  0  0  0  0  0  0  0  0  0
   11.5263    1.2500    0.0000 C   0  0  0  0  0  0  0  0  0  0  0  0
   15.8564   -1.2500    0.0000 C   0  0  0  0  0  0  0  0  0  0  0  0
    2.8660    3.2500    0.0000 C   0  0  0  0  0  0  0  0  0  0  0  0
   24.5167   -3.2500    0.0000 C   0  0  0  0  0  0  0  0  0  0  0  0
   13.2583    0.2500    0.0000 C   0  0  0  0  0  0  0  0  0  0  0  0
   14.1244   -0.2500    0.0000 C   0  0  0  0  0  0  0  0  0  0  0  0
    2.0000    2.7500    0.0000 C   0  0  0  0  0  0  0  0  0  0  0  0
    2.8660    4.2500    0.0000 C   0  0  0  0  0  0  0  0  0  0  0  0
   24.5167   -4.2500    0.0000 C   0  0  0  0  0  0  0  0  0  0  0  0
   25.3827   -2.7500    0.0000 C   0  0  0  0  0  0  0  0  0  0  0  0
    8.6728    1.1423    0.0000 H   0  0  0  0  0  0  0  0  0  0  0  0
    8.2742    1.8326    0.0000 H   0  0  0  0  0  0  0  0  0  0  0  0
   20.5851    0.7249    0.0000 H   0  0  0  0  0  0  0  0  0  0  0  0
   19.7880    0.7249    0.0000 H   0  0  0  0  0  0  0  0  0  0  0  0
    6.5856    1.8577    0.0000 H   0  0  0  0  0  0  0  0  0  0  0  0
    6.9841    1.1674    0.0000 H   0  0  0  0  0  0  0  0  0  0  0  0
   20.6540   -0.7249    0.0000 H   0  0  0  0  0  0  0  0  0  0  0  0
   21.4511   -0.7249    0.0000 H   0  0  0  0  0  0  0  0  0  0  0  0
   10.1928    0.7249    0.0000 H   0  0  0  0  0  0  0  0  0  0  0  0
    9.3957    0.7249    0.0000 H   0  0  0  0  0  0  0  0  0  0  0  0
   17.1899   -0.7249    0.0000 H   0  0  0  0  0  0  0  0  0  0  0  0
   17.9870   -0.7249    0.0000 H   0  0  0  0  0  0  0  0  0  0  0  0
    5.0656    2.2750    0.0000 H   0  0  0  0  0  0  0  0  0  0  0  0
    5.8626    2.2750    0.0000 H   0  0  0  0  0  0  0  0  0  0  0  0
   22.1740   -1.1423    0.0000 H   0  0  0  0  0  0  0  0  0  0  0  0
   22.5726   -1.8326    0.0000 H   0  0  0  0  0  0  0  0  0  0  0  0
    7.7331    3.0600    0.0000 H   0  0  0  0  0  0  0  0  0  0  0  0
   21.9186    0.8700    0.0000 H   0  0  0  0  0  0  0  0  0  0  0  0
    8.9282   -0.8700    0.0000 H   0  0  0  0  0  0  0  0  0  0  0  0
   18.4545    0.8700    0.0000 H   0  0  0  0  0  0  0  0  0  0  0  0
   10.2617   -0.7249    0.0000 H   0  0  0  0  0  0  0  0  0  0  0  0
   11.0588   -0.7249    0.0000 H   0  0  0  0  0  0  0  0  0  0  0  0
   17.1210    0.7249    0.0000 H   0  0  0  0  0  0  0  0  0  0  0  0
   16.3239    0.7249    0.0000 H   0  0  0  0  0  0  0  0  0  0  0  0
    4.9966    3.7250    0.0000 H   0  0  0  0  0  0  0  0  0  0  0  0
    4.1996    3.7250    0.0000 H   0  0  0  0  0  0  0  0  0  0  0  0
   24.2612   -1.8577    0.0000 H   0  0  0  0  0  0  0  0  0  0  0  0
   23.8627   -1.1674    0.0000 H   0  0  0  0  0  0  0  0  0  0  0  0
    6.8862    0.2869    0.0000 H   0  0  0  0  0  0  0  0  0  0  0  0
    6.6592   -0.5600    0.0000 H   0  0  0  0  0  0  0  0  0  0  0  0
    7.5062   -0.7869    0.0000 H   0  0  0  0  0  0  0  0  0  0  0  0
   18.7005   -1.2500    0.0000 H   0  0  0  0  0  0  0  0  0  0  0  0
   19.3205   -1.8700    0.0000 H   0  0  0  0  0  0  0  0  0  0  0  0
   19.9405   -1.2500    0.0000 H   0  0  0  0  0  0  0  0  0  0  0  0
    6.9501    4.2500    0.0000 H   0  0  0  0  0  0  0  0  0  0  0  0
    6.3301    4.8700    0.0000 H   0  0  0  0  0  0  0  0  0  0  0  0
    5.7101    4.2500    0.0000 H   0  0  0  0  0  0  0  0  0  0  0  0
   23.9606   -0.2869    0.0000 H   0  0  0  0  0  0  0  0  0  0  0  0
   24.1876    0.5600    0.0000 H   0  0  0  0  0  0  0  0  0  0  0  0
   23.3406    0.7869    0.0000 H   0  0  0  0  0  0  0  0  0  0  0  0
    3.7320    2.1300    0.0000 H   0  0  0  0  0  0  0  0  0  0  0  0
   23.1137   -3.0600    0.0000 H   0  0  0  0  0  0  0  0  0  0  0  0
   12.3923   -0.8700    0.0000 H   0  0  0  0  0  0  0  0  0  0  0  0
   14.9904    0.8700    0.0000 H   0  0  0  0  0  0  0  0  0  0  0  0
   12.1463    1.2500    0.0000 H   0  0  0  0  0  0  0  0  0  0  0  0
   11.5263    1.8700    0.0000 H   0  0  0  0  0  0  0  0  0  0  0  0
   10.9063    1.2500    0.0000 H   0  0  0  0  0  0  0  0  0  0  0  0
   15.2364   -1.2500    0.0000 H   0  0  0  0  0  0  0  0  0  0  0  0
   15.8564   -1.8700    0.0000 H   0  0  0  0  0  0  0  0  0  0  0  0
   16.4764   -1.2500    0.0000 H   0  0  0  0  0  0  0  0  0  0  0  0
   13.2583    0.8700    0.0000 H   0  0  0  0  0  0  0  0  0  0  0  0
   14.1244   -0.8700    0.0000 H   0  0  0  0  0  0  0  0  0  0  0  0
    3.4860    4.2500    0.0000 H   0  0  0  0  0  0  0  0  0  0  0  0
    1.6900    3.2869    0.0000 H   0  0  0  0  0  0  0  0  0  0  0  0
    2.8660    4.8700    0.0000 H   0  0  0  0  0  0  0  0  0  0  0  0
    2.2460    4.2500    0.0000 H   0  0  0  0  0  0  0  0  0  0  0  0
    1.4631    2.4400    0.0000 H   0  0  0  0  0  0  0  0  0  0  0  0
    2.3100    2.2131    0.0000 H   0  0  0  0  0  0  0  0  0  0  0  0
   23.8967   -4.2500    0.0000 H   0  0  0  0  0  0  0  0  0  0  0  0
   24.5167   -4.8700    0.0000 H   0  0  0  0  0  0  0  0  0  0  0  0
   25.1367   -4.2500    0.0000 H   0  0  0  0  0  0  0  0  0  0  0  0
   25.6927   -3.2869    0.0000 H   0  0  0  0  0  0  0  0  0  0  0  0
   25.9196   -2.4400    0.0000 H   0  0  0  0  0  0  0  0  0  0  0  0
   25.0727   -2.2131    0.0000 H   0  0  0  0  0  0  0  0  0  0  0  0
  1  3  1  0  0  0  0
  1  5  1  0  0  0  0
  1 41  1  0  0  0  0
  1 42  1  0  0  0  0
  2  4  1  0  0  0  0
  2  6  1  0  0  0  0
  2 43  1  0  0  0  0
  2 44  1  0  0  0  0
  3 13  1  0  0  0  0
  3 45  1  0  0  0  0
  3 46  1  0  0  0  0
  4 14  1  0  0  0  0
  4 47  1  0  0  0  0
  4 48  1  0  0  0  0
  5 15  2  0  0  0  0
  5 21  1  0  0  0  0
  6 16  2  0  0  0  0
  6 22  1  0  0  0  0
  7 15  1  0  0  0  0
  7 17  1  0  0  0  0
  7 49  1  0  0  0  0
  7 50  1  0  0  0  0
  8 11  1  0  0  0  0
  8 13  2  0  0  0  0
  8 25  1  0  0  0  0
  9 16  1  0  0  0  0
  9 18  1  0  0  0  0
  9 51  1  0  0  0  0
  9 52  1  0  0  0  0
 10 12  1  0  0  0  0
 10 14  2  0  0  0  0
 10 26  1  0  0  0  0
 11 19  1  0  0  0  0
 11 53  1  0  0  0  0
 11 54  1  0  0  0  0
 12 20  1  0  0  0  0
 12 55  1  0  0  0  0
 12 56  1  0  0  0  0
 13 57  1  0  0  0  0
 14 58  1  0  0  0  0
 15 59  1  0  0  0  0
 16 60  1  0  0  0  0
 17 23  1  0  0  0  0
 17 61  1  0  0  0  0
 17 62  1  0  0  0  0
 18 24  1  0  0  0  0
 18 63  1  0  0  0  0
 18 64  1  0  0  0  0
 19 27  1  0  0  0  0
 19 65  1  0  0  0  0
 19 66  1  0  0  0  0
 20 28  1  0  0  0  0
 20 67  1  0  0  0  0
 20 68  1  0  0  0  0
 21 69  1  0  0  0  0
 21 70  1  0  0  0  0
 21 71  1  0  0  0  0
 22 72  1  0  0  0  0
 22 73  1  0  0  0  0
 22 74  1  0  0  0  0
 23 29  2  0  0  0  0
 23 31  1  0  0  0  0
 24 30  2  0  0  0  0
 24 32  1  0  0  0  0
 25 75  1  0  0  0  0
 25 76  1  0  0  0  0
 25 77  1  0  0  0  0
 26 78  1  0  0  0  0
 26 79  1  0  0  0  0
 26 80  1  0  0  0  0
 27 33  2  0  0  0  0
 27 81  1  0  0  0  0
 28 34  2  0  0  0  0
 28 82  1  0  0  0  0
 29 35  1  0  0  0  0
 29 83  1  0  0  0  0
 30 36  1  0  0  0  0
 30 84  1  0  0  0  0
 31 85  1  0  0  0  0
 31 86  1  0  0  0  0
 31 87  1  0  0  0  0
 32 88  1  0  0  0  0
 32 89  1  0  0  0  0
 32 90  1  0  0  0  0
 33 37  1  0  0  0  0
 33 38  1  0  0  0  0
 34 39  1  0  0  0  0
 34 40  1  0  0  0  0
 35 36  2  0  0  0  0
 35 91  1  0  0  0  0
 36 92  1  0  0  0  0
 37 94  1  0  0  0  0
 37 97  1  0  0  0  0
 37 98  1  0  0  0  0
 38 93  1  0  0  0  0
 38 95  1  0  0  0  0
 38 96  1  0  0  0  0
 39 99  1  0  0  0  0
 39100  1  0  0  0  0
 39101  1  0  0  0  0
 40102  1  0  0  0  0
 40103  1  0  0  0  0
 40104  1  0  0  0  0
M  END
>  <PUBCHEM_COMPOUND_CID>
131752547

>  <PUBCHEM_COMPOUND_CANONICALIZED>
1

>  <PUBCHEM_CACTVS_COMPLEXITY>
887

>  <PUBCHEM_CACTVS_HBOND_ACCEPTOR>
0

>  <PUBCHEM_CACTVS_HBOND_DONOR>
0

>  <PUBCHEM_CACTVS_ROTATABLE_BOND>
20

>  <PUBCHEM_CACTVS_SUBSKEYS>
AAADcfB8AAAAAAAAAAAAAAAAAAAAAAAAAAAAAAAAAAAAAAAAAAAAGAAAAAAADACAAAACAAAAAACAAiBCAAAAAAAgAAAICAAAAAgIAAIAAQAAAAAAgAAIgAIAAAAAAAAAAAAAAAAAAAAAAAAAAAAAAAAAAA==

>  <PUBCHEM_IUPAC_OPENEYE_NAME>
(6Z,10Z,14E,16E,18E,22E,26Z)-2,6,10,14,19,23,27,31-octamethyldotriaconta-2,6,10,14,16,18,22,26,30-nonaene

>  <PUBCHEM_IUPAC_CAS_NAME>
(6Z,10Z,14E,16E,18E,22E,26Z)-2,6,10,14,19,23,27,31-octamethyldotriaconta-2,6,10,14,16,18,22,26,30-nonaene

>  <PUBCHEM_IUPAC_NAME>
(6Z,10Z,14E,16E,18E,22E,26Z)-2,6,10,14,19,23,27,31-octamethyldotriaconta-2,6,10,14,16,18,22,26,30-nonaene

>  <PUBCHEM_IUPAC_SYSTEMATIC_NAME>
(6Z,10Z,14E,16E,18E,22E,26Z)-2,6,10,14,19,23,27,31-octamethyldotriaconta-2,6,10,14,16,18,22,26,30-nonaene

>  <PUBCHEM_IUPAC_TRADITIONAL_NAME>
(6Z,10Z,14E,16E,18E,22E,26Z)-2,6,10,14,19,23,27,31-octamethyldotriaconta-2,6,10,14,16,18,22,26,30-nonaene

>  <PUBCHEM_IUPAC_INCHI>
InChI=1S/C40H64/c1-33(2)19-13-23-37(7)27-17-31-39(9)29-15-25-35(5)21-11-12-22-36(6)26-16-30-40(10)32-18-28-38(8)24-14-20-34(3)4/h11-12,19-22,27-30H,13-18,23-26,31-32H2,1-10H3/b12-11+,35-21+,36-22+,37-27-,38-28-,39-29-,40-30+

>  <PUBCHEM_IUPAC_INCHIKEY>
YVLPJIGOMTXXLP-COJWMZADSA-N

>  <PUBCHEM_EXACT_MASS>
544.501

>  <PUBCHEM_MOLECULAR_FORMULA>
C40H64

>  <PUBCHEM_MOLECULAR_WEIGHT>
544.952

>  <PUBCHEM_OPENEYE_CAN_SMILES>
CC(=CCCC(=CCCC(=CCCC(=CC=CC=C(C)CCC=C(C)CCC=C(C)CCC=C(C)C)C)C)C)C

>  <PUBCHEM_OPENEYE_ISO_SMILES>
CC(=CCC/C(=C\CC/C(=C/CC/C(=C/C=C/C=C(\C)/CC/C=C(/C)\CC/C=C(/C)\CCC=C(C)C)/C)/C)/C)C

>  <PUBCHEM_CACTVS_TPSA>
0

>  <PUBCHEM_MONOISOTOPIC_WEIGHT>
544.501

>  <PUBCHEM_TOTAL_CHARGE>
0

>  <PUBCHEM_HEAVY_ATOM_COUNT>
40

>  <PUBCHEM_ATOM_DEF_STEREO_COUNT>
0

>  <PUBCHEM_ATOM_UDEF_STEREO_COUNT>
0

>  <PUBCHEM_BOND_DEF_STEREO_COUNT>
7

>  <PUBCHEM_BOND_UDEF_STEREO_COUNT>
0

>  <PUBCHEM_ISOTOPIC_ATOM_COUNT>
0

>  <PUBCHEM_COMPONENT_COUNT>
1

>  <PUBCHEM_CACTVS_TAUTO_COUNT>
14

>  <PUBCHEM_COORDINATE_TYPE>
1
5
255

$$$$
