131752416
 OpenBabel06101807152D

 42 43  0  0  1  0  0  0  0  0999 V2000
    6.4963   -2.5631    0.0000 O   0  0  0  0  0  0  0  0  0  0  0  0
    3.7061    0.3010    0.0000 O   0  0  0  0  0  0  0  0  0  0  0  0
    2.1077   -2.7028    0.0000 O   0  0  0  0  0  0  0  0  0  0  0  0
    8.3783    2.5157    0.0000 O   0  0  0  0  0  0  0  0  0  0  0  0
    7.3603    1.1144    0.0000 O   0  0  0  0  0  0  0  0  0  0  0  0
    5.3562   -1.0884    0.0000 C   0  0  3  0  0  0  0  0  0  0  0  0
    4.6196   -0.1058    0.0000 C   0  0  3  0  0  0  0  0  0  0  0  0
    5.0974   -2.0543    0.0000 C   0  0  3  0  0  0  0  0  0  0  0  0
    3.3230   -1.3995    0.0000 C   0  0  0  0  0  0  0  0  0  0  0  0
    3.8764   -2.9200    0.0000 C   0  0  0  0  0  0  0  0  0  0  0  0
    6.7552   -1.5972    0.0000 C   0  0  0  0  0  0  0  0  0  0  0  0
    3.0473   -2.3608    0.0000 C   0  0  3  0  0  0  0  0  0  0  0  0
    5.6150   -0.1224    0.0000 C   0  0  0  0  0  0  0  0  0  0  0  0
    4.8386   -3.0202    0.0000 C   0  0  0  0  0  0  0  0  0  0  0  0
    4.7242    0.8888    0.0000 C   0  0  0  0  0  0  0  0  0  0  0  0
    5.6377    1.2955    0.0000 C   0  0  0  0  0  0  0  0  0  0  0  0
    5.7422    2.2900    0.0000 C   0  0  0  0  0  0  0  0  0  0  0  0
    4.9332    2.8778    0.0000 C   0  0  0  0  0  0  0  0  0  0  0  0
    6.6558    2.6968    0.0000 C   0  0  0  0  0  0  0  0  0  0  0  0
    7.4648    2.1090    0.0000 C   0  0  0  0  0  0  0  0  0  0  0  0
    3.3179   -0.7795    0.0000 H   0  0  0  0  0  0  0  0  0  0  0  0
    2.7087   -1.3157    0.0000 H   0  0  0  0  0  0  0  0  0  0  0  0
    3.4706   -3.3887    0.0000 H   0  0  0  0  0  0  0  0  0  0  0  0
    4.2930   -3.3791    0.0000 H   0  0  0  0  0  0  0  0  0  0  0  0
    7.3491   -1.7750    0.0000 H   0  0  0  0  0  0  0  0  0  0  0  0
    6.9501   -1.0086    0.0000 H   0  0  0  0  0  0  0  0  0  0  0  0
    2.5939   -1.9379    0.0000 H   0  0  0  0  0  0  0  0  0  0  0  0
    6.2139   -0.2829    0.0000 H   0  0  0  0  0  0  0  0  0  0  0  0
    5.7755    0.4764    0.0000 H   0  0  0  0  0  0  0  0  0  0  0  0
    5.0162    0.0380    0.0000 H   0  0  0  0  0  0  0  0  0  0  0  0
    4.2397   -2.8598    0.0000 H   0  0  0  0  0  0  0  0  0  0  0  0
    4.6781   -3.6191    0.0000 H   0  0  0  0  0  0  0  0  0  0  0  0
    5.4375   -3.1807    0.0000 H   0  0  0  0  0  0  0  0  0  0  0  0
    4.2226    1.2532    0.0000 H   0  0  0  0  0  0  0  0  0  0  0  0
    3.2045   -0.0634    0.0000 H   0  0  0  0  0  0  0  0  0  0  0  0
    2.0000   -3.3134    0.0000 H   0  0  0  0  0  0  0  0  0  0  0  0
    6.1393    0.9311    0.0000 H   0  0  0  0  0  0  0  0  0  0  0  0
    5.2976    3.3794    0.0000 H   0  0  0  0  0  0  0  0  0  0  0  0
    4.4316    3.2422    0.0000 H   0  0  0  0  0  0  0  0  0  0  0  0
    4.5688    2.3762    0.0000 H   0  0  0  0  0  0  0  0  0  0  0  0
    6.7206    3.3134    0.0000 H   0  0  0  0  0  0  0  0  0  0  0  0
    8.8799    2.1513    0.0000 H   0  0  0  0  0  0  0  0  0  0  0  0
  1  8  1  0  0  0  0
  1 11  1  0  0  0  0
  2  7  1  0  0  0  0
  2 35  1  0  0  0  0
  3 12  1  0  0  0  0
  3 36  1  0  0  0  0
  4 20  1  0  0  0  0
  4 42  1  0  0  0  0
  5 20  2  0  0  0  0
  6  7  1  0  0  0  0
  6  9  1  0  0  0  0
  6 11  1  0  0  0  0
  6 13  1  0  0  0  0
  7  8  1  0  0  0  0
  7 15  1  0  0  0  0
  8 10  1  0  0  0  0
  8 14  1  0  0  0  0
  9 12  1  0  0  0  0
  9 21  1  0  0  0  0
  9 22  1  0  0  0  0
 10 12  1  0  0  0  0
 10 23  1  0  0  0  0
 10 24  1  0  0  0  0
 11 25  1  0  0  0  0
 11 26  1  0  0  0  0
 12 27  1  0  0  0  0
 13 28  1  0  0  0  0
 13 29  1  0  0  0  0
 13 30  1  0  0  0  0
 14 31  1  0  0  0  0
 14 32  1  0  0  0  0
 14 33  1  0  0  0  0
 15 16  2  0  0  0  0
 15 34  1  0  0  0  0
 16 17  1  0  0  0  0
 16 37  1  0  0  0  0
 17 18  1  0  0  0  0
 17 19  2  0  0  0  0
 18 38  1  0  0  0  0
 18 39  1  0  0  0  0
 18 40  1  0  0  0  0
 19 20  1  0  0  0  0
 19 41  1  0  0  0  0
M  END
>  <PUBCHEM_COMPOUND_CID>
131752416

>  <PUBCHEM_COMPOUND_CANONICALIZED>
1

>  <PUBCHEM_CACTVS_COMPLEXITY>
483

>  <PUBCHEM_CACTVS_HBOND_ACCEPTOR>
5

>  <PUBCHEM_CACTVS_HBOND_DONOR>
3

>  <PUBCHEM_CACTVS_ROTATABLE_BOND>
3

>  <PUBCHEM_CACTVS_SUBSKEYS>
AAADceBwOAAAAAAAAAAAAAAAAAAAASAAAAAwAAAABIAAAAAAAAAAGgAACAAADlSggAICCAAABgCIAiDSCAAAAAAgAAAICAAAAEgJFAIAAQACUAAFwAALkQPA4PwPgAAAAAAAAABCAAYQADCAAAAAAAAAAA==

>  <PUBCHEM_IUPAC_OPENEYE_NAME>
(2Z,4E)-5-(3,8-dihydroxy-1,5-dimethyl-6-oxabicyclo[3.2.1]octan-8-yl)-3-methyl-penta-2,4-dienoic acid

>  <PUBCHEM_IUPAC_CAS_NAME>
(2Z,4E)-5-(3,8-dihydroxy-1,5-dimethyl-6-oxabicyclo[3.2.1]octan-8-yl)-3-methylpenta-2,4-dienoic acid

>  <PUBCHEM_IUPAC_NAME>
(2Z,4E)-5-(3,8-dihydroxy-1,5-dimethyl-6-oxabicyclo[3.2.1]octan-8-yl)-3-methylpenta-2,4-dienoic acid

>  <PUBCHEM_IUPAC_SYSTEMATIC_NAME>
(2Z,4E)-5-[1,5-dimethyl-3,8-bis(oxidanyl)-6-oxabicyclo[3.2.1]octan-8-yl]-3-methyl-penta-2,4-dienoic acid

>  <PUBCHEM_IUPAC_TRADITIONAL_NAME>
(2Z,4E)-5-(3,8-dihydroxy-1,5-dimethyl-6-oxabicyclo[3.2.1]octan-8-yl)-3-methyl-penta-2,4-dienoic acid

>  <PUBCHEM_IUPAC_INCHI>
InChI=1S/C15H22O5/c1-10(6-12(17)18)4-5-15(19)13(2)7-11(16)8-14(15,3)20-9-13/h4-6,11,16,19H,7-9H2,1-3H3,(H,17,18)/b5-4+,10-6-

>  <PUBCHEM_IUPAC_INCHIKEY>
XIVFQYWMMJWUCD-IGTFLHFFSA-N

>  <PUBCHEM_EXACT_MASS>
282.147

>  <PUBCHEM_MOLECULAR_FORMULA>
C15H22O5

>  <PUBCHEM_MOLECULAR_WEIGHT>
282.336

>  <PUBCHEM_OPENEYE_CAN_SMILES>
CC(=CC(=O)O)C=CC1(C2(CC(CC1(OC2)C)O)C)O

>  <PUBCHEM_OPENEYE_ISO_SMILES>
C/C(=C/C(=O)O)/C=C/C1(C2(CC(CC1(OC2)C)O)C)O

>  <PUBCHEM_CACTVS_TPSA>
87

>  <PUBCHEM_MONOISOTOPIC_WEIGHT>
282.147

>  <PUBCHEM_TOTAL_CHARGE>
0

>  <PUBCHEM_HEAVY_ATOM_COUNT>
20

>  <PUBCHEM_ATOM_DEF_STEREO_COUNT>
0

>  <PUBCHEM_ATOM_UDEF_STEREO_COUNT>
4

>  <PUBCHEM_BOND_DEF_STEREO_COUNT>
2

>  <PUBCHEM_BOND_UDEF_STEREO_COUNT>
0

>  <PUBCHEM_ISOTOPIC_ATOM_COUNT>
0

>  <PUBCHEM_COMPONENT_COUNT>
1

>  <PUBCHEM_CACTVS_TAUTO_COUNT>
1

>  <PUBCHEM_COORDINATE_TYPE>
1
5
255

>  <PUBCHEM_BONDANNOTATIONS>
7  2  3
12  3  3
6  13  3
8  14  3

$$$$
