131751579
 OpenBabel06101807152D

160169  0  0  1  0  0  0  0  0999 V2000
    8.8260    0.2079    0.0000 O   0  0  0  0  0  0  0  0  0  0  0  0
    8.2887    0.3428    0.0000 O   0  0  0  0  0  0  0  0  0  0  0  0
    6.0217    2.7494    0.0000 O   0  0  0  0  0  0  0  0  0  0  0  0
   15.0426   -2.4126    0.0000 O   0  0  0  0  0  0  0  0  0  0  0  0
   14.1590    0.9044    0.0000 O   0  0  0  0  0  0  0  0  0  0  0  0
    5.4176    0.2821    0.0000 O   0  0  0  0  0  0  0  0  0  0  0  0
   15.9086   -0.9126    0.0000 O   0  0  0  0  0  0  0  0  0  0  0  0
    6.8761    4.2560    0.0000 O   0  0  0  0  0  0  0  0  0  0  0  0
   16.7746   -3.4126    0.0000 O   0  0  0  0  0  0  0  0  0  0  0  0
   18.5067   -2.4126    0.0000 O   0  0  0  0  0  0  0  0  0  0  0  0
   18.5067   -0.4126    0.0000 O   0  0  0  0  0  0  0  0  0  0  0  0
   15.0426   -3.4126    0.0000 O   0  0  0  0  0  0  0  0  0  0  0  0
   16.7746   -5.4126    0.0000 O   0  0  0  0  0  0  0  0  0  0  0  0
   17.6407    1.0874    0.0000 O   0  0  0  0  0  0  0  0  0  0  0  0
   15.0426   -6.4126    0.0000 O   0  0  0  0  0  0  0  0  0  0  0  0
   13.3105   -5.4126    0.0000 O   0  0  0  0  0  0  0  0  0  0  0  0
   20.2387    0.5874    0.0000 O   0  0  0  0  0  0  0  0  0  0  0  0
   20.2387    2.5874    0.0000 O   0  0  0  0  0  0  0  0  0  0  0  0
   12.4445   -3.9126    0.0000 O   0  0  0  0  0  0  0  0  0  0  0  0
   18.5067    3.5874    0.0000 O   0  0  0  0  0  0  0  0  0  0  0  0
   16.7746    3.5874    0.0000 O   0  0  0  0  0  0  0  0  0  0  0  0
    2.5345    5.7226    0.0000 N   0  0  0  0  0  0  0  0  0  0  0  0
    9.6906    0.7112    0.0000 C   0  0  3  0  0  0  0  0  0  0  0  0
   10.5547    1.2145    0.0000 C   0  0  3  0  0  0  0  0  0  0  0  0
   11.4226    0.7179    0.0000 C   0  0  3  0  0  0  0  0  0  0  0  0
    9.6944   -0.2888    0.0000 C   0  0  3  0  0  0  0  0  0  0  0  0
   11.4265   -0.2821    0.0000 C   0  0  3  0  0  0  0  0  0  0  0  0
    8.7786    1.2145    0.0000 C   0  0  3  0  0  0  0  0  0  0  0  0
   10.5624   -0.7855    0.0000 C   0  0  0  0  0  0  0  0  0  0  0  0
    8.7666    2.2561    0.0000 C   0  0  3  0  0  0  0  0  0  0  0  0
   12.3225   -0.8133    0.0000 C   0  0  3  0  0  0  0  0  0  0  0  0
   10.5667    2.2561    0.0000 C   0  0  0  0  0  0  0  0  0  0  0  0
   12.3145    1.2560    0.0000 C   0  0  0  0  0  0  0  0  0  0  0  0
   13.2265   -0.2960    0.0000 C   0  0  3  0  0  0  0  0  0  0  0  0
    9.6666    2.7804    0.0000 C   0  0  0  0  0  0  0  0  0  0  0  0
    7.8540    0.6469    0.0000 C   0  0  0  0  0  0  0  0  0  0  0  0
   11.1945    1.9830    0.0000 C   0  0  0  0  0  0  0  0  0  0  0  0
   13.2225    0.7456    0.0000 C   0  0  0  0  0  0  0  0  0  0  0  0
   11.7610    1.6589    0.0000 C   0  0  0  0  0  0  0  0  0  0  0  0
    7.8290    2.8022    0.0000 C   0  0  0  0  0  0  0  0  0  0  0  0
   12.3016   -1.8981    0.0000 C   0  0  0  0  0  0  0  0  0  0  0  0
   14.1724   -0.8276    0.0000 C   0  0  3  0  0  0  0  0  0  0  0  0
    6.9041    1.1712    0.0000 C   0  0  3  0  0  0  0  0  0  0  0  0
    6.8915    2.2561    0.0000 C   0  0  3  0  0  0  0  0  0  0  0  0
    8.7550    3.2560    0.0000 C   0  0  0  0  0  0  0  0  0  0  0  0
   11.4545   -1.3100    0.0000 C   0  0  0  0  0  0  0  0  0  0  0  0
   14.1766   -1.9126    0.0000 C   0  0  3  0  0  0  0  0  0  0  0  0
   13.2348   -2.4514    0.0000 C   0  0  0  0  0  0  0  0  0  0  0  0
   14.6657    0.0423    0.0000 C   0  0  0  0  0  0  0  0  0  0  0  0
   15.1724   -0.8199    0.0000 C   0  0  0  0  0  0  0  0  0  0  0  0
    6.4175    0.2975    0.0000 C   0  0  0  0  0  0  0  0  0  0  0  0
    5.9042    1.1558    0.0000 C   0  0  0  0  0  0  0  0  0  0  0  0
   15.9086   -1.9126    0.0000 C   0  0  3  0  0  0  0  0  0  0  0  0
    6.0140    3.7494    0.0000 C   0  0  0  0  0  0  0  0  0  0  0  0
   16.7746   -2.4126    0.0000 C   0  0  3  0  0  0  0  0  0  0  0  0
    5.1441    4.2427    0.0000 C   0  0  0  0  0  0  0  0  0  0  0  0
   17.6407   -1.9126    0.0000 C   0  0  3  0  0  0  0  0  0  0  0  0
   16.7746   -0.4126    0.0000 C   0  0  0  0  0  0  0  0  0  0  0  0
   17.6407   -0.9126    0.0000 C   0  0  3  0  0  0  0  0  0  0  0  0
    4.2820    3.7360    0.0000 C   0  0  0  0  0  0  0  0  0  0  0  0
    5.1364    5.2426    0.0000 C   0  0  0  0  0  0  0  0  0  0  0  0
   15.9086   -3.9126    0.0000 C   0  0  3  0  0  0  0  0  0  0  0  0
    3.4121    4.2293    0.0000 C   0  0  0  0  0  0  0  0  0  0  0  0
    4.2665    5.7360    0.0000 C   0  0  0  0  0  0  0  0  0  0  0  0
   15.9086   -4.9126    0.0000 C   0  0  3  0  0  0  0  0  0  0  0  0
    3.4044    5.2293    0.0000 C   0  0  0  0  0  0  0  0  0  0  0  0
   18.5067    0.5874    0.0000 C   0  0  3  0  0  0  0  0  0  0  0  0
   15.0426   -5.4126    0.0000 C   0  0  3  0  0  0  0  0  0  0  0  0
   14.1766   -3.9126    0.0000 C   0  0  3  0  0  0  0  0  0  0  0  0
   14.1766   -4.9126    0.0000 C   0  0  3  0  0  0  0  0  0  0  0  0
   19.3727    1.0874    0.0000 C   0  0  3  0  0  0  0  0  0  0  0  0
   19.3727    2.0874    0.0000 C   0  0  3  0  0  0  0  0  0  0  0  0
   13.3105   -3.4126    0.0000 C   0  0  0  0  0  0  0  0  0  0  0  0
   17.6407    2.0874    0.0000 C   0  0  3  0  0  0  0  0  0  0  0  0
   18.5067    2.5874    0.0000 C   0  0  3  0  0  0  0  0  0  0  0  0
    2.5268    6.7226    0.0000 C   0  0  0  0  0  0  0  0  0  0  0  0
   16.7746    2.5874    0.0000 C   0  0  0  0  0  0  0  0  0  0  0  0
    9.3866   -0.8270    0.0000 H   0  0  0  0  0  0  0  0  0  0  0  0
   11.9646    0.0258    0.0000 H   0  0  0  0  0  0  0  0  0  0  0  0
   10.1657   -1.2619    0.0000 H   0  0  0  0  0  0  0  0  0  0  0  0
   10.9627   -1.2589    0.0000 H   0  0  0  0  0  0  0  0  0  0  0  0
   11.1763    2.1429    0.0000 H   0  0  0  0  0  0  0  0  0  0  0  0
   10.7825    2.8373    0.0000 H   0  0  0  0  0  0  0  0  0  0  0  0
   12.7063    1.7365    0.0000 H   0  0  0  0  0  0  0  0  0  0  0  0
   11.9081    1.7242    0.0000 H   0  0  0  0  0  0  0  0  0  0  0  0
   13.7611    0.0181    0.0000 H   0  0  0  0  0  0  0  0  0  0  0  0
   10.0658    3.2548    0.0000 H   0  0  0  0  0  0  0  0  0  0  0  0
    9.2675    3.2548    0.0000 H   0  0  0  0  0  0  0  0  0  0  0  0
    7.4659    0.1633    0.0000 H   0  0  0  0  0  0  0  0  0  0  0  0
    8.2640    0.1818    0.0000 H   0  0  0  0  0  0  0  0  0  0  0  0
   11.6710    1.5864    0.0000 H   0  0  0  0  0  0  0  0  0  0  0  0
   11.5912    2.4595    0.0000 H   0  0  0  0  0  0  0  0  0  0  0  0
   10.7180    2.3797    0.0000 H   0  0  0  0  0  0  0  0  0  0  0  0
   13.8338    0.6419    0.0000 H   0  0  0  0  0  0  0  0  0  0  0  0
   13.4293    1.3301    0.0000 H   0  0  0  0  0  0  0  0  0  0  0  0
   12.3444    1.4491    0.0000 H   0  0  0  0  0  0  0  0  0  0  0  0
   11.9708    2.2423    0.0000 H   0  0  0  0  0  0  0  0  0  0  0  0
   11.1776    1.8687    0.0000 H   0  0  0  0  0  0  0  0  0  0  0  0
    8.2282    3.2766    0.0000 H   0  0  0  0  0  0  0  0  0  0  0  0
    7.4299    3.2766    0.0000 H   0  0  0  0  0  0  0  0  0  0  0  0
   11.6929   -1.7803    0.0000 H   0  0  0  0  0  0  0  0  0  0  0  0
   12.0813   -2.4777    0.0000 H   0  0  0  0  0  0  0  0  0  0  0  0
    6.3576    1.9409    0.0000 H   0  0  0  0  0  0  0  0  0  0  0  0
    9.3750    3.2632    0.0000 H   0  0  0  0  0  0  0  0  0  0  0  0
    8.7478    3.8760    0.0000 H   0  0  0  0  0  0  0  0  0  0  0  0
    8.1351    3.2489    0.0000 H   0  0  0  0  0  0  0  0  0  0  0  0
   11.1466   -0.7719    0.0000 H   0  0  0  0  0  0  0  0  0  0  0  0
   10.9164   -1.6179    0.0000 H   0  0  0  0  0  0  0  0  0  0  0  0
   11.7624   -1.8481    0.0000 H   0  0  0  0  0  0  0  0  0  0  0  0
    8.2960   -0.2772    0.0000 H   0  0  0  0  0  0  0  0  0  0  0  0
   14.1754   -2.5326    0.0000 H   0  0  0  0  0  0  0  0  0  0  0  0
   12.8321   -2.9228    0.0000 H   0  0  0  0  0  0  0  0  0  0  0  0
   13.6303   -2.9290    0.0000 H   0  0  0  0  0  0  0  0  0  0  0  0
   15.1437   -0.3526    0.0000 H   0  0  0  0  0  0  0  0  0  0  0  0
   15.1376    0.4444    0.0000 H   0  0  0  0  0  0  0  0  0  0  0  0
   15.1771   -1.4399    0.0000 H   0  0  0  0  0  0  0  0  0  0  0  0
   15.7923   -0.8151    0.0000 H   0  0  0  0  0  0  0  0  0  0  0  0
   15.1676   -0.1999    0.0000 H   0  0  0  0  0  0  0  0  0  0  0  0
    5.8758    0.5992    0.0000 H   0  0  0  0  0  0  0  0  0  0  0  0
    6.1158   -0.2441    0.0000 H   0  0  0  0  0  0  0  0  0  0  0  0
    6.9591   -0.0041    0.0000 H   0  0  0  0  0  0  0  0  0  0  0  0
    5.5859    1.6878    0.0000 H   0  0  0  0  0  0  0  0  0  0  0  0
   14.4649    1.4437    0.0000 H   0  0  0  0  0  0  0  0  0  0  0  0
   15.3717   -1.6026    0.0000 H   0  0  0  0  0  0  0  0  0  0  0  0
   17.3116   -2.7226    0.0000 H   0  0  0  0  0  0  0  0  0  0  0  0
   18.1776   -1.6026    0.0000 H   0  0  0  0  0  0  0  0  0  0  0  0
   17.1732    0.0624    0.0000 H   0  0  0  0  0  0  0  0  0  0  0  0
   16.3761    0.0624    0.0000 H   0  0  0  0  0  0  0  0  0  0  0  0
   17.6407   -0.2926    0.0000 H   0  0  0  0  0  0  0  0  0  0  0  0
    4.2867    3.1160    0.0000 H   0  0  0  0  0  0  0  0  0  0  0  0
    5.6709    5.5568    0.0000 H   0  0  0  0  0  0  0  0  0  0  0  0
   15.9086   -3.2926    0.0000 H   0  0  0  0  0  0  0  0  0  0  0  0
   19.0436   -2.1026    0.0000 H   0  0  0  0  0  0  0  0  0  0  0  0
    2.8776    3.9152    0.0000 H   0  0  0  0  0  0  0  0  0  0  0  0
    4.2618    6.3559    0.0000 H   0  0  0  0  0  0  0  0  0  0  0  0
   15.9086   -5.5326    0.0000 H   0  0  0  0  0  0  0  0  0  0  0  0
   19.0436    0.2774    0.0000 H   0  0  0  0  0  0  0  0  0  0  0  0
   14.5057   -5.7226    0.0000 H   0  0  0  0  0  0  0  0  0  0  0  0
   14.1766   -3.2926    0.0000 H   0  0  0  0  0  0  0  0  0  0  0  0
   13.6396   -4.6026    0.0000 H   0  0  0  0  0  0  0  0  0  0  0  0
   19.9097    1.3974    0.0000 H   0  0  0  0  0  0  0  0  0  0  0  0
    2.0000    5.4085    0.0000 H   0  0  0  0  0  0  0  0  0  0  0  0
   17.3116   -5.1026    0.0000 H   0  0  0  0  0  0  0  0  0  0  0  0
   19.9097    1.7774    0.0000 H   0  0  0  0  0  0  0  0  0  0  0  0
   13.7091   -2.9376    0.0000 H   0  0  0  0  0  0  0  0  0  0  0  0
   12.9120   -2.9376    0.0000 H   0  0  0  0  0  0  0  0  0  0  0  0
   17.1037    1.7774    0.0000 H   0  0  0  0  0  0  0  0  0  0  0  0
   19.0436    2.8974    0.0000 H   0  0  0  0  0  0  0  0  0  0  0  0
   15.5795   -6.7226    0.0000 H   0  0  0  0  0  0  0  0  0  0  0  0
    3.1468    6.7274    0.0000 H   0  0  0  0  0  0  0  0  0  0  0  0
    2.5220    7.3426    0.0000 H   0  0  0  0  0  0  0  0  0  0  0  0
    1.9068    6.7178    0.0000 H   0  0  0  0  0  0  0  0  0  0  0  0
   13.3105   -6.0326    0.0000 H   0  0  0  0  0  0  0  0  0  0  0  0
   20.7757    0.8974    0.0000 H   0  0  0  0  0  0  0  0  0  0  0  0
   16.1641    2.6951    0.0000 H   0  0  0  0  0  0  0  0  0  0  0  0
   16.5626    2.0048    0.0000 H   0  0  0  0  0  0  0  0  0  0  0  0
   20.2387    3.2074    0.0000 H   0  0  0  0  0  0  0  0  0  0  0  0
   11.9076   -3.6026    0.0000 H   0  0  0  0  0  0  0  0  0  0  0  0
   19.0436    3.8974    0.0000 H   0  0  0  0  0  0  0  0  0  0  0  0
   16.2377    3.8974    0.0000 H   0  0  0  0  0  0  0  0  0  0  0  0
  1 23  1  0  0  0  0
  1 26  1  0  0  0  0
  2 28  1  0  0  0  0
  2110  1  0  0  0  0
  3 44  1  0  0  0  0
  3 54  1  0  0  0  0
  4 47  1  0  0  0  0
  4 53  1  0  0  0  0
  5 49  1  0  0  0  0
  5123  1  0  0  0  0
  6 52  2  0  0  0  0
  7 53  1  0  0  0  0
  7 58  1  0  0  0  0
  8 54  2  0  0  0  0
  9 55  1  0  0  0  0
  9 62  1  0  0  0  0
 10 57  1  0  0  0  0
 10133  1  0  0  0  0
 11 59  1  0  0  0  0
 11 67  1  0  0  0  0
 12 62  1  0  0  0  0
 12 69  1  0  0  0  0
 13 65  1  0  0  0  0
 13143  1  0  0  0  0
 14 67  1  0  0  0  0
 14 74  1  0  0  0  0
 15 68  1  0  0  0  0
 15149  1  0  0  0  0
 16 70  1  0  0  0  0
 16153  1  0  0  0  0
 17 71  1  0  0  0  0
 17154  1  0  0  0  0
 18 72  1  0  0  0  0
 18157  1  0  0  0  0
 19 73  1  0  0  0  0
 19158  1  0  0  0  0
 20 75  1  0  0  0  0
 20159  1  0  0  0  0
 21 77  1  0  0  0  0
 21160  1  0  0  0  0
 22 66  1  0  0  0  0
 22 76  1  0  0  0  0
 22142  1  0  0  0  0
 23 24  1  0  0  0  0
 23 26  1  0  0  0  0
 23 28  1  0  0  0  0
 24 25  1  0  0  0  0
 24 32  1  0  0  0  0
 24 37  1  0  0  0  0
 25 27  1  0  0  0  0
 25 33  1  0  0  0  0
 25 39  1  0  0  0  0
 26 29  1  0  0  0  0
 26 78  1  0  0  0  0
 27 29  1  0  0  0  0
 27 31  1  0  0  0  0
 27 79  1  0  0  0  0
 28 30  1  0  0  0  0
 28 36  1  0  0  0  0
 29 80  1  0  0  0  0
 29 81  1  0  0  0  0
 30 35  1  0  0  0  0
 30 40  1  0  0  0  0
 30 45  1  0  0  0  0
 31 34  1  0  0  0  0
 31 41  1  0  0  0  0
 31 46  1  0  0  0  0
 32 35  1  0  0  0  0
 32 82  1  0  0  0  0
 32 83  1  0  0  0  0
 33 38  1  0  0  0  0
 33 84  1  0  0  0  0
 33 85  1  0  0  0  0
 34 38  1  0  0  0  0
 34 42  1  0  0  0  0
 34 86  1  0  0  0  0
 35 87  1  0  0  0  0
 35 88  1  0  0  0  0
 36 43  1  0  0  0  0
 36 89  1  0  0  0  0
 36 90  1  0  0  0  0
 37 91  1  0  0  0  0
 37 92  1  0  0  0  0
 37 93  1  0  0  0  0
 38 94  1  0  0  0  0
 38 95  1  0  0  0  0
 39 96  1  0  0  0  0
 39 97  1  0  0  0  0
 39 98  1  0  0  0  0
 40 44  1  0  0  0  0
 40 99  1  0  0  0  0
 40100  1  0  0  0  0
 41 48  1  0  0  0  0
 41101  1  0  0  0  0
 41102  1  0  0  0  0
 42 47  1  0  0  0  0
 42 49  1  0  0  0  0
 42 50  1  0  0  0  0
 43 44  1  0  0  0  0
 43 51  1  0  0  0  0
 43 52  1  0  0  0  0
 44103  1  0  0  0  0
 45104  1  0  0  0  0
 45105  1  0  0  0  0
 45106  1  0  0  0  0
 46107  1  0  0  0  0
 46108  1  0  0  0  0
 46109  1  0  0  0  0
 47 48  1  0  0  0  0
 47111  1  0  0  0  0
 48112  1  0  0  0  0
 48113  1  0  0  0  0
 49114  1  0  0  0  0
 49115  1  0  0  0  0
 50116  1  0  0  0  0
 50117  1  0  0  0  0
 50118  1  0  0  0  0
 51119  1  0  0  0  0
 51120  1  0  0  0  0
 51121  1  0  0  0  0
 52122  1  0  0  0  0
 53 55  1  0  0  0  0
 53124  1  0  0  0  0
 54 56  1  0  0  0  0
 55 57  1  0  0  0  0
 55125  1  0  0  0  0
 56 60  2  0  0  0  0
 56 61  1  0  0  0  0
 57 59  1  0  0  0  0
 57126  1  0  0  0  0
 58 59  1  0  0  0  0
 58127  1  0  0  0  0
 58128  1  0  0  0  0
 59129  1  0  0  0  0
 60 63  1  0  0  0  0
 60130  1  0  0  0  0
 61 64  2  0  0  0  0
 61131  1  0  0  0  0
 62 65  1  0  0  0  0
 62132  1  0  0  0  0
 63 66  2  0  0  0  0
 63134  1  0  0  0  0
 64 66  1  0  0  0  0
 64135  1  0  0  0  0
 65 68  1  0  0  0  0
 65136  1  0  0  0  0
 67 71  1  0  0  0  0
 67137  1  0  0  0  0
 68 70  1  0  0  0  0
 68138  1  0  0  0  0
 69 70  1  0  0  0  0
 69 73  1  0  0  0  0
 69139  1  0  0  0  0
 70140  1  0  0  0  0
 71 72  1  0  0  0  0
 71141  1  0  0  0  0
 72 75  1  0  0  0  0
 72144  1  0  0  0  0
 73145  1  0  0  0  0
 73146  1  0  0  0  0
 74 75  1  0  0  0  0
 74 77  1  0  0  0  0
 74147  1  0  0  0  0
 75148  1  0  0  0  0
 76150  1  0  0  0  0
 76151  1  0  0  0  0
 76152  1  0  0  0  0
 77155  1  0  0  0  0
 77156  1  0  0  0  0
M  END
>  <PUBCHEM_COMPOUND_CID>
131751579

>  <PUBCHEM_COMPOUND_CANONICALIZED>
1

>  <PUBCHEM_CACTVS_COMPLEXITY>
2160

>  <PUBCHEM_CACTVS_HBOND_ACCEPTOR>
22

>  <PUBCHEM_CACTVS_HBOND_DONOR>
12

>  <PUBCHEM_CACTVS_ROTATABLE_BOND>
14

>  <PUBCHEM_CACTVS_SUBSKEYS>
AAADcfB+PgAAAAAAAAAAAAAAEgAAAAAAAAA0aNGDBIAAAADBAAAAHgAQCAAAD1yxmAcyyILABgCIAizSyACCAAAlAgAIiIEIbMgZNjbAtZmmcQhl8AFP6Yfa/f/fiAAAAAAAAADSAAYAADCAAAAAAAAAAA==

>  <PUBCHEM_IUPAC_INCHI>
InChI=1S/C55H83NO21/c1-48(24-59)23-54(69)49(2,19-35(48)74-44(68)26-8-10-27(56-7)11-9-26)16-17-53(6)52(5)15-12-31-50(3,32(52)18-34-55(53,54)77-34)14-13-33(51(31,4)25-60)75-47-43(76-46-42(67)40(65)37(62)29(21-58)72-46)38(63)30(22-70-47)73-45-41(66)39(64)36(61)28(20-57)71-45/h8-11,24,28-43,45-47,56-58,60-67,69H,12-23,25H2,1-7H3

>  <PUBCHEM_IUPAC_INCHIKEY>
CEZSTVGNCDXFGA-UHFFFAOYSA-N

>  <PUBCHEM_EXACT_MASS>
1093.546

>  <PUBCHEM_MOLECULAR_FORMULA>
C55H83NO21

>  <PUBCHEM_MOLECULAR_WEIGHT>
1094.255

>  <PUBCHEM_OPENEYE_CAN_SMILES>
CC12CCC3(C4(CCC5C(C4CC6C3(C1(CC(C(C2)OC(=O)C7=CC=C(C=C7)NC)(C)C=O)O)O6)(CCC(C5(C)CO)OC8C(C(C(CO8)OC9C(C(C(C(O9)CO)O)O)O)O)OC1C(C(C(C(O1)CO)O)O)O)C)C)C

>  <PUBCHEM_OPENEYE_ISO_SMILES>
CC12CCC3(C4(CCC5C(C4CC6C3(C1(CC(C(C2)OC(=O)C7=CC=C(C=C7)NC)(C)C=O)O)O6)(CCC(C5(C)CO)OC8C(C(C(CO8)OC9C(C(C(C(O9)CO)O)O)O)O)OC1C(C(C(C(O1)CO)O)O)O)C)C)C

>  <PUBCHEM_CACTVS_TPSA>
346

>  <PUBCHEM_MONOISOTOPIC_WEIGHT>
1093.546

>  <PUBCHEM_TOTAL_CHARGE>
0

>  <PUBCHEM_HEAVY_ATOM_COUNT>
77

>  <PUBCHEM_ATOM_DEF_STEREO_COUNT>
0

>  <PUBCHEM_ATOM_UDEF_STEREO_COUNT>
27

>  <PUBCHEM_BOND_DEF_STEREO_COUNT>
0

>  <PUBCHEM_BOND_UDEF_STEREO_COUNT>
0

>  <PUBCHEM_ISOTOPIC_ATOM_COUNT>
0

>  <PUBCHEM_COMPONENT_COUNT>
1

>  <PUBCHEM_CACTVS_TAUTO_COUNT>
4

>  <PUBCHEM_COORDINATE_TYPE>
1
5
255

>  <PUBCHEM_BONDANNOTATIONS>
23  1  3
57  10  3
59  11  3
67  11  3
65  13  3
68  15  3
70  16  3
71  17  3
72  18  3
28  2  3
75  20  3
24  37  3
25  39  3
26  29  3
27  29  3
44  3  3
30  45  3
31  46  3
34  38  3
47  4  3
53  4  3
42  50  3
43  51  3
56  60  8
56  61  8
60  63  8
61  64  8
63  66  8
64  66  8
69  73  3
74  77  3
55  9  3
62  9  3

$$$$
