131752101
 OpenBabel06101807152D

 54 57  0  0  1  0  0  0  0  0999 V2000
    5.8934    3.5692    0.0000 O   0  0  0  0  0  0  0  0  0  0  0  0
    4.2370    3.4952    0.0000 O   0  0  0  0  0  0  0  0  0  0  0  0
    6.7168   -0.9947    0.0000 O   0  0  0  0  0  0  0  0  0  0  0  0
    5.5177   -2.2445    0.0000 O   0  0  0  0  0  0  0  0  0  0  0  0
    2.6346   -3.1320    0.0000 O   0  0  0  0  0  0  0  0  0  0  0  0
    4.3664   -3.1623    0.0000 O   0  0  0  0  0  0  0  0  0  0  0  0
    5.1708    0.4036    0.0000 C   0  0  3  0  0  0  0  0  0  0  0  0
    4.2699    0.8375    0.0000 C   0  0  3  0  0  0  0  0  0  0  0  0
    3.5848    0.1172    0.0000 C   0  0  3  0  0  0  0  0  0  0  0  0
    4.0566   -0.7578    0.0000 C   0  0  3  0  0  0  0  0  0  0  0  0
    5.0349   -0.5811    0.0000 C   0  0  3  0  0  0  0  0  0  0  0  0
    5.0640    1.5804    0.0000 C   0  0  0  0  0  0  0  0  0  0  0  0
    5.6708    2.5942    0.0000 C   0  0  3  0  0  0  0  0  0  0  0  0
    6.0718    0.8375    0.0000 C   0  0  0  0  0  0  0  0  0  0  0  0
    4.0474    1.8124    0.0000 C   0  0  0  0  0  0  0  0  0  0  0  0
    3.5267   -1.6474    0.0000 C   0  0  3  0  0  0  0  0  0  0  0  0
    2.5503    0.1632    0.0000 C   0  0  0  0  0  0  0  0  0  0  0  0
    4.6708    2.5942    0.0000 C   0  0  3  0  0  0  0  0  0  0  0  0
    6.2943    1.8124    0.0000 C   0  0  0  0  0  0  0  0  0  0  0  0
    3.1102    0.9974    0.0000 C   0  0  0  0  0  0  0  0  0  0  0  0
    2.4915   -1.6253    0.0000 C   0  0  0  0  0  0  0  0  0  0  0  0
    2.0000   -0.7139    0.0000 C   0  0  0  0  0  0  0  0  0  0  0  0
    5.7565   -1.2734    0.0000 C   0  0  0  0  0  0  0  0  0  0  0  0
    4.3838   -2.1625    0.0000 C   0  0  0  0  0  0  0  0  0  0  0  0
    3.5092   -2.6472    0.0000 C   0  0  0  0  0  0  0  0  0  0  0  0
    7.2693    2.0349    0.0000 C   0  0  0  0  0  0  0  0  0  0  0  0
    3.6720    1.0016    0.0000 H   0  0  0  0  0  0  0  0  0  0  0  0
    4.4098   -1.2674    0.0000 H   0  0  0  0  0  0  0  0  0  0  0  0
    4.8558   -1.1747    0.0000 H   0  0  0  0  0  0  0  0  0  0  0  0
    4.6562    2.0474    0.0000 H   0  0  0  0  0  0  0  0  0  0  0  0
    4.4940    1.3365    0.0000 H   0  0  0  0  0  0  0  0  0  0  0  0
    6.2098    0.2330    0.0000 H   0  0  0  0  0  0  0  0  0  0  0  0
    6.6918    0.8375    0.0000 H   0  0  0  0  0  0  0  0  0  0  0  0
    3.6608    2.2971    0.0000 H   0  0  0  0  0  0  0  0  0  0  0  0
    3.4888    1.5434    0.0000 H   0  0  0  0  0  0  0  0  0  0  0  0
    2.6835    0.7688    0.0000 H   0  0  0  0  0  0  0  0  0  0  0  0
    1.9765    0.3980    0.0000 H   0  0  0  0  0  0  0  0  0  0  0  0
    4.0548    2.6637    0.0000 H   0  0  0  0  0  0  0  0  0  0  0  0
    3.6559    1.2916    0.0000 H   0  0  0  0  0  0  0  0  0  0  0  0
    2.8159    1.5431    0.0000 H   0  0  0  0  0  0  0  0  0  0  0  0
    2.5644    0.7031    0.0000 H   0  0  0  0  0  0  0  0  0  0  0  0
    1.9034   -1.8218    0.0000 H   0  0  0  0  0  0  0  0  0  0  0  0
    2.5845   -2.2383    0.0000 H   0  0  0  0  0  0  0  0  0  0  0  0
    1.5390   -0.2994    0.0000 H   0  0  0  0  0  0  0  0  0  0  0  0
    1.5127   -1.0972    0.0000 H   0  0  0  0  0  0  0  0  0  0  0  0
    4.0645   -2.6939    0.0000 H   0  0  0  0  0  0  0  0  0  0  0  0
    4.9153   -2.4818    0.0000 H   0  0  0  0  0  0  0  0  0  0  0  0
    4.7032   -1.6310    0.0000 H   0  0  0  0  0  0  0  0  0  0  0  0
    6.4858    3.7519    0.0000 H   0  0  0  0  0  0  0  0  0  0  0  0
    7.6910    1.5804    0.0000 H   0  0  0  0  0  0  0  0  0  0  0  0
    7.4520    2.6274    0.0000 H   0  0  0  0  0  0  0  0  0  0  0  0
    3.6187    3.5415    0.0000 H   0  0  0  0  0  0  0  0  0  0  0  0
    7.1642   -1.4239    0.0000 H   0  0  0  0  0  0  0  0  0  0  0  0
    2.6237   -3.7519    0.0000 H   0  0  0  0  0  0  0  0  0  0  0  0
  1 13  1  0  0  0  0
  1 49  1  0  0  0  0
  2 18  1  0  0  0  0
  2 52  1  0  0  0  0
  3 23  1  0  0  0  0
  3 53  1  0  0  0  0
  4 23  2  0  0  0  0
  5 25  1  0  0  0  0
  5 54  1  0  0  0  0
  6 25  2  0  0  0  0
  7  8  1  0  0  0  0
  7 11  1  0  0  0  0
  7 12  1  0  0  0  0
  7 14  1  0  0  0  0
  8  9  1  0  0  0  0
  8 15  1  0  0  0  0
  8 27  1  0  0  0  0
  9 10  1  0  0  0  0
  9 17  1  0  0  0  0
  9 20  1  0  0  0  0
 10 11  1  0  0  0  0
 10 16  1  0  0  0  0
 10 28  1  0  0  0  0
 11 23  1  0  0  0  0
 11 29  1  0  0  0  0
 12 13  1  0  0  0  0
 12 30  1  0  0  0  0
 12 31  1  0  0  0  0
 13 18  1  0  0  0  0
 13 19  1  0  0  0  0
 14 19  1  0  0  0  0
 14 32  1  0  0  0  0
 14 33  1  0  0  0  0
 15 18  1  0  0  0  0
 15 34  1  0  0  0  0
 15 35  1  0  0  0  0
 16 21  1  0  0  0  0
 16 24  1  0  0  0  0
 16 25  1  0  0  0  0
 17 22  1  0  0  0  0
 17 36  1  0  0  0  0
 17 37  1  0  0  0  0
 18 38  1  0  0  0  0
 19 26  2  0  0  0  0
 20 39  1  0  0  0  0
 20 40  1  0  0  0  0
 20 41  1  0  0  0  0
 21 22  1  0  0  0  0
 21 42  1  0  0  0  0
 21 43  1  0  0  0  0
 22 44  1  0  0  0  0
 22 45  1  0  0  0  0
 24 46  1  0  0  0  0
 24 47  1  0  0  0  0
 24 48  1  0  0  0  0
 26 50  1  0  0  0  0
 26 51  1  0  0  0  0
M  END
>  <PUBCHEM_COMPOUND_CID>
131752101

>  <PUBCHEM_COMPOUND_CANONICALIZED>
1

>  <PUBCHEM_CACTVS_COMPLEXITY>
717

>  <PUBCHEM_CACTVS_HBOND_ACCEPTOR>
6

>  <PUBCHEM_CACTVS_HBOND_DONOR>
4

>  <PUBCHEM_CACTVS_ROTATABLE_BOND>
2

>  <PUBCHEM_CACTVS_SUBSKEYS>
AAADceB4OAAAAAAAAAAAAAAAAAAAAYMAAAAwYAAABgAAAGDAAAAAGgAACAAAD1SggAICCAAAAgCIAgDSCAAAAAAgAAAAAAEAAAgBFBIAAQAAQAAEwAABEAGI7vTPgAAAAAAAAADAAAYAADCAAYAACAAAAA==

>  <PUBCHEM_IUPAC_INCHI>
InChI=1S/C20H28O6/c1-10-8-19-9-20(10,26)12(21)7-11(19)17(2)5-4-6-18(3,16(24)25)14(17)13(19)15(22)23/h11-14,21,26H,1,4-9H2,2-3H3,(H,22,23)(H,24,25)

>  <PUBCHEM_IUPAC_INCHIKEY>
PIKIDCPJSQIMHW-UHFFFAOYSA-N

>  <PUBCHEM_EXACT_MASS>
364.189

>  <PUBCHEM_MOLECULAR_FORMULA>
C20H28O6

>  <PUBCHEM_MOLECULAR_WEIGHT>
364.438

>  <PUBCHEM_OPENEYE_CAN_SMILES>
CC12CCCC(C1C(C34C2CC(C(C3)(C(=C)C4)O)O)C(=O)O)(C)C(=O)O

>  <PUBCHEM_OPENEYE_ISO_SMILES>
CC12CCCC(C1C(C34C2CC(C(C3)(C(=C)C4)O)O)C(=O)O)(C)C(=O)O

>  <PUBCHEM_CACTVS_TPSA>
115

>  <PUBCHEM_MONOISOTOPIC_WEIGHT>
364.189

>  <PUBCHEM_TOTAL_CHARGE>
0

>  <PUBCHEM_HEAVY_ATOM_COUNT>
26

>  <PUBCHEM_ATOM_DEF_STEREO_COUNT>
0

>  <PUBCHEM_ATOM_UDEF_STEREO_COUNT>
8

>  <PUBCHEM_BOND_DEF_STEREO_COUNT>
0

>  <PUBCHEM_BOND_UDEF_STEREO_COUNT>
0

>  <PUBCHEM_ISOTOPIC_ATOM_COUNT>
0

>  <PUBCHEM_COMPONENT_COUNT>
1

>  <PUBCHEM_CACTVS_TAUTO_COUNT>
1

>  <PUBCHEM_COORDINATE_TYPE>
1
5
255

>  <PUBCHEM_BONDANNOTATIONS>
13  1  3
10  11  3
11  23  3
16  24  3
18  2  3
7  14  3
8  15  3
9  20  3

$$$$
