131752186
 OpenBabel06101807152D

 75 79  0  0  1  0  0  0  0  0999 V2000
    8.5991   -1.7500    0.0000 O   0  0  0  0  0  0  0  0  0  0  0  0
    5.1350    1.2500    0.0000 O   0  0  0  0  0  0  0  0  0  0  0  0
    6.0010   -1.2500    0.0000 O   0  0  0  0  0  0  0  0  0  0  0  0
    6.8671    3.2500    0.0000 O   0  0  0  0  0  0  0  0  0  0  0  0
    6.0010   -3.2500    0.0000 O   0  0  0  0  0  0  0  0  0  0  0  0
    5.1350    4.2500    0.0000 O   0  0  0  0  0  0  0  0  0  0  0  0
    7.7331   -4.2500    0.0000 O   0  0  0  0  0  0  0  0  0  0  0  0
    3.4030    3.2500    0.0000 O   0  0  0  0  0  0  0  0  0  0  0  0
    6.0010   -0.2500    0.0000 O   0  0  0  0  0  0  0  0  0  0  0  0
    9.4931   -0.2847    0.0000 O   0  0  0  0  0  0  0  0  0  0  0  0
    7.7331    2.7500    0.0000 O   0  0  0  0  0  0  0  0  0  0  0  0
    9.4651   -4.2500    0.0000 O   0  0  0  0  0  0  0  0  0  0  0  0
    2.5369    1.7500    0.0000 O   0  0  0  0  0  0  0  0  0  0  0  0
    9.4815    2.7846    0.0000 O   0  0  0  0  0  0  0  0  0  0  0  0
   13.8555   -1.7842    0.0000 O   0  0  0  0  0  0  0  0  0  0  0  0
    7.7331   -1.2500    0.0000 C   0  0  3  0  0  0  0  0  0  0  0  0
    6.0010    1.7500    0.0000 C   0  0  3  0  0  0  0  0  0  0  0  0
    6.8671   -1.7500    0.0000 C   0  0  1  0  0  0  0  0  0  0  0  0
    6.0010    2.7500    0.0000 C   0  0  1  0  0  0  0  0  0  0  0  0
    6.8671   -2.7500    0.0000 C   0  0  2  0  0  0  0  0  0  0  0  0
    5.1350    3.2500    0.0000 C   0  0  2  0  0  0  0  0  0  0  0  0
    7.7331   -3.2500    0.0000 C   0  0  2  0  0  0  0  0  0  0  0  0
    4.2690    2.7500    0.0000 C   0  0  1  0  0  0  0  0  0  0  0  0
    8.5991   -2.7500    0.0000 C   0  0  1  0  0  0  0  0  0  0  0  0
    7.7331   -0.2500    0.0000 C   0  0  0  0  0  0  0  0  0  0  0  0
    4.2690    1.7500    0.0000 C   0  0  1  0  0  0  0  0  0  0  0  0
    6.8671    1.2500    0.0000 C   0  0  0  0  0  0  0  0  0  0  0  0
    6.8671    0.2500    0.0000 C   0  0  0  0  0  0  0  0  0  0  0  0
    8.5991    0.2500    0.0000 C   0  0  0  0  0  0  0  0  0  0  0  0
    7.7331    1.7500    0.0000 C   0  0  0  0  0  0  0  0  0  0  0  0
    8.5991    1.2500    0.0000 C   0  0  0  0  0  0  0  0  0  0  0  0
    9.4651   -3.2500    0.0000 C   0  0  0  0  0  0  0  0  0  0  0  0
    3.4030    1.2500    0.0000 C   0  0  0  0  0  0  0  0  0  0  0  0
    9.4931    1.7847    0.0000 C   0  0  0  0  0  0  0  0  0  0  0  0
   10.3991    0.2292    0.0000 C   0  0  0  0  0  0  0  0  0  0  0  0
   10.3991    1.2708    0.0000 C   0  0  0  0  0  0  0  0  0  0  0  0
    5.1350    0.2500    0.0000 C   0  0  0  0  0  0  0  0  0  0  0  0
   11.2632   -0.2742    0.0000 C   0  0  0  0  0  0  0  0  0  0  0  0
   12.1312    0.2225    0.0000 C   0  0  0  0  0  0  0  0  0  0  0  0
   11.2594   -1.2741    0.0000 C   0  0  0  0  0  0  0  0  0  0  0  0
   12.9953   -0.2808    0.0000 C   0  0  0  0  0  0  0  0  0  0  0  0
   12.1235   -1.7775    0.0000 C   0  0  0  0  0  0  0  0  0  0  0  0
   12.9914   -1.2808    0.0000 C   0  0  0  0  0  0  0  0  0  0  0  0
    8.2700   -0.9400    0.0000 H   0  0  0  0  0  0  0  0  0  0  0  0
    6.0010    1.1300    0.0000 H   0  0  0  0  0  0  0  0  0  0  0  0
    6.8671   -1.1300    0.0000 H   0  0  0  0  0  0  0  0  0  0  0  0
    6.5380    2.4400    0.0000 H   0  0  0  0  0  0  0  0  0  0  0  0
    6.3301   -2.4400    0.0000 H   0  0  0  0  0  0  0  0  0  0  0  0
    5.6720    3.5600    0.0000 H   0  0  0  0  0  0  0  0  0  0  0  0
    8.2700   -3.5600    0.0000 H   0  0  0  0  0  0  0  0  0  0  0  0
    4.2690    3.3700    0.0000 H   0  0  0  0  0  0  0  0  0  0  0  0
    9.1360   -2.4400    0.0000 H   0  0  0  0  0  0  0  0  0  0  0  0
    4.2690    1.1300    0.0000 H   0  0  0  0  0  0  0  0  0  0  0  0
   10.0757   -3.3577    0.0000 H   0  0  0  0  0  0  0  0  0  0  0  0
    9.6772   -2.6674    0.0000 H   0  0  0  0  0  0  0  0  0  0  0  0
    3.0044    0.7751    0.0000 H   0  0  0  0  0  0  0  0  0  0  0  0
    3.8015    0.7751    0.0000 H   0  0  0  0  0  0  0  0  0  0  0  0
    5.4641   -1.5600    0.0000 H   0  0  0  0  0  0  0  0  0  0  0  0
    6.8671    3.8700    0.0000 H   0  0  0  0  0  0  0  0  0  0  0  0
    6.0010   -3.8700    0.0000 H   0  0  0  0  0  0  0  0  0  0  0  0
    4.5981    4.5600    0.0000 H   0  0  0  0  0  0  0  0  0  0  0  0
    7.1962   -4.5600    0.0000 H   0  0  0  0  0  0  0  0  0  0  0  0
    3.4030    3.8700    0.0000 H   0  0  0  0  0  0  0  0  0  0  0  0
    8.2700    3.0600    0.0000 H   0  0  0  0  0  0  0  0  0  0  0  0
   10.9349    1.5829    0.0000 H   0  0  0  0  0  0  0  0  0  0  0  0
   10.0021   -4.5600    0.0000 H   0  0  0  0  0  0  0  0  0  0  0  0
    2.0000    1.4400    0.0000 H   0  0  0  0  0  0  0  0  0  0  0  0
    5.4450    0.7869    0.0000 H   0  0  0  0  0  0  0  0  0  0  0  0
    4.5981    0.5600    0.0000 H   0  0  0  0  0  0  0  0  0  0  0  0
    4.8250   -0.2869    0.0000 H   0  0  0  0  0  0  0  0  0  0  0  0
   12.1336    0.8425    0.0000 H   0  0  0  0  0  0  0  0  0  0  0  0
   10.7212   -1.5821    0.0000 H   0  0  0  0  0  0  0  0  0  0  0  0
   13.5334    0.0271    0.0000 H   0  0  0  0  0  0  0  0  0  0  0  0
   12.1211   -2.3975    0.0000 H   0  0  0  0  0  0  0  0  0  0  0  0
   14.3936   -1.4762    0.0000 H   0  0  0  0  0  0  0  0  0  0  0  0
  1 16  1  0  0  0  0
  1 24  1  0  0  0  0
  2 17  1  0  0  0  0
  2 26  1  0  0  0  0
  3 58  1  0  0  0  0
  4 59  1  0  0  0  0
  5 60  1  0  0  0  0
  6 61  1  0  0  0  0
  7 62  1  0  0  0  0
  8 63  1  0  0  0  0
  9 28  1  0  0  0  0
  9 37  1  0  0  0  0
 10 29  1  0  0  0  0
 10 35  1  0  0  0  0
 11 30  1  0  0  0  0
 11 64  1  0  0  0  0
 12 32  1  0  0  0  0
 12 66  1  0  0  0  0
 13 33  1  0  0  0  0
 13 67  1  0  0  0  0
 14 34  2  0  0  0  0
 15 43  1  0  0  0  0
 15 75  1  0  0  0  0
 16 25  1  0  0  0  0
 16 44  1  0  0  0  0
 17 27  1  0  0  0  0
 17 45  1  0  0  0  0
 18  3  1  0  0  0  0
 18 16  1  1  0  0  0
 18 46  1  0  0  0  0
 19  4  1  0  0  0  0
 19 17  1  1  0  0  0
 19 47  1  0  0  0  0
 20  5  1  0  0  0  0
 20 18  1  6  0  0  0
 20 48  1  0  0  0  0
 21  6  1  0  0  0  0
 21 19  1  6  0  0  0
 21 49  1  0  0  0  0
 22  7  1  0  0  0  0
 22 20  1  1  0  0  0
 22 50  1  0  0  0  0
 23  8  1  0  0  0  0
 23 21  1  1  0  0  0
 23 51  1  0  0  0  0
 24 22  1  1  0  0  0
 24 32  1  0  0  0  0
 24 52  1  0  0  0  0
 25 28  1  0  0  0  0
 25 29  2  0  0  0  0
 26 23  1  1  0  0  0
 26 33  1  0  0  0  0
 26 53  1  0  0  0  0
 27 28  2  0  0  0  0
 27 30  1  0  0  0  0
 29 31  1  0  0  0  0
 30 31  2  0  0  0  0
 31 34  1  0  0  0  0
 32 54  1  0  0  0  0
 32 55  1  0  0  0  0
 33 56  1  0  0  0  0
 33 57  1  0  0  0  0
 34 36  1  0  0  0  0
 35 36  2  0  0  0  0
 35 38  1  0  0  0  0
 36 65  1  0  0  0  0
 37 68  1  0  0  0  0
 37 69  1  0  0  0  0
 37 70  1  0  0  0  0
 38 39  2  0  0  0  0
 38 40  1  0  0  0  0
 39 41  1  0  0  0  0
 39 71  1  0  0  0  0
 40 42  2  0  0  0  0
 40 72  1  0  0  0  0
 41 43  2  0  0  0  0
 41 73  1  0  0  0  0
 42 43  1  0  0  0  0
 42 74  1  0  0  0  0
M  END
>  <PUBCHEM_COMPOUND_CID>
131752186

>  <PUBCHEM_COMPOUND_CANONICALIZED>
1

>  <PUBCHEM_CACTVS_COMPLEXITY>
1000

>  <PUBCHEM_CACTVS_HBOND_ACCEPTOR>
15

>  <PUBCHEM_CACTVS_HBOND_DONOR>
10

>  <PUBCHEM_CACTVS_ROTATABLE_BOND>
6

>  <PUBCHEM_CACTVS_SUBSKEYS>
AAADcfB4PAAAAAAAAAAAAAAAAAAAAAAAAAA0aIECAAAAAACBQAAAGgAACAAADBSgmAIyBoAABgCIAqBSAAACCAAkIAAIiAEGCMgNNzaGNRqCeWCl4BULuQfI7PzOIAACCAAIAABAAAQQABAAAAAAAAAAAA==

>  <PUBCHEM_IUPAC_OPENEYE_NAME>
5-hydroxy-2-(4-hydroxyphenyl)-7-methoxy-6-[(3R,4R,5S,6R)-3,4,5-trihydroxy-6-(hydroxymethyl)tetrahydropyran-2-yl]-8-[(3R,4R,5R,6R)-3,4,5-trihydroxy-6-(hydroxymethyl)tetrahydropyran-2-yl]chromen-4-one

>  <PUBCHEM_IUPAC_CAS_NAME>
5-hydroxy-2-(4-hydroxyphenyl)-7-methoxy-6-[(3R,4R,5S,6R)-3,4,5-trihydroxy-6-(hydroxymethyl)-2-oxanyl]-8-[(3R,4R,5R,6R)-3,4,5-trihydroxy-6-(hydroxymethyl)-2-oxanyl]-1-benzopyran-4-one

>  <PUBCHEM_IUPAC_NAME>
5-hydroxy-2-(4-hydroxyphenyl)-7-methoxy-6-[(3R,4R,5S,6R)-3,4,5-trihydroxy-6-(hydroxymethyl)oxan-2-yl]-8-[(3R,4R,5R,6R)-3,4,5-trihydroxy-6-(hydroxymethyl)oxan-2-yl]chromen-4-one

>  <PUBCHEM_IUPAC_SYSTEMATIC_NAME>
6-[(3R,4R,5S,6R)-6-(hydroxymethyl)-3,4,5-tris(oxidanyl)oxan-2-yl]-8-[(3R,4R,5R,6R)-6-(hydroxymethyl)-3,4,5-tris(oxidanyl)oxan-2-yl]-2-(4-hydroxyphenyl)-7-methoxy-5-oxidanyl-chromen-4-one

>  <PUBCHEM_IUPAC_TRADITIONAL_NAME>
5-hydroxy-2-(4-hydroxyphenyl)-7-methoxy-6-[(3R,4R,5S,6R)-3,4,5-trihydroxy-6-methylol-tetrahydropyran-2-yl]-8-[(3R,4R,5R,6R)-3,4,5-trihydroxy-6-methylol-tetrahydropyran-2-yl]chromone

>  <PUBCHEM_IUPAC_INCHI>
InChI=1S/C28H32O15/c1-40-25-16(27-23(38)21(36)18(33)13(7-29)42-27)20(35)15-11(32)6-12(9-2-4-10(31)5-3-9)41-26(15)17(25)28-24(39)22(37)19(34)14(8-30)43-28/h2-6,13-14,18-19,21-24,27-31,33-39H,7-8H2,1H3/t13-,14-,18-,19+,21+,22+,23-,24-,27?,28?/m1/s1

>  <PUBCHEM_IUPAC_INCHIKEY>
GHHBRJNUNAWXEV-QVCVYZROSA-N

>  <PUBCHEM_EXACT_MASS>
608.174

>  <PUBCHEM_MOLECULAR_FORMULA>
C28H32O15

>  <PUBCHEM_MOLECULAR_WEIGHT>
608.549

>  <PUBCHEM_OPENEYE_CAN_SMILES>
COC1=C(C2=C(C(=O)C=C(O2)C3=CC=C(C=C3)O)C(=C1C4C(C(C(C(O4)CO)O)O)O)O)C5C(C(C(C(O5)CO)O)O)O

>  <PUBCHEM_OPENEYE_ISO_SMILES>
COC1=C(C2=C(C(=O)C=C(O2)C3=CC=C(C=C3)O)C(=C1C4[C@@H]([C@H]([C@@H]([C@H](O4)CO)O)O)O)O)C5[C@@H]([C@H]([C@H]([C@H](O5)CO)O)O)O

>  <PUBCHEM_CACTVS_TPSA>
256

>  <PUBCHEM_MONOISOTOPIC_WEIGHT>
608.174

>  <PUBCHEM_TOTAL_CHARGE>
0

>  <PUBCHEM_HEAVY_ATOM_COUNT>
43

>  <PUBCHEM_ATOM_DEF_STEREO_COUNT>
8

>  <PUBCHEM_ATOM_UDEF_STEREO_COUNT>
2

>  <PUBCHEM_BOND_DEF_STEREO_COUNT>
0

>  <PUBCHEM_BOND_UDEF_STEREO_COUNT>
0

>  <PUBCHEM_ISOTOPIC_ATOM_COUNT>
0

>  <PUBCHEM_COMPONENT_COUNT>
1

>  <PUBCHEM_CACTVS_TAUTO_COUNT>
24

>  <PUBCHEM_COORDINATE_TYPE>
1
5
255

>  <PUBCHEM_BONDANNOTATIONS>
10  29  8
10  35  8
16  25  3
17  27  3
24  32  6
25  28  8
25  29  8
26  33  6
27  28  8
27  30  8
29  31  8
18  3  5
30  31  8
31  34  8
34  36  8
35  36  8
38  39  8
38  40  8
39  41  8
19  4  5
40  42  8
41  43  8
42  43  8
20  5  6
21  6  6
22  7  6
23  8  5

$$$$
