131752904
 OpenBabel06101807152D

101106  0  0  1  0  0  0  0  0999 V2000
   10.9848    2.7372    0.0000 O   0  0  0  0  0  0  0  0  0  0  0  0
    9.1654    3.7690    0.0000 O   0  0  0  0  0  0  0  0  0  0  0  0
    3.3248    0.5255    0.0000 O   0  0  0  0  0  0  0  0  0  0  0  0
   11.6174    0.2770    0.0000 O   0  0  0  0  0  0  0  0  0  0  0  0
    3.8493   -3.4489    0.0000 O   0  0  0  0  0  0  0  0  0  0  0  0
    5.5813   -3.4623    0.0000 O   0  0  0  0  0  0  0  0  0  0  0  0
   13.1207    1.1373    0.0000 O   0  0  0  0  0  0  0  0  0  0  0  0
   16.1007   -4.0704    0.0000 O   0  0  0  0  0  0  0  0  0  0  0  0
    7.3770   -0.4072    0.0000 C   0  0  3  0  0  0  0  0  0  0  0  0
    7.3770    0.5928    0.0000 C   0  0  3  0  0  0  0  0  0  0  0  0
    8.2709    1.1275    0.0000 C   0  0  3  0  0  0  0  0  0  0  0  0
    6.5109   -0.9072    0.0000 C   0  0  3  0  0  0  0  0  0  0  0  0
    9.1770    0.6136    0.0000 C   0  0  3  0  0  0  0  0  0  0  0  0
    8.2709   -0.9419    0.0000 C   0  0  0  0  0  0  0  0  0  0  0  0
    5.6449   -0.4072    0.0000 C   0  0  0  0  0  0  0  0  0  0  0  0
    9.1770   -0.4280    0.0000 C   0  0  0  0  0  0  0  0  0  0  0  0
   10.1208    1.1488    0.0000 C   0  0  3  0  0  0  0  0  0  0  0  0
    4.7349   -0.9141    0.0000 C   0  0  3  0  0  0  0  0  0  0  0  0
    6.5109    1.0928    0.0000 C   0  0  0  0  0  0  0  0  0  0  0  0
    8.2458    2.2122    0.0000 C   0  0  0  0  0  0  0  0  0  0  0  0
    6.5270   -1.9487    0.0000 C   0  0  0  0  0  0  0  0  0  0  0  0
    4.7269   -1.9556    0.0000 C   0  0  3  0  0  0  0  0  0  0  0  0
    5.6290   -2.4765    0.0000 C   0  0  0  0  0  0  0  0  0  0  0  0
    7.7191   -1.3469    0.0000 C   0  0  0  0  0  0  0  0  0  0  0  0
   10.1208    2.2338    0.0000 C   0  0  3  0  0  0  0  0  0  0  0  0
    5.6449    0.5928    0.0000 C   0  0  0  0  0  0  0  0  0  0  0  0
    9.1770    2.7691    0.0000 C   0  0  3  0  0  0  0  0  0  0  0  0
    7.4010    1.6208    0.0000 C   0  0  0  0  0  0  0  0  0  0  0  0
    3.8081   -0.3500    0.0000 C   0  0  3  0  0  0  0  0  0  0  0  0
    7.1537   -1.6732    0.0000 C   0  0  0  0  0  0  0  0  0  0  0  0
    3.7914   -2.5054    0.0000 C   0  0  0  0  0  0  0  0  0  0  0  0
    2.8602   -0.8779    0.0000 C   0  0  3  0  0  0  0  0  0  0  0  0
   11.1207    1.1450    0.0000 C   0  0  0  0  0  0  0  0  0  0  0  0
   10.6174    0.2809    0.0000 C   0  0  0  0  0  0  0  0  0  0  0  0
    2.8518   -1.9629    0.0000 C   0  0  0  0  0  0  0  0  0  0  0  0
    4.7192   -2.9556    0.0000 C   0  0  0  0  0  0  0  0  0  0  0  0
    4.3247    0.5063    0.0000 C   0  0  0  0  0  0  0  0  0  0  0  0
    2.0000   -0.3679    0.0000 C   0  0  0  0  0  0  0  0  0  0  0  0
   12.6174    0.2732    0.0000 C   0  0  0  0  0  0  0  0  0  0  0  0
   13.1141   -0.5948    0.0000 C   0  0  0  0  0  0  0  0  0  0  0  0
   14.1140   -0.5986    0.0000 C   0  0  0  0  0  0  0  0  0  0  0  0
   14.6107   -1.4666    0.0000 C   0  0  0  0  0  0  0  0  0  0  0  0
   15.6107   -1.4704    0.0000 C   0  0  0  0  0  0  0  0  0  0  0  0
   14.1074   -2.3306    0.0000 C   0  0  0  0  0  0  0  0  0  0  0  0
   16.1074   -2.3384    0.0000 C   0  0  0  0  0  0  0  0  0  0  0  0
   14.6040   -3.1986    0.0000 C   0  0  0  0  0  0  0  0  0  0  0  0
   15.6040   -3.2024    0.0000 C   0  0  0  0  0  0  0  0  0  0  0  0
    7.9163    0.2869    0.0000 H   0  0  0  0  0  0  0  0  0  0  0  0
    9.7127    0.3015    0.0000 H   0  0  0  0  0  0  0  0  0  0  0  0
    7.8663   -1.4117    0.0000 H   0  0  0  0  0  0  0  0  0  0  0  0
    8.6645   -1.4209    0.0000 H   0  0  0  0  0  0  0  0  0  0  0  0
    9.3860   -1.0117    0.0000 H   0  0  0  0  0  0  0  0  0  0  0  0
    9.7878   -0.3219    0.0000 H   0  0  0  0  0  0  0  0  0  0  0  0
    4.7469   -0.2942    0.0000 H   0  0  0  0  0  0  0  0  0  0  0  0
    6.9095    1.5677    0.0000 H   0  0  0  0  0  0  0  0  0  0  0  0
    6.1124    1.5677    0.0000 H   0  0  0  0  0  0  0  0  0  0  0  0
    8.0233    2.7909    0.0000 H   0  0  0  0  0  0  0  0  0  0  0  0
    7.6376    2.0920    0.0000 H   0  0  0  0  0  0  0  0  0  0  0  0
    6.7450   -2.5291    0.0000 H   0  0  0  0  0  0  0  0  0  0  0  0
    7.1361   -1.8332    0.0000 H   0  0  0  0  0  0  0  0  0  0  0  0
    5.2316   -2.9524    0.0000 H   0  0  0  0  0  0  0  0  0  0  0  0
    6.0299   -2.9494    0.0000 H   0  0  0  0  0  0  0  0  0  0  0  0
    7.1365   -1.5590    0.0000 H   0  0  0  0  0  0  0  0  0  0  0  0
    7.9312   -1.9294    0.0000 H   0  0  0  0  0  0  0  0  0  0  0  0
    8.3017   -1.1348    0.0000 H   0  0  0  0  0  0  0  0  0  0  0  0
   10.6583    1.9249    0.0000 H   0  0  0  0  0  0  0  0  0  0  0  0
    5.1080    0.9028    0.0000 H   0  0  0  0  0  0  0  0  0  0  0  0
    8.6359    3.0718    0.0000 H   0  0  0  0  0  0  0  0  0  0  0  0
    7.7069    2.1601    0.0000 H   0  0  0  0  0  0  0  0  0  0  0  0
    6.8617    1.9266    0.0000 H   0  0  0  0  0  0  0  0  0  0  0  0
    7.0952    1.0814    0.0000 H   0  0  0  0  0  0  0  0  0  0  0  0
    6.6788   -2.0718    0.0000 H   0  0  0  0  0  0  0  0  0  0  0  0
    7.5522   -2.1482    0.0000 H   0  0  0  0  0  0  0  0  0  0  0  0
    7.6287   -1.2747    0.0000 H   0  0  0  0  0  0  0  0  0  0  0  0
    3.3942   -2.9814    0.0000 H   0  0  0  0  0  0  0  0  0  0  0  0
    4.1924   -2.9783    0.0000 H   0  0  0  0  0  0  0  0  0  0  0  0
    2.8686   -0.2580    0.0000 H   0  0  0  0  0  0  0  0  0  0  0  0
   11.7042    1.3548    0.0000 H   0  0  0  0  0  0  0  0  0  0  0  0
   11.0154    1.7560    0.0000 H   0  0  0  0  0  0  0  0  0  0  0  0
   10.0793   -0.0270    0.0000 H   0  0  0  0  0  0  0  0  0  0  0  0
   10.9253   -0.2572    0.0000 H   0  0  0  0  0  0  0  0  0  0  0  0
   11.1555    0.5888    0.0000 H   0  0  0  0  0  0  0  0  0  0  0  0
    2.2418   -1.8521    0.0000 H   0  0  0  0  0  0  0  0  0  0  0  0
    2.6383   -2.5449    0.0000 H   0  0  0  0  0  0  0  0  0  0  0  0
    4.8555    0.1860    0.0000 H   0  0  0  0  0  0  0  0  0  0  0  0
    4.6450    1.0371    0.0000 H   0  0  0  0  0  0  0  0  0  0  0  0
    3.7938    0.8265    0.0000 H   0  0  0  0  0  0  0  0  0  0  0  0
   10.9825    3.3572    0.0000 H   0  0  0  0  0  0  0  0  0  0  0  0
    8.6249    4.0728    0.0000 H   0  0  0  0  0  0  0  0  0  0  0  0
    2.3162    0.1654    0.0000 H   0  0  0  0  0  0  0  0  0  0  0  0
    1.4667   -0.0517    0.0000 H   0  0  0  0  0  0  0  0  0  0  0  0
    1.6838   -0.9013    0.0000 H   0  0  0  0  0  0  0  0  0  0  0  0
    2.7050    0.5375    0.0000 H   0  0  0  0  0  0  0  0  0  0  0  0
    3.8445   -4.0689    0.0000 H   0  0  0  0  0  0  0  0  0  0  0  0
   12.8020   -1.1305    0.0000 H   0  0  0  0  0  0  0  0  0  0  0  0
   14.4261   -0.0629    0.0000 H   0  0  0  0  0  0  0  0  0  0  0  0
   15.9228   -0.9347    0.0000 H   0  0  0  0  0  0  0  0  0  0  0  0
   13.4874   -2.3283    0.0000 H   0  0  0  0  0  0  0  0  0  0  0  0
   16.7274   -2.3408    0.0000 H   0  0  0  0  0  0  0  0  0  0  0  0
   14.2920   -3.7343    0.0000 H   0  0  0  0  0  0  0  0  0  0  0  0
   16.7207   -4.0728    0.0000 H   0  0  0  0  0  0  0  0  0  0  0  0
  1 25  1  0  0  0  0
  1 88  1  0  0  0  0
  2 27  1  0  0  0  0
  2 89  1  0  0  0  0
  3 29  1  0  0  0  0
  3 93  1  0  0  0  0
  4 33  1  0  0  0  0
  4 39  1  0  0  0  0
  5 36  1  0  0  0  0
  5 94  1  0  0  0  0
  6 36  2  0  0  0  0
  7 39  2  0  0  0  0
  8 47  1  0  0  0  0
  8101  1  0  0  0  0
  9 10  1  0  0  0  0
  9 12  1  0  0  0  0
  9 14  1  0  0  0  0
  9 24  1  0  0  0  0
 10 11  1  0  0  0  0
 10 19  1  0  0  0  0
 10 48  1  0  0  0  0
 11 13  1  0  0  0  0
 11 20  1  0  0  0  0
 11 28  1  0  0  0  0
 12 15  1  0  0  0  0
 12 21  1  0  0  0  0
 12 30  1  0  0  0  0
 13 16  1  0  0  0  0
 13 17  1  0  0  0  0
 13 49  1  0  0  0  0
 14 16  1  0  0  0  0
 14 50  1  0  0  0  0
 14 51  1  0  0  0  0
 15 18  1  0  0  0  0
 15 26  2  0  0  0  0
 16 52  1  0  0  0  0
 16 53  1  0  0  0  0
 17 25  1  0  0  0  0
 17 33  1  0  0  0  0
 17 34  1  0  0  0  0
 18 22  1  0  0  0  0
 18 29  1  0  0  0  0
 18 54  1  0  0  0  0
 19 26  1  0  0  0  0
 19 55  1  0  0  0  0
 19 56  1  0  0  0  0
 20 27  1  0  0  0  0
 20 57  1  0  0  0  0
 20 58  1  0  0  0  0
 21 23  1  0  0  0  0
 21 59  1  0  0  0  0
 21 60  1  0  0  0  0
 22 23  1  0  0  0  0
 22 31  1  0  0  0  0
 22 36  1  0  0  0  0
 23 61  1  0  0  0  0
 23 62  1  0  0  0  0
 24 63  1  0  0  0  0
 24 64  1  0  0  0  0
 24 65  1  0  0  0  0
 25 27  1  0  0  0  0
 25 66  1  0  0  0  0
 26 67  1  0  0  0  0
 27 68  1  0  0  0  0
 28 69  1  0  0  0  0
 28 70  1  0  0  0  0
 28 71  1  0  0  0  0
 29 32  1  0  0  0  0
 29 37  1  0  0  0  0
 30 72  1  0  0  0  0
 30 73  1  0  0  0  0
 30 74  1  0  0  0  0
 31 35  1  0  0  0  0
 31 75  1  0  0  0  0
 31 76  1  0  0  0  0
 32 35  1  0  0  0  0
 32 38  1  0  0  0  0
 32 77  1  0  0  0  0
 33 78  1  0  0  0  0
 33 79  1  0  0  0  0
 34 80  1  0  0  0  0
 34 81  1  0  0  0  0
 34 82  1  0  0  0  0
 35 83  1  0  0  0  0
 35 84  1  0  0  0  0
 37 85  1  0  0  0  0
 37 86  1  0  0  0  0
 37 87  1  0  0  0  0
 38 90  1  0  0  0  0
 38 91  1  0  0  0  0
 38 92  1  0  0  0  0
 39 40  1  0  0  0  0
 40 41  2  0  0  0  0
 40 95  1  0  0  0  0
 41 42  1  0  0  0  0
 41 96  1  0  0  0  0
 42 43  2  0  0  0  0
 42 44  1  0  0  0  0
 43 45  1  0  0  0  0
 43 97  1  0  0  0  0
 44 46  2  0  0  0  0
 44 98  1  0  0  0  0
 45 47  2  0  0  0  0
 45 99  1  0  0  0  0
 46 47  1  0  0  0  0
 46100  1  0  0  0  0
M  END
>  <PUBCHEM_COMPOUND_CID>
131752904

>  <PUBCHEM_COMPOUND_CANONICALIZED>
1

>  <PUBCHEM_CACTVS_COMPLEXITY>
1320

>  <PUBCHEM_CACTVS_HBOND_ACCEPTOR>
8

>  <PUBCHEM_CACTVS_HBOND_DONOR>
5

>  <PUBCHEM_CACTVS_ROTATABLE_BOND>
6

>  <PUBCHEM_CACTVS_SUBSKEYS>
AAADcfB8PAAAAAAAAAAAAAAAAAAAAAAAAAAwYMGDAAAAAADBAAAAGgAACAAAD1SgmAIyDoAABgCIAiDSCAACAAAgIAAIiAEGCMgJNjKCMRKCcAAlwBEJuYfKyPCPoAAAAAAAAADAAAYAADCAAAAAAAAAAA==

>  <PUBCHEM_IUPAC_OPENEYE_NAME>
1,10,11-trihydroxy-9-[[(E)-3-(4-hydroxyphenyl)prop-2-enoyl]oxymethyl]-1,2,6a,6b,9,12a-hexamethyl-2,3,4,5,6,6a,7,8,8a,10,11,12,13,14b-tetradecahydropicene-4a-carboxylic acid

>  <PUBCHEM_IUPAC_CAS_NAME>
1,10,11-trihydroxy-9-[[(E)-3-(4-hydroxyphenyl)-1-oxoprop-2-enoxy]methyl]-1,2,6a,6b,9,12a-hexamethyl-2,3,4,5,6,6a,7,8,8a,10,11,12,13,14b-tetradecahydropicene-4a-carboxylic acid

>  <PUBCHEM_IUPAC_NAME>
1,10,11-trihydroxy-9-[[(E)-3-(4-hydroxyphenyl)prop-2-enoyl]oxymethyl]-1,2,6a,6b,9,12a-hexamethyl-2,3,4,5,6,6a,7,8,8a,10,11,12,13,14b-tetradecahydropicene-4a-carboxylic acid

>  <PUBCHEM_IUPAC_SYSTEMATIC_NAME>
9-[[(E)-3-(4-hydroxyphenyl)prop-2-enoyl]oxymethyl]-1,2,6a,6b,9,12a-hexamethyl-1,10,11-tris(oxidanyl)-2,3,4,5,6,6a,7,8,8a,10,11,12,13,14b-tetradecahydropicene-4a-carboxylic acid

>  <PUBCHEM_IUPAC_TRADITIONAL_NAME>
1,10,11-trihydroxy-9-[[(E)-3-(4-hydroxyphenyl)acryloyl]oxymethyl]-1,2,6a,6b,9,12a-hexamethyl-2,3,4,5,6,6a,7,8,8a,10,11,12,13,14b-tetradecahydropicene-4a-carboxylic acid

>  <PUBCHEM_IUPAC_INCHI>
InChI=1S/C39H54O8/c1-23-15-18-39(33(44)45)20-19-36(4)26(31(39)38(23,6)46)12-13-29-34(2)21-27(41)32(43)35(3,28(34)16-17-37(29,36)5)22-47-30(42)14-9-24-7-10-25(40)11-8-24/h7-12,14,23,27-29,31-32,40-41,43,46H,13,15-22H2,1-6H3,(H,44,45)/b14-9+

>  <PUBCHEM_IUPAC_INCHIKEY>
SWEBUECVVVXRRV-NTEUORMPSA-N

>  <PUBCHEM_EXACT_MASS>
650.382

>  <PUBCHEM_MOLECULAR_FORMULA>
C39H54O8

>  <PUBCHEM_MOLECULAR_WEIGHT>
650.853

>  <PUBCHEM_OPENEYE_CAN_SMILES>
CC1CCC2(CCC3(C(=CCC4C3(CCC5C4(CC(C(C5(C)COC(=O)C=CC6=CC=C(C=C6)O)O)O)C)C)C2C1(C)O)C)C(=O)O

>  <PUBCHEM_OPENEYE_ISO_SMILES>
CC1CCC2(CCC3(C(=CCC4C3(CCC5C4(CC(C(C5(C)COC(=O)/C=C/C6=CC=C(C=C6)O)O)O)C)C)C2C1(C)O)C)C(=O)O

>  <PUBCHEM_CACTVS_TPSA>
145

>  <PUBCHEM_MONOISOTOPIC_WEIGHT>
650.382

>  <PUBCHEM_TOTAL_CHARGE>
0

>  <PUBCHEM_HEAVY_ATOM_COUNT>
47

>  <PUBCHEM_ATOM_DEF_STEREO_COUNT>
0

>  <PUBCHEM_ATOM_UDEF_STEREO_COUNT>
12

>  <PUBCHEM_BOND_DEF_STEREO_COUNT>
1

>  <PUBCHEM_BOND_UDEF_STEREO_COUNT>
0

>  <PUBCHEM_ISOTOPIC_ATOM_COUNT>
0

>  <PUBCHEM_COMPONENT_COUNT>
1

>  <PUBCHEM_CACTVS_TAUTO_COUNT>
4

>  <PUBCHEM_COORDINATE_TYPE>
1
5
255

>  <PUBCHEM_BONDANNOTATIONS>
25  1  3
10  19  3
11  28  3
12  30  3
13  16  3
18  15  3
17  34  3
27  2  3
22  36  3
29  3  3
32  38  3
42  43  8
42  44  8
43  45  8
44  46  8
45  47  8
46  47  8
9  24  3

$$$$
