131753069
 OpenBabel06101807152D

 60 62  0  0  0  0  0  0  0  0999 V2000
    8.0901   -1.6117    0.0000 O   0  0  0  0  0  0  0  0  0  0  0  0
    4.5981   -1.5771    0.0000 O   0  0  0  0  0  0  0  0  0  0  0  0
    6.3301    1.4229    0.0000 O   0  0  0  0  0  0  0  0  0  0  0  0
   10.7321   -1.0496    0.0000 O   0  0  0  0  0  0  0  0  0  0  0  0
    8.0785    1.4575    0.0000 O   0  0  0  0  0  0  0  0  0  0  0  0
   12.4525    1.9571    0.0000 O   0  0  0  0  0  0  0  0  0  0  0  0
    7.1962   -0.0771    0.0000 C   0  0  0  0  0  0  0  0  0  0  0  0
    5.4641   -0.0771    0.0000 C   0  0  0  0  0  0  0  0  0  0  0  0
    8.9962   -0.0563    0.0000 C   0  0  0  0  0  0  0  0  0  0  0  0
    6.3301    0.4229    0.0000 C   0  0  0  0  0  0  0  0  0  0  0  0
    7.1962   -1.0771    0.0000 C   0  0  0  0  0  0  0  0  0  0  0  0
    9.8602    0.4471    0.0000 C   0  0  0  0  0  0  0  0  0  0  0  0
    8.0901    0.4576    0.0000 C   0  0  0  0  0  0  0  0  0  0  0  0
    4.5981    0.4229    0.0000 C   0  0  0  0  0  0  0  0  0  0  0  0
    5.4641   -1.0771    0.0000 C   0  0  0  0  0  0  0  0  0  0  0  0
   11.5923    0.4538    0.0000 C   0  0  0  0  0  0  0  0  0  0  0  0
    6.3301   -1.5771    0.0000 C   0  0  0  0  0  0  0  0  0  0  0  0
   10.7282   -0.0496    0.0000 C   0  0  0  0  0  0  0  0  0  0  0  0
    8.9962   -1.0979    0.0000 C   0  0  0  0  0  0  0  0  0  0  0  0
   12.4602   -0.0429    0.0000 C   0  0  0  0  0  0  0  0  0  0  0  0
    9.8564    1.4471    0.0000 C   0  0  0  0  0  0  0  0  0  0  0  0
   11.5884    1.4537    0.0000 C   0  0  0  0  0  0  0  0  0  0  0  0
    3.7320   -0.0771    0.0000 C   0  0  0  0  0  0  0  0  0  0  0  0
   10.7205    1.9504    0.0000 C   0  0  0  0  0  0  0  0  0  0  0  0
   13.3243    0.4604    0.0000 C   0  0  0  0  0  0  0  0  0  0  0  0
    2.8660    0.4229    0.0000 C   0  0  0  0  0  0  0  0  0  0  0  0
   14.1923   -0.0362    0.0000 C   0  0  0  0  0  0  0  0  0  0  0  0
    2.0000   -0.0771    0.0000 C   0  0  0  0  0  0  0  0  0  0  0  0
    2.8660    1.4229    0.0000 C   0  0  0  0  0  0  0  0  0  0  0  0
    4.5981   -2.5771    0.0000 C   0  0  0  0  0  0  0  0  0  0  0  0
   15.0564    0.4671    0.0000 C   0  0  0  0  0  0  0  0  0  0  0  0
   14.1961   -1.0362    0.0000 C   0  0  0  0  0  0  0  0  0  0  0  0
    4.9966    0.8979    0.0000 H   0  0  0  0  0  0  0  0  0  0  0  0
    4.1996    0.8979    0.0000 H   0  0  0  0  0  0  0  0  0  0  0  0
    6.3301   -2.1971    0.0000 H   0  0  0  0  0  0  0  0  0  0  0  0
    9.5319   -1.4100    0.0000 H   0  0  0  0  0  0  0  0  0  0  0  0
   12.0635   -0.5194    0.0000 H   0  0  0  0  0  0  0  0  0  0  0  0
   12.8606   -0.5163    0.0000 H   0  0  0  0  0  0  0  0  0  0  0  0
    9.3183    1.7550    0.0000 H   0  0  0  0  0  0  0  0  0  0  0  0
    3.7320   -0.6971    0.0000 H   0  0  0  0  0  0  0  0  0  0  0  0
   10.7181    2.5704    0.0000 H   0  0  0  0  0  0  0  0  0  0  0  0
   13.3219    1.0804    0.0000 H   0  0  0  0  0  0  0  0  0  0  0  0
    5.7932    1.7329    0.0000 H   0  0  0  0  0  0  0  0  0  0  0  0
   11.2702   -1.3575    0.0000 H   0  0  0  0  0  0  0  0  0  0  0  0
    3.4860    1.4229    0.0000 H   0  0  0  0  0  0  0  0  0  0  0  0
    2.8660    2.0429    0.0000 H   0  0  0  0  0  0  0  0  0  0  0  0
    2.2460    1.4229    0.0000 H   0  0  0  0  0  0  0  0  0  0  0  0
    1.6900    0.4599    0.0000 H   0  0  0  0  0  0  0  0  0  0  0  0
    1.4631   -0.3871    0.0000 H   0  0  0  0  0  0  0  0  0  0  0  0
    2.3100   -0.6140    0.0000 H   0  0  0  0  0  0  0  0  0  0  0  0
    3.9781   -2.5771    0.0000 H   0  0  0  0  0  0  0  0  0  0  0  0
    4.5981   -3.1971    0.0000 H   0  0  0  0  0  0  0  0  0  0  0  0
    5.2181   -2.5771    0.0000 H   0  0  0  0  0  0  0  0  0  0  0  0
   12.4501    2.5771    0.0000 H   0  0  0  0  0  0  0  0  0  0  0  0
   15.3684   -0.0686    0.0000 H   0  0  0  0  0  0  0  0  0  0  0  0
   13.5761   -1.0386    0.0000 H   0  0  0  0  0  0  0  0  0  0  0  0
   14.1985   -1.6562    0.0000 H   0  0  0  0  0  0  0  0  0  0  0  0
   15.5921    0.7792    0.0000 H   0  0  0  0  0  0  0  0  0  0  0  0
   14.7443    1.0028    0.0000 H   0  0  0  0  0  0  0  0  0  0  0  0
   14.8161   -1.0338    0.0000 H   0  0  0  0  0  0  0  0  0  0  0  0
  1 11  1  0  0  0  0
  1 19  1  0  0  0  0
  2 15  1  0  0  0  0
  2 30  1  0  0  0  0
  3 10  1  0  0  0  0
  3 43  1  0  0  0  0
  4 18  1  0  0  0  0
  4 44  1  0  0  0  0
  5 13  2  0  0  0  0
  6 22  1  0  0  0  0
  6 54  1  0  0  0  0
  7 10  2  0  0  0  0
  7 11  1  0  0  0  0
  7 13  1  0  0  0  0
  8 10  1  0  0  0  0
  8 14  1  0  0  0  0
  8 15  2  0  0  0  0
  9 12  1  0  0  0  0
  9 13  1  0  0  0  0
  9 19  2  0  0  0  0
 11 17  2  0  0  0  0
 12 18  2  0  0  0  0
 12 21  1  0  0  0  0
 14 23  1  0  0  0  0
 14 33  1  0  0  0  0
 14 34  1  0  0  0  0
 15 17  1  0  0  0  0
 16 18  1  0  0  0  0
 16 20  1  0  0  0  0
 16 22  2  0  0  0  0
 17 35  1  0  0  0  0
 19 36  1  0  0  0  0
 20 25  1  0  0  0  0
 20 37  1  0  0  0  0
 20 38  1  0  0  0  0
 21 24  2  0  0  0  0
 21 39  1  0  0  0  0
 22 24  1  0  0  0  0
 23 26  2  0  0  0  0
 23 40  1  0  0  0  0
 24 41  1  0  0  0  0
 25 27  2  0  0  0  0
 25 42  1  0  0  0  0
 26 28  1  0  0  0  0
 26 29  1  0  0  0  0
 27 31  1  0  0  0  0
 27 32  1  0  0  0  0
 28 48  1  0  0  0  0
 28 49  1  0  0  0  0
 28 50  1  0  0  0  0
 29 45  1  0  0  0  0
 29 46  1  0  0  0  0
 29 47  1  0  0  0  0
 30 51  1  0  0  0  0
 30 52  1  0  0  0  0
 30 53  1  0  0  0  0
 31 55  1  0  0  0  0
 31 58  1  0  0  0  0
 31 59  1  0  0  0  0
 32 56  1  0  0  0  0
 32 57  1  0  0  0  0
 32 60  1  0  0  0  0
M  END
>  <PUBCHEM_COMPOUND_CID>
131753069

>  <PUBCHEM_COMPOUND_CANONICALIZED>
1

>  <PUBCHEM_CACTVS_COMPLEXITY>
760

>  <PUBCHEM_CACTVS_HBOND_ACCEPTOR>
6

>  <PUBCHEM_CACTVS_HBOND_DONOR>
3

>  <PUBCHEM_CACTVS_ROTATABLE_BOND>
6

>  <PUBCHEM_CACTVS_SUBSKEYS>
AAADceB4OAAAAAAAAAAAAAAAAAAAAAAAAAAwYIAAAAAAAACBQAAAGgAACAAADASgmAIyBoAABgCIAqBSAAACCAAkIAAIiAEGCMgMJzaGNRqAcWAl4BUIuYeK7PzOIAACCAAIAABAAAQQABAAAAAAAAAAAA==

>  <PUBCHEM_IUPAC_OPENEYE_NAME>
3-[2,4-dihydroxy-3-(3-methylbut-2-enyl)phenyl]-5-hydroxy-7-methoxy-6-(3-methylbut-2-enyl)chromen-4-one

>  <PUBCHEM_IUPAC_CAS_NAME>
3-[2,4-dihydroxy-3-(3-methylbut-2-enyl)phenyl]-5-hydroxy-7-methoxy-6-(3-methylbut-2-enyl)-1-benzopyran-4-one

>  <PUBCHEM_IUPAC_NAME>
3-[2,4-dihydroxy-3-(3-methylbut-2-enyl)phenyl]-5-hydroxy-7-methoxy-6-(3-methylbut-2-enyl)chromen-4-one

>  <PUBCHEM_IUPAC_SYSTEMATIC_NAME>
7-methoxy-6-(3-methylbut-2-enyl)-3-[3-(3-methylbut-2-enyl)-2,4-bis(oxidanyl)phenyl]-5-oxidanyl-chromen-4-one

>  <PUBCHEM_IUPAC_TRADITIONAL_NAME>
3-[2,4-dihydroxy-3-(3-methylbut-2-enyl)phenyl]-5-hydroxy-7-methoxy-6-(3-methylbut-2-enyl)chromone

>  <PUBCHEM_IUPAC_INCHI>
InChI=1S/C26H28O6/c1-14(2)6-8-17-20(27)11-10-16(24(17)28)19-13-32-22-12-21(31-5)18(9-7-15(3)4)25(29)23(22)26(19)30/h6-7,10-13,27-29H,8-9H2,1-5H3

>  <PUBCHEM_IUPAC_INCHIKEY>
UWUOGPWSIVRQNM-UHFFFAOYSA-N

>  <PUBCHEM_EXACT_MASS>
436.189

>  <PUBCHEM_MOLECULAR_FORMULA>
C26H28O6

>  <PUBCHEM_MOLECULAR_WEIGHT>
436.504

>  <PUBCHEM_OPENEYE_CAN_SMILES>
CC(=CCC1=C(C=CC(=C1O)C2=COC3=CC(=C(C(=C3C2=O)O)CC=C(C)C)OC)O)C

>  <PUBCHEM_OPENEYE_ISO_SMILES>
CC(=CCC1=C(C=CC(=C1O)C2=COC3=CC(=C(C(=C3C2=O)O)CC=C(C)C)OC)O)C

>  <PUBCHEM_CACTVS_TPSA>
96.2

>  <PUBCHEM_MONOISOTOPIC_WEIGHT>
436.189

>  <PUBCHEM_TOTAL_CHARGE>
0

>  <PUBCHEM_HEAVY_ATOM_COUNT>
32

>  <PUBCHEM_ATOM_DEF_STEREO_COUNT>
0

>  <PUBCHEM_ATOM_UDEF_STEREO_COUNT>
0

>  <PUBCHEM_BOND_DEF_STEREO_COUNT>
0

>  <PUBCHEM_BOND_UDEF_STEREO_COUNT>
0

>  <PUBCHEM_ISOTOPIC_ATOM_COUNT>
0

>  <PUBCHEM_COMPONENT_COUNT>
1

>  <PUBCHEM_CACTVS_TAUTO_COUNT>
45

>  <PUBCHEM_COORDINATE_TYPE>
1
5
255

>  <PUBCHEM_BONDANNOTATIONS>
1  11  8
1  19  8
11  17  8
12  18  8
12  21  8
15  17  8
16  18  8
16  22  8
21  24  8
22  24  8
7  10  8
7  11  8
7  13  8
8  10  8
8  15  8
9  13  8
9  19  8

$$$$
