131751428
 OpenBabel06101807152D

 35 35  0  0  0  0  0  0  0  0999 V2000
    4.5981    0.5950    0.0000 O   0  0  0  0  0  0  0  0  0  0  0  0
    2.8660   -2.4050    0.0000 O   0  0  0  0  0  0  0  0  0  0  0  0
    5.4641    2.0950    0.0000 N   0  0  0  0  0  0  0  0  0  0  0  0
    9.7942    1.5950    0.0000 N   0  0  0  0  0  0  0  0  0  0  0  0
    7.1962    2.0950    0.0000 C   0  0  0  0  0  0  0  0  0  0  0  0
    8.0622    1.5950    0.0000 C   0  0  0  0  0  0  0  0  0  0  0  0
    6.3301    1.5950    0.0000 C   0  0  0  0  0  0  0  0  0  0  0  0
    8.9282    2.0950    0.0000 C   0  0  0  0  0  0  0  0  0  0  0  0
    4.5981    1.5950    0.0000 C   0  0  0  0  0  0  0  0  0  0  0  0
    3.7320    2.0950    0.0000 C   0  0  0  0  0  0  0  0  0  0  0  0
    2.8660    0.5950    0.0000 C   0  0  0  0  0  0  0  0  0  0  0  0
    2.8660    1.5950    0.0000 C   0  0  0  0  0  0  0  0  0  0  0  0
    2.0000    0.0950    0.0000 C   0  0  0  0  0  0  0  0  0  0  0  0
    3.7320    0.0950    0.0000 C   0  0  0  0  0  0  0  0  0  0  0  0
    2.0000   -0.9050    0.0000 C   0  0  0  0  0  0  0  0  0  0  0  0
    3.7320   -0.9050    0.0000 C   0  0  0  0  0  0  0  0  0  0  0  0
    2.8660   -1.4050    0.0000 C   0  0  0  0  0  0  0  0  0  0  0  0
    7.5947    2.5700    0.0000 H   0  0  0  0  0  0  0  0  0  0  0  0
    6.7976    2.5700    0.0000 H   0  0  0  0  0  0  0  0  0  0  0  0
    7.6636    1.1200    0.0000 H   0  0  0  0  0  0  0  0  0  0  0  0
    8.4607    1.1200    0.0000 H   0  0  0  0  0  0  0  0  0  0  0  0
    5.9316    1.1200    0.0000 H   0  0  0  0  0  0  0  0  0  0  0  0
    6.7287    1.1200    0.0000 H   0  0  0  0  0  0  0  0  0  0  0  0
    9.3267    2.5700    0.0000 H   0  0  0  0  0  0  0  0  0  0  0  0
    8.5297    2.5700    0.0000 H   0  0  0  0  0  0  0  0  0  0  0  0
    5.4641    2.7150    0.0000 H   0  0  0  0  0  0  0  0  0  0  0  0
   10.3312    1.9050    0.0000 H   0  0  0  0  0  0  0  0  0  0  0  0
    9.7942    0.9750    0.0000 H   0  0  0  0  0  0  0  0  0  0  0  0
    3.7320    2.7150    0.0000 H   0  0  0  0  0  0  0  0  0  0  0  0
    2.3291    1.9050    0.0000 H   0  0  0  0  0  0  0  0  0  0  0  0
    1.4631    0.4050    0.0000 H   0  0  0  0  0  0  0  0  0  0  0  0
    4.2690    0.4050    0.0000 H   0  0  0  0  0  0  0  0  0  0  0  0
    1.4631   -1.2150    0.0000 H   0  0  0  0  0  0  0  0  0  0  0  0
    4.2690   -1.2150    0.0000 H   0  0  0  0  0  0  0  0  0  0  0  0
    2.3291   -2.7150    0.0000 H   0  0  0  0  0  0  0  0  0  0  0  0
  1  9  2  0  0  0  0
  2 17  1  0  0  0  0
  2 35  1  0  0  0  0
  3  7  1  0  0  0  0
  3  9  1  0  0  0  0
  3 26  1  0  0  0  0
  4  8  1  0  0  0  0
  4 27  1  0  0  0  0
  4 28  1  0  0  0  0
  5  6  1  0  0  0  0
  5  7  1  0  0  0  0
  5 18  1  0  0  0  0
  5 19  1  0  0  0  0
  6  8  1  0  0  0  0
  6 20  1  0  0  0  0
  6 21  1  0  0  0  0
  7 22  1  0  0  0  0
  7 23  1  0  0  0  0
  8 24  1  0  0  0  0
  8 25  1  0  0  0  0
  9 10  1  0  0  0  0
 10 12  2  0  0  0  0
 10 29  1  0  0  0  0
 11 12  1  0  0  0  0
 11 13  2  0  0  0  0
 11 14  1  0  0  0  0
 12 30  1  0  0  0  0
 13 15  1  0  0  0  0
 13 31  1  0  0  0  0
 14 16  2  0  0  0  0
 14 32  1  0  0  0  0
 15 17  2  0  0  0  0
 15 33  1  0  0  0  0
 16 17  1  0  0  0  0
 16 34  1  0  0  0  0
M  END
>  <PUBCHEM_COMPOUND_CID>
131751428

>  <PUBCHEM_COMPOUND_CANONICALIZED>
1

>  <PUBCHEM_CACTVS_COMPLEXITY>
246

>  <PUBCHEM_CACTVS_HBOND_ACCEPTOR>
3

>  <PUBCHEM_CACTVS_HBOND_DONOR>
3

>  <PUBCHEM_CACTVS_ROTATABLE_BOND>
6

>  <PUBCHEM_CACTVS_SUBSKEYS>
AAADceBzMAAAAAAAAAAAAAAAAAAAAAAAAAAwAAAAAAAAAAABAAAAHgAQCAAADATBmAQwBoLAAgCIAiFSEACCAAAgIAAIiIAOCMgIJiKCkRKEcAAk1hGImYeAwAAOIAAAAAAAAABAAAAAAAAAAAAAAAAAAA==

>  <PUBCHEM_IUPAC_OPENEYE_NAME>
(Z)-N-(4-aminobutyl)-3-(4-hydroxyphenyl)prop-2-enamide

>  <PUBCHEM_IUPAC_CAS_NAME>
(Z)-N-(4-aminobutyl)-3-(4-hydroxyphenyl)-2-propenamide

>  <PUBCHEM_IUPAC_NAME>
(Z)-N-(4-aminobutyl)-3-(4-hydroxyphenyl)prop-2-enamide

>  <PUBCHEM_IUPAC_SYSTEMATIC_NAME>
(Z)-N-(4-azanylbutyl)-3-(4-hydroxyphenyl)prop-2-enamide

>  <PUBCHEM_IUPAC_TRADITIONAL_NAME>
(Z)-N-(4-aminobutyl)-3-(4-hydroxyphenyl)acrylamide

>  <PUBCHEM_IUPAC_INCHI>
InChI=1S/C13H18N2O2/c14-9-1-2-10-15-13(17)8-5-11-3-6-12(16)7-4-11/h3-8,16H,1-2,9-10,14H2,(H,15,17)/b8-5-

>  <PUBCHEM_IUPAC_INCHIKEY>
CJHDBEPXEKGBDW-YVMONPNESA-N

>  <PUBCHEM_EXACT_MASS>
234.137

>  <PUBCHEM_MOLECULAR_FORMULA>
C13H18N2O2

>  <PUBCHEM_MOLECULAR_WEIGHT>
234.299

>  <PUBCHEM_OPENEYE_CAN_SMILES>
C1=CC(=CC=C1C=CC(=O)NCCCCN)O

>  <PUBCHEM_OPENEYE_ISO_SMILES>
C1=CC(=CC=C1/C=C\C(=O)NCCCCN)O

>  <PUBCHEM_CACTVS_TPSA>
75.4

>  <PUBCHEM_MONOISOTOPIC_WEIGHT>
234.137

>  <PUBCHEM_TOTAL_CHARGE>
0

>  <PUBCHEM_HEAVY_ATOM_COUNT>
17

>  <PUBCHEM_ATOM_DEF_STEREO_COUNT>
0

>  <PUBCHEM_ATOM_UDEF_STEREO_COUNT>
0

>  <PUBCHEM_BOND_DEF_STEREO_COUNT>
1

>  <PUBCHEM_BOND_UDEF_STEREO_COUNT>
0

>  <PUBCHEM_ISOTOPIC_ATOM_COUNT>
0

>  <PUBCHEM_COMPONENT_COUNT>
1

>  <PUBCHEM_CACTVS_TAUTO_COUNT>
7

>  <PUBCHEM_COORDINATE_TYPE>
1
5
255

>  <PUBCHEM_BONDANNOTATIONS>
11  13  8
11  14  8
13  15  8
14  16  8
15  17  8
16  17  8

$$$$
