131750958
 OpenBabel06101807152D

102104  0  0  1  0  0  0  0  0999 V2000
    5.5443   -5.2509    0.0000 O   0  0  0  0  0  0  0  0  0  0  0  0
   17.2619    4.7141    0.0000 O   0  0  0  0  0  0  0  0  0  0  0  0
   20.1279    5.9462    0.0000 O   0  0  0  0  0  0  0  0  0  0  0  0
    4.5981   -4.9462    0.0000 C   0  0  1  0  0  0  0  0  0  0  0  0
    3.7320   -3.4462    0.0000 C   0  0  0  0  0  0  0  0  0  0  0  0
    4.5981   -3.9462    0.0000 C   0  0  0  0  0  0  0  0  0  0  0  0
    2.8660   -4.9462    0.0000 C   0  0  2  0  0  0  0  0  0  0  0  0
    3.7320   -5.4462    0.0000 C   0  0  0  0  0  0  0  0  0  0  0  0
    2.8660   -3.9462    0.0000 C   0  0  0  0  0  0  0  0  0  0  0  0
    5.5443   -3.6414    0.0000 C   0  0  0  0  0  0  0  0  0  0  0  0
    6.1279   -4.4462    0.0000 C   0  0  2  0  0  0  0  0  0  0  0  0
    4.5981   -5.9462    0.0000 C   0  0  0  0  0  0  0  0  0  0  0  0
    3.2320   -2.5801    0.0000 C   0  0  0  0  0  0  0  0  0  0  0  0
    4.2320   -2.5801    0.0000 C   0  0  0  0  0  0  0  0  0  0  0  0
    2.0000   -5.4462    0.0000 C   0  0  0  0  0  0  0  0  0  0  0  0
    7.1279   -4.4462    0.0000 C   0  0  0  0  0  0  0  0  0  0  0  0
   19.6279    3.3481    0.0000 C   0  0  0  0  0  0  0  0  0  0  0  0
   18.1279    4.2141    0.0000 C   0  0  2  0  0  0  0  0  0  0  0  0
   20.1279    4.2141    0.0000 C   0  0  0  0  0  0  0  0  0  0  0  0
   19.6279    5.0801    0.0000 C   0  0  1  0  0  0  0  0  0  0  0  0
   18.6279    5.0801    0.0000 C   0  0  0  0  0  0  0  0  0  0  0  0
   18.6279    3.3481    0.0000 C   0  0  0  0  0  0  0  0  0  0  0  0
    7.6279   -5.3122    0.0000 C   0  0  0  0  0  0  0  0  0  0  0  0
    7.6279   -3.5801    0.0000 C   0  0  0  0  0  0  0  0  0  0  0  0
   20.4939    2.8481    0.0000 C   0  0  0  0  0  0  0  0  0  0  0  0
   19.6279    2.3481    0.0000 C   0  0  0  0  0  0  0  0  0  0  0  0
   17.2619    3.7141    0.0000 C   0  0  0  0  0  0  0  0  0  0  0  0
    8.6279   -3.5801    0.0000 C   0  0  0  0  0  0  0  0  0  0  0  0
   18.1279    2.4820    0.0000 C   0  0  0  0  0  0  0  0  0  0  0  0
   17.6279    1.6160    0.0000 C   0  0  0  0  0  0  0  0  0  0  0  0
    9.1279   -2.7141    0.0000 C   0  0  0  0  0  0  0  0  0  0  0  0
   16.6279    1.6160    0.0000 C   0  0  0  0  0  0  0  0  0  0  0  0
   10.1279   -2.7141    0.0000 C   0  0  0  0  0  0  0  0  0  0  0  0
   16.1279    2.4820    0.0000 C   0  0  0  0  0  0  0  0  0  0  0  0
   16.1279    0.7500    0.0000 C   0  0  0  0  0  0  0  0  0  0  0  0
   10.6279   -3.5801    0.0000 C   0  0  0  0  0  0  0  0  0  0  0  0
   10.6279   -1.8481    0.0000 C   0  0  0  0  0  0  0  0  0  0  0  0
   15.1279    0.7500    0.0000 C   0  0  0  0  0  0  0  0  0  0  0  0
   11.6279   -1.8481    0.0000 C   0  0  0  0  0  0  0  0  0  0  0  0
   14.6279   -0.1160    0.0000 C   0  0  0  0  0  0  0  0  0  0  0  0
   12.1279   -0.9821    0.0000 C   0  0  0  0  0  0  0  0  0  0  0  0
   13.6279   -0.1160    0.0000 C   0  0  0  0  0  0  0  0  0  0  0  0
   13.1279   -0.9821    0.0000 C   0  0  0  0  0  0  0  0  0  0  0  0
   13.1279    0.7500    0.0000 C   0  0  0  0  0  0  0  0  0  0  0  0
    2.8660   -5.5662    0.0000 H   0  0  0  0  0  0  0  0  0  0  0  0
    3.3335   -5.9211    0.0000 H   0  0  0  0  0  0  0  0  0  0  0  0
    4.1306   -5.9211    0.0000 H   0  0  0  0  0  0  0  0  0  0  0  0
    2.6540   -3.3635    0.0000 H   0  0  0  0  0  0  0  0  0  0  0  0
    2.2554   -4.0538    0.0000 H   0  0  0  0  0  0  0  0  0  0  0  0
    5.7369   -3.0521    0.0000 H   0  0  0  0  0  0  0  0  0  0  0  0
    6.4096   -4.9984    0.0000 H   0  0  0  0  0  0  0  0  0  0  0  0
    3.9781   -5.9462    0.0000 H   0  0  0  0  0  0  0  0  0  0  0  0
    4.5981   -6.5662    0.0000 H   0  0  0  0  0  0  0  0  0  0  0  0
    5.2181   -5.9462    0.0000 H   0  0  0  0  0  0  0  0  0  0  0  0
    3.7690   -2.2701    0.0000 H   0  0  0  0  0  0  0  0  0  0  0  0
    2.9220   -2.0432    0.0000 H   0  0  0  0  0  0  0  0  0  0  0  0
    2.6951   -2.8901    0.0000 H   0  0  0  0  0  0  0  0  0  0  0  0
    4.7690   -2.8901    0.0000 H   0  0  0  0  0  0  0  0  0  0  0  0
    4.5420   -2.0432    0.0000 H   0  0  0  0  0  0  0  0  0  0  0  0
    3.6951   -2.2701    0.0000 H   0  0  0  0  0  0  0  0  0  0  0  0
    1.6900   -4.9092    0.0000 H   0  0  0  0  0  0  0  0  0  0  0  0
    1.4631   -5.7562    0.0000 H   0  0  0  0  0  0  0  0  0  0  0  0
    2.3100   -5.9831    0.0000 H   0  0  0  0  0  0  0  0  0  0  0  0
   20.6029    3.8156    0.0000 H   0  0  0  0  0  0  0  0  0  0  0  0
   20.6029    4.6126    0.0000 H   0  0  0  0  0  0  0  0  0  0  0  0
   19.3179    5.6171    0.0000 H   0  0  0  0  0  0  0  0  0  0  0  0
   18.7356    5.6907    0.0000 H   0  0  0  0  0  0  0  0  0  0  0  0
   18.0453    5.2922    0.0000 H   0  0  0  0  0  0  0  0  0  0  0  0
    7.0910   -5.6222    0.0000 H   0  0  0  0  0  0  0  0  0  0  0  0
    7.9379   -5.8491    0.0000 H   0  0  0  0  0  0  0  0  0  0  0  0
    8.1648   -5.0022    0.0000 H   0  0  0  0  0  0  0  0  0  0  0  0
    7.3179   -3.0432    0.0000 H   0  0  0  0  0  0  0  0  0  0  0  0
   20.1839    2.3111    0.0000 H   0  0  0  0  0  0  0  0  0  0  0  0
   21.0309    2.5381    0.0000 H   0  0  0  0  0  0  0  0  0  0  0  0
   20.8039    3.3850    0.0000 H   0  0  0  0  0  0  0  0  0  0  0  0
   19.0079    2.3481    0.0000 H   0  0  0  0  0  0  0  0  0  0  0  0
   19.6279    1.7281    0.0000 H   0  0  0  0  0  0  0  0  0  0  0  0
   20.2479    2.3481    0.0000 H   0  0  0  0  0  0  0  0  0  0  0  0
   16.9519    4.2510    0.0000 H   0  0  0  0  0  0  0  0  0  0  0  0
   16.7249    3.4041    0.0000 H   0  0  0  0  0  0  0  0  0  0  0  0
   17.5719    3.1772    0.0000 H   0  0  0  0  0  0  0  0  0  0  0  0
   17.2619    5.3341    0.0000 H   0  0  0  0  0  0  0  0  0  0  0  0
    8.9379   -4.1171    0.0000 H   0  0  0  0  0  0  0  0  0  0  0  0
   20.7479    5.9462    0.0000 H   0  0  0  0  0  0  0  0  0  0  0  0
   17.9379    1.0791    0.0000 H   0  0  0  0  0  0  0  0  0  0  0  0
    8.8179   -2.1772    0.0000 H   0  0  0  0  0  0  0  0  0  0  0  0
   16.6648    2.7920    0.0000 H   0  0  0  0  0  0  0  0  0  0  0  0
   15.8179    3.0190    0.0000 H   0  0  0  0  0  0  0  0  0  0  0  0
   15.5910    2.1720    0.0000 H   0  0  0  0  0  0  0  0  0  0  0  0
   16.4379    0.2131    0.0000 H   0  0  0  0  0  0  0  0  0  0  0  0
   10.0910   -3.8901    0.0000 H   0  0  0  0  0  0  0  0  0  0  0  0
   10.9379   -4.1171    0.0000 H   0  0  0  0  0  0  0  0  0  0  0  0
   11.1648   -3.2701    0.0000 H   0  0  0  0  0  0  0  0  0  0  0  0
   10.3179   -1.3111    0.0000 H   0  0  0  0  0  0  0  0  0  0  0  0
   14.8179    1.2869    0.0000 H   0  0  0  0  0  0  0  0  0  0  0  0
   11.9379   -2.3850    0.0000 H   0  0  0  0  0  0  0  0  0  0  0  0
   14.9379   -0.6530    0.0000 H   0  0  0  0  0  0  0  0  0  0  0  0
   11.8179   -0.4451    0.0000 H   0  0  0  0  0  0  0  0  0  0  0  0
   13.4379   -1.5190    0.0000 H   0  0  0  0  0  0  0  0  0  0  0  0
   13.6648    1.0600    0.0000 H   0  0  0  0  0  0  0  0  0  0  0  0
   12.8179    1.2869    0.0000 H   0  0  0  0  0  0  0  0  0  0  0  0
   12.5910    0.4400    0.0000 H   0  0  0  0  0  0  0  0  0  0  0  0
  1  4  1  0  0  0  0
  1 11  1  0  0  0  0
  2 82  1  0  0  0  0
  3 84  1  0  0  0  0
  4  6  1  0  0  0  0
  4  8  1  0  0  0  0
  4 12  1  1  0  0  0
  5  6  1  0  0  0  0
  5  9  1  0  0  0  0
  5 13  1  0  0  0  0
  5 14  1  0  0  0  0
  6 10  2  0  0  0  0
  7  8  1  0  0  0  0
  7  9  1  0  0  0  0
  7 15  1  0  0  0  0
  7 45  1  6  0  0  0
  8 46  1  0  0  0  0
  8 47  1  0  0  0  0
  9 48  1  0  0  0  0
  9 49  1  0  0  0  0
 10 11  1  0  0  0  0
 10 50  1  0  0  0  0
 11 16  1  0  0  0  0
 11 51  1  1  0  0  0
 12 52  1  0  0  0  0
 12 53  1  0  0  0  0
 12 54  1  0  0  0  0
 13 55  1  0  0  0  0
 13 56  1  0  0  0  0
 13 57  1  0  0  0  0
 14 58  1  0  0  0  0
 14 59  1  0  0  0  0
 14 60  1  0  0  0  0
 15 61  1  0  0  0  0
 15 62  1  0  0  0  0
 15 63  1  0  0  0  0
 16 23  1  0  0  0  0
 16 24  2  0  0  0  0
 17 19  1  0  0  0  0
 17 22  1  0  0  0  0
 17 25  1  0  0  0  0
 17 26  1  0  0  0  0
 18  2  1  6  0  0  0
 18 21  1  0  0  0  0
 18 22  1  0  0  0  0
 18 27  1  0  0  0  0
 19 20  1  0  0  0  0
 19 64  1  0  0  0  0
 19 65  1  0  0  0  0
 20  3  1  0  0  0  0
 20 21  1  0  0  0  0
 20 66  1  6  0  0  0
 21 67  1  0  0  0  0
 21 68  1  0  0  0  0
 22 29  2  0  0  0  0
 23 69  1  0  0  0  0
 23 70  1  0  0  0  0
 23 71  1  0  0  0  0
 24 28  1  0  0  0  0
 24 72  1  0  0  0  0
 25 73  1  0  0  0  0
 25 74  1  0  0  0  0
 25 75  1  0  0  0  0
 26 76  1  0  0  0  0
 26 77  1  0  0  0  0
 26 78  1  0  0  0  0
 27 79  1  0  0  0  0
 27 80  1  0  0  0  0
 27 81  1  0  0  0  0
 28 31  2  0  0  0  0
 28 83  1  0  0  0  0
 29 30  2  0  0  0  0
 30 32  1  0  0  0  0
 30 85  1  0  0  0  0
 31 33  1  0  0  0  0
 31 86  1  0  0  0  0
 32 34  1  0  0  0  0
 32 35  2  0  0  0  0
 33 36  1  0  0  0  0
 33 37  2  0  0  0  0
 34 87  1  0  0  0  0
 34 88  1  0  0  0  0
 34 89  1  0  0  0  0
 35 38  1  0  0  0  0
 35 90  1  0  0  0  0
 36 91  1  0  0  0  0
 36 92  1  0  0  0  0
 36 93  1  0  0  0  0
 37 39  1  0  0  0  0
 37 94  1  0  0  0  0
 38 40  2  0  0  0  0
 38 95  1  0  0  0  0
 39 41  2  0  0  0  0
 39 96  1  0  0  0  0
 40 42  1  0  0  0  0
 40 97  1  0  0  0  0
 41 43  1  0  0  0  0
 41 98  1  0  0  0  0
 42 43  2  0  0  0  0
 42 44  1  0  0  0  0
 43 99  1  0  0  0  0
 44100  1  0  0  0  0
 44101  1  0  0  0  0
 44102  1  0  0  0  0
M  END
>  <PUBCHEM_COMPOUND_CID>
131750958

>  <PUBCHEM_COMPOUND_CANONICALIZED>
1

>  <PUBCHEM_CACTVS_COMPLEXITY>
1380

>  <PUBCHEM_CACTVS_HBOND_ACCEPTOR>
3

>  <PUBCHEM_CACTVS_HBOND_DONOR>
2

>  <PUBCHEM_CACTVS_ROTATABLE_BOND>
8

>  <PUBCHEM_CACTVS_SUBSKEYS>
AAADcfB8MAAAAAAAAAAAAAAAAAAAAQAAAAAwYAAAAAAAAEAAAAAAGgAACAAAD1SggAICAAAABgCAAiBCAAAAAAAgAAAICAAAAAgIFAIAIQACUAAFgAAIsAOA4FQPAAAAAAAAAAAAAAYQAAAAAAAAAAAAAA==

>  <PUBCHEM_IUPAC_OPENEYE_NAME>
(1R,3S)-6-[(3E,5E,7E,9E,11E,13E,15E)-16-[(2R,6S,7aR)-4,4,6,7a-tetramethyl-2,5,6,7-tetrahydrobenzofuran-2-yl]-3,7,12-trimethyl-heptadeca-1,3,5,7,9,11,13,15-octaenylidene]-1,5,5-trimethyl-cyclohexane-1,3-diol

>  <PUBCHEM_IUPAC_CAS_NAME>
(1R,3S)-6-[(3E,5E,7E,9E,11E,13E,15E)-16-[(2R,6S,7aR)-4,4,6,7a-tetramethyl-2,5,6,7-tetrahydrobenzofuran-2-yl]-3,7,12-trimethylheptadeca-1,3,5,7,9,11,13,15-octaenylidene]-1,5,5-trimethylcyclohexane-1,3-diol

>  <PUBCHEM_IUPAC_NAME>
(1R,3S)-6-[(3E,5E,7E,9E,11E,13E,15E)-16-[(2R,6S,7aR)-4,4,6,7a-tetramethyl-2,5,6,7-tetrahydro-1-benzofuran-2-yl]-3,7,12-trimethylheptadeca-1,3,5,7,9,11,13,15-octaenylidene]-1,5,5-trimethylcyclohexane-1,3-diol

>  <PUBCHEM_IUPAC_SYSTEMATIC_NAME>
(1R,3S)-6-[(3E,5E,7E,9E,11E,13E,15E)-16-[(2R,6S,7aR)-4,4,6,7a-tetramethyl-2,5,6,7-tetrahydro-1-benzofuran-2-yl]-3,7,12-trimethyl-heptadeca-1,3,5,7,9,11,13,15-octaenylidene]-1,5,5-trimethyl-cyclohexane-1,3-diol

>  <PUBCHEM_IUPAC_TRADITIONAL_NAME>
(1R,3S)-6-[(3E,5E,7E,9E,11E,13E,15E)-16-[(2R,6S,7aR)-4,4,6,7a-tetramethyl-2,5,6,7-tetrahydrobenzofuran-2-yl]-3,7,12-trimethyl-heptadeca-1,3,5,7,9,11,13,15-octaenylidene]-1,5,5-trimethyl-cyclohexane-1,3-diol

>  <PUBCHEM_IUPAC_INCHI>
InChI=1S/C41H58O3/c1-29(18-14-19-31(3)22-23-36-39(8,9)27-34(42)28-40(36,10)43)16-12-13-17-30(2)20-15-21-33(5)35-24-37-38(6,7)25-32(4)26-41(37,11)44-35/h12-22,24,32,34-35,42-43H,25-28H2,1-11H3/b13-12+,18-14+,20-15+,29-16+,30-17+,31-19+,33-21+/t23?,32-,34-,35+,40+,41+/m0/s1

>  <PUBCHEM_IUPAC_INCHIKEY>
CLGFMDWNSYMFRK-YXUJYRLOSA-N

>  <PUBCHEM_EXACT_MASS>
598.439

>  <PUBCHEM_MOLECULAR_FORMULA>
C41H58O3

>  <PUBCHEM_MOLECULAR_WEIGHT>
598.912

>  <PUBCHEM_OPENEYE_CAN_SMILES>
CC1CC(C2=CC(OC2(C1)C)C(=CC=CC(=CC=CC=C(C)C=CC=C(C)C=C=C3C(CC(CC3(C)O)O)(C)C)C)C)(C)C

>  <PUBCHEM_OPENEYE_ISO_SMILES>
C[C@@H]1C[C@@]2(C(=C[C@@H](O2)/C(=C/C=C/C(=C/C=C/C=C(\C)/C=C/C=C(\C)/C=C=C3[C@](C[C@H](CC3(C)C)O)(C)O)/C)/C)C(C1)(C)C)C

>  <PUBCHEM_CACTVS_TPSA>
49.7

>  <PUBCHEM_MONOISOTOPIC_WEIGHT>
598.439

>  <PUBCHEM_TOTAL_CHARGE>
0

>  <PUBCHEM_HEAVY_ATOM_COUNT>
44

>  <PUBCHEM_ATOM_DEF_STEREO_COUNT>
5

>  <PUBCHEM_ATOM_UDEF_STEREO_COUNT>
0

>  <PUBCHEM_BOND_DEF_STEREO_COUNT>
7

>  <PUBCHEM_BOND_UDEF_STEREO_COUNT>
0

>  <PUBCHEM_ISOTOPIC_ATOM_COUNT>
0

>  <PUBCHEM_COMPONENT_COUNT>
1

>  <PUBCHEM_CACTVS_TAUTO_COUNT>
32

>  <PUBCHEM_COORDINATE_TYPE>
1
5
255

>  <PUBCHEM_BONDANNOTATIONS>
11  16  6
18  2  6
20  3  5
4  12  5
7  15  5

$$$$
