131752089
 OpenBabel06101807152D

100102  0  0  1  0  0  0  0  0999 V2000
    6.0812    4.8658    0.0000 O   0  0  0  0  0  0  0  0  0  0  0  0
   15.8673   -7.5365    0.0000 O   0  0  0  0  0  0  0  0  0  0  0  0
    2.5369    4.6705    0.0000 O   0  0  0  0  0  0  0  0  0  0  0  0
   13.8385   -3.7370    0.0000 O   0  0  0  0  0  0  0  0  0  0  0  0
   15.0309   -5.0878    0.0000 C   0  0  0  0  0  0  0  0  0  0  0  0
   14.1648   -5.5878    0.0000 C   0  0  3  0  0  0  0  0  0  0  0  0
   15.7740   -5.7570    0.0000 C   0  0  0  0  0  0  0  0  0  0  0  0
   14.3728   -6.5660    0.0000 C   0  0  0  0  0  0  0  0  0  0  0  0
   15.3673   -6.6705    0.0000 C   0  0  3  0  0  0  0  0  0  0  0  0
    5.1350    5.1705    0.0000 C   0  0  3  0  0  0  0  0  0  0  0  0
    4.2690    6.6705    0.0000 C   0  0  0  0  0  0  0  0  0  0  0  0
   15.7000   -4.3447    0.0000 C   0  0  0  0  0  0  0  0  0  0  0  0
   14.8572   -4.1030    0.0000 C   0  0  0  0  0  0  0  0  0  0  0  0
   13.1867   -5.7957    0.0000 C   0  0  0  0  0  0  0  0  0  0  0  0
    5.1350    6.1705    0.0000 C   0  0  0  0  0  0  0  0  0  0  0  0
   13.6648   -4.7218    0.0000 C   0  0  0  0  0  0  0  0  0  0  0  0
    4.2690    4.6705    0.0000 C   0  0  0  0  0  0  0  0  0  0  0  0
    3.4030    6.1705    0.0000 C   0  0  0  0  0  0  0  0  0  0  0  0
    3.4030    5.1705    0.0000 C   0  0  3  0  0  0  0  0  0  0  0  0
    6.0812    6.4752    0.0000 C   0  0  0  0  0  0  0  0  0  0  0  0
    6.6648    5.6705    0.0000 C   0  0  3  0  0  0  0  0  0  0  0  0
    5.1350    4.1705    0.0000 C   0  0  0  0  0  0  0  0  0  0  0  0
    3.7690    7.5365    0.0000 C   0  0  0  0  0  0  0  0  0  0  0  0
    4.7690    7.5365    0.0000 C   0  0  0  0  0  0  0  0  0  0  0  0
   12.6648   -4.7218    0.0000 C   0  0  0  0  0  0  0  0  0  0  0  0
    7.6648    5.6705    0.0000 C   0  0  0  0  0  0  0  0  0  0  0  0
   12.1648   -3.8558    0.0000 C   0  0  0  0  0  0  0  0  0  0  0  0
    8.1648    6.5365    0.0000 C   0  0  0  0  0  0  0  0  0  0  0  0
    8.1648    4.8045    0.0000 C   0  0  0  0  0  0  0  0  0  0  0  0
   11.1648   -3.8558    0.0000 C   0  0  0  0  0  0  0  0  0  0  0  0
    7.6648    3.9384    0.0000 C   0  0  0  0  0  0  0  0  0  0  0  0
   10.6648   -4.7218    0.0000 C   0  0  0  0  0  0  0  0  0  0  0  0
   10.6648   -2.9898    0.0000 C   0  0  0  0  0  0  0  0  0  0  0  0
    8.1648    3.0724    0.0000 C   0  0  0  0  0  0  0  0  0  0  0  0
   11.1648   -2.1237    0.0000 C   0  0  0  0  0  0  0  0  0  0  0  0
    7.6648    2.2064    0.0000 C   0  0  0  0  0  0  0  0  0  0  0  0
   10.6648   -1.2577    0.0000 C   0  0  0  0  0  0  0  0  0  0  0  0
    8.1648    1.3404    0.0000 C   0  0  0  0  0  0  0  0  0  0  0  0
    9.6648   -1.2577    0.0000 C   0  0  0  0  0  0  0  0  0  0  0  0
    7.6648    0.4744    0.0000 C   0  0  0  0  0  0  0  0  0  0  0  0
    9.1648    1.3404    0.0000 C   0  0  0  0  0  0  0  0  0  0  0  0
    9.1648   -0.3917    0.0000 C   0  0  0  0  0  0  0  0  0  0  0  0
    8.1648   -0.3917    0.0000 C   0  0  0  0  0  0  0  0  0  0  0  0
    9.1648   -2.1237    0.0000 C   0  0  0  0  0  0  0  0  0  0  0  0
   16.3109   -6.0670    0.0000 H   0  0  0  0  0  0  0  0  0  0  0  0
   16.1384   -5.2554    0.0000 H   0  0  0  0  0  0  0  0  0  0  0  0
   13.7561   -6.6308    0.0000 H   0  0  0  0  0  0  0  0  0  0  0  0
   14.3728   -7.1860    0.0000 H   0  0  0  0  0  0  0  0  0  0  0  0
   15.9864   -6.6380    0.0000 H   0  0  0  0  0  0  0  0  0  0  0  0
   15.4678   -3.9954    0.0000 H   0  0  0  0  0  0  0  0  0  0  0  0
   14.7496   -3.4924    0.0000 H   0  0  0  0  0  0  0  0  0  0  0  0
   14.2466   -4.2107    0.0000 H   0  0  0  0  0  0  0  0  0  0  0  0
   16.1607   -4.7595    0.0000 H   0  0  0  0  0  0  0  0  0  0  0  0
   16.1149   -3.8839    0.0000 H   0  0  0  0  0  0  0  0  0  0  0  0
   15.2392   -3.9298    0.0000 H   0  0  0  0  0  0  0  0  0  0  0  0
   13.0578   -5.1893    0.0000 H   0  0  0  0  0  0  0  0  0  0  0  0
   12.5802   -5.9246    0.0000 H   0  0  0  0  0  0  0  0  0  0  0  0
   13.3156   -6.4022    0.0000 H   0  0  0  0  0  0  0  0  0  0  0  0
    3.8705    4.1956    0.0000 H   0  0  0  0  0  0  0  0  0  0  0  0
    4.6675    4.1956    0.0000 H   0  0  0  0  0  0  0  0  0  0  0  0
    3.1909    6.7531    0.0000 H   0  0  0  0  0  0  0  0  0  0  0  0
    2.7924    6.0628    0.0000 H   0  0  0  0  0  0  0  0  0  0  0  0
    3.4030    4.5505    0.0000 H   0  0  0  0  0  0  0  0  0  0  0  0
    6.2738    7.0646    0.0000 H   0  0  0  0  0  0  0  0  0  0  0  0
    6.9466    5.1182    0.0000 H   0  0  0  0  0  0  0  0  0  0  0  0
    4.5150    4.1705    0.0000 H   0  0  0  0  0  0  0  0  0  0  0  0
    5.1350    3.5505    0.0000 H   0  0  0  0  0  0  0  0  0  0  0  0
    5.7550    4.1705    0.0000 H   0  0  0  0  0  0  0  0  0  0  0  0
    5.3059    7.2265    0.0000 H   0  0  0  0  0  0  0  0  0  0  0  0
    5.0790    8.0735    0.0000 H   0  0  0  0  0  0  0  0  0  0  0  0
    4.2320    7.8465    0.0000 H   0  0  0  0  0  0  0  0  0  0  0  0
    4.3059    7.8465    0.0000 H   0  0  0  0  0  0  0  0  0  0  0  0
    3.4590    8.0735    0.0000 H   0  0  0  0  0  0  0  0  0  0  0  0
    3.2320    7.2265    0.0000 H   0  0  0  0  0  0  0  0  0  0  0  0
   16.4873   -7.5365    0.0000 H   0  0  0  0  0  0  0  0  0  0  0  0
   12.3548   -5.2587    0.0000 H   0  0  0  0  0  0  0  0  0  0  0  0
    2.0000    4.9805    0.0000 H   0  0  0  0  0  0  0  0  0  0  0  0
   12.4748   -3.3188    0.0000 H   0  0  0  0  0  0  0  0  0  0  0  0
    8.7018    6.2265    0.0000 H   0  0  0  0  0  0  0  0  0  0  0  0
    8.4748    7.0735    0.0000 H   0  0  0  0  0  0  0  0  0  0  0  0
    7.6279    6.8465    0.0000 H   0  0  0  0  0  0  0  0  0  0  0  0
    8.7848    4.8045    0.0000 H   0  0  0  0  0  0  0  0  0  0  0  0
    7.0448    3.9384    0.0000 H   0  0  0  0  0  0  0  0  0  0  0  0
   10.1279   -4.4118    0.0000 H   0  0  0  0  0  0  0  0  0  0  0  0
   10.3548   -5.2587    0.0000 H   0  0  0  0  0  0  0  0  0  0  0  0
   11.2018   -5.0318    0.0000 H   0  0  0  0  0  0  0  0  0  0  0  0
   10.0448   -2.9898    0.0000 H   0  0  0  0  0  0  0  0  0  0  0  0
    8.7848    3.0724    0.0000 H   0  0  0  0  0  0  0  0  0  0  0  0
   11.7848   -2.1237    0.0000 H   0  0  0  0  0  0  0  0  0  0  0  0
    7.0448    2.2064    0.0000 H   0  0  0  0  0  0  0  0  0  0  0  0
   10.9748   -0.7208    0.0000 H   0  0  0  0  0  0  0  0  0  0  0  0
    7.0448    0.4744    0.0000 H   0  0  0  0  0  0  0  0  0  0  0  0
    9.1648    0.7204    0.0000 H   0  0  0  0  0  0  0  0  0  0  0  0
    9.7848    1.3404    0.0000 H   0  0  0  0  0  0  0  0  0  0  0  0
    9.1648    1.9604    0.0000 H   0  0  0  0  0  0  0  0  0  0  0  0
    9.4748    0.1453    0.0000 H   0  0  0  0  0  0  0  0  0  0  0  0
    7.8548   -0.9286    0.0000 H   0  0  0  0  0  0  0  0  0  0  0  0
    8.6279   -1.8137    0.0000 H   0  0  0  0  0  0  0  0  0  0  0  0
    8.8548   -2.6607    0.0000 H   0  0  0  0  0  0  0  0  0  0  0  0
    9.7018   -2.4337    0.0000 H   0  0  0  0  0  0  0  0  0  0  0  0
  1 10  1  0  0  0  0
  1 21  1  0  0  0  0
  2  9  1  0  0  0  0
  2 75  1  0  0  0  0
  3 19  1  0  0  0  0
  3 77  1  0  0  0  0
  4 16  2  0  0  0  0
  5  6  1  0  0  0  0
  5  7  1  0  0  0  0
  5 12  1  0  0  0  0
  5 13  1  0  0  0  0
  6  8  1  0  0  0  0
  6 14  1  0  0  0  0
  6 16  1  0  0  0  0
  7  9  1  0  0  0  0
  7 45  1  0  0  0  0
  7 46  1  0  0  0  0
  8  9  1  0  0  0  0
  8 47  1  0  0  0  0
  8 48  1  0  0  0  0
  9 49  1  0  0  0  0
 10 15  1  0  0  0  0
 10 17  1  0  0  0  0
 10 22  1  0  0  0  0
 11 15  1  0  0  0  0
 11 18  1  0  0  0  0
 11 23  1  0  0  0  0
 11 24  1  0  0  0  0
 12 53  1  0  0  0  0
 12 54  1  0  0  0  0
 12 55  1  0  0  0  0
 13 50  1  0  0  0  0
 13 51  1  0  0  0  0
 13 52  1  0  0  0  0
 14 56  1  0  0  0  0
 14 57  1  0  0  0  0
 14 58  1  0  0  0  0
 15 20  2  0  0  0  0
 16 25  1  0  0  0  0
 17 19  1  0  0  0  0
 17 59  1  0  0  0  0
 17 60  1  0  0  0  0
 18 19  1  0  0  0  0
 18 61  1  0  0  0  0
 18 62  1  0  0  0  0
 19 63  1  0  0  0  0
 20 21  1  0  0  0  0
 20 64  1  0  0  0  0
 21 26  1  0  0  0  0
 21 65  1  0  0  0  0
 22 66  1  0  0  0  0
 22 67  1  0  0  0  0
 22 68  1  0  0  0  0
 23 72  1  0  0  0  0
 23 73  1  0  0  0  0
 23 74  1  0  0  0  0
 24 69  1  0  0  0  0
 24 70  1  0  0  0  0
 24 71  1  0  0  0  0
 25 27  2  0  0  0  0
 25 76  1  0  0  0  0
 26 28  1  0  0  0  0
 26 29  2  0  0  0  0
 27 30  1  0  0  0  0
 27 78  1  0  0  0  0
 28 79  1  0  0  0  0
 28 80  1  0  0  0  0
 28 81  1  0  0  0  0
 29 31  1  0  0  0  0
 29 82  1  0  0  0  0
 30 32  1  0  0  0  0
 30 33  2  0  0  0  0
 31 34  2  0  0  0  0
 31 83  1  0  0  0  0
 32 84  1  0  0  0  0
 32 85  1  0  0  0  0
 32 86  1  0  0  0  0
 33 35  1  0  0  0  0
 33 87  1  0  0  0  0
 34 36  1  0  0  0  0
 34 88  1  0  0  0  0
 35 37  2  0  0  0  0
 35 89  1  0  0  0  0
 36 38  2  0  0  0  0
 36 90  1  0  0  0  0
 37 39  1  0  0  0  0
 37 91  1  0  0  0  0
 38 40  1  0  0  0  0
 38 41  1  0  0  0  0
 39 42  2  0  0  0  0
 39 44  1  0  0  0  0
 40 43  2  0  0  0  0
 40 92  1  0  0  0  0
 41 93  1  0  0  0  0
 41 94  1  0  0  0  0
 41 95  1  0  0  0  0
 42 43  1  0  0  0  0
 42 96  1  0  0  0  0
 43 97  1  0  0  0  0
 44 98  1  0  0  0  0
 44 99  1  0  0  0  0
 44100  1  0  0  0  0
M  END
>  <PUBCHEM_COMPOUND_CID>
131752089

>  <PUBCHEM_COMPOUND_CANONICALIZED>
1

>  <PUBCHEM_CACTVS_COMPLEXITY>
1360

>  <PUBCHEM_CACTVS_HBOND_ACCEPTOR>
4

>  <PUBCHEM_CACTVS_HBOND_DONOR>
2

>  <PUBCHEM_CACTVS_ROTATABLE_BOND>
10

>  <PUBCHEM_CACTVS_SUBSKEYS>
AAADcfB8OAAAAAAAAAAAAAAAAAAAAYIAAAAwAAAAAAAAAEAAAAAAGgAACAAADlSggAICAAAABgCIAqBSAAAAAAAgAAAICAEAAEgIFBIAIQACUAAFgAAIoYOK7NzPgAAAAAAAAAAAAAYQAAAAAIAACAAAAA==

>  <PUBCHEM_IUPAC_OPENEYE_NAME>
(2E,4Z,6Z,8E,10Z,12E,14E,16Z)-17-(6-hydroxy-4,4,7a-trimethyl-2,5,6,7-tetrahydrobenzofuran-2-yl)-1-(4-hydroxy-1,2,2-trimethyl-cyclopentyl)-4,8,12-trimethyl-octadeca-2,4,6,8,10,12,14,16-octaen-1-one

>  <PUBCHEM_IUPAC_CAS_NAME>
(2E,4Z,6Z,8E,10Z,12E,14E,16Z)-17-(6-hydroxy-4,4,7a-trimethyl-2,5,6,7-tetrahydrobenzofuran-2-yl)-1-(4-hydroxy-1,2,2-trimethylcyclopentyl)-4,8,12-trimethyl-1-octadeca-2,4,6,8,10,12,14,16-octaenone

>  <PUBCHEM_IUPAC_NAME>
(2E,4Z,6Z,8E,10Z,12E,14E,16Z)-17-(6-hydroxy-4,4,7a-trimethyl-2,5,6,7-tetrahydro-1-benzofuran-2-yl)-1-(4-hydroxy-1,2,2-trimethylcyclopentyl)-4,8,12-trimethyloctadeca-2,4,6,8,10,12,14,16-octaen-1-one

>  <PUBCHEM_IUPAC_SYSTEMATIC_NAME>
(2E,4Z,6Z,8E,10Z,12E,14E,16Z)-17-(4,4,7a-trimethyl-6-oxidanyl-2,5,6,7-tetrahydro-1-benzofuran-2-yl)-4,8,12-trimethyl-1-(1,2,2-trimethyl-4-oxidanyl-cyclopentyl)octadeca-2,4,6,8,10,12,14,16-octaen-1-one

>  <PUBCHEM_IUPAC_TRADITIONAL_NAME>
(2E,4Z,6Z,8E,10Z,12E,14E,16Z)-17-(6-hydroxy-4,4,7a-trimethyl-2,5,6,7-tetrahydrobenzofuran-2-yl)-1-(4-hydroxy-1,2,2-trimethyl-cyclopentyl)-4,8,12-trimethyl-octadeca-2,4,6,8,10,12,14,16-octaen-1-one

>  <PUBCHEM_IUPAC_INCHI>
InChI=1S/C40H56O4/c1-28(15-11-12-20-31(4)34-23-35-37(5,6)24-32(41)27-40(35,10)44-34)16-13-17-29(2)18-14-19-30(3)21-22-36(43)39(9)26-33(42)25-38(39,7)8/h11-23,32-34,41-42H,24-27H2,1-10H3/b12-11+,16-13-,18-14-,22-21+,28-15+,29-17+,30-19-,31-20-

>  <PUBCHEM_IUPAC_INCHIKEY>
PLVBBQBJTBWTDY-XGNSBGGRSA-N

>  <PUBCHEM_EXACT_MASS>
600.418

>  <PUBCHEM_MOLECULAR_FORMULA>
C40H56O4

>  <PUBCHEM_MOLECULAR_WEIGHT>
600.884

>  <PUBCHEM_OPENEYE_CAN_SMILES>
CC(=CC=CC=C(C)C1C=C2C(CC(CC2(O1)C)O)(C)C)C=CC=C(C)C=CC=C(C)C=CC(=O)C3(CC(CC3(C)C)O)C

>  <PUBCHEM_OPENEYE_ISO_SMILES>
C/C(=C\C=C\C=C(\C)/C1C=C2C(CC(CC2(O1)C)O)(C)C)/C=C\C=C(/C)\C=C/C=C(/C)\C=C\C(=O)C3(CC(CC3(C)C)O)C

>  <PUBCHEM_CACTVS_TPSA>
66.8

>  <PUBCHEM_MONOISOTOPIC_WEIGHT>
600.418

>  <PUBCHEM_TOTAL_CHARGE>
0

>  <PUBCHEM_HEAVY_ATOM_COUNT>
44

>  <PUBCHEM_ATOM_DEF_STEREO_COUNT>
0

>  <PUBCHEM_ATOM_UDEF_STEREO_COUNT>
5

>  <PUBCHEM_BOND_DEF_STEREO_COUNT>
8

>  <PUBCHEM_BOND_UDEF_STEREO_COUNT>
0

>  <PUBCHEM_ISOTOPIC_ATOM_COUNT>
0

>  <PUBCHEM_COMPONENT_COUNT>
1

>  <PUBCHEM_CACTVS_TAUTO_COUNT>
123

>  <PUBCHEM_COORDINATE_TYPE>
1
5
255

>  <PUBCHEM_BONDANNOTATIONS>
10  22  3
9  2  3
21  26  3
19  3  3
6  14  3

$$$$
