131752344
 OpenBabel06101807152D

 68 73  0  0  1  0  0  0  0  0999 V2000
    4.3217   -0.1721    0.0000 O   0  0  0  0  0  0  0  0  0  0  0  0
    6.9198   -0.6721    0.0000 O   0  0  0  0  0  0  0  0  0  0  0  0
   10.4518    1.3071    0.0000 O   0  0  0  0  0  0  0  0  0  0  0  0
    7.7858   -0.1721    0.0000 O   0  0  0  0  0  0  0  0  0  0  0  0
    9.5342    3.8625    0.0000 O   0  0  0  0  0  0  0  0  0  0  0  0
    6.5778    3.2676    0.0000 O   0  0  0  0  0  0  0  0  0  0  0  0
    5.5567    3.3051    0.0000 O   0  0  0  0  0  0  0  0  0  0  0  0
    2.5357    2.8730    0.0000 O   0  0  0  0  0  0  0  0  0  0  0  0
    3.4557   -3.6721    0.0000 O   0  0  0  0  0  0  0  0  0  0  0  0
    5.1877   -4.6721    0.0000 O   0  0  0  0  0  0  0  0  0  0  0  0
   13.9159    2.3621    0.0000 O   0  0  0  0  0  0  0  0  0  0  0  0
   13.9082    4.3621    0.0000 O   0  0  0  0  0  0  0  0  0  0  0  0
    6.0538    0.8279    0.0000 C   0  0  1  0  0  0  0  0  0  0  0  0
    6.0538   -0.1721    0.0000 C   0  0  1  0  0  0  0  0  0  0  0  0
    5.1877   -0.6721    0.0000 C   0  0  1  0  0  0  0  0  0  0  0  0
    6.9198    1.3279    0.0000 C   0  0  0  0  0  0  0  0  0  0  0  0
    5.1877    1.3279    0.0000 C   0  0  0  0  0  0  0  0  0  0  0  0
    8.6518    1.3279    0.0000 C   0  0  0  0  0  0  0  0  0  0  0  0
    8.6518    2.3279    0.0000 C   0  0  0  0  0  0  0  0  0  0  0  0
    7.7858    0.8279    0.0000 C   0  0  0  0  0  0  0  0  0  0  0  0
    9.5458    2.8626    0.0000 C   0  0  1  0  0  0  0  0  0  0  0  0
    4.3217    0.8279    0.0000 C   0  0  0  0  0  0  0  0  0  0  0  0
   10.4518    2.3487    0.0000 C   0  0  1  0  0  0  0  0  0  0  0  0
    6.9198    2.3279    0.0000 C   0  0  0  0  0  0  0  0  0  0  0  0
    5.1877   -1.6721    0.0000 C   0  0  0  0  0  0  0  0  0  0  0  0
    9.5458    0.7933    0.0000 C   0  0  0  0  0  0  0  0  0  0  0  0
    7.7858    2.8279    0.0000 C   0  0  0  0  0  0  0  0  0  0  0  0
    5.2038    2.3694    0.0000 C   0  0  0  0  0  0  0  0  0  0  0  0
    3.4117    1.3348    0.0000 C   0  0  0  0  0  0  0  0  0  0  0  0
   11.3159    2.8521    0.0000 C   0  0  0  0  0  0  0  0  0  0  0  0
    4.3058    2.8972    0.0000 C   0  0  0  0  0  0  0  0  0  0  0  0
    4.3217   -2.1721    0.0000 C   0  0  0  0  0  0  0  0  0  0  0  0
    6.0538   -2.1721    0.0000 C   0  0  0  0  0  0  0  0  0  0  0  0
    3.4037    2.3764    0.0000 C   0  0  0  0  0  0  0  0  0  0  0  0
   12.1839    2.3554    0.0000 C   0  0  0  0  0  0  0  0  0  0  0  0
   11.3121    3.8521    0.0000 C   0  0  0  0  0  0  0  0  0  0  0  0
    4.3217   -3.1721    0.0000 C   0  0  0  0  0  0  0  0  0  0  0  0
    6.0538   -3.1721    0.0000 C   0  0  0  0  0  0  0  0  0  0  0  0
    5.1877   -3.6721    0.0000 C   0  0  0  0  0  0  0  0  0  0  0  0
   13.0480    2.8588    0.0000 C   0  0  0  0  0  0  0  0  0  0  0  0
   12.1762    4.3554    0.0000 C   0  0  0  0  0  0  0  0  0  0  0  0
   13.0441    3.8587    0.0000 C   0  0  0  0  0  0  0  0  0  0  0  0
    6.7899    0.4029    0.0000 H   0  0  0  0  0  0  0  0  0  0  0  0
    6.0538   -0.7921    0.0000 H   0  0  0  0  0  0  0  0  0  0  0  0
    4.6508   -0.9821    0.0000 H   0  0  0  0  0  0  0  0  0  0  0  0
   10.0797    3.1778    0.0000 H   0  0  0  0  0  0  0  0  0  0  0  0
   10.4483    2.9687    0.0000 H   0  0  0  0  0  0  0  0  0  0  0  0
    9.1412    0.3235    0.0000 H   0  0  0  0  0  0  0  0  0  0  0  0
    9.9394    0.3142    0.0000 H   0  0  0  0  0  0  0  0  0  0  0  0
    7.7858    3.4479    0.0000 H   0  0  0  0  0  0  0  0  0  0  0  0
    6.9198   -1.2921    0.0000 H   0  0  0  0  0  0  0  0  0  0  0  0
    2.8784    1.0186    0.0000 H   0  0  0  0  0  0  0  0  0  0  0  0
    4.3082    3.5172    0.0000 H   0  0  0  0  0  0  0  0  0  0  0  0
    3.7848   -1.8621    0.0000 H   0  0  0  0  0  0  0  0  0  0  0  0
    6.5907   -1.8621    0.0000 H   0  0  0  0  0  0  0  0  0  0  0  0
    8.3227   -0.4821    0.0000 H   0  0  0  0  0  0  0  0  0  0  0  0
    8.9937    4.1663    0.0000 H   0  0  0  0  0  0  0  0  0  0  0  0
    6.9763    3.7426    0.0000 H   0  0  0  0  0  0  0  0  0  0  0  0
   12.1863    1.7354    0.0000 H   0  0  0  0  0  0  0  0  0  0  0  0
   10.7740    4.1600    0.0000 H   0  0  0  0  0  0  0  0  0  0  0  0
    5.1636    3.7846    0.0000 H   0  0  0  0  0  0  0  0  0  0  0  0
    6.5907   -3.4821    0.0000 H   0  0  0  0  0  0  0  0  0  0  0  0
   12.1738    4.9754    0.0000 H   0  0  0  0  0  0  0  0  0  0  0  0
    2.0000    2.5610    0.0000 H   0  0  0  0  0  0  0  0  0  0  0  0
    3.4557   -4.2921    0.0000 H   0  0  0  0  0  0  0  0  0  0  0  0
    5.7247   -4.9821    0.0000 H   0  0  0  0  0  0  0  0  0  0  0  0
   14.4517    2.6742    0.0000 H   0  0  0  0  0  0  0  0  0  0  0  0
   13.9058    4.9821    0.0000 H   0  0  0  0  0  0  0  0  0  0  0  0
  1 15  1  0  0  0  0
  1 22  1  0  0  0  0
  2 51  1  0  0  0  0
  3 23  1  0  0  0  0
  3 26  1  0  0  0  0
  4 20  1  0  0  0  0
  4 56  1  0  0  0  0
  5 57  1  0  0  0  0
  6 24  1  0  0  0  0
  6 58  1  0  0  0  0
  7 28  1  0  0  0  0
  7 61  1  0  0  0  0
  8 34  1  0  0  0  0
  8 64  1  0  0  0  0
  9 37  1  0  0  0  0
  9 65  1  0  0  0  0
 10 39  1  0  0  0  0
 10 66  1  0  0  0  0
 11 40  1  0  0  0  0
 11 67  1  0  0  0  0
 12 42  1  0  0  0  0
 12 68  1  0  0  0  0
 13 14  1  6  0  0  0
 13 16  1  0  0  0  0
 13 17  1  0  0  0  0
 13 43  1  0  0  0  0
 14  2  1  0  0  0  0
 14 15  1  6  0  0  0
 14 44  1  0  0  0  0
 15 25  1  0  0  0  0
 15 45  1  6  0  0  0
 16 20  1  0  0  0  0
 16 24  2  0  0  0  0
 17 22  1  0  0  0  0
 17 28  2  0  0  0  0
 18 19  1  0  0  0  0
 18 20  2  0  0  0  0
 18 26  1  0  0  0  0
 19 21  1  0  0  0  0
 19 27  2  0  0  0  0
 21  5  1  0  0  0  0
 21 23  1  6  0  0  0
 21 46  1  0  0  0  0
 22 29  2  0  0  0  0
 23 30  1  0  0  0  0
 23 47  1  6  0  0  0
 24 27  1  0  0  0  0
 25 32  2  0  0  0  0
 25 33  1  0  0  0  0
 26 48  1  0  0  0  0
 26 49  1  0  0  0  0
 27 50  1  0  0  0  0
 28 31  1  0  0  0  0
 29 34  1  0  0  0  0
 29 52  1  0  0  0  0
 30 35  2  0  0  0  0
 30 36  1  0  0  0  0
 31 34  2  0  0  0  0
 31 53  1  0  0  0  0
 32 37  1  0  0  0  0
 32 54  1  0  0  0  0
 33 38  2  0  0  0  0
 33 55  1  0  0  0  0
 35 40  1  0  0  0  0
 35 59  1  0  0  0  0
 36 41  2  0  0  0  0
 36 60  1  0  0  0  0
 37 39  2  0  0  0  0
 38 39  1  0  0  0  0
 38 62  1  0  0  0  0
 40 42  2  0  0  0  0
 41 42  1  0  0  0  0
 41 63  1  0  0  0  0
M  END
>  <PUBCHEM_COMPOUND_CID>
131752344

>  <PUBCHEM_COMPOUND_CANONICALIZED>
1

>  <PUBCHEM_CACTVS_COMPLEXITY>
925

>  <PUBCHEM_CACTVS_HBOND_ACCEPTOR>
12

>  <PUBCHEM_CACTVS_HBOND_DONOR>
10

>  <PUBCHEM_CACTVS_ROTATABLE_BOND>
3

>  <PUBCHEM_CACTVS_SUBSKEYS>
AAADceB4PAAAAAAAAAAAAAAAAAAAAAAAAAA0aMGCAAAAAACRVAAAGgAACAAADRSgmAIwBoAABgCAAiBCAAACCAAgIAAIiAAGiIgNNyKGMRqCeCGlwBULuAfA4PwO4AADCAAYQADAAAYQADCAAAAAAAAAAA==

>  <PUBCHEM_IUPAC_OPENEYE_NAME>
(3R,4S)-3-(3,4-dihydroxyphenyl)-7-[(2R,3S,4S)-2-(3,4-dihydroxyphenyl)-3,5,7-trihydroxy-chroman-4-yl]isochromane-4,6,8-triol

>  <PUBCHEM_IUPAC_CAS_NAME>
(3R,4S)-3-(3,4-dihydroxyphenyl)-7-[(2R,3S,4S)-2-(3,4-dihydroxyphenyl)-3,5,7-trihydroxy-3,4-dihydro-2H-1-benzopyran-4-yl]-3,4-dihydro-1H-2-benzopyran-4,6,8-triol

>  <PUBCHEM_IUPAC_NAME>
(3R,4S)-3-(3,4-dihydroxyphenyl)-7-[(2R,3S,4S)-2-(3,4-dihydroxyphenyl)-3,5,7-trihydroxy-3,4-dihydro-2H-chromen-4-yl]-3,4-dihydro-1H-isochromene-4,6,8-triol

>  <PUBCHEM_IUPAC_SYSTEMATIC_NAME>
(3R,4S)-3-[3,4-bis(oxidanyl)phenyl]-7-[(2R,3S,4S)-2-[3,4-bis(oxidanyl)phenyl]-3,5,7-tris(oxidanyl)-3,4-dihydro-2H-chromen-4-yl]-3,4-dihydro-1H-isochromene-4,6,8-triol

>  <PUBCHEM_IUPAC_TRADITIONAL_NAME>
(3R,4S)-3-(3,4-dihydroxyphenyl)-7-[(2R,3S,4S)-2-(3,4-dihydroxyphenyl)-3,5,7-trihydroxy-chroman-4-yl]isochroman-4,6,8-triol

>  <PUBCHEM_IUPAC_INCHI>
InChI=1S/C30H26O12/c31-13-7-20(36)23-22(8-13)42-30(12-2-4-17(33)19(35)6-12)28(40)25(23)24-21(37)9-14-15(26(24)38)10-41-29(27(14)39)11-1-3-16(32)18(34)5-11/h1-9,25,27-40H,10H2/t25-,27+,28+,29-,30-/m1/s1

>  <PUBCHEM_IUPAC_INCHIKEY>
OHIUVDQGXUITJQ-AARHSHDHSA-N

>  <PUBCHEM_EXACT_MASS>
578.142

>  <PUBCHEM_MOLECULAR_FORMULA>
C30H26O12

>  <PUBCHEM_MOLECULAR_WEIGHT>
578.526

>  <PUBCHEM_OPENEYE_CAN_SMILES>
C1C2=C(C(=C(C=C2C(C(O1)C3=CC(=C(C=C3)O)O)O)O)C4C(C(OC5=CC(=CC(=C45)O)O)C6=CC(=C(C=C6)O)O)O)O

>  <PUBCHEM_OPENEYE_ISO_SMILES>
C1C2=C(C(=C(C=C2[C@@H]([C@H](O1)C3=CC(=C(C=C3)O)O)O)O)[C@@H]4[C@@H]([C@H](OC5=CC(=CC(=C45)O)O)C6=CC(=C(C=C6)O)O)O)O

>  <PUBCHEM_CACTVS_TPSA>
221

>  <PUBCHEM_MONOISOTOPIC_WEIGHT>
578.142

>  <PUBCHEM_TOTAL_CHARGE>
0

>  <PUBCHEM_HEAVY_ATOM_COUNT>
42

>  <PUBCHEM_ATOM_DEF_STEREO_COUNT>
5

>  <PUBCHEM_ATOM_UDEF_STEREO_COUNT>
0

>  <PUBCHEM_BOND_DEF_STEREO_COUNT>
0

>  <PUBCHEM_BOND_UDEF_STEREO_COUNT>
0

>  <PUBCHEM_ISOTOPIC_ATOM_COUNT>
0

>  <PUBCHEM_COMPONENT_COUNT>
1

>  <PUBCHEM_CACTVS_TAUTO_COUNT>
986

>  <PUBCHEM_COORDINATE_TYPE>
1
5
255

>  <PUBCHEM_BONDANNOTATIONS>
13  43  5
15  25  5
16  20  8
16  24  8
17  22  8
17  28  8
18  19  8
18  20  8
19  27  8
14  2  6
22  29  8
23  30  5
24  27  8
25  32  8
25  33  8
28  31  8
29  34  8
30  35  8
30  36  8
31  34  8
32  37  8
33  38  8
35  40  8
36  41  8
37  39  8
38  39  8
40  42  8
41  42  8
21  5  6

$$$$
