131752885
 OpenBabel06101807152D

 50 54  0  0  1  0  0  0  0  0999 V2000
    5.8776    1.0057    0.0000 O   0  0  0  0  0  0  0  0  0  0  0  0
    2.1162   -1.3064    0.0000 O   0  0  0  0  0  0  0  0  0  0  0  0
    6.3731   -2.4003    0.0000 O   0  0  0  0  0  0  0  0  0  0  0  0
    8.2626   -1.9554    0.0000 O   0  0  0  0  0  0  0  0  0  0  0  0
    8.2994    1.5623    0.0000 O   0  0  0  0  0  0  0  0  0  0  0  0
    4.8007    2.2341    0.0000 O   0  0  0  0  0  0  0  0  0  0  0  0
    6.5267    2.0886    0.0000 O   0  0  0  0  0  0  0  0  0  0  0  0
    4.8095    0.1174    0.0000 C   0  0  3  0  0  0  0  0  0  0  0  0
    6.0235   -0.7282    0.0000 C   0  0  3  0  0  0  0  0  0  0  0  0
    5.1114   -0.7498    0.0000 C   0  0  3  0  0  0  0  0  0  0  0  0
    6.2865    0.1458    0.0000 C   0  0  3  0  0  0  0  0  0  0  0  0
    5.5377    0.6666    0.0000 C   0  0  3  0  0  0  0  0  0  0  0  0
    7.2038    0.3618    0.0000 C   0  0  3  0  0  0  0  0  0  0  0  0
    4.1135   -0.7150    0.0000 C   0  0  0  0  0  0  0  0  0  0  0  0
    3.0606   -0.9776    0.0000 C   0  0  3  0  0  0  0  0  0  0  0  0
    3.9426    0.4221    0.0000 C   0  0  0  0  0  0  0  0  0  0  0  0
    6.6612   -1.4428    0.0000 C   0  0  3  0  0  0  0  0  0  0  0  0
    4.6212   -1.5263    0.0000 C   0  0  0  0  0  0  0  0  0  0  0  0
    3.7088   -1.6276    0.0000 C   0  0  0  0  0  0  0  0  0  0  0  0
    7.8489   -0.3243    0.0000 C   0  0  0  0  0  0  0  0  0  0  0  0
    7.5774   -1.2270    0.0000 C   0  0  3  0  0  0  0  0  0  0  0  0
    3.1650   -0.0650    0.0000 C   0  0  0  0  0  0  0  0  0  0  0  0
    7.4686    1.0057    0.0000 C   0  0  0  0  0  0  0  0  0  0  0  0
    5.6217    1.6631    0.0000 C   0  0  0  0  0  0  0  0  0  0  0  0
    8.1872    0.5430    0.0000 C   0  0  0  0  0  0  0  0  0  0  0  0
    2.3614    0.5302    0.0000 C   0  0  0  0  0  0  0  0  0  0  0  0
    5.4171   -1.2892    0.0000 H   0  0  0  0  0  0  0  0  0  0  0  0
    6.4025    0.7549    0.0000 H   0  0  0  0  0  0  0  0  0  0  0  0
    4.9949    0.9663    0.0000 H   0  0  0  0  0  0  0  0  0  0  0  0
    4.0706   -1.3335    0.0000 H   0  0  0  0  0  0  0  0  0  0  0  0
    4.6886   -0.9466    0.0000 H   0  0  0  0  0  0  0  0  0  0  0  0
    4.2732    0.9466    0.0000 H   0  0  0  0  0  0  0  0  0  0  0  0
    3.5048    0.8611    0.0000 H   0  0  0  0  0  0  0  0  0  0  0  0
    6.0560   -1.5770    0.0000 H   0  0  0  0  0  0  0  0  0  0  0  0
    4.5506   -2.1423    0.0000 H   0  0  0  0  0  0  0  0  0  0  0  0
    5.2060   -1.7322    0.0000 H   0  0  0  0  0  0  0  0  0  0  0  0
    3.1834   -1.9567    0.0000 H   0  0  0  0  0  0  0  0  0  0  0  0
    3.9127   -2.2131    0.0000 H   0  0  0  0  0  0  0  0  0  0  0  0
    8.4025   -0.6034    0.0000 H   0  0  0  0  0  0  0  0  0  0  0  0
    8.2199    0.1724    0.0000 H   0  0  0  0  0  0  0  0  0  0  0  0
    8.1809   -1.0848    0.0000 H   0  0  0  0  0  0  0  0  0  0  0  0
    8.2995   -0.0667    0.0000 H   0  0  0  0  0  0  0  0  0  0  0  0
    8.7969    0.6554    0.0000 H   0  0  0  0  0  0  0  0  0  0  0  0
    8.0749    1.1528    0.0000 H   0  0  0  0  0  0  0  0  0  0  0  0
    2.0000   -1.9154    0.0000 H   0  0  0  0  0  0  0  0  0  0  0  0
    6.7979   -2.8519    0.0000 H   0  0  0  0  0  0  0  0  0  0  0  0
    2.4318    1.1462    0.0000 H   0  0  0  0  0  0  0  0  0  0  0  0
    1.7927    0.2832    0.0000 H   0  0  0  0  0  0  0  0  0  0  0  0
    8.8661   -1.8132    0.0000 H   0  0  0  0  0  0  0  0  0  0  0  0
    4.8528    2.8519    0.0000 H   0  0  0  0  0  0  0  0  0  0  0  0
  1  9  1  0  0  0  0
  1 23  1  0  0  0  0
  2 15  1  0  0  0  0
  2 45  1  0  0  0  0
  3 17  1  0  0  0  0
  3 46  1  0  0  0  0
  4 21  1  0  0  0  0
  4 49  1  0  0  0  0
  5 23  2  0  0  0  0
  6 24  1  0  0  0  0
  6 50  1  0  0  0  0
  7 24  2  0  0  0  0
  8 10  1  0  0  0  0
  8 12  1  0  0  0  0
  8 14  1  0  0  0  0
  8 16  1  0  0  0  0
  9 10  1  0  0  0  0
  9 11  1  0  0  0  0
  9 17  1  0  0  0  0
 10 18  1  0  0  0  0
 10 27  1  0  0  0  0
 11 12  1  0  0  0  0
 11 13  1  0  0  0  0
 11 28  1  0  0  0  0
 12 24  1  0  0  0  0
 12 29  1  0  0  0  0
 13 20  1  0  0  0  0
 13 23  1  0  0  0  0
 13 25  1  0  0  0  0
 14 15  1  0  0  0  0
 14 30  1  0  0  0  0
 14 31  1  0  0  0  0
 15 19  1  0  0  0  0
 15 22  1  0  0  0  0
 16 22  1  0  0  0  0
 16 32  1  0  0  0  0
 16 33  1  0  0  0  0
 17 21  1  0  0  0  0
 17 34  1  0  0  0  0
 18 19  1  0  0  0  0
 18 35  1  0  0  0  0
 18 36  1  0  0  0  0
 19 37  1  0  0  0  0
 19 38  1  0  0  0  0
 20 21  1  0  0  0  0
 20 39  1  0  0  0  0
 20 40  1  0  0  0  0
 21 41  1  0  0  0  0
 22 26  2  0  0  0  0
 25 42  1  0  0  0  0
 25 43  1  0  0  0  0
 25 44  1  0  0  0  0
 26 47  1  0  0  0  0
 26 48  1  0  0  0  0
M  END
>  <PUBCHEM_COMPOUND_CID>
131752885

>  <PUBCHEM_COMPOUND_CANONICALIZED>
1

>  <PUBCHEM_CACTVS_COMPLEXITY>
763

>  <PUBCHEM_CACTVS_HBOND_ACCEPTOR>
7

>  <PUBCHEM_CACTVS_HBOND_DONOR>
4

>  <PUBCHEM_CACTVS_ROTATABLE_BOND>
1

>  <PUBCHEM_CACTVS_SUBSKEYS>
AAADceB4OAAAAAAAAAAAAAAAAAAAAaMEAAAwYAAABogSAGDAAAAAGgAACAAAD1SggAICCAAABgCIAgDSCAAAAAAgAAAAAAEAAAgBFBIAAQACQAAFgAADEAHK7vzPgAAAAAAAAADAAAYQADCAAYAADAAAAA==

>  <PUBCHEM_IUPAC_INCHI>
InChI=1S/C19H24O7/c1-8-5-17-7-18(8,25)4-3-10(17)19-12(11(17)14(22)23)16(2,15(24)26-19)6-9(20)13(19)21/h9-13,20-21,25H,1,3-7H2,2H3,(H,22,23)

>  <PUBCHEM_IUPAC_INCHIKEY>
VDQMXBWLDLPSSR-UHFFFAOYSA-N

>  <PUBCHEM_EXACT_MASS>
364.152

>  <PUBCHEM_MOLECULAR_FORMULA>
C19H24O7

>  <PUBCHEM_MOLECULAR_WEIGHT>
364.394

>  <PUBCHEM_OPENEYE_CAN_SMILES>
CC12CC(C(C3(C1C(C45C3CCC(C4)(C(=C)C5)O)C(=O)O)OC2=O)O)O

>  <PUBCHEM_OPENEYE_ISO_SMILES>
CC12CC(C(C3(C1C(C45C3CCC(C4)(C(=C)C5)O)C(=O)O)OC2=O)O)O

>  <PUBCHEM_CACTVS_TPSA>
124

>  <PUBCHEM_MONOISOTOPIC_WEIGHT>
364.152

>  <PUBCHEM_TOTAL_CHARGE>
0

>  <PUBCHEM_HEAVY_ATOM_COUNT>
26

>  <PUBCHEM_ATOM_DEF_STEREO_COUNT>
0

>  <PUBCHEM_ATOM_UDEF_STEREO_COUNT>
9

>  <PUBCHEM_BOND_DEF_STEREO_COUNT>
0

>  <PUBCHEM_BOND_UDEF_STEREO_COUNT>
0

>  <PUBCHEM_ISOTOPIC_ATOM_COUNT>
0

>  <PUBCHEM_COMPONENT_COUNT>
1

>  <PUBCHEM_CACTVS_TAUTO_COUNT>
1

>  <PUBCHEM_COORDINATE_TYPE>
1
5
255

>  <PUBCHEM_BONDANNOTATIONS>
9  1  3
10  18  3
11  12  3
12  24  3
13  25  3
15  2  3
17  3  3
21  4  3
8  14  3

$$$$
