131753166
 OpenBabel06101807152D

104112  0  0  1  0  0  0  0  0999 V2000
   10.1740   -0.3547    0.0000 O   0  0  0  0  0  0  0  0  0  0  0  0
    5.8735   -0.3610    0.0000 O   0  0  0  0  0  0  0  0  0  0  0  0
    5.1350   -3.6866    0.0000 O   0  0  0  0  0  0  0  0  0  0  0  0
    6.8671   -3.6866    0.0000 O   0  0  0  0  0  0  0  0  0  0  0  0
    9.6342    3.1537    0.0000 O   0  0  0  0  0  0  0  0  0  0  0  0
    5.1350   -6.6866    0.0000 O   0  0  0  0  0  0  0  0  0  0  0  0
    6.8671   -5.6866    0.0000 O   0  0  0  0  0  0  0  0  0  0  0  0
    3.4030   -5.6866    0.0000 O   0  0  0  0  0  0  0  0  0  0  0  0
    3.4458    2.2285    0.0000 O   0  0  0  0  0  0  0  0  0  0  0  0
    5.1350   -0.6866    0.0000 O   0  0  0  0  0  0  0  0  0  0  0  0
    2.5369   -4.1866    0.0000 O   0  0  0  0  0  0  0  0  0  0  0  0
   12.1783   -4.0689    0.0000 O   0  0  0  0  0  0  0  0  0  0  0  0
    8.8652   -3.7550    0.0000 O   0  0  0  0  0  0  0  0  0  0  0  0
    9.7478    6.3860    0.0000 O   0  0  0  0  0  0  0  0  0  0  0  0
    7.1065    0.6735    0.0000 C   0  0  3  0  0  0  0  0  0  0  0  0
    8.5991   -0.6866    0.0000 C   0  0  3  0  0  0  0  0  0  0  0  0
    8.7022    0.3022    0.0000 C   0  0  0  0  0  0  0  0  0  0  0  0
    8.0343    1.0465    0.0000 C   0  0  0  0  0  0  0  0  0  0  0  0
    9.5069   -1.0917    0.0000 C   0  0  3  0  0  0  0  0  0  0  0  0
    6.8652   -0.2909    0.0000 C   0  0  3  0  0  0  0  0  0  0  0  0
    6.2648    1.2024    0.0000 C   0  0  0  0  0  0  0  0  0  0  0  0
    9.6807    0.5084    0.0000 C   0  0  0  0  0  0  0  0  0  0  0  0
    7.7331   -1.1866    0.0000 C   0  0  0  0  0  0  0  0  0  0  0  0
    5.4988    0.5597    0.0000 C   0  0  0  0  0  0  0  0  0  0  0  0
    8.3450    1.9970    0.0000 C   0  0  0  0  0  0  0  0  0  0  0  0
   10.1747   -1.8360    0.0000 C   0  0  0  0  0  0  0  0  0  0  0  0
    7.3652   -1.1569    0.0000 C   0  0  0  0  0  0  0  0  0  0  0  0
    9.9913    1.4589    0.0000 C   0  0  0  0  0  0  0  0  0  0  0  0
    6.0912    2.1872    0.0000 C   0  0  0  0  0  0  0  0  0  0  0  0
    9.3235    2.2032    0.0000 C   0  0  0  0  0  0  0  0  0  0  0  0
    7.7331   -2.1866    0.0000 C   0  0  0  0  0  0  0  0  0  0  0  0
    5.1350   -5.6866    0.0000 C   0  0  3  0  0  0  0  0  0  0  0  0
    6.0010   -5.1866    0.0000 C   0  0  3  0  0  0  0  0  0  0  0  0
    4.2690   -5.1866    0.0000 C   0  0  3  0  0  0  0  0  0  0  0  0
    6.0010   -4.1866    0.0000 C   0  0  3  0  0  0  0  0  0  0  0  0
    6.8671   -0.6866    0.0000 C   0  0  0  0  0  0  0  0  0  0  0  0
    4.2690   -4.1866    0.0000 C   0  0  3  0  0  0  0  0  0  0  0  0
    4.5591    0.9017    0.0000 C   0  0  0  0  0  0  0  0  0  0  0  0
    6.8671   -2.6866    0.0000 C   0  0  0  0  0  0  0  0  0  0  0  0
    5.1515    2.5293    0.0000 C   0  0  0  0  0  0  0  0  0  0  0  0
    9.8641   -2.7865    0.0000 C   0  0  0  0  0  0  0  0  0  0  0  0
   11.1532   -1.6298    0.0000 C   0  0  0  0  0  0  0  0  0  0  0  0
    6.8652   -2.0229    0.0000 C   0  0  0  0  0  0  0  0  0  0  0  0
    8.3652   -1.1569    0.0000 C   0  0  0  0  0  0  0  0  0  0  0  0
    4.3854    1.8865    0.0000 C   0  0  0  0  0  0  0  0  0  0  0  0
    6.0010   -1.1866    0.0000 C   0  0  0  0  0  0  0  0  0  0  0  0
    6.8572    2.8300    0.0000 C   0  0  0  0  0  0  0  0  0  0  0  0
    6.0010   -2.1866    0.0000 C   0  0  0  0  0  0  0  0  0  0  0  0
    3.4030   -3.6866    0.0000 C   0  0  0  0  0  0  0  0  0  0  0  0
   10.5320   -3.5308    0.0000 C   0  0  0  0  0  0  0  0  0  0  0  0
   11.8211   -2.3741    0.0000 C   0  0  0  0  0  0  0  0  0  0  0  0
    7.3652   -2.8890    0.0000 C   0  0  0  0  0  0  0  0  0  0  0  0
    8.8652   -2.0229    0.0000 C   0  0  0  0  0  0  0  0  0  0  0  0
   11.5104   -3.3246    0.0000 C   0  0  0  0  0  0  0  0  0  0  0  0
    8.3652   -2.8890    0.0000 C   0  0  0  0  0  0  0  0  0  0  0  0
    6.6836    3.8148    0.0000 C   0  0  0  0  0  0  0  0  0  0  0  0
    7.4496    4.4576    0.0000 C   0  0  0  0  0  0  0  0  0  0  0  0
    8.3893    4.1156    0.0000 C   0  0  0  0  0  0  0  0  0  0  0  0
    7.2760    5.4424    0.0000 C   0  0  0  0  0  0  0  0  0  0  0  0
    9.1554    4.7584    0.0000 C   0  0  0  0  0  0  0  0  0  0  0  0
    8.0420    6.0852    0.0000 C   0  0  0  0  0  0  0  0  0  0  0  0
    8.9817    5.7432    0.0000 C   0  0  0  0  0  0  0  0  0  0  0  0
    7.5738    0.2662    0.0000 H   0  0  0  0  0  0  0  0  0  0  0  0
    8.6313   -1.3057    0.0000 H   0  0  0  0  0  0  0  0  0  0  0  0
    9.1418   -1.5928    0.0000 H   0  0  0  0  0  0  0  0  0  0  0  0
    7.4792   -0.2048    0.0000 H   0  0  0  0  0  0  0  0  0  0  0  0
    7.9309    2.4584    0.0000 H   0  0  0  0  0  0  0  0  0  0  0  0
   10.5980    1.5868    0.0000 H   0  0  0  0  0  0  0  0  0  0  0  0
    8.2700   -2.4966    0.0000 H   0  0  0  0  0  0  0  0  0  0  0  0
    4.5981   -5.9966    0.0000 H   0  0  0  0  0  0  0  0  0  0  0  0
    6.0010   -5.8066    0.0000 H   0  0  0  0  0  0  0  0  0  0  0  0
    4.2690   -5.8066    0.0000 H   0  0  0  0  0  0  0  0  0  0  0  0
    6.0010   -3.5666    0.0000 H   0  0  0  0  0  0  0  0  0  0  0  0
    6.8671   -0.0666    0.0000 H   0  0  0  0  0  0  0  0  0  0  0  0
    4.2690   -3.5666    0.0000 H   0  0  0  0  0  0  0  0  0  0  0  0
    4.0842    0.5031    0.0000 H   0  0  0  0  0  0  0  0  0  0  0  0
    5.0438    3.1398    0.0000 H   0  0  0  0  0  0  0  0  0  0  0  0
    9.2575   -2.9144    0.0000 H   0  0  0  0  0  0  0  0  0  0  0  0
   11.3459   -1.0404    0.0000 H   0  0  0  0  0  0  0  0  0  0  0  0
    6.2452   -2.0230    0.0000 H   0  0  0  0  0  0  0  0  0  0  0  0
    8.6752   -0.6200    0.0000 H   0  0  0  0  0  0  0  0  0  0  0  0
    7.4398    2.6180    0.0000 H   0  0  0  0  0  0  0  0  0  0  0  0
    5.4641   -2.4966    0.0000 H   0  0  0  0  0  0  0  0  0  0  0  0
    3.8015   -3.2116    0.0000 H   0  0  0  0  0  0  0  0  0  0  0  0
    3.0044   -3.2116    0.0000 H   0  0  0  0  0  0  0  0  0  0  0  0
   10.3394   -4.1201    0.0000 H   0  0  0  0  0  0  0  0  0  0  0  0
   12.4278   -2.2462    0.0000 H   0  0  0  0  0  0  0  0  0  0  0  0
    7.0552   -3.4259    0.0000 H   0  0  0  0  0  0  0  0  0  0  0  0
    9.4852   -2.0229    0.0000 H   0  0  0  0  0  0  0  0  0  0  0  0
   10.2408    3.2816    0.0000 H   0  0  0  0  0  0  0  0  0  0  0  0
    5.6720   -6.9966    0.0000 H   0  0  0  0  0  0  0  0  0  0  0  0
    7.4040   -5.3766    0.0000 H   0  0  0  0  0  0  0  0  0  0  0  0
    3.4030   -6.3066    0.0000 H   0  0  0  0  0  0  0  0  0  0  0  0
    6.1010    4.0269    0.0000 H   0  0  0  0  0  0  0  0  0  0  0  0
    3.3381    2.8391    0.0000 H   0  0  0  0  0  0  0  0  0  0  0  0
    4.5981   -0.9966    0.0000 H   0  0  0  0  0  0  0  0  0  0  0  0
    2.0000   -3.8766    0.0000 H   0  0  0  0  0  0  0  0  0  0  0  0
   12.7849   -3.9410    0.0000 H   0  0  0  0  0  0  0  0  0  0  0  0
    8.5552   -4.2919    0.0000 H   0  0  0  0  0  0  0  0  0  0  0  0
    8.4970    3.5050    0.0000 H   0  0  0  0  0  0  0  0  0  0  0  0
    6.6934    5.6545    0.0000 H   0  0  0  0  0  0  0  0  0  0  0  0
    9.7380    4.5463    0.0000 H   0  0  0  0  0  0  0  0  0  0  0  0
    7.9344    6.6958    0.0000 H   0  0  0  0  0  0  0  0  0  0  0  0
    9.6401    6.9966    0.0000 H   0  0  0  0  0  0  0  0  0  0  0  0
  1 19  1  0  0  0  0
  1 22  1  0  0  0  0
  2 20  1  0  0  0  0
  2 24  1  0  0  0  0
  3 35  1  0  0  0  0
  3 37  1  0  0  0  0
  4 35  1  0  0  0  0
  4 39  1  0  0  0  0
  5 30  1  0  0  0  0
  5 90  1  0  0  0  0
  6 32  1  0  0  0  0
  6 91  1  0  0  0  0
  7 33  1  0  0  0  0
  7 92  1  0  0  0  0
  8 34  1  0  0  0  0
  8 93  1  0  0  0  0
  9 45  1  0  0  0  0
  9 95  1  0  0  0  0
 10 46  1  0  0  0  0
 10 96  1  0  0  0  0
 11 49  1  0  0  0  0
 11 97  1  0  0  0  0
 12 54  1  0  0  0  0
 12 98  1  0  0  0  0
 13 55  1  0  0  0  0
 13 99  1  0  0  0  0
 14 62  1  0  0  0  0
 14104  1  0  0  0  0
 15 18  1  0  0  0  0
 15 20  1  0  0  0  0
 15 21  1  0  0  0  0
 15 63  1  0  0  0  0
 16 17  1  0  0  0  0
 16 19  1  0  0  0  0
 16 23  1  0  0  0  0
 16 64  1  0  0  0  0
 17 18  2  0  0  0  0
 17 22  1  0  0  0  0
 18 25  1  0  0  0  0
 19 26  1  0  0  0  0
 19 65  1  0  0  0  0
 20 27  1  0  0  0  0
 20 66  1  0  0  0  0
 21 24  1  0  0  0  0
 21 29  2  0  0  0  0
 22 28  2  0  0  0  0
 23 31  1  0  0  0  0
 23 36  2  0  0  0  0
 24 38  2  0  0  0  0
 25 30  2  0  0  0  0
 25 67  1  0  0  0  0
 26 41  2  0  0  0  0
 26 42  1  0  0  0  0
 27 43  2  0  0  0  0
 27 44  1  0  0  0  0
 28 30  1  0  0  0  0
 28 68  1  0  0  0  0
 29 40  1  0  0  0  0
 29 47  1  0  0  0  0
 31 39  2  0  0  0  0
 31 69  1  0  0  0  0
 32 33  1  0  0  0  0
 32 34  1  0  0  0  0
 32 70  1  0  0  0  0
 33 35  1  0  0  0  0
 33 71  1  0  0  0  0
 34 37  1  0  0  0  0
 34 72  1  0  0  0  0
 35 73  1  0  0  0  0
 36 46  1  0  0  0  0
 36 74  1  0  0  0  0
 37 49  1  0  0  0  0
 37 75  1  0  0  0  0
 38 45  1  0  0  0  0
 38 76  1  0  0  0  0
 39 48  1  0  0  0  0
 40 45  2  0  0  0  0
 40 77  1  0  0  0  0
 41 50  1  0  0  0  0
 41 78  1  0  0  0  0
 42 51  2  0  0  0  0
 42 79  1  0  0  0  0
 43 52  1  0  0  0  0
 43 80  1  0  0  0  0
 44 53  2  0  0  0  0
 44 81  1  0  0  0  0
 46 48  2  0  0  0  0
 47 56  2  0  0  0  0
 47 82  1  0  0  0  0
 48 83  1  0  0  0  0
 49 84  1  0  0  0  0
 49 85  1  0  0  0  0
 50 54  2  0  0  0  0
 50 86  1  0  0  0  0
 51 54  1  0  0  0  0
 51 87  1  0  0  0  0
 52 55  2  0  0  0  0
 52 88  1  0  0  0  0
 53 55  1  0  0  0  0
 53 89  1  0  0  0  0
 56 57  1  0  0  0  0
 56 94  1  0  0  0  0
 57 58  2  0  0  0  0
 57 59  1  0  0  0  0
 58 60  1  0  0  0  0
 58100  1  0  0  0  0
 59 61  2  0  0  0  0
 59101  1  0  0  0  0
 60 62  2  0  0  0  0
 60102  1  0  0  0  0
 61 62  1  0  0  0  0
 61103  1  0  0  0  0
M  END
>  <PUBCHEM_COMPOUND_CID>
131753166

>  <PUBCHEM_COMPOUND_CANONICALIZED>
1

>  <PUBCHEM_CACTVS_COMPLEXITY>
1460

>  <PUBCHEM_CACTVS_HBOND_ACCEPTOR>
14

>  <PUBCHEM_CACTVS_HBOND_DONOR>
10

>  <PUBCHEM_CACTVS_ROTATABLE_BOND>
9

>  <PUBCHEM_CACTVS_SUBSKEYS>
AAADcfB8PAAAAAAAAAAAAAAAAAAAASJAAAA0YMGDAAAAAEgBVAAAGgAACAAADRSwmAMwDoAABgCAAiBCAAACCAAgIAAIiAAGCIgdNyKGMRqieCClwBUPuAfA4PwOoAABCAAYAABAAAIQADAAAAAAAAAAAA==

>  <PUBCHEM_IUPAC_OPENEYE_NAME>
2-[3-hydroxy-5-[6-hydroxy-4-[6-hydroxy-2-(4-hydroxyphenyl)-4-[(E)-2-(4-hydroxyphenyl)vinyl]-2,3-dihydrobenzofuran-3-yl]-2-(4-hydroxyphenyl)-2,3-dihydrobenzofuran-3-yl]phenoxy]-6-(hydroxymethyl)tetrahydropyran-3,4,5-triol

>  <PUBCHEM_IUPAC_CAS_NAME>
2-[3-hydroxy-5-[6-hydroxy-4-[6-hydroxy-2-(4-hydroxyphenyl)-4-[(E)-2-(4-hydroxyphenyl)ethenyl]-2,3-dihydrobenzofuran-3-yl]-2-(4-hydroxyphenyl)-2,3-dihydrobenzofuran-3-yl]phenoxy]-6-(hydroxymethyl)oxane-3,4,5-triol

>  <PUBCHEM_IUPAC_NAME>
2-[3-hydroxy-5-[6-hydroxy-4-[6-hydroxy-2-(4-hydroxyphenyl)-4-[(E)-2-(4-hydroxyphenyl)ethenyl]-2,3-dihydro-1-benzofuran-3-yl]-2-(4-hydroxyphenyl)-2,3-dihydro-1-benzofuran-3-yl]phenoxy]-6-(hydroxymethyl)oxane-3,4,5-triol

>  <PUBCHEM_IUPAC_SYSTEMATIC_NAME>
2-(hydroxymethyl)-6-[3-[2-(4-hydroxyphenyl)-4-[2-(4-hydroxyphenyl)-4-[(E)-2-(4-hydroxyphenyl)ethenyl]-6-oxidanyl-2,3-dihydro-1-benzofuran-3-yl]-6-oxidanyl-2,3-dihydro-1-benzofuran-3-yl]-5-oxidanyl-phenoxy]oxane-3,4,5-triol

>  <PUBCHEM_IUPAC_TRADITIONAL_NAME>
2-[3-hydroxy-5-[6-hydroxy-4-[6-hydroxy-2-(4-hydroxyphenyl)-4-[(E)-2-(4-hydroxyphenyl)vinyl]coumaran-3-yl]-2-(4-hydroxyphenyl)coumaran-3-yl]phenoxy]-6-methylol-tetrahydropyran-3,4,5-triol

>  <PUBCHEM_IUPAC_INCHI>
InChI=1S/C48H42O14/c49-22-38-43(56)44(57)45(58)48(62-38)59-34-17-27(16-31(53)18-34)40-41-35(19-33(55)21-37(41)61-46(40)24-5-11-29(51)12-6-24)42-39-26(4-1-23-2-9-28(50)10-3-23)15-32(54)20-36(39)60-47(42)25-7-13-30(52)14-8-25/h1-21,38,40,42-58H,22H2/b4-1+

>  <PUBCHEM_IUPAC_INCHIKEY>
SZKVNSODIJRAET-DAFODLJHSA-N

>  <PUBCHEM_EXACT_MASS>
842.257

>  <PUBCHEM_MOLECULAR_FORMULA>
C48H42O14

>  <PUBCHEM_MOLECULAR_WEIGHT>
842.85

>  <PUBCHEM_OPENEYE_CAN_SMILES>
C1=CC(=CC=C1C=CC2=CC(=CC3=C2C(C(O3)C4=CC=C(C=C4)O)C5=CC(=CC6=C5C(C(O6)C7=CC=C(C=C7)O)C8=CC(=CC(=C8)OC9C(C(C(C(O9)CO)O)O)O)O)O)O)O

>  <PUBCHEM_OPENEYE_ISO_SMILES>
C1=CC(=CC=C1/C=C/C2=CC(=CC3=C2C(C(O3)C4=CC=C(C=C4)O)C5=CC(=CC6=C5C(C(O6)C7=CC=C(C=C7)O)C8=CC(=CC(=C8)OC9C(C(C(C(O9)CO)O)O)O)O)O)O)O

>  <PUBCHEM_CACTVS_TPSA>
239

>  <PUBCHEM_MONOISOTOPIC_WEIGHT>
842.257

>  <PUBCHEM_TOTAL_CHARGE>
0

>  <PUBCHEM_HEAVY_ATOM_COUNT>
62

>  <PUBCHEM_ATOM_DEF_STEREO_COUNT>
0

>  <PUBCHEM_ATOM_UDEF_STEREO_COUNT>
9

>  <PUBCHEM_BOND_DEF_STEREO_COUNT>
1

>  <PUBCHEM_BOND_UDEF_STEREO_COUNT>
0

>  <PUBCHEM_ISOTOPIC_ATOM_COUNT>
0

>  <PUBCHEM_COMPONENT_COUNT>
1

>  <PUBCHEM_CACTVS_TAUTO_COUNT>
994

>  <PUBCHEM_COORDINATE_TYPE>
1
5
255

>  <PUBCHEM_BONDANNOTATIONS>
15  18  3
16  23  3
17  18  8
17  22  8
18  25  8
19  26  3
20  27  3
21  24  8
21  29  8
22  28  8
23  31  8
23  36  8
24  38  8
25  30  8
26  41  8
26  42  8
27  43  8
27  44  8
28  30  8
29  40  8
31  39  8
36  46  8
37  49  3
38  45  8
39  48  8
35  4  3
40  45  8
41  50  8
42  51  8
43  52  8
44  53  8
46  48  8
50  54  8
51  54  8
52  55  8
53  55  8
57  58  8
57  59  8
58  60  8
59  61  8
32  6  3
60  62  8
61  62  8
33  7  3
34  8  3

$$$$
