131751494
 OpenBabel06101807152D

 76 79  0  0  1  0  0  0  0  0999 V2000
    2.5357   -3.9288    0.0000 O   0  0  0  0  0  0  0  0  0  0  0  0
    7.9288   -0.8765    0.0000 C   0  0  3  0  0  0  0  0  0  0  0  0
    7.9288   -1.8765    0.0000 C   0  0  3  0  0  0  0  0  0  0  0  0
    8.8750   -0.5717    0.0000 C   0  0  3  0  0  0  0  0  0  0  0  0
    6.1968   -1.8765    0.0000 C   0  0  3  0  0  0  0  0  0  0  0  0
    7.0628   -0.3765    0.0000 C   0  0  0  0  0  0  0  0  0  0  0  0
    7.0628   -2.3765    0.0000 C   0  0  0  0  0  0  0  0  0  0  0  0
    8.8750   -2.1812    0.0000 C   0  0  0  0  0  0  0  0  0  0  0  0
    5.2868   -2.3833    0.0000 C   0  0  3  0  0  0  0  0  0  0  0  0
    9.4586   -1.3765    0.0000 C   0  0  0  0  0  0  0  0  0  0  0  0
    6.1968   -0.8765    0.0000 C   0  0  0  0  0  0  0  0  0  0  0  0
    7.9288    0.1235    0.0000 C   0  0  0  0  0  0  0  0  0  0  0  0
    9.1857    0.3788    0.0000 C   0  0  3  0  0  0  0  0  0  0  0  0
    5.2787   -3.4249    0.0000 C   0  0  0  0  0  0  0  0  0  0  0  0
    4.3599   -1.8192    0.0000 C   0  0  0  0  0  0  0  0  0  0  0  0
    7.0789   -3.4180    0.0000 C   0  0  0  0  0  0  0  0  0  0  0  0
    5.2945   -1.3834    0.0000 C   0  0  0  0  0  0  0  0  0  0  0  0
    6.1808   -3.9457    0.0000 C   0  0  0  0  0  0  0  0  0  0  0  0
    4.3433   -3.9746    0.0000 C   0  0  0  0  0  0  0  0  0  0  0  0
    3.4120   -2.3472    0.0000 C   0  0  0  0  0  0  0  0  0  0  0  0
    3.4037   -3.4322    0.0000 C   0  0  3  0  0  0  0  0  0  0  0  0
    8.5179    1.1231    0.0000 C   0  0  0  0  0  0  0  0  0  0  0  0
   10.1642    0.5850    0.0000 C   0  0  0  0  0  0  0  0  0  0  0  0
   10.4749    1.5355    0.0000 C   0  0  0  0  0  0  0  0  0  0  0  0
    9.8070    2.2798    0.0000 C   0  0  3  0  0  0  0  0  0  0  0  0
   10.1177    3.2303    0.0000 C   0  0  0  0  0  0  0  0  0  0  0  0
    8.8285    2.0736    0.0000 C   0  0  0  0  0  0  0  0  0  0  0  0
    9.4498    3.9746    0.0000 C   0  0  0  0  0  0  0  0  0  0  0  0
   11.0962    3.4366    0.0000 C   0  0  0  0  0  0  0  0  0  0  0  0
    8.1607    2.8179    0.0000 C   0  0  0  0  0  0  0  0  0  0  0  0
    7.9944   -2.4930    0.0000 H   0  0  0  0  0  0  0  0  0  0  0  0
    9.4875   -0.4755    0.0000 H   0  0  0  0  0  0  0  0  0  0  0  0
    6.7337   -1.5665    0.0000 H   0  0  0  0  0  0  0  0  0  0  0  0
    7.4613    0.0985    0.0000 H   0  0  0  0  0  0  0  0  0  0  0  0
    6.6643    0.0985    0.0000 H   0  0  0  0  0  0  0  0  0  0  0  0
    8.6240   -2.7481    0.0000 H   0  0  0  0  0  0  0  0  0  0  0  0
    9.4124   -2.4904    0.0000 H   0  0  0  0  0  0  0  0  0  0  0  0
    9.9195   -1.7912    0.0000 H   0  0  0  0  0  0  0  0  0  0  0  0
    9.9195   -0.9617    0.0000 H   0  0  0  0  0  0  0  0  0  0  0  0
    5.9847   -0.2939    0.0000 H   0  0  0  0  0  0  0  0  0  0  0  0
    5.5862   -0.9841    0.0000 H   0  0  0  0  0  0  0  0  0  0  0  0
    8.5488    0.1235    0.0000 H   0  0  0  0  0  0  0  0  0  0  0  0
    7.9288    0.7435    0.0000 H   0  0  0  0  0  0  0  0  0  0  0  0
    7.3088    0.1235    0.0000 H   0  0  0  0  0  0  0  0  0  0  0  0
    9.3783    0.9681    0.0000 H   0  0  0  0  0  0  0  0  0  0  0  0
    4.7681   -1.3526    0.0000 H   0  0  0  0  0  0  0  0  0  0  0  0
    3.9700   -1.3372    0.0000 H   0  0  0  0  0  0  0  0  0  0  0  0
    7.6193   -3.7218    0.0000 H   0  0  0  0  0  0  0  0  0  0  0  0
    5.9145   -1.3881    0.0000 H   0  0  0  0  0  0  0  0  0  0  0  0
    5.2993   -0.7634    0.0000 H   0  0  0  0  0  0  0  0  0  0  0  0
    4.6745   -1.3786    0.0000 H   0  0  0  0  0  0  0  0  0  0  0  0
    6.1832   -4.5657    0.0000 H   0  0  0  0  0  0  0  0  0  0  0  0
    3.9460   -4.4506    0.0000 H   0  0  0  0  0  0  0  0  0  0  0  0
    4.7443   -4.4475    0.0000 H   0  0  0  0  0  0  0  0  0  0  0  0
    3.2075   -1.7619    0.0000 H   0  0  0  0  0  0  0  0  0  0  0  0
    2.8004   -2.4486    0.0000 H   0  0  0  0  0  0  0  0  0  0  0  0
    3.4025   -4.0521    0.0000 H   0  0  0  0  0  0  0  0  0  0  0  0
    8.9793    1.5372    0.0000 H   0  0  0  0  0  0  0  0  0  0  0  0
    8.1038    1.5845    0.0000 H   0  0  0  0  0  0  0  0  0  0  0  0
    8.0564    0.7090    0.0000 H   0  0  0  0  0  0  0  0  0  0  0  0
   10.5783    0.1235    0.0000 H   0  0  0  0  0  0  0  0  0  0  0  0
   11.0815    1.6634    0.0000 H   0  0  0  0  0  0  0  0  0  0  0  0
    2.0000   -3.6167    0.0000 H   0  0  0  0  0  0  0  0  0  0  0  0
    9.6144    1.6905    0.0000 H   0  0  0  0  0  0  0  0  0  0  0  0
   10.3103    3.8197    0.0000 H   0  0  0  0  0  0  0  0  0  0  0  0
    8.3022    1.7460    0.0000 H   0  0  0  0  0  0  0  0  0  0  0  0
    9.0598    1.4984    0.0000 H   0  0  0  0  0  0  0  0  0  0  0  0
    9.9113    4.3887    0.0000 H   0  0  0  0  0  0  0  0  0  0  0  0
    9.0358    4.4361    0.0000 H   0  0  0  0  0  0  0  0  0  0  0  0
    8.9884    3.5606    0.0000 H   0  0  0  0  0  0  0  0  0  0  0  0
   11.2241    2.8299    0.0000 H   0  0  0  0  0  0  0  0  0  0  0  0
   11.7029    3.5644    0.0000 H   0  0  0  0  0  0  0  0  0  0  0  0
   10.9683    4.0432    0.0000 H   0  0  0  0  0  0  0  0  0  0  0  0
    8.6221    3.2320    0.0000 H   0  0  0  0  0  0  0  0  0  0  0  0
    7.7466    3.2794    0.0000 H   0  0  0  0  0  0  0  0  0  0  0  0
    7.6992    2.4038    0.0000 H   0  0  0  0  0  0  0  0  0  0  0  0
  1 21  1  0  0  0  0
  1 63  1  0  0  0  0
  2  3  1  0  0  0  0
  2  4  1  0  0  0  0
  2  6  1  0  0  0  0
  2 12  1  0  0  0  0
  3  7  1  0  0  0  0
  3  8  1  0  0  0  0
  3 31  1  0  0  0  0
  4 10  1  0  0  0  0
  4 13  1  0  0  0  0
  4 32  1  0  0  0  0
  5  7  1  0  0  0  0
  5  9  1  0  0  0  0
  5 11  1  0  0  0  0
  5 33  1  0  0  0  0
  6 11  1  0  0  0  0
  6 34  1  0  0  0  0
  6 35  1  0  0  0  0
  7 16  2  0  0  0  0
  8 10  1  0  0  0  0
  8 36  1  0  0  0  0
  8 37  1  0  0  0  0
  9 14  1  0  0  0  0
  9 15  1  0  0  0  0
  9 17  1  0  0  0  0
 10 38  1  0  0  0  0
 10 39  1  0  0  0  0
 11 40  1  0  0  0  0
 11 41  1  0  0  0  0
 12 42  1  0  0  0  0
 12 43  1  0  0  0  0
 12 44  1  0  0  0  0
 13 22  1  0  0  0  0
 13 23  1  0  0  0  0
 13 45  1  0  0  0  0
 14 18  2  0  0  0  0
 14 19  1  0  0  0  0
 15 20  1  0  0  0  0
 15 46  1  0  0  0  0
 15 47  1  0  0  0  0
 16 18  1  0  0  0  0
 16 48  1  0  0  0  0
 17 49  1  0  0  0  0
 17 50  1  0  0  0  0
 17 51  1  0  0  0  0
 18 52  1  0  0  0  0
 19 21  1  0  0  0  0
 19 53  1  0  0  0  0
 19 54  1  0  0  0  0
 20 21  1  0  0  0  0
 20 55  1  0  0  0  0
 20 56  1  0  0  0  0
 21 57  1  0  0  0  0
 22 58  1  0  0  0  0
 22 59  1  0  0  0  0
 22 60  1  0  0  0  0
 23 24  2  0  0  0  0
 23 61  1  0  0  0  0
 24 25  1  0  0  0  0
 24 62  1  0  0  0  0
 25 26  1  0  0  0  0
 25 27  1  0  0  0  0
 25 64  1  0  0  0  0
 26 28  1  0  0  0  0
 26 29  1  0  0  0  0
 26 65  1  0  0  0  0
 27 30  1  0  0  0  0
 27 66  1  0  0  0  0
 27 67  1  0  0  0  0
 28 68  1  0  0  0  0
 28 69  1  0  0  0  0
 28 70  1  0  0  0  0
 29 71  1  0  0  0  0
 29 72  1  0  0  0  0
 29 73  1  0  0  0  0
 30 74  1  0  0  0  0
 30 75  1  0  0  0  0
 30 76  1  0  0  0  0
M  END
>  <PUBCHEM_COMPOUND_CID>
131751494

>  <PUBCHEM_COMPOUND_CANONICALIZED>
1

>  <PUBCHEM_CACTVS_COMPLEXITY>
727

>  <PUBCHEM_CACTVS_HBOND_ACCEPTOR>
1

>  <PUBCHEM_CACTVS_HBOND_DONOR>
1

>  <PUBCHEM_CACTVS_ROTATABLE_BOND>
5

>  <PUBCHEM_CACTVS_SUBSKEYS>
AAADcfB4IAAAAAAAAAAAAAAAAAAAAYAAAAAwYIAAAAAAAGCAAAAAGgAACAAADxSggAICAAAAAgCAAiBCAAAAAAAgAAAICAAAAAgIEAIAAQAAQAAEwAAIgAOAwPAPgAAAAAAAAADAAAQAACAAAQAACAAAAA==

>  <PUBCHEM_IUPAC_OPENEYE_NAME>
17-[(Z)-4-ethyl-1,5-dimethyl-hex-2-enyl]-10,13-dimethyl-2,3,4,9,11,12,14,15,16,17-decahydro-1H-cyclopenta[a]phenanthren-3-ol

>  <PUBCHEM_IUPAC_CAS_NAME>
17-[(Z)-5-ethyl-6-methylhept-3-en-2-yl]-10,13-dimethyl-2,3,4,9,11,12,14,15,16,17-decahydro-1H-cyclopenta[a]phenanthren-3-ol

>  <PUBCHEM_IUPAC_NAME>
17-[(Z)-5-ethyl-6-methylhept-3-en-2-yl]-10,13-dimethyl-2,3,4,9,11,12,14,15,16,17-decahydro-1H-cyclopenta[a]phenanthren-3-ol

>  <PUBCHEM_IUPAC_SYSTEMATIC_NAME>
17-[(Z)-5-ethyl-6-methyl-hept-3-en-2-yl]-10,13-dimethyl-2,3,4,9,11,12,14,15,16,17-decahydro-1H-cyclopenta[a]phenanthren-3-ol

>  <PUBCHEM_IUPAC_TRADITIONAL_NAME>
17-[(Z)-4-ethyl-1,5-dimethyl-hex-2-enyl]-10,13-dimethyl-2,3,4,9,11,12,14,15,16,17-decahydro-1H-cyclopenta[a]phenanthren-3-ol

>  <PUBCHEM_IUPAC_INCHI>
InChI=1S/C29H46O/c1-7-21(19(2)3)9-8-20(4)25-12-13-26-24-11-10-22-18-23(30)14-16-28(22,5)27(24)15-17-29(25,26)6/h8-11,19-21,23,25-27,30H,7,12-18H2,1-6H3/b9-8-

>  <PUBCHEM_IUPAC_INCHIKEY>
OQMZNAMGEHIHNN-HJWRWDBZSA-N

>  <PUBCHEM_EXACT_MASS>
410.355

>  <PUBCHEM_MOLECULAR_FORMULA>
C29H46O

>  <PUBCHEM_MOLECULAR_WEIGHT>
410.686

>  <PUBCHEM_OPENEYE_CAN_SMILES>
CCC(C=CC(C)C1CCC2C1(CCC3C2=CC=C4C3(CCC(C4)O)C)C)C(C)C

>  <PUBCHEM_OPENEYE_ISO_SMILES>
CCC(/C=C\C(C)C1CCC2C1(CCC3C2=CC=C4C3(CCC(C4)O)C)C)C(C)C

>  <PUBCHEM_CACTVS_TPSA>
20.2

>  <PUBCHEM_MONOISOTOPIC_WEIGHT>
410.355

>  <PUBCHEM_TOTAL_CHARGE>
0

>  <PUBCHEM_HEAVY_ATOM_COUNT>
30

>  <PUBCHEM_ATOM_DEF_STEREO_COUNT>
0

>  <PUBCHEM_ATOM_UDEF_STEREO_COUNT>
8

>  <PUBCHEM_BOND_DEF_STEREO_COUNT>
1

>  <PUBCHEM_BOND_UDEF_STEREO_COUNT>
0

>  <PUBCHEM_ISOTOPIC_ATOM_COUNT>
0

>  <PUBCHEM_COMPONENT_COUNT>
1

>  <PUBCHEM_CACTVS_TAUTO_COUNT>
1

>  <PUBCHEM_COORDINATE_TYPE>
1
5
255

>  <PUBCHEM_BONDANNOTATIONS>
21  1  3
13  22  3
2  12  3
25  27  3
3  8  3
4  10  3
5  11  3
9  17  3

$$$$
