131752588
 OpenBabel06101807152D

 60 63  0  0  1  0  0  0  0  0999 V2000
    8.5991   -2.7839    0.0000 O   0  0  0  0  0  0  0  0  0  0  0  0
   10.3312   -2.7839    0.0000 O   0  0  0  0  0  0  0  0  0  0  0  0
    6.8671   -4.7839    0.0000 O   0  0  0  0  0  0  0  0  0  0  0  0
    8.5991   -5.7839    0.0000 O   0  0  0  0  0  0  0  0  0  0  0  0
   10.3312   -4.7839    0.0000 O   0  0  0  0  0  0  0  0  0  0  0  0
    6.0010   -3.2839    0.0000 O   0  0  0  0  0  0  0  0  0  0  0  0
   12.0871    0.2786    0.0000 O   0  0  0  0  0  0  0  0  0  0  0  0
    8.5849    0.2952    0.0000 O   0  0  0  0  0  0  0  0  0  0  0  0
    5.1350   -1.7839    0.0000 O   0  0  0  0  0  0  0  0  0  0  0  0
    9.4948    1.7886    0.0000 O   0  0  0  0  0  0  0  0  0  0  0  0
    2.5369   -3.2839    0.0000 O   0  0  0  0  0  0  0  0  0  0  0  0
   12.9628    2.7752    0.0000 O   0  0  0  0  0  0  0  0  0  0  0  0
    3.4030   -1.7839    0.0000 O   0  0  0  0  0  0  0  0  0  0  0  0
   11.2423    5.7819    0.0000 O   0  0  0  0  0  0  0  0  0  0  0  0
    7.7331   -4.2839    0.0000 C   0  0  3  0  0  0  0  0  0  0  0  0
    8.5991   -4.7839    0.0000 C   0  0  3  0  0  0  0  0  0  0  0  0
    7.7331   -3.2839    0.0000 C   0  0  3  0  0  0  0  0  0  0  0  0
    9.4651   -4.2839    0.0000 C   0  0  3  0  0  0  0  0  0  0  0  0
    9.4651   -3.2839    0.0000 C   0  0  3  0  0  0  0  0  0  0  0  0
    6.8671   -2.7839    0.0000 C   0  0  0  0  0  0  0  0  0  0  0  0
   10.3312   -1.7839    0.0000 C   0  0  0  0  0  0  0  0  0  0  0  0
   11.2312   -1.2596    0.0000 C   0  0  0  0  0  0  0  0  0  0  0  0
    9.4311   -1.2596    0.0000 C   0  0  0  0  0  0  0  0  0  0  0  0
   11.2192   -0.2181    0.0000 C   0  0  0  0  0  0  0  0  0  0  0  0
    5.1350   -2.7839    0.0000 C   0  0  0  0  0  0  0  0  0  0  0  0
   10.3551    0.2852    0.0000 C   0  0  0  0  0  0  0  0  0  0  0  0
    9.4431   -0.2181    0.0000 C   0  0  0  0  0  0  0  0  0  0  0  0
   10.3589    1.2852    0.0000 C   0  0  0  0  0  0  0  0  0  0  0  0
    4.2690   -3.2839    0.0000 C   0  0  0  0  0  0  0  0  0  0  0  0
   11.2269    1.7819    0.0000 C   0  0  0  0  0  0  0  0  0  0  0  0
   12.0910    1.2786    0.0000 C   0  0  0  0  0  0  0  0  0  0  0  0
   11.2307    2.7819    0.0000 C   0  0  0  0  0  0  0  0  0  0  0  0
    3.4030   -2.7839    0.0000 C   0  0  0  0  0  0  0  0  0  0  0  0
   12.0987    3.2786    0.0000 C   0  0  0  0  0  0  0  0  0  0  0  0
   10.3667    3.2852    0.0000 C   0  0  0  0  0  0  0  0  0  0  0  0
   12.1025    4.2785    0.0000 C   0  0  0  0  0  0  0  0  0  0  0  0
   10.3705    4.2852    0.0000 C   0  0  0  0  0  0  0  0  0  0  0  0
   11.2385    4.7819    0.0000 C   0  0  0  0  0  0  0  0  0  0  0  0
    7.7331   -4.9039    0.0000 H   0  0  0  0  0  0  0  0  0  0  0  0
    9.1360   -5.0939    0.0000 H   0  0  0  0  0  0  0  0  0  0  0  0
    7.7331   -2.6639    0.0000 H   0  0  0  0  0  0  0  0  0  0  0  0
    9.4651   -4.9039    0.0000 H   0  0  0  0  0  0  0  0  0  0  0  0
   10.0021   -3.5939    0.0000 H   0  0  0  0  0  0  0  0  0  0  0  0
    7.2656   -2.3090    0.0000 H   0  0  0  0  0  0  0  0  0  0  0  0
    6.4685   -2.3090    0.0000 H   0  0  0  0  0  0  0  0  0  0  0  0
    6.8671   -5.4039    0.0000 H   0  0  0  0  0  0  0  0  0  0  0  0
    8.0622   -6.0939    0.0000 H   0  0  0  0  0  0  0  0  0  0  0  0
   10.3312   -5.4039    0.0000 H   0  0  0  0  0  0  0  0  0  0  0  0
   11.7705   -1.5655    0.0000 H   0  0  0  0  0  0  0  0  0  0  0  0
    8.8918   -1.5655    0.0000 H   0  0  0  0  0  0  0  0  0  0  0  0
    3.8705   -3.7589    0.0000 H   0  0  0  0  0  0  0  0  0  0  0  0
    4.6675   -3.7589    0.0000 H   0  0  0  0  0  0  0  0  0  0  0  0
   12.6291    1.5865    0.0000 H   0  0  0  0  0  0  0  0  0  0  0  0
    8.0433   -0.0065    0.0000 H   0  0  0  0  0  0  0  0  0  0  0  0
    9.8285    2.9773    0.0000 H   0  0  0  0  0  0  0  0  0  0  0  0
   12.6407    4.5865    0.0000 H   0  0  0  0  0  0  0  0  0  0  0  0
    9.8348    4.5973    0.0000 H   0  0  0  0  0  0  0  0  0  0  0  0
   13.5009    3.0831    0.0000 H   0  0  0  0  0  0  0  0  0  0  0  0
    2.0000   -2.9739    0.0000 H   0  0  0  0  0  0  0  0  0  0  0  0
   10.7066    6.0939    0.0000 H   0  0  0  0  0  0  0  0  0  0  0  0
  1 17  1  0  0  0  0
  1 19  1  0  0  0  0
  2 19  1  0  0  0  0
  2 21  1  0  0  0  0
  3 15  1  0  0  0  0
  3 46  1  0  0  0  0
  4 16  1  0  0  0  0
  4 47  1  0  0  0  0
  5 18  1  0  0  0  0
  5 48  1  0  0  0  0
  6 20  1  0  0  0  0
  6 25  1  0  0  0  0
  7 24  1  0  0  0  0
  7 31  1  0  0  0  0
  8 27  1  0  0  0  0
  8 54  1  0  0  0  0
  9 25  2  0  0  0  0
 10 28  2  0  0  0  0
 11 33  1  0  0  0  0
 11 59  1  0  0  0  0
 12 34  1  0  0  0  0
 12 58  1  0  0  0  0
 13 33  2  0  0  0  0
 14 38  1  0  0  0  0
 14 60  1  0  0  0  0
 15 16  1  0  0  0  0
 15 17  1  0  0  0  0
 15 39  1  0  0  0  0
 16 18  1  0  0  0  0
 16 40  1  0  0  0  0
 17 20  1  0  0  0  0
 17 41  1  0  0  0  0
 18 19  1  0  0  0  0
 18 42  1  0  0  0  0
 19 43  1  0  0  0  0
 20 44  1  0  0  0  0
 20 45  1  0  0  0  0
 21 22  1  0  0  0  0
 21 23  2  0  0  0  0
 22 24  2  0  0  0  0
 22 49  1  0  0  0  0
 23 27  1  0  0  0  0
 23 50  1  0  0  0  0
 24 26  1  0  0  0  0
 25 29  1  0  0  0  0
 26 27  2  0  0  0  0
 26 28  1  0  0  0  0
 28 30  1  0  0  0  0
 29 33  1  0  0  0  0
 29 51  1  0  0  0  0
 29 52  1  0  0  0  0
 30 31  2  0  0  0  0
 30 32  1  0  0  0  0
 31 53  1  0  0  0  0
 32 34  2  0  0  0  0
 32 35  1  0  0  0  0
 34 36  1  0  0  0  0
 35 37  2  0  0  0  0
 35 55  1  0  0  0  0
 36 38  2  0  0  0  0
 36 56  1  0  0  0  0
 37 38  1  0  0  0  0
 37 57  1  0  0  0  0
M  END
>  <PUBCHEM_COMPOUND_CID>
131752588

>  <PUBCHEM_COMPOUND_CANONICALIZED>
1

>  <PUBCHEM_CACTVS_COMPLEXITY>
922

>  <PUBCHEM_CACTVS_HBOND_ACCEPTOR>
14

>  <PUBCHEM_CACTVS_HBOND_DONOR>
7

>  <PUBCHEM_CACTVS_ROTATABLE_BOND>
8

>  <PUBCHEM_CACTVS_SUBSKEYS>
AAADceB4PAAAAAAAAAAAAAAAAAAAAAAAAAA0YIEAAAAAAACBQAAAGgAACAAADBSwmAMwDoAABgCIAqDSCAACCAAkIAAIiAEGCMgdNzaONRqieWCl4BUPuYfK7PzOIAAACAAIAABAAAAQABAAAAAAAAAAAA==

>  <PUBCHEM_IUPAC_OPENEYE_NAME>
3-[[6-[3-(2,4-dihydroxyphenyl)-5-hydroxy-4-oxo-chromen-7-yl]oxy-3,4,5-trihydroxy-tetrahydropyran-2-yl]methoxy]-3-oxo-propanoic acid

>  <PUBCHEM_IUPAC_CAS_NAME>
3-[[6-[[3-(2,4-dihydroxyphenyl)-5-hydroxy-4-oxo-1-benzopyran-7-yl]oxy]-3,4,5-trihydroxy-2-oxanyl]methoxy]-3-oxopropanoic acid

>  <PUBCHEM_IUPAC_NAME>
3-[[6-[3-(2,4-dihydroxyphenyl)-5-hydroxy-4-oxochromen-7-yl]oxy-3,4,5-trihydroxyoxan-2-yl]methoxy]-3-oxopropanoic acid

>  <PUBCHEM_IUPAC_SYSTEMATIC_NAME>
3-[[6-[3-[2,4-bis(oxidanyl)phenyl]-5-oxidanyl-4-oxidanylidene-chromen-7-yl]oxy-3,4,5-tris(oxidanyl)oxan-2-yl]methoxy]-3-oxidanylidene-propanoic acid

>  <PUBCHEM_IUPAC_TRADITIONAL_NAME>
3-[[6-[3-(2,4-dihydroxyphenyl)-5-hydroxy-4-keto-chromen-7-yl]oxy-3,4,5-trihydroxy-tetrahydropyran-2-yl]methoxy]-3-keto-propionic acid

>  <PUBCHEM_IUPAC_INCHI>
InChI=1S/C24H22O14/c25-9-1-2-11(13(26)3-9)12-7-35-15-5-10(4-14(27)19(15)20(12)31)37-24-23(34)22(33)21(32)16(38-24)8-36-18(30)6-17(28)29/h1-5,7,16,21-27,32-34H,6,8H2,(H,28,29)

>  <PUBCHEM_IUPAC_INCHIKEY>
QFCNXJBZARIFSY-UHFFFAOYSA-N

>  <PUBCHEM_EXACT_MASS>
534.101

>  <PUBCHEM_MOLECULAR_FORMULA>
C24H22O14

>  <PUBCHEM_MOLECULAR_WEIGHT>
534.426

>  <PUBCHEM_OPENEYE_CAN_SMILES>
C1=CC(=C(C=C1O)O)C2=COC3=CC(=CC(=C3C2=O)O)OC4C(C(C(C(O4)COC(=O)CC(=O)O)O)O)O

>  <PUBCHEM_OPENEYE_ISO_SMILES>
C1=CC(=C(C=C1O)O)C2=COC3=CC(=CC(=C3C2=O)O)OC4C(C(C(C(O4)COC(=O)CC(=O)O)O)O)O

>  <PUBCHEM_CACTVS_TPSA>
230

>  <PUBCHEM_MONOISOTOPIC_WEIGHT>
534.101

>  <PUBCHEM_TOTAL_CHARGE>
0

>  <PUBCHEM_HEAVY_ATOM_COUNT>
38

>  <PUBCHEM_ATOM_DEF_STEREO_COUNT>
0

>  <PUBCHEM_ATOM_UDEF_STEREO_COUNT>
5

>  <PUBCHEM_BOND_DEF_STEREO_COUNT>
0

>  <PUBCHEM_BOND_UDEF_STEREO_COUNT>
0

>  <PUBCHEM_ISOTOPIC_ATOM_COUNT>
0

>  <PUBCHEM_COMPONENT_COUNT>
1

>  <PUBCHEM_CACTVS_TAUTO_COUNT>
45

>  <PUBCHEM_COORDINATE_TYPE>
1
5
255

>  <PUBCHEM_BONDANNOTATIONS>
17  20  3
19  2  3
21  22  8
21  23  8
22  24  8
23  27  8
24  26  8
26  27  8
26  28  8
28  30  8
15  3  3
30  31  8
32  34  8
32  35  8
34  36  8
35  37  8
36  38  8
37  38  8
16  4  3
18  5  3
7  24  8
7  31  8

$$$$
