131752071
 OpenBabel06101807152D

 99101  0  0  1  0  0  0  0  0999 V2000
    6.0812   -6.1169    0.0000 O   0  0  0  0  0  0  0  0  0  0  0  0
    2.5369   -6.3122    0.0000 O   0  0  0  0  0  0  0  0  0  0  0  0
   16.6648    5.0801    0.0000 O   0  0  0  0  0  0  0  0  0  0  0  0
    5.1350   -5.8122    0.0000 C   0  0  3  0  0  0  0  0  0  0  0  0
    4.2690   -4.3122    0.0000 C   0  0  0  0  0  0  0  0  0  0  0  0
    5.1350   -4.8122    0.0000 C   0  0  0  0  0  0  0  0  0  0  0  0
    4.2690   -6.3122    0.0000 C   0  0  0  0  0  0  0  0  0  0  0  0
    3.4030   -4.8122    0.0000 C   0  0  0  0  0  0  0  0  0  0  0  0
    3.4030   -5.8122    0.0000 C   0  0  3  0  0  0  0  0  0  0  0  0
    6.0812   -4.5075    0.0000 C   0  0  0  0  0  0  0  0  0  0  0  0
    6.6648   -5.3122    0.0000 C   0  0  3  0  0  0  0  0  0  0  0  0
    5.1350   -6.8122    0.0000 C   0  0  0  0  0  0  0  0  0  0  0  0
    3.7690   -3.4462    0.0000 C   0  0  0  0  0  0  0  0  0  0  0  0
    4.7690   -3.4462    0.0000 C   0  0  0  0  0  0  0  0  0  0  0  0
    7.6648   -5.3122    0.0000 C   0  0  0  0  0  0  0  0  0  0  0  0
   14.1648    4.2141    0.0000 C   0  0  0  0  0  0  0  0  0  0  0  0
   13.6648    5.0801    0.0000 C   0  0  3  0  0  0  0  0  0  0  0  0
   15.1648    4.2141    0.0000 C   0  0  0  0  0  0  0  0  0  0  0  0
    8.1648   -6.1782    0.0000 C   0  0  0  0  0  0  0  0  0  0  0  0
    8.1648   -4.4462    0.0000 C   0  0  0  0  0  0  0  0  0  0  0  0
   15.6648    5.0801    0.0000 C   0  0  3  0  0  0  0  0  0  0  0  0
   14.1648    5.9462    0.0000 C   0  0  0  0  0  0  0  0  0  0  0  0
   14.1648    3.2141    0.0000 C   0  0  0  0  0  0  0  0  0  0  0  0
   13.2988    3.7141    0.0000 C   0  0  0  0  0  0  0  0  0  0  0  0
   15.1648    5.9462    0.0000 C   0  0  0  0  0  0  0  0  0  0  0  0
   12.6648    5.0801    0.0000 C   0  0  0  0  0  0  0  0  0  0  0  0
   13.6648    6.8122    0.0000 C   0  0  0  0  0  0  0  0  0  0  0  0
    7.6648   -3.5801    0.0000 C   0  0  0  0  0  0  0  0  0  0  0  0
   12.1648    4.2141    0.0000 C   0  0  0  0  0  0  0  0  0  0  0  0
    8.1648   -2.7141    0.0000 C   0  0  0  0  0  0  0  0  0  0  0  0
   11.1648    4.2141    0.0000 C   0  0  0  0  0  0  0  0  0  0  0  0
    7.6648   -1.8481    0.0000 C   0  0  0  0  0  0  0  0  0  0  0  0
   10.6648    5.0801    0.0000 C   0  0  0  0  0  0  0  0  0  0  0  0
   10.6648    3.3481    0.0000 C   0  0  0  0  0  0  0  0  0  0  0  0
    6.6648   -1.8481    0.0000 C   0  0  0  0  0  0  0  0  0  0  0  0
    8.1648   -0.9821    0.0000 C   0  0  0  0  0  0  0  0  0  0  0  0
   11.1648    2.4820    0.0000 C   0  0  0  0  0  0  0  0  0  0  0  0
    7.6648   -0.1160    0.0000 C   0  0  0  0  0  0  0  0  0  0  0  0
   10.6648    1.6160    0.0000 C   0  0  0  0  0  0  0  0  0  0  0  0
    9.6648    1.6160    0.0000 C   0  0  0  0  0  0  0  0  0  0  0  0
    8.1648    0.7500    0.0000 C   0  0  0  0  0  0  0  0  0  0  0  0
    9.1648    0.7500    0.0000 C   0  0  0  0  0  0  0  0  0  0  0  0
    9.1648    2.4820    0.0000 C   0  0  0  0  0  0  0  0  0  0  0  0
    3.8705   -6.7871    0.0000 H   0  0  0  0  0  0  0  0  0  0  0  0
    4.6675   -6.7871    0.0000 H   0  0  0  0  0  0  0  0  0  0  0  0
    3.1909   -4.2296    0.0000 H   0  0  0  0  0  0  0  0  0  0  0  0
    2.7924   -4.9198    0.0000 H   0  0  0  0  0  0  0  0  0  0  0  0
    3.4030   -6.4322    0.0000 H   0  0  0  0  0  0  0  0  0  0  0  0
    6.2738   -3.9181    0.0000 H   0  0  0  0  0  0  0  0  0  0  0  0
    6.9466   -5.8645    0.0000 H   0  0  0  0  0  0  0  0  0  0  0  0
    4.5150   -6.8122    0.0000 H   0  0  0  0  0  0  0  0  0  0  0  0
    5.1350   -7.4322    0.0000 H   0  0  0  0  0  0  0  0  0  0  0  0
    5.7550   -6.8122    0.0000 H   0  0  0  0  0  0  0  0  0  0  0  0
    5.3059   -3.7562    0.0000 H   0  0  0  0  0  0  0  0  0  0  0  0
    5.0790   -2.9092    0.0000 H   0  0  0  0  0  0  0  0  0  0  0  0
    4.2320   -3.1362    0.0000 H   0  0  0  0  0  0  0  0  0  0  0  0
    4.3059   -3.1362    0.0000 H   0  0  0  0  0  0  0  0  0  0  0  0
    3.4590   -2.9092    0.0000 H   0  0  0  0  0  0  0  0  0  0  0  0
    3.2320   -3.7562    0.0000 H   0  0  0  0  0  0  0  0  0  0  0  0
    2.0000   -6.0022    0.0000 H   0  0  0  0  0  0  0  0  0  0  0  0
   13.3548    5.6171    0.0000 H   0  0  0  0  0  0  0  0  0  0  0  0
   15.0572    3.6035    0.0000 H   0  0  0  0  0  0  0  0  0  0  0  0
   15.7474    4.0020    0.0000 H   0  0  0  0  0  0  0  0  0  0  0  0
    7.6279   -6.4882    0.0000 H   0  0  0  0  0  0  0  0  0  0  0  0
    8.4748   -6.7151    0.0000 H   0  0  0  0  0  0  0  0  0  0  0  0
    8.7018   -5.8682    0.0000 H   0  0  0  0  0  0  0  0  0  0  0  0
    8.7848   -4.4462    0.0000 H   0  0  0  0  0  0  0  0  0  0  0  0
   15.9748    5.6171    0.0000 H   0  0  0  0  0  0  0  0  0  0  0  0
   12.9888    4.2510    0.0000 H   0  0  0  0  0  0  0  0  0  0  0  0
   12.7619    3.4041    0.0000 H   0  0  0  0  0  0  0  0  0  0  0  0
   13.6088    3.1772    0.0000 H   0  0  0  0  0  0  0  0  0  0  0  0
   13.5448    3.2141    0.0000 H   0  0  0  0  0  0  0  0  0  0  0  0
   14.1648    2.5941    0.0000 H   0  0  0  0  0  0  0  0  0  0  0  0
   14.7848    3.2141    0.0000 H   0  0  0  0  0  0  0  0  0  0  0  0
   15.4748    6.4831    0.0000 H   0  0  0  0  0  0  0  0  0  0  0  0
   12.3548    5.6171    0.0000 H   0  0  0  0  0  0  0  0  0  0  0  0
   14.2018    7.1222    0.0000 H   0  0  0  0  0  0  0  0  0  0  0  0
   13.3548    7.3491    0.0000 H   0  0  0  0  0  0  0  0  0  0  0  0
   13.1279    6.5022    0.0000 H   0  0  0  0  0  0  0  0  0  0  0  0
    7.0448   -3.5801    0.0000 H   0  0  0  0  0  0  0  0  0  0  0  0
   16.9748    5.6171    0.0000 H   0  0  0  0  0  0  0  0  0  0  0  0
   12.4748    3.6772    0.0000 H   0  0  0  0  0  0  0  0  0  0  0  0
    8.7848   -2.7141    0.0000 H   0  0  0  0  0  0  0  0  0  0  0  0
   11.2018    5.3901    0.0000 H   0  0  0  0  0  0  0  0  0  0  0  0
   10.3548    5.6171    0.0000 H   0  0  0  0  0  0  0  0  0  0  0  0
   10.1279    4.7701    0.0000 H   0  0  0  0  0  0  0  0  0  0  0  0
   10.0448    3.3481    0.0000 H   0  0  0  0  0  0  0  0  0  0  0  0
    6.6648   -1.2281    0.0000 H   0  0  0  0  0  0  0  0  0  0  0  0
    6.0448   -1.8481    0.0000 H   0  0  0  0  0  0  0  0  0  0  0  0
    6.6648   -2.4681    0.0000 H   0  0  0  0  0  0  0  0  0  0  0  0
    8.7848   -0.9821    0.0000 H   0  0  0  0  0  0  0  0  0  0  0  0
   11.7848    2.4820    0.0000 H   0  0  0  0  0  0  0  0  0  0  0  0
    7.0448   -0.1160    0.0000 H   0  0  0  0  0  0  0  0  0  0  0  0
   10.9748    1.0791    0.0000 H   0  0  0  0  0  0  0  0  0  0  0  0
    7.8548    1.2869    0.0000 H   0  0  0  0  0  0  0  0  0  0  0  0
    9.4748    0.2131    0.0000 H   0  0  0  0  0  0  0  0  0  0  0  0
    9.7018    2.7920    0.0000 H   0  0  0  0  0  0  0  0  0  0  0  0
    8.8548    3.0190    0.0000 H   0  0  0  0  0  0  0  0  0  0  0  0
    8.6279    2.1720    0.0000 H   0  0  0  0  0  0  0  0  0  0  0  0
  1  4  1  0  0  0  0
  1 11  1  0  0  0  0
  2  9  1  0  0  0  0
  2 60  1  0  0  0  0
  3 21  1  0  0  0  0
  3 81  1  0  0  0  0
  4  6  1  0  0  0  0
  4  7  1  0  0  0  0
  4 12  1  0  0  0  0
  5  6  1  0  0  0  0
  5  8  1  0  0  0  0
  5 13  1  0  0  0  0
  5 14  1  0  0  0  0
  6 10  2  0  0  0  0
  7  9  1  0  0  0  0
  7 44  1  0  0  0  0
  7 45  1  0  0  0  0
  8  9  1  0  0  0  0
  8 46  1  0  0  0  0
  8 47  1  0  0  0  0
  9 48  1  0  0  0  0
 10 11  1  0  0  0  0
 10 49  1  0  0  0  0
 11 15  1  0  0  0  0
 11 50  1  0  0  0  0
 12 51  1  0  0  0  0
 12 52  1  0  0  0  0
 12 53  1  0  0  0  0
 13 57  1  0  0  0  0
 13 58  1  0  0  0  0
 13 59  1  0  0  0  0
 14 54  1  0  0  0  0
 14 55  1  0  0  0  0
 14 56  1  0  0  0  0
 15 19  1  0  0  0  0
 15 20  2  0  0  0  0
 16 17  1  0  0  0  0
 16 18  1  0  0  0  0
 16 23  1  0  0  0  0
 16 24  1  0  0  0  0
 17 22  1  0  0  0  0
 17 26  1  0  0  0  0
 17 61  1  0  0  0  0
 18 21  1  0  0  0  0
 18 62  1  0  0  0  0
 18 63  1  0  0  0  0
 19 64  1  0  0  0  0
 19 65  1  0  0  0  0
 19 66  1  0  0  0  0
 20 28  1  0  0  0  0
 20 67  1  0  0  0  0
 21 25  1  0  0  0  0
 21 68  1  0  0  0  0
 22 25  2  0  0  0  0
 22 27  1  0  0  0  0
 23 72  1  0  0  0  0
 23 73  1  0  0  0  0
 23 74  1  0  0  0  0
 24 69  1  0  0  0  0
 24 70  1  0  0  0  0
 24 71  1  0  0  0  0
 25 75  1  0  0  0  0
 26 29  2  0  0  0  0
 26 76  1  0  0  0  0
 27 77  1  0  0  0  0
 27 78  1  0  0  0  0
 27 79  1  0  0  0  0
 28 30  2  0  0  0  0
 28 80  1  0  0  0  0
 29 31  1  0  0  0  0
 29 82  1  0  0  0  0
 30 32  1  0  0  0  0
 30 83  1  0  0  0  0
 31 33  1  0  0  0  0
 31 34  2  0  0  0  0
 32 35  1  0  0  0  0
 32 36  2  0  0  0  0
 33 84  1  0  0  0  0
 33 85  1  0  0  0  0
 33 86  1  0  0  0  0
 34 37  1  0  0  0  0
 34 87  1  0  0  0  0
 35 88  1  0  0  0  0
 35 89  1  0  0  0  0
 35 90  1  0  0  0  0
 36 38  1  0  0  0  0
 36 91  1  0  0  0  0
 37 39  2  0  0  0  0
 37 92  1  0  0  0  0
 38 41  2  0  0  0  0
 38 93  1  0  0  0  0
 39 40  1  0  0  0  0
 39 94  1  0  0  0  0
 40 42  2  0  0  0  0
 40 43  1  0  0  0  0
 41 42  1  0  0  0  0
 41 95  1  0  0  0  0
 42 96  1  0  0  0  0
 43 97  1  0  0  0  0
 43 98  1  0  0  0  0
 43 99  1  0  0  0  0
M  END
>  <PUBCHEM_COMPOUND_CID>
131752071

>  <PUBCHEM_COMPOUND_CANONICALIZED>
1

>  <PUBCHEM_CACTVS_COMPLEXITY>
1320

>  <PUBCHEM_CACTVS_HBOND_ACCEPTOR>
3

>  <PUBCHEM_CACTVS_HBOND_DONOR>
2

>  <PUBCHEM_CACTVS_ROTATABLE_BOND>
9

>  <PUBCHEM_CACTVS_SUBSKEYS>
AAADcfB8MAAAAAAAAAAAAAAAAAAAAQAAAAAwQAAAAAAAAEAAAAAAGgAACAAAD1SggAICAAAABgCAAiBCAAAAAAAgAAAICAAAAAgIFAIAIQACUAAFgAAIsAOA4FwPgAAAAAAAAAAAAAYQAAAAAAAAAAAAAA==

>  <PUBCHEM_IUPAC_OPENEYE_NAME>
2-[(1Z,3E,5E,7Z,9E,11Z,13Z,15E)-16-(4-hydroxy-2,6,6-trimethyl-cyclohex-2-en-1-yl)-1,5,10,14-tetramethyl-hexadeca-1,3,5,7,9,11,13,15-octaenyl]-4,4,7a-trimethyl-2,5,6,7-tetrahydrobenzofuran-6-ol

>  <PUBCHEM_IUPAC_CAS_NAME>
2-[(2Z,4E,6E,8Z,10E,12Z,14Z,16E)-17-(4-hydroxy-2,6,6-trimethyl-1-cyclohex-2-enyl)-6,11,15-trimethylheptadeca-2,4,6,8,10,12,14,16-octaen-2-yl]-4,4,7a-trimethyl-2,5,6,7-tetrahydrobenzofuran-6-ol

>  <PUBCHEM_IUPAC_NAME>
2-[(2Z,4E,6E,8Z,10E,12Z,14Z,16E)-17-(4-hydroxy-2,6,6-trimethylcyclohex-2-en-1-yl)-6,11,15-trimethylheptadeca-2,4,6,8,10,12,14,16-octaen-2-yl]-4,4,7a-trimethyl-2,5,6,7-tetrahydro-1-benzofuran-6-ol

>  <PUBCHEM_IUPAC_SYSTEMATIC_NAME>
4,4,7a-trimethyl-2-[(2Z,4E,6E,8Z,10E,12Z,14Z,16E)-6,11,15-trimethyl-17-(2,6,6-trimethyl-4-oxidanyl-cyclohex-2-en-1-yl)heptadeca-2,4,6,8,10,12,14,16-octaen-2-yl]-2,5,6,7-tetrahydro-1-benzofuran-6-ol

>  <PUBCHEM_IUPAC_TRADITIONAL_NAME>
2-[(1Z,3E,5E,7Z,9E,11Z,13Z,15E)-16-(4-hydroxy-2,6,6-trimethyl-cyclohex-2-en-1-yl)-1,5,10,14-tetramethyl-hexadeca-1,3,5,7,9,11,13,15-octaenyl]-4,4,7a-trimethyl-2,5,6,7-tetrahydrobenzofuran-6-ol

>  <PUBCHEM_IUPAC_INCHI>
InChI=1S/C40H56O3/c1-28(17-13-18-30(3)21-22-35-32(5)23-33(41)25-38(35,6)7)15-11-12-16-29(2)19-14-20-31(4)36-24-37-39(8,9)26-34(42)27-40(37,10)43-36/h11-24,33-36,41-42H,25-27H2,1-10H3/b12-11-,17-13-,19-14+,22-21+,28-15+,29-16+,30-18-,31-20-

>  <PUBCHEM_IUPAC_INCHIKEY>
JRHJXXLCNATYLS-BGZKMDTMSA-N

>  <PUBCHEM_EXACT_MASS>
584.423

>  <PUBCHEM_MOLECULAR_FORMULA>
C40H56O3

>  <PUBCHEM_MOLECULAR_WEIGHT>
584.885

>  <PUBCHEM_OPENEYE_CAN_SMILES>
CC1=CC(CC(C1C=CC(=CC=CC(=CC=CC=C(C)C=CC=C(C)C2C=C3C(CC(CC3(O2)C)O)(C)C)C)C)(C)C)O

>  <PUBCHEM_OPENEYE_ISO_SMILES>
CC1=CC(CC(C1/C=C/C(=C\C=C/C(=C/C=C\C=C(/C)\C=C\C=C(\C)/C2C=C3C(CC(CC3(O2)C)O)(C)C)/C)/C)(C)C)O

>  <PUBCHEM_CACTVS_TPSA>
49.7

>  <PUBCHEM_MONOISOTOPIC_WEIGHT>
584.423

>  <PUBCHEM_TOTAL_CHARGE>
0

>  <PUBCHEM_HEAVY_ATOM_COUNT>
43

>  <PUBCHEM_ATOM_DEF_STEREO_COUNT>
0

>  <PUBCHEM_ATOM_UDEF_STEREO_COUNT>
5

>  <PUBCHEM_BOND_DEF_STEREO_COUNT>
8

>  <PUBCHEM_BOND_UDEF_STEREO_COUNT>
0

>  <PUBCHEM_ISOTOPIC_ATOM_COUNT>
0

>  <PUBCHEM_COMPONENT_COUNT>
1

>  <PUBCHEM_CACTVS_TAUTO_COUNT>
365

>  <PUBCHEM_COORDINATE_TYPE>
1
5
255

>  <PUBCHEM_BONDANNOTATIONS>
11  15  3
17  26  3
9  2  3
21  3  3
4  12  3

$$$$
