131750917
 OpenBabel06101807152D

103103  0  0  1  0  0  0  0  0999 V2000
    3.3660    4.1340    0.0000 O   0  0  0  0  0  0  0  0  0  0  0  0
    2.8660    5.0000    0.0000 C   0  0  0  0  0  0  0  0  0  0  0  0
    3.8660    5.0000    0.0000 C   0  0  3  0  0  0  0  0  0  0  0  0
    4.7320    5.5000    0.0000 C   0  0  0  0  0  0  0  0  0  0  0  0
    2.8660    6.0000    0.0000 C   0  0  0  0  0  0  0  0  0  0  0  0
    2.0000    4.5000    0.0000 C   0  0  0  0  0  0  0  0  0  0  0  0
    5.5981    5.0000    0.0000 C   0  0  0  0  0  0  0  0  0  0  0  0
    6.4641    5.5000    0.0000 C   0  0  0  0  0  0  0  0  0  0  0  0
    6.4641    6.5000    0.0000 C   0  0  0  0  0  0  0  0  0  0  0  0
    7.3301    5.0000    0.0000 C   0  0  0  0  0  0  0  0  0  0  0  0
    8.1962    5.5000    0.0000 C   0  0  0  0  0  0  0  0  0  0  0  0
    9.0622    5.0000    0.0000 C   0  0  0  0  0  0  0  0  0  0  0  0
    9.9282    5.5000    0.0000 C   0  0  0  0  0  0  0  0  0  0  0  0
    9.9282    6.5000    0.0000 C   0  0  0  0  0  0  0  0  0  0  0  0
   10.7942    5.0000    0.0000 C   0  0  0  0  0  0  0  0  0  0  0  0
   11.6603    5.5000    0.0000 C   0  0  0  0  0  0  0  0  0  0  0  0
   12.5263    5.0000    0.0000 C   0  0  0  0  0  0  0  0  0  0  0  0
   18.5885   -0.5000    0.0000 C   0  0  0  0  0  0  0  0  0  0  0  0
   19.4545   -1.0000    0.0000 C   0  0  0  0  0  0  0  0  0  0  0  0
   18.5885    0.5000    0.0000 C   0  0  0  0  0  0  0  0  0  0  0  0
   20.3205   -2.5000    0.0000 C   0  0  0  0  0  0  0  0  0  0  0  0
   20.3205   -3.5000    0.0000 C   0  0  0  0  0  0  0  0  0  0  0  0
   19.4545   -2.0000    0.0000 C   0  0  0  0  0  0  0  0  0  0  0  0
   17.7224    2.0000    0.0000 C   0  0  0  0  0  0  0  0  0  0  0  0
   12.5263    4.0000    0.0000 C   0  0  0  0  0  0  0  0  0  0  0  0
   17.7224    1.0000    0.0000 C   0  0  0  0  0  0  0  0  0  0  0  0
   16.8564    2.5000    0.0000 C   0  0  0  0  0  0  0  0  0  0  0  0
   21.1865   -4.0000    0.0000 C   0  0  0  0  0  0  0  0  0  0  0  0
   19.4545    1.0000    0.0000 C   0  0  0  0  0  0  0  0  0  0  0  0
   16.8564    3.5000    0.0000 C   0  0  0  0  0  0  0  0  0  0  0  0
   21.1865   -2.0000    0.0000 C   0  0  0  0  0  0  0  0  0  0  0  0
   21.1865   -5.0000    0.0000 C   0  0  0  0  0  0  0  0  0  0  0  0
   13.3923    3.5000    0.0000 C   0  0  0  0  0  0  0  0  0  0  0  0
   11.6603    3.5000    0.0000 C   0  0  0  0  0  0  0  0  0  0  0  0
   15.9904    4.0000    0.0000 C   0  0  0  0  0  0  0  0  0  0  0  0
   17.7224    4.0000    0.0000 C   0  0  0  0  0  0  0  0  0  0  0  0
   22.0526   -5.5000    0.0000 C   0  0  0  0  0  0  0  0  0  0  0  0
   14.2583    4.0000    0.0000 C   0  0  0  0  0  0  0  0  0  0  0  0
   15.1244    3.5000    0.0000 C   0  0  0  0  0  0  0  0  0  0  0  0
   22.0526   -6.5000    0.0000 C   0  0  0  0  0  0  0  0  0  0  0  0
   22.9186   -5.0000    0.0000 C   0  0  0  0  0  0  0  0  0  0  0  0
    4.3044    4.5616    0.0000 H   0  0  0  0  0  0  0  0  0  0  0  0
    5.1306    5.9750    0.0000 H   0  0  0  0  0  0  0  0  0  0  0  0
    4.3335    5.9750    0.0000 H   0  0  0  0  0  0  0  0  0  0  0  0
    3.4860    6.0000    0.0000 H   0  0  0  0  0  0  0  0  0  0  0  0
    2.8660    6.6200    0.0000 H   0  0  0  0  0  0  0  0  0  0  0  0
    2.2460    6.0000    0.0000 H   0  0  0  0  0  0  0  0  0  0  0  0
    1.6900    5.0369    0.0000 H   0  0  0  0  0  0  0  0  0  0  0  0
    1.4631    4.1900    0.0000 H   0  0  0  0  0  0  0  0  0  0  0  0
    2.3100    3.9631    0.0000 H   0  0  0  0  0  0  0  0  0  0  0  0
    5.1996    4.5250    0.0000 H   0  0  0  0  0  0  0  0  0  0  0  0
    5.9966    4.5250    0.0000 H   0  0  0  0  0  0  0  0  0  0  0  0
    7.0841    6.5000    0.0000 H   0  0  0  0  0  0  0  0  0  0  0  0
    6.4641    7.1200    0.0000 H   0  0  0  0  0  0  0  0  0  0  0  0
    5.8441    6.5000    0.0000 H   0  0  0  0  0  0  0  0  0  0  0  0
    7.3301    4.3800    0.0000 H   0  0  0  0  0  0  0  0  0  0  0  0
    8.5947    5.9750    0.0000 H   0  0  0  0  0  0  0  0  0  0  0  0
    7.7976    5.9750    0.0000 H   0  0  0  0  0  0  0  0  0  0  0  0
    8.6636    4.5250    0.0000 H   0  0  0  0  0  0  0  0  0  0  0  0
    9.4607    4.5250    0.0000 H   0  0  0  0  0  0  0  0  0  0  0  0
   10.5482    6.5000    0.0000 H   0  0  0  0  0  0  0  0  0  0  0  0
    9.9282    7.1200    0.0000 H   0  0  0  0  0  0  0  0  0  0  0  0
    9.3082    6.5000    0.0000 H   0  0  0  0  0  0  0  0  0  0  0  0
   10.7942    4.3800    0.0000 H   0  0  0  0  0  0  0  0  0  0  0  0
   11.6603    6.1200    0.0000 H   0  0  0  0  0  0  0  0  0  0  0  0
   13.0632    5.3100    0.0000 H   0  0  0  0  0  0  0  0  0  0  0  0
   17.9779   -0.3923    0.0000 H   0  0  0  0  0  0  0  0  0  0  0  0
   18.3764   -1.0826    0.0000 H   0  0  0  0  0  0  0  0  0  0  0  0
   20.0651   -1.1077    0.0000 H   0  0  0  0  0  0  0  0  0  0  0  0
   19.6665   -0.4174    0.0000 H   0  0  0  0  0  0  0  0  0  0  0  0
   19.7099   -3.3923    0.0000 H   0  0  0  0  0  0  0  0  0  0  0  0
   20.1085   -4.0826    0.0000 H   0  0  0  0  0  0  0  0  0  0  0  0
   18.9175   -2.3100    0.0000 H   0  0  0  0  0  0  0  0  0  0  0  0
   18.3330    1.8923    0.0000 H   0  0  0  0  0  0  0  0  0  0  0  0
   17.9345    2.5826    0.0000 H   0  0  0  0  0  0  0  0  0  0  0  0
   17.1855    0.6900    0.0000 H   0  0  0  0  0  0  0  0  0  0  0  0
   16.2458    2.6077    0.0000 H   0  0  0  0  0  0  0  0  0  0  0  0
   16.6444    1.9174    0.0000 H   0  0  0  0  0  0  0  0  0  0  0  0
   21.7971   -4.1077    0.0000 H   0  0  0  0  0  0  0  0  0  0  0  0
   21.3986   -3.4174    0.0000 H   0  0  0  0  0  0  0  0  0  0  0  0
   19.7645    0.4631    0.0000 H   0  0  0  0  0  0  0  0  0  0  0  0
   19.9914    1.3100    0.0000 H   0  0  0  0  0  0  0  0  0  0  0  0
   19.1445    1.5369    0.0000 H   0  0  0  0  0  0  0  0  0  0  0  0
   21.4965   -2.5369    0.0000 H   0  0  0  0  0  0  0  0  0  0  0  0
   21.7235   -1.6900    0.0000 H   0  0  0  0  0  0  0  0  0  0  0  0
   20.8765   -1.4631    0.0000 H   0  0  0  0  0  0  0  0  0  0  0  0
   20.6496   -5.3100    0.0000 H   0  0  0  0  0  0  0  0  0  0  0  0
   13.3923    2.8800    0.0000 H   0  0  0  0  0  0  0  0  0  0  0  0
   11.3503    4.0369    0.0000 H   0  0  0  0  0  0  0  0  0  0  0  0
   11.1233    3.1900    0.0000 H   0  0  0  0  0  0  0  0  0  0  0  0
   11.9703    2.9631    0.0000 H   0  0  0  0  0  0  0  0  0  0  0  0
   15.9904    4.6200    0.0000 H   0  0  0  0  0  0  0  0  0  0  0  0
   18.0324    3.4631    0.0000 H   0  0  0  0  0  0  0  0  0  0  0  0
   18.2594    4.3100    0.0000 H   0  0  0  0  0  0  0  0  0  0  0  0
   17.4124    4.5369    0.0000 H   0  0  0  0  0  0  0  0  0  0  0  0
   14.2583    4.6200    0.0000 H   0  0  0  0  0  0  0  0  0  0  0  0
   15.1244    2.8800    0.0000 H   0  0  0  0  0  0  0  0  0  0  0  0
   23.2286   -5.5369    0.0000 H   0  0  0  0  0  0  0  0  0  0  0  0
   23.4555   -4.6900    0.0000 H   0  0  0  0  0  0  0  0  0  0  0  0
   21.4326   -6.5000    0.0000 H   0  0  0  0  0  0  0  0  0  0  0  0
   22.0526   -7.1200    0.0000 H   0  0  0  0  0  0  0  0  0  0  0  0
   22.6726   -6.5000    0.0000 H   0  0  0  0  0  0  0  0  0  0  0  0
   22.6086   -4.4631    0.0000 H   0  0  0  0  0  0  0  0  0  0  0  0
  1  2  1  0  0  0  0
  1  3  1  0  0  0  0
  2  3  1  0  0  0  0
  2  5  1  0  0  0  0
  2  6  1  0  0  0  0
  3  4  1  0  0  0  0
  3 42  1  0  0  0  0
  4  7  1  0  0  0  0
  4 43  1  0  0  0  0
  4 44  1  0  0  0  0
  5 45  1  0  0  0  0
  5 46  1  0  0  0  0
  5 47  1  0  0  0  0
  6 48  1  0  0  0  0
  6 49  1  0  0  0  0
  6 50  1  0  0  0  0
  7  8  1  0  0  0  0
  7 51  1  0  0  0  0
  7 52  1  0  0  0  0
  8  9  1  0  0  0  0
  8 10  2  0  0  0  0
  9 53  1  0  0  0  0
  9 54  1  0  0  0  0
  9 55  1  0  0  0  0
 10 11  1  0  0  0  0
 10 56  1  0  0  0  0
 11 12  1  0  0  0  0
 11 57  1  0  0  0  0
 11 58  1  0  0  0  0
 12 13  1  0  0  0  0
 12 59  1  0  0  0  0
 12 60  1  0  0  0  0
 13 14  1  0  0  0  0
 13 15  2  0  0  0  0
 14 61  1  0  0  0  0
 14 62  1  0  0  0  0
 14 63  1  0  0  0  0
 15 16  1  0  0  0  0
 15 64  1  0  0  0  0
 16 17  2  0  0  0  0
 16 65  1  0  0  0  0
 17 25  1  0  0  0  0
 17 66  1  0  0  0  0
 18 19  1  0  0  0  0
 18 20  1  0  0  0  0
 18 67  1  0  0  0  0
 18 68  1  0  0  0  0
 19 23  1  0  0  0  0
 19 69  1  0  0  0  0
 19 70  1  0  0  0  0
 20 26  2  0  0  0  0
 20 29  1  0  0  0  0
 21 22  1  0  0  0  0
 21 23  2  0  0  0  0
 21 31  1  0  0  0  0
 22 28  1  0  0  0  0
 22 71  1  0  0  0  0
 22 72  1  0  0  0  0
 23 73  1  0  0  0  0
 24 26  1  0  0  0  0
 24 27  1  0  0  0  0
 24 74  1  0  0  0  0
 24 75  1  0  0  0  0
 25 33  2  0  0  0  0
 25 34  1  0  0  0  0
 26 76  1  0  0  0  0
 27 30  1  0  0  0  0
 27 77  1  0  0  0  0
 27 78  1  0  0  0  0
 28 32  1  0  0  0  0
 28 79  1  0  0  0  0
 28 80  1  0  0  0  0
 29 81  1  0  0  0  0
 29 82  1  0  0  0  0
 29 83  1  0  0  0  0
 30 35  2  0  0  0  0
 30 36  1  0  0  0  0
 31 84  1  0  0  0  0
 31 85  1  0  0  0  0
 31 86  1  0  0  0  0
 32 37  2  0  0  0  0
 32 87  1  0  0  0  0
 33 38  1  0  0  0  0
 33 88  1  0  0  0  0
 34 89  1  0  0  0  0
 34 90  1  0  0  0  0
 34 91  1  0  0  0  0
 35 39  1  0  0  0  0
 35 92  1  0  0  0  0
 36 93  1  0  0  0  0
 36 94  1  0  0  0  0
 36 95  1  0  0  0  0
 37 40  1  0  0  0  0
 37 41  1  0  0  0  0
 38 39  2  0  0  0  0
 38 96  1  0  0  0  0
 39 97  1  0  0  0  0
 40100  1  0  0  0  0
 40101  1  0  0  0  0
 40102  1  0  0  0  0
 41 98  1  0  0  0  0
 41 99  1  0  0  0  0
 41103  1  0  0  0  0
M  END
>  <PUBCHEM_COMPOUND_CID>
131750917

>  <PUBCHEM_COMPOUND_CANONICALIZED>
1

>  <PUBCHEM_CACTVS_COMPLEXITY>
1050

>  <PUBCHEM_CACTVS_HBOND_ACCEPTOR>
1

>  <PUBCHEM_CACTVS_HBOND_DONOR>
0

>  <PUBCHEM_CACTVS_ROTATABLE_BOND>
19

>  <PUBCHEM_CACTVS_SUBSKEYS>
AAADcfB8IAAAAAAAAAAAAAAAEgAAAAAAAAAAAAAAAAAAAAAAAAAAGgAAAAAADFSggAICAAAABACAAiBCAAAAAAAgAAAICAAAAAgIAAIAAQACAAAEgAAIgAOAwEAMAAAAAAAAAAAAAAAAAAAAAAAAAAAAAA==

>  <PUBCHEM_IUPAC_OPENEYE_NAME>
3-[(3E,7E,9Z,11Z,13E,15Z,19E,23E)-3,7,11,16,20,24,28-heptamethylnonacosa-3,7,9,11,13,15,19,23,27-nonaenyl]-2,2-dimethyl-oxirane

>  <PUBCHEM_IUPAC_CAS_NAME>
3-[(3E,7E,9Z,11Z,13E,15Z,19E,23E)-3,7,11,16,20,24,28-heptamethylnonacosa-3,7,9,11,13,15,19,23,27-nonaenyl]-2,2-dimethyloxirane

>  <PUBCHEM_IUPAC_NAME>
3-[(3E,7E,9Z,11Z,13E,15Z,19E,23E)-3,7,11,16,20,24,28-heptamethylnonacosa-3,7,9,11,13,15,19,23,27-nonaenyl]-2,2-dimethyloxirane

>  <PUBCHEM_IUPAC_SYSTEMATIC_NAME>
3-[(3E,7E,9Z,11Z,13E,15Z,19E,23E)-3,7,11,16,20,24,28-heptamethylnonacosa-3,7,9,11,13,15,19,23,27-nonaenyl]-2,2-dimethyl-oxirane

>  <PUBCHEM_IUPAC_TRADITIONAL_NAME>
3-[(3E,7E,9Z,11Z,13E,15Z,19E,23E)-3,7,11,16,20,24,28-heptamethylnonacosa-3,7,9,11,13,15,19,23,27-nonaenyl]-2,2-dimethyl-oxirane

>  <PUBCHEM_IUPAC_INCHI>
InChI=1S/C40H62O/c1-32(2)18-13-21-35(5)24-16-27-36(6)25-14-22-33(3)19-11-12-20-34(4)23-15-26-37(7)28-17-29-38(8)30-31-39-40(9,10)41-39/h11-12,15,18-20,23-26,29,39H,13-14,16-17,21-22,27-28,30-31H2,1-10H3/b12-11+,23-15-,33-19-,34-20-,35-24+,36-25+,37-26+,38-29+

>  <PUBCHEM_IUPAC_INCHIKEY>
URWDEZYCMUWBPQ-YOWDSOSNSA-N

>  <PUBCHEM_EXACT_MASS>
558.48

>  <PUBCHEM_MOLECULAR_FORMULA>
C40H62O

>  <PUBCHEM_MOLECULAR_WEIGHT>
558.935

>  <PUBCHEM_OPENEYE_CAN_SMILES>
CC(=CCCC(=CCCC(=CCCC(=CC=CC=C(C)C=CC=C(C)CCC=C(C)CCC1C(O1)(C)C)C)C)C)C

>  <PUBCHEM_OPENEYE_ISO_SMILES>
CC(=CCC/C(=C/CC/C(=C/CC/C(=C\C=C\C=C(\C)/C=C\C=C(/C)\CC/C=C(\C)/CCC1C(O1)(C)C)/C)/C)/C)C

>  <PUBCHEM_CACTVS_TPSA>
12.5

>  <PUBCHEM_MONOISOTOPIC_WEIGHT>
558.48

>  <PUBCHEM_TOTAL_CHARGE>
0

>  <PUBCHEM_HEAVY_ATOM_COUNT>
41

>  <PUBCHEM_ATOM_DEF_STEREO_COUNT>
0

>  <PUBCHEM_ATOM_UDEF_STEREO_COUNT>
1

>  <PUBCHEM_BOND_DEF_STEREO_COUNT>
8

>  <PUBCHEM_BOND_UDEF_STEREO_COUNT>
0

>  <PUBCHEM_ISOTOPIC_ATOM_COUNT>
0

>  <PUBCHEM_COMPONENT_COUNT>
1

>  <PUBCHEM_CACTVS_TAUTO_COUNT>
60

>  <PUBCHEM_COORDINATE_TYPE>
1
5
255

>  <PUBCHEM_BONDANNOTATIONS>
3  4  3

$$$$
