131752300
 OpenBabel06101807152D

 77 81  0  0  1  0  0  0  0  0999 V2000
    5.1350   -1.3362    0.0000 O   0  0  0  0  0  0  0  0  0  0  0  0
   11.2079   -1.8518    0.0000 O   0  0  0  0  0  0  0  0  0  0  0  0
    6.8671   -1.3362    0.0000 O   0  0  0  0  0  0  0  0  0  0  0  0
   10.3592   -0.3419    0.0000 O   0  0  0  0  0  0  0  0  0  0  0  0
    5.1350   -4.3362    0.0000 O   0  0  0  0  0  0  0  0  0  0  0  0
    3.4030   -3.3362    0.0000 O   0  0  0  0  0  0  0  0  0  0  0  0
    6.8671   -3.3362    0.0000 O   0  0  0  0  0  0  0  0  0  0  0  0
    8.5926   -3.3216    0.0000 O   0  0  0  0  0  0  0  0  0  0  0  0
   10.3130   -4.3416    0.0000 O   0  0  0  0  0  0  0  0  0  0  0  0
    8.6158   -1.3218    0.0000 O   0  0  0  0  0  0  0  0  0  0  0  0
    2.5369   -1.8362    0.0000 O   0  0  0  0  0  0  0  0  0  0  0  0
    8.6504    1.6780    0.0000 O   0  3  0  0  0  0  0  0  0  0  0  0
    5.1208    1.7430    0.0000 O   0  0  0  0  0  0  0  0  0  0  0  0
   11.2773    4.1478    0.0000 O   0  0  0  0  0  0  0  0  0  0  0  0
   12.9745    1.1280    0.0000 O   0  0  0  0  0  0  0  0  0  0  0  0
   12.9976    3.1278    0.0000 O   0  0  0  0  0  0  0  0  0  0  0  0
    5.1350   -3.3362    0.0000 C   0  0  3  0  0  0  0  0  0  0  0  0
    4.2690   -2.8362    0.0000 C   0  0  3  0  0  0  0  0  0  0  0  0
    6.0010   -2.8362    0.0000 C   0  0  3  0  0  0  0  0  0  0  0  0
    4.2690   -1.8362    0.0000 C   0  0  3  0  0  0  0  0  0  0  0  0
    9.4644   -2.8317    0.0000 C   0  0  3  0  0  0  0  0  0  0  0  0
   10.3246   -3.3417    0.0000 C   0  0  3  0  0  0  0  0  0  0  0  0
    9.4759   -1.8318    0.0000 C   0  0  3  0  0  0  0  0  0  0  0  0
   11.1963   -2.8517    0.0000 C   0  0  3  0  0  0  0  0  0  0  0  0
    6.0010   -1.8362    0.0000 C   0  0  3  0  0  0  0  0  0  0  0  0
   10.3477   -1.3418    0.0000 C   0  0  3  0  0  0  0  0  0  0  0  0
    3.4030   -1.3362    0.0000 C   0  0  0  0  0  0  0  0  0  0  0  0
   12.0565   -3.3617    0.0000 C   0  0  0  0  0  0  0  0  0  0  0  0
    6.8671   -0.3362    0.0000 C   0  0  0  0  0  0  0  0  0  0  0  0
    9.4991    0.1681    0.0000 C   0  0  0  0  0  0  0  0  0  0  0  0
    7.7671    0.1881    0.0000 C   0  0  0  0  0  0  0  0  0  0  0  0
    8.6273   -0.3218    0.0000 C   0  0  0  0  0  0  0  0  0  0  0  0
    9.5106    1.1680    0.0000 C   0  0  0  0  0  0  0  0  0  0  0  0
    7.7787    1.1881    0.0000 C   0  0  0  0  0  0  0  0  0  0  0  0
    5.9670    0.1881    0.0000 C   0  0  0  0  0  0  0  0  0  0  0  0
    6.8910    1.7330    0.0000 C   0  0  0  0  0  0  0  0  0  0  0  0
    5.9790    1.2297    0.0000 C   0  0  0  0  0  0  0  0  0  0  0  0
   10.3824    1.6580    0.0000 C   0  0  0  0  0  0  0  0  0  0  0  0
   10.3939    2.6579    0.0000 C   0  0  0  0  0  0  0  0  0  0  0  0
   11.2426    1.1480    0.0000 C   0  0  0  0  0  0  0  0  0  0  0  0
   11.2657    3.1479    0.0000 C   0  0  0  0  0  0  0  0  0  0  0  0
   12.1143    1.6380    0.0000 C   0  0  0  0  0  0  0  0  0  0  0  0
   12.1259    2.6379    0.0000 C   0  0  0  0  0  0  0  0  0  0  0  0
   10.4171    4.6578    0.0000 C   0  0  0  0  0  0  0  0  0  0  0  0
    4.5981   -3.6462    0.0000 H   0  0  0  0  0  0  0  0  0  0  0  0
    4.2690   -3.4562    0.0000 H   0  0  0  0  0  0  0  0  0  0  0  0
    6.0010   -3.4562    0.0000 H   0  0  0  0  0  0  0  0  0  0  0  0
    4.2690   -1.2162    0.0000 H   0  0  0  0  0  0  0  0  0  0  0  0
   10.0049   -2.5279    0.0000 H   0  0  0  0  0  0  0  0  0  0  0  0
    9.7841   -3.6454    0.0000 H   0  0  0  0  0  0  0  0  0  0  0  0
    8.9354   -2.1355    0.0000 H   0  0  0  0  0  0  0  0  0  0  0  0
   11.7368   -2.5480    0.0000 H   0  0  0  0  0  0  0  0  0  0  0  0
    6.0010   -1.2162    0.0000 H   0  0  0  0  0  0  0  0  0  0  0  0
    9.8144   -1.0256    0.0000 H   0  0  0  0  0  0  0  0  0  0  0  0
    3.8015   -0.8612    0.0000 H   0  0  0  0  0  0  0  0  0  0  0  0
    3.0044   -0.8612    0.0000 H   0  0  0  0  0  0  0  0  0  0  0  0
   11.7403   -3.8950    0.0000 H   0  0  0  0  0  0  0  0  0  0  0  0
   12.5898   -3.6779    0.0000 H   0  0  0  0  0  0  0  0  0  0  0  0
   12.3727   -2.8284    0.0000 H   0  0  0  0  0  0  0  0  0  0  0  0
    4.5981   -4.6461    0.0000 H   0  0  0  0  0  0  0  0  0  0  0  0
    3.4030   -3.9562    0.0000 H   0  0  0  0  0  0  0  0  0  0  0  0
    6.8671   -3.9562    0.0000 H   0  0  0  0  0  0  0  0  0  0  0  0
    8.5854   -3.9416    0.0000 H   0  0  0  0  0  0  0  0  0  0  0  0
   10.8463   -4.6578    0.0000 H   0  0  0  0  0  0  0  0  0  0  0  0
    8.0753   -1.6256    0.0000 H   0  0  0  0  0  0  0  0  0  0  0  0
    8.6201   -0.9418    0.0000 H   0  0  0  0  0  0  0  0  0  0  0  0
    2.0000   -1.5261    0.0000 H   0  0  0  0  0  0  0  0  0  0  0  0
    5.4277   -0.1177    0.0000 H   0  0  0  0  0  0  0  0  0  0  0  0
    6.9053    2.3529    0.0000 H   0  0  0  0  0  0  0  0  0  0  0  0
    9.8606    2.9741    0.0000 H   0  0  0  0  0  0  0  0  0  0  0  0
   11.2354    0.5281    0.0000 H   0  0  0  0  0  0  0  0  0  0  0  0
    5.1304    2.3629    0.0000 H   0  0  0  0  0  0  0  0  0  0  0  0
   13.5150    1.4318    0.0000 H   0  0  0  0  0  0  0  0  0  0  0  0
   13.0048    3.7478    0.0000 H   0  0  0  0  0  0  0  0  0  0  0  0
   10.7333    5.1911    0.0000 H   0  0  0  0  0  0  0  0  0  0  0  0
    9.8837    4.9740    0.0000 H   0  0  0  0  0  0  0  0  0  0  0  0
   10.1009    4.1245    0.0000 H   0  0  0  0  0  0  0  0  0  0  0  0
  1 20  1  0  0  0  0
  1 25  1  0  0  0  0
  2 24  1  0  0  0  0
  2 26  1  0  0  0  0
  3 25  1  0  0  0  0
  3 29  1  0  0  0  0
  4 26  1  0  0  0  0
  4 30  1  0  0  0  0
  5 17  1  0  0  0  0
  5 60  1  0  0  0  0
  6 18  1  0  0  0  0
  6 61  1  0  0  0  0
  7 19  1  0  0  0  0
  7 62  1  0  0  0  0
  8 21  1  0  0  0  0
  8 63  1  0  0  0  0
  9 22  1  0  0  0  0
  9 64  1  0  0  0  0
 10 23  1  0  0  0  0
 10 65  1  0  0  0  0
 11 27  1  0  0  0  0
 11 67  1  0  0  0  0
 12 33  1  0  0  0  0
 12 34  2  0  0  0  0
 13 37  1  0  0  0  0
 13 72  1  0  0  0  0
 14 41  1  0  0  0  0
 14 44  1  0  0  0  0
 15 42  1  0  0  0  0
 15 73  1  0  0  0  0
 16 43  1  0  0  0  0
 16 74  1  0  0  0  0
 17 18  1  0  0  0  0
 17 19  1  0  0  0  0
 17 45  1  0  0  0  0
 18 20  1  0  0  0  0
 18 46  1  0  0  0  0
 19 25  1  0  0  0  0
 19 47  1  0  0  0  0
 20 27  1  0  0  0  0
 20 48  1  0  0  0  0
 21 22  1  0  0  0  0
 21 23  1  0  0  0  0
 21 49  1  0  0  0  0
 22 24  1  0  0  0  0
 22 50  1  0  0  0  0
 23 26  1  0  0  0  0
 23 51  1  0  0  0  0
 24 28  1  0  0  0  0
 24 52  1  0  0  0  0
 25 53  1  0  0  0  0
 26 54  1  0  0  0  0
 27 55  1  0  0  0  0
 27 56  1  0  0  0  0
 28 57  1  0  0  0  0
 28 58  1  0  0  0  0
 28 59  1  0  0  0  0
 29 31  1  0  0  0  0
 29 35  2  0  0  0  0
 30 32  1  0  0  0  0
 30 33  2  0  0  0  0
 31 32  2  0  0  0  0
 31 34  1  0  0  0  0
 32 66  1  0  0  0  0
 33 38  1  0  0  0  0
 34 36  1  0  0  0  0
 35 37  1  0  0  0  0
 35 68  1  0  0  0  0
 36 37  2  0  0  0  0
 36 69  1  0  0  0  0
 38 39  1  0  0  0  0
 38 40  2  0  0  0  0
 39 41  2  0  0  0  0
 39 70  1  0  0  0  0
 40 42  1  0  0  0  0
 40 71  1  0  0  0  0
 41 43  1  0  0  0  0
 42 43  2  0  0  0  0
 44 75  1  0  0  0  0
 44 76  1  0  0  0  0
 44 77  1  0  0  0  0
M  CHG  1  12   1
M  END
>  <PUBCHEM_COMPOUND_CID>
131752300

>  <PUBCHEM_COMPOUND_CANONICALIZED>
1

>  <PUBCHEM_CACTVS_COMPLEXITY>
930

>  <PUBCHEM_CACTVS_HBOND_ACCEPTOR>
15

>  <PUBCHEM_CACTVS_HBOND_DONOR>
10

>  <PUBCHEM_CACTVS_ROTATABLE_BOND>
7

>  <PUBCHEM_CACTVS_SUBSKEYS>
AAADcfB4PgAAAAAAAAAAAAAAAAAAAAAAAAA0aJECAAAAAACR9AAAGgAACAAADBSwmAMyDsAABkCIAqBSAAICCAAkIAAAiAFGiMgdNzaGNR6ieWOl4BUPuYfK7PzOIAABCAAIQABAAAIQABCAAAAAAAAAAA==

>  <PUBCHEM_IUPAC_OPENEYE_NAME>
2-[2-(3,4-dihydroxy-5-methoxy-phenyl)-7-hydroxy-5-[3,4,5-trihydroxy-6-(hydroxymethyl)tetrahydropyran-2-yl]oxy-chromenylium-3-yl]oxy-6-methyl-tetrahydropyran-3,4,5-triol

>  <PUBCHEM_IUPAC_CAS_NAME>
2-[[2-(3,4-dihydroxy-5-methoxyphenyl)-7-hydroxy-5-[[3,4,5-trihydroxy-6-(hydroxymethyl)-2-oxanyl]oxy]-1-benzopyrylium-3-yl]oxy]-6-methyloxane-3,4,5-triol

>  <PUBCHEM_IUPAC_NAME>
2-[2-(3,4-dihydroxy-5-methoxyphenyl)-7-hydroxy-5-[3,4,5-trihydroxy-6-(hydroxymethyl)oxan-2-yl]oxychromenylium-3-yl]oxy-6-methyloxane-3,4,5-triol

>  <PUBCHEM_IUPAC_SYSTEMATIC_NAME>
2-[5-[6-(hydroxymethyl)-3,4,5-tris(oxidanyl)oxan-2-yl]oxy-2-[3-methoxy-4,5-bis(oxidanyl)phenyl]-7-oxidanyl-chromenylium-3-yl]oxy-6-methyl-oxane-3,4,5-triol

>  <PUBCHEM_IUPAC_TRADITIONAL_NAME>
2-[[2-(3,4-dihydroxy-5-methoxy-phenyl)-7-hydroxy-5-(3,4,5-trihydroxy-6-methylol-tetrahydropyran-2-yl)oxy-1-benzopyrylium-3-yl]oxy]-6-methyl-tetrahydropyran-3,4,5-triol

>  <PUBCHEM_IUPAC_INCHI>
InChI=1S/C28H32O16/c1-9-19(32)22(35)24(37)27(40-9)43-17-7-12-14(41-26(17)10-3-13(31)20(33)16(4-10)39-2)5-11(30)6-15(12)42-28-25(38)23(36)21(34)18(8-29)44-28/h3-7,9,18-19,21-25,27-29,32,34-38H,8H2,1-2H3,(H2-,30,31,33)/p+1

>  <PUBCHEM_IUPAC_INCHIKEY>
FMIONHNHIFPJRO-UHFFFAOYSA-O

>  <PUBCHEM_EXACT_MASS>
625.177

>  <PUBCHEM_MOLECULAR_FORMULA>
C28H33O16+

>  <PUBCHEM_MOLECULAR_WEIGHT>
625.556

>  <PUBCHEM_OPENEYE_CAN_SMILES>
CC1C(C(C(C(O1)OC2=C([O+]=C3C=C(C=C(C3=C2)OC4C(C(C(C(O4)CO)O)O)O)O)C5=CC(=C(C(=C5)OC)O)O)O)O)O

>  <PUBCHEM_OPENEYE_ISO_SMILES>
CC1C(C(C(C(O1)OC2=C([O+]=C3C=C(C=C(C3=C2)OC4C(C(C(C(O4)CO)O)O)O)O)C5=CC(=C(C(=C5)OC)O)O)O)O)O

>  <PUBCHEM_CACTVS_TPSA>
249

>  <PUBCHEM_MONOISOTOPIC_WEIGHT>
625.177

>  <PUBCHEM_TOTAL_CHARGE>
1

>  <PUBCHEM_HEAVY_ATOM_COUNT>
44

>  <PUBCHEM_ATOM_DEF_STEREO_COUNT>
0

>  <PUBCHEM_ATOM_UDEF_STEREO_COUNT>
10

>  <PUBCHEM_BOND_DEF_STEREO_COUNT>
0

>  <PUBCHEM_BOND_UDEF_STEREO_COUNT>
0

>  <PUBCHEM_ISOTOPIC_ATOM_COUNT>
0

>  <PUBCHEM_COMPONENT_COUNT>
1

>  <PUBCHEM_CACTVS_TAUTO_COUNT>
95

>  <PUBCHEM_COORDINATE_TYPE>
1
5
255

>  <PUBCHEM_BONDANNOTATIONS>
23  10  3
12  33  8
12  34  8
20  27  3
24  28  3
29  31  8
29  35  8
25  3  3
30  32  8
30  33  8
31  32  8
31  34  8
34  36  8
35  37  8
36  37  8
38  39  8
38  40  8
39  41  8
26  4  3
40  42  8
41  43  8
42  43  8
17  5  3
18  6  3
19  7  3
21  8  3
22  9  3

$$$$
