131753080
 OpenBabel06101807152D

 48 51  0  0  0  0  0  0  0  0999 V2000
   10.4366    0.8006    0.0000 O   0  0  0  0  0  0  0  0  0  0  0  0
    6.9006    0.8284    0.0000 O   0  0  0  0  0  0  0  0  0  0  0  0
    8.6605   -2.2063    0.0000 O   0  0  0  0  0  0  0  0  0  0  0  0
    5.1304   -1.2304    0.0000 O   0  0  0  0  0  0  0  0  0  0  0  0
    6.9121   -2.2409    0.0000 O   0  0  0  0  0  0  0  0  0  0  0  0
    2.5381    2.3279    0.0000 O   0  0  0  0  0  0  0  0  0  0  0  0
   10.4446    1.8422    0.0000 C   0  0  0  0  0  0  0  0  0  0  0  0
    8.6605    0.7937    0.0000 C   0  0  0  0  0  0  0  0  0  0  0  0
    9.5266    0.2937    0.0000 C   0  0  0  0  0  0  0  0  0  0  0  0
    7.7945    0.2937    0.0000 C   0  0  0  0  0  0  0  0  0  0  0  0
    9.5425    2.3630    0.0000 C   0  0  0  0  0  0  0  0  0  0  0  0
    7.7945   -0.7063    0.0000 C   0  0  0  0  0  0  0  0  0  0  0  0
    8.6445    1.8352    0.0000 C   0  0  0  0  0  0  0  0  0  0  0  0
   10.9479    2.7063    0.0000 C   0  0  0  0  0  0  0  0  0  0  0  0
   11.4446    1.8383    0.0000 C   0  0  0  0  0  0  0  0  0  0  0  0
    9.5266   -0.7063    0.0000 C   0  0  0  0  0  0  0  0  0  0  0  0
    8.6605   -1.2063    0.0000 C   0  0  0  0  0  0  0  0  0  0  0  0
    6.9006   -1.2409    0.0000 C   0  0  0  0  0  0  0  0  0  0  0  0
    5.9945    0.3145    0.0000 C   0  0  0  0  0  0  0  0  0  0  0  0
    5.9945   -0.7271    0.0000 C   0  0  0  0  0  0  0  0  0  0  0  0
    5.1304    0.8179    0.0000 C   0  0  0  0  0  0  0  0  0  0  0  0
    4.2625    0.3212    0.0000 C   0  0  0  0  0  0  0  0  0  0  0  0
    5.1343    1.8179    0.0000 C   0  0  0  0  0  0  0  0  0  0  0  0
    9.5266   -2.7063    0.0000 C   0  0  0  0  0  0  0  0  0  0  0  0
    3.3984    0.8246    0.0000 C   0  0  0  0  0  0  0  0  0  0  0  0
    4.2702    2.3212    0.0000 C   0  0  0  0  0  0  0  0  0  0  0  0
    3.4022    1.8246    0.0000 C   0  0  0  0  0  0  0  0  0  0  0  0
    5.1343   -2.2304    0.0000 C   0  0  0  0  0  0  0  0  0  0  0  0
    9.5401    2.9830    0.0000 H   0  0  0  0  0  0  0  0  0  0  0  0
    8.1040    2.1390    0.0000 H   0  0  0  0  0  0  0  0  0  0  0  0
   11.4422    1.2183    0.0000 H   0  0  0  0  0  0  0  0  0  0  0  0
   12.0646    1.8359    0.0000 H   0  0  0  0  0  0  0  0  0  0  0  0
   11.4837    2.3942    0.0000 H   0  0  0  0  0  0  0  0  0  0  0  0
   11.2600    3.2420    0.0000 H   0  0  0  0  0  0  0  0  0  0  0  0
   10.4122    3.0183    0.0000 H   0  0  0  0  0  0  0  0  0  0  0  0
   11.4470    2.4583    0.0000 H   0  0  0  0  0  0  0  0  0  0  0  0
   10.0635   -1.0163    0.0000 H   0  0  0  0  0  0  0  0  0  0  0  0
    4.2601   -0.2988    0.0000 H   0  0  0  0  0  0  0  0  0  0  0  0
    5.6724    2.1258    0.0000 H   0  0  0  0  0  0  0  0  0  0  0  0
    9.2166   -3.2432    0.0000 H   0  0  0  0  0  0  0  0  0  0  0  0
   10.0635   -3.0163    0.0000 H   0  0  0  0  0  0  0  0  0  0  0  0
    9.8366   -2.1693    0.0000 H   0  0  0  0  0  0  0  0  0  0  0  0
    2.8602    0.5166    0.0000 H   0  0  0  0  0  0  0  0  0  0  0  0
    4.2726    2.9412    0.0000 H   0  0  0  0  0  0  0  0  0  0  0  0
    4.5143   -2.2328    0.0000 H   0  0  0  0  0  0  0  0  0  0  0  0
    5.1367   -2.8504    0.0000 H   0  0  0  0  0  0  0  0  0  0  0  0
    5.7542   -2.2280    0.0000 H   0  0  0  0  0  0  0  0  0  0  0  0
    2.0000    2.0200    0.0000 H   0  0  0  0  0  0  0  0  0  0  0  0
  1  7  1  0  0  0  0
  1  9  1  0  0  0  0
  2 10  1  0  0  0  0
  2 19  1  0  0  0  0
  3 17  1  0  0  0  0
  3 24  1  0  0  0  0
  4 20  1  0  0  0  0
  4 28  1  0  0  0  0
  5 18  2  0  0  0  0
  6 27  1  0  0  0  0
  6 48  1  0  0  0  0
  7 11  1  0  0  0  0
  7 14  1  0  0  0  0
  7 15  1  0  0  0  0
  8  9  1  0  0  0  0
  8 10  2  0  0  0  0
  8 13  1  0  0  0  0
  9 16  2  0  0  0  0
 10 12  1  0  0  0  0
 11 13  2  0  0  0  0
 11 29  1  0  0  0  0
 12 17  2  0  0  0  0
 12 18  1  0  0  0  0
 13 30  1  0  0  0  0
 14 33  1  0  0  0  0
 14 34  1  0  0  0  0
 14 35  1  0  0  0  0
 15 31  1  0  0  0  0
 15 32  1  0  0  0  0
 15 36  1  0  0  0  0
 16 17  1  0  0  0  0
 16 37  1  0  0  0  0
 18 20  1  0  0  0  0
 19 20  2  0  0  0  0
 19 21  1  0  0  0  0
 21 22  2  0  0  0  0
 21 23  1  0  0  0  0
 22 25  1  0  0  0  0
 22 38  1  0  0  0  0
 23 26  2  0  0  0  0
 23 39  1  0  0  0  0
 24 40  1  0  0  0  0
 24 41  1  0  0  0  0
 24 42  1  0  0  0  0
 25 27  2  0  0  0  0
 25 43  1  0  0  0  0
 26 27  1  0  0  0  0
 26 44  1  0  0  0  0
 28 45  1  0  0  0  0
 28 46  1  0  0  0  0
 28 47  1  0  0  0  0
M  END
>  <PUBCHEM_COMPOUND_CID>
131753080

>  <PUBCHEM_COMPOUND_CANONICALIZED>
1

>  <PUBCHEM_CACTVS_COMPLEXITY>
673

>  <PUBCHEM_CACTVS_HBOND_ACCEPTOR>
6

>  <PUBCHEM_CACTVS_HBOND_DONOR>
1

>  <PUBCHEM_CACTVS_ROTATABLE_BOND>
3

>  <PUBCHEM_CACTVS_SUBSKEYS>
AAADceB4OAAAAAAAAAAAAAAAAAAAAAAAAAAwYIEAAAAAAACBQAAAGgAACAAADESAmAIyBoAABgCIAqBSAAICCAAkIAAIiAFGCMgMJzaGNR6CeWCl4BUIuQfI7PzOIAACCAAIAABAAAQQABAAAAAAAAAAAA==

>  <PUBCHEM_IUPAC_OPENEYE_NAME>
2-(4-hydroxyphenyl)-3,5-dimethoxy-8,8-dimethyl-pyrano[2,3-h]chromen-4-one

>  <PUBCHEM_IUPAC_CAS_NAME>
2-(4-hydroxyphenyl)-3,5-dimethoxy-8,8-dimethyl-4-pyrano[2,3-h][1]benzopyranone

>  <PUBCHEM_IUPAC_NAME>
2-(4-hydroxyphenyl)-3,5-dimethoxy-8,8-dimethylpyrano[2,3-h]chromen-4-one

>  <PUBCHEM_IUPAC_SYSTEMATIC_NAME>
2-(4-hydroxyphenyl)-3,5-dimethoxy-8,8-dimethyl-pyrano[2,3-h]chromen-4-one

>  <PUBCHEM_IUPAC_TRADITIONAL_NAME>
2-(4-hydroxyphenyl)-3,5-dimethoxy-8,8-dimethyl-pyrano[2,3-h]chromen-4-one

>  <PUBCHEM_IUPAC_INCHI>
InChI=1S/C22H20O6/c1-22(2)10-9-14-15(28-22)11-16(25-3)17-18(24)21(26-4)19(27-20(14)17)12-5-7-13(23)8-6-12/h5-11,23H,1-4H3

>  <PUBCHEM_IUPAC_INCHIKEY>
VNNMTQJSNKAONW-UHFFFAOYSA-N

>  <PUBCHEM_EXACT_MASS>
380.126

>  <PUBCHEM_MOLECULAR_FORMULA>
C22H20O6

>  <PUBCHEM_MOLECULAR_WEIGHT>
380.396

>  <PUBCHEM_OPENEYE_CAN_SMILES>
CC1(C=CC2=C3C(=C(C=C2O1)OC)C(=O)C(=C(O3)C4=CC=C(C=C4)O)OC)C

>  <PUBCHEM_OPENEYE_ISO_SMILES>
CC1(C=CC2=C3C(=C(C=C2O1)OC)C(=O)C(=C(O3)C4=CC=C(C=C4)O)OC)C

>  <PUBCHEM_CACTVS_TPSA>
74.2

>  <PUBCHEM_MONOISOTOPIC_WEIGHT>
380.126

>  <PUBCHEM_TOTAL_CHARGE>
0

>  <PUBCHEM_HEAVY_ATOM_COUNT>
28

>  <PUBCHEM_ATOM_DEF_STEREO_COUNT>
0

>  <PUBCHEM_ATOM_UDEF_STEREO_COUNT>
0

>  <PUBCHEM_BOND_DEF_STEREO_COUNT>
0

>  <PUBCHEM_BOND_UDEF_STEREO_COUNT>
0

>  <PUBCHEM_ISOTOPIC_ATOM_COUNT>
0

>  <PUBCHEM_COMPONENT_COUNT>
1

>  <PUBCHEM_CACTVS_TAUTO_COUNT>
5

>  <PUBCHEM_COORDINATE_TYPE>
1
5
255

>  <PUBCHEM_BONDANNOTATIONS>
10  12  8
12  17  8
12  18  8
16  17  8
18  20  8
19  20  8
2  10  8
2  19  8
21  22  8
21  23  8
22  25  8
23  26  8
25  27  8
26  27  8
8  10  8
8  9  8
9  16  8

$$$$
