131752554
 OpenBabel06101807152D

 72 72  0  0  1  0  0  0  0  0999 V2000
    4.2690   -5.0950    0.0000 O   0  0  0  0  0  0  0  0  0  0  0  0
    2.5369   -7.0950    0.0000 O   0  0  0  0  0  0  0  0  0  0  0  0
    4.2690   -8.0950    0.0000 O   0  0  0  0  0  0  0  0  0  0  0  0
    6.0010   -7.0950    0.0000 O   0  0  0  0  0  0  0  0  0  0  0  0
    6.0010   -5.0950    0.0000 O   0  0  0  0  0  0  0  0  0  0  0  0
    2.5369   -4.0950    0.0000 O   0  0  0  0  0  0  0  0  0  0  0  0
    5.1350   -3.5950    0.0000 O   0  0  0  0  0  0  0  0  0  0  0  0
    6.0010    7.9050    0.0000 O   0  0  0  0  0  0  0  0  0  0  0  0
    6.8671    6.4050    0.0000 O   0  0  0  0  0  0  0  0  0  0  0  0
    3.4030   -6.5950    0.0000 C   0  0  3  0  0  0  0  0  0  0  0  0
    4.2690   -7.0950    0.0000 C   0  0  3  0  0  0  0  0  0  0  0  0
    3.4030   -5.5950    0.0000 C   0  0  3  0  0  0  0  0  0  0  0  0
    5.1350   -6.5950    0.0000 C   0  0  3  0  0  0  0  0  0  0  0  0
    5.1350   -5.5950    0.0000 C   0  0  3  0  0  0  0  0  0  0  0  0
    2.5369   -5.0950    0.0000 C   0  0  0  0  0  0  0  0  0  0  0  0
    6.0010   -4.0950    0.0000 C   0  0  0  0  0  0  0  0  0  0  0  0
    6.8671   -3.5950    0.0000 C   0  0  0  0  0  0  0  0  0  0  0  0
    7.7331   -4.0950    0.0000 C   0  0  0  0  0  0  0  0  0  0  0  0
    6.8671   -2.5950    0.0000 C   0  0  0  0  0  0  0  0  0  0  0  0
    7.7331   -2.0950    0.0000 C   0  0  0  0  0  0  0  0  0  0  0  0
    7.7331   -1.0950    0.0000 C   0  0  0  0  0  0  0  0  0  0  0  0
    8.5991   -0.5950    0.0000 C   0  0  0  0  0  0  0  0  0  0  0  0
    9.4651   -1.0950    0.0000 C   0  0  0  0  0  0  0  0  0  0  0  0
    8.5991    0.4050    0.0000 C   0  0  0  0  0  0  0  0  0  0  0  0
    7.7331    0.9050    0.0000 C   0  0  0  0  0  0  0  0  0  0  0  0
    7.7331    1.9050    0.0000 C   0  0  0  0  0  0  0  0  0  0  0  0
    6.8671    3.4050    0.0000 C   0  0  0  0  0  0  0  0  0  0  0  0
    6.8671    2.4050    0.0000 C   0  0  0  0  0  0  0  0  0  0  0  0
    6.0010    3.9050    0.0000 C   0  0  0  0  0  0  0  0  0  0  0  0
    7.7331    3.9050    0.0000 C   0  0  0  0  0  0  0  0  0  0  0  0
    6.0010    4.9050    0.0000 C   0  0  0  0  0  0  0  0  0  0  0  0
    5.1350    5.4050    0.0000 C   0  0  0  0  0  0  0  0  0  0  0  0
    5.1350    6.4050    0.0000 C   0  0  0  0  0  0  0  0  0  0  0  0
    4.2690    6.9050    0.0000 C   0  0  0  0  0  0  0  0  0  0  0  0
    6.0010    6.9050    0.0000 C   0  0  0  0  0  0  0  0  0  0  0  0
    6.8671    8.4050    0.0000 C   0  0  0  0  0  0  0  0  0  0  0  0
    3.4030   -7.2150    0.0000 H   0  0  0  0  0  0  0  0  0  0  0  0
    3.7320   -7.4050    0.0000 H   0  0  0  0  0  0  0  0  0  0  0  0
    3.4030   -4.9750    0.0000 H   0  0  0  0  0  0  0  0  0  0  0  0
    5.1350   -7.2150    0.0000 H   0  0  0  0  0  0  0  0  0  0  0  0
    5.1350   -4.9750    0.0000 H   0  0  0  0  0  0  0  0  0  0  0  0
    1.9264   -4.9873    0.0000 H   0  0  0  0  0  0  0  0  0  0  0  0
    2.3249   -5.6776    0.0000 H   0  0  0  0  0  0  0  0  0  0  0  0
    2.0000   -6.7850    0.0000 H   0  0  0  0  0  0  0  0  0  0  0  0
    3.7320   -8.4050    0.0000 H   0  0  0  0  0  0  0  0  0  0  0  0
    6.5380   -6.7850    0.0000 H   0  0  0  0  0  0  0  0  0  0  0  0
    2.0000   -3.7850    0.0000 H   0  0  0  0  0  0  0  0  0  0  0  0
    7.4231   -4.6319    0.0000 H   0  0  0  0  0  0  0  0  0  0  0  0
    8.2700   -4.4050    0.0000 H   0  0  0  0  0  0  0  0  0  0  0  0
    8.0431   -3.5581    0.0000 H   0  0  0  0  0  0  0  0  0  0  0  0
    6.3301   -2.2850    0.0000 H   0  0  0  0  0  0  0  0  0  0  0  0
    8.2700   -2.4050    0.0000 H   0  0  0  0  0  0  0  0  0  0  0  0
    7.1962   -0.7850    0.0000 H   0  0  0  0  0  0  0  0  0  0  0  0
    9.1551   -1.6319    0.0000 H   0  0  0  0  0  0  0  0  0  0  0  0
   10.0021   -1.4050    0.0000 H   0  0  0  0  0  0  0  0  0  0  0  0
    9.7751   -0.5581    0.0000 H   0  0  0  0  0  0  0  0  0  0  0  0
    9.1360    0.7150    0.0000 H   0  0  0  0  0  0  0  0  0  0  0  0
    7.1962    0.5950    0.0000 H   0  0  0  0  0  0  0  0  0  0  0  0
    8.2700    2.2150    0.0000 H   0  0  0  0  0  0  0  0  0  0  0  0
    6.3301    2.0950    0.0000 H   0  0  0  0  0  0  0  0  0  0  0  0
    5.4641    3.5950    0.0000 H   0  0  0  0  0  0  0  0  0  0  0  0
    8.0431    3.3681    0.0000 H   0  0  0  0  0  0  0  0  0  0  0  0
    8.2700    4.2150    0.0000 H   0  0  0  0  0  0  0  0  0  0  0  0
    7.4231    4.4419    0.0000 H   0  0  0  0  0  0  0  0  0  0  0  0
    6.5380    5.2150    0.0000 H   0  0  0  0  0  0  0  0  0  0  0  0
    4.5981    5.0950    0.0000 H   0  0  0  0  0  0  0  0  0  0  0  0
    4.5790    7.4419    0.0000 H   0  0  0  0  0  0  0  0  0  0  0  0
    3.7320    7.2150    0.0000 H   0  0  0  0  0  0  0  0  0  0  0  0
    3.9590    6.3681    0.0000 H   0  0  0  0  0  0  0  0  0  0  0  0
    7.1771    7.8681    0.0000 H   0  0  0  0  0  0  0  0  0  0  0  0
    7.4040    8.7150    0.0000 H   0  0  0  0  0  0  0  0  0  0  0  0
    6.5571    8.9419    0.0000 H   0  0  0  0  0  0  0  0  0  0  0  0
  1 12  1  0  0  0  0
  1 14  1  0  0  0  0
  2 10  1  0  0  0  0
  2 44  1  0  0  0  0
  3 11  1  0  0  0  0
  3 45  1  0  0  0  0
  4 13  1  0  0  0  0
  4 46  1  0  0  0  0
  5 14  1  0  0  0  0
  5 16  1  0  0  0  0
  6 15  1  0  0  0  0
  6 47  1  0  0  0  0
  7 16  2  0  0  0  0
  8 35  1  0  0  0  0
  8 36  1  0  0  0  0
  9 35  2  0  0  0  0
 10 11  1  0  0  0  0
 10 12  1  0  0  0  0
 10 37  1  0  0  0  0
 11 13  1  0  0  0  0
 11 38  1  0  0  0  0
 12 15  1  0  0  0  0
 12 39  1  0  0  0  0
 13 14  1  0  0  0  0
 13 40  1  0  0  0  0
 14 41  1  0  0  0  0
 15 42  1  0  0  0  0
 15 43  1  0  0  0  0
 16 17  1  0  0  0  0
 17 18  1  0  0  0  0
 17 19  2  0  0  0  0
 18 48  1  0  0  0  0
 18 49  1  0  0  0  0
 18 50  1  0  0  0  0
 19 20  1  0  0  0  0
 19 51  1  0  0  0  0
 20 21  2  0  0  0  0
 20 52  1  0  0  0  0
 21 22  1  0  0  0  0
 21 53  1  0  0  0  0
 22 23  1  0  0  0  0
 22 24  2  0  0  0  0
 23 54  1  0  0  0  0
 23 55  1  0  0  0  0
 23 56  1  0  0  0  0
 24 25  1  0  0  0  0
 24 57  1  0  0  0  0
 25 26  2  0  0  0  0
 25 58  1  0  0  0  0
 26 28  1  0  0  0  0
 26 59  1  0  0  0  0
 27 28  2  0  0  0  0
 27 29  1  0  0  0  0
 27 30  1  0  0  0  0
 28 60  1  0  0  0  0
 29 31  2  0  0  0  0
 29 61  1  0  0  0  0
 30 62  1  0  0  0  0
 30 63  1  0  0  0  0
 30 64  1  0  0  0  0
 31 32  1  0  0  0  0
 31 65  1  0  0  0  0
 32 33  2  0  0  0  0
 32 66  1  0  0  0  0
 33 34  1  0  0  0  0
 33 35  1  0  0  0  0
 34 67  1  0  0  0  0
 34 68  1  0  0  0  0
 34 69  1  0  0  0  0
 36 70  1  0  0  0  0
 36 71  1  0  0  0  0
 36 72  1  0  0  0  0
M  END
>  <PUBCHEM_COMPOUND_CID>
131752554

>  <PUBCHEM_COMPOUND_CANONICALIZED>
1

>  <PUBCHEM_CACTVS_COMPLEXITY>
966

>  <PUBCHEM_CACTVS_HBOND_ACCEPTOR>
9

>  <PUBCHEM_CACTVS_HBOND_DONOR>
4

>  <PUBCHEM_CACTVS_ROTATABLE_BOND>
12

>  <PUBCHEM_CACTVS_SUBSKEYS>
AAADcfB4PAAAAAAAAAAAAAAAAAAAAAAAAAAkAAAAAAAAAAAAAAAAGgAACAAADBSwgAMCCAAABgCIAiDSCAAAAAAgAAAICAEAAEgZFAIAIQAiUAAFAAAPoYPAYAwAAAAAAAAAAAAAAAAAAAAAAAAAAAAAAA==

>  <PUBCHEM_IUPAC_OPENEYE_NAME>
O1-methyl O16-[3,4,5-trihydroxy-6-(hydroxymethyl)tetrahydropyran-2-yl] (2Z,4E,6E,8E,10Z,12E,14E)-2,6,11,15-tetramethylhexadeca-2,4,6,8,10,12,14-heptaenedioate

>  <PUBCHEM_IUPAC_CAS_NAME>
(2Z,4E,6E,8E,10Z,12E,14E)-2,6,11,15-tetramethylhexadeca-2,4,6,8,10,12,14-heptaenedioic acid O1-methyl ester O16-[3,4,5-trihydroxy-6-(hydroxymethyl)-2-oxanyl] ester

>  <PUBCHEM_IUPAC_NAME>
1-O-methyl 16-O-[3,4,5-trihydroxy-6-(hydroxymethyl)oxan-2-yl] (2Z,4E,6E,8E,10Z,12E,14E)-2,6,11,15-tetramethylhexadeca-2,4,6,8,10,12,14-heptaenedioate

>  <PUBCHEM_IUPAC_SYSTEMATIC_NAME>
O1-[6-(hydroxymethyl)-3,4,5-tris(oxidanyl)oxan-2-yl] O16-methyl (2E,4E,6Z,8E,10E,12E,14Z)-2,6,11,15-tetramethylhexadeca-2,4,6,8,10,12,14-heptaenedioate

>  <PUBCHEM_IUPAC_TRADITIONAL_NAME>
(2Z,4E,6E,8E,10Z,12E,14E)-2,6,11,15-tetramethylhexadeca-2,4,6,8,10,12,14-heptaenedioic acid O1-methyl ester O16-(3,4,5-trihydroxy-6-methylol-tetrahydropyran-2-yl) ester

>  <PUBCHEM_IUPAC_INCHI>
InChI=1S/C27H36O9/c1-17(12-8-14-19(3)25(32)34-5)10-6-7-11-18(2)13-9-15-20(4)26(33)36-27-24(31)23(30)22(29)21(16-28)35-27/h6-15,21-24,27-31H,16H2,1-5H3/b7-6+,12-8+,13-9+,17-10+,18-11-,19-14-,20-15+

>  <PUBCHEM_IUPAC_INCHIKEY>
ATQIQIBBBWQWOT-QNFREAFUSA-N

>  <PUBCHEM_EXACT_MASS>
504.236

>  <PUBCHEM_MOLECULAR_FORMULA>
C27H36O9

>  <PUBCHEM_MOLECULAR_WEIGHT>
504.576

>  <PUBCHEM_OPENEYE_CAN_SMILES>
CC(=CC=CC=C(C)C=CC=C(C)C(=O)OC1C(C(C(C(O1)CO)O)O)O)C=CC=C(C)C(=O)OC

>  <PUBCHEM_OPENEYE_ISO_SMILES>
C/C(=C\C=C\C=C(\C)/C=C/C=C(\C)/C(=O)OC1C(C(C(C(O1)CO)O)O)O)/C=C/C=C(/C)\C(=O)OC

>  <PUBCHEM_CACTVS_TPSA>
143

>  <PUBCHEM_MONOISOTOPIC_WEIGHT>
504.236

>  <PUBCHEM_TOTAL_CHARGE>
0

>  <PUBCHEM_HEAVY_ATOM_COUNT>
36

>  <PUBCHEM_ATOM_DEF_STEREO_COUNT>
0

>  <PUBCHEM_ATOM_UDEF_STEREO_COUNT>
5

>  <PUBCHEM_BOND_DEF_STEREO_COUNT>
7

>  <PUBCHEM_BOND_UDEF_STEREO_COUNT>
0

>  <PUBCHEM_ISOTOPIC_ATOM_COUNT>
0

>  <PUBCHEM_COMPONENT_COUNT>
1

>  <PUBCHEM_CACTVS_TAUTO_COUNT>
98

>  <PUBCHEM_COORDINATE_TYPE>
1
5
255

>  <PUBCHEM_BONDANNOTATIONS>
12  15  3
10  2  3
11  3  3
13  4  3
14  5  3

$$$$
