131751904
 OpenBabel06101807152D

 26 26  0  0  1  0  0  0  0  0999 V2000
    3.7601   -0.0006    0.0000 O   0  0  0  0  0  0  0  0  0  0  0  0
    2.0000    0.2782    0.0000 O   0  0  0  0  0  0  0  0  0  0  0  0
    3.2601    1.5382    0.0000 C   0  0  3  0  0  0  0  0  0  0  0  0
    4.2601    1.5382    0.0000 C   0  0  0  0  0  0  0  0  0  0  0  0
    4.5691    0.5872    0.0000 C   0  0  3  0  0  0  0  0  0  0  0  0
    2.9511    0.5872    0.0000 C   0  0  0  0  0  0  0  0  0  0  0  0
    2.6723    2.3473    0.0000 C   0  0  0  0  0  0  0  0  0  0  0  0
    5.5202    0.2782    0.0000 C   0  0  0  0  0  0  0  0  0  0  0  0
    5.7281   -0.7000    0.0000 C   0  0  0  0  0  0  0  0  0  0  0  0
    4.9849   -1.3691    0.0000 C   0  0  0  0  0  0  0  0  0  0  0  0
    5.1928   -2.3473    0.0000 C   0  0  0  0  0  0  0  0  0  0  0  0
    4.0339   -1.0601    0.0000 C   0  0  0  0  0  0  0  0  0  0  0  0
    3.5416    2.0907    0.0000 H   0  0  0  0  0  0  0  0  0  0  0  0
    4.8665    1.6672    0.0000 H   0  0  0  0  0  0  0  0  0  0  0  0
    4.1953    2.1548    0.0000 H   0  0  0  0  0  0  0  0  0  0  0  0
    4.6661   -0.0252    0.0000 H   0  0  0  0  0  0  0  0  0  0  0  0
    3.1739    2.7117    0.0000 H   0  0  0  0  0  0  0  0  0  0  0  0
    2.3079    2.8488    0.0000 H   0  0  0  0  0  0  0  0  0  0  0  0
    2.1707    1.9828    0.0000 H   0  0  0  0  0  0  0  0  0  0  0  0
    5.9809    0.6930    0.0000 H   0  0  0  0  0  0  0  0  0  0  0  0
    6.3177   -0.8916    0.0000 H   0  0  0  0  0  0  0  0  0  0  0  0
    4.5864   -2.4762    0.0000 H   0  0  0  0  0  0  0  0  0  0  0  0
    5.3217   -2.9537    0.0000 H   0  0  0  0  0  0  0  0  0  0  0  0
    5.7993   -2.2184    0.0000 H   0  0  0  0  0  0  0  0  0  0  0  0
    3.9050   -0.4536    0.0000 H   0  0  0  0  0  0  0  0  0  0  0  0
    3.5731   -1.4750    0.0000 H   0  0  0  0  0  0  0  0  0  0  0  0
  1  5  1  0  0  0  0
  1  6  1  0  0  0  0
  2  6  2  0  0  0  0
  3  4  1  0  0  0  0
  3  6  1  0  0  0  0
  3  7  1  0  0  0  0
  3 13  1  0  0  0  0
  4  5  1  0  0  0  0
  4 14  1  0  0  0  0
  4 15  1  0  0  0  0
  5  8  1  0  0  0  0
  5 16  1  0  0  0  0
  7 17  1  0  0  0  0
  7 18  1  0  0  0  0
  7 19  1  0  0  0  0
  8  9  2  0  0  0  0
  8 20  1  0  0  0  0
  9 10  1  0  0  0  0
  9 21  1  0  0  0  0
 10 11  1  0  0  0  0
 10 12  2  0  0  0  0
 11 22  1  0  0  0  0
 11 23  1  0  0  0  0
 11 24  1  0  0  0  0
 12 25  1  0  0  0  0
 12 26  1  0  0  0  0
M  END
>  <PUBCHEM_COMPOUND_CID>
131751904

>  <PUBCHEM_COMPOUND_CANONICALIZED>
1

>  <PUBCHEM_CACTVS_COMPLEXITY>
228

>  <PUBCHEM_CACTVS_HBOND_ACCEPTOR>
2

>  <PUBCHEM_CACTVS_HBOND_DONOR>
0

>  <PUBCHEM_CACTVS_ROTATABLE_BOND>
2

>  <PUBCHEM_CACTVS_SUBSKEYS>
AAADccBwMAAAAAAAAAAAAAAAAAAAASAAAAAAAAAAAAAAAAAAAAAAGgAAAAAADRSggAICCAAABACIAiDSCAAAAAAgAAAICAEAAAgIBBIAIQACEAAEgAAIoAKKAAAMAAAAAAAAAAAAAAAAAAAAAAAAAAAAAA==

>  <PUBCHEM_IUPAC_OPENEYE_NAME>
3-methyl-5-[(1Z)-3-methylbuta-1,3-dienyl]tetrahydrofuran-2-one

>  <PUBCHEM_IUPAC_CAS_NAME>
3-methyl-5-[(1Z)-3-methylbuta-1,3-dienyl]-2-oxolanone

>  <PUBCHEM_IUPAC_NAME>
3-methyl-5-[(1Z)-3-methylbuta-1,3-dienyl]oxolan-2-one

>  <PUBCHEM_IUPAC_SYSTEMATIC_NAME>
3-methyl-5-[(1Z)-3-methylbuta-1,3-dienyl]oxolan-2-one

>  <PUBCHEM_IUPAC_TRADITIONAL_NAME>
3-methyl-5-[(1Z)-3-methylbuta-1,3-dienyl]tetrahydrofuran-2-one

>  <PUBCHEM_IUPAC_INCHI>
InChI=1S/C10H14O2/c1-7(2)4-5-9-6-8(3)10(11)12-9/h4-5,8-9H,1,6H2,2-3H3/b5-4-

>  <PUBCHEM_IUPAC_INCHIKEY>
VOJBXZDIFIJUKD-PLNGDYQASA-N

>  <PUBCHEM_EXACT_MASS>
166.099

>  <PUBCHEM_MOLECULAR_FORMULA>
C10H14O2

>  <PUBCHEM_MOLECULAR_WEIGHT>
166.22

>  <PUBCHEM_OPENEYE_CAN_SMILES>
CC1CC(OC1=O)C=CC(=C)C

>  <PUBCHEM_OPENEYE_ISO_SMILES>
CC1CC(OC1=O)/C=C\C(=C)C

>  <PUBCHEM_CACTVS_TPSA>
26.3

>  <PUBCHEM_MONOISOTOPIC_WEIGHT>
166.099

>  <PUBCHEM_TOTAL_CHARGE>
0

>  <PUBCHEM_HEAVY_ATOM_COUNT>
12

>  <PUBCHEM_ATOM_DEF_STEREO_COUNT>
0

>  <PUBCHEM_ATOM_UDEF_STEREO_COUNT>
2

>  <PUBCHEM_BOND_DEF_STEREO_COUNT>
1

>  <PUBCHEM_BOND_UDEF_STEREO_COUNT>
0

>  <PUBCHEM_ISOTOPIC_ATOM_COUNT>
0

>  <PUBCHEM_COMPONENT_COUNT>
1

>  <PUBCHEM_CACTVS_TAUTO_COUNT>
2

>  <PUBCHEM_COORDINATE_TYPE>
1
5
255

>  <PUBCHEM_BONDANNOTATIONS>
3  7  3
5  8  3

$$$$
