131752981
 OpenBabel06101807152D

 46 46  0  0  1  0  0  0  0  0999 V2000
    6.7871    1.0638    0.0000 O   0  0  0  0  0  0  0  0  0  0  0  0
    6.7826   -0.1755    0.0000 O   0  0  0  0  0  0  0  0  0  0  0  0
    2.5896    2.3718    0.0000 O   0  0  0  0  0  0  0  0  0  0  0  0
    7.5961    1.6515    0.0000 C   0  0  3  0  0  0  0  0  0  0  0  0
    5.9781    1.6515    0.0000 C   0  0  3  0  0  0  0  0  0  0  0  0
    7.2871    2.6026    0.0000 C   0  0  0  0  0  0  0  0  0  0  0  0
    6.2871    2.6026    0.0000 C   0  0  0  0  0  0  0  0  0  0  0  0
    5.0270    1.3425    0.0000 C   0  0  3  0  0  0  0  0  0  0  0  0
    8.1839    0.8425    0.0000 C   0  0  0  0  0  0  0  0  0  0  0  0
    8.5472    1.9606    0.0000 C   0  0  0  0  0  0  0  0  0  0  0  0
    4.2839    2.0117    0.0000 C   0  0  0  0  0  0  0  0  0  0  0  0
    4.8191    0.3644    0.0000 C   0  0  0  0  0  0  0  0  0  0  0  0
    7.7771   -0.0710    0.0000 C   0  0  0  0  0  0  0  0  0  0  0  0
    8.3649   -0.8800    0.0000 C   0  0  0  0  0  0  0  0  0  0  0  0
    3.3328    1.7026    0.0000 C   0  0  0  0  0  0  0  0  0  0  0  0
    7.9582   -1.7936    0.0000 C   0  0  0  0  0  0  0  0  0  0  0  0
    8.5460   -2.6026    0.0000 C   0  0  0  0  0  0  0  0  0  0  0  0
    6.9637   -1.8981    0.0000 C   0  0  0  0  0  0  0  0  0  0  0  0
    6.5677    1.8431    0.0000 H   0  0  0  0  0  0  0  0  0  0  0  0
    7.8935    2.7315    0.0000 H   0  0  0  0  0  0  0  0  0  0  0  0
    7.2223    3.2192    0.0000 H   0  0  0  0  0  0  0  0  0  0  0  0
    6.3519    3.2192    0.0000 H   0  0  0  0  0  0  0  0  0  0  0  0
    5.6806    2.7315    0.0000 H   0  0  0  0  0  0  0  0  0  0  0  0
    5.4878    0.9277    0.0000 H   0  0  0  0  0  0  0  0  0  0  0  0
    8.6979    0.4958    0.0000 H   0  0  0  0  0  0  0  0  0  0  0  0
    8.6146    1.2885    0.0000 H   0  0  0  0  0  0  0  0  0  0  0  0
    8.7387    1.3709    0.0000 H   0  0  0  0  0  0  0  0  0  0  0  0
    9.1368    2.1521    0.0000 H   0  0  0  0  0  0  0  0  0  0  0  0
    8.3556    2.5502    0.0000 H   0  0  0  0  0  0  0  0  0  0  0  0
    4.7724    2.3934    0.0000 H   0  0  0  0  0  0  0  0  0  0  0  0
    3.9928    2.5591    0.0000 H   0  0  0  0  0  0  0  0  0  0  0  0
    4.2126    0.4933    0.0000 H   0  0  0  0  0  0  0  0  0  0  0  0
    4.6902   -0.2421    0.0000 H   0  0  0  0  0  0  0  0  0  0  0  0
    5.4255    0.2355    0.0000 H   0  0  0  0  0  0  0  0  0  0  0  0
    8.8789   -1.2267    0.0000 H   0  0  0  0  0  0  0  0  0  0  0  0
    8.7956   -0.4340    0.0000 H   0  0  0  0  0  0  0  0  0  0  0  0
    2.8442    1.3209    0.0000 H   0  0  0  0  0  0  0  0  0  0  0  0
    3.6239    1.1552    0.0000 H   0  0  0  0  0  0  0  0  0  0  0  0
    8.5748   -1.7288    0.0000 H   0  0  0  0  0  0  0  0  0  0  0  0
    8.0444   -2.9670    0.0000 H   0  0  0  0  0  0  0  0  0  0  0  0
    8.9104   -3.1042    0.0000 H   0  0  0  0  0  0  0  0  0  0  0  0
    6.8989   -1.2815    0.0000 H   0  0  0  0  0  0  0  0  0  0  0  0
    6.3471   -1.9629    0.0000 H   0  0  0  0  0  0  0  0  0  0  0  0
    7.0285   -2.5147    0.0000 H   0  0  0  0  0  0  0  0  0  0  0  0
    9.0476   -2.2382    0.0000 H   0  0  0  0  0  0  0  0  0  0  0  0
    2.0000    2.1802    0.0000 H   0  0  0  0  0  0  0  0  0  0  0  0
  1  4  1  0  0  0  0
  1  5  1  0  0  0  0
  2 13  2  0  0  0  0
  3 15  1  0  0  0  0
  3 46  1  0  0  0  0
  4  6  1  0  0  0  0
  4  9  1  0  0  0  0
  4 10  1  0  0  0  0
  5  7  1  0  0  0  0
  5  8  1  0  0  0  0
  5 19  1  0  0  0  0
  6  7  1  0  0  0  0
  6 20  1  0  0  0  0
  6 21  1  0  0  0  0
  7 22  1  0  0  0  0
  7 23  1  0  0  0  0
  8 11  1  0  0  0  0
  8 12  1  0  0  0  0
  8 24  1  0  0  0  0
  9 13  1  0  0  0  0
  9 25  1  0  0  0  0
  9 26  1  0  0  0  0
 10 27  1  0  0  0  0
 10 28  1  0  0  0  0
 10 29  1  0  0  0  0
 11 15  1  0  0  0  0
 11 30  1  0  0  0  0
 11 31  1  0  0  0  0
 12 32  1  0  0  0  0
 12 33  1  0  0  0  0
 12 34  1  0  0  0  0
 13 14  1  0  0  0  0
 14 16  1  0  0  0  0
 14 35  1  0  0  0  0
 14 36  1  0  0  0  0
 15 37  1  0  0  0  0
 15 38  1  0  0  0  0
 16 17  1  0  0  0  0
 16 18  1  0  0  0  0
 16 39  1  0  0  0  0
 17 40  1  0  0  0  0
 17 41  1  0  0  0  0
 17 45  1  0  0  0  0
 18 42  1  0  0  0  0
 18 43  1  0  0  0  0
 18 44  1  0  0  0  0
M  END
>  <PUBCHEM_COMPOUND_CID>
131752981

>  <PUBCHEM_COMPOUND_CANONICALIZED>
1

>  <PUBCHEM_CACTVS_COMPLEXITY>
275

>  <PUBCHEM_CACTVS_HBOND_ACCEPTOR>
3

>  <PUBCHEM_CACTVS_HBOND_DONOR>
1

>  <PUBCHEM_CACTVS_ROTATABLE_BOND>
7

>  <PUBCHEM_CACTVS_SUBSKEYS>
AAADceBwMAAAAAAAAAAAAAAAAAAAASAAAAAAAAAAAAAAAAAAAAAAGgAACAAADVSggAICAAAABgAIAIAQAAAAAAAAAAAAAAEAAAAAEBYAAAACQAAEIAAAAAHIyPCOAAAAAAAAAAAAAAAAAAAAAAAAAAAAAA==

>  <PUBCHEM_IUPAC_OPENEYE_NAME>
1-[5-(3-hydroxy-1-methyl-propyl)-2-methyl-tetrahydrofuran-2-yl]-4-methyl-pentan-2-one

>  <PUBCHEM_IUPAC_CAS_NAME>
1-[5-(4-hydroxybutan-2-yl)-2-methyl-2-oxolanyl]-4-methyl-2-pentanone

>  <PUBCHEM_IUPAC_NAME>
1-[5-(4-hydroxybutan-2-yl)-2-methyloxolan-2-yl]-4-methylpentan-2-one

>  <PUBCHEM_IUPAC_SYSTEMATIC_NAME>
4-methyl-1-[2-methyl-5-(4-oxidanylbutan-2-yl)oxolan-2-yl]pentan-2-one

>  <PUBCHEM_IUPAC_TRADITIONAL_NAME>
1-[5-(3-hydroxy-1-methyl-propyl)-2-methyl-tetrahydrofuran-2-yl]-4-methyl-pentan-2-one

>  <PUBCHEM_IUPAC_INCHI>
InChI=1S/C15H28O3/c1-11(2)9-13(17)10-15(4)7-5-14(18-15)12(3)6-8-16/h11-12,14,16H,5-10H2,1-4H3

>  <PUBCHEM_IUPAC_INCHIKEY>
NQUGBBCWSQRMST-UHFFFAOYSA-N

>  <PUBCHEM_EXACT_MASS>
256.204

>  <PUBCHEM_MOLECULAR_FORMULA>
C15H28O3

>  <PUBCHEM_MOLECULAR_WEIGHT>
256.386

>  <PUBCHEM_OPENEYE_CAN_SMILES>
CC(C)CC(=O)CC1(CCC(O1)C(C)CCO)C

>  <PUBCHEM_OPENEYE_ISO_SMILES>
CC(C)CC(=O)CC1(CCC(O1)C(C)CCO)C

>  <PUBCHEM_CACTVS_TPSA>
46.5

>  <PUBCHEM_MONOISOTOPIC_WEIGHT>
256.204

>  <PUBCHEM_TOTAL_CHARGE>
0

>  <PUBCHEM_HEAVY_ATOM_COUNT>
18

>  <PUBCHEM_ATOM_DEF_STEREO_COUNT>
0

>  <PUBCHEM_ATOM_UDEF_STEREO_COUNT>
3

>  <PUBCHEM_BOND_DEF_STEREO_COUNT>
0

>  <PUBCHEM_BOND_UDEF_STEREO_COUNT>
0

>  <PUBCHEM_ISOTOPIC_ATOM_COUNT>
0

>  <PUBCHEM_COMPONENT_COUNT>
1

>  <PUBCHEM_CACTVS_TAUTO_COUNT>
3

>  <PUBCHEM_COORDINATE_TYPE>
1
5
255

>  <PUBCHEM_BONDANNOTATIONS>
4  10  3
5  7  3
8  12  3

$$$$
