131752934
 OpenBabel06101807152D

 81 84  0  0  1  0  0  0  0  0999 V2000
    6.4374   -5.0192    0.0000 O   0  0  0  0  0  0  0  0  0  0  0  0
    5.5593   -0.4500    0.0000 C   0  0  3  0  0  0  0  0  0  0  0  0
    6.4253   -1.9500    0.0000 C   0  0  3  0  0  0  0  0  0  0  0  0
    6.4253   -0.9500    0.0000 C   0  0  3  0  0  0  0  0  0  0  0  0
    5.5593   -2.4500    0.0000 C   0  0  3  0  0  0  0  0  0  0  0  0
    5.5432    0.5915    0.0000 C   0  0  3  0  0  0  0  0  0  0  0  0
    4.6932   -0.9500    0.0000 C   0  0  0  0  0  0  0  0  0  0  0  0
    5.5432   -3.4915    0.0000 C   0  0  0  0  0  0  0  0  0  0  0  0
    4.6932   -1.9500    0.0000 C   0  0  0  0  0  0  0  0  0  0  0  0
    7.3353   -2.4568    0.0000 C   0  0  0  0  0  0  0  0  0  0  0  0
    7.3353   -0.4431    0.0000 C   0  0  0  0  0  0  0  0  0  0  0  0
    6.4413    1.1193    0.0000 C   0  0  0  0  0  0  0  0  0  0  0  0
    4.5913    1.1122    0.0000 C   0  0  0  0  0  0  0  0  0  0  0  0
    6.4413   -4.0192    0.0000 C   0  0  3  0  0  0  0  0  0  0  0  0
    4.5745   -0.2763    0.0000 C   0  0  0  0  0  0  0  0  0  0  0  0
    7.2913   -1.4500    0.0000 C   0  0  0  0  0  0  0  0  0  0  0  0
    7.3433   -3.4984    0.0000 C   0  0  0  0  0  0  0  0  0  0  0  0
    7.3433    0.5985    0.0000 C   0  0  0  0  0  0  0  0  0  0  0  0
    5.5100    2.7467    0.0000 C   0  0  3  0  0  0  0  0  0  0  0  0
    6.4496    2.2042    0.0000 C   0  0  0  0  0  0  0  0  0  0  0  0
    4.5598    0.4103    0.0000 C   0  0  0  0  0  0  0  0  0  0  0  0
    4.5746    2.1970    0.0000 C   0  0  0  0  0  0  0  0  0  0  0  0
    5.0332   -4.3517    0.0000 C   0  0  0  0  0  0  0  0  0  0  0  0
    4.5433   -3.4799    0.0000 C   0  0  0  0  0  0  0  0  0  0  0  0
    5.0066    3.6108    0.0000 C   0  0  0  0  0  0  0  0  0  0  0  0
    6.0066    3.6147    0.0000 C   0  0  0  0  0  0  0  0  0  0  0  0
    4.0067    3.6070    0.0000 C   0  0  0  0  0  0  0  0  0  0  0  0
    3.5033    4.4711    0.0000 C   0  0  0  0  0  0  0  0  0  0  0  0
    2.5033    4.4672    0.0000 C   0  0  0  0  0  0  0  0  0  0  0  0
    2.0000    5.3313    0.0000 C   0  0  0  0  0  0  0  0  0  0  0  0
    2.0067    3.5993    0.0000 C   0  0  0  0  0  0  0  0  0  0  0  0
    6.9598   -1.2641    0.0000 H   0  0  0  0  0  0  0  0  0  0  0  0
    5.0200   -2.7558    0.0000 H   0  0  0  0  0  0  0  0  0  0  0  0
    4.4812   -0.3674    0.0000 H   0  0  0  0  0  0  0  0  0  0  0  0
    4.0827   -1.0576    0.0000 H   0  0  0  0  0  0  0  0  0  0  0  0
    4.0827   -1.8423    0.0000 H   0  0  0  0  0  0  0  0  0  0  0  0
    4.4812   -2.5326    0.0000 H   0  0  0  0  0  0  0  0  0  0  0  0
    7.9470   -2.5582    0.0000 H   0  0  0  0  0  0  0  0  0  0  0  0
    7.5399   -1.8715    0.0000 H   0  0  0  0  0  0  0  0  0  0  0  0
    7.5399   -1.0284    0.0000 H   0  0  0  0  0  0  0  0  0  0  0  0
    7.9470   -0.3418    0.0000 H   0  0  0  0  0  0  0  0  0  0  0  0
    3.9789    1.2088    0.0000 H   0  0  0  0  0  0  0  0  0  0  0  0
    4.3913    0.5253    0.0000 H   0  0  0  0  0  0  0  0  0  0  0  0
    5.9025   -4.3261    0.0000 H   0  0  0  0  0  0  0  0  0  0  0  0
    4.6821    0.3342    0.0000 H   0  0  0  0  0  0  0  0  0  0  0  0
    3.9639   -0.1687    0.0000 H   0  0  0  0  0  0  0  0  0  0  0  0
    4.4668   -0.8869    0.0000 H   0  0  0  0  0  0  0  0  0  0  0  0
    7.6013   -1.9869    0.0000 H   0  0  0  0  0  0  0  0  0  0  0  0
    7.8283   -1.1400    0.0000 H   0  0  0  0  0  0  0  0  0  0  0  0
    6.9813   -0.9130    0.0000 H   0  0  0  0  0  0  0  0  0  0  0  0
    7.5569   -4.0805    0.0000 H   0  0  0  0  0  0  0  0  0  0  0  0
    7.9534   -3.3876    0.0000 H   0  0  0  0  0  0  0  0  0  0  0  0
    7.8815    0.9064    0.0000 H   0  0  0  0  0  0  0  0  0  0  0  0
    7.0596    2.0934    0.0000 H   0  0  0  0  0  0  0  0  0  0  0  0
    6.6632    2.7863    0.0000 H   0  0  0  0  0  0  0  0  0  0  0  0
    4.4474    1.0201    0.0000 H   0  0  0  0  0  0  0  0  0  0  0  0
    3.9500    0.2980    0.0000 H   0  0  0  0  0  0  0  0  0  0  0  0
    4.6721   -0.1994    0.0000 H   0  0  0  0  0  0  0  0  0  0  0  0
    4.3565    2.7774    0.0000 H   0  0  0  0  0  0  0  0  0  0  0  0
    3.9654    2.0815    0.0000 H   0  0  0  0  0  0  0  0  0  0  0  0
    4.4999   -4.0355    0.0000 H   0  0  0  0  0  0  0  0  0  0  0  0
    4.7171   -4.8850    0.0000 H   0  0  0  0  0  0  0  0  0  0  0  0
    5.5666   -4.6679    0.0000 H   0  0  0  0  0  0  0  0  0  0  0  0
    4.5505   -2.8600    0.0000 H   0  0  0  0  0  0  0  0  0  0  0  0
    3.9233   -3.4728    0.0000 H   0  0  0  0  0  0  0  0  0  0  0  0
    4.5361   -4.0999    0.0000 H   0  0  0  0  0  0  0  0  0  0  0  0
    5.5884    3.8251    0.0000 H   0  0  0  0  0  0  0  0  0  0  0  0
    4.8966    4.2210    0.0000 H   0  0  0  0  0  0  0  0  0  0  0  0
    6.5448    3.3068    0.0000 H   0  0  0  0  0  0  0  0  0  0  0  0
    6.3146    4.1528    0.0000 H   0  0  0  0  0  0  0  0  0  0  0  0
    5.4685    3.9226    0.0000 H   0  0  0  0  0  0  0  0  0  0  0  0
    6.9731   -5.3313    0.0000 H   0  0  0  0  0  0  0  0  0  0  0  0
    3.4249    3.3927    0.0000 H   0  0  0  0  0  0  0  0  0  0  0  0
    4.1167    2.9968    0.0000 H   0  0  0  0  0  0  0  0  0  0  0  0
    3.8112    5.0092    0.0000 H   0  0  0  0  0  0  0  0  0  0  0  0
    1.4686    3.9072    0.0000 H   0  0  0  0  0  0  0  0  0  0  0  0
    1.6988    3.0611    0.0000 H   0  0  0  0  0  0  0  0  0  0  0  0
    2.5448    3.2913    0.0000 H   0  0  0  0  0  0  0  0  0  0  0  0
    2.5357    5.6434    0.0000 H   0  0  0  0  0  0  0  0  0  0  0  0
    1.6879    5.8670    0.0000 H   0  0  0  0  0  0  0  0  0  0  0  0
    1.4643    5.0192    0.0000 H   0  0  0  0  0  0  0  0  0  0  0  0
  1 14  1  0  0  0  0
  1 72  1  0  0  0  0
  2  4  1  0  0  0  0
  2  6  1  0  0  0  0
  2  7  1  0  0  0  0
  2 15  1  0  0  0  0
  3  4  1  0  0  0  0
  3  5  1  0  0  0  0
  3 10  1  0  0  0  0
  3 16  1  0  0  0  0
  4 11  1  0  0  0  0
  4 32  1  0  0  0  0
  5  8  1  0  0  0  0
  5  9  1  0  0  0  0
  5 33  1  0  0  0  0
  6 12  1  0  0  0  0
  6 13  1  0  0  0  0
  6 21  1  0  0  0  0
  7  9  1  0  0  0  0
  7 34  1  0  0  0  0
  7 35  1  0  0  0  0
  8 14  1  0  0  0  0
  8 23  1  0  0  0  0
  8 24  1  0  0  0  0
  9 36  1  0  0  0  0
  9 37  1  0  0  0  0
 10 17  1  0  0  0  0
 10 38  1  0  0  0  0
 10 39  1  0  0  0  0
 11 18  1  0  0  0  0
 11 40  1  0  0  0  0
 11 41  1  0  0  0  0
 12 18  2  0  0  0  0
 12 20  1  0  0  0  0
 13 22  1  0  0  0  0
 13 42  1  0  0  0  0
 13 43  1  0  0  0  0
 14 17  1  0  0  0  0
 14 44  1  0  0  0  0
 15 45  1  0  0  0  0
 15 46  1  0  0  0  0
 15 47  1  0  0  0  0
 16 48  1  0  0  0  0
 16 49  1  0  0  0  0
 16 50  1  0  0  0  0
 17 51  1  0  0  0  0
 17 52  1  0  0  0  0
 18 53  1  0  0  0  0
 19 20  1  0  0  0  0
 19 22  1  0  0  0  0
 19 25  1  0  0  0  0
 19 26  1  0  0  0  0
 20 54  1  0  0  0  0
 20 55  1  0  0  0  0
 21 56  1  0  0  0  0
 21 57  1  0  0  0  0
 21 58  1  0  0  0  0
 22 59  1  0  0  0  0
 22 60  1  0  0  0  0
 23 61  1  0  0  0  0
 23 62  1  0  0  0  0
 23 63  1  0  0  0  0
 24 64  1  0  0  0  0
 24 65  1  0  0  0  0
 24 66  1  0  0  0  0
 25 27  1  0  0  0  0
 25 67  1  0  0  0  0
 25 68  1  0  0  0  0
 26 69  1  0  0  0  0
 26 70  1  0  0  0  0
 26 71  1  0  0  0  0
 27 28  1  0  0  0  0
 27 73  1  0  0  0  0
 27 74  1  0  0  0  0
 28 29  2  0  0  0  0
 28 75  1  0  0  0  0
 29 30  1  0  0  0  0
 29 31  1  0  0  0  0
 30 79  1  0  0  0  0
 30 80  1  0  0  0  0
 30 81  1  0  0  0  0
 31 76  1  0  0  0  0
 31 77  1  0  0  0  0
 31 78  1  0  0  0  0
M  END
>  <PUBCHEM_COMPOUND_CID>
131752934

>  <PUBCHEM_COMPOUND_CANONICALIZED>
1

>  <PUBCHEM_CACTVS_COMPLEXITY>
769

>  <PUBCHEM_CACTVS_HBOND_ACCEPTOR>
1

>  <PUBCHEM_CACTVS_HBOND_DONOR>
1

>  <PUBCHEM_CACTVS_ROTATABLE_BOND>
3

>  <PUBCHEM_CACTVS_SUBSKEYS>
AAADcfB4IAAAAAAAAAAAAAAAAAAAAAAAAAAwYMEAAAAAAADAAAAAGgAACAAADxSggAICAAAAAgCAAiBCAAAAAAAgAAAACAAAAAgAEAIAAQAAQAAEgAAIAAOAwPAPgAAAAAAAAADAAAYAADAAAAAAAAAAAA==

>  <PUBCHEM_IUPAC_OPENEYE_NAME>
1,1,4a,8,10a,10b-hexamethyl-8-(4-methylpent-3-enyl)-3,4,4b,5,7,9,10,11,12,12a-decahydro-2H-chrysen-2-ol

>  <PUBCHEM_IUPAC_CAS_NAME>
1,1,4a,8,10a,10b-hexamethyl-8-(4-methylpent-3-enyl)-3,4,4b,5,7,9,10,11,12,12a-decahydro-2H-chrysen-2-ol

>  <PUBCHEM_IUPAC_NAME>
1,1,4a,8,10a,10b-hexamethyl-8-(4-methylpent-3-enyl)-3,4,4b,5,7,9,10,11,12,12a-decahydro-2H-chrysen-2-ol

>  <PUBCHEM_IUPAC_SYSTEMATIC_NAME>
1,1,4a,8,10a,10b-hexamethyl-8-(4-methylpent-3-enyl)-3,4,4b,5,7,9,10,11,12,12a-decahydro-2H-chrysen-2-ol

>  <PUBCHEM_IUPAC_TRADITIONAL_NAME>
1,1,4a,8,10a,10b-hexamethyl-8-(4-methylpent-3-enyl)-3,4,4b,5,7,9,10,11,12,12a-decahydro-2H-chrysen-2-ol

>  <PUBCHEM_IUPAC_INCHI>
InChI=1S/C30H50O/c1-21(2)10-9-15-27(5)18-19-29(7)22(20-27)11-12-24-28(6)16-14-25(31)26(3,4)23(28)13-17-30(24,29)8/h10-11,23-25,31H,9,12-20H2,1-8H3

>  <PUBCHEM_IUPAC_INCHIKEY>
PLCSXUZKJJNYDO-UHFFFAOYSA-N

>  <PUBCHEM_EXACT_MASS>
426.386

>  <PUBCHEM_MOLECULAR_FORMULA>
C30H50O

>  <PUBCHEM_MOLECULAR_WEIGHT>
426.729

>  <PUBCHEM_OPENEYE_CAN_SMILES>
CC(=CCCC1(CCC2(C(=CCC3C2(CCC4C3(CCC(C4(C)C)O)C)C)C1)C)C)C

>  <PUBCHEM_OPENEYE_ISO_SMILES>
CC(=CCCC1(CCC2(C(=CCC3C2(CCC4C3(CCC(C4(C)C)O)C)C)C1)C)C)C

>  <PUBCHEM_CACTVS_TPSA>
20.2

>  <PUBCHEM_MONOISOTOPIC_WEIGHT>
426.386

>  <PUBCHEM_TOTAL_CHARGE>
0

>  <PUBCHEM_HEAVY_ATOM_COUNT>
31

>  <PUBCHEM_ATOM_DEF_STEREO_COUNT>
0

>  <PUBCHEM_ATOM_UDEF_STEREO_COUNT>
7

>  <PUBCHEM_BOND_DEF_STEREO_COUNT>
0

>  <PUBCHEM_BOND_UDEF_STEREO_COUNT>
0

>  <PUBCHEM_ISOTOPIC_ATOM_COUNT>
0

>  <PUBCHEM_COMPONENT_COUNT>
1

>  <PUBCHEM_CACTVS_TAUTO_COUNT>
1

>  <PUBCHEM_COORDINATE_TYPE>
1
5
255

>  <PUBCHEM_BONDANNOTATIONS>
14  1  3
19  26  3
2  15  3
3  16  3
4  11  3
5  9  3
6  21  3

$$$$
