131751323
 OpenBabel06101807152D

 51 55  0  0  1  0  0  0  0  0999 V2000
    5.0414   -1.4928    0.0000 O   0  0  0  0  0  0  0  0  0  0  0  0
    4.2370    2.8164    0.0000 O   0  0  0  0  0  0  0  0  0  0  0  0
    6.7168   -1.6734    0.0000 O   0  0  0  0  0  0  0  0  0  0  0  0
    5.8643   -2.9464    0.0000 O   0  0  0  0  0  0  0  0  0  0  0  0
    4.6745   -3.3287    0.0000 O   0  0  0  0  0  0  0  0  0  0  0  0
    5.1708   -0.2752    0.0000 C   0  0  3  0  0  0  0  0  0  0  0  0
    3.5848   -0.5616    0.0000 C   0  0  3  0  0  0  0  0  0  0  0  0
    4.2699    0.1587    0.0000 C   0  0  3  0  0  0  0  0  0  0  0  0
    4.0566   -1.4366    0.0000 C   0  0  3  0  0  0  0  0  0  0  0  0
    5.0349   -1.2599    0.0000 C   0  0  3  0  0  0  0  0  0  0  0  0
    3.5267   -2.3261    0.0000 C   0  0  3  0  0  0  0  0  0  0  0  0
    5.0640    0.9016    0.0000 C   0  0  0  0  0  0  0  0  0  0  0  0
    4.0474    1.1336    0.0000 C   0  0  0  0  0  0  0  0  0  0  0  0
    6.0718    0.1587    0.0000 C   0  0  0  0  0  0  0  0  0  0  0  0
    5.6708    1.9155    0.0000 C   0  0  3  0  0  0  0  0  0  0  0  0
    2.5503   -0.5155    0.0000 C   0  0  0  0  0  0  0  0  0  0  0  0
    4.5781   -0.6126    0.0000 C   0  0  0  0  0  0  0  0  0  0  0  0
    4.6708    1.9155    0.0000 C   0  0  3  0  0  0  0  0  0  0  0  0
    2.4915   -2.3040    0.0000 C   0  0  0  0  0  0  0  0  0  0  0  0
    6.2943    1.1336    0.0000 C   0  0  0  0  0  0  0  0  0  0  0  0
    2.0000   -1.3926    0.0000 C   0  0  0  0  0  0  0  0  0  0  0  0
    5.7565   -1.9522    0.0000 C   0  0  0  0  0  0  0  0  0  0  0  0
    4.5212   -2.3405    0.0000 C   0  0  0  0  0  0  0  0  0  0  0  0
    3.5088   -3.3260    0.0000 C   0  0  0  0  0  0  0  0  0  0  0  0
    7.2693    1.3562    0.0000 C   0  0  0  0  0  0  0  0  0  0  0  0
    4.7546    0.5453    0.0000 H   0  0  0  0  0  0  0  0  0  0  0  0
    4.4098   -1.9461    0.0000 H   0  0  0  0  0  0  0  0  0  0  0  0
    4.8558   -1.8535    0.0000 H   0  0  0  0  0  0  0  0  0  0  0  0
    4.6562    1.3686    0.0000 H   0  0  0  0  0  0  0  0  0  0  0  0
    4.4940    0.6578    0.0000 H   0  0  0  0  0  0  0  0  0  0  0  0
    3.6608    1.6184    0.0000 H   0  0  0  0  0  0  0  0  0  0  0  0
    3.4888    0.8646    0.0000 H   0  0  0  0  0  0  0  0  0  0  0  0
    6.2098   -0.4457    0.0000 H   0  0  0  0  0  0  0  0  0  0  0  0
    6.6918    0.1587    0.0000 H   0  0  0  0  0  0  0  0  0  0  0  0
    5.9399    2.4741    0.0000 H   0  0  0  0  0  0  0  0  0  0  0  0
    2.6835    0.0900    0.0000 H   0  0  0  0  0  0  0  0  0  0  0  0
    1.9765   -0.2807    0.0000 H   0  0  0  0  0  0  0  0  0  0  0  0
    5.1693   -0.4259    0.0000 H   0  0  0  0  0  0  0  0  0  0  0  0
    4.4994    0.0024    0.0000 H   0  0  0  0  0  0  0  0  0  0  0  0
    4.0548    1.9849    0.0000 H   0  0  0  0  0  0  0  0  0  0  0  0
    1.9034   -2.5006    0.0000 H   0  0  0  0  0  0  0  0  0  0  0  0
    2.5845   -2.9170    0.0000 H   0  0  0  0  0  0  0  0  0  0  0  0
    1.5390   -0.9781    0.0000 H   0  0  0  0  0  0  0  0  0  0  0  0
    1.5127   -1.7760    0.0000 H   0  0  0  0  0  0  0  0  0  0  0  0
    2.8889   -3.3149    0.0000 H   0  0  0  0  0  0  0  0  0  0  0  0
    3.4977   -3.9459    0.0000 H   0  0  0  0  0  0  0  0  0  0  0  0
    4.1287   -3.3371    0.0000 H   0  0  0  0  0  0  0  0  0  0  0  0
    7.6910    0.9017    0.0000 H   0  0  0  0  0  0  0  0  0  0  0  0
    7.4520    1.9486    0.0000 H   0  0  0  0  0  0  0  0  0  0  0  0
    4.5862    3.3287    0.0000 H   0  0  0  0  0  0  0  0  0  0  0  0
    7.1642   -2.1027    0.0000 H   0  0  0  0  0  0  0  0  0  0  0  0
  1 17  1  0  0  0  0
  1 23  1  0  0  0  0
  2 18  1  0  0  0  0
  2 50  1  0  0  0  0
  3 22  1  0  0  0  0
  3 51  1  0  0  0  0
  4 22  2  0  0  0  0
  5 23  2  0  0  0  0
  6  8  1  0  0  0  0
  6 10  1  0  0  0  0
  6 12  1  0  0  0  0
  6 14  1  0  0  0  0
  7  8  1  0  0  0  0
  7  9  1  0  0  0  0
  7 16  1  0  0  0  0
  7 17  1  0  0  0  0
  8 13  1  0  0  0  0
  8 26  1  0  0  0  0
  9 10  1  0  0  0  0
  9 11  1  0  0  0  0
  9 27  1  0  0  0  0
 10 22  1  0  0  0  0
 10 28  1  0  0  0  0
 11 19  1  0  0  0  0
 11 23  1  0  0  0  0
 11 24  1  0  0  0  0
 12 15  1  0  0  0  0
 12 29  1  0  0  0  0
 12 30  1  0  0  0  0
 13 18  1  0  0  0  0
 13 31  1  0  0  0  0
 13 32  1  0  0  0  0
 14 20  1  0  0  0  0
 14 33  1  0  0  0  0
 14 34  1  0  0  0  0
 15 18  1  0  0  0  0
 15 20  1  0  0  0  0
 15 35  1  0  0  0  0
 16 21  1  0  0  0  0
 16 36  1  0  0  0  0
 16 37  1  0  0  0  0
 17 38  1  0  0  0  0
 17 39  1  0  0  0  0
 18 40  1  0  0  0  0
 19 21  1  0  0  0  0
 19 41  1  0  0  0  0
 19 42  1  0  0  0  0
 20 25  2  0  0  0  0
 21 43  1  0  0  0  0
 21 44  1  0  0  0  0
 24 45  1  0  0  0  0
 24 46  1  0  0  0  0
 24 47  1  0  0  0  0
 25 48  1  0  0  0  0
 25 49  1  0  0  0  0
M  END
>  <PUBCHEM_COMPOUND_CID>
131751323

>  <PUBCHEM_COMPOUND_CANONICALIZED>
1

>  <PUBCHEM_CACTVS_COMPLEXITY>
700

>  <PUBCHEM_CACTVS_HBOND_ACCEPTOR>
5

>  <PUBCHEM_CACTVS_HBOND_DONOR>
2

>  <PUBCHEM_CACTVS_ROTATABLE_BOND>
1

>  <PUBCHEM_CACTVS_SUBSKEYS>
AAADceB4OAAAAAAAAAAAAAAAAAAAAYMAAAA0YIAABgASAGjAAAAAGgAACAAADxSggAICCAAABgCIAgDSCAAAAAAgAAAAAAEAAAgAEBIAAQACQAAEwAAAAAGI7vyPgAAAAAAAAADAAAYAADAAAQAACAAAAA==

>  <PUBCHEM_IUPAC_INCHI>
InChI=1S/C20H26O5/c1-10-7-20-8-11(10)12(21)6-13(20)19-5-3-4-18(2,17(24)25-9-19)15(19)14(20)16(22)23/h11-15,21H,1,3-9H2,2H3,(H,22,23)

>  <PUBCHEM_IUPAC_INCHIKEY>
ZCRLGANQNRMURE-UHFFFAOYSA-N

>  <PUBCHEM_EXACT_MASS>
346.178

>  <PUBCHEM_MOLECULAR_FORMULA>
C20H26O5

>  <PUBCHEM_MOLECULAR_WEIGHT>
346.423

>  <PUBCHEM_OPENEYE_CAN_SMILES>
CC12CCCC3(C1C(C45C3CC(C(C4)C(=C)C5)O)C(=O)O)COC2=O

>  <PUBCHEM_OPENEYE_ISO_SMILES>
CC12CCCC3(C1C(C45C3CC(C(C4)C(=C)C5)O)C(=O)O)COC2=O

>  <PUBCHEM_CACTVS_TPSA>
83.8

>  <PUBCHEM_MONOISOTOPIC_WEIGHT>
346.178

>  <PUBCHEM_TOTAL_CHARGE>
0

>  <PUBCHEM_HEAVY_ATOM_COUNT>
25

>  <PUBCHEM_ATOM_DEF_STEREO_COUNT>
0

>  <PUBCHEM_ATOM_UDEF_STEREO_COUNT>
8

>  <PUBCHEM_BOND_DEF_STEREO_COUNT>
0

>  <PUBCHEM_BOND_UDEF_STEREO_COUNT>
0

>  <PUBCHEM_ISOTOPIC_ATOM_COUNT>
0

>  <PUBCHEM_COMPONENT_COUNT>
1

>  <PUBCHEM_CACTVS_TAUTO_COUNT>
1

>  <PUBCHEM_COORDINATE_TYPE>
1
5
255

>  <PUBCHEM_BONDANNOTATIONS>
10  22  3
11  24  3
15  12  3
18  2  3
6  14  3
7  16  3
8  13  3
9  10  3

$$$$
