131752688
 OpenBabel06101807152D

 43 46  0  0  1  0  0  0  0  0999 V2000
    4.8370   -1.2300    0.0000 O   0  0  0  0  0  0  0  0  0  0  0  0
    6.4189   -2.0382    0.0000 O   0  0  0  0  0  0  0  0  0  0  0  0
    7.8327   -0.6470    0.0000 O   0  0  0  0  0  0  0  0  0  0  0  0
    9.5922   -0.9289    0.0000 O   0  0  0  0  0  0  0  0  0  0  0  0
   11.3528   -0.6531    0.0000 O   0  0  0  0  0  0  0  0  0  0  0  0
    5.3364    0.3024    0.0000 C   0  0  3  0  0  0  0  0  0  0  0  0
    4.5274   -0.2854    0.0000 C   0  0  3  0  0  0  0  0  0  0  0  0
    3.7183    0.3024    0.0000 C   0  0  0  0  0  0  0  0  0  0  0  0
    4.0274    1.2534    0.0000 C   0  0  0  0  0  0  0  0  0  0  0  0
    5.0274    1.2534    0.0000 C   0  0  0  0  0  0  0  0  0  0  0  0
    2.7029    0.0701    0.0000 C   0  0  3  0  0  0  0  0  0  0  0  0
    3.3424    2.0382    0.0000 C   0  0  0  0  0  0  0  0  0  0  0  0
    2.0000    0.8388    0.0000 C   0  0  0  0  0  0  0  0  0  0  0  0
    2.3219    1.8295    0.0000 C   0  0  0  0  0  0  0  0  0  0  0  0
    6.1391   -0.2840    0.0000 C   0  0  0  0  0  0  0  0  0  0  0  0
    2.4049   -0.8844    0.0000 C   0  0  0  0  0  0  0  0  0  0  0  0
    5.8311   -1.2292    0.0000 C   0  0  0  0  0  0  0  0  0  0  0  0
    7.0907    0.0234    0.0000 C   0  0  0  0  0  0  0  0  0  0  0  0
    8.7842   -0.3397    0.0000 C   0  0  3  0  0  0  0  0  0  0  0  0
    9.0949    0.6108    0.0000 C   0  0  0  0  0  0  0  0  0  0  0  0
   10.0949    0.6091    0.0000 C   0  0  0  0  0  0  0  0  0  0  0  0
   10.4023   -0.3425    0.0000 C   0  0  0  0  0  0  0  0  0  0  0  0
   10.6841    1.4171    0.0000 C   0  0  0  0  0  0  0  0  0  0  0  0
    5.8384    0.6662    0.0000 H   0  0  0  0  0  0  0  0  0  0  0  0
    4.0262   -0.6505    0.0000 H   0  0  0  0  0  0  0  0  0  0  0  0
    5.6338    1.3824    0.0000 H   0  0  0  0  0  0  0  0  0  0  0  0
    4.9626    1.8700    0.0000 H   0  0  0  0  0  0  0  0  0  0  0  0
    3.1240   -0.3850    0.0000 H   0  0  0  0  0  0  0  0  0  0  0  0
    3.8724    2.3600    0.0000 H   0  0  0  0  0  0  0  0  0  0  0  0
    3.1160    2.6154    0.0000 H   0  0  0  0  0  0  0  0  0  0  0  0
    1.4518    1.1285    0.0000 H   0  0  0  0  0  0  0  0  0  0  0  0
    1.6208    0.3483    0.0000 H   0  0  0  0  0  0  0  0  0  0  0  0
    2.3034    2.4492    0.0000 H   0  0  0  0  0  0  0  0  0  0  0  0
    1.7081    1.9173    0.0000 H   0  0  0  0  0  0  0  0  0  0  0  0
    1.8131   -0.6997    0.0000 H   0  0  0  0  0  0  0  0  0  0  0  0
    2.2202   -1.4763    0.0000 H   0  0  0  0  0  0  0  0  0  0  0  0
    2.9968   -1.0692    0.0000 H   0  0  0  0  0  0  0  0  0  0  0  0
    7.2206    0.6296    0.0000 H   0  0  0  0  0  0  0  0  0  0  0  0
    8.3466    0.0995    0.0000 H   0  0  0  0  0  0  0  0  0  0  0  0
    8.7314    1.1131    0.0000 H   0  0  0  0  0  0  0  0  0  0  0  0
   11.1851    1.0518    0.0000 H   0  0  0  0  0  0  0  0  0  0  0  0
   11.0494    1.9181    0.0000 H   0  0  0  0  0  0  0  0  0  0  0  0
   10.1831    1.7824    0.0000 H   0  0  0  0  0  0  0  0  0  0  0  0
  1  7  1  0  0  0  0
  1 17  1  0  0  0  0
  2 17  2  0  0  0  0
  3 18  1  0  0  0  0
  3 19  1  0  0  0  0
  4 19  1  0  0  0  0
  4 22  1  0  0  0  0
  5 22  2  0  0  0  0
  6  7  1  0  0  0  0
  6 10  1  0  0  0  0
  6 15  1  0  0  0  0
  6 24  1  0  0  0  0
  7  8  1  0  0  0  0
  7 25  1  0  0  0  0
  8  9  2  0  0  0  0
  8 11  1  0  0  0  0
  9 10  1  0  0  0  0
  9 12  1  0  0  0  0
 10 26  1  0  0  0  0
 10 27  1  0  0  0  0
 11 13  1  0  0  0  0
 11 16  1  0  0  0  0
 11 28  1  0  0  0  0
 12 14  1  0  0  0  0
 12 29  1  0  0  0  0
 12 30  1  0  0  0  0
 13 14  1  0  0  0  0
 13 31  1  0  0  0  0
 13 32  1  0  0  0  0
 14 33  1  0  0  0  0
 14 34  1  0  0  0  0
 15 17  1  0  0  0  0
 15 18  2  0  0  0  0
 16 35  1  0  0  0  0
 16 36  1  0  0  0  0
 16 37  1  0  0  0  0
 18 38  1  0  0  0  0
 19 20  1  0  0  0  0
 19 39  1  0  0  0  0
 20 21  2  0  0  0  0
 20 40  1  0  0  0  0
 21 22  1  0  0  0  0
 21 23  1  0  0  0  0
 23 41  1  0  0  0  0
 23 42  1  0  0  0  0
 23 43  1  0  0  0  0
M  END
>  <PUBCHEM_COMPOUND_CID>
131752688

>  <PUBCHEM_COMPOUND_CANONICALIZED>
1

>  <PUBCHEM_CACTVS_COMPLEXITY>
669

>  <PUBCHEM_CACTVS_HBOND_ACCEPTOR>
5

>  <PUBCHEM_CACTVS_HBOND_DONOR>
0

>  <PUBCHEM_CACTVS_ROTATABLE_BOND>
2

>  <PUBCHEM_CACTVS_SUBSKEYS>
AAADceB4OAAAAAAAAAAAAAAAAAAAASIEAAAgAAAAAAAQAGAAAAAAGgAAAAAADRSwgAMCCAAABACIAiDSCAAACAAgIAAACAEAAEgQBBIAIQAiEAAEwAAMIYOKyOCOAAAAAAAAAAAAAAAAAAAAAAAAAAAAAA==

>  <PUBCHEM_IUPAC_OPENEYE_NAME>
(3Z)-8-methyl-3-[(4-methyl-5-oxo-2H-furan-2-yl)oxymethylene]-4,5,6,7,8,8b-hexahydro-3aH-indeno[1,2-b]furan-2-one

>  <PUBCHEM_IUPAC_CAS_NAME>
(3Z)-8-methyl-3-[(4-methyl-5-oxo-2H-furan-2-yl)oxymethylidene]-4,5,6,7,8,8b-hexahydro-3aH-indeno[1,2-b]furan-2-one

>  <PUBCHEM_IUPAC_NAME>
(3Z)-8-methyl-3-[(4-methyl-5-oxo-2H-furan-2-yl)oxymethylidene]-4,5,6,7,8,8b-hexahydro-3aH-indeno[1,2-b]furan-2-one

>  <PUBCHEM_IUPAC_SYSTEMATIC_NAME>
(3Z)-8-methyl-3-[(4-methyl-5-oxidanylidene-2H-furan-2-yl)oxymethylidene]-4,5,6,7,8,8b-hexahydro-3aH-indeno[1,2-b]furan-2-one

>  <PUBCHEM_IUPAC_TRADITIONAL_NAME>
(3Z)-3-[(5-keto-4-methyl-2H-furan-2-yl)oxymethylene]-8-methyl-4,5,6,7,8,8b-hexahydro-3aH-indeno[1,2-b]furan-2-one

>  <PUBCHEM_IUPAC_INCHI>
InChI=1S/C18H20O5/c1-9-4-3-5-11-7-12-13(18(20)23-16(12)15(9)11)8-21-14-6-10(2)17(19)22-14/h6,8-9,12,14,16H,3-5,7H2,1-2H3/b13-8-

>  <PUBCHEM_IUPAC_INCHIKEY>
KHSREFIWULNDAB-JYRVWZFOSA-N

>  <PUBCHEM_EXACT_MASS>
316.131

>  <PUBCHEM_MOLECULAR_FORMULA>
C18H20O5

>  <PUBCHEM_MOLECULAR_WEIGHT>
316.353

>  <PUBCHEM_OPENEYE_CAN_SMILES>
CC1CCCC2=C1C3C(C2)C(=COC4C=C(C(=O)O4)C)C(=O)O3

>  <PUBCHEM_OPENEYE_ISO_SMILES>
CC1CCCC2=C1C3C(C2)/C(=C/OC4C=C(C(=O)O4)C)/C(=O)O3

>  <PUBCHEM_CACTVS_TPSA>
61.8

>  <PUBCHEM_MONOISOTOPIC_WEIGHT>
316.131

>  <PUBCHEM_TOTAL_CHARGE>
0

>  <PUBCHEM_HEAVY_ATOM_COUNT>
23

>  <PUBCHEM_ATOM_DEF_STEREO_COUNT>
0

>  <PUBCHEM_ATOM_UDEF_STEREO_COUNT>
4

>  <PUBCHEM_BOND_DEF_STEREO_COUNT>
1

>  <PUBCHEM_BOND_UDEF_STEREO_COUNT>
0

>  <PUBCHEM_ISOTOPIC_ATOM_COUNT>
0

>  <PUBCHEM_COMPONENT_COUNT>
1

>  <PUBCHEM_CACTVS_TAUTO_COUNT>
1

>  <PUBCHEM_COORDINATE_TYPE>
1
5
255

>  <PUBCHEM_BONDANNOTATIONS>
7  1  3
11  16  3
19  3  3
6  10  3

$$$$
