131752395
 OpenBabel06101807152D

126125  0  0  1  0  0  0  0  0999 V2000
   27.1147    5.6900    0.0000 O   0  0  0  0  0  0  0  0  0  0  0  0
    6.3301   -5.3100    0.0000 C   0  0  3  0  0  0  0  0  0  0  0  0
    7.1962   -4.8100    0.0000 C   0  0  0  0  0  0  0  0  0  0  0  0
    9.7942   -5.3100    0.0000 C   0  0  3  0  0  0  0  0  0  0  0  0
    8.0622   -5.3100    0.0000 C   0  0  0  0  0  0  0  0  0  0  0  0
    8.9282   -4.8100    0.0000 C   0  0  0  0  0  0  0  0  0  0  0  0
    5.4641   -4.8100    0.0000 C   0  0  0  0  0  0  0  0  0  0  0  0
   10.6603   -4.8100    0.0000 C   0  0  0  0  0  0  0  0  0  0  0  0
    4.5981   -5.3100    0.0000 C   0  0  0  0  0  0  0  0  0  0  0  0
    3.7320   -4.8100    0.0000 C   0  0  0  0  0  0  0  0  0  0  0  0
    6.3301   -6.3100    0.0000 C   0  0  0  0  0  0  0  0  0  0  0  0
   11.5263   -5.3100    0.0000 C   0  0  0  0  0  0  0  0  0  0  0  0
    9.7942   -6.3100    0.0000 C   0  0  0  0  0  0  0  0  0  0  0  0
    2.8660   -5.3100    0.0000 C   0  0  0  0  0  0  0  0  0  0  0  0
   12.3923   -4.8100    0.0000 C   0  0  0  0  0  0  0  0  0  0  0  0
    2.0000   -4.8100    0.0000 C   0  0  0  0  0  0  0  0  0  0  0  0
    2.8660   -6.3100    0.0000 C   0  0  0  0  0  0  0  0  0  0  0  0
   13.2583   -5.3100    0.0000 C   0  0  0  0  0  0  0  0  0  0  0  0
   14.1244   -4.8100    0.0000 C   0  0  0  0  0  0  0  0  0  0  0  0
   13.2583   -6.3100    0.0000 C   0  0  0  0  0  0  0  0  0  0  0  0
   14.9904   -5.3100    0.0000 C   0  0  0  0  0  0  0  0  0  0  0  0
   15.8564   -4.8100    0.0000 C   0  0  0  0  0  0  0  0  0  0  0  0
   16.7224   -5.3100    0.0000 C   0  0  0  0  0  0  0  0  0  0  0  0
   17.5885   -4.8100    0.0000 C   0  0  0  0  0  0  0  0  0  0  0  0
   16.7224   -6.3100    0.0000 C   0  0  0  0  0  0  0  0  0  0  0  0
   17.5885   -3.8100    0.0000 C   0  0  0  0  0  0  0  0  0  0  0  0
   18.4545   -3.3100    0.0000 C   0  0  0  0  0  0  0  0  0  0  0  0
   18.4545   -2.3100    0.0000 C   0  0  0  0  0  0  0  0  0  0  0  0
   20.1865   -2.3100    0.0000 C   0  0  0  0  0  0  0  0  0  0  0  0
   19.3205   -1.8100    0.0000 C   0  0  0  0  0  0  0  0  0  0  0  0
   21.0526   -1.8100    0.0000 C   0  0  0  0  0  0  0  0  0  0  0  0
   21.9186   -2.3100    0.0000 C   0  0  0  0  0  0  0  0  0  0  0  0
   17.5885   -1.8100    0.0000 C   0  0  0  0  0  0  0  0  0  0  0  0
   22.7846   -0.8100    0.0000 C   0  0  0  0  0  0  0  0  0  0  0  0
   23.6506   -0.3100    0.0000 C   0  0  0  0  0  0  0  0  0  0  0  0
   22.7846   -1.8100    0.0000 C   0  0  0  0  0  0  0  0  0  0  0  0
   23.6506    0.6900    0.0000 C   0  0  0  0  0  0  0  0  0  0  0  0
   21.9186   -3.3100    0.0000 C   0  0  0  0  0  0  0  0  0  0  0  0
   24.5167    2.1900    0.0000 C   0  0  0  0  0  0  0  0  0  0  0  0
   24.5167    1.1900    0.0000 C   0  0  0  0  0  0  0  0  0  0  0  0
   25.3827    2.6900    0.0000 C   0  0  0  0  0  0  0  0  0  0  0  0
   22.7846    1.1900    0.0000 C   0  0  0  0  0  0  0  0  0  0  0  0
   25.3827    3.6900    0.0000 C   0  0  0  0  0  0  0  0  0  0  0  0
   24.5167    4.1900    0.0000 C   0  0  0  0  0  0  0  0  0  0  0  0
   26.2487    4.1900    0.0000 C   0  0  0  0  0  0  0  0  0  0  0  0
   26.2487    5.1900    0.0000 C   0  0  0  0  0  0  0  0  0  0  0  0
    6.8671   -5.6200    0.0000 H   0  0  0  0  0  0  0  0  0  0  0  0
    7.5947   -4.3350    0.0000 H   0  0  0  0  0  0  0  0  0  0  0  0
    6.7976   -4.3350    0.0000 H   0  0  0  0  0  0  0  0  0  0  0  0
    9.2573   -5.6200    0.0000 H   0  0  0  0  0  0  0  0  0  0  0  0
    7.6636   -5.7850    0.0000 H   0  0  0  0  0  0  0  0  0  0  0  0
    8.4607   -5.7850    0.0000 H   0  0  0  0  0  0  0  0  0  0  0  0
    9.3267   -4.3350    0.0000 H   0  0  0  0  0  0  0  0  0  0  0  0
    8.5297   -4.3350    0.0000 H   0  0  0  0  0  0  0  0  0  0  0  0
    5.8626   -4.3350    0.0000 H   0  0  0  0  0  0  0  0  0  0  0  0
    5.0656   -4.3350    0.0000 H   0  0  0  0  0  0  0  0  0  0  0  0
   11.0588   -4.3350    0.0000 H   0  0  0  0  0  0  0  0  0  0  0  0
   10.2617   -4.3350    0.0000 H   0  0  0  0  0  0  0  0  0  0  0  0
    4.1996   -5.7850    0.0000 H   0  0  0  0  0  0  0  0  0  0  0  0
    4.9966   -5.7850    0.0000 H   0  0  0  0  0  0  0  0  0  0  0  0
    4.1306   -4.3350    0.0000 H   0  0  0  0  0  0  0  0  0  0  0  0
    3.3335   -4.3350    0.0000 H   0  0  0  0  0  0  0  0  0  0  0  0
    5.7101   -6.3100    0.0000 H   0  0  0  0  0  0  0  0  0  0  0  0
    6.3301   -6.9300    0.0000 H   0  0  0  0  0  0  0  0  0  0  0  0
    6.9501   -6.3100    0.0000 H   0  0  0  0  0  0  0  0  0  0  0  0
   11.1278   -5.7850    0.0000 H   0  0  0  0  0  0  0  0  0  0  0  0
   11.9248   -5.7850    0.0000 H   0  0  0  0  0  0  0  0  0  0  0  0
    9.1742   -6.3100    0.0000 H   0  0  0  0  0  0  0  0  0  0  0  0
    9.7942   -6.9300    0.0000 H   0  0  0  0  0  0  0  0  0  0  0  0
   10.4142   -6.3100    0.0000 H   0  0  0  0  0  0  0  0  0  0  0  0
    2.8660   -4.6900    0.0000 H   0  0  0  0  0  0  0  0  0  0  0  0
   12.7908   -4.3350    0.0000 H   0  0  0  0  0  0  0  0  0  0  0  0
   11.9938   -4.3350    0.0000 H   0  0  0  0  0  0  0  0  0  0  0  0
    2.3100   -4.2731    0.0000 H   0  0  0  0  0  0  0  0  0  0  0  0
    1.4631   -4.5000    0.0000 H   0  0  0  0  0  0  0  0  0  0  0  0
    1.6900   -5.3469    0.0000 H   0  0  0  0  0  0  0  0  0  0  0  0
    2.2460   -6.3100    0.0000 H   0  0  0  0  0  0  0  0  0  0  0  0
    2.8660   -6.9300    0.0000 H   0  0  0  0  0  0  0  0  0  0  0  0
    3.4860   -6.3100    0.0000 H   0  0  0  0  0  0  0  0  0  0  0  0
   14.1244   -4.1900    0.0000 H   0  0  0  0  0  0  0  0  0  0  0  0
   12.6383   -6.3100    0.0000 H   0  0  0  0  0  0  0  0  0  0  0  0
   13.2583   -6.9300    0.0000 H   0  0  0  0  0  0  0  0  0  0  0  0
   13.8783   -6.3100    0.0000 H   0  0  0  0  0  0  0  0  0  0  0  0
   14.5919   -5.7850    0.0000 H   0  0  0  0  0  0  0  0  0  0  0  0
   15.3889   -5.7850    0.0000 H   0  0  0  0  0  0  0  0  0  0  0  0
   16.2549   -4.3350    0.0000 H   0  0  0  0  0  0  0  0  0  0  0  0
   15.4579   -4.3350    0.0000 H   0  0  0  0  0  0  0  0  0  0  0  0
   18.1254   -5.1200    0.0000 H   0  0  0  0  0  0  0  0  0  0  0  0
   16.1024   -6.3100    0.0000 H   0  0  0  0  0  0  0  0  0  0  0  0
   16.7224   -6.9300    0.0000 H   0  0  0  0  0  0  0  0  0  0  0  0
   17.3424   -6.3100    0.0000 H   0  0  0  0  0  0  0  0  0  0  0  0
   17.3764   -3.2274    0.0000 H   0  0  0  0  0  0  0  0  0  0  0  0
   16.9779   -3.9177    0.0000 H   0  0  0  0  0  0  0  0  0  0  0  0
   18.6665   -3.8926    0.0000 H   0  0  0  0  0  0  0  0  0  0  0  0
   19.0651   -3.2023    0.0000 H   0  0  0  0  0  0  0  0  0  0  0  0
   19.7880   -2.7849    0.0000 H   0  0  0  0  0  0  0  0  0  0  0  0
   20.5851   -2.7849    0.0000 H   0  0  0  0  0  0  0  0  0  0  0  0
   19.3205   -1.1900    0.0000 H   0  0  0  0  0  0  0  0  0  0  0  0
   21.4511   -1.3350    0.0000 H   0  0  0  0  0  0  0  0  0  0  0  0
   20.6540   -1.3350    0.0000 H   0  0  0  0  0  0  0  0  0  0  0  0
   17.8985   -1.2731    0.0000 H   0  0  0  0  0  0  0  0  0  0  0  0
   17.0515   -1.5000    0.0000 H   0  0  0  0  0  0  0  0  0  0  0  0
   17.2785   -2.3469    0.0000 H   0  0  0  0  0  0  0  0  0  0  0  0
   22.5726   -0.2274    0.0000 H   0  0  0  0  0  0  0  0  0  0  0  0
   22.1740   -0.9177    0.0000 H   0  0  0  0  0  0  0  0  0  0  0  0
   23.8627   -0.8926    0.0000 H   0  0  0  0  0  0  0  0  0  0  0  0
   24.2612   -0.2023    0.0000 H   0  0  0  0  0  0  0  0  0  0  0  0
   23.3215   -2.1200    0.0000 H   0  0  0  0  0  0  0  0  0  0  0  0
   21.2986   -3.3100    0.0000 H   0  0  0  0  0  0  0  0  0  0  0  0
   21.9186   -3.9300    0.0000 H   0  0  0  0  0  0  0  0  0  0  0  0
   22.5386   -3.3100    0.0000 H   0  0  0  0  0  0  0  0  0  0  0  0
   24.3046    2.7726    0.0000 H   0  0  0  0  0  0  0  0  0  0  0  0
   23.9061    2.0823    0.0000 H   0  0  0  0  0  0  0  0  0  0  0  0
   25.0536    0.8800    0.0000 H   0  0  0  0  0  0  0  0  0  0  0  0
   25.5947    2.1074    0.0000 H   0  0  0  0  0  0  0  0  0  0  0  0
   25.9933    2.7977    0.0000 H   0  0  0  0  0  0  0  0  0  0  0  0
   23.0946    1.7269    0.0000 H   0  0  0  0  0  0  0  0  0  0  0  0
   22.2477    1.5000    0.0000 H   0  0  0  0  0  0  0  0  0  0  0  0
   22.4746    0.6531    0.0000 H   0  0  0  0  0  0  0  0  0  0  0  0
   24.8267    4.7269    0.0000 H   0  0  0  0  0  0  0  0  0  0  0  0
   23.9797    4.5000    0.0000 H   0  0  0  0  0  0  0  0  0  0  0  0
   24.2067    3.6531    0.0000 H   0  0  0  0  0  0  0  0  0  0  0  0
   26.7856    3.8800    0.0000 H   0  0  0  0  0  0  0  0  0  0  0  0
   26.0367    5.7726    0.0000 H   0  0  0  0  0  0  0  0  0  0  0  0
   25.6381    5.0823    0.0000 H   0  0  0  0  0  0  0  0  0  0  0  0
   27.1147    6.3100    0.0000 H   0  0  0  0  0  0  0  0  0  0  0  0
  1 46  1  0  0  0  0
  1126  1  0  0  0  0
  2  3  1  0  0  0  0
  2  7  1  0  0  0  0
  2 11  1  0  0  0  0
  2 47  1  0  0  0  0
  3  5  1  0  0  0  0
  3 48  1  0  0  0  0
  3 49  1  0  0  0  0
  4  6  1  0  0  0  0
  4  8  1  0  0  0  0
  4 13  1  0  0  0  0
  4 50  1  0  0  0  0
  5  6  1  0  0  0  0
  5 51  1  0  0  0  0
  5 52  1  0  0  0  0
  6 53  1  0  0  0  0
  6 54  1  0  0  0  0
  7  9  1  0  0  0  0
  7 55  1  0  0  0  0
  7 56  1  0  0  0  0
  8 12  1  0  0  0  0
  8 57  1  0  0  0  0
  8 58  1  0  0  0  0
  9 10  1  0  0  0  0
  9 59  1  0  0  0  0
  9 60  1  0  0  0  0
 10 14  1  0  0  0  0
 10 61  1  0  0  0  0
 10 62  1  0  0  0  0
 11 63  1  0  0  0  0
 11 64  1  0  0  0  0
 11 65  1  0  0  0  0
 12 15  1  0  0  0  0
 12 66  1  0  0  0  0
 12 67  1  0  0  0  0
 13 68  1  0  0  0  0
 13 69  1  0  0  0  0
 13 70  1  0  0  0  0
 14 16  1  0  0  0  0
 14 17  1  0  0  0  0
 14 71  1  0  0  0  0
 15 18  1  0  0  0  0
 15 72  1  0  0  0  0
 15 73  1  0  0  0  0
 16 74  1  0  0  0  0
 16 75  1  0  0  0  0
 16 76  1  0  0  0  0
 17 77  1  0  0  0  0
 17 78  1  0  0  0  0
 17 79  1  0  0  0  0
 18 19  2  0  0  0  0
 18 20  1  0  0  0  0
 19 21  1  0  0  0  0
 19 80  1  0  0  0  0
 20 81  1  0  0  0  0
 20 82  1  0  0  0  0
 20 83  1  0  0  0  0
 21 22  1  0  0  0  0
 21 84  1  0  0  0  0
 21 85  1  0  0  0  0
 22 23  1  0  0  0  0
 22 86  1  0  0  0  0
 22 87  1  0  0  0  0
 23 24  2  0  0  0  0
 23 25  1  0  0  0  0
 24 26  1  0  0  0  0
 24 88  1  0  0  0  0
 25 89  1  0  0  0  0
 25 90  1  0  0  0  0
 25 91  1  0  0  0  0
 26 27  1  0  0  0  0
 26 92  1  0  0  0  0
 26 93  1  0  0  0  0
 27 28  1  0  0  0  0
 27 94  1  0  0  0  0
 27 95  1  0  0  0  0
 28 30  2  0  0  0  0
 28 33  1  0  0  0  0
 29 30  1  0  0  0  0
 29 31  1  0  0  0  0
 29 96  1  0  0  0  0
 29 97  1  0  0  0  0
 30 98  1  0  0  0  0
 31 32  1  0  0  0  0
 31 99  1  0  0  0  0
 31100  1  0  0  0  0
 32 36  2  0  0  0  0
 32 38  1  0  0  0  0
 33101  1  0  0  0  0
 33102  1  0  0  0  0
 33103  1  0  0  0  0
 34 35  1  0  0  0  0
 34 36  1  0  0  0  0
 34104  1  0  0  0  0
 34105  1  0  0  0  0
 35 37  1  0  0  0  0
 35106  1  0  0  0  0
 35107  1  0  0  0  0
 36108  1  0  0  0  0
 37 40  2  0  0  0  0
 37 42  1  0  0  0  0
 38109  1  0  0  0  0
 38110  1  0  0  0  0
 38111  1  0  0  0  0
 39 40  1  0  0  0  0
 39 41  1  0  0  0  0
 39112  1  0  0  0  0
 39113  1  0  0  0  0
 40114  1  0  0  0  0
 41 43  1  0  0  0  0
 41115  1  0  0  0  0
 41116  1  0  0  0  0
 42117  1  0  0  0  0
 42118  1  0  0  0  0
 42119  1  0  0  0  0
 43 44  1  0  0  0  0
 43 45  2  0  0  0  0
 44120  1  0  0  0  0
 44121  1  0  0  0  0
 44122  1  0  0  0  0
 45 46  1  0  0  0  0
 45123  1  0  0  0  0
 46124  1  0  0  0  0
 46125  1  0  0  0  0
M  END
>  <PUBCHEM_COMPOUND_CID>
131752395

>  <PUBCHEM_COMPOUND_CANONICALIZED>
1

>  <PUBCHEM_CACTVS_COMPLEXITY>
934

>  <PUBCHEM_CACTVS_HBOND_ACCEPTOR>
1

>  <PUBCHEM_CACTVS_HBOND_DONOR>
1

>  <PUBCHEM_CACTVS_ROTATABLE_BOND>
28

>  <PUBCHEM_CACTVS_SUBSKEYS>
AAADcfB8IAAAAAAAAAAAAAAAAAAAAAAAAAAAAAAAAAAAAAAAAAAAGgAACAAADQCggAICAAAAAgCAAiBCAAAAAAAgAAAACAAAAAgAFAIAAQAAEAAAgAAIEAMAgMAOAAAAAAAAAAAAAAAAAAAAAAAAAAAAAA==

>  <PUBCHEM_IUPAC_OPENEYE_NAME>
(2E,6E,10Z,14Z,18Z,22E)-3,7,11,15,19,23,27,31,35-nonamethylhexatriaconta-2,6,10,14,18,22-hexaen-1-ol

>  <PUBCHEM_IUPAC_CAS_NAME>
(2E,6E,10Z,14Z,18Z,22E)-3,7,11,15,19,23,27,31,35-nonamethyl-1-hexatriaconta-2,6,10,14,18,22-hexaenol

>  <PUBCHEM_IUPAC_NAME>
(2E,6E,10Z,14Z,18Z,22E)-3,7,11,15,19,23,27,31,35-nonamethylhexatriaconta-2,6,10,14,18,22-hexaen-1-ol

>  <PUBCHEM_IUPAC_SYSTEMATIC_NAME>
(2E,6E,10Z,14Z,18Z,22E)-3,7,11,15,19,23,27,31,35-nonamethylhexatriaconta-2,6,10,14,18,22-hexaen-1-ol

>  <PUBCHEM_IUPAC_TRADITIONAL_NAME>
(2E,6E,10Z,14Z,18Z,22E)-3,7,11,15,19,23,27,31,35-nonamethylhexatriaconta-2,6,10,14,18,22-hexaen-1-ol

>  <PUBCHEM_IUPAC_INCHI>
InChI=1S/C45H80O/c1-37(2)19-11-20-38(3)21-12-22-39(4)23-13-24-40(5)25-14-26-41(6)27-15-28-42(7)29-16-30-43(8)31-17-32-44(9)33-18-34-45(10)35-36-46/h25,27,29,31,33,35,37-39,46H,11-24,26,28,30,32,34,36H2,1-10H3/b40-25+,41-27-,42-29-,43-31-,44-33+,45-35+

>  <PUBCHEM_IUPAC_INCHIKEY>
FWVIPKAFIXXKIW-NSAJWJIGSA-N

>  <PUBCHEM_EXACT_MASS>
636.621

>  <PUBCHEM_MOLECULAR_FORMULA>
C45H80O

>  <PUBCHEM_MOLECULAR_WEIGHT>
637.134

>  <PUBCHEM_OPENEYE_CAN_SMILES>
CC(C)CCCC(C)CCCC(C)CCCC(=CCCC(=CCCC(=CCCC(=CCCC(=CCCC(=CCO)C)C)C)C)C)C

>  <PUBCHEM_OPENEYE_ISO_SMILES>
CC(C)CCCC(C)CCCC(C)CCC/C(=C/CC/C(=C\CC/C(=C\CC/C(=C\CC/C(=C/CC/C(=C/CO)/C)/C)/C)/C)/C)/C

>  <PUBCHEM_CACTVS_TPSA>
20.2

>  <PUBCHEM_MONOISOTOPIC_WEIGHT>
636.621

>  <PUBCHEM_TOTAL_CHARGE>
0

>  <PUBCHEM_HEAVY_ATOM_COUNT>
46

>  <PUBCHEM_ATOM_DEF_STEREO_COUNT>
0

>  <PUBCHEM_ATOM_UDEF_STEREO_COUNT>
2

>  <PUBCHEM_BOND_DEF_STEREO_COUNT>
6

>  <PUBCHEM_BOND_UDEF_STEREO_COUNT>
0

>  <PUBCHEM_ISOTOPIC_ATOM_COUNT>
0

>  <PUBCHEM_COMPONENT_COUNT>
1

>  <PUBCHEM_CACTVS_TAUTO_COUNT>
1

>  <PUBCHEM_COORDINATE_TYPE>
1
5
255

>  <PUBCHEM_BONDANNOTATIONS>
2  11  3
4  13  3

$$$$
