131751573
 OpenBabel06101807152D

 85 89  0  0  1  0  0  0  0  0999 V2000
    4.9186   -0.1080    0.0000 O   0  0  0  0  0  0  0  0  0  0  0  0
    6.6507    1.8920    0.0000 O   0  0  0  0  0  0  0  0  0  0  0  0
   11.1246    2.5364    0.0000 O   0  0  0  0  0  0  0  0  0  0  0  0
    7.5167   -0.6080    0.0000 C   0  0  3  0  0  0  0  0  0  0  0  0
    6.6507   -1.1080    0.0000 C   0  0  3  0  0  0  0  0  0  0  0  0
    7.5167    0.3920    0.0000 C   0  0  3  0  0  0  0  0  0  0  0  0
    5.7847   -0.6080    0.0000 C   0  0  3  0  0  0  0  0  0  0  0  0
    8.4106    0.9267    0.0000 C   0  0  3  0  0  0  0  0  0  0  0  0
    4.8746   -1.1148    0.0000 C   0  0  3  0  0  0  0  0  0  0  0  0
    9.3167    0.4128    0.0000 C   0  0  3  0  0  0  0  0  0  0  0  0
    4.8666   -2.1564    0.0000 C   0  0  3  0  0  0  0  0  0  0  0  0
    6.6507    0.8920    0.0000 C   0  0  3  0  0  0  0  0  0  0  0  0
    8.4106   -1.1426    0.0000 C   0  0  0  0  0  0  0  0  0  0  0  0
    5.7847    0.3920    0.0000 C   0  0  0  0  0  0  0  0  0  0  0  0
    6.6667   -2.1495    0.0000 C   0  0  0  0  0  0  0  0  0  0  0  0
    9.3167   -0.6288    0.0000 C   0  0  0  0  0  0  0  0  0  0  0  0
    5.7687   -2.6772    0.0000 C   0  0  0  0  0  0  0  0  0  0  0  0
   10.2605    0.9481    0.0000 C   0  0  0  0  0  0  0  0  0  0  0  0
    8.3856    2.0114    0.0000 C   0  0  0  0  0  0  0  0  0  0  0  0
    7.8588   -1.5476    0.0000 C   0  0  0  0  0  0  0  0  0  0  0  0
    3.9478   -0.5507    0.0000 C   0  0  0  0  0  0  0  0  0  0  0  0
    7.2935   -1.8740    0.0000 C   0  0  0  0  0  0  0  0  0  0  0  0
    3.9312   -2.7062    0.0000 C   0  0  0  0  0  0  0  0  0  0  0  0
    7.5408    1.4200    0.0000 C   0  0  0  0  0  0  0  0  0  0  0  0
    2.9999   -1.0787    0.0000 C   0  0  0  0  0  0  0  0  0  0  0  0
   10.2605    2.0331    0.0000 C   0  0  3  0  0  0  0  0  0  0  0  0
    9.3167    2.5683    0.0000 C   0  0  0  0  0  0  0  0  0  0  0  0
    2.9916   -2.1636    0.0000 C   0  0  0  0  0  0  0  0  0  0  0  0
    4.8589   -3.1564    0.0000 C   0  0  0  0  0  0  0  0  0  0  0  0
   11.2605    0.9442    0.0000 C   0  0  0  0  0  0  0  0  0  0  0  0
   10.7572    0.0801    0.0000 C   0  0  0  0  0  0  0  0  0  0  0  0
    2.0000   -1.0671    0.0000 C   0  0  0  0  0  0  0  0  0  0  0  0
    2.5100   -0.2069    0.0000 C   0  0  0  0  0  0  0  0  0  0  0  0
    8.0560    0.0862    0.0000 H   0  0  0  0  0  0  0  0  0  0  0  0
    5.4080   -1.4310    0.0000 H   0  0  0  0  0  0  0  0  0  0  0  0
    9.8524    0.1008    0.0000 H   0  0  0  0  0  0  0  0  0  0  0  0
    7.1876    1.2020    0.0000 H   0  0  0  0  0  0  0  0  0  0  0  0
    8.0060   -1.6124    0.0000 H   0  0  0  0  0  0  0  0  0  0  0  0
    8.8043   -1.6217    0.0000 H   0  0  0  0  0  0  0  0  0  0  0  0
    5.5726    0.9746    0.0000 H   0  0  0  0  0  0  0  0  0  0  0  0
    5.1741    0.2844    0.0000 H   0  0  0  0  0  0  0  0  0  0  0  0
    6.8848   -2.7299    0.0000 H   0  0  0  0  0  0  0  0  0  0  0  0
    7.2759   -2.0340    0.0000 H   0  0  0  0  0  0  0  0  0  0  0  0
    9.5258   -1.2125    0.0000 H   0  0  0  0  0  0  0  0  0  0  0  0
    9.9276   -0.5227    0.0000 H   0  0  0  0  0  0  0  0  0  0  0  0
    5.3714   -3.1532    0.0000 H   0  0  0  0  0  0  0  0  0  0  0  0
    6.1697   -3.1501    0.0000 H   0  0  0  0  0  0  0  0  0  0  0  0
    8.1631    2.5901    0.0000 H   0  0  0  0  0  0  0  0  0  0  0  0
    7.7773    1.8912    0.0000 H   0  0  0  0  0  0  0  0  0  0  0  0
    7.2762   -1.7598    0.0000 H   0  0  0  0  0  0  0  0  0  0  0  0
    8.0709   -2.1302    0.0000 H   0  0  0  0  0  0  0  0  0  0  0  0
    8.4414   -1.3355    0.0000 H   0  0  0  0  0  0  0  0  0  0  0  0
    4.3560   -0.0841    0.0000 H   0  0  0  0  0  0  0  0  0  0  0  0
    3.5579   -0.0687    0.0000 H   0  0  0  0  0  0  0  0  0  0  0  0
    6.8185   -2.2726    0.0000 H   0  0  0  0  0  0  0  0  0  0  0  0
    7.6920   -2.3490    0.0000 H   0  0  0  0  0  0  0  0  0  0  0  0
    7.7684   -1.4755    0.0000 H   0  0  0  0  0  0  0  0  0  0  0  0
    3.5339   -3.1821    0.0000 H   0  0  0  0  0  0  0  0  0  0  0  0
    4.3322   -3.1790    0.0000 H   0  0  0  0  0  0  0  0  0  0  0  0
    7.8466    1.9593    0.0000 H   0  0  0  0  0  0  0  0  0  0  0  0
    7.0015    1.7258    0.0000 H   0  0  0  0  0  0  0  0  0  0  0  0
    7.2349    0.8807    0.0000 H   0  0  0  0  0  0  0  0  0  0  0  0
   10.7980    1.7241    0.0000 H   0  0  0  0  0  0  0  0  0  0  0  0
    9.7103    3.0473    0.0000 H   0  0  0  0  0  0  0  0  0  0  0  0
    8.9121    3.0381    0.0000 H   0  0  0  0  0  0  0  0  0  0  0  0
    2.3816   -2.0529    0.0000 H   0  0  0  0  0  0  0  0  0  0  0  0
    2.7780   -2.7457    0.0000 H   0  0  0  0  0  0  0  0  0  0  0  0
    4.9186    0.5120    0.0000 H   0  0  0  0  0  0  0  0  0  0  0  0
    4.2389   -3.1516    0.0000 H   0  0  0  0  0  0  0  0  0  0  0  0
    4.8541   -3.7764    0.0000 H   0  0  0  0  0  0  0  0  0  0  0  0
    5.4789   -3.1612    0.0000 H   0  0  0  0  0  0  0  0  0  0  0  0
   10.2190   -0.2278    0.0000 H   0  0  0  0  0  0  0  0  0  0  0  0
   11.2581    0.3242    0.0000 H   0  0  0  0  0  0  0  0  0  0  0  0
   11.8805    0.9418    0.0000 H   0  0  0  0  0  0  0  0  0  0  0  0
   11.2629    1.5642    0.0000 H   0  0  0  0  0  0  0  0  0  0  0  0
   11.0651   -0.4580    0.0000 H   0  0  0  0  0  0  0  0  0  0  0  0
   11.2953    0.3881    0.0000 H   0  0  0  0  0  0  0  0  0  0  0  0
    6.1137    2.2020    0.0000 H   0  0  0  0  0  0  0  0  0  0  0  0
    3.0505    0.0968    0.0000 H   0  0  0  0  0  0  0  0  0  0  0  0
    2.2062    0.3335    0.0000 H   0  0  0  0  0  0  0  0  0  0  0  0
    2.0072   -0.4472    0.0000 H   0  0  0  0  0  0  0  0  0  0  0  0
    1.9695   -0.5107    0.0000 H   0  0  0  0  0  0  0  0  0  0  0  0
    1.3800   -1.0600    0.0000 H   0  0  0  0  0  0  0  0  0  0  0  0
    1.9928   -1.6871    0.0000 H   0  0  0  0  0  0  0  0  0  0  0  0
   11.1222    3.1564    0.0000 H   0  0  0  0  0  0  0  0  0  0  0  0
  1  7  1  0  0  0  0
  1 68  1  0  0  0  0
  2 12  1  0  0  0  0
  2 78  1  0  0  0  0
  3 26  1  0  0  0  0
  3 85  1  0  0  0  0
  4  5  1  0  0  0  0
  4  6  1  0  0  0  0
  4 13  1  0  0  0  0
  4 20  1  0  0  0  0
  5  7  1  0  0  0  0
  5 15  1  0  0  0  0
  5 22  1  0  0  0  0
  6  8  1  0  0  0  0
  6 12  1  0  0  0  0
  6 34  1  0  0  0  0
  7  9  1  0  0  0  0
  7 14  1  0  0  0  0
  8 10  1  0  0  0  0
  8 19  1  0  0  0  0
  8 24  1  0  0  0  0
  9 11  1  0  0  0  0
  9 21  1  0  0  0  0
  9 35  1  0  0  0  0
 10 16  1  0  0  0  0
 10 18  1  0  0  0  0
 10 36  1  0  0  0  0
 11 17  1  0  0  0  0
 11 23  1  0  0  0  0
 11 29  1  0  0  0  0
 12 14  1  0  0  0  0
 12 37  1  0  0  0  0
 13 16  1  0  0  0  0
 13 38  1  0  0  0  0
 13 39  1  0  0  0  0
 14 40  1  0  0  0  0
 14 41  1  0  0  0  0
 15 17  1  0  0  0  0
 15 42  1  0  0  0  0
 15 43  1  0  0  0  0
 16 44  1  0  0  0  0
 16 45  1  0  0  0  0
 17 46  1  0  0  0  0
 17 47  1  0  0  0  0
 18 26  1  0  0  0  0
 18 30  1  0  0  0  0
 18 31  1  0  0  0  0
 19 27  1  0  0  0  0
 19 48  1  0  0  0  0
 19 49  1  0  0  0  0
 20 50  1  0  0  0  0
 20 51  1  0  0  0  0
 20 52  1  0  0  0  0
 21 25  1  0  0  0  0
 21 53  1  0  0  0  0
 21 54  1  0  0  0  0
 22 55  1  0  0  0  0
 22 56  1  0  0  0  0
 22 57  1  0  0  0  0
 23 28  1  0  0  0  0
 23 58  1  0  0  0  0
 23 59  1  0  0  0  0
 24 60  1  0  0  0  0
 24 61  1  0  0  0  0
 24 62  1  0  0  0  0
 25 28  1  0  0  0  0
 25 32  1  0  0  0  0
 25 33  1  0  0  0  0
 26 27  1  0  0  0  0
 26 63  1  0  0  0  0
 27 64  1  0  0  0  0
 27 65  1  0  0  0  0
 28 66  1  0  0  0  0
 28 67  1  0  0  0  0
 29 69  1  0  0  0  0
 29 70  1  0  0  0  0
 29 71  1  0  0  0  0
 30 73  1  0  0  0  0
 30 74  1  0  0  0  0
 30 75  1  0  0  0  0
 31 72  1  0  0  0  0
 31 76  1  0  0  0  0
 31 77  1  0  0  0  0
 32 81  1  0  0  0  0
 32 83  1  0  0  0  0
 32 84  1  0  0  0  0
 33 79  1  0  0  0  0
 33 80  1  0  0  0  0
 33 82  1  0  0  0  0
M  END
>  <PUBCHEM_COMPOUND_CID>
131751573

>  <PUBCHEM_COMPOUND_CANONICALIZED>
1

>  <PUBCHEM_CACTVS_COMPLEXITY>
819

>  <PUBCHEM_CACTVS_HBOND_ACCEPTOR>
3

>  <PUBCHEM_CACTVS_HBOND_DONOR>
3

>  <PUBCHEM_CACTVS_ROTATABLE_BOND>
0

>  <PUBCHEM_CACTVS_SUBSKEYS>
AAADcfB4MAAAAAAAAAAAAAAAAAAAAAAAAAAwYMGDAAAAAADAAAAAGgAACAAAD1SggAICAAAAAgAAAAAAAAAAAAAAAAAAAAAAAAAAEAIAAAAAQAAFAAAAAAGA4PQPgAAAAAAAAADAAAYQADAAAAAAAAAAAA==

>  <PUBCHEM_IUPAC_OPENEYE_NAME>
4,4,6a,6b,8a,11,11,14b-octamethyl-2,3,4a,5,6,7,8,9,10,12,12a,13,14,14a-tetradecahydro-1H-picene-3,6a,14-triol

>  <PUBCHEM_IUPAC_CAS_NAME>
4,4,6a,6b,8a,11,11,14b-octamethyl-2,3,4a,5,6,7,8,9,10,12,12a,13,14,14a-tetradecahydro-1H-picene-3,6a,14-triol

>  <PUBCHEM_IUPAC_NAME>
4,4,6a,6b,8a,11,11,14b-octamethyl-2,3,4a,5,6,7,8,9,10,12,12a,13,14,14a-tetradecahydro-1H-picene-3,6a,14-triol

>  <PUBCHEM_IUPAC_SYSTEMATIC_NAME>
4,4,6a,6b,8a,11,11,14b-octamethyl-2,3,4a,5,6,7,8,9,10,12,12a,13,14,14a-tetradecahydro-1H-picene-3,6a,14-triol

>  <PUBCHEM_IUPAC_TRADITIONAL_NAME>
4,4,6a,6b,8a,11,11,14b-octamethyl-2,3,4a,5,6,7,8,9,10,12,12a,13,14,14a-tetradecahydro-1H-picene-3,6a,14-triol

>  <PUBCHEM_IUPAC_INCHI>
InChI=1S/C30H52O3/c1-24(2)13-14-26(5)15-16-29(8)28(7)12-9-20-25(3,4)22(32)10-11-27(20,6)23(28)19(31)17-30(29,33)21(26)18-24/h19-23,31-33H,9-18H2,1-8H3

>  <PUBCHEM_IUPAC_INCHIKEY>
PVMLWBWORNCCPQ-UHFFFAOYSA-N

>  <PUBCHEM_EXACT_MASS>
460.392

>  <PUBCHEM_MOLECULAR_FORMULA>
C30H52O3

>  <PUBCHEM_MOLECULAR_WEIGHT>
460.743

>  <PUBCHEM_OPENEYE_CAN_SMILES>
CC1(CCC2(CCC3(C4(CCC5C(C(CCC5(C4C(CC3(C2C1)O)O)C)O)(C)C)C)C)C)C

>  <PUBCHEM_OPENEYE_ISO_SMILES>
CC1(CCC2(CCC3(C4(CCC5C(C(CCC5(C4C(CC3(C2C1)O)O)C)O)(C)C)C)C)C)C

>  <PUBCHEM_CACTVS_TPSA>
60.7

>  <PUBCHEM_MONOISOTOPIC_WEIGHT>
460.392

>  <PUBCHEM_TOTAL_CHARGE>
0

>  <PUBCHEM_HEAVY_ATOM_COUNT>
33

>  <PUBCHEM_ATOM_DEF_STEREO_COUNT>
0

>  <PUBCHEM_ATOM_UDEF_STEREO_COUNT>
10

>  <PUBCHEM_BOND_DEF_STEREO_COUNT>
0

>  <PUBCHEM_BOND_UDEF_STEREO_COUNT>
0

>  <PUBCHEM_ISOTOPIC_ATOM_COUNT>
0

>  <PUBCHEM_COMPONENT_COUNT>
1

>  <PUBCHEM_CACTVS_TAUTO_COUNT>
1

>  <PUBCHEM_COORDINATE_TYPE>
1
5
255

>  <PUBCHEM_BONDANNOTATIONS>
7  1  3
10  16  3
11  29  3
12  2  3
26  3  3
4  20  3
5  22  3
6  12  3
8  24  3
9  21  3

$$$$
