131751363
 OpenBabel06101807152D

152161  0  0  1  0  0  0  0  0999 V2000
   10.1950    1.4826    0.0000 O   0  0  0  0  0  0  0  0  0  0  0  0
    9.3290   -0.0174    0.0000 O   0  0  0  0  0  0  0  0  0  0  0  0
   11.9271    0.4826    0.0000 O   0  0  0  0  0  0  0  0  0  0  0  0
   11.9271   -1.5174    0.0000 O   0  0  0  0  0  0  0  0  0  0  0  0
   10.1950   -2.5174    0.0000 O   0  0  0  0  0  0  0  0  0  0  0  0
    7.5969   -1.0174    0.0000 O   0  0  0  0  0  0  0  0  0  0  0  0
    8.4630   -2.5174    0.0000 O   0  0  0  0  0  0  0  0  0  0  0  0
   10.1950   -4.5174    0.0000 O   0  0  0  0  0  0  0  0  0  0  0  0
    8.4630   -5.5174    0.0000 O   0  0  0  0  0  0  0  0  0  0  0  0
    6.7309   -4.5174    0.0000 O   0  0  0  0  0  0  0  0  0  0  0  0
   10.1951   -6.2494    0.0000 O   0  0  0  0  0  0  0  0  0  0  0  0
    6.7309   -1.5174    0.0000 O   0  0  0  0  0  0  0  0  0  0  0  0
    6.7309   -5.5174    0.0000 O   0  0  0  0  0  0  0  0  0  0  0  0
   12.1950   -4.5174    0.0000 O   0  0  0  0  0  0  0  0  0  0  0  0
   13.1950   -6.2494    0.0000 O   0  0  0  0  0  0  0  0  0  0  0  0
    8.4630   -7.5174    0.0000 O   0  0  0  0  0  0  0  0  0  0  0  0
   12.1951   -7.9814    0.0000 O   0  0  0  0  0  0  0  0  0  0  0  0
    6.7309   -8.5174    0.0000 O   0  0  0  0  0  0  0  0  0  0  0  0
    4.9989   -7.5174    0.0000 O   0  0  0  0  0  0  0  0  0  0  0  0
   10.6951   -8.8475    0.0000 O   0  0  0  0  0  0  0  0  0  0  0  0
    3.7670    6.8371    0.0000 N   0  0  3  0  0  0  0  0  0  0  0  0
    4.8430    4.6064    0.0000 C   0  0  3  0  0  0  0  0  0  0  0  0
    4.1034    5.2706    0.0000 C   0  0  3  0  0  0  0  0  0  0  0  0
    5.7071    5.1097    0.0000 C   0  0  3  0  0  0  0  0  0  0  0  0
    4.5050    6.1800    0.0000 C   0  0  3  0  0  0  0  0  0  0  0  0
    6.5750    4.6131    0.0000 C   0  0  3  0  0  0  0  0  0  0  0  0
    5.4941    6.0807    0.0000 C   0  0  0  0  0  0  0  0  0  0  0  0
    3.1206    5.3735    0.0000 C   0  0  3  0  0  0  0  0  0  0  0  0
    6.5789    3.6131    0.0000 C   0  0  3  0  0  0  0  0  0  0  0  0
    4.8468    3.6064    0.0000 C   0  0  0  0  0  0  0  0  0  0  0  0
    2.9131    6.3397    0.0000 C   0  0  3  0  0  0  0  0  0  0  0  0
    5.7148    3.1097    0.0000 C   0  0  0  0  0  0  0  0  0  0  0  0
    7.4749    3.0819    0.0000 C   0  0  3  0  0  0  0  0  0  0  0  0
    3.9789    4.1030    0.0000 C   0  0  0  0  0  0  0  0  0  0  0  0
    7.4669    5.1512    0.0000 C   0  0  0  0  0  0  0  0  0  0  0  0
    2.0119    6.8371    0.0000 C   0  0  0  0  0  0  0  0  0  0  0  0
    3.7789    7.8664    0.0000 C   0  0  0  0  0  0  0  0  0  0  0  0
    2.4524    4.6296    0.0000 C   0  0  0  0  0  0  0  0  0  0  0  0
    8.3790    3.5992    0.0000 C   0  0  0  0  0  0  0  0  0  0  0  0
    2.8894    8.3844    0.0000 C   0  0  3  0  0  0  0  0  0  0  0  0
    7.4540    1.9971    0.0000 C   0  0  0  0  0  0  0  0  0  0  0  0
    2.0000    7.8664    0.0000 C   0  0  0  0  0  0  0  0  0  0  0  0
    8.3750    4.6408    0.0000 C   0  0  0  0  0  0  0  0  0  0  0  0
    6.6069    2.5852    0.0000 C   0  0  0  0  0  0  0  0  0  0  0  0
    9.3248    3.0676    0.0000 C   0  0  0  0  0  0  0  0  0  0  0  0
    8.3873    1.4437    0.0000 C   0  0  0  0  0  0  0  0  0  0  0  0
    9.3290    1.9826    0.0000 C   0  0  3  0  0  0  0  0  0  0  0  0
    2.8894    9.3844    0.0000 C   0  0  0  0  0  0  0  0  0  0  0  0
   10.1950    0.4826    0.0000 C   0  0  3  0  0  0  0  0  0  0  0  0
   11.0610   -0.0174    0.0000 C   0  0  3  0  0  0  0  0  0  0  0  0
   11.0610   -1.0174    0.0000 C   0  0  3  0  0  0  0  0  0  0  0  0
    9.3290   -1.0174    0.0000 C   0  0  3  0  0  0  0  0  0  0  0  0
   10.1950   -1.5174    0.0000 C   0  0  3  0  0  0  0  0  0  0  0  0
    8.4630   -1.5174    0.0000 C   0  0  0  0  0  0  0  0  0  0  0  0
    9.3290   -3.0174    0.0000 C   0  0  3  0  0  0  0  0  0  0  0  0
    9.3290   -4.0174    0.0000 C   0  0  3  0  0  0  0  0  0  0  0  0
    8.4630   -4.5174    0.0000 C   0  0  3  0  0  0  0  0  0  0  0  0
    7.5969   -3.0174    0.0000 C   0  0  3  0  0  0  0  0  0  0  0  0
    7.5969   -4.0174    0.0000 C   0  0  3  0  0  0  0  0  0  0  0  0
    6.7309   -2.5174    0.0000 C   0  0  0  0  0  0  0  0  0  0  0  0
   10.6951   -5.3834    0.0000 C   0  0  3  0  0  0  0  0  0  0  0  0
    7.5969   -6.0174    0.0000 C   0  0  3  0  0  0  0  0  0  0  0  0
   11.6950   -5.3834    0.0000 C   0  0  3  0  0  0  0  0  0  0  0  0
   12.1950   -6.2494    0.0000 C   0  0  3  0  0  0  0  0  0  0  0  0
    7.5969   -7.0174    0.0000 C   0  0  3  0  0  0  0  0  0  0  0  0
   10.6951   -7.1154    0.0000 C   0  0  3  0  0  0  0  0  0  0  0  0
   11.6951   -7.1154    0.0000 C   0  0  3  0  0  0  0  0  0  0  0  0
    6.7309   -7.5174    0.0000 C   0  0  3  0  0  0  0  0  0  0  0  0
    5.8649   -7.0174    0.0000 C   0  0  3  0  0  0  0  0  0  0  0  0
    5.8649   -6.0174    0.0000 C   0  0  0  0  0  0  0  0  0  0  0  0
   10.1951   -7.9815    0.0000 C   0  0  0  0  0  0  0  0  0  0  0  0
    3.8517    4.7040    0.0000 H   0  0  0  0  0  0  0  0  0  0  0  0
    6.2068    5.4767    0.0000 H   0  0  0  0  0  0  0  0  0  0  0  0
    4.7543    6.7477    0.0000 H   0  0  0  0  0  0  0  0  0  0  0  0
    6.5679    5.2330    0.0000 H   0  0  0  0  0  0  0  0  0  0  0  0
    6.1104    6.1492    0.0000 H   0  0  0  0  0  0  0  0  0  0  0  0
    5.4909    6.7007    0.0000 H   0  0  0  0  0  0  0  0  0  0  0  0
    3.3433    4.7949    0.0000 H   0  0  0  0  0  0  0  0  0  0  0  0
    7.1170    3.9210    0.0000 H   0  0  0  0  0  0  0  0  0  0  0  0
    4.2359    3.7117    0.0000 H   0  0  0  0  0  0  0  0  0  0  0  0
    4.6370    3.0230    0.0000 H   0  0  0  0  0  0  0  0  0  0  0  0
    2.4154    5.9699    0.0000 H   0  0  0  0  0  0  0  0  0  0  0  0
    5.3181    2.6333    0.0000 H   0  0  0  0  0  0  0  0  0  0  0  0
    6.1152    2.6363    0.0000 H   0  0  0  0  0  0  0  0  0  0  0  0
    3.6668    4.6388    0.0000 H   0  0  0  0  0  0  0  0  0  0  0  0
    3.4432    3.7910    0.0000 H   0  0  0  0  0  0  0  0  0  0  0  0
    4.2910    3.5673    0.0000 H   0  0  0  0  0  0  0  0  0  0  0  0
    7.8587    5.6317    0.0000 H   0  0  0  0  0  0  0  0  0  0  0  0
    7.0605    5.6194    0.0000 H   0  0  0  0  0  0  0  0  0  0  0  0
    1.3999    6.9361    0.0000 H   0  0  0  0  0  0  0  0  0  0  0  0
    1.8096    6.2510    0.0000 H   0  0  0  0  0  0  0  0  0  0  0  0
    4.3885    7.7532    0.0000 H   0  0  0  0  0  0  0  0  0  0  0  0
    3.9947    8.4476    0.0000 H   0  0  0  0  0  0  0  0  0  0  0  0
    1.9911    5.0438    0.0000 H   0  0  0  0  0  0  0  0  0  0  0  0
    2.0381    4.1683    0.0000 H   0  0  0  0  0  0  0  0  0  0  0  0
    2.9137    4.2153    0.0000 H   0  0  0  0  0  0  0  0  0  0  0  0
    3.4270    8.6934    0.0000 H   0  0  0  0  0  0  0  0  0  0  0  0
    6.8453    2.1149    0.0000 H   0  0  0  0  0  0  0  0  0  0  0  0
    7.2337    1.4175    0.0000 H   0  0  0  0  0  0  0  0  0  0  0  0
    1.7842    8.4476    0.0000 H   0  0  0  0  0  0  0  0  0  0  0  0
    1.3904    7.7532    0.0000 H   0  0  0  0  0  0  0  0  0  0  0  0
    8.9095    4.9550    0.0000 H   0  0  0  0  0  0  0  0  0  0  0  0
    6.2990    3.1233    0.0000 H   0  0  0  0  0  0  0  0  0  0  0  0
    6.0688    2.2773    0.0000 H   0  0  0  0  0  0  0  0  0  0  0  0
    6.9149    2.0471    0.0000 H   0  0  0  0  0  0  0  0  0  0  0  0
    9.9361    2.9639    0.0000 H   0  0  0  0  0  0  0  0  0  0  0  0
    9.5316    3.6521    0.0000 H   0  0  0  0  0  0  0  0  0  0  0  0
    7.9845    0.9724    0.0000 H   0  0  0  0  0  0  0  0  0  0  0  0
    8.7827    0.9662    0.0000 H   0  0  0  0  0  0  0  0  0  0  0  0
    9.3278    1.3626    0.0000 H   0  0  0  0  0  0  0  0  0  0  0  0
    3.5094    9.3844    0.0000 H   0  0  0  0  0  0  0  0  0  0  0  0
    2.8894   10.0044    0.0000 H   0  0  0  0  0  0  0  0  0  0  0  0
    2.2694    9.3844    0.0000 H   0  0  0  0  0  0  0  0  0  0  0  0
    9.6581    0.7926    0.0000 H   0  0  0  0  0  0  0  0  0  0  0  0
   11.0610    0.6026    0.0000 H   0  0  0  0  0  0  0  0  0  0  0  0
   11.5980   -0.7074    0.0000 H   0  0  0  0  0  0  0  0  0  0  0  0
    8.7920   -0.7074    0.0000 H   0  0  0  0  0  0  0  0  0  0  0  0
   10.7320   -1.8274    0.0000 H   0  0  0  0  0  0  0  0  0  0  0  0
   11.9271    1.1026    0.0000 H   0  0  0  0  0  0  0  0  0  0  0  0
    8.0644   -1.9923    0.0000 H   0  0  0  0  0  0  0  0  0  0  0  0
    8.8615   -1.9923    0.0000 H   0  0  0  0  0  0  0  0  0  0  0  0
   12.4640   -1.2074    0.0000 H   0  0  0  0  0  0  0  0  0  0  0  0
    9.8659   -3.3274    0.0000 H   0  0  0  0  0  0  0  0  0  0  0  0
    7.5969   -0.3974    0.0000 H   0  0  0  0  0  0  0  0  0  0  0  0
    9.3290   -4.6374    0.0000 H   0  0  0  0  0  0  0  0  0  0  0  0
    8.9999   -4.8274    0.0000 H   0  0  0  0  0  0  0  0  0  0  0  0
    7.5969   -2.3974    0.0000 H   0  0  0  0  0  0  0  0  0  0  0  0
    7.5969   -4.6374    0.0000 H   0  0  0  0  0  0  0  0  0  0  0  0
    6.1203   -2.4097    0.0000 H   0  0  0  0  0  0  0  0  0  0  0  0
    6.5189   -3.1000    0.0000 H   0  0  0  0  0  0  0  0  0  0  0  0
   11.0051   -4.8464    0.0000 H   0  0  0  0  0  0  0  0  0  0  0  0
    6.1940   -4.2074    0.0000 H   0  0  0  0  0  0  0  0  0  0  0  0
    7.5969   -5.3974    0.0000 H   0  0  0  0  0  0  0  0  0  0  0  0
   12.3150   -5.3834    0.0000 H   0  0  0  0  0  0  0  0  0  0  0  0
   12.5050   -6.7864    0.0000 H   0  0  0  0  0  0  0  0  0  0  0  0
    7.5969   -7.6374    0.0000 H   0  0  0  0  0  0  0  0  0  0  0  0
   10.0751   -7.1155    0.0000 H   0  0  0  0  0  0  0  0  0  0  0  0
    6.1940   -1.2074    0.0000 H   0  0  0  0  0  0  0  0  0  0  0  0
   12.3151   -7.1154    0.0000 H   0  0  0  0  0  0  0  0  0  0  0  0
    6.1940   -7.8274    0.0000 H   0  0  0  0  0  0  0  0  0  0  0  0
    5.3280   -6.7074    0.0000 H   0  0  0  0  0  0  0  0  0  0  0  0
    5.6528   -5.4348    0.0000 H   0  0  0  0  0  0  0  0  0  0  0  0
    5.2543   -6.1250    0.0000 H   0  0  0  0  0  0  0  0  0  0  0  0
   12.8150   -4.5174    0.0000 H   0  0  0  0  0  0  0  0  0  0  0  0
    9.7201   -7.5830    0.0000 H   0  0  0  0  0  0  0  0  0  0  0  0
    9.7201   -8.3800    0.0000 H   0  0  0  0  0  0  0  0  0  0  0  0
   13.5050   -5.7125    0.0000 H   0  0  0  0  0  0  0  0  0  0  0  0
    8.4630   -8.1374    0.0000 H   0  0  0  0  0  0  0  0  0  0  0  0
   12.8150   -7.9815    0.0000 H   0  0  0  0  0  0  0  0  0  0  0  0
    6.1940   -8.8274    0.0000 H   0  0  0  0  0  0  0  0  0  0  0  0
    4.4619   -7.2074    0.0000 H   0  0  0  0  0  0  0  0  0  0  0  0
   10.3851   -9.3844    0.0000 H   0  0  0  0  0  0  0  0  0  0  0  0
  1 47  1  0  0  0  0
  1 49  1  0  0  0  0
  2 49  1  0  0  0  0
  2 52  1  0  0  0  0
  3 50  1  0  0  0  0
  3119  1  0  0  0  0
  4 51  1  0  0  0  0
  4122  1  0  0  0  0
  5 53  1  0  0  0  0
  5 55  1  0  0  0  0
  6 54  1  0  0  0  0
  6124  1  0  0  0  0
  7 55  1  0  0  0  0
  7 58  1  0  0  0  0
  8 56  1  0  0  0  0
  8 61  1  0  0  0  0
  9 57  1  0  0  0  0
  9 62  1  0  0  0  0
 10 59  1  0  0  0  0
 10132  1  0  0  0  0
 11 61  1  0  0  0  0
 11 66  1  0  0  0  0
 12 60  1  0  0  0  0
 12138  1  0  0  0  0
 13 62  1  0  0  0  0
 13 70  1  0  0  0  0
 14 63  1  0  0  0  0
 14144  1  0  0  0  0
 15 64  1  0  0  0  0
 15147  1  0  0  0  0
 16 65  1  0  0  0  0
 16148  1  0  0  0  0
 17 67  1  0  0  0  0
 17149  1  0  0  0  0
 18 68  1  0  0  0  0
 18150  1  0  0  0  0
 19 69  1  0  0  0  0
 19151  1  0  0  0  0
 20 71  1  0  0  0  0
 20152  1  0  0  0  0
 21 25  1  0  0  0  0
 21 31  1  0  0  0  0
 21 37  1  0  0  0  0
 22 23  1  0  0  0  0
 22 24  1  0  0  0  0
 22 30  1  0  0  0  0
 22 34  1  0  0  0  0
 23 25  1  0  0  0  0
 23 28  1  0  0  0  0
 23 72  1  0  0  0  0
 24 26  1  0  0  0  0
 24 27  1  0  0  0  0
 24 73  1  0  0  0  0
 25 27  1  0  0  0  0
 25 74  1  0  0  0  0
 26 29  1  0  0  0  0
 26 35  1  0  0  0  0
 26 75  1  0  0  0  0
 27 76  1  0  0  0  0
 27 77  1  0  0  0  0
 28 31  1  0  0  0  0
 28 38  1  0  0  0  0
 28 78  1  0  0  0  0
 29 32  1  0  0  0  0
 29 33  1  0  0  0  0
 29 79  1  0  0  0  0
 30 32  1  0  0  0  0
 30 80  1  0  0  0  0
 30 81  1  0  0  0  0
 31 36  1  0  0  0  0
 31 82  1  0  0  0  0
 32 83  1  0  0  0  0
 32 84  1  0  0  0  0
 33 39  1  0  0  0  0
 33 41  1  0  0  0  0
 33 44  1  0  0  0  0
 34 85  1  0  0  0  0
 34 86  1  0  0  0  0
 34 87  1  0  0  0  0
 35 43  1  0  0  0  0
 35 88  1  0  0  0  0
 35 89  1  0  0  0  0
 36 42  1  0  0  0  0
 36 90  1  0  0  0  0
 36 91  1  0  0  0  0
 37 40  1  0  0  0  0
 37 92  1  0  0  0  0
 37 93  1  0  0  0  0
 38 94  1  0  0  0  0
 38 95  1  0  0  0  0
 38 96  1  0  0  0  0
 39 43  2  0  0  0  0
 39 45  1  0  0  0  0
 40 42  1  0  0  0  0
 40 48  1  0  0  0  0
 40 97  1  0  0  0  0
 41 46  1  0  0  0  0
 41 98  1  0  0  0  0
 41 99  1  0  0  0  0
 42100  1  0  0  0  0
 42101  1  0  0  0  0
 43102  1  0  0  0  0
 44103  1  0  0  0  0
 44104  1  0  0  0  0
 44105  1  0  0  0  0
 45 47  1  0  0  0  0
 45106  1  0  0  0  0
 45107  1  0  0  0  0
 46 47  1  0  0  0  0
 46108  1  0  0  0  0
 46109  1  0  0  0  0
 47110  1  0  0  0  0
 48111  1  0  0  0  0
 48112  1  0  0  0  0
 48113  1  0  0  0  0
 49 50  1  0  0  0  0
 49114  1  0  0  0  0
 50 51  1  0  0  0  0
 50115  1  0  0  0  0
 51 53  1  0  0  0  0
 51116  1  0  0  0  0
 52 53  1  0  0  0  0
 52 54  1  0  0  0  0
 52117  1  0  0  0  0
 53118  1  0  0  0  0
 54120  1  0  0  0  0
 54121  1  0  0  0  0
 55 56  1  0  0  0  0
 55123  1  0  0  0  0
 56 57  1  0  0  0  0
 56125  1  0  0  0  0
 57 59  1  0  0  0  0
 57126  1  0  0  0  0
 58 59  1  0  0  0  0
 58 60  1  0  0  0  0
 58127  1  0  0  0  0
 59128  1  0  0  0  0
 60129  1  0  0  0  0
 60130  1  0  0  0  0
 61 63  1  0  0  0  0
 61131  1  0  0  0  0
 62 65  1  0  0  0  0
 62133  1  0  0  0  0
 63 64  1  0  0  0  0
 63134  1  0  0  0  0
 64 67  1  0  0  0  0
 64135  1  0  0  0  0
 65 68  1  0  0  0  0
 65136  1  0  0  0  0
 66 67  1  0  0  0  0
 66 71  1  0  0  0  0
 66137  1  0  0  0  0
 67139  1  0  0  0  0
 68 69  1  0  0  0  0
 68140  1  0  0  0  0
 69 70  1  0  0  0  0
 69141  1  0  0  0  0
 70142  1  0  0  0  0
 70143  1  0  0  0  0
 71145  1  0  0  0  0
 71146  1  0  0  0  0
M  END
>  <PUBCHEM_COMPOUND_CID>
131751363

>  <PUBCHEM_COMPOUND_CANONICALIZED>
1

>  <PUBCHEM_CACTVS_COMPLEXITY>
1870

>  <PUBCHEM_CACTVS_HBOND_ACCEPTOR>
21

>  <PUBCHEM_CACTVS_HBOND_DONOR>
12

>  <PUBCHEM_CACTVS_ROTATABLE_BOND>
11

>  <PUBCHEM_CACTVS_SUBSKEYS>
AAADcfB+PgAAAAAAAAAAAAAAAAAAAeIAAAA8aJEiQAAWAHiAAAAAHgAACAAADzzxgAcCCAMABgCAAiBCAAAAAAAgAAAACAAIAAgREAIAgQAmQAAFwACPAAPQ4PwPgAAAAAAAAADAAAQAACAAASAACQAAAA==

>  <PUBCHEM_IUPAC_INCHI>
InChI=1S/C50H81NO20/c1-20-5-8-27-21(2)33-28(51(27)15-20)14-26-24-7-6-22-13-23(9-11-49(22,3)25(24)10-12-50(26,33)4)65-46-41(63)38(60)42(32(18-54)68-46)69-48-44(71-47-40(62)37(59)35(57)30(16-52)66-47)43(36(58)31(17-53)67-48)70-45-39(61)34(56)29(55)19-64-45/h6,20-21,23-48,52-63H,5,7-19H2,1-4H3

>  <PUBCHEM_IUPAC_INCHIKEY>
AGGQBLQYYGOWKY-UHFFFAOYSA-N

>  <PUBCHEM_EXACT_MASS>
1015.535

>  <PUBCHEM_MOLECULAR_FORMULA>
C50H81NO20

>  <PUBCHEM_MOLECULAR_WEIGHT>
1016.185

>  <PUBCHEM_OPENEYE_CAN_SMILES>
CC1CCC2C(C3C(N2C1)CC4C3(CCC5C4CC=C6C5(CCC(C6)OC7C(C(C(C(O7)CO)OC8C(C(C(C(O8)CO)O)OC9C(C(C(CO9)O)O)O)OC1C(C(C(C(O1)CO)O)O)O)O)O)C)C)C

>  <PUBCHEM_OPENEYE_ISO_SMILES>
CC1CCC2C(C3C(N2C1)CC4C3(CCC5C4CC=C6C5(CCC(C6)OC7C(C(C(C(O7)CO)OC8C(C(C(C(O8)CO)O)OC9C(C(C(CO9)O)O)O)OC1C(C(C(C(O1)CO)O)O)O)O)O)C)C)C

>  <PUBCHEM_CACTVS_TPSA>
320

>  <PUBCHEM_MONOISOTOPIC_WEIGHT>
1015.535

>  <PUBCHEM_TOTAL_CHARGE>
0

>  <PUBCHEM_HEAVY_ATOM_COUNT>
71

>  <PUBCHEM_ATOM_DEF_STEREO_COUNT>
0

>  <PUBCHEM_ATOM_UDEF_STEREO_COUNT>
30

>  <PUBCHEM_BOND_DEF_STEREO_COUNT>
0

>  <PUBCHEM_BOND_UDEF_STEREO_COUNT>
0

>  <PUBCHEM_ISOTOPIC_ATOM_COUNT>
0

>  <PUBCHEM_COMPONENT_COUNT>
1

>  <PUBCHEM_CACTVS_TAUTO_COUNT>
1

>  <PUBCHEM_COORDINATE_TYPE>
1
5
255

>  <PUBCHEM_BONDANNOTATIONS>
47  1  3
49  1  3
59  10  3
63  14  3
64  15  3
65  16  3
67  17  3
68  18  3
69  19  3
22  34  3
23  28  3
24  27  3
25  27  3
26  35  3
28  38  3
29  32  3
50  3  3
31  36  3
33  44  3
51  4  3
40  48  3
53  5  3
55  5  3
52  54  3
58  60  3
66  71  3
56  8  3
61  8  3
57  9  3
62  9  3

$$$$
