131752410
 OpenBabel06101807152D

 47 49  0  0  0  0  0  0  0  0999 V2000
    5.3147   -2.9588    0.0000 O   0  0  0  0  0  0  0  0  0  0  0  0
   11.4571    3.3460    0.0000 O   0  0  0  0  0  0  0  0  0  0  0  0
   11.4571    1.7365    0.0000 O   0  0  0  0  0  0  0  0  0  0  0  0
    3.5827   -2.9588    0.0000 N   0  0  0  0  0  0  0  0  0  0  0  0
    2.0000   -3.2952    0.0000 C   0  0  0  0  0  0  0  0  0  0  0  0
    2.5000   -4.1612    0.0000 C   0  0  0  0  0  0  0  0  0  0  0  0
    2.6691   -2.5520    0.0000 C   0  0  0  0  0  0  0  0  0  0  0  0
    3.4782   -3.9533    0.0000 C   0  0  0  0  0  0  0  0  0  0  0  0
    4.4487   -2.4588    0.0000 C   0  0  0  0  0  0  0  0  0  0  0  0
    4.4487   -1.4588    0.0000 C   0  0  0  0  0  0  0  0  0  0  0  0
    5.3147   -0.9588    0.0000 C   0  0  0  0  0  0  0  0  0  0  0  0
    6.1808    1.5412    0.0000 C   0  0  0  0  0  0  0  0  0  0  0  0
    7.0468    2.0412    0.0000 C   0  0  0  0  0  0  0  0  0  0  0  0
    8.7788    3.0412    0.0000 C   0  0  0  0  0  0  0  0  0  0  0  0
   10.5109    3.0412    0.0000 C   0  0  0  0  0  0  0  0  0  0  0  0
    5.3147    0.0412    0.0000 C   0  0  0  0  0  0  0  0  0  0  0  0
   10.5109    2.0412    0.0000 C   0  0  0  0  0  0  0  0  0  0  0  0
    6.1808    0.5412    0.0000 C   0  0  0  0  0  0  0  0  0  0  0  0
    9.6448    3.5412    0.0000 C   0  0  0  0  0  0  0  0  0  0  0  0
    7.0468    3.0412    0.0000 C   0  0  0  0  0  0  0  0  0  0  0  0
    7.9128    3.5412    0.0000 C   0  0  0  0  0  0  0  0  0  0  0  0
    8.7788    2.0412    0.0000 C   0  0  0  0  0  0  0  0  0  0  0  0
    9.6448    1.5412    0.0000 C   0  0  0  0  0  0  0  0  0  0  0  0
   12.0407    2.5412    0.0000 C   0  0  0  0  0  0  0  0  0  0  0  0
    1.9336   -4.4134    0.0000 H   0  0  0  0  0  0  0  0  0  0  0  0
    2.6916   -4.7509    0.0000 H   0  0  0  0  0  0  0  0  0  0  0  0
    1.5851   -2.8344    0.0000 H   0  0  0  0  0  0  0  0  0  0  0  0
    1.4984   -3.6596    0.0000 H   0  0  0  0  0  0  0  0  0  0  0  0
    2.9791   -2.0151    0.0000 H   0  0  0  0  0  0  0  0  0  0  0  0
    3.5430   -4.5699    0.0000 H   0  0  0  0  0  0  0  0  0  0  0  0
    4.0982   -3.9533    0.0000 H   0  0  0  0  0  0  0  0  0  0  0  0
    2.1675   -2.1876    0.0000 H   0  0  0  0  0  0  0  0  0  0  0  0
    3.9118   -1.1488    0.0000 H   0  0  0  0  0  0  0  0  0  0  0  0
    5.8517   -1.2688    0.0000 H   0  0  0  0  0  0  0  0  0  0  0  0
    5.9687    2.1238    0.0000 H   0  0  0  0  0  0  0  0  0  0  0  0
    5.5702    1.4336    0.0000 H   0  0  0  0  0  0  0  0  0  0  0  0
    7.2588    1.4586    0.0000 H   0  0  0  0  0  0  0  0  0  0  0  0
    7.6574    2.1489    0.0000 H   0  0  0  0  0  0  0  0  0  0  0  0
    4.7778    0.3512    0.0000 H   0  0  0  0  0  0  0  0  0  0  0  0
    9.6448    4.1612    0.0000 H   0  0  0  0  0  0  0  0  0  0  0  0
    6.7177    0.2312    0.0000 H   0  0  0  0  0  0  0  0  0  0  0  0
    6.5098    3.3512    0.0000 H   0  0  0  0  0  0  0  0  0  0  0  0
    7.9128    4.1612    0.0000 H   0  0  0  0  0  0  0  0  0  0  0  0
    8.2419    1.7312    0.0000 H   0  0  0  0  0  0  0  0  0  0  0  0
    9.6448    0.9212    0.0000 H   0  0  0  0  0  0  0  0  0  0  0  0
   12.5016    2.1265    0.0000 H   0  0  0  0  0  0  0  0  0  0  0  0
   12.5016    2.9560    0.0000 H   0  0  0  0  0  0  0  0  0  0  0  0
  1  9  2  0  0  0  0
  2 15  1  0  0  0  0
  2 24  1  0  0  0  0
  3 17  1  0  0  0  0
  3 24  1  0  0  0  0
  4  7  1  0  0  0  0
  4  8  1  0  0  0  0
  4  9  1  0  0  0  0
  5  6  1  0  0  0  0
  5  7  1  0  0  0  0
  5 27  1  0  0  0  0
  5 28  1  0  0  0  0
  6  8  1  0  0  0  0
  6 25  1  0  0  0  0
  6 26  1  0  0  0  0
  7 29  1  0  0  0  0
  7 32  1  0  0  0  0
  8 30  1  0  0  0  0
  8 31  1  0  0  0  0
  9 10  1  0  0  0  0
 10 11  2  0  0  0  0
 10 33  1  0  0  0  0
 11 16  1  0  0  0  0
 11 34  1  0  0  0  0
 12 13  1  0  0  0  0
 12 18  1  0  0  0  0
 12 35  1  0  0  0  0
 12 36  1  0  0  0  0
 13 20  1  0  0  0  0
 13 37  1  0  0  0  0
 13 38  1  0  0  0  0
 14 19  2  0  0  0  0
 14 21  1  0  0  0  0
 14 22  1  0  0  0  0
 15 17  2  0  0  0  0
 15 19  1  0  0  0  0
 16 18  2  0  0  0  0
 16 39  1  0  0  0  0
 17 23  1  0  0  0  0
 18 41  1  0  0  0  0
 19 40  1  0  0  0  0
 20 21  2  0  0  0  0
 20 42  1  0  0  0  0
 21 43  1  0  0  0  0
 22 23  2  0  0  0  0
 22 44  1  0  0  0  0
 23 45  1  0  0  0  0
 24 46  1  0  0  0  0
 24 47  1  0  0  0  0
M  END
>  <PUBCHEM_COMPOUND_CID>
131752410

>  <PUBCHEM_COMPOUND_CANONICALIZED>
1

>  <PUBCHEM_CACTVS_COMPLEXITY>
491

>  <PUBCHEM_CACTVS_HBOND_ACCEPTOR>
3

>  <PUBCHEM_CACTVS_HBOND_DONOR>
0

>  <PUBCHEM_CACTVS_ROTATABLE_BOND>
6

>  <PUBCHEM_CACTVS_SUBSKEYS>
AAADceB6MAAAAAAAAAAAAAAAAAAAAWJAAAAwAAAAAAAAAEgBAAAAHgAAAAAADATBmAcwDoMABACIAiFSEACCCAAgIAAIiAAOiMgdJiKEsRqkMCIkxhGOqYeAwBAOIAABAAAAQABAAAIAAACAAAAAAAAAAA==

>  <PUBCHEM_IUPAC_OPENEYE_NAME>
(2E,4E,8Z)-9-(1,3-benzodioxol-5-yl)-1-pyrrolidin-1-yl-nona-2,4,8-trien-1-one

>  <PUBCHEM_IUPAC_CAS_NAME>
(2E,4E,8Z)-9-(1,3-benzodioxol-5-yl)-1-(1-pyrrolidinyl)-1-nona-2,4,8-trienone

>  <PUBCHEM_IUPAC_NAME>
(2E,4E,8Z)-9-(1,3-benzodioxol-5-yl)-1-pyrrolidin-1-ylnona-2,4,8-trien-1-one

>  <PUBCHEM_IUPAC_SYSTEMATIC_NAME>
(2E,4E,8Z)-9-(1,3-benzodioxol-5-yl)-1-pyrrolidin-1-yl-nona-2,4,8-trien-1-one

>  <PUBCHEM_IUPAC_TRADITIONAL_NAME>
(2E,4E,8Z)-9-(1,3-benzodioxol-5-yl)-1-pyrrolidino-nona-2,4,8-trien-1-one

>  <PUBCHEM_IUPAC_INCHI>
InChI=1S/C20H23NO3/c22-20(21-13-7-8-14-21)10-6-4-2-1-3-5-9-17-11-12-18-19(15-17)24-16-23-18/h2,4-6,9-12,15H,1,3,7-8,13-14,16H2/b4-2+,9-5-,10-6+

>  <PUBCHEM_IUPAC_INCHIKEY>
XWQSYLYFCJTIEL-JWXNOOABSA-N

>  <PUBCHEM_EXACT_MASS>
325.168

>  <PUBCHEM_MOLECULAR_FORMULA>
C20H23NO3

>  <PUBCHEM_MOLECULAR_WEIGHT>
325.408

>  <PUBCHEM_OPENEYE_CAN_SMILES>
C1CCN(C1)C(=O)C=CC=CCCC=CC2=CC3=C(C=C2)OCO3

>  <PUBCHEM_OPENEYE_ISO_SMILES>
C1CCN(C1)C(=O)/C=C/C=C/CC/C=C\C2=CC3=C(C=C2)OCO3

>  <PUBCHEM_CACTVS_TPSA>
38.8

>  <PUBCHEM_MONOISOTOPIC_WEIGHT>
325.168

>  <PUBCHEM_TOTAL_CHARGE>
0

>  <PUBCHEM_HEAVY_ATOM_COUNT>
24

>  <PUBCHEM_ATOM_DEF_STEREO_COUNT>
0

>  <PUBCHEM_ATOM_UDEF_STEREO_COUNT>
0

>  <PUBCHEM_BOND_DEF_STEREO_COUNT>
3

>  <PUBCHEM_BOND_UDEF_STEREO_COUNT>
0

>  <PUBCHEM_ISOTOPIC_ATOM_COUNT>
0

>  <PUBCHEM_COMPONENT_COUNT>
1

>  <PUBCHEM_CACTVS_TAUTO_COUNT>
3

>  <PUBCHEM_COORDINATE_TYPE>
1
5
255

>  <PUBCHEM_BONDANNOTATIONS>
14  19  8
14  22  8
15  17  8
15  19  8
17  23  8
22  23  8

$$$$
