131752990
 OpenBabel06101807152D

160168  0  0  1  0  0  0  0  0999 V2000
    9.4651   -0.1941    0.0000 O   0  0  0  0  0  0  0  0  0  0  0  0
   12.2592    6.8844    0.0000 O   0  0  0  0  0  0  0  0  0  0  0  0
   11.2189    9.0853    0.0000 O   0  0  0  0  0  0  0  0  0  0  0  0
   12.2132    8.2704    0.0000 O   0  0  0  0  0  0  0  0  0  0  0  0
    7.7331   -0.1941    0.0000 O   0  0  0  0  0  0  0  0  0  0  0  0
    9.4651   -2.1941    0.0000 O   0  0  0  0  0  0  0  0  0  0  0  0
    7.7331   -3.1941    0.0000 O   0  0  0  0  0  0  0  0  0  0  0  0
    6.0010   -2.1941    0.0000 O   0  0  0  0  0  0  0  0  0  0  0  0
    6.0010    0.8059    0.0000 O   0  0  0  0  0  0  0  0  0  0  0  0
    6.0010   -3.1941    0.0000 O   0  0  0  0  0  0  0  0  0  0  0  0
    7.7331   -5.1941    0.0000 O   0  0  0  0  0  0  0  0  0  0  0  0
    4.2690    0.8059    0.0000 O   0  0  0  0  0  0  0  0  0  0  0  0
    6.0010   -6.1941    0.0000 O   0  0  0  0  0  0  0  0  0  0  0  0
    4.2690   -5.1941    0.0000 O   0  0  0  0  0  0  0  0  0  0  0  0
    6.0010    2.8059    0.0000 O   0  0  0  0  0  0  0  0  0  0  0  0
    4.2690    3.8059    0.0000 O   0  0  0  0  0  0  0  0  0  0  0  0
    2.5369    2.8059    0.0000 O   0  0  0  0  0  0  0  0  0  0  0  0
    5.1350   -6.6941    0.0000 O   0  0  0  0  0  0  0  0  0  0  0  0
    2.5369   -6.1941    0.0000 O   0  0  0  0  0  0  0  0  0  0  0  0
    2.5369   -8.1941    0.0000 O   0  0  0  0  0  0  0  0  0  0  0  0
    4.2690   -9.1941    0.0000 O   0  0  0  0  0  0  0  0  0  0  0  0
   10.3662    4.5061    0.0000 C   0  0  3  0  0  0  0  0  0  0  0  0
    9.5021    4.0028    0.0000 C   0  0  3  0  0  0  0  0  0  0  0  0
    9.4901    2.9612    0.0000 C   0  0  3  0  0  0  0  0  0  0  0  0
   10.3623    5.5061    0.0000 C   0  0  3  0  0  0  0  0  0  0  0  0
   10.3901    2.4369    0.0000 C   0  0  3  0  0  0  0  0  0  0  0  0
   11.2781    4.0028    0.0000 C   0  0  0  0  0  0  0  0  0  0  0  0
   11.2902    2.9612    0.0000 C   0  0  0  0  0  0  0  0  0  0  0  0
   10.4027    1.3520    0.0000 C   0  0  0  0  0  0  0  0  0  0  0  0
    9.4944    6.0027    0.0000 C   0  0  0  0  0  0  0  0  0  0  0  0
    9.4743    7.0442    0.0000 C   0  0  3  0  0  0  0  0  0  0  0  0
    8.6342    4.4994    0.0000 C   0  0  0  0  0  0  0  0  0  0  0  0
    8.5402    2.4369    0.0000 C   0  0  0  0  0  0  0  0  0  0  0  0
   11.2704    6.0164    0.0000 C   0  0  0  0  0  0  0  0  0  0  0  0
   10.3703    7.5754    0.0000 C   0  0  3  0  0  0  0  0  0  0  0  0
   11.2744    7.0580    0.0000 C   0  0  3  0  0  0  0  0  0  0  0  0
   11.3503    4.6835    0.0000 C   0  0  0  0  0  0  0  0  0  0  0  0
    9.4651    0.8059    0.0000 C   0  0  3  0  0  0  0  0  0  0  0  0
    8.6260    3.4645    0.0000 C   0  0  0  0  0  0  0  0  0  0  0  0
    8.6303    5.4994    0.0000 C   0  0  0  0  0  0  0  0  0  0  0  0
    8.5276    1.3520    0.0000 C   0  0  0  0  0  0  0  0  0  0  0  0
   11.3478    5.3362    0.0000 C   0  0  0  0  0  0  0  0  0  0  0  0
    8.5204    7.5611    0.0000 C   0  0  0  0  0  0  0  0  0  0  0  0
   10.3745    8.6604    0.0000 C   0  0  0  0  0  0  0  0  0  0  0  0
    8.4995    8.6459    0.0000 C   0  0  0  0  0  0  0  0  0  0  0  0
   11.4026    1.3597    0.0000 C   0  0  0  0  0  0  0  0  0  0  0  0
   10.9093    0.4898    0.0000 C   0  0  0  0  0  0  0  0  0  0  0  0
    9.4328    9.1992    0.0000 C   0  0  0  0  0  0  0  0  0  0  0  0
   11.2305    8.0854    0.0000 C   0  0  0  0  0  0  0  0  0  0  0  0
    7.9862    9.5041    0.0000 C   0  0  0  0  0  0  0  0  0  0  0  0
    7.4996    8.6305    0.0000 C   0  0  0  0  0  0  0  0  0  0  0  0
    8.5991   -0.6941    0.0000 C   0  0  3  0  0  0  0  0  0  0  0  0
    8.5991   -1.6941    0.0000 C   0  0  3  0  0  0  0  0  0  0  0  0
    7.7331   -2.1941    0.0000 C   0  0  3  0  0  0  0  0  0  0  0  0
    6.8671   -0.6941    0.0000 C   0  0  3  0  0  0  0  0  0  0  0  0
    6.8671   -1.6941    0.0000 C   0  0  3  0  0  0  0  0  0  0  0  0
    6.0010   -0.1941    0.0000 C   0  0  0  0  0  0  0  0  0  0  0  0
    6.8671   -3.6941    0.0000 C   0  0  3  0  0  0  0  0  0  0  0  0
    6.8671   -4.6941    0.0000 C   0  0  3  0  0  0  0  0  0  0  0  0
    5.1350    1.3059    0.0000 C   0  0  3  0  0  0  0  0  0  0  0  0
    6.0010   -5.1941    0.0000 C   0  0  3  0  0  0  0  0  0  0  0  0
    5.1350   -3.6941    0.0000 C   0  0  3  0  0  0  0  0  0  0  0  0
    5.1350   -4.6941    0.0000 C   0  0  3  0  0  0  0  0  0  0  0  0
    5.1350    2.3059    0.0000 C   0  0  3  0  0  0  0  0  0  0  0  0
    4.2690   -3.1941    0.0000 C   0  0  0  0  0  0  0  0  0  0  0  0
    4.2690    2.8059    0.0000 C   0  0  3  0  0  0  0  0  0  0  0  0
    3.4030    1.3059    0.0000 C   0  0  0  0  0  0  0  0  0  0  0  0
    3.4030    2.3059    0.0000 C   0  0  3  0  0  0  0  0  0  0  0  0
    4.2690   -6.1941    0.0000 C   0  0  3  0  0  0  0  0  0  0  0  0
    3.4030   -6.6941    0.0000 C   0  0  3  0  0  0  0  0  0  0  0  0
    3.4030   -7.6941    0.0000 C   0  0  3  0  0  0  0  0  0  0  0  0
    5.1350   -7.6941    0.0000 C   0  0  3  0  0  0  0  0  0  0  0  0
    4.2690   -8.1941    0.0000 C   0  0  3  0  0  0  0  0  0  0  0  0
    6.0010   -8.1941    0.0000 C   0  0  0  0  0  0  0  0  0  0  0  0
   10.0378    3.6907    0.0000 H   0  0  0  0  0  0  0  0  0  0  0  0
   10.9294    2.1310    0.0000 H   0  0  0  0  0  0  0  0  0  0  0  0
   11.8902    3.9037    0.0000 H   0  0  0  0  0  0  0  0  0  0  0  0
   11.4804    4.5888    0.0000 H   0  0  0  0  0  0  0  0  0  0  0  0
   11.5060    2.3800    0.0000 H   0  0  0  0  0  0  0  0  0  0  0  0
   11.8998    3.0743    0.0000 H   0  0  0  0  0  0  0  0  0  0  0  0
    8.9447    6.7218    0.0000 H   0  0  0  0  0  0  0  0  0  0  0  0
    8.0232    4.6047    0.0000 H   0  0  0  0  0  0  0  0  0  0  0  0
    8.4244    3.9160    0.0000 H   0  0  0  0  0  0  0  0  0  0  0  0
    8.3379    3.0230    0.0000 H   0  0  0  0  0  0  0  0  0  0  0  0
    7.9281    2.3379    0.0000 H   0  0  0  0  0  0  0  0  0  0  0  0
   11.4772    5.4319    0.0000 H   0  0  0  0  0  0  0  0  0  0  0  0
   11.8816    6.1202    0.0000 H   0  0  0  0  0  0  0  0  0  0  0  0
   11.4853    7.6411    0.0000 H   0  0  0  0  0  0  0  0  0  0  0  0
   11.4603    4.0734    0.0000 H   0  0  0  0  0  0  0  0  0  0  0  0
   11.9605    4.7936    0.0000 H   0  0  0  0  0  0  0  0  0  0  0  0
   11.2403    5.2937    0.0000 H   0  0  0  0  0  0  0  0  0  0  0  0
   10.0027    0.4969    0.0000 H   0  0  0  0  0  0  0  0  0  0  0  0
    8.9380    4.0003    0.0000 H   0  0  0  0  0  0  0  0  0  0  0  0
    8.0902    3.7766    0.0000 H   0  0  0  0  0  0  0  0  0  0  0  0
    8.3139    2.9288    0.0000 H   0  0  0  0  0  0  0  0  0  0  0  0
    8.0922    5.8073    0.0000 H   0  0  0  0  0  0  0  0  0  0  0  0
    7.9180    1.4651    0.0000 H   0  0  0  0  0  0  0  0  0  0  0  0
    8.3118    0.7707    0.0000 H   0  0  0  0  0  0  0  0  0  0  0  0
   11.2425    4.7252    0.0000 H   0  0  0  0  0  0  0  0  0  0  0  0
   11.9588    5.2309    0.0000 H   0  0  0  0  0  0  0  0  0  0  0  0
   11.4531    5.9472    0.0000 H   0  0  0  0  0  0  0  0  0  0  0  0
    7.9076    7.6554    0.0000 H   0  0  0  0  0  0  0  0  0  0  0  0
    8.3226    6.9735    0.0000 H   0  0  0  0  0  0  0  0  0  0  0  0
   10.9849    8.5519    0.0000 H   0  0  0  0  0  0  0  0  0  0  0  0
   10.5858    9.2433    0.0000 H   0  0  0  0  0  0  0  0  0  0  0  0
   10.3748    0.1757    0.0000 H   0  0  0  0  0  0  0  0  0  0  0  0
   11.2235   -0.0447    0.0000 H   0  0  0  0  0  0  0  0  0  0  0  0
   11.4439    0.8040    0.0000 H   0  0  0  0  0  0  0  0  0  0  0  0
   11.4074    0.7397    0.0000 H   0  0  0  0  0  0  0  0  0  0  0  0
   12.0226    1.3645    0.0000 H   0  0  0  0  0  0  0  0  0  0  0  0
   11.3979    1.9797    0.0000 H   0  0  0  0  0  0  0  0  0  0  0  0
    9.8282    9.6767    0.0000 H   0  0  0  0  0  0  0  0  0  0  0  0
    9.0300    9.6706    0.0000 H   0  0  0  0  0  0  0  0  0  0  0  0
   12.4713    6.3018    0.0000 H   0  0  0  0  0  0  0  0  0  0  0  0
    7.4900    9.2504    0.0000 H   0  0  0  0  0  0  0  0  0  0  0  0
    8.5183    9.8224    0.0000 H   0  0  0  0  0  0  0  0  0  0  0  0
    7.6680   10.0362    0.0000 H   0  0  0  0  0  0  0  0  0  0  0  0
    7.4541    9.1859    0.0000 H   0  0  0  0  0  0  0  0  0  0  0  0
    6.8797    8.6209    0.0000 H   0  0  0  0  0  0  0  0  0  0  0  0
    7.5092    8.0106    0.0000 H   0  0  0  0  0  0  0  0  0  0  0  0
    8.5991   -0.0741    0.0000 H   0  0  0  0  0  0  0  0  0  0  0  0
   11.7523    9.4015    0.0000 H   0  0  0  0  0  0  0  0  0  0  0  0
    8.5991   -2.3141    0.0000 H   0  0  0  0  0  0  0  0  0  0  0  0
    7.1962   -2.5041    0.0000 H   0  0  0  0  0  0  0  0  0  0  0  0
    6.8671   -0.0741    0.0000 H   0  0  0  0  0  0  0  0  0  0  0  0
    6.8671   -2.3141    0.0000 H   0  0  0  0  0  0  0  0  0  0  0  0
    9.4651   -2.8141    0.0000 H   0  0  0  0  0  0  0  0  0  0  0  0
    5.3905   -0.0865    0.0000 H   0  0  0  0  0  0  0  0  0  0  0  0
    5.7890   -0.7767    0.0000 H   0  0  0  0  0  0  0  0  0  0  0  0
    5.4641   -1.8841    0.0000 H   0  0  0  0  0  0  0  0  0  0  0  0
    7.4040   -4.0041    0.0000 H   0  0  0  0  0  0  0  0  0  0  0  0
    6.8671   -5.3141    0.0000 H   0  0  0  0  0  0  0  0  0  0  0  0
    5.6720    1.6159    0.0000 H   0  0  0  0  0  0  0  0  0  0  0  0
    5.4641   -5.5041    0.0000 H   0  0  0  0  0  0  0  0  0  0  0  0
    5.1350   -3.0741    0.0000 H   0  0  0  0  0  0  0  0  0  0  0  0
    5.1350   -5.3141    0.0000 H   0  0  0  0  0  0  0  0  0  0  0  0
    5.1350    2.9259    0.0000 H   0  0  0  0  0  0  0  0  0  0  0  0
    8.2700   -4.8841    0.0000 H   0  0  0  0  0  0  0  0  0  0  0  0
    4.5790   -2.6572    0.0000 H   0  0  0  0  0  0  0  0  0  0  0  0
    3.7320   -2.8841    0.0000 H   0  0  0  0  0  0  0  0  0  0  0  0
    3.9590   -3.7311    0.0000 H   0  0  0  0  0  0  0  0  0  0  0  0
    3.7320    3.1159    0.0000 H   0  0  0  0  0  0  0  0  0  0  0  0
    6.5380   -6.5041    0.0000 H   0  0  0  0  0  0  0  0  0  0  0  0
    2.7924    1.4135    0.0000 H   0  0  0  0  0  0  0  0  0  0  0  0
    3.1909    0.7233    0.0000 H   0  0  0  0  0  0  0  0  0  0  0  0
    3.9399    1.9959    0.0000 H   0  0  0  0  0  0  0  0  0  0  0  0
    6.0010    3.4259    0.0000 H   0  0  0  0  0  0  0  0  0  0  0  0
    3.7320   -5.8841    0.0000 H   0  0  0  0  0  0  0  0  0  0  0  0
    3.7320    4.1159    0.0000 H   0  0  0  0  0  0  0  0  0  0  0  0
    3.9399   -7.0041    0.0000 H   0  0  0  0  0  0  0  0  0  0  0  0
    2.0000    2.4959    0.0000 H   0  0  0  0  0  0  0  0  0  0  0  0
    3.4030   -8.3141    0.0000 H   0  0  0  0  0  0  0  0  0  0  0  0
    5.6720   -7.3841    0.0000 H   0  0  0  0  0  0  0  0  0  0  0  0
    4.8059   -8.5041    0.0000 H   0  0  0  0  0  0  0  0  0  0  0  0
    2.0000   -6.5041    0.0000 H   0  0  0  0  0  0  0  0  0  0  0  0
    5.6910   -8.7311    0.0000 H   0  0  0  0  0  0  0  0  0  0  0  0
    6.5380   -8.5041    0.0000 H   0  0  0  0  0  0  0  0  0  0  0  0
    6.3110   -7.6572    0.0000 H   0  0  0  0  0  0  0  0  0  0  0  0
    2.5369   -8.8141    0.0000 H   0  0  0  0  0  0  0  0  0  0  0  0
    4.8059   -9.5041    0.0000 H   0  0  0  0  0  0  0  0  0  0  0  0
  1 38  1  0  0  0  0
  1 52  1  0  0  0  0
  2 36  1  0  0  0  0
  2114  1  0  0  0  0
  3 49  1  0  0  0  0
  3122  1  0  0  0  0
  4 49  2  0  0  0  0
  5 52  1  0  0  0  0
  5 55  1  0  0  0  0
  6 53  1  0  0  0  0
  6127  1  0  0  0  0
  7 54  1  0  0  0  0
  7 58  1  0  0  0  0
  8 56  1  0  0  0  0
  8130  1  0  0  0  0
  9 57  1  0  0  0  0
  9 60  1  0  0  0  0
 10 58  1  0  0  0  0
 10 62  1  0  0  0  0
 11 59  1  0  0  0  0
 11138  1  0  0  0  0
 12 60  1  0  0  0  0
 12 67  1  0  0  0  0
 13 61  1  0  0  0  0
 13143  1  0  0  0  0
 14 63  1  0  0  0  0
 14 69  1  0  0  0  0
 15 64  1  0  0  0  0
 15147  1  0  0  0  0
 16 66  1  0  0  0  0
 16149  1  0  0  0  0
 17 68  1  0  0  0  0
 17151  1  0  0  0  0
 18 69  1  0  0  0  0
 18 72  1  0  0  0  0
 19 70  1  0  0  0  0
 19155  1  0  0  0  0
 20 71  1  0  0  0  0
 20159  1  0  0  0  0
 21 73  1  0  0  0  0
 21160  1  0  0  0  0
 22 23  1  0  0  0  0
 22 25  1  0  0  0  0
 22 27  1  0  0  0  0
 22 37  1  0  0  0  0
 23 24  1  0  0  0  0
 23 32  1  0  0  0  0
 23 75  1  0  0  0  0
 24 26  1  0  0  0  0
 24 33  1  0  0  0  0
 24 39  1  0  0  0  0
 25 30  1  0  0  0  0
 25 34  1  0  0  0  0
 25 42  1  0  0  0  0
 26 28  1  0  0  0  0
 26 29  1  0  0  0  0
 26 76  1  0  0  0  0
 27 28  1  0  0  0  0
 27 77  1  0  0  0  0
 27 78  1  0  0  0  0
 28 79  1  0  0  0  0
 28 80  1  0  0  0  0
 29 38  1  0  0  0  0
 29 46  1  0  0  0  0
 29 47  1  0  0  0  0
 30 31  1  0  0  0  0
 30 40  2  0  0  0  0
 31 35  1  0  0  0  0
 31 43  1  0  0  0  0
 31 81  1  0  0  0  0
 32 40  1  0  0  0  0
 32 82  1  0  0  0  0
 32 83  1  0  0  0  0
 33 41  1  0  0  0  0
 33 84  1  0  0  0  0
 33 85  1  0  0  0  0
 34 36  1  0  0  0  0
 34 86  1  0  0  0  0
 34 87  1  0  0  0  0
 35 36  1  0  0  0  0
 35 44  1  0  0  0  0
 35 49  1  0  0  0  0
 36 88  1  0  0  0  0
 37 89  1  0  0  0  0
 37 90  1  0  0  0  0
 37 91  1  0  0  0  0
 38 41  1  0  0  0  0
 38 92  1  0  0  0  0
 39 93  1  0  0  0  0
 39 94  1  0  0  0  0
 39 95  1  0  0  0  0
 40 96  1  0  0  0  0
 41 97  1  0  0  0  0
 41 98  1  0  0  0  0
 42 99  1  0  0  0  0
 42100  1  0  0  0  0
 42101  1  0  0  0  0
 43 45  1  0  0  0  0
 43102  1  0  0  0  0
 43103  1  0  0  0  0
 44 48  1  0  0  0  0
 44104  1  0  0  0  0
 44105  1  0  0  0  0
 45 48  1  0  0  0  0
 45 50  1  0  0  0  0
 45 51  1  0  0  0  0
 46109  1  0  0  0  0
 46110  1  0  0  0  0
 46111  1  0  0  0  0
 47106  1  0  0  0  0
 47107  1  0  0  0  0
 47108  1  0  0  0  0
 48112  1  0  0  0  0
 48113  1  0  0  0  0
 50116  1  0  0  0  0
 50117  1  0  0  0  0
 50118  1  0  0  0  0
 51115  1  0  0  0  0
 51119  1  0  0  0  0
 51120  1  0  0  0  0
 52 53  1  0  0  0  0
 52121  1  0  0  0  0
 53 54  1  0  0  0  0
 53123  1  0  0  0  0
 54 56  1  0  0  0  0
 54124  1  0  0  0  0
 55 56  1  0  0  0  0
 55 57  1  0  0  0  0
 55125  1  0  0  0  0
 56126  1  0  0  0  0
 57128  1  0  0  0  0
 57129  1  0  0  0  0
 58 59  1  0  0  0  0
 58131  1  0  0  0  0
 59 61  1  0  0  0  0
 59132  1  0  0  0  0
 60 64  1  0  0  0  0
 60133  1  0  0  0  0
 61 63  1  0  0  0  0
 61134  1  0  0  0  0
 62 63  1  0  0  0  0
 62 65  1  0  0  0  0
 62135  1  0  0  0  0
 63136  1  0  0  0  0
 64 66  1  0  0  0  0
 64137  1  0  0  0  0
 65139  1  0  0  0  0
 65140  1  0  0  0  0
 65141  1  0  0  0  0
 66 68  1  0  0  0  0
 66142  1  0  0  0  0
 67 68  1  0  0  0  0
 67144  1  0  0  0  0
 67145  1  0  0  0  0
 68146  1  0  0  0  0
 69 70  1  0  0  0  0
 69148  1  0  0  0  0
 70 71  1  0  0  0  0
 70150  1  0  0  0  0
 71 73  1  0  0  0  0
 71152  1  0  0  0  0
 72 73  1  0  0  0  0
 72 74  1  0  0  0  0
 72153  1  0  0  0  0
 73154  1  0  0  0  0
 74156  1  0  0  0  0
 74157  1  0  0  0  0
 74158  1  0  0  0  0
M  END
>  <PUBCHEM_COMPOUND_CID>
131752990

>  <PUBCHEM_COMPOUND_CANONICALIZED>
1

>  <PUBCHEM_CACTVS_COMPLEXITY>
2060

>  <PUBCHEM_CACTVS_HBOND_ACCEPTOR>
21

>  <PUBCHEM_CACTVS_HBOND_DONOR>
12

>  <PUBCHEM_CACTVS_ROTATABLE_BOND>
10

>  <PUBCHEM_CACTVS_SUBSKEYS>
AAADcfB8PgAAAAAAAAAAAAAAAAAAAAAAAAA0aNGiAAAAAADAAAAAGgAACAAADxSwgAMCCAAABgCIAiDSCAAAAAAgAAAACAEAAAgREBYAAQAiQAAFoAAPAAPI6PyPgAAAAAAAAADAAAYAADAAAAAAAAAAAA==

>  <PUBCHEM_IUPAC_OPENEYE_NAME>
10-[4-[3,4-dihydroxy-6-methyl-5-(3,4,5-trihydroxy-6-methyl-tetrahydropyran-2-yl)oxy-tetrahydropyran-2-yl]oxy-3,5-dihydroxy-6-[(3,4,5-trihydroxytetrahydropyran-2-yl)oxymethyl]tetrahydropyran-2-yl]oxy-5-hydroxy-2,2,6a,6b,9,9,12a-heptamethyl-1,3,4,5,6,6a,7,8,8a,10,11,12,13,14b-tetradecahydropicene-4a-carboxylic acid

>  <PUBCHEM_IUPAC_CAS_NAME>
10-[[4-[[3,4-dihydroxy-6-methyl-5-[(3,4,5-trihydroxy-6-methyl-2-oxanyl)oxy]-2-oxanyl]oxy]-3,5-dihydroxy-6-[(3,4,5-trihydroxy-2-oxanyl)oxymethyl]-2-oxanyl]oxy]-5-hydroxy-2,2,6a,6b,9,9,12a-heptamethyl-1,3,4,5,6,6a,7,8,8a,10,11,12,13,14b-tetradecahydropicene-4a-carboxylic acid

>  <PUBCHEM_IUPAC_NAME>
10-[4-[3,4-dihydroxy-6-methyl-5-(3,4,5-trihydroxy-6-methyloxan-2-yl)oxyoxan-2-yl]oxy-3,5-dihydroxy-6-[(3,4,5-trihydroxyoxan-2-yl)oxymethyl]oxan-2-yl]oxy-5-hydroxy-2,2,6a,6b,9,9,12a-heptamethyl-1,3,4,5,6,6a,7,8,8a,10,11,12,13,14b-tetradecahydropicene-4a-carboxylic acid

>  <PUBCHEM_IUPAC_SYSTEMATIC_NAME>
2,2,6a,6b,9,9,12a-heptamethyl-10-[4-[6-methyl-5-[6-methyl-3,4,5-tris(oxidanyl)oxan-2-yl]oxy-3,4-bis(oxidanyl)oxan-2-yl]oxy-3,5-bis(oxidanyl)-6-[[3,4,5-tris(oxidanyl)oxan-2-yl]oxymethyl]oxan-2-yl]oxy-5-oxidanyl-1,3,4,5,6,6a,7,8,8a,10,11,12,13,14b-tetradecahydropicene-4a-carboxylic acid

>  <PUBCHEM_IUPAC_TRADITIONAL_NAME>
10-[4-[3,4-dihydroxy-6-methyl-5-(3,4,5-trihydroxy-6-methyl-tetrahydropyran-2-yl)oxy-tetrahydropyran-2-yl]oxy-3,5-dihydroxy-6-[(3,4,5-trihydroxytetrahydropyran-2-yl)oxymethyl]tetrahydropyran-2-yl]oxy-5-hydroxy-2,2,6a,6b,9,9,12a-heptamethyl-1,3,4,5,6,6a,7,8,8a,10,11,12,13,14b-tetradecahydropicene-4a-carboxylic acid

>  <PUBCHEM_IUPAC_INCHI>
InChI=1S/C53H86O21/c1-22-32(56)35(59)38(62)44(69-22)73-41-23(2)70-45(39(63)36(41)60)74-42-34(58)27(21-68-43-37(61)33(57)26(54)20-67-43)71-46(40(42)64)72-31-13-14-50(7)28(49(31,5)6)12-15-51(8)29(50)11-10-24-25-18-48(3,4)16-17-53(25,47(65)66)30(55)19-52(24,51)9/h10,22-23,25-46,54-64H,11-21H2,1-9H3,(H,65,66)

>  <PUBCHEM_IUPAC_INCHIKEY>
URWTWFXFHITMQC-UHFFFAOYSA-N

>  <PUBCHEM_EXACT_MASS>
1058.566

>  <PUBCHEM_MOLECULAR_FORMULA>
C53H86O21

>  <PUBCHEM_MOLECULAR_WEIGHT>
1059.25

>  <PUBCHEM_OPENEYE_CAN_SMILES>
CC1C(C(C(C(O1)OC2C(OC(C(C2O)O)OC3C(C(OC(C3O)OC4CCC5(C(C4(C)C)CCC6(C5CC=C7C6(CC(C8(C7CC(CC8)(C)C)C(=O)O)O)C)C)C)COC9C(C(C(CO9)O)O)O)O)C)O)O)O

>  <PUBCHEM_OPENEYE_ISO_SMILES>
CC1C(C(C(C(O1)OC2C(OC(C(C2O)O)OC3C(C(OC(C3O)OC4CCC5(C(C4(C)C)CCC6(C5CC=C7C6(CC(C8(C7CC(CC8)(C)C)C(=O)O)O)C)C)C)COC9C(C(C(CO9)O)O)O)O)C)O)O)O

>  <PUBCHEM_CACTVS_TPSA>
334

>  <PUBCHEM_MONOISOTOPIC_WEIGHT>
1058.566

>  <PUBCHEM_TOTAL_CHARGE>
0

>  <PUBCHEM_HEAVY_ATOM_COUNT>
74

>  <PUBCHEM_ATOM_DEF_STEREO_COUNT>
0

>  <PUBCHEM_ATOM_UDEF_STEREO_COUNT>
28

>  <PUBCHEM_BOND_DEF_STEREO_COUNT>
0

>  <PUBCHEM_BOND_UDEF_STEREO_COUNT>
0

>  <PUBCHEM_ISOTOPIC_ATOM_COUNT>
0

>  <PUBCHEM_COMPONENT_COUNT>
1

>  <PUBCHEM_CACTVS_TAUTO_COUNT>
1

>  <PUBCHEM_COORDINATE_TYPE>
1
5
255

>  <PUBCHEM_BONDANNOTATIONS>
38  1  3
52  1  3
59  11  3
61  13  3
63  14  3
69  14  3
64  15  3
66  16  3
68  17  3
70  19  3
36  2  3
71  20  3
73  21  3
22  37  3
23  32  3
24  39  3
25  42  3
26  28  3
31  43  3
35  49  3
55  57  3
53  6  3
62  65  3
54  7  3
58  7  3
72  74  3
56  8  3
60  9  3

$$$$
