131751826
 OpenBabel06101807152D

 75 75  0  0  1  0  0  0  0  0999 V2000
    3.8660   -5.8450    0.0000 O   0  0  0  0  0  0  0  0  0  0  0  0
   12.5263    6.1550    0.0000 O   0  0  0  0  0  0  0  0  0  0  0  0
    3.0000   -3.3450    0.0000 C   0  0  0  0  0  0  0  0  0  0  0  0
    3.0000   -4.3450    0.0000 C   0  0  0  0  0  0  0  0  0  0  0  0
    3.8660   -4.8450    0.0000 C   0  0  3  0  0  0  0  0  0  0  0  0
    3.8660   -2.8450    0.0000 C   0  0  0  0  0  0  0  0  0  0  0  0
    4.7320   -4.3450    0.0000 C   0  0  0  0  0  0  0  0  0  0  0  0
    4.7320   -3.3450    0.0000 C   0  0  0  0  0  0  0  0  0  0  0  0
    2.0000   -3.3450    0.0000 C   0  0  0  0  0  0  0  0  0  0  0  0
    2.5000   -2.4790    0.0000 C   0  0  0  0  0  0  0  0  0  0  0  0
    3.8660   -1.8450    0.0000 C   0  0  0  0  0  0  0  0  0  0  0  0
    5.5981   -2.8450    0.0000 C   0  0  0  0  0  0  0  0  0  0  0  0
    4.7320   -1.3450    0.0000 C   0  0  0  0  0  0  0  0  0  0  0  0
    4.7320   -0.3450    0.0000 C   0  0  0  0  0  0  0  0  0  0  0  0
    3.8660    0.1550    0.0000 C   0  0  0  0  0  0  0  0  0  0  0  0
    5.5981    0.1550    0.0000 C   0  0  0  0  0  0  0  0  0  0  0  0
    6.4641   -0.3450    0.0000 C   0  0  0  0  0  0  0  0  0  0  0  0
    7.3301    0.1550    0.0000 C   0  0  0  0  0  0  0  0  0  0  0  0
    8.1962   -0.3450    0.0000 C   0  0  0  0  0  0  0  0  0  0  0  0
    8.1962   -1.3450    0.0000 C   0  0  0  0  0  0  0  0  0  0  0  0
    9.0622    0.1550    0.0000 C   0  0  0  0  0  0  0  0  0  0  0  0
    9.9282   -0.3450    0.0000 C   0  0  0  0  0  0  0  0  0  0  0  0
   10.7942    0.1550    0.0000 C   0  0  0  0  0  0  0  0  0  0  0  0
   10.7942    1.1550    0.0000 C   0  0  0  0  0  0  0  0  0  0  0  0
   11.6603    1.6550    0.0000 C   0  0  0  0  0  0  0  0  0  0  0  0
   11.6603    2.6550    0.0000 C   0  0  0  0  0  0  0  0  0  0  0  0
   12.5263    1.1550    0.0000 C   0  0  0  0  0  0  0  0  0  0  0  0
   13.3923    4.6550    0.0000 C   0  0  0  0  0  0  0  0  0  0  0  0
   12.5263    3.1550    0.0000 C   0  0  0  0  0  0  0  0  0  0  0  0
   12.5263    4.1550    0.0000 C   0  0  0  0  0  0  0  0  0  0  0  0
   14.2583    4.1550    0.0000 C   0  0  0  0  0  0  0  0  0  0  0  0
   13.3923    5.6550    0.0000 C   0  0  0  0  0  0  0  0  0  0  0  0
   14.2583    6.1550    0.0000 C   0  0  0  0  0  0  0  0  0  0  0  0
    2.3894   -4.2373    0.0000 H   0  0  0  0  0  0  0  0  0  0  0  0
    2.7880   -4.9276    0.0000 H   0  0  0  0  0  0  0  0  0  0  0  0
    4.4030   -5.1550    0.0000 H   0  0  0  0  0  0  0  0  0  0  0  0
    4.9441   -4.9276    0.0000 H   0  0  0  0  0  0  0  0  0  0  0  0
    5.3426   -4.2373    0.0000 H   0  0  0  0  0  0  0  0  0  0  0  0
    2.0000   -2.7250    0.0000 H   0  0  0  0  0  0  0  0  0  0  0  0
    3.0369   -2.1690    0.0000 H   0  0  0  0  0  0  0  0  0  0  0  0
    2.1900   -1.9420    0.0000 H   0  0  0  0  0  0  0  0  0  0  0  0
    1.9631   -2.7890    0.0000 H   0  0  0  0  0  0  0  0  0  0  0  0
    1.3800   -3.3450    0.0000 H   0  0  0  0  0  0  0  0  0  0  0  0
    2.0000   -3.9650    0.0000 H   0  0  0  0  0  0  0  0  0  0  0  0
    3.3291   -1.5350    0.0000 H   0  0  0  0  0  0  0  0  0  0  0  0
    5.9081   -3.3819    0.0000 H   0  0  0  0  0  0  0  0  0  0  0  0
    6.1350   -2.5350    0.0000 H   0  0  0  0  0  0  0  0  0  0  0  0
    5.2881   -2.3081    0.0000 H   0  0  0  0  0  0  0  0  0  0  0  0
    4.4030   -6.1550    0.0000 H   0  0  0  0  0  0  0  0  0  0  0  0
    5.2690   -1.6550    0.0000 H   0  0  0  0  0  0  0  0  0  0  0  0
    4.1760    0.6919    0.0000 H   0  0  0  0  0  0  0  0  0  0  0  0
    3.3291    0.4650    0.0000 H   0  0  0  0  0  0  0  0  0  0  0  0
    3.5560   -0.3819    0.0000 H   0  0  0  0  0  0  0  0  0  0  0  0
    5.5981    0.7750    0.0000 H   0  0  0  0  0  0  0  0  0  0  0  0
    6.4641   -0.9650    0.0000 H   0  0  0  0  0  0  0  0  0  0  0  0
    7.3301    0.7750    0.0000 H   0  0  0  0  0  0  0  0  0  0  0  0
    7.5762   -1.3450    0.0000 H   0  0  0  0  0  0  0  0  0  0  0  0
    8.1962   -1.9650    0.0000 H   0  0  0  0  0  0  0  0  0  0  0  0
    8.8162   -1.3450    0.0000 H   0  0  0  0  0  0  0  0  0  0  0  0
    9.0622    0.7750    0.0000 H   0  0  0  0  0  0  0  0  0  0  0  0
    9.9282   -0.9650    0.0000 H   0  0  0  0  0  0  0  0  0  0  0  0
   11.3312   -0.1550    0.0000 H   0  0  0  0  0  0  0  0  0  0  0  0
   10.2573    1.4650    0.0000 H   0  0  0  0  0  0  0  0  0  0  0  0
   11.1233    2.9650    0.0000 H   0  0  0  0  0  0  0  0  0  0  0  0
   12.2163    0.6181    0.0000 H   0  0  0  0  0  0  0  0  0  0  0  0
   13.0632    0.8450    0.0000 H   0  0  0  0  0  0  0  0  0  0  0  0
   12.8363    1.6919    0.0000 H   0  0  0  0  0  0  0  0  0  0  0  0
   13.0632    2.8450    0.0000 H   0  0  0  0  0  0  0  0  0  0  0  0
   11.9893    4.4650    0.0000 H   0  0  0  0  0  0  0  0  0  0  0  0
   13.9483    3.6181    0.0000 H   0  0  0  0  0  0  0  0  0  0  0  0
   14.7953    3.8450    0.0000 H   0  0  0  0  0  0  0  0  0  0  0  0
   14.5683    4.6919    0.0000 H   0  0  0  0  0  0  0  0  0  0  0  0
   14.5683    5.6181    0.0000 H   0  0  0  0  0  0  0  0  0  0  0  0
   14.7953    6.4650    0.0000 H   0  0  0  0  0  0  0  0  0  0  0  0
   13.9483    6.6919    0.0000 H   0  0  0  0  0  0  0  0  0  0  0  0
  1  5  1  0  0  0  0
  1 49  1  0  0  0  0
  2 32  2  0  0  0  0
  3  4  1  0  0  0  0
  3  6  1  0  0  0  0
  3  9  1  0  0  0  0
  3 10  1  0  0  0  0
  4  5  1  0  0  0  0
  4 34  1  0  0  0  0
  4 35  1  0  0  0  0
  5  7  1  0  0  0  0
  5 36  1  0  0  0  0
  6  8  2  0  0  0  0
  6 11  1  0  0  0  0
  7  8  1  0  0  0  0
  7 37  1  0  0  0  0
  7 38  1  0  0  0  0
  8 12  1  0  0  0  0
  9 39  1  0  0  0  0
  9 43  1  0  0  0  0
  9 44  1  0  0  0  0
 10 40  1  0  0  0  0
 10 41  1  0  0  0  0
 10 42  1  0  0  0  0
 11 13  2  0  0  0  0
 11 45  1  0  0  0  0
 12 46  1  0  0  0  0
 12 47  1  0  0  0  0
 12 48  1  0  0  0  0
 13 14  1  0  0  0  0
 13 50  1  0  0  0  0
 14 15  1  0  0  0  0
 14 16  2  0  0  0  0
 15 51  1  0  0  0  0
 15 52  1  0  0  0  0
 15 53  1  0  0  0  0
 16 17  1  0  0  0  0
 16 54  1  0  0  0  0
 17 18  2  0  0  0  0
 17 55  1  0  0  0  0
 18 19  1  0  0  0  0
 18 56  1  0  0  0  0
 19 20  1  0  0  0  0
 19 21  2  0  0  0  0
 20 57  1  0  0  0  0
 20 58  1  0  0  0  0
 20 59  1  0  0  0  0
 21 22  1  0  0  0  0
 21 60  1  0  0  0  0
 22 23  2  0  0  0  0
 22 61  1  0  0  0  0
 23 24  1  0  0  0  0
 23 62  1  0  0  0  0
 24 25  2  0  0  0  0
 24 63  1  0  0  0  0
 25 26  1  0  0  0  0
 25 27  1  0  0  0  0
 26 29  2  0  0  0  0
 26 64  1  0  0  0  0
 27 65  1  0  0  0  0
 27 66  1  0  0  0  0
 27 67  1  0  0  0  0
 28 30  2  0  0  0  0
 28 31  1  0  0  0  0
 28 32  1  0  0  0  0
 29 30  1  0  0  0  0
 29 68  1  0  0  0  0
 30 69  1  0  0  0  0
 31 70  1  0  0  0  0
 31 71  1  0  0  0  0
 31 72  1  0  0  0  0
 32 33  1  0  0  0  0
 33 73  1  0  0  0  0
 33 74  1  0  0  0  0
 33 75  1  0  0  0  0
M  END
>  <PUBCHEM_COMPOUND_CID>
131751826

>  <PUBCHEM_COMPOUND_CANONICALIZED>
1

>  <PUBCHEM_CACTVS_COMPLEXITY>
966

>  <PUBCHEM_CACTVS_HBOND_ACCEPTOR>
2

>  <PUBCHEM_CACTVS_HBOND_DONOR>
1

>  <PUBCHEM_CACTVS_ROTATABLE_BOND>
9

>  <PUBCHEM_CACTVS_SUBSKEYS>
AAADcfB4MAAAAAAAAAAAAAAAAAAAAAAAAAAgAAAAAAAAAAAAAAAAGgAACAAADhSggAICAAAAAgCIAqBSAAAAAAAgAAAICAEAAEgIEAIAAQAAQAAEwAAIgYOAgMAPAAAAAAAAAAAAAAAAAAAAAAAAAAAAAA==

>  <PUBCHEM_IUPAC_OPENEYE_NAME>
(3E,5E,7E,9Z,11E,13E,15Z,17E)-18-(4-hydroxy-2,6,6-trimethyl-cyclohexen-1-yl)-3,7,12,16-tetramethyl-octadeca-3,5,7,9,11,13,15,17-octaen-2-one

>  <PUBCHEM_IUPAC_CAS_NAME>
(3E,5E,7E,9Z,11E,13E,15Z,17E)-18-(4-hydroxy-2,6,6-trimethyl-1-cyclohexenyl)-3,7,12,16-tetramethyl-2-octadeca-3,5,7,9,11,13,15,17-octaenone

>  <PUBCHEM_IUPAC_NAME>
(3E,5E,7E,9Z,11E,13E,15Z,17E)-18-(4-hydroxy-2,6,6-trimethylcyclohexen-1-yl)-3,7,12,16-tetramethyloctadeca-3,5,7,9,11,13,15,17-octaen-2-one

>  <PUBCHEM_IUPAC_SYSTEMATIC_NAME>
(3E,5E,7E,9Z,11E,13E,15Z,17E)-3,7,12,16-tetramethyl-18-(2,6,6-trimethyl-4-oxidanyl-cyclohexen-1-yl)octadeca-3,5,7,9,11,13,15,17-octaen-2-one

>  <PUBCHEM_IUPAC_TRADITIONAL_NAME>
(3E,5E,7E,9Z,11E,13E,15Z,17E)-18-(4-hydroxy-2,6,6-trimethyl-cyclohexen-1-yl)-3,7,12,16-tetramethyl-octadeca-3,5,7,9,11,13,15,17-octaen-2-one

>  <PUBCHEM_IUPAC_INCHI>
InChI=1S/C31H42O2/c1-23(13-9-10-14-24(2)17-12-18-26(4)28(6)32)15-11-16-25(3)19-20-30-27(5)21-29(33)22-31(30,7)8/h9-20,29,33H,21-22H2,1-8H3/b10-9-,15-11+,17-12+,20-19+,23-13+,24-14+,25-16-,26-18+

>  <PUBCHEM_IUPAC_INCHIKEY>
PJAPZIZSFGWFOQ-MBEKKZSISA-N

>  <PUBCHEM_EXACT_MASS>
446.318

>  <PUBCHEM_MOLECULAR_FORMULA>
C31H42O2

>  <PUBCHEM_MOLECULAR_WEIGHT>
446.675

>  <PUBCHEM_OPENEYE_CAN_SMILES>
CC1=C(C(CC(C1)O)(C)C)C=CC(=CC=CC(=CC=CC=C(C)C=CC=C(C)C(=O)C)C)C

>  <PUBCHEM_OPENEYE_ISO_SMILES>
CC1=C(C(CC(C1)O)(C)C)/C=C/C(=C\C=C\C(=C\C=C/C=C(\C)/C=C/C=C(\C)/C(=O)C)\C)/C

>  <PUBCHEM_CACTVS_TPSA>
37.3

>  <PUBCHEM_MONOISOTOPIC_WEIGHT>
446.318

>  <PUBCHEM_TOTAL_CHARGE>
0

>  <PUBCHEM_HEAVY_ATOM_COUNT>
33

>  <PUBCHEM_ATOM_DEF_STEREO_COUNT>
0

>  <PUBCHEM_ATOM_UDEF_STEREO_COUNT>
1

>  <PUBCHEM_BOND_DEF_STEREO_COUNT>
8

>  <PUBCHEM_BOND_UDEF_STEREO_COUNT>
0

>  <PUBCHEM_ISOTOPIC_ATOM_COUNT>
0

>  <PUBCHEM_COMPONENT_COUNT>
1

>  <PUBCHEM_CACTVS_TAUTO_COUNT>
998

>  <PUBCHEM_COORDINATE_TYPE>
1
5
255

>  <PUBCHEM_BONDANNOTATIONS>
5  1  3

$$$$
