131750919
 OpenBabel06101807152D

 99102  0  0  1  0  0  0  0  0999 V2000
    6.0812   -5.5679    0.0000 O   0  0  0  0  0  0  0  0  0  0  0  0
   12.7485    5.5679    0.0000 O   0  0  0  0  0  0  0  0  0  0  0  0
    2.5369   -5.7631    0.0000 O   0  0  0  0  0  0  0  0  0  0  0  0
    5.1350   -5.2631    0.0000 C   0  0  3  0  0  0  0  0  0  0  0  0
    4.2690   -3.7631    0.0000 C   0  0  0  0  0  0  0  0  0  0  0  0
    5.1350   -4.2631    0.0000 C   0  0  0  0  0  0  0  0  0  0  0  0
   13.6947    5.2631    0.0000 C   0  0  3  0  0  0  0  0  0  0  0  0
   14.5607    3.7631    0.0000 C   0  0  0  0  0  0  0  0  0  0  0  0
    4.2690   -5.7631    0.0000 C   0  0  0  0  0  0  0  0  0  0  0  0
    3.4030   -4.2631    0.0000 C   0  0  0  0  0  0  0  0  0  0  0  0
   13.6947    4.2631    0.0000 C   0  0  0  0  0  0  0  0  0  0  0  0
    3.4030   -5.2631    0.0000 C   0  0  3  0  0  0  0  0  0  0  0  0
   14.5607    5.7631    0.0000 C   0  0  0  0  0  0  0  0  0  0  0  0
   15.4267    4.2631    0.0000 C   0  0  0  0  0  0  0  0  0  0  0  0
   15.4267    5.2631    0.0000 C   0  0  0  0  0  0  0  0  0  0  0  0
    6.0812   -3.9584    0.0000 C   0  0  0  0  0  0  0  0  0  0  0  0
    6.6648   -4.7631    0.0000 C   0  0  3  0  0  0  0  0  0  0  0  0
    5.1350   -6.2631    0.0000 C   0  0  0  0  0  0  0  0  0  0  0  0
    3.7690   -2.8971    0.0000 C   0  0  0  0  0  0  0  0  0  0  0  0
    4.7690   -2.8971    0.0000 C   0  0  0  0  0  0  0  0  0  0  0  0
   12.7485    3.9584    0.0000 C   0  0  0  0  0  0  0  0  0  0  0  0
   12.1648    4.7631    0.0000 C   0  0  3  0  0  0  0  0  0  0  0  0
   13.6947    6.2631    0.0000 C   0  0  0  0  0  0  0  0  0  0  0  0
   15.0607    2.8971    0.0000 C   0  0  0  0  0  0  0  0  0  0  0  0
   14.0607    2.8971    0.0000 C   0  0  0  0  0  0  0  0  0  0  0  0
    7.6648   -4.7631    0.0000 C   0  0  0  0  0  0  0  0  0  0  0  0
   11.1648    4.7631    0.0000 C   0  0  0  0  0  0  0  0  0  0  0  0
    8.1648   -5.6292    0.0000 C   0  0  0  0  0  0  0  0  0  0  0  0
   10.6648    5.6292    0.0000 C   0  0  0  0  0  0  0  0  0  0  0  0
    8.1648   -3.8971    0.0000 C   0  0  0  0  0  0  0  0  0  0  0  0
   10.6648    3.8971    0.0000 C   0  0  0  0  0  0  0  0  0  0  0  0
    7.6648   -3.0311    0.0000 C   0  0  0  0  0  0  0  0  0  0  0  0
   11.1648    3.0311    0.0000 C   0  0  0  0  0  0  0  0  0  0  0  0
    8.1648   -2.1651    0.0000 C   0  0  0  0  0  0  0  0  0  0  0  0
   10.6648    2.1651    0.0000 C   0  0  0  0  0  0  0  0  0  0  0  0
    9.1648   -2.1651    0.0000 C   0  0  0  0  0  0  0  0  0  0  0  0
   11.1648    1.2990    0.0000 C   0  0  0  0  0  0  0  0  0  0  0  0
    9.6648   -3.0311    0.0000 C   0  0  0  0  0  0  0  0  0  0  0  0
    9.6648   -1.2990    0.0000 C   0  0  0  0  0  0  0  0  0  0  0  0
   12.1648    1.2990    0.0000 C   0  0  0  0  0  0  0  0  0  0  0  0
   10.6648    0.4330    0.0000 C   0  0  0  0  0  0  0  0  0  0  0  0
   10.6648   -1.2990    0.0000 C   0  0  0  0  0  0  0  0  0  0  0  0
   11.1648   -0.4330    0.0000 C   0  0  0  0  0  0  0  0  0  0  0  0
    3.8705   -6.2381    0.0000 H   0  0  0  0  0  0  0  0  0  0  0  0
    4.6675   -6.2381    0.0000 H   0  0  0  0  0  0  0  0  0  0  0  0
    3.1909   -3.6805    0.0000 H   0  0  0  0  0  0  0  0  0  0  0  0
    2.7924   -4.3708    0.0000 H   0  0  0  0  0  0  0  0  0  0  0  0
    3.4030   -5.8831    0.0000 H   0  0  0  0  0  0  0  0  0  0  0  0
   14.9592    6.2381    0.0000 H   0  0  0  0  0  0  0  0  0  0  0  0
   14.1622    6.2381    0.0000 H   0  0  0  0  0  0  0  0  0  0  0  0
   15.6388    3.6805    0.0000 H   0  0  0  0  0  0  0  0  0  0  0  0
   16.0373    4.3708    0.0000 H   0  0  0  0  0  0  0  0  0  0  0  0
   16.0373    5.1555    0.0000 H   0  0  0  0  0  0  0  0  0  0  0  0
   15.6388    5.8458    0.0000 H   0  0  0  0  0  0  0  0  0  0  0  0
    6.2738   -3.3691    0.0000 H   0  0  0  0  0  0  0  0  0  0  0  0
    6.9466   -5.3154    0.0000 H   0  0  0  0  0  0  0  0  0  0  0  0
    4.5150   -6.2631    0.0000 H   0  0  0  0  0  0  0  0  0  0  0  0
    5.1350   -6.8831    0.0000 H   0  0  0  0  0  0  0  0  0  0  0  0
    5.7550   -6.2631    0.0000 H   0  0  0  0  0  0  0  0  0  0  0  0
    5.3059   -3.2071    0.0000 H   0  0  0  0  0  0  0  0  0  0  0  0
    5.0790   -2.3602    0.0000 H   0  0  0  0  0  0  0  0  0  0  0  0
    4.2320   -2.5871    0.0000 H   0  0  0  0  0  0  0  0  0  0  0  0
    4.3059   -2.5871    0.0000 H   0  0  0  0  0  0  0  0  0  0  0  0
    3.4590   -2.3602    0.0000 H   0  0  0  0  0  0  0  0  0  0  0  0
    3.2320   -3.2071    0.0000 H   0  0  0  0  0  0  0  0  0  0  0  0
   12.5558    3.3691    0.0000 H   0  0  0  0  0  0  0  0  0  0  0  0
   11.8831    5.3154    0.0000 H   0  0  0  0  0  0  0  0  0  0  0  0
   14.3147    6.2631    0.0000 H   0  0  0  0  0  0  0  0  0  0  0  0
   13.6947    6.8831    0.0000 H   0  0  0  0  0  0  0  0  0  0  0  0
   13.0747    6.2631    0.0000 H   0  0  0  0  0  0  0  0  0  0  0  0
   13.5238    3.2071    0.0000 H   0  0  0  0  0  0  0  0  0  0  0  0
   13.7507    2.3602    0.0000 H   0  0  0  0  0  0  0  0  0  0  0  0
   14.5976    2.5871    0.0000 H   0  0  0  0  0  0  0  0  0  0  0  0
   14.5238    2.5871    0.0000 H   0  0  0  0  0  0  0  0  0  0  0  0
   15.3707    2.3602    0.0000 H   0  0  0  0  0  0  0  0  0  0  0  0
   15.5976    3.2071    0.0000 H   0  0  0  0  0  0  0  0  0  0  0  0
    2.0000   -5.4531    0.0000 H   0  0  0  0  0  0  0  0  0  0  0  0
    7.6279   -5.9392    0.0000 H   0  0  0  0  0  0  0  0  0  0  0  0
    8.4748   -6.1661    0.0000 H   0  0  0  0  0  0  0  0  0  0  0  0
    8.7018   -5.3192    0.0000 H   0  0  0  0  0  0  0  0  0  0  0  0
   11.2018    5.9392    0.0000 H   0  0  0  0  0  0  0  0  0  0  0  0
   10.3548    6.1661    0.0000 H   0  0  0  0  0  0  0  0  0  0  0  0
   10.1279    5.3192    0.0000 H   0  0  0  0  0  0  0  0  0  0  0  0
    8.7848   -3.8971    0.0000 H   0  0  0  0  0  0  0  0  0  0  0  0
   10.0448    3.8971    0.0000 H   0  0  0  0  0  0  0  0  0  0  0  0
    7.0448   -3.0311    0.0000 H   0  0  0  0  0  0  0  0  0  0  0  0
   11.7848    3.0311    0.0000 H   0  0  0  0  0  0  0  0  0  0  0  0
    7.8548   -1.6281    0.0000 H   0  0  0  0  0  0  0  0  0  0  0  0
   10.0448    2.1651    0.0000 H   0  0  0  0  0  0  0  0  0  0  0  0
    9.1279   -3.3411    0.0000 H   0  0  0  0  0  0  0  0  0  0  0  0
    9.9748   -3.5680    0.0000 H   0  0  0  0  0  0  0  0  0  0  0  0
   10.2018   -2.7211    0.0000 H   0  0  0  0  0  0  0  0  0  0  0  0
    9.3548   -0.7621    0.0000 H   0  0  0  0  0  0  0  0  0  0  0  0
   12.1648    0.6790    0.0000 H   0  0  0  0  0  0  0  0  0  0  0  0
   12.7848    1.2990    0.0000 H   0  0  0  0  0  0  0  0  0  0  0  0
   12.1648    1.9190    0.0000 H   0  0  0  0  0  0  0  0  0  0  0  0
   10.0448    0.4330    0.0000 H   0  0  0  0  0  0  0  0  0  0  0  0
   10.9748   -1.8360    0.0000 H   0  0  0  0  0  0  0  0  0  0  0  0
   11.7848   -0.4330    0.0000 H   0  0  0  0  0  0  0  0  0  0  0  0
  1  4  1  0  0  0  0
  1 17  1  0  0  0  0
  2  7  1  0  0  0  0
  2 22  1  0  0  0  0
  3 12  1  0  0  0  0
  3 77  1  0  0  0  0
  4  6  1  0  0  0  0
  4  9  1  0  0  0  0
  4 18  1  0  0  0  0
  5  6  1  0  0  0  0
  5 10  1  0  0  0  0
  5 19  1  0  0  0  0
  5 20  1  0  0  0  0
  6 16  2  0  0  0  0
  7 11  1  0  0  0  0
  7 13  1  0  0  0  0
  7 23  1  0  0  0  0
  8 11  1  0  0  0  0
  8 14  1  0  0  0  0
  8 24  1  0  0  0  0
  8 25  1  0  0  0  0
  9 12  1  0  0  0  0
  9 44  1  0  0  0  0
  9 45  1  0  0  0  0
 10 12  1  0  0  0  0
 10 46  1  0  0  0  0
 10 47  1  0  0  0  0
 11 21  2  0  0  0  0
 12 48  1  0  0  0  0
 13 15  1  0  0  0  0
 13 49  1  0  0  0  0
 13 50  1  0  0  0  0
 14 15  1  0  0  0  0
 14 51  1  0  0  0  0
 14 52  1  0  0  0  0
 15 53  1  0  0  0  0
 15 54  1  0  0  0  0
 16 17  1  0  0  0  0
 16 55  1  0  0  0  0
 17 26  1  0  0  0  0
 17 56  1  0  0  0  0
 18 57  1  0  0  0  0
 18 58  1  0  0  0  0
 18 59  1  0  0  0  0
 19 63  1  0  0  0  0
 19 64  1  0  0  0  0
 19 65  1  0  0  0  0
 20 60  1  0  0  0  0
 20 61  1  0  0  0  0
 20 62  1  0  0  0  0
 21 22  1  0  0  0  0
 21 66  1  0  0  0  0
 22 27  1  0  0  0  0
 22 67  1  0  0  0  0
 23 68  1  0  0  0  0
 23 69  1  0  0  0  0
 23 70  1  0  0  0  0
 24 74  1  0  0  0  0
 24 75  1  0  0  0  0
 24 76  1  0  0  0  0
 25 71  1  0  0  0  0
 25 72  1  0  0  0  0
 25 73  1  0  0  0  0
 26 28  1  0  0  0  0
 26 30  2  0  0  0  0
 27 29  1  0  0  0  0
 27 31  2  0  0  0  0
 28 78  1  0  0  0  0
 28 79  1  0  0  0  0
 28 80  1  0  0  0  0
 29 81  1  0  0  0  0
 29 82  1  0  0  0  0
 29 83  1  0  0  0  0
 30 32  1  0  0  0  0
 30 84  1  0  0  0  0
 31 33  1  0  0  0  0
 31 85  1  0  0  0  0
 32 34  2  0  0  0  0
 32 86  1  0  0  0  0
 33 35  2  0  0  0  0
 33 87  1  0  0  0  0
 34 36  1  0  0  0  0
 34 88  1  0  0  0  0
 35 37  1  0  0  0  0
 35 89  1  0  0  0  0
 36 38  1  0  0  0  0
 36 39  2  0  0  0  0
 37 40  1  0  0  0  0
 37 41  2  0  0  0  0
 38 90  1  0  0  0  0
 38 91  1  0  0  0  0
 38 92  1  0  0  0  0
 39 42  1  0  0  0  0
 39 93  1  0  0  0  0
 40 94  1  0  0  0  0
 40 95  1  0  0  0  0
 40 96  1  0  0  0  0
 41 43  1  0  0  0  0
 41 97  1  0  0  0  0
 42 43  2  0  0  0  0
 42 98  1  0  0  0  0
 43 99  1  0  0  0  0
M  END
>  <PUBCHEM_COMPOUND_CID>
131750919

>  <PUBCHEM_COMPOUND_CANONICALIZED>
1

>  <PUBCHEM_CACTVS_COMPLEXITY>
1340

>  <PUBCHEM_CACTVS_HBOND_ACCEPTOR>
3

>  <PUBCHEM_CACTVS_HBOND_DONOR>
1

>  <PUBCHEM_CACTVS_ROTATABLE_BOND>
8

>  <PUBCHEM_CACTVS_SUBSKEYS>
AAADcfB8MAAAAAAAAAAAAAAAAAAAAQIAAAAwYAAAAAAAAEAAAAAAGgAACAAADlSggAICAAAABgCAAiBCAAAAAAAgAAAICAAAAAgIFAIAIQACUAAFgAAIoAOA4FwPAAAAAAAAAAAAAAYQAAAAAAAAAAAAAA==

>  <PUBCHEM_IUPAC_OPENEYE_NAME>
2-[(1Z,3Z,5E,7Z,9E,11E,13Z)-14-(4,4,7a-trimethyl-2,5,6,7-tetrahydrobenzofuran-2-yl)-1,5,10-trimethyl-pentadeca-1,3,5,7,9,11,13-heptaenyl]-4,4,7a-trimethyl-2,5,6,7-tetrahydrobenzofuran-6-ol

>  <PUBCHEM_IUPAC_CAS_NAME>
2-[(2Z,4Z,6E,8Z,10E,12E,14Z)-15-(4,4,7a-trimethyl-2,5,6,7-tetrahydrobenzofuran-2-yl)-6,11-dimethylhexadeca-2,4,6,8,10,12,14-heptaen-2-yl]-4,4,7a-trimethyl-2,5,6,7-tetrahydrobenzofuran-6-ol

>  <PUBCHEM_IUPAC_NAME>
2-[(2Z,4Z,6E,8Z,10E,12E,14Z)-15-(4,4,7a-trimethyl-2,5,6,7-tetrahydro-1-benzofuran-2-yl)-6,11-dimethylhexadeca-2,4,6,8,10,12,14-heptaen-2-yl]-4,4,7a-trimethyl-2,5,6,7-tetrahydro-1-benzofuran-6-ol

>  <PUBCHEM_IUPAC_SYSTEMATIC_NAME>
2-[(2Z,4Z,6E,8Z,10E,12E,14Z)-15-(4,4,7a-trimethyl-2,5,6,7-tetrahydro-1-benzofuran-2-yl)-6,11-dimethyl-hexadeca-2,4,6,8,10,12,14-heptaen-2-yl]-4,4,7a-trimethyl-2,5,6,7-tetrahydro-1-benzofuran-6-ol

>  <PUBCHEM_IUPAC_TRADITIONAL_NAME>
2-[(1Z,3Z,5E,7Z,9E,11E,13Z)-14-(4,4,7a-trimethyl-2,5,6,7-tetrahydrobenzofuran-2-yl)-1,5,10-trimethyl-pentadeca-1,3,5,7,9,11,13-heptaenyl]-4,4,7a-trimethyl-2,5,6,7-tetrahydrobenzofuran-6-ol

>  <PUBCHEM_IUPAC_INCHI>
InChI=1S/C40H56O3/c1-28(18-13-20-30(3)33-24-35-37(5,6)22-15-23-39(35,9)42-33)16-11-12-17-29(2)19-14-21-31(4)34-25-36-38(7,8)26-32(41)27-40(36,10)43-34/h11-14,16-21,24-25,32-34,41H,15,22-23,26-27H2,1-10H3/b12-11-,18-13+,19-14-,28-16+,29-17+,30-20-,31-21-

>  <PUBCHEM_IUPAC_INCHIKEY>
KCYOZNARADAZIZ-IKRNEZJGSA-N

>  <PUBCHEM_EXACT_MASS>
584.423

>  <PUBCHEM_MOLECULAR_FORMULA>
C40H56O3

>  <PUBCHEM_MOLECULAR_WEIGHT>
584.885

>  <PUBCHEM_OPENEYE_CAN_SMILES>
CC(=CC=CC=C(C)C=CC=C(C)C1C=C2C(CC(CC2(O1)C)O)(C)C)C=CC=C(C)C3C=C4C(CCCC4(O3)C)(C)C

>  <PUBCHEM_OPENEYE_ISO_SMILES>
C/C(=C\C=C/C=C(\C)/C=C\C=C(\C)/C1C=C2C(CC(CC2(O1)C)O)(C)C)/C=C/C=C(/C)\C3C=C4C(CCCC4(O3)C)(C)C

>  <PUBCHEM_CACTVS_TPSA>
38.7

>  <PUBCHEM_MONOISOTOPIC_WEIGHT>
584.423

>  <PUBCHEM_TOTAL_CHARGE>
0

>  <PUBCHEM_HEAVY_ATOM_COUNT>
43

>  <PUBCHEM_ATOM_DEF_STEREO_COUNT>
0

>  <PUBCHEM_ATOM_UDEF_STEREO_COUNT>
5

>  <PUBCHEM_BOND_DEF_STEREO_COUNT>
7

>  <PUBCHEM_BOND_UDEF_STEREO_COUNT>
0

>  <PUBCHEM_ISOTOPIC_ATOM_COUNT>
0

>  <PUBCHEM_COMPONENT_COUNT>
1

>  <PUBCHEM_CACTVS_TAUTO_COUNT>
32

>  <PUBCHEM_COORDINATE_TYPE>
1
5
255

>  <PUBCHEM_BONDANNOTATIONS>
17  26  3
22  27  3
12  3  3
4  18  3
7  23  3

$$$$
