131751516
 OpenBabel06101807152D

114118  0  0  1  0  0  0  0  0999 V2000
    6.0010    5.4381    0.0000 O   0  0  0  0  0  0  0  0  0  0  0  0
    3.4030    6.9381    0.0000 O   0  0  0  0  0  0  0  0  0  0  0  0
    5.1350    7.9381    0.0000 O   0  0  0  0  0  0  0  0  0  0  0  0
    3.4030    4.9381    0.0000 O   0  0  0  0  0  0  0  0  0  0  0  0
    4.2690   -9.5619    0.0000 O   0  0  0  0  0  0  0  0  0  0  0  0
    2.5369  -11.5619    0.0000 O   0  0  0  0  0  0  0  0  0  0  0  0
    4.2690  -12.5619    0.0000 O   0  0  0  0  0  0  0  0  0  0  0  0
    6.0089    8.4864    0.0000 O   0  0  0  0  0  0  0  0  0  0  0  0
    6.0010  -11.5619    0.0000 O   0  0  0  0  0  0  0  0  0  0  0  0
    7.7788    5.4208    0.0000 O   0  0  0  0  0  0  0  0  0  0  0  0
    6.0010   -9.5619    0.0000 O   0  0  0  0  0  0  0  0  0  0  0  0
    4.2690    2.4381    0.0000 O   0  0  0  0  0  0  0  0  0  0  0  0
    9.5112    8.4968    0.0000 O   0  0  0  0  0  0  0  0  0  0  0  0
    3.4030    3.9381    0.0000 O   0  0  0  0  0  0  0  0  0  0  0  0
    2.5369   -8.5619    0.0000 O   0  0  0  0  0  0  0  0  0  0  0  0
    6.9073    9.9867    0.0000 O   0  0  0  0  0  0  0  0  0  0  0  0
    5.1350   -8.0619    0.0000 O   0  0  0  0  0  0  0  0  0  0  0  0
    9.5076   12.5660    0.0000 O   0  0  0  0  0  0  0  0  0  0  0  0
   11.2854   11.5487    0.0000 O   0  0  0  0  0  0  0  0  0  0  0  0
    4.2690    6.4381    0.0000 C   0  0  3  0  0  0  0  0  0  0  0  0
    5.1350    6.9381    0.0000 C   0  0  3  0  0  0  0  0  0  0  0  0
    4.2690    5.4381    0.0000 C   0  0  3  0  0  0  0  0  0  0  0  0
    6.0010    6.4381    0.0000 C   0  0  3  0  0  0  0  0  0  0  0  0
    5.1350    4.9381    0.0000 C   0  0  3  0  0  0  0  0  0  0  0  0
    6.8671    6.9381    0.0000 C   0  0  0  0  0  0  0  0  0  0  0  0
    5.1350    3.9381    0.0000 C   0  0  0  0  0  0  0  0  0  0  0  0
    3.4030  -11.0619    0.0000 C   0  0  3  0  0  0  0  0  0  0  0  0
    4.2690  -11.5619    0.0000 C   0  0  3  0  0  0  0  0  0  0  0  0
    6.8711    7.9797    0.0000 C   0  0  0  0  0  0  0  0  0  0  0  0
    3.4030  -10.0619    0.0000 C   0  0  3  0  0  0  0  0  0  0  0  0
    5.1350  -11.0619    0.0000 C   0  0  3  0  0  0  0  0  0  0  0  0
    7.7711    6.4208    0.0000 C   0  0  0  0  0  0  0  0  0  0  0  0
    5.1350  -10.0619    0.0000 C   0  0  3  0  0  0  0  0  0  0  0  0
    4.2690    3.4381    0.0000 C   0  0  0  0  0  0  0  0  0  0  0  0
    7.7791    8.4901    0.0000 C   0  0  0  0  0  0  0  0  0  0  0  0
    8.6671    6.9520    0.0000 C   0  0  0  0  0  0  0  0  0  0  0  0
    8.6471    7.9934    0.0000 C   0  0  0  0  0  0  0  0  0  0  0  0
    2.5369   -9.5619    0.0000 C   0  0  0  0  0  0  0  0  0  0  0  0
    7.7753    9.4901    0.0000 C   0  0  0  0  0  0  0  0  0  0  0  0
    8.6394    9.9934    0.0000 C   0  0  0  0  0  0  0  0  0  0  0  0
    9.5073    9.4968    0.0000 C   0  0  0  0  0  0  0  0  0  0  0  0
    3.4030    1.9381    0.0000 C   0  0  0  0  0  0  0  0  0  0  0  0
    8.6193   11.0349    0.0000 C   0  0  0  0  0  0  0  0  0  0  0  0
    6.0010   -8.5619    0.0000 C   0  0  0  0  0  0  0  0  0  0  0  0
   10.4153   10.0071    0.0000 C   0  0  0  0  0  0  0  0  0  0  0  0
    9.5153   11.5661    0.0000 C   0  0  0  0  0  0  0  0  0  0  0  0
   10.4194   11.0487    0.0000 C   0  0  0  0  0  0  0  0  0  0  0  0
    6.8671   -8.0619    0.0000 C   0  0  0  0  0  0  0  0  0  0  0  0
    2.5369    2.4381    0.0000 C   0  0  0  0  0  0  0  0  0  0  0  0
    3.4030    0.9381    0.0000 C   0  0  0  0  0  0  0  0  0  0  0  0
    7.7331   -8.5619    0.0000 C   0  0  0  0  0  0  0  0  0  0  0  0
    6.8671   -7.0619    0.0000 C   0  0  0  0  0  0  0  0  0  0  0  0
    2.5369    0.4381    0.0000 C   0  0  0  0  0  0  0  0  0  0  0  0
    6.0010   -6.5619    0.0000 C   0  0  0  0  0  0  0  0  0  0  0  0
    2.5369   -0.5619    0.0000 C   0  0  0  0  0  0  0  0  0  0  0  0
    6.0010   -5.5619    0.0000 C   0  0  0  0  0  0  0  0  0  0  0  0
    3.4030   -1.0619    0.0000 C   0  0  0  0  0  0  0  0  0  0  0  0
    5.1350   -5.0619    0.0000 C   0  0  0  0  0  0  0  0  0  0  0  0
    4.2690   -0.5619    0.0000 C   0  0  0  0  0  0  0  0  0  0  0  0
    3.4030   -2.0619    0.0000 C   0  0  0  0  0  0  0  0  0  0  0  0
    5.1350   -4.0619    0.0000 C   0  0  0  0  0  0  0  0  0  0  0  0
    4.2690   -5.5619    0.0000 C   0  0  0  0  0  0  0  0  0  0  0  0
    4.2690   -2.5619    0.0000 C   0  0  0  0  0  0  0  0  0  0  0  0
    4.2690   -3.5619    0.0000 C   0  0  0  0  0  0  0  0  0  0  0  0
    4.2690    7.0581    0.0000 H   0  0  0  0  0  0  0  0  0  0  0  0
    5.6720    7.2481    0.0000 H   0  0  0  0  0  0  0  0  0  0  0  0
    4.2690    4.8181    0.0000 H   0  0  0  0  0  0  0  0  0  0  0  0
    6.5380    6.1281    0.0000 H   0  0  0  0  0  0  0  0  0  0  0  0
    5.6720    4.6281    0.0000 H   0  0  0  0  0  0  0  0  0  0  0  0
    5.3471    3.3555    0.0000 H   0  0  0  0  0  0  0  0  0  0  0  0
    5.7456    4.0458    0.0000 H   0  0  0  0  0  0  0  0  0  0  0  0
    3.4030  -11.6819    0.0000 H   0  0  0  0  0  0  0  0  0  0  0  0
    3.7320  -11.8719    0.0000 H   0  0  0  0  0  0  0  0  0  0  0  0
    2.8660    6.6281    0.0000 H   0  0  0  0  0  0  0  0  0  0  0  0
    4.5981    8.2481    0.0000 H   0  0  0  0  0  0  0  0  0  0  0  0
    2.8660    5.2481    0.0000 H   0  0  0  0  0  0  0  0  0  0  0  0
    3.4030   -9.4419    0.0000 H   0  0  0  0  0  0  0  0  0  0  0  0
    5.1350  -11.6819    0.0000 H   0  0  0  0  0  0  0  0  0  0  0  0
    5.1350   -9.4419    0.0000 H   0  0  0  0  0  0  0  0  0  0  0  0
    9.2088    6.6503    0.0000 H   0  0  0  0  0  0  0  0  0  0  0  0
    1.9264   -9.4542    0.0000 H   0  0  0  0  0  0  0  0  0  0  0  0
    2.3249  -10.1445    0.0000 H   0  0  0  0  0  0  0  0  0  0  0  0
    2.0000  -11.2519    0.0000 H   0  0  0  0  0  0  0  0  0  0  0  0
    3.7320  -12.8719    0.0000 H   0  0  0  0  0  0  0  0  0  0  0  0
    6.0137    9.1064    0.0000 H   0  0  0  0  0  0  0  0  0  0  0  0
    6.5380  -11.2519    0.0000 H   0  0  0  0  0  0  0  0  0  0  0  0
    8.3182    5.1150    0.0000 H   0  0  0  0  0  0  0  0  0  0  0  0
    2.0000   -8.2519    0.0000 H   0  0  0  0  0  0  0  0  0  0  0  0
    8.0776   11.3365    0.0000 H   0  0  0  0  0  0  0  0  0  0  0  0
   10.9499    9.6930    0.0000 H   0  0  0  0  0  0  0  0  0  0  0  0
    2.8469    2.9750    0.0000 H   0  0  0  0  0  0  0  0  0  0  0  0
    2.0000    2.7481    0.0000 H   0  0  0  0  0  0  0  0  0  0  0  0
    2.2269    1.9012    0.0000 H   0  0  0  0  0  0  0  0  0  0  0  0
    3.9399    0.6281    0.0000 H   0  0  0  0  0  0  0  0  0  0  0  0
    7.4231   -9.0988    0.0000 H   0  0  0  0  0  0  0  0  0  0  0  0
    8.2700   -8.8719    0.0000 H   0  0  0  0  0  0  0  0  0  0  0  0
    8.0431   -8.0250    0.0000 H   0  0  0  0  0  0  0  0  0  0  0  0
    7.4040   -6.7519    0.0000 H   0  0  0  0  0  0  0  0  0  0  0  0
    8.9683   12.8719    0.0000 H   0  0  0  0  0  0  0  0  0  0  0  0
    2.0000    0.7481    0.0000 H   0  0  0  0  0  0  0  0  0  0  0  0
   11.8223   11.2387    0.0000 H   0  0  0  0  0  0  0  0  0  0  0  0
    5.4641   -6.8719    0.0000 H   0  0  0  0  0  0  0  0  0  0  0  0
    2.0000   -0.8719    0.0000 H   0  0  0  0  0  0  0  0  0  0  0  0
    6.5380   -5.2519    0.0000 H   0  0  0  0  0  0  0  0  0  0  0  0
    4.5790   -1.0988    0.0000 H   0  0  0  0  0  0  0  0  0  0  0  0
    4.8059   -0.2519    0.0000 H   0  0  0  0  0  0  0  0  0  0  0  0
    3.9590   -0.0249    0.0000 H   0  0  0  0  0  0  0  0  0  0  0  0
    2.8660   -2.3719    0.0000 H   0  0  0  0  0  0  0  0  0  0  0  0
    5.6720   -3.7519    0.0000 H   0  0  0  0  0  0  0  0  0  0  0  0
    3.9590   -5.0249    0.0000 H   0  0  0  0  0  0  0  0  0  0  0  0
    3.7320   -5.8719    0.0000 H   0  0  0  0  0  0  0  0  0  0  0  0
    4.5790   -6.0988    0.0000 H   0  0  0  0  0  0  0  0  0  0  0  0
    4.8059   -2.2519    0.0000 H   0  0  0  0  0  0  0  0  0  0  0  0
    3.7320   -3.8719    0.0000 H   0  0  0  0  0  0  0  0  0  0  0  0
  1 23  1  0  0  0  0
  1 24  1  0  0  0  0
  2 20  1  0  0  0  0
  2 74  1  0  0  0  0
  3 21  1  0  0  0  0
  3 75  1  0  0  0  0
  4 22  1  0  0  0  0
  4 76  1  0  0  0  0
  5 30  1  0  0  0  0
  5 33  1  0  0  0  0
  6 27  1  0  0  0  0
  6 83  1  0  0  0  0
  7 28  1  0  0  0  0
  7 84  1  0  0  0  0
  8 29  1  0  0  0  0
  8 85  1  0  0  0  0
  9 31  1  0  0  0  0
  9 86  1  0  0  0  0
 10 32  1  0  0  0  0
 10 87  1  0  0  0  0
 11 33  1  0  0  0  0
 11 44  1  0  0  0  0
 12 34  1  0  0  0  0
 12 42  1  0  0  0  0
 13 37  1  0  0  0  0
 13 41  1  0  0  0  0
 14 34  2  0  0  0  0
 15 38  1  0  0  0  0
 15 88  1  0  0  0  0
 16 39  2  0  0  0  0
 17 44  2  0  0  0  0
 18 46  1  0  0  0  0
 18 99  1  0  0  0  0
 19 47  1  0  0  0  0
 19101  1  0  0  0  0
 20 21  1  0  0  0  0
 20 22  1  0  0  0  0
 20 65  1  0  0  0  0
 21 23  1  0  0  0  0
 21 66  1  0  0  0  0
 22 24  1  0  0  0  0
 22 67  1  0  0  0  0
 23 25  1  0  0  0  0
 23 68  1  0  0  0  0
 24 26  1  0  0  0  0
 24 69  1  0  0  0  0
 25 29  2  0  0  0  0
 25 32  1  0  0  0  0
 26 34  1  0  0  0  0
 26 70  1  0  0  0  0
 26 71  1  0  0  0  0
 27 28  1  0  0  0  0
 27 30  1  0  0  0  0
 27 72  1  0  0  0  0
 28 31  1  0  0  0  0
 28 73  1  0  0  0  0
 29 35  1  0  0  0  0
 30 38  1  0  0  0  0
 30 77  1  0  0  0  0
 31 33  1  0  0  0  0
 31 78  1  0  0  0  0
 32 36  2  0  0  0  0
 33 79  1  0  0  0  0
 35 37  2  0  0  0  0
 35 39  1  0  0  0  0
 36 37  1  0  0  0  0
 36 80  1  0  0  0  0
 38 81  1  0  0  0  0
 38 82  1  0  0  0  0
 39 40  1  0  0  0  0
 40 41  1  0  0  0  0
 40 43  2  0  0  0  0
 41 45  2  0  0  0  0
 42 49  1  0  0  0  0
 42 50  2  0  0  0  0
 43 46  1  0  0  0  0
 43 89  1  0  0  0  0
 44 48  1  0  0  0  0
 45 47  1  0  0  0  0
 45 90  1  0  0  0  0
 46 47  2  0  0  0  0
 48 51  1  0  0  0  0
 48 52  2  0  0  0  0
 49 91  1  0  0  0  0
 49 92  1  0  0  0  0
 49 93  1  0  0  0  0
 50 53  1  0  0  0  0
 50 94  1  0  0  0  0
 51 95  1  0  0  0  0
 51 96  1  0  0  0  0
 51 97  1  0  0  0  0
 52 54  1  0  0  0  0
 52 98  1  0  0  0  0
 53 55  2  0  0  0  0
 53100  1  0  0  0  0
 54 56  2  0  0  0  0
 54102  1  0  0  0  0
 55 57  1  0  0  0  0
 55103  1  0  0  0  0
 56 58  1  0  0  0  0
 56104  1  0  0  0  0
 57 59  1  0  0  0  0
 57 60  2  0  0  0  0
 58 61  2  0  0  0  0
 58 62  1  0  0  0  0
 59105  1  0  0  0  0
 59106  1  0  0  0  0
 59107  1  0  0  0  0
 60 63  1  0  0  0  0
 60108  1  0  0  0  0
 61 64  1  0  0  0  0
 61109  1  0  0  0  0
 62110  1  0  0  0  0
 62111  1  0  0  0  0
 62112  1  0  0  0  0
 63 64  2  0  0  0  0
 63113  1  0  0  0  0
 64114  1  0  0  0  0
M  END
>  <PUBCHEM_COMPOUND_CID>
131751516

>  <PUBCHEM_COMPOUND_CANONICALIZED>
1

>  <PUBCHEM_CACTVS_COMPLEXITY>
1870

>  <PUBCHEM_CACTVS_HBOND_ACCEPTOR>
19

>  <PUBCHEM_CACTVS_HBOND_DONOR>
11

>  <PUBCHEM_CACTVS_ROTATABLE_BOND>
15

>  <PUBCHEM_CACTVS_SUBSKEYS>
AAADcfB8PgAAAAAAAAAAAAAAAAAAAAAAAAA0aJECAAAAAACRQAAAGgAACAAADBSwmAMyDoAABgCIAqDSCAACCAAkIAAIiAEGiMgdNzaGNRqieWGl4BUPuYfK7PzOIQADCAAIQABCAAYQABCAAAAAAAAAAA==

>  <PUBCHEM_IUPAC_OPENEYE_NAME>
[3,4,5-trihydroxy-6-(hydroxymethyl)tetrahydropyran-2-yl] (2Z,4E,6E,8E,10E,12Z,14E)-2,6,11-trimethyl-15-[2-[3,4,5-trihydroxy-6-(1,3,6,7-tetrahydroxy-9-oxo-xanthen-2-yl)tetrahydropyran-2-yl]acetyl]oxy-hexadeca-2,4,6,8,10,12,14-heptaenoate

>  <PUBCHEM_IUPAC_CAS_NAME>
(2Z,4E,6E,8E,10E,12Z,14E)-2,6,11-trimethyl-15-[1-oxo-2-[3,4,5-trihydroxy-6-(1,3,6,7-tetrahydroxy-9-oxo-2-xanthenyl)-2-oxanyl]ethoxy]hexadeca-2,4,6,8,10,12,14-heptaenoic acid [3,4,5-trihydroxy-6-(hydroxymethyl)-2-oxanyl] ester

>  <PUBCHEM_IUPAC_NAME>
[3,4,5-trihydroxy-6-(hydroxymethyl)oxan-2-yl] (2Z,4E,6E,8E,10E,12Z,14E)-2,6,11-trimethyl-15-[2-[3,4,5-trihydroxy-6-(1,3,6,7-tetrahydroxy-9-oxoxanthen-2-yl)oxan-2-yl]acetyl]oxyhexadeca-2,4,6,8,10,12,14-heptaenoate

>  <PUBCHEM_IUPAC_SYSTEMATIC_NAME>
[6-(hydroxymethyl)-3,4,5-tris(oxidanyl)oxan-2-yl] (2Z,4E,6E,8E,10E,12Z,14E)-2,6,11-trimethyl-15-[2-[3,4,5-tris(oxidanyl)-6-[1,3,6,7-tetrakis(oxidanyl)-9-oxidanylidene-xanthen-2-yl]oxan-2-yl]ethanoyloxy]hexadeca-2,4,6,8,10,12,14-heptaenoate

>  <PUBCHEM_IUPAC_TRADITIONAL_NAME>
(2Z,4E,6E,8E,10E,12Z,14E)-2,6,11-trimethyl-15-[2-[3,4,5-trihydroxy-6-(1,3,6,7-tetrahydroxy-9-keto-xanthen-2-yl)tetrahydropyran-2-yl]acetyl]oxy-hexadeca-2,4,6,8,10,12,14-heptaenoic acid (3,4,5-trihydroxy-6-methylol-tetrahydropyran-2-yl) ester

>  <PUBCHEM_IUPAC_INCHI>
InChI=1S/C45H50O19/c1-20(11-7-13-22(3)44(59)64-45-42(58)40(56)37(53)31(19-46)63-45)9-5-6-10-21(2)12-8-14-23(4)60-32(50)18-30-36(52)39(55)41(57)43(62-30)33-27(49)17-29-34(38(33)54)35(51)24-15-25(47)26(48)16-28(24)61-29/h5-17,30-31,36-37,39-43,45-49,52-58H,18-19H2,1-4H3/b6-5+,11-7+,12-8-,20-9+,21-10+,22-13-,23-14+

>  <PUBCHEM_IUPAC_INCHIKEY>
AGKNAOPKRCPHOJ-DFVWWCASSA-N

>  <PUBCHEM_EXACT_MASS>
894.295

>  <PUBCHEM_MOLECULAR_FORMULA>
C45H50O19

>  <PUBCHEM_MOLECULAR_WEIGHT>
894.876

>  <PUBCHEM_OPENEYE_CAN_SMILES>
CC(=CC=CC=C(C)C=CC=C(C)OC(=O)CC1C(C(C(C(O1)C2=C(C=C3C(=C2O)C(=O)C4=CC(=C(C=C4O3)O)O)O)O)O)O)C=CC=C(C)C(=O)OC5C(C(C(C(O5)CO)O)O)O

>  <PUBCHEM_OPENEYE_ISO_SMILES>
C/C(=C\C=C\C=C(/C)\C=C/C=C(\C)/OC(=O)CC1C(C(C(C(O1)C2=C(C=C3C(=C2O)C(=O)C4=CC(=C(C=C4O3)O)O)O)O)O)O)/C=C/C=C(/C)\C(=O)OC5C(C(C(C(O5)CO)O)O)O

>  <PUBCHEM_CACTVS_TPSA>
320

>  <PUBCHEM_MONOISOTOPIC_WEIGHT>
894.295

>  <PUBCHEM_TOTAL_CHARGE>
0

>  <PUBCHEM_HEAVY_ATOM_COUNT>
64

>  <PUBCHEM_ATOM_DEF_STEREO_COUNT>
0

>  <PUBCHEM_ATOM_UDEF_STEREO_COUNT>
10

>  <PUBCHEM_BOND_DEF_STEREO_COUNT>
7

>  <PUBCHEM_BOND_UDEF_STEREO_COUNT>
0

>  <PUBCHEM_ISOTOPIC_ATOM_COUNT>
0

>  <PUBCHEM_COMPONENT_COUNT>
1

>  <PUBCHEM_CACTVS_TAUTO_COUNT>
998

>  <PUBCHEM_COORDINATE_TYPE>
1
5
255

>  <PUBCHEM_BONDANNOTATIONS>
33  11  3
13  37  8
13  41  8
20  2  3
23  25  3
24  26  3
25  29  8
25  32  8
29  35  8
21  3  3
30  38  3
32  36  8
35  37  8
35  39  8
36  37  8
39  40  8
22  4  3
40  41  8
40  43  8
41  45  8
43  46  8
45  47  8
46  47  8
27  6  3
28  7  3
31  9  3

$$$$
