131751816
 OpenBabel06101807152D

 98 98  0  0  1  0  0  0  0  0999 V2000
    3.0000   -6.0000    0.0000 C   0  0  0  0  0  0  0  0  0  0  0  0
    3.0000   -7.0000    0.0000 C   0  0  0  0  0  0  0  0  0  0  0  0
    3.8660   -7.5000    0.0000 C   0  0  0  0  0  0  0  0  0  0  0  0
    3.8660   -5.5000    0.0000 C   0  0  0  0  0  0  0  0  0  0  0  0
    4.7320   -7.0000    0.0000 C   0  0  0  0  0  0  0  0  0  0  0  0
    4.7320   -6.0000    0.0000 C   0  0  0  0  0  0  0  0  0  0  0  0
    2.0000   -6.0000    0.0000 C   0  0  0  0  0  0  0  0  0  0  0  0
    2.5000   -5.1340    0.0000 C   0  0  0  0  0  0  0  0  0  0  0  0
    3.8660   -4.5000    0.0000 C   0  0  0  0  0  0  0  0  0  0  0  0
    5.5981   -5.5000    0.0000 C   0  0  0  0  0  0  0  0  0  0  0  0
    4.7320   -4.0000    0.0000 C   0  0  0  0  0  0  0  0  0  0  0  0
    4.7320   -3.0000    0.0000 C   0  0  0  0  0  0  0  0  0  0  0  0
    3.8660   -2.5000    0.0000 C   0  0  0  0  0  0  0  0  0  0  0  0
    5.5981   -2.5000    0.0000 C   0  0  0  0  0  0  0  0  0  0  0  0
    6.4641   -3.0000    0.0000 C   0  0  0  0  0  0  0  0  0  0  0  0
    7.3301   -2.5000    0.0000 C   0  0  0  0  0  0  0  0  0  0  0  0
    8.1962   -3.0000    0.0000 C   0  0  3  0  0  0  0  0  0  0  0  0
    9.0622   -2.5000    0.0000 C   0  0  0  0  0  0  0  0  0  0  0  0
    8.1962   -4.0000    0.0000 C   0  0  0  0  0  0  0  0  0  0  0  0
    9.9282   -3.0000    0.0000 C   0  0  0  0  0  0  0  0  0  0  0  0
   10.7942   -2.5000    0.0000 C   0  0  0  0  0  0  0  0  0  0  0  0
   15.9904    4.5000    0.0000 C   0  0  0  0  0  0  0  0  0  0  0  0
   16.8564    5.0000    0.0000 C   0  0  0  0  0  0  0  0  0  0  0  0
   10.7942   -1.5000    0.0000 C   0  0  0  0  0  0  0  0  0  0  0  0
   15.9904    3.5000    0.0000 C   0  0  0  0  0  0  0  0  0  0  0  0
   16.8564    6.0000    0.0000 C   0  0  0  0  0  0  0  0  0  0  0  0
   11.6603   -1.0000    0.0000 C   0  0  0  0  0  0  0  0  0  0  0  0
   17.7224    6.5000    0.0000 C   0  0  0  0  0  0  0  0  0  0  0  0
   16.8564    3.0000    0.0000 C   0  0  0  0  0  0  0  0  0  0  0  0
   15.1244    3.0000    0.0000 C   0  0  0  0  0  0  0  0  0  0  0  0
   11.6603    0.0000    0.0000 C   0  0  0  0  0  0  0  0  0  0  0  0
   12.5263   -1.5000    0.0000 C   0  0  0  0  0  0  0  0  0  0  0  0
   17.7224    7.5000    0.0000 C   0  0  0  0  0  0  0  0  0  0  0  0
   18.5885    6.0000    0.0000 C   0  0  0  0  0  0  0  0  0  0  0  0
   14.2583    3.5000    0.0000 C   0  0  0  0  0  0  0  0  0  0  0  0
   13.3923    3.0000    0.0000 C   0  0  0  0  0  0  0  0  0  0  0  0
   13.3923    2.0000    0.0000 C   0  0  0  0  0  0  0  0  0  0  0  0
   12.5263    0.5000    0.0000 C   0  0  0  0  0  0  0  0  0  0  0  0
   12.5263    1.5000    0.0000 C   0  0  0  0  0  0  0  0  0  0  0  0
   14.2583    1.5000    0.0000 C   0  0  0  0  0  0  0  0  0  0  0  0
    2.3894   -6.8923    0.0000 H   0  0  0  0  0  0  0  0  0  0  0  0
    2.7880   -7.5826    0.0000 H   0  0  0  0  0  0  0  0  0  0  0  0
    3.4675   -7.9750    0.0000 H   0  0  0  0  0  0  0  0  0  0  0  0
    4.2646   -7.9750    0.0000 H   0  0  0  0  0  0  0  0  0  0  0  0
    4.9441   -7.5826    0.0000 H   0  0  0  0  0  0  0  0  0  0  0  0
    5.3426   -6.8923    0.0000 H   0  0  0  0  0  0  0  0  0  0  0  0
    3.0369   -4.8240    0.0000 H   0  0  0  0  0  0  0  0  0  0  0  0
    2.1900   -4.5970    0.0000 H   0  0  0  0  0  0  0  0  0  0  0  0
    1.9631   -5.4440    0.0000 H   0  0  0  0  0  0  0  0  0  0  0  0
    2.0000   -5.3800    0.0000 H   0  0  0  0  0  0  0  0  0  0  0  0
    1.3800   -6.0000    0.0000 H   0  0  0  0  0  0  0  0  0  0  0  0
    2.0000   -6.6200    0.0000 H   0  0  0  0  0  0  0  0  0  0  0  0
    3.3291   -4.1900    0.0000 H   0  0  0  0  0  0  0  0  0  0  0  0
    5.9081   -6.0369    0.0000 H   0  0  0  0  0  0  0  0  0  0  0  0
    6.1350   -5.1900    0.0000 H   0  0  0  0  0  0  0  0  0  0  0  0
    5.2881   -4.9631    0.0000 H   0  0  0  0  0  0  0  0  0  0  0  0
    5.2690   -4.3100    0.0000 H   0  0  0  0  0  0  0  0  0  0  0  0
    4.1760   -1.9631    0.0000 H   0  0  0  0  0  0  0  0  0  0  0  0
    3.3291   -2.1900    0.0000 H   0  0  0  0  0  0  0  0  0  0  0  0
    3.5560   -3.0369    0.0000 H   0  0  0  0  0  0  0  0  0  0  0  0
    5.5981   -1.8800    0.0000 H   0  0  0  0  0  0  0  0  0  0  0  0
    6.4641   -3.6200    0.0000 H   0  0  0  0  0  0  0  0  0  0  0  0
    7.3301   -1.8800    0.0000 H   0  0  0  0  0  0  0  0  0  0  0  0
    8.7331   -3.3100    0.0000 H   0  0  0  0  0  0  0  0  0  0  0  0
    9.4607   -2.0250    0.0000 H   0  0  0  0  0  0  0  0  0  0  0  0
    8.6636   -2.0250    0.0000 H   0  0  0  0  0  0  0  0  0  0  0  0
    7.5762   -4.0000    0.0000 H   0  0  0  0  0  0  0  0  0  0  0  0
    8.1962   -4.6200    0.0000 H   0  0  0  0  0  0  0  0  0  0  0  0
    8.8162   -4.0000    0.0000 H   0  0  0  0  0  0  0  0  0  0  0  0
    9.9282   -3.6200    0.0000 H   0  0  0  0  0  0  0  0  0  0  0  0
   11.3312   -2.8100    0.0000 H   0  0  0  0  0  0  0  0  0  0  0  0
   15.7783    5.0826    0.0000 H   0  0  0  0  0  0  0  0  0  0  0  0
   15.3798    4.3923    0.0000 H   0  0  0  0  0  0  0  0  0  0  0  0
   17.0685    4.4174    0.0000 H   0  0  0  0  0  0  0  0  0  0  0  0
   17.4670    5.1077    0.0000 H   0  0  0  0  0  0  0  0  0  0  0  0
   10.2573   -1.1900    0.0000 H   0  0  0  0  0  0  0  0  0  0  0  0
   16.3195    6.3100    0.0000 H   0  0  0  0  0  0  0  0  0  0  0  0
   16.5464    2.4631    0.0000 H   0  0  0  0  0  0  0  0  0  0  0  0
   17.3933    2.6900    0.0000 H   0  0  0  0  0  0  0  0  0  0  0  0
   17.1664    3.5369    0.0000 H   0  0  0  0  0  0  0  0  0  0  0  0
   15.1244    2.3800    0.0000 H   0  0  0  0  0  0  0  0  0  0  0  0
   11.1233    0.3100    0.0000 H   0  0  0  0  0  0  0  0  0  0  0  0
   12.2163   -2.0369    0.0000 H   0  0  0  0  0  0  0  0  0  0  0  0
   13.0632   -1.8100    0.0000 H   0  0  0  0  0  0  0  0  0  0  0  0
   12.8363   -0.9631    0.0000 H   0  0  0  0  0  0  0  0  0  0  0  0
   18.3424    7.5000    0.0000 H   0  0  0  0  0  0  0  0  0  0  0  0
   17.7224    8.1200    0.0000 H   0  0  0  0  0  0  0  0  0  0  0  0
   17.1024    7.5000    0.0000 H   0  0  0  0  0  0  0  0  0  0  0  0
   18.2785    5.4631    0.0000 H   0  0  0  0  0  0  0  0  0  0  0  0
   19.1254    5.6900    0.0000 H   0  0  0  0  0  0  0  0  0  0  0  0
   18.8985    6.5369    0.0000 H   0  0  0  0  0  0  0  0  0  0  0  0
   14.2583    4.1200    0.0000 H   0  0  0  0  0  0  0  0  0  0  0  0
   12.8554    3.3100    0.0000 H   0  0  0  0  0  0  0  0  0  0  0  0
   13.0632    0.1900    0.0000 H   0  0  0  0  0  0  0  0  0  0  0  0
   11.9893    1.8100    0.0000 H   0  0  0  0  0  0  0  0  0  0  0  0
   13.9483    0.9631    0.0000 H   0  0  0  0  0  0  0  0  0  0  0  0
   14.7953    1.1900    0.0000 H   0  0  0  0  0  0  0  0  0  0  0  0
   14.5683    2.0369    0.0000 H   0  0  0  0  0  0  0  0  0  0  0  0
  1  2  1  0  0  0  0
  1  4  1  0  0  0  0
  1  7  1  0  0  0  0
  1  8  1  0  0  0  0
  2  3  1  0  0  0  0
  2 41  1  0  0  0  0
  2 42  1  0  0  0  0
  3  5  1  0  0  0  0
  3 43  1  0  0  0  0
  3 44  1  0  0  0  0
  4  6  2  0  0  0  0
  4  9  1  0  0  0  0
  5  6  1  0  0  0  0
  5 45  1  0  0  0  0
  5 46  1  0  0  0  0
  6 10  1  0  0  0  0
  7 50  1  0  0  0  0
  7 51  1  0  0  0  0
  7 52  1  0  0  0  0
  8 47  1  0  0  0  0
  8 48  1  0  0  0  0
  8 49  1  0  0  0  0
  9 11  2  0  0  0  0
  9 53  1  0  0  0  0
 10 54  1  0  0  0  0
 10 55  1  0  0  0  0
 10 56  1  0  0  0  0
 11 12  1  0  0  0  0
 11 57  1  0  0  0  0
 12 13  1  0  0  0  0
 12 14  2  0  0  0  0
 13 58  1  0  0  0  0
 13 59  1  0  0  0  0
 13 60  1  0  0  0  0
 14 15  1  0  0  0  0
 14 61  1  0  0  0  0
 15 16  2  0  0  0  0
 15 62  1  0  0  0  0
 16 17  1  0  0  0  0
 16 63  1  0  0  0  0
 17 18  1  0  0  0  0
 17 19  1  0  0  0  0
 17 64  1  0  0  0  0
 18 20  1  0  0  0  0
 18 65  1  0  0  0  0
 18 66  1  0  0  0  0
 19 67  1  0  0  0  0
 19 68  1  0  0  0  0
 19 69  1  0  0  0  0
 20 21  2  0  0  0  0
 20 70  1  0  0  0  0
 21 24  1  0  0  0  0
 21 71  1  0  0  0  0
 22 23  1  0  0  0  0
 22 25  1  0  0  0  0
 22 72  1  0  0  0  0
 22 73  1  0  0  0  0
 23 26  1  0  0  0  0
 23 74  1  0  0  0  0
 23 75  1  0  0  0  0
 24 27  2  0  0  0  0
 24 76  1  0  0  0  0
 25 29  1  0  0  0  0
 25 30  2  0  0  0  0
 26 28  2  0  0  0  0
 26 77  1  0  0  0  0
 27 31  1  0  0  0  0
 27 32  1  0  0  0  0
 28 33  1  0  0  0  0
 28 34  1  0  0  0  0
 29 78  1  0  0  0  0
 29 79  1  0  0  0  0
 29 80  1  0  0  0  0
 30 35  1  0  0  0  0
 30 81  1  0  0  0  0
 31 38  2  0  0  0  0
 31 82  1  0  0  0  0
 32 83  1  0  0  0  0
 32 84  1  0  0  0  0
 32 85  1  0  0  0  0
 33 86  1  0  0  0  0
 33 87  1  0  0  0  0
 33 88  1  0  0  0  0
 34 89  1  0  0  0  0
 34 90  1  0  0  0  0
 34 91  1  0  0  0  0
 35 36  2  0  0  0  0
 35 92  1  0  0  0  0
 36 37  1  0  0  0  0
 36 93  1  0  0  0  0
 37 39  2  0  0  0  0
 37 40  1  0  0  0  0
 38 39  1  0  0  0  0
 38 94  1  0  0  0  0
 39 95  1  0  0  0  0
 40 96  1  0  0  0  0
 40 97  1  0  0  0  0
 40 98  1  0  0  0  0
M  END
>  <PUBCHEM_COMPOUND_CID>
131751816

>  <PUBCHEM_COMPOUND_CANONICALIZED>
1

>  <PUBCHEM_CACTVS_COMPLEXITY>
1120

>  <PUBCHEM_CACTVS_HBOND_ACCEPTOR>
0

>  <PUBCHEM_CACTVS_HBOND_DONOR>
0

>  <PUBCHEM_CACTVS_ROTATABLE_BOND>
14

>  <PUBCHEM_CACTVS_SUBSKEYS>
AAADcfB8AAAAAAAAAAAAAAAAAAAAAAAAAAAgAAAAAAAAAAAAAAAAGAAAAAAADwCAAAACAAAAAACAAiBCAAAAAAAgAAAICAAAAAgIAAIAAQAAAAAAgAAIgAMAgMAPAAAAAAAAAAAAAAAAAAAAAAAAAAAAAA==

>  <PUBCHEM_IUPAC_OPENEYE_NAME>
2-[(1E,3Z,5E,9Z,11E,13E,15E,17Z,19Z)-3,7,12,16,20,24-hexamethylpentacosa-1,3,5,9,11,13,15,17,19,23-decaenyl]-1,3,3-trimethyl-cyclohexene

>  <PUBCHEM_IUPAC_CAS_NAME>
2-[(1E,3Z,5E,9Z,11E,13E,15E,17Z,19Z)-3,7,12,16,20,24-hexamethylpentacosa-1,3,5,9,11,13,15,17,19,23-decaenyl]-1,3,3-trimethylcyclohexene

>  <PUBCHEM_IUPAC_NAME>
2-[(1E,3Z,5E,9Z,11E,13E,15E,17Z,19Z)-3,7,12,16,20,24-hexamethylpentacosa-1,3,5,9,11,13,15,17,19,23-decaenyl]-1,3,3-trimethylcyclohexene

>  <PUBCHEM_IUPAC_SYSTEMATIC_NAME>
2-[(1E,3Z,5E,9Z,11E,13E,15E,17Z,19Z)-3,7,12,16,20,24-hexamethylpentacosa-1,3,5,9,11,13,15,17,19,23-decaenyl]-1,3,3-trimethyl-cyclohexene

>  <PUBCHEM_IUPAC_TRADITIONAL_NAME>
2-[(1E,3Z,5E,9Z,11E,13E,15E,17Z,19Z)-3,7,12,16,20,24-hexamethylpentacosa-1,3,5,9,11,13,15,17,19,23-decaenyl]-1,3,3-trimethyl-cyclohexene

>  <PUBCHEM_IUPAC_INCHI>
InChI=1S/C40H58/c1-32(2)18-13-21-35(5)24-15-26-36(6)25-14-22-33(3)19-11-12-20-34(4)23-16-27-37(7)29-30-39-38(8)28-17-31-40(39,9)10/h11-12,14-16,18-19,22-27,29-30,34H,13,17,20-21,28,31H2,1-10H3/b12-11-,22-14+,23-16+,26-15-,30-29+,33-19+,35-24-,36-25+,37-27-

>  <PUBCHEM_IUPAC_INCHIKEY>
IDTBULZJFGAQSB-PEUOJFINSA-N

>  <PUBCHEM_EXACT_MASS>
538.454

>  <PUBCHEM_MOLECULAR_FORMULA>
C40H58

>  <PUBCHEM_MOLECULAR_WEIGHT>
538.904

>  <PUBCHEM_OPENEYE_CAN_SMILES>
CC1=C(C(CCC1)(C)C)C=CC(=CC=CC(C)CC=CC=C(C)C=CC=C(C)C=CC=C(C)CCC=C(C)C)C

>  <PUBCHEM_OPENEYE_ISO_SMILES>
CC1=C(C(CCC1)(C)C)/C=C/C(=C\C=C\C(C)C/C=C\C=C(/C)\C=C\C=C(/C)\C=C/C=C(/C)\CCC=C(C)C)/C

>  <PUBCHEM_CACTVS_TPSA>
0

>  <PUBCHEM_MONOISOTOPIC_WEIGHT>
538.454

>  <PUBCHEM_TOTAL_CHARGE>
0

>  <PUBCHEM_HEAVY_ATOM_COUNT>
40

>  <PUBCHEM_ATOM_DEF_STEREO_COUNT>
0

>  <PUBCHEM_ATOM_UDEF_STEREO_COUNT>
1

>  <PUBCHEM_BOND_DEF_STEREO_COUNT>
9

>  <PUBCHEM_BOND_UDEF_STEREO_COUNT>
0

>  <PUBCHEM_ISOTOPIC_ATOM_COUNT>
0

>  <PUBCHEM_COMPONENT_COUNT>
1

>  <PUBCHEM_CACTVS_TAUTO_COUNT>
1001

>  <PUBCHEM_COORDINATE_TYPE>
1
5
255

>  <PUBCHEM_BONDANNOTATIONS>
17  19  3

$$$$
