131752413
 OpenBabel06101807152D

 43 45  0  0  0  0  0  0  0  0999 V2000
    5.3147   -2.2088    0.0000 O   0  0  0  0  0  0  0  0  0  0  0  0
   10.5911    2.5960    0.0000 O   0  0  0  0  0  0  0  0  0  0  0  0
   10.5911    0.9865    0.0000 O   0  0  0  0  0  0  0  0  0  0  0  0
    3.5827   -2.2088    0.0000 N   0  0  0  0  0  0  0  0  0  0  0  0
    2.0000   -2.5452    0.0000 C   0  0  0  0  0  0  0  0  0  0  0  0
    2.5000   -3.4112    0.0000 C   0  0  0  0  0  0  0  0  0  0  0  0
    2.6691   -1.8020    0.0000 C   0  0  0  0  0  0  0  0  0  0  0  0
    3.4782   -3.2033    0.0000 C   0  0  0  0  0  0  0  0  0  0  0  0
    4.4487   -1.7088    0.0000 C   0  0  0  0  0  0  0  0  0  0  0  0
    4.4487   -0.7088    0.0000 C   0  0  0  0  0  0  0  0  0  0  0  0
    5.3147   -0.2088    0.0000 C   0  0  0  0  0  0  0  0  0  0  0  0
    5.3147    0.7912    0.0000 C   0  0  0  0  0  0  0  0  0  0  0  0
    6.1808    1.2912    0.0000 C   0  0  0  0  0  0  0  0  0  0  0  0
    7.9128    2.2912    0.0000 C   0  0  0  0  0  0  0  0  0  0  0  0
    6.1808    2.2912    0.0000 C   0  0  0  0  0  0  0  0  0  0  0  0
    9.6448    2.2912    0.0000 C   0  0  0  0  0  0  0  0  0  0  0  0
    9.6448    1.2912    0.0000 C   0  0  0  0  0  0  0  0  0  0  0  0
    7.0468    2.7912    0.0000 C   0  0  0  0  0  0  0  0  0  0  0  0
    8.7788    2.7912    0.0000 C   0  0  0  0  0  0  0  0  0  0  0  0
    7.9128    1.2912    0.0000 C   0  0  0  0  0  0  0  0  0  0  0  0
    8.7788    0.7912    0.0000 C   0  0  0  0  0  0  0  0  0  0  0  0
   11.1747    1.7912    0.0000 C   0  0  0  0  0  0  0  0  0  0  0  0
    1.5851   -2.0844    0.0000 H   0  0  0  0  0  0  0  0  0  0  0  0
    1.4984   -2.9096    0.0000 H   0  0  0  0  0  0  0  0  0  0  0  0
    1.9336   -3.6634    0.0000 H   0  0  0  0  0  0  0  0  0  0  0  0
    2.6916   -4.0009    0.0000 H   0  0  0  0  0  0  0  0  0  0  0  0
    2.9791   -1.2651    0.0000 H   0  0  0  0  0  0  0  0  0  0  0  0
    2.1675   -1.4376    0.0000 H   0  0  0  0  0  0  0  0  0  0  0  0
    3.5430   -3.8199    0.0000 H   0  0  0  0  0  0  0  0  0  0  0  0
    4.0982   -3.2033    0.0000 H   0  0  0  0  0  0  0  0  0  0  0  0
    3.9118   -0.3988    0.0000 H   0  0  0  0  0  0  0  0  0  0  0  0
    5.8517   -0.5188    0.0000 H   0  0  0  0  0  0  0  0  0  0  0  0
    5.1027    1.3738    0.0000 H   0  0  0  0  0  0  0  0  0  0  0  0
    4.7042    0.6836    0.0000 H   0  0  0  0  0  0  0  0  0  0  0  0
    6.3928    0.7086    0.0000 H   0  0  0  0  0  0  0  0  0  0  0  0
    6.7913    1.3989    0.0000 H   0  0  0  0  0  0  0  0  0  0  0  0
    5.6438    2.6012    0.0000 H   0  0  0  0  0  0  0  0  0  0  0  0
    7.0468    3.4112    0.0000 H   0  0  0  0  0  0  0  0  0  0  0  0
    8.7788    3.4112    0.0000 H   0  0  0  0  0  0  0  0  0  0  0  0
    7.3759    0.9812    0.0000 H   0  0  0  0  0  0  0  0  0  0  0  0
    8.7788    0.1712    0.0000 H   0  0  0  0  0  0  0  0  0  0  0  0
   11.6356    1.3765    0.0000 H   0  0  0  0  0  0  0  0  0  0  0  0
   11.6356    2.2059    0.0000 H   0  0  0  0  0  0  0  0  0  0  0  0
  1  9  2  0  0  0  0
  2 16  1  0  0  0  0
  2 22  1  0  0  0  0
  3 17  1  0  0  0  0
  3 22  1  0  0  0  0
  4  7  1  0  0  0  0
  4  8  1  0  0  0  0
  4  9  1  0  0  0  0
  5  6  1  0  0  0  0
  5  7  1  0  0  0  0
  5 23  1  0  0  0  0
  5 24  1  0  0  0  0
  6  8  1  0  0  0  0
  6 25  1  0  0  0  0
  6 26  1  0  0  0  0
  7 27  1  0  0  0  0
  7 28  1  0  0  0  0
  8 29  1  0  0  0  0
  8 30  1  0  0  0  0
  9 10  1  0  0  0  0
 10 11  2  0  0  0  0
 10 31  1  0  0  0  0
 11 12  1  0  0  0  0
 11 32  1  0  0  0  0
 12 13  1  0  0  0  0
 12 33  1  0  0  0  0
 12 34  1  0  0  0  0
 13 15  1  0  0  0  0
 13 35  1  0  0  0  0
 13 36  1  0  0  0  0
 14 18  1  0  0  0  0
 14 19  2  0  0  0  0
 14 20  1  0  0  0  0
 15 18  2  0  0  0  0
 15 37  1  0  0  0  0
 16 17  2  0  0  0  0
 16 19  1  0  0  0  0
 17 21  1  0  0  0  0
 18 38  1  0  0  0  0
 19 39  1  0  0  0  0
 20 21  2  0  0  0  0
 20 40  1  0  0  0  0
 21 41  1  0  0  0  0
 22 42  1  0  0  0  0
 22 43  1  0  0  0  0
M  END
>  <PUBCHEM_COMPOUND_CID>
131752413

>  <PUBCHEM_COMPOUND_CANONICALIZED>
1

>  <PUBCHEM_CACTVS_COMPLEXITY>
426

>  <PUBCHEM_CACTVS_HBOND_ACCEPTOR>
3

>  <PUBCHEM_CACTVS_HBOND_DONOR>
0

>  <PUBCHEM_CACTVS_ROTATABLE_BOND>
5

>  <PUBCHEM_CACTVS_SUBSKEYS>
AAADceB6MAAAAAAAAAAAAAAAAAAAAWJAAAAwAAAAAAAAAEgBAAAAHgAAAAAADATBmAcwDoMABACIAiFSEACCCAAgIAAIiAAOiMgdJiKEsRqkMCIkxhGOqYeAwBAOIAABAAAAQABAAAIAAACAAAAAAAAAAA==

>  <PUBCHEM_IUPAC_OPENEYE_NAME>
(2E,6Z)-7-(1,3-benzodioxol-5-yl)-1-pyrrolidin-1-yl-hepta-2,6-dien-1-one

>  <PUBCHEM_IUPAC_CAS_NAME>
(2E,6Z)-7-(1,3-benzodioxol-5-yl)-1-(1-pyrrolidinyl)-1-hepta-2,6-dienone

>  <PUBCHEM_IUPAC_NAME>
(2E,6Z)-7-(1,3-benzodioxol-5-yl)-1-pyrrolidin-1-ylhepta-2,6-dien-1-one

>  <PUBCHEM_IUPAC_SYSTEMATIC_NAME>
(2E,6Z)-7-(1,3-benzodioxol-5-yl)-1-pyrrolidin-1-yl-hepta-2,6-dien-1-one

>  <PUBCHEM_IUPAC_TRADITIONAL_NAME>
(2E,6Z)-7-(1,3-benzodioxol-5-yl)-1-pyrrolidino-hepta-2,6-dien-1-one

>  <PUBCHEM_IUPAC_INCHI>
InChI=1S/C18H21NO3/c20-18(19-11-5-6-12-19)8-4-2-1-3-7-15-9-10-16-17(13-15)22-14-21-16/h3-4,7-10,13H,1-2,5-6,11-12,14H2/b7-3-,8-4+

>  <PUBCHEM_IUPAC_INCHIKEY>
RUXALYXWBMBHLF-KYPMKJFLSA-N

>  <PUBCHEM_EXACT_MASS>
299.152

>  <PUBCHEM_MOLECULAR_FORMULA>
C18H21NO3

>  <PUBCHEM_MOLECULAR_WEIGHT>
299.37

>  <PUBCHEM_OPENEYE_CAN_SMILES>
C1CCN(C1)C(=O)C=CCCC=CC2=CC3=C(C=C2)OCO3

>  <PUBCHEM_OPENEYE_ISO_SMILES>
C1CCN(C1)C(=O)/C=C/CC/C=C\C2=CC3=C(C=C2)OCO3

>  <PUBCHEM_CACTVS_TPSA>
38.8

>  <PUBCHEM_MONOISOTOPIC_WEIGHT>
299.152

>  <PUBCHEM_TOTAL_CHARGE>
0

>  <PUBCHEM_HEAVY_ATOM_COUNT>
22

>  <PUBCHEM_ATOM_DEF_STEREO_COUNT>
0

>  <PUBCHEM_ATOM_UDEF_STEREO_COUNT>
0

>  <PUBCHEM_BOND_DEF_STEREO_COUNT>
2

>  <PUBCHEM_BOND_UDEF_STEREO_COUNT>
0

>  <PUBCHEM_ISOTOPIC_ATOM_COUNT>
0

>  <PUBCHEM_COMPONENT_COUNT>
1

>  <PUBCHEM_CACTVS_TAUTO_COUNT>
1

>  <PUBCHEM_COORDINATE_TYPE>
1
5
255

>  <PUBCHEM_BONDANNOTATIONS>
14  19  8
14  20  8
16  17  8
16  19  8
17  21  8
20  21  8

$$$$
