131751196
 OpenBabel06101807152D

140147  0  0  1  0  0  0  0  0999 V2000
    6.7449   -4.0074    0.0000 O   0  0  0  0  0  0  0  0  0  0  0  0
    8.6841   -4.3156    0.0000 O   0  0  0  0  0  0  0  0  0  0  0  0
    3.8788    3.8524    0.0000 O   0  0  0  0  0  0  0  0  0  0  0  0
    5.3814    4.7139    0.0000 O   0  0  0  0  0  0  0  0  0  0  0  0
    6.0010   -8.0065    0.0000 O   0  0  0  0  0  0  0  0  0  0  0  0
    2.8840    5.5874    0.0000 O   0  0  0  0  0  0  0  0  0  0  0  0
    3.8891    7.3164    0.0000 O   0  0  0  0  0  0  0  0  0  0  0  0
    5.8891    7.3105    0.0000 O   0  0  0  0  0  0  0  0  0  0  0  0
    7.3865    6.4399    0.0000 O   0  0  0  0  0  0  0  0  0  0  0  0
    4.2690   -8.0065    0.0000 O   0  0  0  0  0  0  0  0  0  0  0  0
    5.3917    8.1780    0.0000 O   0  0  0  0  0  0  0  0  0  0  0  0
    6.0010  -10.0065    0.0000 O   0  0  0  0  0  0  0  0  0  0  0  0
    2.8943    9.0515    0.0000 O   0  0  0  0  0  0  0  0  0  0  0  0
    4.2690  -11.0065    0.0000 O   0  0  0  0  0  0  0  0  0  0  0  0
    2.5369  -10.0065    0.0000 O   0  0  0  0  0  0  0  0  0  0  0  0
    3.8995   10.7805    0.0000 O   0  0  0  0  0  0  0  0  0  0  0  0
    5.8995   10.7745    0.0000 O   0  0  0  0  0  0  0  0  0  0  0  0
    2.5369   -7.0065    0.0000 O   0  0  0  0  0  0  0  0  0  0  0  0
    7.3917    8.1720    0.0000 O   0  0  0  0  0  0  0  0  0  0  0  0
    6.9358   -1.5381    0.0000 C   0  0  3  0  0  0  0  0  0  0  0  0
    5.9358   -1.5390    0.0000 C   0  0  3  0  0  0  0  0  0  0  0  0
    5.4350   -0.6734    0.0000 C   0  0  3  0  0  0  0  0  0  0  0  0
    7.2413   -2.4840    0.0000 C   0  0  3  0  0  0  0  0  0  0  0  0
    5.9343    0.1931    0.0000 C   0  0  3  0  0  0  0  0  0  0  0  0
    5.4266    1.1027    0.0000 C   0  0  3  0  0  0  0  0  0  0  0  0
    6.4371   -3.0684    0.0000 C   0  0  3  0  0  0  0  0  0  0  0  0
    5.6318   -2.4854    0.0000 C   0  0  0  0  0  0  0  0  0  0  0  0
    7.4350   -0.6716    0.0000 C   0  0  0  0  0  0  0  0  0  0  0  0
    6.9343    0.1940    0.0000 C   0  0  0  0  0  0  0  0  0  0  0  0
    4.3850    1.1098    0.0000 C   0  0  3  0  0  0  0  0  0  0  0  0
    8.0393   -3.0670    0.0000 C   0  0  3  0  0  0  0  0  0  0  0  0
    4.3935   -0.6903    0.0000 C   0  0  0  0  0  0  0  0  0  0  0  0
    3.8650    0.2073    0.0000 C   0  0  0  0  0  0  0  0  0  0  0  0
    7.9358   -1.5372    0.0000 C   0  0  0  0  0  0  0  0  0  0  0  0
    7.7331   -4.0065    0.0000 C   0  0  3  0  0  0  0  0  0  0  0  0
    5.9899    2.0300    0.0000 C   0  0  0  0  0  0  0  0  0  0  0  0
    3.8345    2.0447    0.0000 C   0  0  0  0  0  0  0  0  0  0  0  0
    6.4266    1.0958    0.0000 C   0  0  0  0  0  0  0  0  0  0  0  0
    5.4612    2.9774    0.0000 C   0  0  0  0  0  0  0  0  0  0  0  0
    4.3762    2.9848    0.0000 C   0  0  3  0  0  0  0  0  0  0  0  0
    8.9909   -2.7596    0.0000 C   0  0  0  0  0  0  0  0  0  0  0  0
    7.7331   -5.0065    0.0000 C   0  0  0  0  0  0  0  0  0  0  0  0
    6.8671   -5.5065    0.0000 C   0  0  0  0  0  0  0  0  0  0  0  0
    6.8671   -6.5065    0.0000 C   0  0  3  0  0  0  0  0  0  0  0  0
    4.3814    4.7169    0.0000 C   0  0  3  0  0  0  0  0  0  0  0  0
    3.8839    5.5844    0.0000 C   0  0  3  0  0  0  0  0  0  0  0  0
    6.0010   -7.0065    0.0000 C   0  0  0  0  0  0  0  0  0  0  0  0
    7.7331   -7.0065    0.0000 C   0  0  0  0  0  0  0  0  0  0  0  0
    4.3865    6.4489    0.0000 C   0  0  3  0  0  0  0  0  0  0  0  0
    5.8839    5.5784    0.0000 C   0  0  3  0  0  0  0  0  0  0  0  0
    5.3865    6.4459    0.0000 C   0  0  3  0  0  0  0  0  0  0  0  0
    6.8839    5.5754    0.0000 C   0  0  0  0  0  0  0  0  0  0  0  0
    5.1350   -8.5065    0.0000 C   0  0  3  0  0  0  0  0  0  0  0  0
    4.3917    8.1810    0.0000 C   0  0  3  0  0  0  0  0  0  0  0  0
    5.1350   -9.5065    0.0000 C   0  0  3  0  0  0  0  0  0  0  0  0
    3.8943    9.0485    0.0000 C   0  0  3  0  0  0  0  0  0  0  0  0
    4.2690  -10.0065    0.0000 C   0  0  3  0  0  0  0  0  0  0  0  0
    3.4030   -8.5065    0.0000 C   0  0  3  0  0  0  0  0  0  0  0  0
    3.4030   -9.5065    0.0000 C   0  0  3  0  0  0  0  0  0  0  0  0
    4.3969    9.9130    0.0000 C   0  0  3  0  0  0  0  0  0  0  0  0
    5.8943    9.0425    0.0000 C   0  0  3  0  0  0  0  0  0  0  0  0
    5.3969    9.9100    0.0000 C   0  0  3  0  0  0  0  0  0  0  0  0
    2.5369   -8.0065    0.0000 C   0  0  0  0  0  0  0  0  0  0  0  0
    6.8943    9.0395    0.0000 C   0  0  0  0  0  0  0  0  0  0  0  0
    5.3193   -1.6051    0.0000 H   0  0  0  0  0  0  0  0  0  0  0  0
    5.1296   -1.2129    0.0000 H   0  0  0  0  0  0  0  0  0  0  0  0
    7.7437   -2.1207    0.0000 H   0  0  0  0  0  0  0  0  0  0  0  0
    6.2447   -0.3436    0.0000 H   0  0  0  0  0  0  0  0  0  0  0  0
    5.9363   -3.4339    0.0000 H   0  0  0  0  0  0  0  0  0  0  0  0
    5.0647   -2.2349    0.0000 H   0  0  0  0  0  0  0  0  0  0  0  0
    5.3231   -3.0231    0.0000 H   0  0  0  0  0  0  0  0  0  0  0  0
    7.9103   -1.0698    0.0000 H   0  0  0  0  0  0  0  0  0  0  0  0
    7.9096   -0.2727    0.0000 H   0  0  0  0  0  0  0  0  0  0  0  0
    7.5167    0.4065    0.0000 H   0  0  0  0  0  0  0  0  0  0  0  0
    6.8261    0.8044    0.0000 H   0  0  0  0  0  0  0  0  0  0  0  0
    3.7650    1.1069    0.0000 H   0  0  0  0  0  0  0  0  0  0  0  0
    8.1376   -2.4548    0.0000 H   0  0  0  0  0  0  0  0  0  0  0  0
    3.8133   -0.9089    0.0000 H   0  0  0  0  0  0  0  0  0  0  0  0
    4.5096   -1.2994    0.0000 H   0  0  0  0  0  0  0  0  0  0  0  0
    3.3887    0.6042    0.0000 H   0  0  0  0  0  0  0  0  0  0  0  0
    3.3924   -0.1941    0.0000 H   0  0  0  0  0  0  0  0  0  0  0  0
    7.9363   -2.1572    0.0000 H   0  0  0  0  0  0  0  0  0  0  0  0
    8.5558   -1.5367    0.0000 H   0  0  0  0  0  0  0  0  0  0  0  0
    7.9352   -0.9172    0.0000 H   0  0  0  0  0  0  0  0  0  0  0  0
    6.4569    1.6222    0.0000 H   0  0  0  0  0  0  0  0  0  0  0  0
    6.4716    2.4203    0.0000 H   0  0  0  0  0  0  0  0  0  0  0  0
    3.3582    2.4416    0.0000 H   0  0  0  0  0  0  0  0  0  0  0  0
    3.3620    1.6434    0.0000 H   0  0  0  0  0  0  0  0  0  0  0  0
    6.4224    0.4758    0.0000 H   0  0  0  0  0  0  0  0  0  0  0  0
    7.0466    1.0916    0.0000 H   0  0  0  0  0  0  0  0  0  0  0  0
    6.4309    1.7158    0.0000 H   0  0  0  0  0  0  0  0  0  0  0  0
    6.0462    3.1825    0.0000 H   0  0  0  0  0  0  0  0  0  0  0  0
    5.3592    3.5890    0.0000 H   0  0  0  0  0  0  0  0  0  0  0  0
    3.7562    2.9855    0.0000 H   0  0  0  0  0  0  0  0  0  0  0  0
    9.1814   -3.3496    0.0000 H   0  0  0  0  0  0  0  0  0  0  0  0
    9.5808   -2.5690    0.0000 H   0  0  0  0  0  0  0  0  0  0  0  0
    8.8003   -2.1696    0.0000 H   0  0  0  0  0  0  0  0  0  0  0  0
    7.9451   -5.5891    0.0000 H   0  0  0  0  0  0  0  0  0  0  0  0
    8.3437   -4.8989    0.0000 H   0  0  0  0  0  0  0  0  0  0  0  0
    8.8130   -4.9220    0.0000 H   0  0  0  0  0  0  0  0  0  0  0  0
    6.6550   -4.9239    0.0000 H   0  0  0  0  0  0  0  0  0  0  0  0
    6.2565   -5.6142    0.0000 H   0  0  0  0  0  0  0  0  0  0  0  0
    6.8671   -7.1265    0.0000 H   0  0  0  0  0  0  0  0  0  0  0  0
    3.7614    4.7187    0.0000 H   0  0  0  0  0  0  0  0  0  0  0  0
    3.5756    6.1222    0.0000 H   0  0  0  0  0  0  0  0  0  0  0  0
    5.7890   -6.4239    0.0000 H   0  0  0  0  0  0  0  0  0  0  0  0
    5.3905   -7.1142    0.0000 H   0  0  0  0  0  0  0  0  0  0  0  0
    7.4231   -7.5435    0.0000 H   0  0  0  0  0  0  0  0  0  0  0  0
    8.2700   -7.3165    0.0000 H   0  0  0  0  0  0  0  0  0  0  0  0
    8.0431   -6.4696    0.0000 H   0  0  0  0  0  0  0  0  0  0  0  0
    4.6981    6.9849    0.0000 H   0  0  0  0  0  0  0  0  0  0  0  0
    6.1923    5.0406    0.0000 H   0  0  0  0  0  0  0  0  0  0  0  0
    6.0065    6.4441    0.0000 H   0  0  0  0  0  0  0  0  0  0  0  0
    2.5756    6.1252    0.0000 H   0  0  0  0  0  0  0  0  0  0  0  0
    6.7744    4.9652    0.0000 H   0  0  0  0  0  0  0  0  0  0  0  0
    7.4659    5.3616    0.0000 H   0  0  0  0  0  0  0  0  0  0  0  0
    5.1350   -7.8865    0.0000 H   0  0  0  0  0  0  0  0  0  0  0  0
    6.5091    7.3086    0.0000 H   0  0  0  0  0  0  0  0  0  0  0  0
    3.7717    8.1828    0.0000 H   0  0  0  0  0  0  0  0  0  0  0  0
    5.1350  -10.1265    0.0000 H   0  0  0  0  0  0  0  0  0  0  0  0
    8.0065    6.4381    0.0000 H   0  0  0  0  0  0  0  0  0  0  0  0
    3.5859    9.5863    0.0000 H   0  0  0  0  0  0  0  0  0  0  0  0
    3.7320  -10.3165    0.0000 H   0  0  0  0  0  0  0  0  0  0  0  0
    3.4030   -7.8865    0.0000 H   0  0  0  0  0  0  0  0  0  0  0  0
    3.4030  -10.1265    0.0000 H   0  0  0  0  0  0  0  0  0  0  0  0
    4.7085   10.4490    0.0000 H   0  0  0  0  0  0  0  0  0  0  0  0
    6.2027    8.5046    0.0000 H   0  0  0  0  0  0  0  0  0  0  0  0
    5.0885   10.4479    0.0000 H   0  0  0  0  0  0  0  0  0  0  0  0
    6.5380   -9.6965    0.0000 H   0  0  0  0  0  0  0  0  0  0  0  0
    1.9264   -7.8989    0.0000 H   0  0  0  0  0  0  0  0  0  0  0  0
    2.3249   -8.5891    0.0000 H   0  0  0  0  0  0  0  0  0  0  0  0
    2.5859    9.5893    0.0000 H   0  0  0  0  0  0  0  0  0  0  0  0
    3.7320  -11.3165    0.0000 H   0  0  0  0  0  0  0  0  0  0  0  0
    7.4775    9.2498    0.0000 H   0  0  0  0  0  0  0  0  0  0  0  0
    6.7884    9.6504    0.0000 H   0  0  0  0  0  0  0  0  0  0  0  0
    2.0000   -9.6965    0.0000 H   0  0  0  0  0  0  0  0  0  0  0  0
    4.2111   11.3165    0.0000 H   0  0  0  0  0  0  0  0  0  0  0  0
    6.5195   10.7727    0.0000 H   0  0  0  0  0  0  0  0  0  0  0  0
    2.0000   -6.6965    0.0000 H   0  0  0  0  0  0  0  0  0  0  0  0
    8.0117    8.1701    0.0000 H   0  0  0  0  0  0  0  0  0  0  0  0
  1 26  1  0  0  0  0
  1 35  1  0  0  0  0
  2 35  1  0  0  0  0
  2100  1  0  0  0  0
  3 40  1  0  0  0  0
  3 45  1  0  0  0  0
  4 45  1  0  0  0  0
  4 50  1  0  0  0  0
  5 47  1  0  0  0  0
  5 53  1  0  0  0  0
  6 46  1  0  0  0  0
  6114  1  0  0  0  0
  7 49  1  0  0  0  0
  7 54  1  0  0  0  0
  8 51  1  0  0  0  0
  8118  1  0  0  0  0
  9 52  1  0  0  0  0
  9121  1  0  0  0  0
 10 53  1  0  0  0  0
 10 58  1  0  0  0  0
 11 54  1  0  0  0  0
 11 61  1  0  0  0  0
 12 55  1  0  0  0  0
 12129  1  0  0  0  0
 13 56  1  0  0  0  0
 13132  1  0  0  0  0
 14 57  1  0  0  0  0
 14133  1  0  0  0  0
 15 59  1  0  0  0  0
 15136  1  0  0  0  0
 16 60  1  0  0  0  0
 16137  1  0  0  0  0
 17 62  1  0  0  0  0
 17138  1  0  0  0  0
 18 63  1  0  0  0  0
 18139  1  0  0  0  0
 19 64  1  0  0  0  0
 19140  1  0  0  0  0
 20 21  1  0  0  0  0
 20 23  1  0  0  0  0
 20 28  1  0  0  0  0
 20 34  1  0  0  0  0
 21 22  1  0  0  0  0
 21 27  1  0  0  0  0
 21 65  1  0  0  0  0
 22 24  1  0  0  0  0
 22 32  1  0  0  0  0
 22 66  1  0  0  0  0
 23 26  1  0  0  0  0
 23 31  1  0  0  0  0
 23 67  1  0  0  0  0
 24 25  1  0  0  0  0
 24 29  1  0  0  0  0
 24 68  1  0  0  0  0
 25 30  1  0  0  0  0
 25 36  1  0  0  0  0
 25 38  1  0  0  0  0
 26 27  1  0  0  0  0
 26 69  1  0  0  0  0
 27 70  1  0  0  0  0
 27 71  1  0  0  0  0
 28 29  1  0  0  0  0
 28 72  1  0  0  0  0
 28 73  1  0  0  0  0
 29 74  1  0  0  0  0
 29 75  1  0  0  0  0
 30 33  1  0  0  0  0
 30 37  1  0  0  0  0
 30 76  1  0  0  0  0
 31 35  1  0  0  0  0
 31 41  1  0  0  0  0
 31 77  1  0  0  0  0
 32 33  1  0  0  0  0
 32 78  1  0  0  0  0
 32 79  1  0  0  0  0
 33 80  1  0  0  0  0
 33 81  1  0  0  0  0
 34 82  1  0  0  0  0
 34 83  1  0  0  0  0
 34 84  1  0  0  0  0
 35 42  1  0  0  0  0
 36 39  1  0  0  0  0
 36 85  1  0  0  0  0
 36 86  1  0  0  0  0
 37 40  1  0  0  0  0
 37 87  1  0  0  0  0
 37 88  1  0  0  0  0
 38 89  1  0  0  0  0
 38 90  1  0  0  0  0
 38 91  1  0  0  0  0
 39 40  1  0  0  0  0
 39 92  1  0  0  0  0
 39 93  1  0  0  0  0
 40 94  1  0  0  0  0
 41 95  1  0  0  0  0
 41 96  1  0  0  0  0
 41 97  1  0  0  0  0
 42 43  1  0  0  0  0
 42 98  1  0  0  0  0
 42 99  1  0  0  0  0
 43 44  1  0  0  0  0
 43101  1  0  0  0  0
 43102  1  0  0  0  0
 44 47  1  0  0  0  0
 44 48  1  0  0  0  0
 44103  1  0  0  0  0
 45 46  1  0  0  0  0
 45104  1  0  0  0  0
 46 49  1  0  0  0  0
 46105  1  0  0  0  0
 47106  1  0  0  0  0
 47107  1  0  0  0  0
 48108  1  0  0  0  0
 48109  1  0  0  0  0
 48110  1  0  0  0  0
 49 51  1  0  0  0  0
 49111  1  0  0  0  0
 50 51  1  0  0  0  0
 50 52  1  0  0  0  0
 50112  1  0  0  0  0
 51113  1  0  0  0  0
 52115  1  0  0  0  0
 52116  1  0  0  0  0
 53 55  1  0  0  0  0
 53117  1  0  0  0  0
 54 56  1  0  0  0  0
 54119  1  0  0  0  0
 55 57  1  0  0  0  0
 55120  1  0  0  0  0
 56 60  1  0  0  0  0
 56122  1  0  0  0  0
 57 59  1  0  0  0  0
 57123  1  0  0  0  0
 58 59  1  0  0  0  0
 58 63  1  0  0  0  0
 58124  1  0  0  0  0
 59125  1  0  0  0  0
 60 62  1  0  0  0  0
 60126  1  0  0  0  0
 61 62  1  0  0  0  0
 61 64  1  0  0  0  0
 61127  1  0  0  0  0
 62128  1  0  0  0  0
 63130  1  0  0  0  0
 63131  1  0  0  0  0
 64134  1  0  0  0  0
 64135  1  0  0  0  0
M  END
>  <PUBCHEM_COMPOUND_CID>
131751196

>  <PUBCHEM_COMPOUND_CANONICALIZED>
1

>  <PUBCHEM_CACTVS_COMPLEXITY>
1560

>  <PUBCHEM_CACTVS_HBOND_ACCEPTOR>
19

>  <PUBCHEM_CACTVS_HBOND_DONOR>
12

>  <PUBCHEM_CACTVS_ROTATABLE_BOND>
13

>  <PUBCHEM_CACTVS_SUBSKEYS>
AAADcfB8PgAAAAAAAAAAAAAAAAAAAaIAAAA0aNECAAASAGDAAAAAGgAACAAADxSwgAMCCAAABgAAAAAAAAAAAAAAAAAAAAAAAAAREAIAAAAiQAAFAAAHAAHA4PwPgAAAAAAAAADAAAYAACAAAYAADAAAAA==

>  <PUBCHEM_IUPAC_INCHI>
InChI=1S/C45H76O19/c1-19(18-58-40-36(54)34(52)31(49)27(15-46)60-40)7-12-45(57)20(2)30-26(64-45)14-25-23-6-5-21-13-22(8-10-43(21,3)24(23)9-11-44(25,30)4)59-42-38(56)39(33(51)29(17-48)62-42)63-41-37(55)35(53)32(50)28(16-47)61-41/h19-42,46-57H,5-18H2,1-4H3

>  <PUBCHEM_IUPAC_INCHIKEY>
STAKUOVRJNVEFG-UHFFFAOYSA-N

>  <PUBCHEM_EXACT_MASS>
920.498

>  <PUBCHEM_MOLECULAR_FORMULA>
C45H76O19

>  <PUBCHEM_MOLECULAR_WEIGHT>
921.084

>  <PUBCHEM_OPENEYE_CAN_SMILES>
CC1C2C(CC3C2(CCC4C3CCC5C4(CCC(C5)OC6C(C(C(C(O6)CO)O)OC7C(C(C(C(O7)CO)O)O)O)O)C)C)OC1(CCC(C)COC8C(C(C(C(O8)CO)O)O)O)O

>  <PUBCHEM_OPENEYE_ISO_SMILES>
CC1C2C(CC3C2(CCC4C3CCC5C4(CCC(C5)OC6C(C(C(C(O6)CO)O)OC7C(C(C(C(O7)CO)O)O)O)O)C)C)OC1(CCC(C)COC8C(C(C(C(O8)CO)O)O)O)O

>  <PUBCHEM_CACTVS_TPSA>
307

>  <PUBCHEM_MONOISOTOPIC_WEIGHT>
920.498

>  <PUBCHEM_TOTAL_CHARGE>
0

>  <PUBCHEM_HEAVY_ATOM_COUNT>
64

>  <PUBCHEM_ATOM_DEF_STEREO_COUNT>
0

>  <PUBCHEM_ATOM_UDEF_STEREO_COUNT>
27

>  <PUBCHEM_BOND_DEF_STEREO_COUNT>
0

>  <PUBCHEM_BOND_UDEF_STEREO_COUNT>
0

>  <PUBCHEM_ISOTOPIC_ATOM_COUNT>
0

>  <PUBCHEM_COMPONENT_COUNT>
1

>  <PUBCHEM_CACTVS_TAUTO_COUNT>
1

>  <PUBCHEM_COORDINATE_TYPE>
1
5
255

>  <PUBCHEM_BONDANNOTATIONS>
55  12  3
56  13  3
57  14  3
59  15  3
60  16  3
62  17  3
35  2  3
20  34  3
21  27  3
22  32  3
23  31  3
24  29  3
25  38  3
26  27  3
40  3  3
45  3  3
30  33  3
31  41  3
44  48  3
53  5  3
50  52  3
58  63  3
46  6  3
61  64  3
49  7  3
54  7  3
51  8  3

$$$$
