131751563
 OpenBabel06101807152D

 47 50  0  0  1  0  0  0  0  0999 V2000
    6.0682    2.1859    0.0000 O   0  0  0  0  0  0  0  0  0  0  0  0
   11.3324   -0.8349    0.0000 O   0  0  0  0  0  0  0  0  0  0  0  0
    8.6663    1.6859    0.0000 O   0  0  0  0  0  0  0  0  0  0  0  0
    2.5381    2.2100    0.0000 O   0  0  0  0  0  0  0  0  0  0  0  0
    6.9343    0.6859    0.0000 C   0  0  3  0  0  0  0  0  0  0  0  0
    7.8003    0.1859    0.0000 C   0  0  0  0  0  0  0  0  0  0  0  0
    6.0682    0.1859    0.0000 C   0  0  0  0  0  0  0  0  0  0  0  0
   10.4263   -1.3488    0.0000 C   0  0  0  0  0  0  0  0  0  0  0  0
    6.9343    1.6859    0.0000 C   0  0  0  0  0  0  0  0  0  0  0  0
    9.5323   -0.8141    0.0000 C   0  0  0  0  0  0  0  0  0  0  0  0
    9.5323    0.1859    0.0000 C   0  0  0  0  0  0  0  0  0  0  0  0
    8.6663    0.6859    0.0000 C   0  0  0  0  0  0  0  0  0  0  0  0
    5.2022    0.6859    0.0000 C   0  0  0  0  0  0  0  0  0  0  0  0
    7.8003   -0.8141    0.0000 C   0  0  0  0  0  0  0  0  0  0  0  0
    8.6663   -1.3141    0.0000 C   0  0  0  0  0  0  0  0  0  0  0  0
    5.2022    1.6859    0.0000 C   0  0  0  0  0  0  0  0  0  0  0  0
   10.9162   -2.2205    0.0000 C   0  0  0  0  0  0  0  0  0  0  0  0
    9.9163   -2.2090    0.0000 C   0  0  0  0  0  0  0  0  0  0  0  0
   10.4263    0.7205    0.0000 C   0  0  0  0  0  0  0  0  0  0  0  0
    4.3083    0.1512    0.0000 C   0  0  0  0  0  0  0  0  0  0  0  0
   11.3324    0.2067    0.0000 C   0  0  0  0  0  0  0  0  0  0  0  0
    4.3083    2.2205    0.0000 C   0  0  0  0  0  0  0  0  0  0  0  0
    3.4022    0.6651    0.0000 C   0  0  0  0  0  0  0  0  0  0  0  0
    3.4022    1.7067    0.0000 C   0  0  0  0  0  0  0  0  0  0  0  0
    9.5323    2.1859    0.0000 C   0  0  0  0  0  0  0  0  0  0  0  0
    6.9343    0.0659    0.0000 H   0  0  0  0  0  0  0  0  0  0  0  0
    5.6697   -0.2891    0.0000 H   0  0  0  0  0  0  0  0  0  0  0  0
    6.4668   -0.2891    0.0000 H   0  0  0  0  0  0  0  0  0  0  0  0
    7.5449    1.5782    0.0000 H   0  0  0  0  0  0  0  0  0  0  0  0
    7.1463    2.2685    0.0000 H   0  0  0  0  0  0  0  0  0  0  0  0
    7.2634   -1.1241    0.0000 H   0  0  0  0  0  0  0  0  0  0  0  0
    8.6663   -1.9341    0.0000 H   0  0  0  0  0  0  0  0  0  0  0  0
    9.3830   -1.8928    0.0000 H   0  0  0  0  0  0  0  0  0  0  0  0
    9.6001   -2.7423    0.0000 H   0  0  0  0  0  0  0  0  0  0  0  0
   10.3758   -2.5243    0.0000 H   0  0  0  0  0  0  0  0  0  0  0  0
   11.2200   -2.7610    0.0000 H   0  0  0  0  0  0  0  0  0  0  0  0
   11.4567   -1.9168    0.0000 H   0  0  0  0  0  0  0  0  0  0  0  0
   10.4496   -2.5252    0.0000 H   0  0  0  0  0  0  0  0  0  0  0  0
   10.4191    1.3405    0.0000 H   0  0  0  0  0  0  0  0  0  0  0  0
    4.3154   -0.4687    0.0000 H   0  0  0  0  0  0  0  0  0  0  0  0
   11.8681    0.5188    0.0000 H   0  0  0  0  0  0  0  0  0  0  0  0
    4.3154    2.8405    0.0000 H   0  0  0  0  0  0  0  0  0  0  0  0
    2.8665    0.3530    0.0000 H   0  0  0  0  0  0  0  0  0  0  0  0
    9.8424    1.6489    0.0000 H   0  0  0  0  0  0  0  0  0  0  0  0
   10.0693    2.4959    0.0000 H   0  0  0  0  0  0  0  0  0  0  0  0
    9.2224    2.7228    0.0000 H   0  0  0  0  0  0  0  0  0  0  0  0
    2.0000    1.9021    0.0000 H   0  0  0  0  0  0  0  0  0  0  0  0
  1  9  1  0  0  0  0
  1 16  1  0  0  0  0
  2  8  1  0  0  0  0
  2 21  1  0  0  0  0
  3 12  1  0  0  0  0
  3 25  1  0  0  0  0
  4 24  1  0  0  0  0
  4 47  1  0  0  0  0
  5  6  1  0  0  0  0
  5  7  1  0  0  0  0
  5  9  1  0  0  0  0
  5 26  1  0  0  0  0
  6 12  2  0  0  0  0
  6 14  1  0  0  0  0
  7 13  1  0  0  0  0
  7 27  1  0  0  0  0
  7 28  1  0  0  0  0
  8 10  1  0  0  0  0
  8 17  1  0  0  0  0
  8 18  1  0  0  0  0
  9 29  1  0  0  0  0
  9 30  1  0  0  0  0
 10 11  2  0  0  0  0
 10 15  1  0  0  0  0
 11 12  1  0  0  0  0
 11 19  1  0  0  0  0
 13 16  2  0  0  0  0
 13 20  1  0  0  0  0
 14 15  2  0  0  0  0
 14 31  1  0  0  0  0
 15 32  1  0  0  0  0
 16 22  1  0  0  0  0
 17 35  1  0  0  0  0
 17 36  1  0  0  0  0
 17 37  1  0  0  0  0
 18 33  1  0  0  0  0
 18 34  1  0  0  0  0
 18 38  1  0  0  0  0
 19 21  2  0  0  0  0
 19 39  1  0  0  0  0
 20 23  2  0  0  0  0
 20 40  1  0  0  0  0
 21 41  1  0  0  0  0
 22 24  2  0  0  0  0
 22 42  1  0  0  0  0
 23 24  1  0  0  0  0
 23 43  1  0  0  0  0
 25 44  1  0  0  0  0
 25 45  1  0  0  0  0
 25 46  1  0  0  0  0
M  END
>  <PUBCHEM_COMPOUND_CID>
131751563

>  <PUBCHEM_COMPOUND_CANONICALIZED>
1

>  <PUBCHEM_CACTVS_COMPLEXITY>
502

>  <PUBCHEM_CACTVS_HBOND_ACCEPTOR>
4

>  <PUBCHEM_CACTVS_HBOND_DONOR>
1

>  <PUBCHEM_CACTVS_ROTATABLE_BOND>
2

>  <PUBCHEM_CACTVS_SUBSKEYS>
AAADceB4OAAAAAAAAAAAAAAAAAAAAAAAAAA0YIEAAAAAAACRQAAAGgAACAAADUSgmAIyBoAABgCAAiBCAAACCAAgIAAIiAAGCIgMJyKGMRqCeCClwBUIuAfA4PwO4AADCAAYAADAAAYQADAAAAAAAAAAAA==

>  <PUBCHEM_IUPAC_OPENEYE_NAME>
3-(5-methoxy-1,1-dimethyl-isochromen-6-yl)chroman-7-ol

>  <PUBCHEM_IUPAC_CAS_NAME>
3-(5-methoxy-1,1-dimethyl-2-benzopyran-6-yl)-3,4-dihydro-2H-1-benzopyran-7-ol

>  <PUBCHEM_IUPAC_NAME>
3-(5-methoxy-1,1-dimethylisochromen-6-yl)-3,4-dihydro-2H-chromen-7-ol

>  <PUBCHEM_IUPAC_SYSTEMATIC_NAME>
3-(5-methoxy-1,1-dimethyl-isochromen-6-yl)-3,4-dihydro-2H-chromen-7-ol

>  <PUBCHEM_IUPAC_TRADITIONAL_NAME>
3-(5-methoxy-1,1-dimethyl-isochromen-6-yl)chroman-7-ol

>  <PUBCHEM_IUPAC_INCHI>
InChI=1S/C21H22O4/c1-21(2)18-7-6-16(20(23-3)17(18)8-9-25-21)14-10-13-4-5-15(22)11-19(13)24-12-14/h4-9,11,14,22H,10,12H2,1-3H3

>  <PUBCHEM_IUPAC_INCHIKEY>
FHUJPAOFRVLFNQ-UHFFFAOYSA-N

>  <PUBCHEM_EXACT_MASS>
338.152

>  <PUBCHEM_MOLECULAR_FORMULA>
C21H22O4

>  <PUBCHEM_MOLECULAR_WEIGHT>
338.403

>  <PUBCHEM_OPENEYE_CAN_SMILES>
CC1(C2=C(C=CO1)C(=C(C=C2)C3CC4=C(C=C(C=C4)O)OC3)OC)C

>  <PUBCHEM_OPENEYE_ISO_SMILES>
CC1(C2=C(C=CO1)C(=C(C=C2)C3CC4=C(C=C(C=C4)O)OC3)OC)C

>  <PUBCHEM_CACTVS_TPSA>
47.9

>  <PUBCHEM_MONOISOTOPIC_WEIGHT>
338.152

>  <PUBCHEM_TOTAL_CHARGE>
0

>  <PUBCHEM_HEAVY_ATOM_COUNT>
25

>  <PUBCHEM_ATOM_DEF_STEREO_COUNT>
0

>  <PUBCHEM_ATOM_UDEF_STEREO_COUNT>
1

>  <PUBCHEM_BOND_DEF_STEREO_COUNT>
0

>  <PUBCHEM_BOND_UDEF_STEREO_COUNT>
0

>  <PUBCHEM_ISOTOPIC_ATOM_COUNT>
0

>  <PUBCHEM_COMPONENT_COUNT>
1

>  <PUBCHEM_CACTVS_TAUTO_COUNT>
40

>  <PUBCHEM_COORDINATE_TYPE>
1
5
255

>  <PUBCHEM_BONDANNOTATIONS>
10  11  8
10  15  8
11  12  8
13  16  8
13  20  8
14  15  8
16  22  8
20  23  8
22  24  8
23  24  8
5  6  3
6  12  8
6  14  8

$$$$
