131753164
 OpenBabel06101807152D

 52 53  0  0  1  0  0  0  0  0999 V2000
    5.1350   -1.0950    0.0000 O   0  0  0  0  0  0  0  0  0  0  0  0
    6.8671   -1.0950    0.0000 O   0  0  0  0  0  0  0  0  0  0  0  0
    5.1350   -4.0950    0.0000 O   0  0  0  0  0  0  0  0  0  0  0  0
    3.4030   -3.0950    0.0000 O   0  0  0  0  0  0  0  0  0  0  0  0
    6.8671   -3.0950    0.0000 O   0  0  0  0  0  0  0  0  0  0  0  0
    6.0010    0.4050    0.0000 O   0  0  0  0  0  0  0  0  0  0  0  0
    2.5369   -1.5950    0.0000 O   0  0  0  0  0  0  0  0  0  0  0  0
    6.0010    3.4050    0.0000 O   0  0  0  0  0  0  0  0  0  0  0  0
   10.0991    2.7710    0.0000 O   0  0  0  0  0  0  0  0  0  0  0  0
    7.7331    3.4050    0.0000 O   0  0  0  0  0  0  0  0  0  0  0  0
   10.0991    1.0390    0.0000 O   0  0  0  0  0  0  0  0  0  0  0  0
    5.1350   -3.0950    0.0000 C   0  0  3  0  0  0  0  0  0  0  0  0
    4.2690   -2.5950    0.0000 C   0  0  3  0  0  0  0  0  0  0  0  0
    6.0010   -2.5950    0.0000 C   0  0  3  0  0  0  0  0  0  0  0  0
    4.2690   -1.5950    0.0000 C   0  0  3  0  0  0  0  0  0  0  0  0
    6.0010   -1.5950    0.0000 C   0  0  3  0  0  0  0  0  0  0  0  0
    6.8671   -0.0950    0.0000 C   0  0  3  0  0  0  0  0  0  0  0  0
    3.4030   -1.0950    0.0000 C   0  0  0  0  0  0  0  0  0  0  0  0
    7.7331    1.4050    0.0000 C   0  0  3  0  0  0  0  0  0  0  0  0
    7.7331    0.4050    0.0000 C   0  0  0  0  0  0  0  0  0  0  0  0
    6.8671    1.9050    0.0000 C   0  0  0  0  0  0  0  0  0  0  0  0
    8.5991    1.9050    0.0000 C   0  0  0  0  0  0  0  0  0  0  0  0
    6.0010    1.4050    0.0000 C   0  0  0  0  0  0  0  0  0  0  0  0
    8.5991   -0.0950    0.0000 C   0  0  0  0  0  0  0  0  0  0  0  0
    6.8671    2.9050    0.0000 C   0  0  0  0  0  0  0  0  0  0  0  0
    9.5991    1.9050    0.0000 C   0  0  0  0  0  0  0  0  0  0  0  0
    8.5991   -1.0950    0.0000 C   0  0  0  0  0  0  0  0  0  0  0  0
    6.0010    4.4050    0.0000 C   0  0  0  0  0  0  0  0  0  0  0  0
    4.5981   -3.4050    0.0000 H   0  0  0  0  0  0  0  0  0  0  0  0
    4.2690   -3.2150    0.0000 H   0  0  0  0  0  0  0  0  0  0  0  0
    6.0010   -3.2150    0.0000 H   0  0  0  0  0  0  0  0  0  0  0  0
    4.2690   -0.9750    0.0000 H   0  0  0  0  0  0  0  0  0  0  0  0
    6.0010   -0.9750    0.0000 H   0  0  0  0  0  0  0  0  0  0  0  0
    7.4040   -0.4050    0.0000 H   0  0  0  0  0  0  0  0  0  0  0  0
    3.8015   -0.6201    0.0000 H   0  0  0  0  0  0  0  0  0  0  0  0
    3.0044   -0.6201    0.0000 H   0  0  0  0  0  0  0  0  0  0  0  0
    8.2700    1.0950    0.0000 H   0  0  0  0  0  0  0  0  0  0  0  0
    4.5981   -4.4050    0.0000 H   0  0  0  0  0  0  0  0  0  0  0  0
    3.4030   -3.7150    0.0000 H   0  0  0  0  0  0  0  0  0  0  0  0
    6.8671   -3.7150    0.0000 H   0  0  0  0  0  0  0  0  0  0  0  0
    8.8112    2.4876    0.0000 H   0  0  0  0  0  0  0  0  0  0  0  0
    8.7596    1.3061    0.0000 H   0  0  0  0  0  0  0  0  0  0  0  0
    5.4641    1.7150    0.0000 H   0  0  0  0  0  0  0  0  0  0  0  0
    9.2191   -0.0950    0.0000 H   0  0  0  0  0  0  0  0  0  0  0  0
    2.0000   -1.2850    0.0000 H   0  0  0  0  0  0  0  0  0  0  0  0
    7.9791   -1.0950    0.0000 H   0  0  0  0  0  0  0  0  0  0  0  0
    8.5991   -1.7150    0.0000 H   0  0  0  0  0  0  0  0  0  0  0  0
    9.2191   -1.0950    0.0000 H   0  0  0  0  0  0  0  0  0  0  0  0
   10.7191    2.7710    0.0000 H   0  0  0  0  0  0  0  0  0  0  0  0
    6.6210    4.4050    0.0000 H   0  0  0  0  0  0  0  0  0  0  0  0
    6.0010    5.0250    0.0000 H   0  0  0  0  0  0  0  0  0  0  0  0
    5.3810    4.4050    0.0000 H   0  0  0  0  0  0  0  0  0  0  0  0
  1 15  1  0  0  0  0
  1 16  1  0  0  0  0
  2 16  1  0  0  0  0
  2 17  1  0  0  0  0
  3 12  1  0  0  0  0
  3 38  1  0  0  0  0
  4 13  1  0  0  0  0
  4 39  1  0  0  0  0
  5 14  1  0  0  0  0
  5 40  1  0  0  0  0
  6 17  1  0  0  0  0
  6 23  1  0  0  0  0
  7 18  1  0  0  0  0
  7 45  1  0  0  0  0
  8 25  1  0  0  0  0
  8 28  1  0  0  0  0
  9 26  1  0  0  0  0
  9 49  1  0  0  0  0
 10 25  2  0  0  0  0
 11 26  2  0  0  0  0
 12 13  1  0  0  0  0
 12 14  1  0  0  0  0
 12 29  1  0  0  0  0
 13 15  1  0  0  0  0
 13 30  1  0  0  0  0
 14 16  1  0  0  0  0
 14 31  1  0  0  0  0
 15 18  1  0  0  0  0
 15 32  1  0  0  0  0
 16 33  1  0  0  0  0
 17 20  1  0  0  0  0
 17 34  1  0  0  0  0
 18 35  1  0  0  0  0
 18 36  1  0  0  0  0
 19 20  1  0  0  0  0
 19 21  1  0  0  0  0
 19 22  1  0  0  0  0
 19 37  1  0  0  0  0
 20 24  2  0  0  0  0
 21 23  2  0  0  0  0
 21 25  1  0  0  0  0
 22 26  1  0  0  0  0
 22 41  1  0  0  0  0
 22 42  1  0  0  0  0
 23 43  1  0  0  0  0
 24 27  1  0  0  0  0
 24 44  1  0  0  0  0
 27 46  1  0  0  0  0
 27 47  1  0  0  0  0
 27 48  1  0  0  0  0
 28 50  1  0  0  0  0
 28 51  1  0  0  0  0
 28 52  1  0  0  0  0
M  END
>  <PUBCHEM_COMPOUND_CID>
131753164

>  <PUBCHEM_COMPOUND_CANONICALIZED>
1

>  <PUBCHEM_CACTVS_COMPLEXITY>
643

>  <PUBCHEM_CACTVS_HBOND_ACCEPTOR>
11

>  <PUBCHEM_CACTVS_HBOND_DONOR>
5

>  <PUBCHEM_CACTVS_ROTATABLE_BOND>
7

>  <PUBCHEM_CACTVS_SUBSKEYS>
AAADceB4PAAAAAAAAAAAAAAAAAAAAAAAAAAkQAAAAAAAAAAAAAAAGgAACAAADRSwgAMCCAAABgCIAiDSCAAACAAgIAAACAEAAEgRFBIAIQAiUAAFgAAPIIPIZgwKAAAAAAAAAAAAAAAAAAAAAAAAAAAAAA==

>  <PUBCHEM_IUPAC_OPENEYE_NAME>
2-[(3Z)-3-ethylidene-5-methoxycarbonyl-2-[3,4,5-trihydroxy-6-(hydroxymethyl)tetrahydropyran-2-yl]oxy-4H-pyran-4-yl]acetic acid

>  <PUBCHEM_IUPAC_CAS_NAME>
2-[(3Z)-3-ethylidene-5-methoxycarbonyl-2-[[3,4,5-trihydroxy-6-(hydroxymethyl)-2-oxanyl]oxy]-4H-pyran-4-yl]acetic acid

>  <PUBCHEM_IUPAC_NAME>
2-[(3Z)-3-ethylidene-5-methoxycarbonyl-2-[3,4,5-trihydroxy-6-(hydroxymethyl)oxan-2-yl]oxy-4H-pyran-4-yl]acetic acid

>  <PUBCHEM_IUPAC_SYSTEMATIC_NAME>
2-[(3Z)-3-ethylidene-2-[6-(hydroxymethyl)-3,4,5-tris(oxidanyl)oxan-2-yl]oxy-5-methoxycarbonyl-4H-pyran-4-yl]ethanoic acid

>  <PUBCHEM_IUPAC_TRADITIONAL_NAME>
2-[(3Z)-5-carbomethoxy-3-ethylidene-2-(3,4,5-trihydroxy-6-methylol-tetrahydropyran-2-yl)oxy-4H-pyran-4-yl]acetic acid

>  <PUBCHEM_IUPAC_INCHI>
InChI=1S/C17H24O11/c1-3-7-8(4-11(19)20)9(15(24)25-2)6-26-16(7)28-17-14(23)13(22)12(21)10(5-18)27-17/h3,6,8,10,12-14,16-18,21-23H,4-5H2,1-2H3,(H,19,20)/b7-3-

>  <PUBCHEM_IUPAC_INCHIKEY>
XSCVKBFEPYGZSL-CLTKARDFSA-N

>  <PUBCHEM_EXACT_MASS>
404.132

>  <PUBCHEM_MOLECULAR_FORMULA>
C17H24O11

>  <PUBCHEM_MOLECULAR_WEIGHT>
404.368

>  <PUBCHEM_OPENEYE_CAN_SMILES>
CC=C1C(C(=COC1OC2C(C(C(C(O2)CO)O)O)O)C(=O)OC)CC(=O)O

>  <PUBCHEM_OPENEYE_ISO_SMILES>
C/C=C\1/C(C(=COC1OC2C(C(C(C(O2)CO)O)O)O)C(=O)OC)CC(=O)O

>  <PUBCHEM_CACTVS_TPSA>
172

>  <PUBCHEM_MONOISOTOPIC_WEIGHT>
404.132

>  <PUBCHEM_TOTAL_CHARGE>
0

>  <PUBCHEM_HEAVY_ATOM_COUNT>
28

>  <PUBCHEM_ATOM_DEF_STEREO_COUNT>
0

>  <PUBCHEM_ATOM_UDEF_STEREO_COUNT>
7

>  <PUBCHEM_BOND_DEF_STEREO_COUNT>
1

>  <PUBCHEM_BOND_UDEF_STEREO_COUNT>
0

>  <PUBCHEM_ISOTOPIC_ATOM_COUNT>
0

>  <PUBCHEM_COMPONENT_COUNT>
1

>  <PUBCHEM_CACTVS_TAUTO_COUNT>
1

>  <PUBCHEM_COORDINATE_TYPE>
1
5
255

>  <PUBCHEM_BONDANNOTATIONS>
15  18  3
19  22  3
16  2  3
17  2  3
12  3  3
13  4  3
14  5  3

$$$$
