131751382
 OpenBabel06101807152D

 63 65  0  0  1  0  0  0  0  0999 V2000
    6.0010   -1.3280    0.0000 O   0  0  0  0  0  0  0  0  0  0  0  0
    4.2690   -1.3280    0.0000 O   0  0  0  0  0  0  0  0  0  0  0  0
    7.5010   -1.1940    0.0000 O   0  0  0  0  0  0  0  0  0  0  0  0
    8.2644    4.6380    0.0000 O   0  0  0  0  0  0  0  0  0  0  0  0
    6.0010   -3.3280    0.0000 O   0  0  0  0  0  0  0  0  0  0  0  0
    4.2690   -4.3280    0.0000 O   0  0  0  0  0  0  0  0  0  0  0  0
    2.5369   -3.3280    0.0000 O   0  0  0  0  0  0  0  0  0  0  0  0
    2.5369   -0.3279    0.0000 O   0  0  0  0  0  0  0  0  0  0  0  0
    6.5010    2.2109    0.0000 C   0  0  3  0  0  0  0  0  0  0  0  0
    6.0010    0.6721    0.0000 C   0  0  3  0  0  0  0  0  0  0  0  0
    6.8100    1.2598    0.0000 C   0  0  0  0  0  0  0  0  0  0  0  0
    5.5010    2.2109    0.0000 C   0  0  0  0  0  0  0  0  0  0  0  0
    5.1920    1.2598    0.0000 C   0  0  0  0  0  0  0  0  0  0  0  0
    6.0943    3.1244    0.0000 C   0  0  3  0  0  0  0  0  0  0  0  0
    6.0010   -0.3279    0.0000 C   0  0  3  0  0  0  0  0  0  0  0  0
    7.4956    2.1064    0.0000 C   0  0  0  0  0  0  0  0  0  0  0  0
    6.6821    3.9335    0.0000 C   0  0  0  0  0  0  0  0  0  0  0  0
    5.0998    3.2290    0.0000 C   0  0  0  0  0  0  0  0  0  0  0  0
    7.0010   -0.3279    0.0000 C   0  0  0  0  0  0  0  0  0  0  0  0
    5.0010   -0.3279    0.0000 C   0  0  0  0  0  0  0  0  0  0  0  0
    8.0833    2.9154    0.0000 C   0  0  0  0  0  0  0  0  0  0  0  0
    7.6766    3.8289    0.0000 C   0  0  0  0  0  0  0  0  0  0  0  0
    7.9023    1.1928    0.0000 C   0  0  0  0  0  0  0  0  0  0  0  0
    5.1350   -1.8280    0.0000 C   0  0  3  0  0  0  0  0  0  0  0  0
    5.1350   -2.8280    0.0000 C   0  0  3  0  0  0  0  0  0  0  0  0
    4.2690   -3.3280    0.0000 C   0  0  3  0  0  0  0  0  0  0  0  0
    3.4030   -1.8280    0.0000 C   0  0  3  0  0  0  0  0  0  0  0  0
    3.4030   -2.8280    0.0000 C   0  0  3  0  0  0  0  0  0  0  0  0
    2.5369   -1.3280    0.0000 C   0  0  0  0  0  0  0  0  0  0  0  0
    5.4486    0.3906    0.0000 H   0  0  0  0  0  0  0  0  0  0  0  0
    7.1200    0.7229    0.0000 H   0  0  0  0  0  0  0  0  0  0  0  0
    7.3764    1.5120    0.0000 H   0  0  0  0  0  0  0  0  0  0  0  0
    5.5658    2.8275    0.0000 H   0  0  0  0  0  0  0  0  0  0  0  0
    4.8946    2.3398    0.0000 H   0  0  0  0  0  0  0  0  0  0  0  0
    4.6256    1.5120    0.0000 H   0  0  0  0  0  0  0  0  0  0  0  0
    4.8820    0.7229    0.0000 H   0  0  0  0  0  0  0  0  0  0  0  0
    5.8421    3.6908    0.0000 H   0  0  0  0  0  0  0  0  0  0  0  0
    6.8530    4.5294    0.0000 H   0  0  0  0  0  0  0  0  0  0  0  0
    6.1248    4.2053    0.0000 H   0  0  0  0  0  0  0  0  0  0  0  0
    5.1646    3.8456    0.0000 H   0  0  0  0  0  0  0  0  0  0  0  0
    4.4832    3.2938    0.0000 H   0  0  0  0  0  0  0  0  0  0  0  0
    5.0350    2.6124    0.0000 H   0  0  0  0  0  0  0  0  0  0  0  0
    7.5836   -0.1159    0.0000 H   0  0  0  0  0  0  0  0  0  0  0  0
    6.8934    0.2826    0.0000 H   0  0  0  0  0  0  0  0  0  0  0  0
    5.0010    0.2921    0.0000 H   0  0  0  0  0  0  0  0  0  0  0  0
    4.3810   -0.3279    0.0000 H   0  0  0  0  0  0  0  0  0  0  0  0
    5.0010   -0.9479    0.0000 H   0  0  0  0  0  0  0  0  0  0  0  0
    8.7000    2.8506    0.0000 H   0  0  0  0  0  0  0  0  0  0  0  0
    7.3359    0.9406    0.0000 H   0  0  0  0  0  0  0  0  0  0  0  0
    8.1545    0.6264    0.0000 H   0  0  0  0  0  0  0  0  0  0  0  0
    8.4687    1.4450    0.0000 H   0  0  0  0  0  0  0  0  0  0  0  0
    5.1350   -1.2080    0.0000 H   0  0  0  0  0  0  0  0  0  0  0  0
    5.1350   -3.4480    0.0000 H   0  0  0  0  0  0  0  0  0  0  0  0
    3.7320   -3.6380    0.0000 H   0  0  0  0  0  0  0  0  0  0  0  0
    3.4030   -1.2080    0.0000 H   0  0  0  0  0  0  0  0  0  0  0  0
    3.4030   -3.4480    0.0000 H   0  0  0  0  0  0  0  0  0  0  0  0
    8.1210   -1.1940    0.0000 H   0  0  0  0  0  0  0  0  0  0  0  0
    1.9264   -1.2203    0.0000 H   0  0  0  0  0  0  0  0  0  0  0  0
    2.3249   -1.9106    0.0000 H   0  0  0  0  0  0  0  0  0  0  0  0
    6.0010   -3.9480    0.0000 H   0  0  0  0  0  0  0  0  0  0  0  0
    3.7320   -4.6380    0.0000 H   0  0  0  0  0  0  0  0  0  0  0  0
    2.0000   -3.0180    0.0000 H   0  0  0  0  0  0  0  0  0  0  0  0
    2.0000   -0.0179    0.0000 H   0  0  0  0  0  0  0  0  0  0  0  0
  1 15  1  0  0  0  0
  1 24  1  0  0  0  0
  2 24  1  0  0  0  0
  2 27  1  0  0  0  0
  3 19  1  0  0  0  0
  3 57  1  0  0  0  0
  4 22  2  0  0  0  0
  5 25  1  0  0  0  0
  5 60  1  0  0  0  0
  6 26  1  0  0  0  0
  6 61  1  0  0  0  0
  7 28  1  0  0  0  0
  7 62  1  0  0  0  0
  8 29  1  0  0  0  0
  8 63  1  0  0  0  0
  9 11  1  0  0  0  0
  9 12  1  0  0  0  0
  9 14  1  0  0  0  0
  9 16  1  0  0  0  0
 10 11  1  0  0  0  0
 10 13  1  0  0  0  0
 10 15  1  0  0  0  0
 10 30  1  0  0  0  0
 11 31  1  0  0  0  0
 11 32  1  0  0  0  0
 12 13  1  0  0  0  0
 12 33  1  0  0  0  0
 12 34  1  0  0  0  0
 13 35  1  0  0  0  0
 13 36  1  0  0  0  0
 14 17  1  0  0  0  0
 14 18  1  0  0  0  0
 14 37  1  0  0  0  0
 15 19  1  0  0  0  0
 15 20  1  0  0  0  0
 16 21  2  0  0  0  0
 16 23  1  0  0  0  0
 17 22  1  0  0  0  0
 17 38  1  0  0  0  0
 17 39  1  0  0  0  0
 18 40  1  0  0  0  0
 18 41  1  0  0  0  0
 18 42  1  0  0  0  0
 19 43  1  0  0  0  0
 19 44  1  0  0  0  0
 20 45  1  0  0  0  0
 20 46  1  0  0  0  0
 20 47  1  0  0  0  0
 21 22  1  0  0  0  0
 21 48  1  0  0  0  0
 23 49  1  0  0  0  0
 23 50  1  0  0  0  0
 23 51  1  0  0  0  0
 24 25  1  0  0  0  0
 24 52  1  0  0  0  0
 25 26  1  0  0  0  0
 25 53  1  0  0  0  0
 26 28  1  0  0  0  0
 26 54  1  0  0  0  0
 27 28  1  0  0  0  0
 27 29  1  0  0  0  0
 27 55  1  0  0  0  0
 28 56  1  0  0  0  0
 29 58  1  0  0  0  0
 29 59  1  0  0  0  0
M  END
>  <PUBCHEM_COMPOUND_CID>
131751382

>  <PUBCHEM_COMPOUND_CANONICALIZED>
1

>  <PUBCHEM_CACTVS_COMPLEXITY>
651

>  <PUBCHEM_CACTVS_HBOND_ACCEPTOR>
8

>  <PUBCHEM_CACTVS_HBOND_DONOR>
5

>  <PUBCHEM_CACTVS_ROTATABLE_BOND>
5

>  <PUBCHEM_CACTVS_SUBSKEYS>
AAADcfB4PAAAAAAAAAAAAAAAAAAAAYAAAAAkQAAAAAAAAAAAAAAAGgAACAAAD1SwgAMCCAAABgCIAqBSAAAAAAAgAAAACAEAAEgREBIAAQAiQAAFgAAPAQPI6PyPgAAAAAAAAAAAAAAAAAAAAQAAAAAAAA==

>  <PUBCHEM_IUPAC_OPENEYE_NAME>
3-[2-hydroxy-1-methyl-1-[3,4,5-trihydroxy-6-(hydroxymethyl)tetrahydropyran-2-yl]oxy-ethyl]-6,10-dimethyl-spiro[4.5]dec-9-en-8-one

>  <PUBCHEM_IUPAC_CAS_NAME>
3-[1-hydroxy-2-[[3,4,5-trihydroxy-6-(hydroxymethyl)-2-oxanyl]oxy]propan-2-yl]-6,10-dimethyl-8-spiro[4.5]dec-9-enone

>  <PUBCHEM_IUPAC_NAME>
3-[1-hydroxy-2-[3,4,5-trihydroxy-6-(hydroxymethyl)oxan-2-yl]oxypropan-2-yl]-6,10-dimethylspiro[4.5]dec-9-en-8-one

>  <PUBCHEM_IUPAC_SYSTEMATIC_NAME>
3-[2-[6-(hydroxymethyl)-3,4,5-tris(oxidanyl)oxan-2-yl]oxy-1-oxidanyl-propan-2-yl]-6,10-dimethyl-spiro[4.5]dec-9-en-8-one

>  <PUBCHEM_IUPAC_TRADITIONAL_NAME>
3-[2-hydroxy-1-methyl-1-(3,4,5-trihydroxy-6-methylol-tetrahydropyran-2-yl)oxy-ethyl]-6,10-dimethyl-spiro[4.5]dec-9-en-8-one

>  <PUBCHEM_IUPAC_INCHI>
InChI=1S/C21H34O8/c1-11-6-14(24)7-12(2)21(11)5-4-13(8-21)20(3,10-23)29-19-18(27)17(26)16(25)15(9-22)28-19/h6,12-13,15-19,22-23,25-27H,4-5,7-10H2,1-3H3

>  <PUBCHEM_IUPAC_INCHIKEY>
UQEPDFZSKJICHS-UHFFFAOYSA-N

>  <PUBCHEM_EXACT_MASS>
414.225

>  <PUBCHEM_MOLECULAR_FORMULA>
C21H34O8

>  <PUBCHEM_MOLECULAR_WEIGHT>
414.495

>  <PUBCHEM_OPENEYE_CAN_SMILES>
CC1CC(=O)C=C(C12CCC(C2)C(C)(CO)OC3C(C(C(C(O3)CO)O)O)O)C

>  <PUBCHEM_OPENEYE_ISO_SMILES>
CC1CC(=O)C=C(C12CCC(C2)C(C)(CO)OC3C(C(C(C(O3)CO)O)O)O)C

>  <PUBCHEM_CACTVS_TPSA>
137

>  <PUBCHEM_MONOISOTOPIC_WEIGHT>
414.225

>  <PUBCHEM_TOTAL_CHARGE>
0

>  <PUBCHEM_HEAVY_ATOM_COUNT>
29

>  <PUBCHEM_ATOM_DEF_STEREO_COUNT>
0

>  <PUBCHEM_ATOM_UDEF_STEREO_COUNT>
9

>  <PUBCHEM_BOND_DEF_STEREO_COUNT>
0

>  <PUBCHEM_BOND_UDEF_STEREO_COUNT>
0

>  <PUBCHEM_ISOTOPIC_ATOM_COUNT>
0

>  <PUBCHEM_COMPONENT_COUNT>
1

>  <PUBCHEM_CACTVS_TAUTO_COUNT>
5

>  <PUBCHEM_COORDINATE_TYPE>
1
5
255

>  <PUBCHEM_BONDANNOTATIONS>
24  1  3
10  13  3
14  18  3
15  20  3
27  29  3
25  5  3
26  6  3
28  7  3
9  12  3

$$$$
