131752262
 OpenBabel06101807152D

 70 74  0  0  1  0  0  0  0  0999 V2000
   11.1972   -1.1296    0.0000 O   0  0  0  0  0  0  0  0  0  0  0  0
   12.9292   -1.1296    0.0000 O   0  0  0  0  0  0  0  0  0  0  0  0
    9.4651   -3.1296    0.0000 O   0  0  0  0  0  0  0  0  0  0  0  0
   11.1972   -4.1296    0.0000 O   0  0  0  0  0  0  0  0  0  0  0  0
   12.9292   -3.1296    0.0000 O   0  0  0  0  0  0  0  0  0  0  0  0
    8.5991   -1.6296    0.0000 O   0  0  0  0  0  0  0  0  0  0  0  0
   13.7953    1.3704    0.0000 O   0  0  0  0  0  0  0  0  0  0  0  0
    7.7331   -0.1296    0.0000 O   0  3  0  0  0  0  0  0  0  0  0  0
   10.2930    1.3672    0.0000 O   0  0  0  0  0  0  0  0  0  0  0  0
   15.5273   -2.6296    0.0000 O   0  0  0  0  0  0  0  0  0  0  0  0
   12.0511    4.4396    0.0000 O   0  0  0  0  0  0  0  0  0  0  0  0
   17.2594   -1.6296    0.0000 O   0  0  0  0  0  0  0  0  0  0  0  0
    2.5369   -3.1296    0.0000 O   0  0  0  0  0  0  0  0  0  0  0  0
   10.3312   -2.6296    0.0000 C   0  0  3  0  0  0  0  0  0  0  0  0
   11.1972   -3.1296    0.0000 C   0  0  3  0  0  0  0  0  0  0  0  0
   10.3312   -1.6296    0.0000 C   0  0  3  0  0  0  0  0  0  0  0  0
   12.0632   -2.6296    0.0000 C   0  0  3  0  0  0  0  0  0  0  0  0
   12.0632   -1.6296    0.0000 C   0  0  3  0  0  0  0  0  0  0  0  0
    9.4651   -1.1296    0.0000 C   0  0  0  0  0  0  0  0  0  0  0  0
   12.9292   -0.1296    0.0000 C   0  0  0  0  0  0  0  0  0  0  0  0
   13.7953    0.3704    0.0000 C   0  0  0  0  0  0  0  0  0  0  0  0
   12.0632    0.3704    0.0000 C   0  0  0  0  0  0  0  0  0  0  0  0
   12.0632    1.3704    0.0000 C   0  0  0  0  0  0  0  0  0  0  0  0
    7.7331   -1.1296    0.0000 C   0  0  0  0  0  0  0  0  0  0  0  0
   12.9292    1.8704    0.0000 C   0  0  0  0  0  0  0  0  0  0  0  0
   14.6613   -0.1296    0.0000 C   0  0  0  0  0  0  0  0  0  0  0  0
   11.1532    1.8772    0.0000 C   0  0  0  0  0  0  0  0  0  0  0  0
   12.9453    2.9119    0.0000 C   0  0  0  0  0  0  0  0  0  0  0  0
    6.8671   -1.6296    0.0000 C   0  0  0  0  0  0  0  0  0  0  0  0
   14.6613   -1.1296    0.0000 C   0  0  0  0  0  0  0  0  0  0  0  0
   15.5273    0.3704    0.0000 C   0  0  0  0  0  0  0  0  0  0  0  0
   11.1452    2.9188    0.0000 C   0  0  0  0  0  0  0  0  0  0  0  0
   12.0473    3.4396    0.0000 C   0  0  0  0  0  0  0  0  0  0  0  0
   15.5273   -1.6296    0.0000 C   0  0  0  0  0  0  0  0  0  0  0  0
   16.3933   -0.1296    0.0000 C   0  0  0  0  0  0  0  0  0  0  0  0
    6.0010   -1.1296    0.0000 C   0  0  0  0  0  0  0  0  0  0  0  0
   16.3933   -1.1296    0.0000 C   0  0  0  0  0  0  0  0  0  0  0  0
    5.1350   -1.6296    0.0000 C   0  0  0  0  0  0  0  0  0  0  0  0
    5.1350   -2.6296    0.0000 C   0  0  0  0  0  0  0  0  0  0  0  0
    4.2690   -1.1296    0.0000 C   0  0  0  0  0  0  0  0  0  0  0  0
    4.2690   -3.1296    0.0000 C   0  0  0  0  0  0  0  0  0  0  0  0
    3.4030   -1.6296    0.0000 C   0  0  0  0  0  0  0  0  0  0  0  0
    3.4030   -2.6296    0.0000 C   0  0  0  0  0  0  0  0  0  0  0  0
    9.7942   -2.3196    0.0000 H   0  0  0  0  0  0  0  0  0  0  0  0
   10.6603   -3.4396    0.0000 H   0  0  0  0  0  0  0  0  0  0  0  0
   10.3312   -1.0096    0.0000 H   0  0  0  0  0  0  0  0  0  0  0  0
   12.0632   -3.2496    0.0000 H   0  0  0  0  0  0  0  0  0  0  0  0
   12.0632   -1.0096    0.0000 H   0  0  0  0  0  0  0  0  0  0  0  0
    9.8637   -0.6547    0.0000 H   0  0  0  0  0  0  0  0  0  0  0  0
    9.0666   -0.6547    0.0000 H   0  0  0  0  0  0  0  0  0  0  0  0
    9.4651   -3.7496    0.0000 H   0  0  0  0  0  0  0  0  0  0  0  0
   10.6603   -4.4396    0.0000 H   0  0  0  0  0  0  0  0  0  0  0  0
   12.9292   -3.7496    0.0000 H   0  0  0  0  0  0  0  0  0  0  0  0
   11.5263    0.0604    0.0000 H   0  0  0  0  0  0  0  0  0  0  0  0
   13.4858    3.2156    0.0000 H   0  0  0  0  0  0  0  0  0  0  0  0
    6.8671   -2.2496    0.0000 H   0  0  0  0  0  0  0  0  0  0  0  0
   14.1244   -1.4396    0.0000 H   0  0  0  0  0  0  0  0  0  0  0  0
   15.5273    0.9904    0.0000 H   0  0  0  0  0  0  0  0  0  0  0  0
   10.6071    3.2268    0.0000 H   0  0  0  0  0  0  0  0  0  0  0  0
    7.1962    0.1804    0.0000 H   0  0  0  0  0  0  0  0  0  0  0  0
   16.9303    0.1804    0.0000 H   0  0  0  0  0  0  0  0  0  0  0  0
    6.0010   -0.5096    0.0000 H   0  0  0  0  0  0  0  0  0  0  0  0
    9.7525    1.6710    0.0000 H   0  0  0  0  0  0  0  0  0  0  0  0
   16.0643   -2.9396    0.0000 H   0  0  0  0  0  0  0  0  0  0  0  0
   17.7963   -1.3196    0.0000 H   0  0  0  0  0  0  0  0  0  0  0  0
    5.6720   -2.9396    0.0000 H   0  0  0  0  0  0  0  0  0  0  0  0
    4.2690   -0.5096    0.0000 H   0  0  0  0  0  0  0  0  0  0  0  0
    4.2690   -3.7496    0.0000 H   0  0  0  0  0  0  0  0  0  0  0  0
    2.8660   -1.3196    0.0000 H   0  0  0  0  0  0  0  0  0  0  0  0
    2.0000   -2.8196    0.0000 H   0  0  0  0  0  0  0  0  0  0  0  0
  1 16  1  0  0  0  0
  1 18  1  0  0  0  0
  2 18  1  0  0  0  0
  2 20  1  0  0  0  0
  3 14  1  0  0  0  0
  3 51  1  0  0  0  0
  4 15  1  0  0  0  0
  4 52  1  0  0  0  0
  5 17  1  0  0  0  0
  5 53  1  0  0  0  0
  6 19  1  0  0  0  0
  6 24  1  0  0  0  0
  7 21  1  0  0  0  0
  7 25  1  0  0  0  0
  8 24  2  0  0  0  0
  8 60  1  0  0  0  0
  9 27  1  0  0  0  0
  9 63  1  0  0  0  0
 10 34  1  0  0  0  0
 10 64  1  0  0  0  0
 11 33  2  0  0  0  0
 12 37  1  0  0  0  0
 12 65  1  0  0  0  0
 13 43  1  0  0  0  0
 13 70  1  0  0  0  0
 14 15  1  0  0  0  0
 14 16  1  0  0  0  0
 14 44  1  0  0  0  0
 15 17  1  0  0  0  0
 15 45  1  0  0  0  0
 16 19  1  0  0  0  0
 16 46  1  0  0  0  0
 17 18  1  0  0  0  0
 17 47  1  0  0  0  0
 18 48  1  0  0  0  0
 19 49  1  0  0  0  0
 19 50  1  0  0  0  0
 20 21  2  0  0  0  0
 20 22  1  0  0  0  0
 21 26  1  0  0  0  0
 22 23  2  0  0  0  0
 22 54  1  0  0  0  0
 23 25  1  0  0  0  0
 23 27  1  0  0  0  0
 24 29  1  0  0  0  0
 25 28  2  0  0  0  0
 26 30  2  0  0  0  0
 26 31  1  0  0  0  0
 27 32  2  0  0  0  0
 28 33  1  0  0  0  0
 28 55  1  0  0  0  0
 29 36  2  0  0  0  0
 29 56  1  0  0  0  0
 30 34  1  0  0  0  0
 30 57  1  0  0  0  0
 31 35  2  0  0  0  0
 31 58  1  0  0  0  0
 32 33  1  0  0  0  0
 32 59  1  0  0  0  0
 34 37  2  0  0  0  0
 35 37  1  0  0  0  0
 35 61  1  0  0  0  0
 36 38  1  0  0  0  0
 36 62  1  0  0  0  0
 38 39  2  0  0  0  0
 38 40  1  0  0  0  0
 39 41  1  0  0  0  0
 39 66  1  0  0  0  0
 40 42  2  0  0  0  0
 40 67  1  0  0  0  0
 41 43  2  0  0  0  0
 41 68  1  0  0  0  0
 42 43  1  0  0  0  0
 42 69  1  0  0  0  0
M  CHG  1   8   1
M  END
>  <PUBCHEM_COMPOUND_CID>
131752262

>  <PUBCHEM_COMPOUND_CANONICALIZED>
1

>  <PUBCHEM_CACTVS_COMPLEXITY>
1220

>  <PUBCHEM_CACTVS_HBOND_ACCEPTOR>
12

>  <PUBCHEM_CACTVS_HBOND_DONOR>
8

>  <PUBCHEM_CACTVS_ROTATABLE_BOND>
8

>  <PUBCHEM_CACTVS_SUBSKEYS>
AAADceB4PAAAAAAAAAAAAAAAAAAAAAAAAAA0YIECAAAAAACBQAAAGgAACAAADBSwmAMwDoAABgCIAqDSCAACCAAgIAAIiAAGiMgZNiKCMRqicAElwBEPuYfA4DwOIAABAAAAQABAAAIAAACAAAAAAAAAAA==

>  <PUBCHEM_IUPAC_OPENEYE_NAME>
[(E)-1-[[6-[2-(3,4-dihydroxyphenyl)-5-hydroxy-7-oxo-chromen-3-yl]oxy-3,4,5-trihydroxy-tetrahydropyran-2-yl]methoxy]-3-(4-hydroxyphenyl)prop-2-enylidene]oxonium

>  <PUBCHEM_IUPAC_CAS_NAME>
[(E)-1-[[6-[[2-(3,4-dihydroxyphenyl)-5-hydroxy-7-oxo-1-benzopyran-3-yl]oxy]-3,4,5-trihydroxy-2-oxanyl]methoxy]-3-(4-hydroxyphenyl)prop-2-enylidene]oxonium

>  <PUBCHEM_IUPAC_NAME>
[(E)-1-[[6-[2-(3,4-dihydroxyphenyl)-5-hydroxy-7-oxochromen-3-yl]oxy-3,4,5-trihydroxyoxan-2-yl]methoxy]-3-(4-hydroxyphenyl)prop-2-enylidene]oxidanium

>  <PUBCHEM_IUPAC_SYSTEMATIC_NAME>
[(E)-1-[[6-[2-[3,4-bis(oxidanyl)phenyl]-5-oxidanyl-7-oxidanylidene-chromen-3-yl]oxy-3,4,5-tris(oxidanyl)oxan-2-yl]methoxy]-3-(4-hydroxyphenyl)prop-2-enylidene]oxidanium

>  <PUBCHEM_IUPAC_TRADITIONAL_NAME>
[(E)-1-[[6-[2-(3,4-dihydroxyphenyl)-5-hydroxy-7-keto-chromen-3-yl]oxy-3,4,5-trihydroxy-tetrahydropyran-2-yl]methoxy]-3-(4-hydroxyphenyl)prop-2-enylidene]oxonium

>  <PUBCHEM_IUPAC_INCHI>
InChI=1S/C30H26O13/c31-16-5-1-14(2-6-16)3-8-25(36)40-13-24-26(37)27(38)28(39)30(43-24)42-23-12-18-20(34)10-17(32)11-22(18)41-29(23)15-4-7-19(33)21(35)9-15/h1-12,24,26-28,30-31,33-35,37-39H,13H2/p+1/b8-3+

>  <PUBCHEM_IUPAC_INCHIKEY>
GZRFRVHXDLGUFY-FPYGCLRLSA-O

>  <PUBCHEM_EXACT_MASS>
595.145

>  <PUBCHEM_MOLECULAR_FORMULA>
C30H27O13+

>  <PUBCHEM_MOLECULAR_WEIGHT>
595.533

>  <PUBCHEM_OPENEYE_CAN_SMILES>
C1=CC(=CC=C1C=CC(=[OH+])OCC2C(C(C(C(O2)OC3=C(OC4=CC(=O)C=C(C4=C3)O)C5=CC(=C(C=C5)O)O)O)O)O)O

>  <PUBCHEM_OPENEYE_ISO_SMILES>
C1=CC(=CC=C1/C=C/C(=[OH+])OCC2C(C(C(C(O2)OC3=C(OC4=CC(=O)C=C(C4=C3)O)C5=CC(=C(C=C5)O)O)O)O)O)O

>  <PUBCHEM_CACTVS_TPSA>
197

>  <PUBCHEM_MONOISOTOPIC_WEIGHT>
595.145

>  <PUBCHEM_TOTAL_CHARGE>
1

>  <PUBCHEM_HEAVY_ATOM_COUNT>
43

>  <PUBCHEM_ATOM_DEF_STEREO_COUNT>
0

>  <PUBCHEM_ATOM_UDEF_STEREO_COUNT>
5

>  <PUBCHEM_BOND_DEF_STEREO_COUNT>
1

>  <PUBCHEM_BOND_UDEF_STEREO_COUNT>
0

>  <PUBCHEM_ISOTOPIC_ATOM_COUNT>
0

>  <PUBCHEM_COMPONENT_COUNT>
1

>  <PUBCHEM_CACTVS_TAUTO_COUNT>
228

>  <PUBCHEM_COORDINATE_TYPE>
1
5
255

>  <PUBCHEM_BONDANNOTATIONS>
16  19  3
18  2  3
20  21  8
20  22  8
22  23  8
23  27  8
25  28  8
26  30  8
26  31  8
27  32  8
28  33  8
14  3  3
30  34  8
31  35  8
32  33  8
34  37  8
35  37  8
38  39  8
38  40  8
39  41  8
15  4  3
40  42  8
41  43  8
42  43  8
17  5  3
7  21  8
7  25  8

$$$$
