131751431
 OpenBabel06101807152D

 68 69  0  0  0  0  0  0  0  0999 V2000
   11.1972    3.5000    0.0000 O   0  0  0  0  0  0  0  0  0  0  0  0
    4.2690   -3.5000    0.0000 O   0  0  0  0  0  0  0  0  0  0  0  0
    9.4651    8.5000    0.0000 O   0  0  0  0  0  0  0  0  0  0  0  0
   11.1972    9.5000    0.0000 O   0  0  0  0  0  0  0  0  0  0  0  0
    2.5369   -8.5000    0.0000 O   0  0  0  0  0  0  0  0  0  0  0  0
    4.2690   -9.5000    0.0000 O   0  0  0  0  0  0  0  0  0  0  0  0
    7.7331   -0.5000    0.0000 N   0  0  0  0  0  0  0  0  0  0  0  0
    9.4651    3.5000    0.0000 N   0  0  0  0  0  0  0  0  0  0  0  0
    6.0010   -3.5000    0.0000 N   0  0  0  0  0  0  0  0  0  0  0  0
    8.5991    1.0000    0.0000 C   0  0  0  0  0  0  0  0  0  0  0  0
    7.7331    0.5000    0.0000 C   0  0  0  0  0  0  0  0  0  0  0  0
    8.5991    2.0000    0.0000 C   0  0  0  0  0  0  0  0  0  0  0  0
    6.8671   -1.0000    0.0000 C   0  0  0  0  0  0  0  0  0  0  0  0
    6.8671   -2.0000    0.0000 C   0  0  0  0  0  0  0  0  0  0  0  0
    9.4651    2.5000    0.0000 C   0  0  0  0  0  0  0  0  0  0  0  0
    6.0010   -2.5000    0.0000 C   0  0  0  0  0  0  0  0  0  0  0  0
   10.3312    4.0000    0.0000 C   0  0  0  0  0  0  0  0  0  0  0  0
    5.1350   -4.0000    0.0000 C   0  0  0  0  0  0  0  0  0  0  0  0
   10.3312    5.0000    0.0000 C   0  0  0  0  0  0  0  0  0  0  0  0
    5.1350   -5.0000    0.0000 C   0  0  0  0  0  0  0  0  0  0  0  0
   11.1972    5.5000    0.0000 C   0  0  0  0  0  0  0  0  0  0  0  0
   11.1972    6.5000    0.0000 C   0  0  0  0  0  0  0  0  0  0  0  0
    4.2690   -5.5000    0.0000 C   0  0  0  0  0  0  0  0  0  0  0  0
    4.2690   -6.5000    0.0000 C   0  0  0  0  0  0  0  0  0  0  0  0
   10.3312    7.0000    0.0000 C   0  0  0  0  0  0  0  0  0  0  0  0
   12.0632    7.0000    0.0000 C   0  0  0  0  0  0  0  0  0  0  0  0
   10.3312    8.0000    0.0000 C   0  0  0  0  0  0  0  0  0  0  0  0
    3.4030   -7.0000    0.0000 C   0  0  0  0  0  0  0  0  0  0  0  0
   12.0632    8.0000    0.0000 C   0  0  0  0  0  0  0  0  0  0  0  0
   11.1972    8.5000    0.0000 C   0  0  0  0  0  0  0  0  0  0  0  0
    5.1350   -7.0000    0.0000 C   0  0  0  0  0  0  0  0  0  0  0  0
    3.4030   -8.0000    0.0000 C   0  0  0  0  0  0  0  0  0  0  0  0
    5.1350   -8.0000    0.0000 C   0  0  0  0  0  0  0  0  0  0  0  0
    4.2690   -8.5000    0.0000 C   0  0  0  0  0  0  0  0  0  0  0  0
    9.4651    9.5000    0.0000 C   0  0  0  0  0  0  0  0  0  0  0  0
    8.8112    0.4174    0.0000 H   0  0  0  0  0  0  0  0  0  0  0  0
    9.2097    1.1077    0.0000 H   0  0  0  0  0  0  0  0  0  0  0  0
    7.5210    1.0826    0.0000 H   0  0  0  0  0  0  0  0  0  0  0  0
    7.1225    0.3923    0.0000 H   0  0  0  0  0  0  0  0  0  0  0  0
    8.3871    2.5826    0.0000 H   0  0  0  0  0  0  0  0  0  0  0  0
    7.9885    1.8923    0.0000 H   0  0  0  0  0  0  0  0  0  0  0  0
    6.6550   -0.4174    0.0000 H   0  0  0  0  0  0  0  0  0  0  0  0
    6.2565   -1.1077    0.0000 H   0  0  0  0  0  0  0  0  0  0  0  0
    8.2700   -0.8100    0.0000 H   0  0  0  0  0  0  0  0  0  0  0  0
    7.0791   -2.5826    0.0000 H   0  0  0  0  0  0  0  0  0  0  0  0
    7.4776   -1.8923    0.0000 H   0  0  0  0  0  0  0  0  0  0  0  0
    9.6772    1.9174    0.0000 H   0  0  0  0  0  0  0  0  0  0  0  0
   10.0757    2.6077    0.0000 H   0  0  0  0  0  0  0  0  0  0  0  0
    5.7890   -1.9174    0.0000 H   0  0  0  0  0  0  0  0  0  0  0  0
    5.3905   -2.6077    0.0000 H   0  0  0  0  0  0  0  0  0  0  0  0
    8.9282    3.8100    0.0000 H   0  0  0  0  0  0  0  0  0  0  0  0
    6.5380   -3.8100    0.0000 H   0  0  0  0  0  0  0  0  0  0  0  0
    9.7942    5.3100    0.0000 H   0  0  0  0  0  0  0  0  0  0  0  0
    5.6720   -5.3100    0.0000 H   0  0  0  0  0  0  0  0  0  0  0  0
   11.7341    5.1900    0.0000 H   0  0  0  0  0  0  0  0  0  0  0  0
    3.7320   -5.1900    0.0000 H   0  0  0  0  0  0  0  0  0  0  0  0
    9.7942    6.6900    0.0000 H   0  0  0  0  0  0  0  0  0  0  0  0
   12.6002    6.6900    0.0000 H   0  0  0  0  0  0  0  0  0  0  0  0
    2.8660   -6.6900    0.0000 H   0  0  0  0  0  0  0  0  0  0  0  0
   12.6002    8.3100    0.0000 H   0  0  0  0  0  0  0  0  0  0  0  0
    5.6720   -6.6900    0.0000 H   0  0  0  0  0  0  0  0  0  0  0  0
    5.6720   -8.3100    0.0000 H   0  0  0  0  0  0  0  0  0  0  0  0
   11.7341    9.8100    0.0000 H   0  0  0  0  0  0  0  0  0  0  0  0
   10.0851    9.5000    0.0000 H   0  0  0  0  0  0  0  0  0  0  0  0
    9.4651   10.1200    0.0000 H   0  0  0  0  0  0  0  0  0  0  0  0
    8.8451    9.5000    0.0000 H   0  0  0  0  0  0  0  0  0  0  0  0
    2.0000   -8.1900    0.0000 H   0  0  0  0  0  0  0  0  0  0  0  0
    4.8059   -9.8100    0.0000 H   0  0  0  0  0  0  0  0  0  0  0  0
  1 17  2  0  0  0  0
  2 18  2  0  0  0  0
  3 27  1  0  0  0  0
  3 35  1  0  0  0  0
  4 30  1  0  0  0  0
  4 63  1  0  0  0  0
  5 32  1  0  0  0  0
  5 67  1  0  0  0  0
  6 34  1  0  0  0  0
  6 68  1  0  0  0  0
  7 11  1  0  0  0  0
  7 13  1  0  0  0  0
  7 44  1  0  0  0  0
  8 15  1  0  0  0  0
  8 17  1  0  0  0  0
  8 51  1  0  0  0  0
  9 16  1  0  0  0  0
  9 18  1  0  0  0  0
  9 52  1  0  0  0  0
 10 11  1  0  0  0  0
 10 12  1  0  0  0  0
 10 36  1  0  0  0  0
 10 37  1  0  0  0  0
 11 38  1  0  0  0  0
 11 39  1  0  0  0  0
 12 15  1  0  0  0  0
 12 40  1  0  0  0  0
 12 41  1  0  0  0  0
 13 14  1  0  0  0  0
 13 42  1  0  0  0  0
 13 43  1  0  0  0  0
 14 16  1  0  0  0  0
 14 45  1  0  0  0  0
 14 46  1  0  0  0  0
 15 47  1  0  0  0  0
 15 48  1  0  0  0  0
 16 49  1  0  0  0  0
 16 50  1  0  0  0  0
 17 19  1  0  0  0  0
 18 20  1  0  0  0  0
 19 21  2  0  0  0  0
 19 53  1  0  0  0  0
 20 23  2  0  0  0  0
 20 54  1  0  0  0  0
 21 22  1  0  0  0  0
 21 55  1  0  0  0  0
 22 25  2  0  0  0  0
 22 26  1  0  0  0  0
 23 24  1  0  0  0  0
 23 56  1  0  0  0  0
 24 28  2  0  0  0  0
 24 31  1  0  0  0  0
 25 27  1  0  0  0  0
 25 57  1  0  0  0  0
 26 29  2  0  0  0  0
 26 58  1  0  0  0  0
 27 30  2  0  0  0  0
 28 32  1  0  0  0  0
 28 59  1  0  0  0  0
 29 30  1  0  0  0  0
 29 60  1  0  0  0  0
 31 33  2  0  0  0  0
 31 61  1  0  0  0  0
 32 34  2  0  0  0  0
 33 34  1  0  0  0  0
 33 62  1  0  0  0  0
 35 64  1  0  0  0  0
 35 65  1  0  0  0  0
 35 66  1  0  0  0  0
M  END
>  <PUBCHEM_COMPOUND_CID>
131751431

>  <PUBCHEM_COMPOUND_CANONICALIZED>
1

>  <PUBCHEM_CACTVS_COMPLEXITY>
686

>  <PUBCHEM_CACTVS_HBOND_ACCEPTOR>
7

>  <PUBCHEM_CACTVS_HBOND_DONOR>
6

>  <PUBCHEM_CACTVS_ROTATABLE_BOND>
14

>  <PUBCHEM_CACTVS_SUBSKEYS>
AAADcfB7OAAAAAAAAAAAAAAAAAAAAAAAAAAwYAAAAAAAAAABQAAAHgAQCAAADATBmAYyBoLABgCIAiFSEACCCAAgIAAIiIAOiMgNJiKG8RqEcCMk1hGLuYeAwBAOIAABAAAAQABAAAIAAACAAAAAAAAAAA==

>  <PUBCHEM_IUPAC_OPENEYE_NAME>
(E)-3-(3,4-dihydroxyphenyl)-N-[3-[4-[[(E)-3-(4-hydroxy-3-methoxy-phenyl)prop-2-enoyl]amino]butylamino]propyl]prop-2-enamide

>  <PUBCHEM_IUPAC_CAS_NAME>
(E)-3-(3,4-dihydroxyphenyl)-N-[3-[4-[[(E)-3-(4-hydroxy-3-methoxyphenyl)-1-oxoprop-2-enyl]amino]butylamino]propyl]-2-propenamide

>  <PUBCHEM_IUPAC_NAME>
(E)-3-(3,4-dihydroxyphenyl)-N-[3-[4-[[(E)-3-(4-hydroxy-3-methoxyphenyl)prop-2-enoyl]amino]butylamino]propyl]prop-2-enamide

>  <PUBCHEM_IUPAC_SYSTEMATIC_NAME>
(E)-3-[3,4-bis(oxidanyl)phenyl]-N-[3-[4-[[(E)-3-(3-methoxy-4-oxidanyl-phenyl)prop-2-enoyl]amino]butylamino]propyl]prop-2-enamide

>  <PUBCHEM_IUPAC_TRADITIONAL_NAME>
(E)-3-(3,4-dihydroxyphenyl)-N-[3-[4-[[(E)-3-(4-hydroxy-3-methoxy-phenyl)acryloyl]amino]butylamino]propyl]acrylamide

>  <PUBCHEM_IUPAC_INCHI>
InChI=1S/C26H33N3O6/c1-35-24-18-20(6-10-22(24)31)8-12-25(33)28-15-3-2-13-27-14-4-16-29-26(34)11-7-19-5-9-21(30)23(32)17-19/h5-12,17-18,27,30-32H,2-4,13-16H2,1H3,(H,28,33)(H,29,34)/b11-7+,12-8+

>  <PUBCHEM_IUPAC_INCHIKEY>
YUUGXIVVDZSRNR-MKICQXMISA-N

>  <PUBCHEM_EXACT_MASS>
483.237

>  <PUBCHEM_MOLECULAR_FORMULA>
C26H33N3O6

>  <PUBCHEM_MOLECULAR_WEIGHT>
483.565

>  <PUBCHEM_OPENEYE_CAN_SMILES>
COC1=C(C=CC(=C1)C=CC(=O)NCCCCNCCCNC(=O)C=CC2=CC(=C(C=C2)O)O)O

>  <PUBCHEM_OPENEYE_ISO_SMILES>
COC1=C(C=CC(=C1)/C=C/C(=O)NCCCCNCCCNC(=O)/C=C/C2=CC(=C(C=C2)O)O)O

>  <PUBCHEM_CACTVS_TPSA>
140

>  <PUBCHEM_MONOISOTOPIC_WEIGHT>
483.237

>  <PUBCHEM_TOTAL_CHARGE>
0

>  <PUBCHEM_HEAVY_ATOM_COUNT>
35

>  <PUBCHEM_ATOM_DEF_STEREO_COUNT>
0

>  <PUBCHEM_ATOM_UDEF_STEREO_COUNT>
0

>  <PUBCHEM_BOND_DEF_STEREO_COUNT>
2

>  <PUBCHEM_BOND_UDEF_STEREO_COUNT>
0

>  <PUBCHEM_ISOTOPIC_ATOM_COUNT>
0

>  <PUBCHEM_COMPONENT_COUNT>
1

>  <PUBCHEM_CACTVS_TAUTO_COUNT>
261

>  <PUBCHEM_COORDINATE_TYPE>
1
5
255

>  <PUBCHEM_BONDANNOTATIONS>
22  25  8
22  26  8
24  28  8
24  31  8
25  27  8
26  29  8
27  30  8
28  32  8
29  30  8
31  33  8
32  34  8
33  34  8

$$$$
