131751257
 OpenBabel06101807152D

 51 53  0  0  1  0  0  0  0  0999 V2000
    2.5863   -1.8131    0.0000 O   0  0  0  0  0  0  0  0  0  0  0  0
    6.7429   -2.3724    0.0000 O   0  0  0  0  0  0  0  0  0  0  0  0
    4.6771    0.3940    0.0000 O   0  0  0  0  0  0  0  0  0  0  0  0
    2.8275   -3.6450    0.0000 O   0  0  0  0  0  0  0  0  0  0  0  0
    8.2469   -1.2959    0.0000 O   0  0  0  0  0  0  0  0  0  0  0  0
    3.6103   -0.2394    0.0000 O   0  0  0  0  0  0  0  0  0  0  0  0
    6.0039    1.5074    0.0000 O   0  0  0  0  0  0  0  0  0  0  0  0
    2.8452   -0.8472    0.0000 C   0  0  3  0  0  0  0  0  0  0  0  0
    5.5431   -1.1060    0.0000 C   0  0  3  0  0  0  0  0  0  0  0  0
    4.6771   -0.6060    0.0000 C   0  0  3  0  0  0  0  0  0  0  0  0
    3.8111   -1.1060    0.0000 C   0  0  0  0  0  0  0  0  0  0  0  0
    5.6844   -2.1791    0.0000 C   0  0  3  0  0  0  0  0  0  0  0  0
    3.0863   -2.6791    0.0000 C   0  0  3  0  0  0  0  0  0  0  0  0
    2.0000   -1.3850    0.0000 C   0  0  0  0  0  0  0  0  0  0  0  0
    6.5155   -0.6453    0.0000 C   0  0  0  0  0  0  0  0  0  0  0  0
    3.9524   -2.1791    0.0000 C   0  0  0  0  0  0  0  0  0  0  0  0
    4.8184   -2.6791    0.0000 C   0  0  0  0  0  0  0  0  0  0  0  0
    2.6932    0.1412    0.0000 C   0  0  0  0  0  0  0  0  0  0  0  0
    2.1308   -2.3783    0.0000 C   0  0  0  0  0  0  0  0  0  0  0  0
    7.2555   -1.4264    0.0000 C   0  0  0  0  0  0  0  0  0  0  0  0
    3.9524   -1.1791    0.0000 C   0  0  0  0  0  0  0  0  0  0  0  0
    7.2882   -0.0105    0.0000 C   0  0  0  0  0  0  0  0  0  0  0  0
    5.0191    1.3337    0.0000 C   0  0  0  0  0  0  0  0  0  0  0  0
    4.3763    2.0998    0.0000 C   0  0  0  0  0  0  0  0  0  0  0  0
    3.3915    1.9261    0.0000 C   0  0  0  0  0  0  0  0  0  0  0  0
    4.7184    3.0395    0.0000 C   0  0  0  0  0  0  0  0  0  0  0  0
    4.0756    3.8055    0.0000 C   0  0  0  0  0  0  0  0  0  0  0  0
    6.0876   -1.4025    0.0000 H   0  0  0  0  0  0  0  0  0  0  0  0
    5.2140   -0.2960    0.0000 H   0  0  0  0  0  0  0  0  0  0  0  0
    3.5011   -1.6429    0.0000 H   0  0  0  0  0  0  0  0  0  0  0  0
    4.2495   -1.5444    0.0000 H   0  0  0  0  0  0  0  0  0  0  0  0
    5.7902   -2.7900    0.0000 H   0  0  0  0  0  0  0  0  0  0  0  0
    1.4382   -1.1229    0.0000 H   0  0  0  0  0  0  0  0  0  0  0  0
    4.8184   -3.2991    0.0000 H   0  0  0  0  0  0  0  0  0  0  0  0
    3.3060    0.2354    0.0000 H   0  0  0  0  0  0  0  0  0  0  0  0
    2.5991    0.7540    0.0000 H   0  0  0  0  0  0  0  0  0  0  0  0
    2.0804    0.0471    0.0000 H   0  0  0  0  0  0  0  0  0  0  0  0
    1.6559   -2.7769    0.0000 H   0  0  0  0  0  0  0  0  0  0  0  0
    4.5216   -1.4247    0.0000 H   0  0  0  0  0  0  0  0  0  0  0  0
    3.3418   -1.2868    0.0000 H   0  0  0  0  0  0  0  0  0  0  0  0
    2.2286   -3.8055    0.0000 H   0  0  0  0  0  0  0  0  0  0  0  0
    7.8686   -0.2287    0.0000 H   0  0  0  0  0  0  0  0  0  0  0  0
    7.1870    0.6011    0.0000 H   0  0  0  0  0  0  0  0  0  0  0  0
    4.0089    0.2355    0.0000 H   0  0  0  0  0  0  0  0  0  0  0  0
    3.2839    2.5367    0.0000 H   0  0  0  0  0  0  0  0  0  0  0  0
    2.7809    1.8184    0.0000 H   0  0  0  0  0  0  0  0  0  0  0  0
    3.4992    1.3155    0.0000 H   0  0  0  0  0  0  0  0  0  0  0  0
    5.3289    3.1471    0.0000 H   0  0  0  0  0  0  0  0  0  0  0  0
    4.5505    4.2040    0.0000 H   0  0  0  0  0  0  0  0  0  0  0  0
    3.6770    4.2804    0.0000 H   0  0  0  0  0  0  0  0  0  0  0  0
    3.6006    3.4070    0.0000 H   0  0  0  0  0  0  0  0  0  0  0  0
  1  8  1  0  0  0  0
  1 13  1  0  0  0  0
  2 12  1  0  0  0  0
  2 20  1  0  0  0  0
  3 10  1  0  0  0  0
  3 23  1  0  0  0  0
  4 13  1  0  0  0  0
  4 41  1  0  0  0  0
  5 20  2  0  0  0  0
  6 21  1  0  0  0  0
  6 44  1  0  0  0  0
  7 23  2  0  0  0  0
  8 11  1  0  0  0  0
  8 14  1  0  0  0  0
  8 18  1  0  0  0  0
  9 10  1  0  0  0  0
  9 12  1  0  0  0  0
  9 15  1  0  0  0  0
  9 28  1  0  0  0  0
 10 11  1  0  0  0  0
 10 29  1  0  0  0  0
 11 30  1  0  0  0  0
 11 31  1  0  0  0  0
 12 17  1  0  0  0  0
 12 32  1  0  0  0  0
 13 16  1  0  0  0  0
 13 19  1  0  0  0  0
 14 19  2  0  0  0  0
 14 33  1  0  0  0  0
 15 20  1  0  0  0  0
 15 22  2  0  0  0  0
 16 17  2  0  0  0  0
 16 21  1  0  0  0  0
 17 34  1  0  0  0  0
 18 35  1  0  0  0  0
 18 36  1  0  0  0  0
 18 37  1  0  0  0  0
 19 38  1  0  0  0  0
 21 39  1  0  0  0  0
 21 40  1  0  0  0  0
 22 42  1  0  0  0  0
 22 43  1  0  0  0  0
 23 24  1  0  0  0  0
 24 25  1  0  0  0  0
 24 26  2  0  0  0  0
 25 45  1  0  0  0  0
 25 46  1  0  0  0  0
 25 47  1  0  0  0  0
 26 27  1  0  0  0  0
 26 48  1  0  0  0  0
 27 49  1  0  0  0  0
 27 50  1  0  0  0  0
 27 51  1  0  0  0  0
M  END
>  <PUBCHEM_COMPOUND_CID>
131751257

>  <PUBCHEM_COMPOUND_CANONICALIZED>
1

>  <PUBCHEM_CACTVS_COMPLEXITY>
777

>  <PUBCHEM_CACTVS_HBOND_ACCEPTOR>
7

>  <PUBCHEM_CACTVS_HBOND_DONOR>
2

>  <PUBCHEM_CACTVS_ROTATABLE_BOND>
4

>  <PUBCHEM_CACTVS_SUBSKEYS>
AAADceB4OAAAAAAAAAAAAAAAAAAAASIAAAAAAAAAAAAAAECAAAAAGgAACAAADVSggAICCAAABgCIAiDSCAAAAAAgAAAICAEAAEgQFBIAIQACUAAFwAAMMYPK6HyOAAAAAAAAAAAAAAAAAAAAAAAAAAAAAA==

>  <PUBCHEM_IUPAC_INCHI>
InChI=1S/C20H24O7/c1-5-11(2)17(22)26-15-9-19(4)6-7-20(24,27-19)13(10-21)8-14-16(15)12(3)18(23)25-14/h5-8,14-16,21,24H,3,9-10H2,1-2,4H3/b11-5+,13-8+

>  <PUBCHEM_IUPAC_INCHIKEY>
ZXQIVEHVNKQIIU-PZLJUMJASA-N

>  <PUBCHEM_EXACT_MASS>
376.152

>  <PUBCHEM_MOLECULAR_FORMULA>
C20H24O7

>  <PUBCHEM_MOLECULAR_WEIGHT>
376.405

>  <PUBCHEM_OPENEYE_CAN_SMILES>
CC=C(C)C(=O)OC1CC2(C=CC(O2)(C(=CC3C1C(=C)C(=O)O3)CO)O)C

>  <PUBCHEM_OPENEYE_ISO_SMILES>
C/C=C(\C)/C(=O)OC1CC2(C=CC(O2)(/C(=C/C3C1C(=C)C(=O)O3)/CO)O)C

>  <PUBCHEM_CACTVS_TPSA>
102

>  <PUBCHEM_MONOISOTOPIC_WEIGHT>
376.152

>  <PUBCHEM_TOTAL_CHARGE>
0

>  <PUBCHEM_HEAVY_ATOM_COUNT>
27

>  <PUBCHEM_ATOM_DEF_STEREO_COUNT>
0

>  <PUBCHEM_ATOM_UDEF_STEREO_COUNT>
5

>  <PUBCHEM_BOND_DEF_STEREO_COUNT>
2

>  <PUBCHEM_BOND_UDEF_STEREO_COUNT>
0

>  <PUBCHEM_ISOTOPIC_ATOM_COUNT>
0

>  <PUBCHEM_COMPONENT_COUNT>
1

>  <PUBCHEM_CACTVS_TAUTO_COUNT>
1

>  <PUBCHEM_COORDINATE_TYPE>
1
5
255

>  <PUBCHEM_BONDANNOTATIONS>
12  17  3
10  3  3
13  4  3
8  18  3
9  15  3

$$$$
