131752613
 OpenBabel06101807152D

 72 76  0  0  1  0  0  0  0  0999 V2000
    8.6054    5.3813    0.0000 O   0  0  0  0  0  0  0  0  0  0  0  0
    5.1350   -4.6913    0.0000 O   0  0  0  0  0  0  0  0  0  0  0  0
    7.7452    3.8780    0.0000 O   0  0  0  0  0  0  0  0  0  0  0  0
   11.2016    5.8913    0.0000 O   0  0  0  0  0  0  0  0  0  0  0  0
   11.2093    3.8913    0.0000 O   0  0  0  0  0  0  0  0  0  0  0  0
    3.4030   -6.6913    0.0000 O   0  0  0  0  0  0  0  0  0  0  0  0
    5.1350   -7.6913    0.0000 O   0  0  0  0  0  0  0  0  0  0  0  0
    6.8671   -4.6913    0.0000 O   0  0  0  0  0  0  0  0  0  0  0  0
    9.4811    2.8847    0.0000 O   0  0  0  0  0  0  0  0  0  0  0  0
    6.8671   -6.6913    0.0000 O   0  0  0  0  0  0  0  0  0  0  0  0
    8.5977    7.3813    0.0000 O   0  0  0  0  0  0  0  0  0  0  0  0
    2.5369   -5.1913    0.0000 O   0  0  0  0  0  0  0  0  0  0  0  0
    6.0010    0.8087    0.0000 O   0  0  0  0  0  0  0  0  0  0  0  0
    5.1350   -1.6913    0.0000 O   0  0  0  0  0  0  0  0  0  0  0  0
    8.5991   -0.6913    0.0000 O   0  0  0  0  0  0  0  0  0  0  0  0
   10.3375    5.3880    0.0000 C   0  0  3  0  0  0  0  0  0  0  0  0
   10.3413    4.3880    0.0000 C   0  0  3  0  0  0  0  0  0  0  0  0
    4.2690   -6.1913    0.0000 C   0  0  3  0  0  0  0  0  0  0  0  0
    5.1350   -6.6913    0.0000 C   0  0  3  0  0  0  0  0  0  0  0  0
    9.4695    5.8846    0.0000 C   0  0  3  0  0  0  0  0  0  0  0  0
    9.4772    3.8846    0.0000 C   0  0  3  0  0  0  0  0  0  0  0  0
    4.2690   -5.1913    0.0000 C   0  0  3  0  0  0  0  0  0  0  0  0
    6.0010   -6.1913    0.0000 C   0  0  3  0  0  0  0  0  0  0  0  0
    8.6093    4.3813    0.0000 C   0  0  3  0  0  0  0  0  0  0  0  0
    6.0010   -5.1913    0.0000 C   0  0  3  0  0  0  0  0  0  0  0  0
    9.4657    6.8846    0.0000 C   0  0  0  0  0  0  0  0  0  0  0  0
    3.4030   -4.6913    0.0000 C   0  0  0  0  0  0  0  0  0  0  0  0
    7.7490    2.8780    0.0000 C   0  0  0  0  0  0  0  0  0  0  0  0
    6.8671   -3.6913    0.0000 C   0  0  0  0  0  0  0  0  0  0  0  0
    6.8510    2.3502    0.0000 C   0  0  0  0  0  0  0  0  0  0  0  0
    8.6511    2.3572    0.0000 C   0  0  0  0  0  0  0  0  0  0  0  0
    6.0010   -3.1913    0.0000 C   0  0  0  0  0  0  0  0  0  0  0  0
    7.7331   -3.1913    0.0000 C   0  0  0  0  0  0  0  0  0  0  0  0
    6.8671    1.3087    0.0000 C   0  0  0  0  0  0  0  0  0  0  0  0
    7.7331    0.8087    0.0000 C   0  0  0  0  0  0  0  0  0  0  0  0
    6.8671   -1.6913    0.0000 C   0  0  0  0  0  0  0  0  0  0  0  0
    6.0010   -2.1913    0.0000 C   0  0  0  0  0  0  0  0  0  0  0  0
    8.6431    1.3156    0.0000 C   0  0  0  0  0  0  0  0  0  0  0  0
    6.8671   -0.6913    0.0000 C   0  0  0  0  0  0  0  0  0  0  0  0
    7.7331   -2.1913    0.0000 C   0  0  0  0  0  0  0  0  0  0  0  0
    7.7331   -0.1913    0.0000 C   0  0  0  0  0  0  0  0  0  0  0  0
    6.0010   -0.1913    0.0000 C   0  0  0  0  0  0  0  0  0  0  0  0
   10.8756    5.0800    0.0000 H   0  0  0  0  0  0  0  0  0  0  0  0
   10.8771    4.7000    0.0000 H   0  0  0  0  0  0  0  0  0  0  0  0
    4.2690   -6.8113    0.0000 H   0  0  0  0  0  0  0  0  0  0  0  0
    4.5981   -7.0013    0.0000 H   0  0  0  0  0  0  0  0  0  0  0  0
    8.9314    6.1926    0.0000 H   0  0  0  0  0  0  0  0  0  0  0  0
   10.0154    3.5767    0.0000 H   0  0  0  0  0  0  0  0  0  0  0  0
    4.2690   -4.5713    0.0000 H   0  0  0  0  0  0  0  0  0  0  0  0
    6.0010   -6.8113    0.0000 H   0  0  0  0  0  0  0  0  0  0  0  0
    8.6117    3.7613    0.0000 H   0  0  0  0  0  0  0  0  0  0  0  0
    6.0010   -4.5713    0.0000 H   0  0  0  0  0  0  0  0  0  0  0  0
   10.0767    6.7793    0.0000 H   0  0  0  0  0  0  0  0  0  0  0  0
    9.6755    7.4680    0.0000 H   0  0  0  0  0  0  0  0  0  0  0  0
    3.8015   -4.2163    0.0000 H   0  0  0  0  0  0  0  0  0  0  0  0
    3.0044   -4.2163    0.0000 H   0  0  0  0  0  0  0  0  0  0  0  0
   11.1992    6.5113    0.0000 H   0  0  0  0  0  0  0  0  0  0  0  0
   11.7450    4.2034    0.0000 H   0  0  0  0  0  0  0  0  0  0  0  0
    3.4030   -7.3113    0.0000 H   0  0  0  0  0  0  0  0  0  0  0  0
    5.6720   -8.0013    0.0000 H   0  0  0  0  0  0  0  0  0  0  0  0
   10.0192    2.5767    0.0000 H   0  0  0  0  0  0  0  0  0  0  0  0
    7.4040   -6.3813    0.0000 H   0  0  0  0  0  0  0  0  0  0  0  0
    8.5953    8.0013    0.0000 H   0  0  0  0  0  0  0  0  0  0  0  0
    2.0000   -4.8813    0.0000 H   0  0  0  0  0  0  0  0  0  0  0  0
    6.3105    2.6540    0.0000 H   0  0  0  0  0  0  0  0  0  0  0  0
    9.1892    2.6651    0.0000 H   0  0  0  0  0  0  0  0  0  0  0  0
    5.4641   -3.5013    0.0000 H   0  0  0  0  0  0  0  0  0  0  0  0
    8.2700   -3.5013    0.0000 H   0  0  0  0  0  0  0  0  0  0  0  0
    9.1764    0.9994    0.0000 H   0  0  0  0  0  0  0  0  0  0  0  0
    8.2700   -1.8813    0.0000 H   0  0  0  0  0  0  0  0  0  0  0  0
    5.4641   -0.5013    0.0000 H   0  0  0  0  0  0  0  0  0  0  0  0
    4.5981   -2.0013    0.0000 H   0  0  0  0  0  0  0  0  0  0  0  0
  1 20  1  0  0  0  0
  1 24  1  0  0  0  0
  2 22  1  0  0  0  0
  2 25  1  0  0  0  0
  3 24  1  0  0  0  0
  3 28  1  0  0  0  0
  4 16  1  0  0  0  0
  4 57  1  0  0  0  0
  5 17  1  0  0  0  0
  5 58  1  0  0  0  0
  6 18  1  0  0  0  0
  6 59  1  0  0  0  0
  7 19  1  0  0  0  0
  7 60  1  0  0  0  0
  8 25  1  0  0  0  0
  8 29  1  0  0  0  0
  9 21  1  0  0  0  0
  9 61  1  0  0  0  0
 10 23  1  0  0  0  0
 10 62  1  0  0  0  0
 11 26  1  0  0  0  0
 11 63  1  0  0  0  0
 12 27  1  0  0  0  0
 12 64  1  0  0  0  0
 13 34  1  0  0  0  0
 13 42  1  0  0  0  0
 14 37  1  0  0  0  0
 14 72  1  0  0  0  0
 15 41  2  0  0  0  0
 16 17  1  0  0  0  0
 16 20  1  0  0  0  0
 16 43  1  0  0  0  0
 17 21  1  0  0  0  0
 17 44  1  0  0  0  0
 18 19  1  0  0  0  0
 18 22  1  0  0  0  0
 18 45  1  0  0  0  0
 19 23  1  0  0  0  0
 19 46  1  0  0  0  0
 20 26  1  0  0  0  0
 20 47  1  0  0  0  0
 21 24  1  0  0  0  0
 21 48  1  0  0  0  0
 22 27  1  0  0  0  0
 22 49  1  0  0  0  0
 23 25  1  0  0  0  0
 23 50  1  0  0  0  0
 24 51  1  0  0  0  0
 25 52  1  0  0  0  0
 26 53  1  0  0  0  0
 26 54  1  0  0  0  0
 27 55  1  0  0  0  0
 27 56  1  0  0  0  0
 28 30  2  0  0  0  0
 28 31  1  0  0  0  0
 29 32  2  0  0  0  0
 29 33  1  0  0  0  0
 30 34  1  0  0  0  0
 30 65  1  0  0  0  0
 31 38  2  0  0  0  0
 31 66  1  0  0  0  0
 32 37  1  0  0  0  0
 32 67  1  0  0  0  0
 33 40  2  0  0  0  0
 33 68  1  0  0  0  0
 34 35  2  0  0  0  0
 35 38  1  0  0  0  0
 35 41  1  0  0  0  0
 36 37  2  0  0  0  0
 36 39  1  0  0  0  0
 36 40  1  0  0  0  0
 38 69  1  0  0  0  0
 39 41  1  0  0  0  0
 39 42  2  0  0  0  0
 40 70  1  0  0  0  0
 42 71  1  0  0  0  0
M  END
>  <PUBCHEM_COMPOUND_CID>
131752613

>  <PUBCHEM_COMPOUND_CANONICALIZED>
1

>  <PUBCHEM_CACTVS_COMPLEXITY>
964

>  <PUBCHEM_CACTVS_HBOND_ACCEPTOR>
15

>  <PUBCHEM_CACTVS_HBOND_DONOR>
9

>  <PUBCHEM_CACTVS_ROTATABLE_BOND>
7

>  <PUBCHEM_CACTVS_SUBSKEYS>
AAADceB4PAAAAAAAAAAAAAAAAAAAAAAAAAA0aIECAAAAAACBQAAAGgAACAAADBSwmAMwDoAABgCIAqBSAAACCAAkIAAIiAEGCMgdNzaGNRqieWCl4BUPuYfK7PzOIAAACAAIAABAAAAQABAAAAAAAAAAAA==

>  <PUBCHEM_IUPAC_OPENEYE_NAME>
3-[2-hydroxy-4-[3,4,5-trihydroxy-6-(hydroxymethyl)tetrahydropyran-2-yl]oxy-phenyl]-7-[3,4,5-trihydroxy-6-(hydroxymethyl)tetrahydropyran-2-yl]oxy-chromen-4-one

>  <PUBCHEM_IUPAC_CAS_NAME>
3-[2-hydroxy-4-[[3,4,5-trihydroxy-6-(hydroxymethyl)-2-oxanyl]oxy]phenyl]-7-[[3,4,5-trihydroxy-6-(hydroxymethyl)-2-oxanyl]oxy]-1-benzopyran-4-one

>  <PUBCHEM_IUPAC_NAME>
3-[2-hydroxy-4-[3,4,5-trihydroxy-6-(hydroxymethyl)oxan-2-yl]oxyphenyl]-7-[3,4,5-trihydroxy-6-(hydroxymethyl)oxan-2-yl]oxychromen-4-one

>  <PUBCHEM_IUPAC_SYSTEMATIC_NAME>
7-[6-(hydroxymethyl)-3,4,5-tris(oxidanyl)oxan-2-yl]oxy-3-[4-[6-(hydroxymethyl)-3,4,5-tris(oxidanyl)oxan-2-yl]oxy-2-oxidanyl-phenyl]chromen-4-one

>  <PUBCHEM_IUPAC_TRADITIONAL_NAME>
3-[2-hydroxy-4-(3,4,5-trihydroxy-6-methylol-tetrahydropyran-2-yl)oxy-phenyl]-7-(3,4,5-trihydroxy-6-methylol-tetrahydropyran-2-yl)oxy-chromone

>  <PUBCHEM_IUPAC_INCHI>
InChI=1S/C27H30O15/c28-7-17-20(32)22(34)24(36)26(41-17)39-10-1-3-12(15(30)5-10)14-9-38-16-6-11(2-4-13(16)19(14)31)40-27-25(37)23(35)21(33)18(8-29)42-27/h1-6,9,17-18,20-30,32-37H,7-8H2

>  <PUBCHEM_IUPAC_INCHIKEY>
DNPGZHRLHFUCNR-UHFFFAOYSA-N

>  <PUBCHEM_EXACT_MASS>
594.158

>  <PUBCHEM_MOLECULAR_FORMULA>
C27H30O15

>  <PUBCHEM_MOLECULAR_WEIGHT>
594.522

>  <PUBCHEM_OPENEYE_CAN_SMILES>
C1=CC(=C(C=C1OC2C(C(C(C(O2)CO)O)O)O)O)C3=COC4=C(C3=O)C=CC(=C4)OC5C(C(C(C(O5)CO)O)O)O

>  <PUBCHEM_OPENEYE_ISO_SMILES>
C1=CC(=C(C=C1OC2C(C(C(C(O2)CO)O)O)O)O)C3=COC4=C(C3=O)C=CC(=C4)OC5C(C(C(C(O5)CO)O)O)O

>  <PUBCHEM_CACTVS_TPSA>
245

>  <PUBCHEM_MONOISOTOPIC_WEIGHT>
594.158

>  <PUBCHEM_TOTAL_CHARGE>
0

>  <PUBCHEM_HEAVY_ATOM_COUNT>
42

>  <PUBCHEM_ATOM_DEF_STEREO_COUNT>
0

>  <PUBCHEM_ATOM_UDEF_STEREO_COUNT>
10

>  <PUBCHEM_BOND_DEF_STEREO_COUNT>
0

>  <PUBCHEM_BOND_UDEF_STEREO_COUNT>
0

>  <PUBCHEM_ISOTOPIC_ATOM_COUNT>
0

>  <PUBCHEM_COMPONENT_COUNT>
1

>  <PUBCHEM_CACTVS_TAUTO_COUNT>
3

>  <PUBCHEM_COORDINATE_TYPE>
1
5
255

>  <PUBCHEM_BONDANNOTATIONS>
23  10  3
13  34  8
13  42  8
20  26  3
22  27  3
28  30  8
28  31  8
29  32  8
29  33  8
24  3  3
30  34  8
31  38  8
32  37  8
33  40  8
34  35  8
35  38  8
35  41  8
36  37  8
36  40  8
39  41  8
39  42  8
16  4  3
17  5  3
18  6  3
19  7  3
25  8  3
21  9  3

$$$$
