131751489
 OpenBabel06101807152D

177187  0  0  1  0  0  0  0  0999 V2000
    8.2902    3.4270    0.0000 O   0  0  0  0  0  0  0  0  0  0  0  0
    8.1736    4.5892    0.0000 O   0  0  0  0  0  0  0  0  0  0  0  0
    6.8671   -4.8170    0.0000 O   0  0  0  0  0  0  0  0  0  0  0  0
    6.7419    6.8997    0.0000 O   0  0  0  0  0  0  0  0  0  0  0  0
    5.1350   -4.8170    0.0000 O   0  0  0  0  0  0  0  0  0  0  0  0
    5.7196    8.2979    0.0000 O   0  0  0  0  0  0  0  0  0  0  0  0
    6.8671   -6.8170    0.0000 O   0  0  0  0  0  0  0  0  0  0  0  0
    5.1350   -7.8170    0.0000 O   0  0  0  0  0  0  0  0  0  0  0  0
    8.3564    8.0801    0.0000 O   0  0  0  0  0  0  0  0  0  0  0  0
    3.4030   -6.8170    0.0000 O   0  0  0  0  0  0  0  0  0  0  0  0
    8.1414   10.0685    0.0000 O   0  0  0  0  0  0  0  0  0  0  0  0
    6.3119   10.8765    0.0000 O   0  0  0  0  0  0  0  0  0  0  0  0
    7.7331   -5.3170    0.0000 O   0  0  0  0  0  0  0  0  0  0  0  0
    2.5369   -5.3170    0.0000 O   0  0  0  0  0  0  0  0  0  0  0  0
    3.8901    9.1060    0.0000 O   0  0  0  0  0  0  0  0  0  0  0  0
    8.5991   -7.8170    0.0000 O   0  0  0  0  0  0  0  0  0  0  0  0
   10.3312   -6.8170    0.0000 O   0  0  0  0  0  0  0  0  0  0  0  0
   10.3312   -4.8170    0.0000 O   0  0  0  0  0  0  0  0  0  0  0  0
    9.4651   -3.3170    0.0000 O   0  0  0  0  0  0  0  0  0  0  0  0
    9.4651   -8.3170    0.0000 O   0  0  0  0  0  0  0  0  0  0  0  0
   11.9588   -5.4094    0.0000 O   0  0  0  0  0  0  0  0  0  0  0  0
   12.0632   -7.8170    0.0000 O   0  0  0  0  0  0  0  0  0  0  0  0
   11.0152   -2.9376    0.0000 O   0  0  0  0  0  0  0  0  0  0  0  0
   12.0632   -9.8170    0.0000 O   0  0  0  0  0  0  0  0  0  0  0  0
   12.9848   -2.5904    0.0000 O   0  0  0  0  0  0  0  0  0  0  0  0
   10.3312  -10.8170    0.0000 O   0  0  0  0  0  0  0  0  0  0  0  0
   14.2704   -4.1224    0.0000 O   0  0  0  0  0  0  0  0  0  0  0  0
    8.5991  -10.8170    0.0000 O   0  0  0  0  0  0  0  0  0  0  0  0
    6.8963    1.3798    0.0000 C   0  0  3  0  0  0  0  0  0  0  0  0
    7.7643    0.8832    0.0000 C   0  0  3  0  0  0  0  0  0  0  0  0
    7.1018    2.3525    0.0000 C   0  0  3  0  0  0  0  0  0  0  0  0
    7.7681   -0.1168    0.0000 C   0  0  3  0  0  0  0  0  0  0  0  0
    8.0901    2.4593    0.0000 C   0  0  3  0  0  0  0  0  0  0  0  0
    8.4987    1.5531    0.0000 C   0  0  0  0  0  0  0  0  0  0  0  0
    6.9040   -0.6201    0.0000 C   0  0  3  0  0  0  0  0  0  0  0  0
    6.6995    3.2551    0.0000 C   0  0  3  0  0  0  0  0  0  0  0  0
    6.0322    0.8765    0.0000 C   0  0  0  0  0  0  0  0  0  0  0  0
    7.4324    3.9178    0.0000 C   0  0  3  0  0  0  0  0  0  0  0  0
    6.0361   -0.1235    0.0000 C   0  0  0  0  0  0  0  0  0  0  0  0
    6.8920   -1.6617    0.0000 C   0  0  3  0  0  0  0  0  0  0  0  0
    6.0284    1.8765    0.0000 C   0  0  0  0  0  0  0  0  0  0  0  0
    8.6801   -0.6201    0.0000 C   0  0  0  0  0  0  0  0  0  0  0  0
    7.7920   -2.1860    0.0000 C   0  0  0  0  0  0  0  0  0  0  0  0
    6.5649    4.4153    0.0000 C   0  0  0  0  0  0  0  0  0  0  0  0
    5.9421   -2.1860    0.0000 C   0  0  0  0  0  0  0  0  0  0  0  0
    5.7211    3.4617    0.0000 C   0  0  0  0  0  0  0  0  0  0  0  0
    8.6921   -1.6617    0.0000 C   0  0  0  0  0  0  0  0  0  0  0  0
    7.7641    5.5015    0.0000 C   0  0  3  0  0  0  0  0  0  0  0  0
    6.0279   -1.1584    0.0000 C   0  0  0  0  0  0  0  0  0  0  0  0
    6.7699    5.3940    0.0000 C   0  0  0  0  0  0  0  0  0  0  0  0
    7.8046   -3.2709    0.0000 C   0  0  0  0  0  0  0  0  0  0  0  0
    5.9295   -3.2709    0.0000 C   0  0  0  0  0  0  0  0  0  0  0  0
    6.8671   -3.8170    0.0000 C   0  0  3  0  0  0  0  0  0  0  0  0
    7.6566    6.4957    0.0000 C   0  0  0  0  0  0  0  0  0  0  0  0
    8.6765    5.9110    0.0000 C   0  0  0  0  0  0  0  0  0  0  0  0
    6.0010   -5.3170    0.0000 C   0  0  3  0  0  0  0  0  0  0  0  0
    6.6344    7.8939    0.0000 C   0  0  3  0  0  0  0  0  0  0  0  0
    6.0010   -6.3170    0.0000 C   0  0  3  0  0  0  0  0  0  0  0  0
    5.1350   -6.8170    0.0000 C   0  0  3  0  0  0  0  0  0  0  0  0
    7.4416    8.4841    0.0000 C   0  0  3  0  0  0  0  0  0  0  0  0
    4.2690   -5.3170    0.0000 C   0  0  3  0  0  0  0  0  0  0  0  0
    4.2690   -6.3170    0.0000 C   0  0  3  0  0  0  0  0  0  0  0  0
    7.3341    9.4783    0.0000 C   0  0  3  0  0  0  0  0  0  0  0  0
    5.6121    9.2921    0.0000 C   0  0  3  0  0  0  0  0  0  0  0  0
    6.4194    9.8824    0.0000 C   0  0  3  0  0  0  0  0  0  0  0  0
    3.4030   -4.8170    0.0000 C   0  0  0  0  0  0  0  0  0  0  0  0
    7.7331   -6.3170    0.0000 C   0  0  3  0  0  0  0  0  0  0  0  0
    4.6974    9.6962    0.0000 C   0  0  0  0  0  0  0  0  0  0  0  0
    8.5991   -6.8170    0.0000 C   0  0  3  0  0  0  0  0  0  0  0  0
    9.4651   -6.3170    0.0000 C   0  0  3  0  0  0  0  0  0  0  0  0
    8.5991   -4.8170    0.0000 C   0  0  3  0  0  0  0  0  0  0  0  0
    9.4651   -5.3170    0.0000 C   0  0  3  0  0  0  0  0  0  0  0  0
    8.5991   -3.8170    0.0000 C   0  0  0  0  0  0  0  0  0  0  0  0
   10.3312   -7.8170    0.0000 C   0  0  3  0  0  0  0  0  0  0  0  0
   11.3160   -4.6434    0.0000 C   0  0  3  0  0  0  0  0  0  0  0  0
   11.1972   -8.3170    0.0000 C   0  0  3  0  0  0  0  0  0  0  0  0
   11.6580   -3.7037    0.0000 C   0  0  3  0  0  0  0  0  0  0  0  0
   11.1972   -9.3170    0.0000 C   0  0  3  0  0  0  0  0  0  0  0  0
    9.4651   -9.3170    0.0000 C   0  0  3  0  0  0  0  0  0  0  0  0
   12.6428   -3.5300    0.0000 C   0  0  3  0  0  0  0  0  0  0  0  0
   10.3312   -9.8170    0.0000 C   0  0  3  0  0  0  0  0  0  0  0  0
   12.9436   -5.2358    0.0000 C   0  0  3  0  0  0  0  0  0  0  0  0
   13.2856   -4.2961    0.0000 C   0  0  3  0  0  0  0  0  0  0  0  0
    8.5991   -9.8170    0.0000 C   0  0  0  0  0  0  0  0  0  0  0  0
   13.5864   -6.0018    0.0000 C   0  0  0  0  0  0  0  0  0  0  0  0
    8.3320    0.6339    0.0000 H   0  0  0  0  0  0  0  0  0  0  0  0
    6.4852    2.2871    0.0000 H   0  0  0  0  0  0  0  0  0  0  0  0
    8.3014    0.1994    0.0000 H   0  0  0  0  0  0  0  0  0  0  0  0
    8.7064    2.5273    0.0000 H   0  0  0  0  0  0  0  0  0  0  0  0
    8.8661    1.0537    0.0000 H   0  0  0  0  0  0  0  0  0  0  0  0
    9.0340    1.8659    0.0000 H   0  0  0  0  0  0  0  0  0  0  0  0
    7.4398   -0.9322    0.0000 H   0  0  0  0  0  0  0  0  0  0  0  0
    6.3097    2.7729    0.0000 H   0  0  0  0  0  0  0  0  0  0  0  0
    5.8179    1.4583    0.0000 H   0  0  0  0  0  0  0  0  0  0  0  0
    5.4221    0.7665    0.0000 H   0  0  0  0  0  0  0  0  0  0  0  0
    5.4251   -0.0182    0.0000 H   0  0  0  0  0  0  0  0  0  0  0  0
    5.8263   -0.7069    0.0000 H   0  0  0  0  0  0  0  0  0  0  0  0
    6.3363    2.4146    0.0000 H   0  0  0  0  0  0  0  0  0  0  0  0
    5.4902    2.1844    0.0000 H   0  0  0  0  0  0  0  0  0  0  0  0
    5.7204    1.3384    0.0000 H   0  0  0  0  0  0  0  0  0  0  0  0
    9.2921   -0.7192    0.0000 H   0  0  0  0  0  0  0  0  0  0  0  0
    8.8824   -0.0341    0.0000 H   0  0  0  0  0  0  0  0  0  0  0  0
    5.9747    4.6051    0.0000 H   0  0  0  0  0  0  0  0  0  0  0  0
    6.3145    3.8481    0.0000 H   0  0  0  0  0  0  0  0  0  0  0  0
    5.7398   -1.5999    0.0000 H   0  0  0  0  0  0  0  0  0  0  0  0
    5.3300   -2.2850    0.0000 H   0  0  0  0  0  0  0  0  0  0  0  0
    5.8492    4.0684    0.0000 H   0  0  0  0  0  0  0  0  0  0  0  0
    5.1145    3.5899    0.0000 H   0  0  0  0  0  0  0  0  0  0  0  0
    5.5929    2.8551    0.0000 H   0  0  0  0  0  0  0  0  0  0  0  0
    9.2314   -1.9676    0.0000 H   0  0  0  0  0  0  0  0  0  0  0  0
    6.3400   -0.6226    0.0000 H   0  0  0  0  0  0  0  0  0  0  0  0
    5.4922   -0.8463    0.0000 H   0  0  0  0  0  0  0  0  0  0  0  0
    5.7158   -1.6941    0.0000 H   0  0  0  0  0  0  0  0  0  0  0  0
    6.7681    6.0140    0.0000 H   0  0  0  0  0  0  0  0  0  0  0  0
    6.1531    5.4570    0.0000 H   0  0  0  0  0  0  0  0  0  0  0  0
    8.0204   -3.8522    0.0000 H   0  0  0  0  0  0  0  0  0  0  0  0
    8.4142   -3.1578    0.0000 H   0  0  0  0  0  0  0  0  0  0  0  0
    5.3199   -3.1578    0.0000 H   0  0  0  0  0  0  0  0  0  0  0  0
    5.7137   -3.8522    0.0000 H   0  0  0  0  0  0  0  0  0  0  0  0
    7.4046   -4.1260    0.0000 H   0  0  0  0  0  0  0  0  0  0  0  0
    8.2752    6.4543    0.0000 H   0  0  0  0  0  0  0  0  0  0  0  0
    7.8048    7.0978    0.0000 H   0  0  0  0  0  0  0  0  0  0  0  0
    8.9303    5.3454    0.0000 H   0  0  0  0  0  0  0  0  0  0  0  0
    9.2421    6.1649    0.0000 H   0  0  0  0  0  0  0  0  0  0  0  0
    8.4226    6.4766    0.0000 H   0  0  0  0  0  0  0  0  0  0  0  0
    6.0010   -4.6970    0.0000 H   0  0  0  0  0  0  0  0  0  0  0  0
    6.1339    7.5280    0.0000 H   0  0  0  0  0  0  0  0  0  0  0  0
    6.0010   -6.9370    0.0000 H   0  0  0  0  0  0  0  0  0  0  0  0
    4.5981   -7.1270    0.0000 H   0  0  0  0  0  0  0  0  0  0  0  0
    7.5083    7.8677    0.0000 H   0  0  0  0  0  0  0  0  0  0  0  0
    4.2690   -4.6970    0.0000 H   0  0  0  0  0  0  0  0  0  0  0  0
    4.2690   -6.9370    0.0000 H   0  0  0  0  0  0  0  0  0  0  0  0
    7.9013    9.2279    0.0000 H   0  0  0  0  0  0  0  0  0  0  0  0
    5.1116    8.9262    0.0000 H   0  0  0  0  0  0  0  0  0  0  0  0
    6.9199   10.2483    0.0000 H   0  0  0  0  0  0  0  0  0  0  0  0
    3.8015   -4.3421    0.0000 H   0  0  0  0  0  0  0  0  0  0  0  0
    3.0044   -4.3421    0.0000 H   0  0  0  0  0  0  0  0  0  0  0  0
    7.1962   -6.0070    0.0000 H   0  0  0  0  0  0  0  0  0  0  0  0
    4.5981   -8.1270    0.0000 H   0  0  0  0  0  0  0  0  0  0  0  0
    8.8569    8.4461    0.0000 H   0  0  0  0  0  0  0  0  0  0  0  0
    3.4030   -7.4370    0.0000 H   0  0  0  0  0  0  0  0  0  0  0  0
    5.0425   10.2112    0.0000 H   0  0  0  0  0  0  0  0  0  0  0  0
    4.2501   10.1255    0.0000 H   0  0  0  0  0  0  0  0  0  0  0  0
    8.0747   10.6849    0.0000 H   0  0  0  0  0  0  0  0  0  0  0  0
    8.0622   -7.1270    0.0000 H   0  0  0  0  0  0  0  0  0  0  0  0
    5.7447   11.1270    0.0000 H   0  0  0  0  0  0  0  0  0  0  0  0
    9.4651   -6.9370    0.0000 H   0  0  0  0  0  0  0  0  0  0  0  0
    2.0000   -5.0070    0.0000 H   0  0  0  0  0  0  0  0  0  0  0  0
    8.0622   -4.5070    0.0000 H   0  0  0  0  0  0  0  0  0  0  0  0
   10.0021   -5.6270    0.0000 H   0  0  0  0  0  0  0  0  0  0  0  0
    3.3230    9.3564    0.0000 H   0  0  0  0  0  0  0  0  0  0  0  0
    8.0622   -8.1270    0.0000 H   0  0  0  0  0  0  0  0  0  0  0  0
    8.3871   -3.2344    0.0000 H   0  0  0  0  0  0  0  0  0  0  0  0
    7.9885   -3.9247    0.0000 H   0  0  0  0  0  0  0  0  0  0  0  0
    9.7942   -7.5070    0.0000 H   0  0  0  0  0  0  0  0  0  0  0  0
   10.9174   -4.1684    0.0000 H   0  0  0  0  0  0  0  0  0  0  0  0
    9.4651   -2.6970    0.0000 H   0  0  0  0  0  0  0  0  0  0  0  0
   11.7341   -8.6270    0.0000 H   0  0  0  0  0  0  0  0  0  0  0  0
   11.8700   -3.1211    0.0000 H   0  0  0  0  0  0  0  0  0  0  0  0
   11.1972   -9.9370    0.0000 H   0  0  0  0  0  0  0  0  0  0  0  0
    8.9282   -9.0070    0.0000 H   0  0  0  0  0  0  0  0  0  0  0  0
   12.2443   -3.0551    0.0000 H   0  0  0  0  0  0  0  0  0  0  0  0
    9.7942  -10.1270    0.0000 H   0  0  0  0  0  0  0  0  0  0  0  0
   12.7315   -5.8184    0.0000 H   0  0  0  0  0  0  0  0  0  0  0  0
   13.4976   -3.7135    0.0000 H   0  0  0  0  0  0  0  0  0  0  0  0
   12.6002   -8.1270    0.0000 H   0  0  0  0  0  0  0  0  0  0  0  0
   11.2273   -2.3550    0.0000 H   0  0  0  0  0  0  0  0  0  0  0  0
    8.3871   -9.2344    0.0000 H   0  0  0  0  0  0  0  0  0  0  0  0
    7.9885   -9.9247    0.0000 H   0  0  0  0  0  0  0  0  0  0  0  0
   12.0632  -10.4370    0.0000 H   0  0  0  0  0  0  0  0  0  0  0  0
   13.1114   -6.4004    0.0000 H   0  0  0  0  0  0  0  0  0  0  0  0
   13.9849   -6.4768    0.0000 H   0  0  0  0  0  0  0  0  0  0  0  0
   14.0613   -5.6033    0.0000 H   0  0  0  0  0  0  0  0  0  0  0  0
   13.5954   -2.4827    0.0000 H   0  0  0  0  0  0  0  0  0  0  0  0
   10.8681  -11.1270    0.0000 H   0  0  0  0  0  0  0  0  0  0  0  0
   14.6689   -4.5974    0.0000 H   0  0  0  0  0  0  0  0  0  0  0  0
    8.0622  -11.1270    0.0000 H   0  0  0  0  0  0  0  0  0  0  0  0
  1 33  1  0  0  0  0
  1 38  1  0  0  0  0
  2 38  1  0  0  0  0
  2 48  1  0  0  0  0
  3 53  1  0  0  0  0
  3 56  1  0  0  0  0
  4 54  1  0  0  0  0
  4 57  1  0  0  0  0
  5 56  1  0  0  0  0
  5 61  1  0  0  0  0
  6 57  1  0  0  0  0
  6 64  1  0  0  0  0
  7 58  1  0  0  0  0
  7 67  1  0  0  0  0
  8 59  1  0  0  0  0
  8139  1  0  0  0  0
  9 60  1  0  0  0  0
  9140  1  0  0  0  0
 10 62  1  0  0  0  0
 10141  1  0  0  0  0
 11 63  1  0  0  0  0
 11144  1  0  0  0  0
 12 65  1  0  0  0  0
 12146  1  0  0  0  0
 13 67  1  0  0  0  0
 13 71  1  0  0  0  0
 14 66  1  0  0  0  0
 14148  1  0  0  0  0
 15 68  1  0  0  0  0
 15151  1  0  0  0  0
 16 69  1  0  0  0  0
 16152  1  0  0  0  0
 17 70  1  0  0  0  0
 17 74  1  0  0  0  0
 18 72  1  0  0  0  0
 18 75  1  0  0  0  0
 19 73  1  0  0  0  0
 19157  1  0  0  0  0
 20 74  1  0  0  0  0
 20 79  1  0  0  0  0
 21 75  1  0  0  0  0
 21 82  1  0  0  0  0
 22 76  1  0  0  0  0
 22166  1  0  0  0  0
 23 77  1  0  0  0  0
 23167  1  0  0  0  0
 24 78  1  0  0  0  0
 24170  1  0  0  0  0
 25 80  1  0  0  0  0
 25174  1  0  0  0  0
 26 81  1  0  0  0  0
 26175  1  0  0  0  0
 27 83  1  0  0  0  0
 27176  1  0  0  0  0
 28 84  1  0  0  0  0
 28177  1  0  0  0  0
 29 30  1  0  0  0  0
 29 31  1  0  0  0  0
 29 37  1  0  0  0  0
 29 41  1  0  0  0  0
 30 32  1  0  0  0  0
 30 34  1  0  0  0  0
 30 86  1  0  0  0  0
 31 33  1  0  0  0  0
 31 36  1  0  0  0  0
 31 87  1  0  0  0  0
 32 35  1  0  0  0  0
 32 42  1  0  0  0  0
 32 88  1  0  0  0  0
 33 34  1  0  0  0  0
 33 89  1  0  0  0  0
 34 90  1  0  0  0  0
 34 91  1  0  0  0  0
 35 39  1  0  0  0  0
 35 40  1  0  0  0  0
 35 92  1  0  0  0  0
 36 38  1  0  0  0  0
 36 46  1  0  0  0  0
 36 93  1  0  0  0  0
 37 39  1  0  0  0  0
 37 94  1  0  0  0  0
 37 95  1  0  0  0  0
 38 44  1  0  0  0  0
 39 96  1  0  0  0  0
 39 97  1  0  0  0  0
 40 43  1  0  0  0  0
 40 45  1  0  0  0  0
 40 49  1  0  0  0  0
 41 98  1  0  0  0  0
 41 99  1  0  0  0  0
 41100  1  0  0  0  0
 42 47  1  0  0  0  0
 42101  1  0  0  0  0
 42102  1  0  0  0  0
 43 47  2  0  0  0  0
 43 51  1  0  0  0  0
 44 50  1  0  0  0  0
 44103  1  0  0  0  0
 44104  1  0  0  0  0
 45 52  1  0  0  0  0
 45105  1  0  0  0  0
 45106  1  0  0  0  0
 46107  1  0  0  0  0
 46108  1  0  0  0  0
 46109  1  0  0  0  0
 47110  1  0  0  0  0
 48 50  1  0  0  0  0
 48 54  1  0  0  0  0
 48 55  1  0  0  0  0
 49111  1  0  0  0  0
 49112  1  0  0  0  0
 49113  1  0  0  0  0
 50114  1  0  0  0  0
 50115  1  0  0  0  0
 51 53  1  0  0  0  0
 51116  1  0  0  0  0
 51117  1  0  0  0  0
 52 53  1  0  0  0  0
 52118  1  0  0  0  0
 52119  1  0  0  0  0
 53120  1  0  0  0  0
 54121  1  0  0  0  0
 54122  1  0  0  0  0
 55123  1  0  0  0  0
 55124  1  0  0  0  0
 55125  1  0  0  0  0
 56 58  1  0  0  0  0
 56126  1  0  0  0  0
 57 60  1  0  0  0  0
 57127  1  0  0  0  0
 58 59  1  0  0  0  0
 58128  1  0  0  0  0
 59 62  1  0  0  0  0
 59129  1  0  0  0  0
 60 63  1  0  0  0  0
 60130  1  0  0  0  0
 61 62  1  0  0  0  0
 61 66  1  0  0  0  0
 61131  1  0  0  0  0
 62132  1  0  0  0  0
 63 65  1  0  0  0  0
 63133  1  0  0  0  0
 64 65  1  0  0  0  0
 64 68  1  0  0  0  0
 64134  1  0  0  0  0
 65135  1  0  0  0  0
 66136  1  0  0  0  0
 66137  1  0  0  0  0
 67 69  1  0  0  0  0
 67138  1  0  0  0  0
 68142  1  0  0  0  0
 68143  1  0  0  0  0
 69 70  1  0  0  0  0
 69145  1  0  0  0  0
 70 72  1  0  0  0  0
 70147  1  0  0  0  0
 71 72  1  0  0  0  0
 71 73  1  0  0  0  0
 71149  1  0  0  0  0
 72150  1  0  0  0  0
 73153  1  0  0  0  0
 73154  1  0  0  0  0
 74 76  1  0  0  0  0
 74155  1  0  0  0  0
 75 77  1  0  0  0  0
 75156  1  0  0  0  0
 76 78  1  0  0  0  0
 76158  1  0  0  0  0
 77 80  1  0  0  0  0
 77159  1  0  0  0  0
 78 81  1  0  0  0  0
 78160  1  0  0  0  0
 79 81  1  0  0  0  0
 79 84  1  0  0  0  0
 79161  1  0  0  0  0
 80 83  1  0  0  0  0
 80162  1  0  0  0  0
 81163  1  0  0  0  0
 82 83  1  0  0  0  0
 82 85  1  0  0  0  0
 82164  1  0  0  0  0
 83165  1  0  0  0  0
 84168  1  0  0  0  0
 84169  1  0  0  0  0
 85171  1  0  0  0  0
 85172  1  0  0  0  0
 85173  1  0  0  0  0
M  END
>  <PUBCHEM_COMPOUND_CID>
131751489

>  <PUBCHEM_COMPOUND_CANONICALIZED>
1

>  <PUBCHEM_CACTVS_COMPLEXITY>
2310

>  <PUBCHEM_CACTVS_HBOND_ACCEPTOR>
28

>  <PUBCHEM_CACTVS_HBOND_DONOR>
16

>  <PUBCHEM_CACTVS_ROTATABLE_BOND>
15

>  <PUBCHEM_CACTVS_SUBSKEYS>
AAADcfB8PgAAAAAAAAAAAAAAAAAAAaJEAAA0aJEiQAASAGCAAAAAGgAACAAAD1SwgAMCCAAABgCAAiBCAAAAAAAgAAAACAAAAAgREAIAAQAiQAAFwAAPAAPA4PwPgAAAAAAAAADAAAQAACAAAYAADAAAAA==

>  <PUBCHEM_IUPAC_INCHI>
InChI=1S/C57H92O28/c1-21-33-28(84-57(21)13-12-54(3,85-57)20-74-49-42(70)39(67)35(63)29(16-58)77-49)15-27-25-7-6-23-14-24(8-10-55(23,4)26(25)9-11-56(27,33)5)76-53-48(41(69)37(65)31(18-60)79-53)83-52-45(73)47(82-51-44(72)40(68)36(64)30(17-59)78-51)46(32(19-61)80-52)81-50-43(71)38(66)34(62)22(2)75-50/h6,21-22,24-53,58-73H,7-20H2,1-5H3

>  <PUBCHEM_IUPAC_INCHIKEY>
FINVSZXHUNAWLI-UHFFFAOYSA-N

>  <PUBCHEM_EXACT_MASS>
1224.578

>  <PUBCHEM_MOLECULAR_FORMULA>
C57H92O28

>  <PUBCHEM_MOLECULAR_WEIGHT>
1225.335

>  <PUBCHEM_OPENEYE_CAN_SMILES>
CC1C2C(CC3C2(CCC4C3CC=C5C4(CCC(C5)OC6C(C(C(C(O6)CO)O)O)OC7C(C(C(C(O7)CO)OC8C(C(C(C(O8)C)O)O)O)OC9C(C(C(C(O9)CO)O)O)O)O)C)C)OC11CCC(O1)(C)COC1C(C(C(C(O1)CO)O)O)O

>  <PUBCHEM_OPENEYE_ISO_SMILES>
CC1C2C(CC3C2(CCC4C3CC=C5C4(CCC(C5)OC6C(C(C(C(O6)CO)O)O)OC7C(C(C(C(O7)CO)OC8C(C(C(C(O8)C)O)O)O)OC9C(C(C(C(O9)CO)O)O)O)O)C)C)OC11CCC(O1)(C)COC1C(C(C(C(O1)CO)O)O)O

>  <PUBCHEM_CACTVS_TPSA>
434

>  <PUBCHEM_MONOISOTOPIC_WEIGHT>
1224.578

>  <PUBCHEM_TOTAL_CHARGE>
0

>  <PUBCHEM_HEAVY_ATOM_COUNT>
85

>  <PUBCHEM_ATOM_DEF_STEREO_COUNT>
0

>  <PUBCHEM_ATOM_UDEF_STEREO_COUNT>
36

>  <PUBCHEM_BOND_DEF_STEREO_COUNT>
0

>  <PUBCHEM_BOND_UDEF_STEREO_COUNT>
0

>  <PUBCHEM_ISOTOPIC_ATOM_COUNT>
0

>  <PUBCHEM_COMPONENT_COUNT>
1

>  <PUBCHEM_CACTVS_TAUTO_COUNT>
1

>  <PUBCHEM_COORDINATE_TYPE>
1
5
255

>  <PUBCHEM_BONDANNOTATIONS>
62  10  3
63  11  3
65  12  3
69  16  3
70  17  3
74  17  3
72  18  3
75  18  3
76  22  3
77  23  3
78  24  3
80  25  3
81  26  3
83  27  3
29  41  3
53  3  3
56  3  3
30  34  3
31  36  3
32  42  3
33  34  3
35  39  3
36  46  3
38  44  3
57  4  3
40  49  3
48  55  3
61  66  3
64  68  3
58  7  3
67  7  3
71  73  3
79  84  3
59  8  3
82  85  3
60  9  3

$$$$
