131750865
 OpenBabel06101807152D

 41 42  0  0  1  0  0  0  0  0999 V2000
    5.4641   -1.5950    0.0000 O   0  0  0  0  0  0  0  0  0  0  0  0
    6.6962    1.2710    0.0000 O   0  0  0  0  0  0  0  0  0  0  0  0
    7.1962   -2.5950    0.0000 O   0  0  0  0  0  0  0  0  0  0  0  0
    8.9282   -1.5950    0.0000 O   0  0  0  0  0  0  0  0  0  0  0  0
    8.6962    1.2710    0.0000 O   0  0  0  0  0  0  0  0  0  0  0  0
    7.1962    2.1370    0.0000 O   0  0  0  0  0  0  0  0  0  0  0  0
    4.5981   -0.0950    0.0000 O   0  0  0  0  0  0  0  0  0  0  0  0
    4.5981    1.9050    0.0000 O   0  0  0  0  0  0  0  0  0  0  0  0
    2.8660    2.9050    0.0000 O   0  0  0  0  0  0  0  0  0  0  0  0
    7.1962    0.4050    0.0000 C   0  0  3  0  0  0  0  0  0  0  0  0
    6.3301   -1.0950    0.0000 C   0  0  3  0  0  0  0  0  0  0  0  0
    6.3301   -0.0950    0.0000 C   0  0  0  0  0  0  0  0  0  0  0  0
    8.0622   -0.0950    0.0000 C   0  0  0  0  0  0  0  0  0  0  0  0
    7.1962   -1.5950    0.0000 C   0  0  3  0  0  0  0  0  0  0  0  0
    8.0622   -1.0950    0.0000 C   0  0  3  0  0  0  0  0  0  0  0  0
    7.6962    1.2710    0.0000 C   0  0  0  0  0  0  0  0  0  0  0  0
    4.5981   -1.0950    0.0000 C   0  0  0  0  0  0  0  0  0  0  0  0
    3.7320   -1.5950    0.0000 C   0  0  0  0  0  0  0  0  0  0  0  0
    2.8660   -1.0950    0.0000 C   0  0  0  0  0  0  0  0  0  0  0  0
    2.8660   -0.0950    0.0000 C   0  0  0  0  0  0  0  0  0  0  0  0
    3.7320    0.4050    0.0000 C   0  0  0  0  0  0  0  0  0  0  0  0
    2.0000    0.4050    0.0000 C   0  0  0  0  0  0  0  0  0  0  0  0
    3.7320    1.4050    0.0000 C   0  0  0  0  0  0  0  0  0  0  0  0
    2.0000    1.4050    0.0000 C   0  0  0  0  0  0  0  0  0  0  0  0
    2.8660    1.9050    0.0000 C   0  0  0  0  0  0  0  0  0  0  0  0
    5.7932   -0.7850    0.0000 H   0  0  0  0  0  0  0  0  0  0  0  0
    6.1181    0.4876    0.0000 H   0  0  0  0  0  0  0  0  0  0  0  0
    5.7196   -0.2027    0.0000 H   0  0  0  0  0  0  0  0  0  0  0  0
    8.6728   -0.2027    0.0000 H   0  0  0  0  0  0  0  0  0  0  0  0
    8.2742    0.4876    0.0000 H   0  0  0  0  0  0  0  0  0  0  0  0
    6.6592   -1.9050    0.0000 H   0  0  0  0  0  0  0  0  0  0  0  0
    8.0622   -1.7150    0.0000 H   0  0  0  0  0  0  0  0  0  0  0  0
    6.0762    1.2710    0.0000 H   0  0  0  0  0  0  0  0  0  0  0  0
    7.7331   -2.9050    0.0000 H   0  0  0  0  0  0  0  0  0  0  0  0
    9.4651   -1.2850    0.0000 H   0  0  0  0  0  0  0  0  0  0  0  0
    9.0062    1.8080    0.0000 H   0  0  0  0  0  0  0  0  0  0  0  0
    3.7320   -2.2150    0.0000 H   0  0  0  0  0  0  0  0  0  0  0  0
    2.3291   -1.4050    0.0000 H   0  0  0  0  0  0  0  0  0  0  0  0
    4.2690    0.0950    0.0000 H   0  0  0  0  0  0  0  0  0  0  0  0
    1.4631    0.0950    0.0000 H   0  0  0  0  0  0  0  0  0  0  0  0
    1.4631    1.7150    0.0000 H   0  0  0  0  0  0  0  0  0  0  0  0
  1 11  1  0  0  0  0
  1 17  1  0  0  0  0
  2 10  1  0  0  0  0
  2 33  1  0  0  0  0
  3 14  1  0  0  0  0
  3 34  1  0  0  0  0
  4 15  1  0  0  0  0
  4 35  1  0  0  0  0
  5 16  1  0  0  0  0
  5 36  1  0  0  0  0
  6 16  2  0  0  0  0
  7 17  2  0  0  0  0
  8 23  2  0  0  0  0
  9 25  2  0  0  0  0
 10 12  1  0  0  0  0
 10 13  1  0  0  0  0
 10 16  1  0  0  0  0
 11 12  1  0  0  0  0
 11 14  1  0  0  0  0
 11 26  1  0  0  0  0
 12 27  1  0  0  0  0
 12 28  1  0  0  0  0
 13 15  1  0  0  0  0
 13 29  1  0  0  0  0
 13 30  1  0  0  0  0
 14 15  1  0  0  0  0
 14 31  1  0  0  0  0
 15 32  1  0  0  0  0
 17 18  1  0  0  0  0
 18 19  2  0  0  0  0
 18 37  1  0  0  0  0
 19 20  1  0  0  0  0
 19 38  1  0  0  0  0
 20 21  2  0  0  0  0
 20 22  1  0  0  0  0
 21 23  1  0  0  0  0
 21 39  1  0  0  0  0
 22 24  2  0  0  0  0
 22 40  1  0  0  0  0
 23 25  1  0  0  0  0
 24 25  1  0  0  0  0
 24 41  1  0  0  0  0
M  END
>  <PUBCHEM_COMPOUND_CID>
131750865

>  <PUBCHEM_COMPOUND_CANONICALIZED>
1

>  <PUBCHEM_CACTVS_COMPLEXITY>
702

>  <PUBCHEM_CACTVS_HBOND_ACCEPTOR>
9

>  <PUBCHEM_CACTVS_HBOND_DONOR>
4

>  <PUBCHEM_CACTVS_ROTATABLE_BOND>
5

>  <PUBCHEM_CACTVS_SUBSKEYS>
AAADceB4PAAAAAAAAAAAAAAAAAAAAAAAAAAwQAAAAAAAAAAAAAAAGgAACAAADFSggAIACAAABgCIAqDSCAIAAAAgAAAICAFAAEgJFBIAIQACUAAFgAALoYPK7DzOAAAAAAAAAABCAAIQAACAAAAAAAAAAA==

>  <PUBCHEM_IUPAC_OPENEYE_NAME>
3-[(Z)-3-(3,4-dioxocyclohexa-1,5-dien-1-yl)prop-2-enoyl]oxy-1,4,5-trihydroxy-cyclohexanecarboxylic acid

>  <PUBCHEM_IUPAC_CAS_NAME>
3-[(Z)-3-(3,4-dioxo-1-cyclohexa-1,5-dienyl)-1-oxoprop-2-enoxy]-1,4,5-trihydroxy-1-cyclohexanecarboxylic acid

>  <PUBCHEM_IUPAC_NAME>
3-[(Z)-3-(3,4-dioxocyclohexa-1,5-dien-1-yl)prop-2-enoyl]oxy-1,4,5-trihydroxycyclohexane-1-carboxylic acid

>  <PUBCHEM_IUPAC_SYSTEMATIC_NAME>
3-[(Z)-3-[3,4-bis(oxidanylidene)cyclohexa-1,5-dien-1-yl]prop-2-enoyl]oxy-1,4,5-tris(oxidanyl)cyclohexane-1-carboxylic acid

>  <PUBCHEM_IUPAC_TRADITIONAL_NAME>
3-[(Z)-3-(3,4-diketocyclohexa-1,5-dien-1-yl)acryloyl]oxy-1,4,5-trihydroxy-cyclohexanecarboxylic acid

>  <PUBCHEM_IUPAC_INCHI>
InChI=1S/C16H16O9/c17-9-3-1-8(5-10(9)18)2-4-13(20)25-12-7-16(24,15(22)23)6-11(19)14(12)21/h1-5,11-12,14,19,21,24H,6-7H2,(H,22,23)/b4-2-

>  <PUBCHEM_IUPAC_INCHIKEY>
ITENTBHADJNDDH-RQOWECAXSA-N

>  <PUBCHEM_EXACT_MASS>
352.079

>  <PUBCHEM_MOLECULAR_FORMULA>
C16H16O9

>  <PUBCHEM_MOLECULAR_WEIGHT>
352.295

>  <PUBCHEM_OPENEYE_CAN_SMILES>
C1C(C(C(CC1(C(=O)O)O)OC(=O)C=CC2=CC(=O)C(=O)C=C2)O)O

>  <PUBCHEM_OPENEYE_ISO_SMILES>
C1C(C(C(CC1(C(=O)O)O)OC(=O)/C=C\C2=CC(=O)C(=O)C=C2)O)O

>  <PUBCHEM_CACTVS_TPSA>
158

>  <PUBCHEM_MONOISOTOPIC_WEIGHT>
352.079

>  <PUBCHEM_TOTAL_CHARGE>
0

>  <PUBCHEM_HEAVY_ATOM_COUNT>
25

>  <PUBCHEM_ATOM_DEF_STEREO_COUNT>
0

>  <PUBCHEM_ATOM_UDEF_STEREO_COUNT>
4

>  <PUBCHEM_BOND_DEF_STEREO_COUNT>
1

>  <PUBCHEM_BOND_UDEF_STEREO_COUNT>
0

>  <PUBCHEM_ISOTOPIC_ATOM_COUNT>
0

>  <PUBCHEM_COMPONENT_COUNT>
1

>  <PUBCHEM_CACTVS_TAUTO_COUNT>
1

>  <PUBCHEM_COORDINATE_TYPE>
1
5
255

>  <PUBCHEM_BONDANNOTATIONS>
11  1  3
10  2  3
14  3  3
15  4  3

$$$$
