131752834
 OpenBabel06101807152D

111117  0  0  1  0  0  0  0  0999 V2000
   14.6613   -1.7857    0.0000 O   0  0  0  0  0  0  0  0  0  0  0  0
   13.7953   -3.2857    0.0000 O   0  0  0  0  0  0  0  0  0  0  0  0
   12.9292    0.2143    0.0000 O   0  0  0  0  0  0  0  0  0  0  0  0
   12.9292   -2.7857    0.0000 O   0  0  0  0  0  0  0  0  0  0  0  0
   14.6613    0.2143    0.0000 O   0  0  0  0  0  0  0  0  0  0  0  0
   16.3933   -2.7857    0.0000 O   0  0  0  0  0  0  0  0  0  0  0  0
   11.1972   -1.7857    0.0000 O   0  0  0  0  0  0  0  0  0  0  0  0
   16.3933   -4.7857    0.0000 O   0  0  0  0  0  0  0  0  0  0  0  0
   14.6613   -5.7857    0.0000 O   0  0  0  0  0  0  0  0  0  0  0  0
   12.0632   -4.2857    0.0000 O   0  0  0  0  0  0  0  0  0  0  0  0
    4.2690   -2.7857    0.0000 O   0  0  0  0  0  0  0  0  0  0  0  0
    2.5369   -4.7857    0.0000 O   0  0  0  0  0  0  0  0  0  0  0  0
    4.2690   -5.7857    0.0000 O   0  0  0  0  0  0  0  0  0  0  0  0
    6.0010   -2.7857    0.0000 O   0  0  0  0  0  0  0  0  0  0  0  0
    6.0010   -4.7857    0.0000 O   0  0  0  0  0  0  0  0  0  0  0  0
   15.5273    2.7143    0.0000 O   0  0  0  0  0  0  0  0  0  0  0  0
    2.5369   -1.7857    0.0000 O   0  0  0  0  0  0  0  0  0  0  0  0
   12.9292    1.2143    0.0000 O   0  0  0  0  0  0  0  0  0  0  0  0
   11.1972   -5.7857    0.0000 O   0  0  0  0  0  0  0  0  0  0  0  0
   12.0251    2.7112    0.0000 O   0  0  0  0  0  0  0  0  0  0  0  0
   13.7832    5.7836    0.0000 O   0  0  0  0  0  0  0  0  0  0  0  0
   18.9914    1.7143    0.0000 O   0  0  0  0  0  0  0  0  0  0  0  0
   18.9914   -0.2857    0.0000 O   0  0  0  0  0  0  0  0  0  0  0  0
   13.7953   -1.2857    0.0000 C   0  0  3  0  0  0  0  0  0  0  0  0
   12.9292   -1.7857    0.0000 C   0  0  3  0  0  0  0  0  0  0  0  0
   14.6613   -2.7857    0.0000 C   0  0  3  0  0  0  0  0  0  0  0  0
   15.5273   -3.2857    0.0000 C   0  0  3  0  0  0  0  0  0  0  0  0
   12.0632   -1.2857    0.0000 C   0  0  3  0  0  0  0  0  0  0  0  0
   15.5273   -4.2857    0.0000 C   0  0  3  0  0  0  0  0  0  0  0  0
   14.6613   -4.7857    0.0000 C   0  0  3  0  0  0  0  0  0  0  0  0
   13.7953   -0.2857    0.0000 C   0  0  3  0  0  0  0  0  0  0  0  0
   13.7953   -4.2857    0.0000 C   0  0  3  0  0  0  0  0  0  0  0  0
   12.0632   -0.2857    0.0000 C   0  0  3  0  0  0  0  0  0  0  0  0
   12.9292   -4.7857    0.0000 C   0  0  0  0  0  0  0  0  0  0  0  0
   11.1972    0.2143    0.0000 C   0  0  0  0  0  0  0  0  0  0  0  0
    3.4030   -4.2857    0.0000 C   0  0  3  0  0  0  0  0  0  0  0  0
    4.2690   -4.7857    0.0000 C   0  0  3  0  0  0  0  0  0  0  0  0
    3.4030   -3.2857    0.0000 C   0  0  3  0  0  0  0  0  0  0  0  0
    5.1350   -4.2857    0.0000 C   0  0  3  0  0  0  0  0  0  0  0  0
    5.1350   -3.2857    0.0000 C   0  0  3  0  0  0  0  0  0  0  0  0
   14.6613    1.2143    0.0000 C   0  0  0  0  0  0  0  0  0  0  0  0
    2.5369   -2.7857    0.0000 C   0  0  0  0  0  0  0  0  0  0  0  0
   15.5273    1.7143    0.0000 C   0  0  0  0  0  0  0  0  0  0  0  0
   13.7953    1.7143    0.0000 C   0  0  0  0  0  0  0  0  0  0  0  0
   11.1972   -4.7857    0.0000 C   0  0  0  0  0  0  0  0  0  0  0  0
   13.7953    2.7143    0.0000 C   0  0  0  0  0  0  0  0  0  0  0  0
   16.3933    1.2143    0.0000 C   0  0  0  0  0  0  0  0  0  0  0  0
   14.6613    3.2143    0.0000 C   0  0  0  0  0  0  0  0  0  0  0  0
    6.8671   -3.2857    0.0000 C   0  0  0  0  0  0  0  0  0  0  0  0
   10.3312   -4.2857    0.0000 C   0  0  0  0  0  0  0  0  0  0  0  0
   12.8853    3.2212    0.0000 C   0  0  0  0  0  0  0  0  0  0  0  0
   14.6774    4.2558    0.0000 C   0  0  0  0  0  0  0  0  0  0  0  0
   17.2594    1.7143    0.0000 C   0  0  0  0  0  0  0  0  0  0  0  0
    7.7331   -2.7857    0.0000 C   0  0  0  0  0  0  0  0  0  0  0  0
    6.8671   -4.2857    0.0000 C   0  0  0  0  0  0  0  0  0  0  0  0
   16.3933    0.2143    0.0000 C   0  0  0  0  0  0  0  0  0  0  0  0
    9.4651   -4.7857    0.0000 C   0  0  0  0  0  0  0  0  0  0  0  0
    8.5991   -4.2857    0.0000 C   0  0  0  0  0  0  0  0  0  0  0  0
   12.8772    4.2628    0.0000 C   0  0  0  0  0  0  0  0  0  0  0  0
    8.5991   -3.2857    0.0000 C   0  0  0  0  0  0  0  0  0  0  0  0
    7.7331   -4.7857    0.0000 C   0  0  0  0  0  0  0  0  0  0  0  0
   13.7793    4.7836    0.0000 C   0  0  0  0  0  0  0  0  0  0  0  0
   18.1254    1.2143    0.0000 C   0  0  0  0  0  0  0  0  0  0  0  0
   17.2594   -0.2857    0.0000 C   0  0  0  0  0  0  0  0  0  0  0  0
   18.1254    0.2143    0.0000 C   0  0  0  0  0  0  0  0  0  0  0  0
   13.7953   -1.9057    0.0000 H   0  0  0  0  0  0  0  0  0  0  0  0
   13.4662   -2.0957    0.0000 H   0  0  0  0  0  0  0  0  0  0  0  0
   14.1244   -2.4757    0.0000 H   0  0  0  0  0  0  0  0  0  0  0  0
   15.5273   -2.6657    0.0000 H   0  0  0  0  0  0  0  0  0  0  0  0
   12.0632   -1.9057    0.0000 H   0  0  0  0  0  0  0  0  0  0  0  0
   16.0643   -3.9757    0.0000 H   0  0  0  0  0  0  0  0  0  0  0  0
   14.1244   -5.0957    0.0000 H   0  0  0  0  0  0  0  0  0  0  0  0
   14.3322   -0.5957    0.0000 H   0  0  0  0  0  0  0  0  0  0  0  0
   13.2583   -3.9757    0.0000 H   0  0  0  0  0  0  0  0  0  0  0  0
   12.0632    0.3343    0.0000 H   0  0  0  0  0  0  0  0  0  0  0  0
   12.5307   -5.2606    0.0000 H   0  0  0  0  0  0  0  0  0  0  0  0
   13.3278   -5.2606    0.0000 H   0  0  0  0  0  0  0  0  0  0  0  0
   11.5072    0.7513    0.0000 H   0  0  0  0  0  0  0  0  0  0  0  0
   10.6603    0.5243    0.0000 H   0  0  0  0  0  0  0  0  0  0  0  0
   10.8872   -0.3226    0.0000 H   0  0  0  0  0  0  0  0  0  0  0  0
   12.3923   -3.0957    0.0000 H   0  0  0  0  0  0  0  0  0  0  0  0
   16.9303   -3.0957    0.0000 H   0  0  0  0  0  0  0  0  0  0  0  0
   10.6603   -1.4757    0.0000 H   0  0  0  0  0  0  0  0  0  0  0  0
   16.3933   -5.4057    0.0000 H   0  0  0  0  0  0  0  0  0  0  0  0
   14.1244   -6.0957    0.0000 H   0  0  0  0  0  0  0  0  0  0  0  0
    3.4030   -4.9057    0.0000 H   0  0  0  0  0  0  0  0  0  0  0  0
    3.7320   -5.0957    0.0000 H   0  0  0  0  0  0  0  0  0  0  0  0
    3.4030   -2.6657    0.0000 H   0  0  0  0  0  0  0  0  0  0  0  0
    5.1350   -4.9057    0.0000 H   0  0  0  0  0  0  0  0  0  0  0  0
    5.1350   -2.6657    0.0000 H   0  0  0  0  0  0  0  0  0  0  0  0
    1.9264   -2.6780    0.0000 H   0  0  0  0  0  0  0  0  0  0  0  0
    2.3249   -3.3683    0.0000 H   0  0  0  0  0  0  0  0  0  0  0  0
    2.0000   -4.4757    0.0000 H   0  0  0  0  0  0  0  0  0  0  0  0
    3.7320   -6.0957    0.0000 H   0  0  0  0  0  0  0  0  0  0  0  0
    6.0010   -5.4057    0.0000 H   0  0  0  0  0  0  0  0  0  0  0  0
    2.0000   -1.4757    0.0000 H   0  0  0  0  0  0  0  0  0  0  0  0
   10.3312   -3.6657    0.0000 H   0  0  0  0  0  0  0  0  0  0  0  0
   15.2178    4.5596    0.0000 H   0  0  0  0  0  0  0  0  0  0  0  0
    7.7331   -2.1657    0.0000 H   0  0  0  0  0  0  0  0  0  0  0  0
    6.3301   -4.5957    0.0000 H   0  0  0  0  0  0  0  0  0  0  0  0
   17.2594    2.3343    0.0000 H   0  0  0  0  0  0  0  0  0  0  0  0
   15.8564   -0.0957    0.0000 H   0  0  0  0  0  0  0  0  0  0  0  0
    9.4651   -5.4057    0.0000 H   0  0  0  0  0  0  0  0  0  0  0  0
   12.3391    4.5707    0.0000 H   0  0  0  0  0  0  0  0  0  0  0  0
    9.1360   -2.9757    0.0000 H   0  0  0  0  0  0  0  0  0  0  0  0
    7.7331   -5.4057    0.0000 H   0  0  0  0  0  0  0  0  0  0  0  0
   17.2594   -0.9057    0.0000 H   0  0  0  0  0  0  0  0  0  0  0  0
   11.4846    3.0150    0.0000 H   0  0  0  0  0  0  0  0  0  0  0  0
   13.2474    6.0957    0.0000 H   0  0  0  0  0  0  0  0  0  0  0  0
   18.9914    2.3343    0.0000 H   0  0  0  0  0  0  0  0  0  0  0  0
   19.5284    0.0243    0.0000 H   0  0  0  0  0  0  0  0  0  0  0  0
  1 24  1  0  0  0  0
  1 26  1  0  0  0  0
  2 26  1  0  0  0  0
  2 32  1  0  0  0  0
  3 31  1  0  0  0  0
  3 33  1  0  0  0  0
  4 25  1  0  0  0  0
  4 81  1  0  0  0  0
  5 31  1  0  0  0  0
  5 41  1  0  0  0  0
  6 27  1  0  0  0  0
  6 82  1  0  0  0  0
  7 28  1  0  0  0  0
  7 83  1  0  0  0  0
  8 29  1  0  0  0  0
  8 84  1  0  0  0  0
  9 30  1  0  0  0  0
  9 85  1  0  0  0  0
 10 34  1  0  0  0  0
 10 45  1  0  0  0  0
 11 38  1  0  0  0  0
 11 40  1  0  0  0  0
 12 36  1  0  0  0  0
 12 93  1  0  0  0  0
 13 37  1  0  0  0  0
 13 94  1  0  0  0  0
 14 40  1  0  0  0  0
 14 49  1  0  0  0  0
 15 39  1  0  0  0  0
 15 95  1  0  0  0  0
 16 43  1  0  0  0  0
 16 48  1  0  0  0  0
 17 42  1  0  0  0  0
 17 96  1  0  0  0  0
 18 44  2  0  0  0  0
 19 45  2  0  0  0  0
 20 51  1  0  0  0  0
 20108  1  0  0  0  0
 21 62  1  0  0  0  0
 21109  1  0  0  0  0
 22 63  1  0  0  0  0
 22110  1  0  0  0  0
 23 65  1  0  0  0  0
 23111  1  0  0  0  0
 24 25  1  0  0  0  0
 24 31  1  0  0  0  0
 24 66  1  0  0  0  0
 25 28  1  0  0  0  0
 25 67  1  0  0  0  0
 26 27  1  0  0  0  0
 26 68  1  0  0  0  0
 27 29  1  0  0  0  0
 27 69  1  0  0  0  0
 28 33  1  0  0  0  0
 28 70  1  0  0  0  0
 29 30  1  0  0  0  0
 29 71  1  0  0  0  0
 30 32  1  0  0  0  0
 30 72  1  0  0  0  0
 31 73  1  0  0  0  0
 32 34  1  0  0  0  0
 32 74  1  0  0  0  0
 33 35  1  0  0  0  0
 33 75  1  0  0  0  0
 34 76  1  0  0  0  0
 34 77  1  0  0  0  0
 35 78  1  0  0  0  0
 35 79  1  0  0  0  0
 35 80  1  0  0  0  0
 36 37  1  0  0  0  0
 36 38  1  0  0  0  0
 36 86  1  0  0  0  0
 37 39  1  0  0  0  0
 37 87  1  0  0  0  0
 38 42  1  0  0  0  0
 38 88  1  0  0  0  0
 39 40  1  0  0  0  0
 39 89  1  0  0  0  0
 40 90  1  0  0  0  0
 41 43  2  0  0  0  0
 41 44  1  0  0  0  0
 42 91  1  0  0  0  0
 42 92  1  0  0  0  0
 43 47  1  0  0  0  0
 44 46  1  0  0  0  0
 45 50  1  0  0  0  0
 46 48  1  0  0  0  0
 46 51  2  0  0  0  0
 47 53  2  0  0  0  0
 47 56  1  0  0  0  0
 48 52  2  0  0  0  0
 49 54  2  0  0  0  0
 49 55  1  0  0  0  0
 50 57  2  0  0  0  0
 50 97  1  0  0  0  0
 51 59  1  0  0  0  0
 52 62  1  0  0  0  0
 52 98  1  0  0  0  0
 53 63  1  0  0  0  0
 53101  1  0  0  0  0
 54 60  1  0  0  0  0
 54 99  1  0  0  0  0
 55 61  2  0  0  0  0
 55100  1  0  0  0  0
 56 64  2  0  0  0  0
 56102  1  0  0  0  0
 57 58  1  0  0  0  0
 57103  1  0  0  0  0
 58 60  2  0  0  0  0
 58 61  1  0  0  0  0
 59 62  2  0  0  0  0
 59104  1  0  0  0  0
 60105  1  0  0  0  0
 61106  1  0  0  0  0
 63 65  2  0  0  0  0
 64 65  1  0  0  0  0
 64107  1  0  0  0  0
M  END
>  <PUBCHEM_COMPOUND_CID>
131752834

>  <PUBCHEM_COMPOUND_CANONICALIZED>
1

>  <PUBCHEM_CACTVS_COMPLEXITY>
1670

>  <PUBCHEM_CACTVS_HBOND_ACCEPTOR>
23

>  <PUBCHEM_CACTVS_HBOND_DONOR>
13

>  <PUBCHEM_CACTVS_ROTATABLE_BOND>
13

>  <PUBCHEM_CACTVS_SUBSKEYS>
AAADcfB8PgAAAAAAAAAAAAAAAAAAAAAAAAA0aNECAAAAAACBUAAAGgAACAAADBSwmAMyDoAABgCIAqDSCAICCAAkIAAIiAFGiMgdNzaGNR6ieWGl4BUPuYfI7LzOIAABCAAIQABAAAIQABCAAAAAAAAAAA==

>  <PUBCHEM_IUPAC_OPENEYE_NAME>
[6-[2-[2-(3,4-dihydroxyphenyl)-5,7-dihydroxy-4-oxo-chromen-3-yl]oxy-4,5-dihydroxy-6-methyl-tetrahydropyran-3-yl]oxy-3,4,5-trihydroxy-tetrahydropyran-2-yl]methyl (E)-3-[4-[3,4,5-trihydroxy-6-(hydroxymethyl)tetrahydropyran-2-yl]oxyphenyl]prop-2-enoate

>  <PUBCHEM_IUPAC_CAS_NAME>
(E)-3-[4-[[3,4,5-trihydroxy-6-(hydroxymethyl)-2-oxanyl]oxy]phenyl]-2-propenoic acid [6-[[2-[[2-(3,4-dihydroxyphenyl)-5,7-dihydroxy-4-oxo-1-benzopyran-3-yl]oxy]-4,5-dihydroxy-6-methyl-3-oxanyl]oxy]-3,4,5-trihydroxy-2-oxanyl]methyl ester

>  <PUBCHEM_IUPAC_NAME>
[6-[2-[2-(3,4-dihydroxyphenyl)-5,7-dihydroxy-4-oxochromen-3-yl]oxy-4,5-dihydroxy-6-methyloxan-3-yl]oxy-3,4,5-trihydroxyoxan-2-yl]methyl (E)-3-[4-[3,4,5-trihydroxy-6-(hydroxymethyl)oxan-2-yl]oxyphenyl]prop-2-enoate

>  <PUBCHEM_IUPAC_SYSTEMATIC_NAME>
[6-[2-[2-[3,4-bis(oxidanyl)phenyl]-5,7-bis(oxidanyl)-4-oxidanylidene-chromen-3-yl]oxy-6-methyl-4,5-bis(oxidanyl)oxan-3-yl]oxy-3,4,5-tris(oxidanyl)oxan-2-yl]methyl (E)-3-[4-[6-(hydroxymethyl)-3,4,5-tris(oxidanyl)oxan-2-yl]oxyphenyl]prop-2-enoate

>  <PUBCHEM_IUPAC_TRADITIONAL_NAME>
(E)-3-[4-(3,4,5-trihydroxy-6-methylol-tetrahydropyran-2-yl)oxyphenyl]acrylic acid [6-[2-[2-(3,4-dihydroxyphenyl)-5,7-dihydroxy-4-keto-chromen-3-yl]oxy-4,5-dihydroxy-6-methyl-tetrahydropyran-3-yl]oxy-3,4,5-trihydroxy-tetrahydropyran-2-yl]methyl ester

>  <PUBCHEM_IUPAC_INCHI>
InChI=1S/C42H46O23/c1-15-28(49)34(55)39(42(59-15)64-38-31(52)27-22(47)11-18(44)12-23(27)61-37(38)17-5-8-20(45)21(46)10-17)65-41-36(57)33(54)30(51)25(63-41)14-58-26(48)9-4-16-2-6-19(7-3-16)60-40-35(56)32(53)29(50)24(13-43)62-40/h2-12,15,24-25,28-30,32-36,39-47,49-51,53-57H,13-14H2,1H3/b9-4+

>  <PUBCHEM_IUPAC_INCHIKEY>
SENXSEXWQKRDKG-RUDMXATFSA-N

>  <PUBCHEM_EXACT_MASS>
918.243

>  <PUBCHEM_MOLECULAR_FORMULA>
C42H46O23

>  <PUBCHEM_MOLECULAR_WEIGHT>
918.807

>  <PUBCHEM_OPENEYE_CAN_SMILES>
CC1C(C(C(C(O1)OC2=C(OC3=CC(=CC(=C3C2=O)O)O)C4=CC(=C(C=C4)O)O)OC5C(C(C(C(O5)COC(=O)C=CC6=CC=C(C=C6)OC7C(C(C(C(O7)CO)O)O)O)O)O)O)O)O

>  <PUBCHEM_OPENEYE_ISO_SMILES>
CC1C(C(C(C(O1)OC2=C(OC3=CC(=CC(=C3C2=O)O)O)C4=CC(=C(C=C4)O)O)OC5C(C(C(C(O5)COC(=O)/C=C/C6=CC=C(C=C6)OC7C(C(C(C(O7)CO)O)O)O)O)O)O)O)O

>  <PUBCHEM_CACTVS_TPSA>
371

>  <PUBCHEM_MONOISOTOPIC_WEIGHT>
918.243

>  <PUBCHEM_TOTAL_CHARGE>
0

>  <PUBCHEM_HEAVY_ATOM_COUNT>
65

>  <PUBCHEM_ATOM_DEF_STEREO_COUNT>
0

>  <PUBCHEM_ATOM_UDEF_STEREO_COUNT>
15

>  <PUBCHEM_BOND_DEF_STEREO_COUNT>
1

>  <PUBCHEM_BOND_UDEF_STEREO_COUNT>
0

>  <PUBCHEM_ISOTOPIC_ATOM_COUNT>
0

>  <PUBCHEM_COMPONENT_COUNT>
1

>  <PUBCHEM_CACTVS_TAUTO_COUNT>
162

>  <PUBCHEM_COORDINATE_TYPE>
1
5
255

>  <PUBCHEM_BONDANNOTATIONS>
24  1  3
26  1  3
36  12  3
37  13  3
40  14  3
39  15  3
16  43  8
16  48  8
32  34  3
33  35  3
38  42  3
25  4  3
41  43  8
41  44  8
44  46  8
46  48  8
46  51  8
47  53  8
47  56  8
48  52  8
49  54  8
49  55  8
31  5  3
51  59  8
52  62  8
53  63  8
54  60  8
55  61  8
56  64  8
58  60  8
58  61  8
59  62  8
27  6  3
63  65  8
64  65  8
28  7  3
29  8  3
30  9  3

$$$$
