131752037
 OpenBabel06101807152D

 51 52  0  0  1  0  0  0  0  0999 V2000
    3.5836   -1.2097    0.0000 O   0  0  0  0  0  0  0  0  0  0  0  0
    5.3958    1.5950    0.0000 O   0  0  0  0  0  0  0  0  0  0  0  0
    6.2619   -3.9050    0.0000 O   0  0  0  0  0  0  0  0  0  0  0  0
    2.0000   -0.4050    0.0000 O   0  0  0  0  0  0  0  0  0  0  0  0
    7.1279    1.5950    0.0000 O   0  0  0  0  0  0  0  0  0  0  0  0
    4.5298    0.0950    0.0000 C   0  0  3  0  0  0  0  0  0  0  0  0
    5.3958    0.5950    0.0000 C   0  0  3  0  0  0  0  0  0  0  0  0
    4.5298   -0.9050    0.0000 C   0  0  3  0  0  0  0  0  0  0  0  0
    6.2619    0.0950    0.0000 C   0  0  0  0  0  0  0  0  0  0  0  0
    3.5836    0.3997    0.0000 C   0  0  0  0  0  0  0  0  0  0  0  0
    5.3958   -1.4050    0.0000 C   0  0  0  0  0  0  0  0  0  0  0  0
    6.2619   -0.9050    0.0000 C   0  0  0  0  0  0  0  0  0  0  0  0
    3.0000   -0.4050    0.0000 C   0  0  0  0  0  0  0  0  0  0  0  0
    5.3958   -2.4050    0.0000 C   0  0  0  0  0  0  0  0  0  0  0  0
    6.2619   -2.9050    0.0000 C   0  0  3  0  0  0  0  0  0  0  0  0
    7.1279   -2.4050    0.0000 C   0  0  0  0  0  0  0  0  0  0  0  0
    7.1279   -1.4050    0.0000 C   0  0  0  0  0  0  0  0  0  0  0  0
    3.2729    1.3502    0.0000 C   0  0  0  0  0  0  0  0  0  0  0  0
    4.8053   -1.4351    0.0000 C   0  0  0  0  0  0  0  0  0  0  0  0
    4.5298   -2.9050    0.0000 C   0  0  0  0  0  0  0  0  0  0  0  0
    6.2619    2.0950    0.0000 C   0  0  0  0  0  0  0  0  0  0  0  0
    6.2619    3.0950    0.0000 C   0  0  0  0  0  0  0  0  0  0  0  0
    5.3958    3.5950    0.0000 C   0  0  0  0  0  0  0  0  0  0  0  0
    7.1279    3.5950    0.0000 C   0  0  0  0  0  0  0  0  0  0  0  0
    7.9939    3.0950    0.0000 C   0  0  0  0  0  0  0  0  0  0  0  0
    4.4642    0.7115    0.0000 H   0  0  0  0  0  0  0  0  0  0  0  0
    5.9328    0.9050    0.0000 H   0  0  0  0  0  0  0  0  0  0  0  0
    4.4642   -1.5215    0.0000 H   0  0  0  0  0  0  0  0  0  0  0  0
    6.8725   -0.0127    0.0000 H   0  0  0  0  0  0  0  0  0  0  0  0
    6.4739    0.6776    0.0000 H   0  0  0  0  0  0  0  0  0  0  0  0
    6.0064   -1.5127    0.0000 H   0  0  0  0  0  0  0  0  0  0  0  0
    5.7249   -3.2150    0.0000 H   0  0  0  0  0  0  0  0  0  0  0  0
    7.3400   -2.9876    0.0000 H   0  0  0  0  0  0  0  0  0  0  0  0
    7.7385   -2.2973    0.0000 H   0  0  0  0  0  0  0  0  0  0  0  0
    7.6648   -1.0950    0.0000 H   0  0  0  0  0  0  0  0  0  0  0  0
    3.6870    1.8117    0.0000 H   0  0  0  0  0  0  0  0  0  0  0  0
    2.6663    1.4781    0.0000 H   0  0  0  0  0  0  0  0  0  0  0  0
    4.5933   -0.8525    0.0000 H   0  0  0  0  0  0  0  0  0  0  0  0
    4.2227   -1.6471    0.0000 H   0  0  0  0  0  0  0  0  0  0  0  0
    5.0174   -2.0177    0.0000 H   0  0  0  0  0  0  0  0  0  0  0  0
    4.2198   -2.3681    0.0000 H   0  0  0  0  0  0  0  0  0  0  0  0
    3.9929   -3.2150    0.0000 H   0  0  0  0  0  0  0  0  0  0  0  0
    4.8398   -3.4419    0.0000 H   0  0  0  0  0  0  0  0  0  0  0  0
    6.7988   -4.2150    0.0000 H   0  0  0  0  0  0  0  0  0  0  0  0
    5.7058    4.1319    0.0000 H   0  0  0  0  0  0  0  0  0  0  0  0
    4.8589    3.9050    0.0000 H   0  0  0  0  0  0  0  0  0  0  0  0
    5.0858    3.0581    0.0000 H   0  0  0  0  0  0  0  0  0  0  0  0
    7.1279    4.2150    0.0000 H   0  0  0  0  0  0  0  0  0  0  0  0
    7.6839    2.5581    0.0000 H   0  0  0  0  0  0  0  0  0  0  0  0
    8.5309    2.7850    0.0000 H   0  0  0  0  0  0  0  0  0  0  0  0
    8.3039    3.6319    0.0000 H   0  0  0  0  0  0  0  0  0  0  0  0
  1  8  1  0  0  0  0
  1 13  1  0  0  0  0
  2  7  1  0  0  0  0
  2 21  1  0  0  0  0
  3 15  1  0  0  0  0
  3 44  1  0  0  0  0
  4 13  2  0  0  0  0
  5 21  2  0  0  0  0
  6  7  1  0  0  0  0
  6  8  1  0  0  0  0
  6 10  1  0  0  0  0
  6 26  1  0  0  0  0
  7  9  1  0  0  0  0
  7 27  1  0  0  0  0
  8 11  1  0  0  0  0
  8 28  1  0  0  0  0
  9 12  1  0  0  0  0
  9 29  1  0  0  0  0
  9 30  1  0  0  0  0
 10 13  1  0  0  0  0
 10 18  2  0  0  0  0
 11 14  2  0  0  0  0
 11 31  1  0  0  0  0
 12 17  2  0  0  0  0
 12 19  1  0  0  0  0
 14 15  1  0  0  0  0
 14 20  1  0  0  0  0
 15 16  1  0  0  0  0
 15 32  1  0  0  0  0
 16 17  1  0  0  0  0
 16 33  1  0  0  0  0
 16 34  1  0  0  0  0
 17 35  1  0  0  0  0
 18 36  1  0  0  0  0
 18 37  1  0  0  0  0
 19 38  1  0  0  0  0
 19 39  1  0  0  0  0
 19 40  1  0  0  0  0
 20 41  1  0  0  0  0
 20 42  1  0  0  0  0
 20 43  1  0  0  0  0
 21 22  1  0  0  0  0
 22 23  1  0  0  0  0
 22 24  2  0  0  0  0
 23 45  1  0  0  0  0
 23 46  1  0  0  0  0
 23 47  1  0  0  0  0
 24 25  1  0  0  0  0
 24 48  1  0  0  0  0
 25 49  1  0  0  0  0
 25 50  1  0  0  0  0
 25 51  1  0  0  0  0
M  END
>  <PUBCHEM_COMPOUND_CID>
131752037

>  <PUBCHEM_COMPOUND_CANONICALIZED>
1

>  <PUBCHEM_CACTVS_COMPLEXITY>
668

>  <PUBCHEM_CACTVS_HBOND_ACCEPTOR>
5

>  <PUBCHEM_CACTVS_HBOND_DONOR>
1

>  <PUBCHEM_CACTVS_ROTATABLE_BOND>
3

>  <PUBCHEM_CACTVS_SUBSKEYS>
AAADceB4OAAAAAAAAAAAAAAAAAAAASAAAAAAAAAAAAAAAACAAAAAGgAACAAADRSggAICCAAABgCIAiDSCAAAAAAgAAAACAEAAEgAFBIAIQACUAAFwAAIMYPKyCCOAAAAAAAAAAAAAAAAAAAAAAAAAAAAAA==

>  <PUBCHEM_IUPAC_OPENEYE_NAME>
[(6E,10E)-9-hydroxy-6,10-dimethyl-3-methylene-2-oxo-3a,4,5,8,9,11a-hexahydrocyclodeca[b]furan-4-yl] (Z)-2-methylbut-2-enoate

>  <PUBCHEM_IUPAC_CAS_NAME>
(Z)-2-methyl-2-butenoic acid [(6E,10E)-9-hydroxy-6,10-dimethyl-3-methylene-2-oxo-3a,4,5,8,9,11a-hexahydrocyclodeca[b]furan-4-yl] ester

>  <PUBCHEM_IUPAC_NAME>
[(6E,10E)-9-hydroxy-6,10-dimethyl-3-methylidene-2-oxo-3a,4,5,8,9,11a-hexahydrocyclodeca[b]furan-4-yl] (Z)-2-methylbut-2-enoate

>  <PUBCHEM_IUPAC_SYSTEMATIC_NAME>
[(6E,10E)-6,10-dimethyl-3-methylidene-9-oxidanyl-2-oxidanylidene-3a,4,5,8,9,11a-hexahydrocyclodeca[b]furan-4-yl] (Z)-2-methylbut-2-enoate

>  <PUBCHEM_IUPAC_TRADITIONAL_NAME>
(Z)-2-methylbut-2-enoic acid [(6E,10E)-9-hydroxy-2-keto-6,10-dimethyl-3-methylene-3a,4,5,8,9,11a-hexahydrocyclodeca[b]furan-4-yl] ester

>  <PUBCHEM_IUPAC_INCHI>
InChI=1S/C20H26O5/c1-6-12(3)19(22)24-16-9-11(2)7-8-15(21)13(4)10-17-18(16)14(5)20(23)25-17/h6-7,10,15-18,21H,5,8-9H2,1-4H3/b11-7+,12-6-,13-10+

>  <PUBCHEM_IUPAC_INCHIKEY>
QFINJHBXXJQKPB-QLDBJWRKSA-N

>  <PUBCHEM_EXACT_MASS>
346.178

>  <PUBCHEM_MOLECULAR_FORMULA>
C20H26O5

>  <PUBCHEM_MOLECULAR_WEIGHT>
346.423

>  <PUBCHEM_OPENEYE_CAN_SMILES>
CC=C(C)C(=O)OC1CC(=CCC(C(=CC2C1C(=C)C(=O)O2)C)O)C

>  <PUBCHEM_OPENEYE_ISO_SMILES>
C/C=C(/C)\C(=O)OC1C/C(=C/CC(/C(=C/C2C1C(=C)C(=O)O2)/C)O)/C

>  <PUBCHEM_CACTVS_TPSA>
72.8

>  <PUBCHEM_MONOISOTOPIC_WEIGHT>
346.178

>  <PUBCHEM_TOTAL_CHARGE>
0

>  <PUBCHEM_HEAVY_ATOM_COUNT>
25

>  <PUBCHEM_ATOM_DEF_STEREO_COUNT>
0

>  <PUBCHEM_ATOM_UDEF_STEREO_COUNT>
4

>  <PUBCHEM_BOND_DEF_STEREO_COUNT>
3

>  <PUBCHEM_BOND_UDEF_STEREO_COUNT>
0

>  <PUBCHEM_ISOTOPIC_ATOM_COUNT>
0

>  <PUBCHEM_COMPONENT_COUNT>
1

>  <PUBCHEM_CACTVS_TAUTO_COUNT>
1

>  <PUBCHEM_COORDINATE_TYPE>
1
5
255

>  <PUBCHEM_BONDANNOTATIONS>
7  2  3
15  3  3
6  10  3
8  11  3

$$$$
