131752858
 OpenBabel06101807152D

 39 39  0  0  1  0  0  0  0  0999 V2000
    5.9641    1.4715    0.0000 O   0  0  0  0  0  0  0  0  0  0  0  0
    4.5981    0.8375    0.0000 O   0  0  0  0  0  0  0  0  0  0  0  0
    7.1962    2.3375    0.0000 O   0  0  0  0  0  0  0  0  0  0  0  0
    3.7320    3.3375    0.0000 O   0  0  0  0  0  0  0  0  0  0  0  0
    6.9729    3.6035    0.0000 O   0  0  0  0  0  0  0  0  0  0  0  0
    4.9641    4.9356    0.0000 O   0  0  0  0  0  0  0  0  0  0  0  0
    2.8660    1.8375    0.0000 O   0  0  0  0  0  0  0  0  0  0  0  0
    6.2302    4.7123    0.0000 O   0  0  0  0  0  0  0  0  0  0  0  0
    2.8660    0.8375    0.0000 O   0  0  0  0  0  0  0  0  0  0  0  0
    2.8660   -5.1625    0.0000 O   0  0  0  0  0  0  0  0  0  0  0  0
    5.4641    2.3375    0.0000 C   0  0  3  0  0  0  0  0  0  0  0  0
    4.5981    1.8375    0.0000 C   0  0  3  0  0  0  0  0  0  0  0  0
    4.9641    3.2035    0.0000 C   0  0  0  0  0  0  0  0  0  0  0  0
    6.3301    2.8375    0.0000 C   0  0  0  0  0  0  0  0  0  0  0  0
    3.7320    2.3375    0.0000 C   0  0  0  0  0  0  0  0  0  0  0  0
    5.4641    4.0695    0.0000 C   0  0  0  0  0  0  0  0  0  0  0  0
    3.7320    0.3375    0.0000 C   0  0  0  0  0  0  0  0  0  0  0  0
    3.7320   -0.6625    0.0000 C   0  0  0  0  0  0  0  0  0  0  0  0
    2.8660   -1.1625    0.0000 C   0  0  0  0  0  0  0  0  0  0  0  0
    2.8660   -2.1625    0.0000 C   0  0  0  0  0  0  0  0  0  0  0  0
    2.0000   -2.6625    0.0000 C   0  0  0  0  0  0  0  0  0  0  0  0
    3.7320   -2.6625    0.0000 C   0  0  0  0  0  0  0  0  0  0  0  0
    2.0000   -3.6625    0.0000 C   0  0  0  0  0  0  0  0  0  0  0  0
    3.7320   -3.6625    0.0000 C   0  0  0  0  0  0  0  0  0  0  0  0
    2.8660   -4.1625    0.0000 C   0  0  0  0  0  0  0  0  0  0  0  0
    4.0611    1.5275    0.0000 H   0  0  0  0  0  0  0  0  0  0  0  0
    4.4892    3.6020    0.0000 H   0  0  0  0  0  0  0  0  0  0  0  0
    4.4892    2.8050    0.0000 H   0  0  0  0  0  0  0  0  0  0  0  0
    6.5841    1.4715    0.0000 H   0  0  0  0  0  0  0  0  0  0  0  0
    7.7331    2.6475    0.0000 H   0  0  0  0  0  0  0  0  0  0  0  0
    4.2690   -0.9725    0.0000 H   0  0  0  0  0  0  0  0  0  0  0  0
    3.1951    3.6475    0.0000 H   0  0  0  0  0  0  0  0  0  0  0  0
    5.2741    5.4725    0.0000 H   0  0  0  0  0  0  0  0  0  0  0  0
    2.3291   -0.8525    0.0000 H   0  0  0  0  0  0  0  0  0  0  0  0
    1.4631   -2.3525    0.0000 H   0  0  0  0  0  0  0  0  0  0  0  0
    4.2690   -2.3525    0.0000 H   0  0  0  0  0  0  0  0  0  0  0  0
    1.4631   -3.9725    0.0000 H   0  0  0  0  0  0  0  0  0  0  0  0
    4.2690   -3.9725    0.0000 H   0  0  0  0  0  0  0  0  0  0  0  0
    2.3291   -5.4725    0.0000 H   0  0  0  0  0  0  0  0  0  0  0  0
  1 11  1  0  0  0  0
  1 29  1  0  0  0  0
  2 12  1  0  0  0  0
  2 17  1  0  0  0  0
  3 14  1  0  0  0  0
  3 30  1  0  0  0  0
  4 15  1  0  0  0  0
  4 32  1  0  0  0  0
  5 14  2  0  0  0  0
  6 16  1  0  0  0  0
  6 33  1  0  0  0  0
  7 15  2  0  0  0  0
  8 16  2  0  0  0  0
  9 17  2  0  0  0  0
 10 25  1  0  0  0  0
 10 39  1  0  0  0  0
 11 12  1  0  0  0  0
 11 13  1  0  0  0  0
 11 14  1  0  0  0  0
 12 15  1  0  0  0  0
 12 26  1  0  0  0  0
 13 16  1  0  0  0  0
 13 27  1  0  0  0  0
 13 28  1  0  0  0  0
 17 18  1  0  0  0  0
 18 19  2  0  0  0  0
 18 31  1  0  0  0  0
 19 20  1  0  0  0  0
 19 34  1  0  0  0  0
 20 21  2  0  0  0  0
 20 22  1  0  0  0  0
 21 23  1  0  0  0  0
 21 35  1  0  0  0  0
 22 24  2  0  0  0  0
 22 36  1  0  0  0  0
 23 25  2  0  0  0  0
 23 37  1  0  0  0  0
 24 25  1  0  0  0  0
 24 38  1  0  0  0  0
M  END
>  <PUBCHEM_COMPOUND_CID>
131752858

>  <PUBCHEM_COMPOUND_CANONICALIZED>
1

>  <PUBCHEM_CACTVS_COMPLEXITY>
561

>  <PUBCHEM_CACTVS_HBOND_ACCEPTOR>
10

>  <PUBCHEM_CACTVS_HBOND_DONOR>
5

>  <PUBCHEM_CACTVS_ROTATABLE_BOND>
9

>  <PUBCHEM_CACTVS_SUBSKEYS>
AAADccBwPAAAAAAAAAAAAAAAAAAAAAAAAAAwAAAAAAAAAAABAAAAGgAACAAADFSgmAIwDoAABgCIAiDSCAICAAAgIAAIiAFGCMgJJjaCMRaCcAAl4BELuYfL5gAOIAAAAAAAAABAAAAAAAAAAAAAAAAAAA==

>  <PUBCHEM_IUPAC_OPENEYE_NAME>
2-hydroxy-1-[(E)-3-(4-hydroxyphenyl)prop-2-enoyl]oxy-propane-1,2,3-tricarboxylic acid

>  <PUBCHEM_IUPAC_CAS_NAME>
2-hydroxy-1-[(E)-3-(4-hydroxyphenyl)-1-oxoprop-2-enoxy]propane-1,2,3-tricarboxylic acid

>  <PUBCHEM_IUPAC_NAME>
2-hydroxy-1-[(E)-3-(4-hydroxyphenyl)prop-2-enoyl]oxypropane-1,2,3-tricarboxylic acid

>  <PUBCHEM_IUPAC_SYSTEMATIC_NAME>
1-[(E)-3-(4-hydroxyphenyl)prop-2-enoyl]oxy-2-oxidanyl-propane-1,2,3-tricarboxylic acid

>  <PUBCHEM_IUPAC_TRADITIONAL_NAME>
2-hydroxy-1-[(E)-3-(4-hydroxyphenyl)acryloyl]oxy-propane-1,2,3-tricarboxylic acid

>  <PUBCHEM_IUPAC_INCHI>
InChI=1S/C15H14O10/c16-9-4-1-8(2-5-9)3-6-11(19)25-12(13(20)21)15(24,14(22)23)7-10(17)18/h1-6,12,16,24H,7H2,(H,17,18)(H,20,21)(H,22,23)/b6-3+

>  <PUBCHEM_IUPAC_INCHIKEY>
ZHUVVSHTKJAVQB-ZZXKWVIFSA-N

>  <PUBCHEM_EXACT_MASS>
354.059

>  <PUBCHEM_MOLECULAR_FORMULA>
C15H14O10

>  <PUBCHEM_MOLECULAR_WEIGHT>
354.267

>  <PUBCHEM_OPENEYE_CAN_SMILES>
C1=CC(=CC=C1C=CC(=O)OC(C(=O)O)C(CC(=O)O)(C(=O)O)O)O

>  <PUBCHEM_OPENEYE_ISO_SMILES>
C1=CC(=CC=C1/C=C/C(=O)OC(C(=O)O)C(CC(=O)O)(C(=O)O)O)O

>  <PUBCHEM_CACTVS_TPSA>
179

>  <PUBCHEM_MONOISOTOPIC_WEIGHT>
354.059

>  <PUBCHEM_TOTAL_CHARGE>
0

>  <PUBCHEM_HEAVY_ATOM_COUNT>
25

>  <PUBCHEM_ATOM_DEF_STEREO_COUNT>
0

>  <PUBCHEM_ATOM_UDEF_STEREO_COUNT>
2

>  <PUBCHEM_BOND_DEF_STEREO_COUNT>
1

>  <PUBCHEM_BOND_UDEF_STEREO_COUNT>
0

>  <PUBCHEM_ISOTOPIC_ATOM_COUNT>
0

>  <PUBCHEM_COMPONENT_COUNT>
1

>  <PUBCHEM_CACTVS_TAUTO_COUNT>
4

>  <PUBCHEM_COORDINATE_TYPE>
1
5
255

>  <PUBCHEM_BONDANNOTATIONS>
11  1  3
12  15  3
20  21  8
20  22  8
21  23  8
22  24  8
23  25  8
24  25  8

$$$$
