131752380
 OpenBabel06101807152D

 95100  0  0  1  0  0  0  0  0999 V2000
    6.8671   -3.6383    0.0000 O   0  0  0  0  0  0  0  0  0  0  0  0
    5.1350   -1.6383    0.0000 O   0  0  0  0  0  0  0  0  0  0  0  0
    7.7331   -2.1383    0.0000 O   0  0  0  0  0  0  0  0  0  0  0  0
    6.8671   -1.6383    0.0000 O   0  0  0  0  0  0  0  0  0  0  0  0
    5.1350   -4.6383    0.0000 O   0  0  0  0  0  0  0  0  0  0  0  0
    3.4030   -3.6383    0.0000 O   0  0  0  0  0  0  0  0  0  0  0  0
    8.5991   -4.6383    0.0000 O   0  0  0  0  0  0  0  0  0  0  0  0
   10.3312   -3.6383    0.0000 O   0  0  0  0  0  0  0  0  0  0  0  0
   10.3312   -1.6383    0.0000 O   0  0  0  0  0  0  0  0  0  0  0  0
   10.3866    2.3485    0.0000 O   0  0  0  0  0  0  0  0  0  0  0  0
    2.5369   -2.1383    0.0000 O   0  0  0  0  0  0  0  0  0  0  0  0
    9.5033    0.8586    0.0000 O   0  0  0  0  0  0  0  0  0  0  0  0
    9.4651   -0.1383    0.0000 O   0  0  0  0  0  0  0  0  0  0  0  0
   12.9671    0.8185    0.0000 O   0  0  0  0  0  0  0  0  0  0  0  0
   12.9903    2.8184    0.0000 O   0  0  0  0  0  0  0  0  0  0  0  0
   11.2236   -0.1614    0.0000 O   0  0  0  0  0  0  0  0  0  0  0  0
    6.0010    0.8617    0.0000 O   0  3  0  0  0  0  0  0  0  0  0  0
   12.1416    4.3283    0.0000 O   0  0  0  0  0  0  0  0  0  0  0  0
    7.7452    3.9310    0.0000 O   0  0  0  0  0  0  0  0  0  0  0  0
    4.2691    2.8618    0.0000 O   0  0  0  0  0  0  0  0  0  0  0  0
    2.5370    1.8618    0.0000 O   0  0  0  0  0  0  0  0  0  0  0  0
    6.0010   -3.1383    0.0000 C   0  0  2  0  0  0  0  0  0  0  0  0
    5.1350   -3.6383    0.0000 C   0  0  2  0  0  0  0  0  0  0  0  0
    4.2690   -3.1383    0.0000 C   0  0  1  0  0  0  0  0  0  0  0  0
    7.7331   -3.1383    0.0000 C   0  0  2  0  0  0  0  0  0  0  0  0
    6.0010   -2.1383    0.0000 C   0  0  2  0  0  0  0  0  0  0  0  0
    8.5991   -3.6383    0.0000 C   0  0  1  0  0  0  0  0  0  0  0  0
    4.2690   -2.1383    0.0000 C   0  0  1  0  0  0  0  0  0  0  0  0
    9.4651   -3.1383    0.0000 C   0  0  2  0  0  0  0  0  0  0  0  0
    9.4651   -2.1383    0.0000 C   0  0  1  0  0  0  0  0  0  0  0  0
    8.5991   -1.6383    0.0000 C   0  0  1  0  0  0  0  0  0  0  0  0
    3.4030   -1.6383    0.0000 C   0  0  0  0  0  0  0  0  0  0  0  0
    8.5991   -0.6383    0.0000 C   0  0  0  0  0  0  0  0  0  0  0  0
   12.1070    1.3285    0.0000 C   0  0  1  0  0  0  0  0  0  0  0  0
   12.1185    2.3284    0.0000 C   0  0  1  0  0  0  0  0  0  0  0  0
   11.2352    0.8386    0.0000 C   0  0  2  0  0  0  0  0  0  0  0  0
   11.2583    2.8384    0.0000 C   0  0  1  0  0  0  0  0  0  0  0  0
   10.3750    1.3485    0.0000 C   0  0  1  0  0  0  0  0  0  0  0  0
    6.8671   -0.6383    0.0000 C   0  0  0  0  0  0  0  0  0  0  0  0
   11.2699    3.8384    0.0000 C   0  0  0  0  0  0  0  0  0  0  0  0
    7.7331   -0.1383    0.0000 C   0  0  0  0  0  0  0  0  0  0  0  0
    7.7331    0.8617    0.0000 C   0  0  0  0  0  0  0  0  0  0  0  0
    6.0010   -0.1383    0.0000 C   0  0  0  0  0  0  0  0  0  0  0  0
    8.6431    1.3686    0.0000 C   0  0  0  0  0  0  0  0  0  0  0  0
    6.8671    1.3617    0.0000 C   0  0  0  0  0  0  0  0  0  0  0  0
    5.1350    0.3618    0.0000 C   0  0  0  0  0  0  0  0  0  0  0  0
    8.6511    2.4102    0.0000 C   0  0  0  0  0  0  0  0  0  0  0  0
    6.8510    2.4032    0.0000 C   0  0  0  0  0  0  0  0  0  0  0  0
    7.7490    2.9310    0.0000 C   0  0  0  0  0  0  0  0  0  0  0  0
    5.1351    1.3618    0.0000 C   0  0  0  0  0  0  0  0  0  0  0  0
    4.2690   -0.1383    0.0000 C   0  0  0  0  0  0  0  0  0  0  0  0
    4.2690    1.8618    0.0000 C   0  0  0  0  0  0  0  0  0  0  0  0
    3.4030    0.3617    0.0000 C   0  0  0  0  0  0  0  0  0  0  0  0
    3.4030    1.3618    0.0000 C   0  0  0  0  0  0  0  0  0  0  0  0
    6.0010   -3.7583    0.0000 H   0  0  0  0  0  0  0  0  0  0  0  0
    4.5981   -3.9483    0.0000 H   0  0  0  0  0  0  0  0  0  0  0  0
    4.2690   -3.7583    0.0000 H   0  0  0  0  0  0  0  0  0  0  0  0
    7.1962   -2.8283    0.0000 H   0  0  0  0  0  0  0  0  0  0  0  0
    6.0010   -1.5183    0.0000 H   0  0  0  0  0  0  0  0  0  0  0  0
    8.0622   -3.9483    0.0000 H   0  0  0  0  0  0  0  0  0  0  0  0
    4.2690   -1.5183    0.0000 H   0  0  0  0  0  0  0  0  0  0  0  0
    9.4651   -3.7583    0.0000 H   0  0  0  0  0  0  0  0  0  0  0  0
   10.0021   -2.4483    0.0000 H   0  0  0  0  0  0  0  0  0  0  0  0
    8.0622   -1.3283    0.0000 H   0  0  0  0  0  0  0  0  0  0  0  0
    3.8015   -1.1633    0.0000 H   0  0  0  0  0  0  0  0  0  0  0  0
    3.0044   -1.1633    0.0000 H   0  0  0  0  0  0  0  0  0  0  0  0
    8.3871   -0.0557    0.0000 H   0  0  0  0  0  0  0  0  0  0  0  0
    7.9885   -0.7459    0.0000 H   0  0  0  0  0  0  0  0  0  0  0  0
   12.0998    0.7086    0.0000 H   0  0  0  0  0  0  0  0  0  0  0  0
   12.6518    2.0123    0.0000 H   0  0  0  0  0  0  0  0  0  0  0  0
    4.5981   -4.9483    0.0000 H   0  0  0  0  0  0  0  0  0  0  0  0
   11.7685    0.5224    0.0000 H   0  0  0  0  0  0  0  0  0  0  0  0
   10.7250    3.1546    0.0000 H   0  0  0  0  0  0  0  0  0  0  0  0
    3.4030   -4.2583    0.0000 H   0  0  0  0  0  0  0  0  0  0  0  0
   10.3679    0.7286    0.0000 H   0  0  0  0  0  0  0  0  0  0  0  0
    9.1360   -4.9483    0.0000 H   0  0  0  0  0  0  0  0  0  0  0  0
   10.3312   -4.2583    0.0000 H   0  0  0  0  0  0  0  0  0  0  0  0
   10.8681   -1.9483    0.0000 H   0  0  0  0  0  0  0  0  0  0  0  0
   11.0646    4.4234    0.0000 H   0  0  0  0  0  0  0  0  0  0  0  0
   10.6581    3.7378    0.0000 H   0  0  0  0  0  0  0  0  0  0  0  0
    2.0000   -1.8283    0.0000 H   0  0  0  0  0  0  0  0  0  0  0  0
    8.2700   -0.4483    0.0000 H   0  0  0  0  0  0  0  0  0  0  0  0
   10.0021   -0.4483    0.0000 H   0  0  0  0  0  0  0  0  0  0  0  0
   13.5076    1.1223    0.0000 H   0  0  0  0  0  0  0  0  0  0  0  0
   13.5236    2.5022    0.0000 H   0  0  0  0  0  0  0  0  0  0  0  0
   11.7570   -0.4776    0.0000 H   0  0  0  0  0  0  0  0  0  0  0  0
    9.1892    2.7181    0.0000 H   0  0  0  0  0  0  0  0  0  0  0  0
    6.3105    2.7070    0.0000 H   0  0  0  0  0  0  0  0  0  0  0  0
   12.1488    4.9483    0.0000 H   0  0  0  0  0  0  0  0  0  0  0  0
    5.6720    1.6718    0.0000 H   0  0  0  0  0  0  0  0  0  0  0  0
    4.2690   -0.7583    0.0000 H   0  0  0  0  0  0  0  0  0  0  0  0
    2.8660    0.0517    0.0000 H   0  0  0  0  0  0  0  0  0  0  0  0
    7.2071    4.2389    0.0000 H   0  0  0  0  0  0  0  0  0  0  0  0
    4.8059    3.1717    0.0000 H   0  0  0  0  0  0  0  0  0  0  0  0
    2.0000    1.5517    0.0000 H   0  0  0  0  0  0  0  0  0  0  0  0
  2 26  1  0  0  0  0
  2 28  1  0  0  0  0
  3 25  1  0  0  0  0
  3 31  1  0  0  0  0
  4 39  1  0  0  0  0
  5 71  1  0  0  0  0
  6 74  1  0  0  0  0
  7 76  1  0  0  0  0
  8 77  1  0  0  0  0
  9 78  1  0  0  0  0
 10 37  1  0  0  0  0
 10 38  1  0  0  0  0
 11 32  1  0  0  0  0
 11 81  1  0  0  0  0
 12 44  1  0  0  0  0
 13 33  1  0  0  0  0
 13 83  1  0  0  0  0
 14 84  1  0  0  0  0
 15 85  1  0  0  0  0
 16 86  1  0  0  0  0
 17 43  1  0  0  0  0
 17 45  2  0  0  0  0
 18 40  1  0  0  0  0
 18 89  1  0  0  0  0
 19 49  1  0  0  0  0
 19 93  1  0  0  0  0
 20 52  1  0  0  0  0
 20 94  1  0  0  0  0
 21 54  1  0  0  0  0
 21 95  1  0  0  0  0
 22  1  1  0  0  0  0
 22 23  1  6  0  0  0
 22 55  1  0  0  0  0
 23  5  1  0  0  0  0
 23 24  1  1  0  0  0
 23 56  1  0  0  0  0
 24  6  1  0  0  0  0
 24 28  1  1  0  0  0
 24 57  1  0  0  0  0
 25  1  1  0  0  0  0
 25 27  1  1  0  0  0
 25 58  1  0  0  0  0
 26  4  1  0  0  0  0
 26 22  1  1  0  0  0
 26 59  1  0  0  0  0
 27  7  1  0  0  0  0
 27 29  1  6  0  0  0
 27 60  1  0  0  0  0
 28 32  1  0  0  0  0
 28 61  1  6  0  0  0
 29  8  1  0  0  0  0
 29 30  1  1  0  0  0
 29 62  1  0  0  0  0
 30  9  1  0  0  0  0
 30 31  1  6  0  0  0
 30 63  1  0  0  0  0
 31 33  1  0  0  0  0
 31 64  1  1  0  0  0
 32 65  1  0  0  0  0
 32 66  1  0  0  0  0
 33 67  1  0  0  0  0
 33 68  1  0  0  0  0
 34 14  1  0  0  0  0
 34 35  1  1  0  0  0
 34 69  1  0  0  0  0
 35 15  1  0  0  0  0
 35 37  1  6  0  0  0
 35 70  1  0  0  0  0
 36 16  1  0  0  0  0
 36 34  1  1  0  0  0
 36 72  1  0  0  0  0
 37 40  1  0  0  0  0
 37 73  1  1  0  0  0
 38 12  1  0  0  0  0
 38 36  1  6  0  0  0
 38 75  1  0  0  0  0
 39 41  1  0  0  0  0
 39 43  2  0  0  0  0
 40 79  1  0  0  0  0
 40 80  1  0  0  0  0
 41 42  2  0  0  0  0
 41 82  1  0  0  0  0
 42 44  1  0  0  0  0
 42 45  1  0  0  0  0
 43 46  1  0  0  0  0
 44 47  2  0  0  0  0
 45 48  1  0  0  0  0
 46 50  2  0  0  0  0
 46 51  1  0  0  0  0
 47 49  1  0  0  0  0
 47 87  1  0  0  0  0
 48 49  2  0  0  0  0
 48 88  1  0  0  0  0
 50 52  1  0  0  0  0
 50 90  1  0  0  0  0
 51 53  2  0  0  0  0
 51 91  1  0  0  0  0
 52 54  2  0  0  0  0
 53 54  1  0  0  0  0
 53 92  1  0  0  0  0
M  CHG  1  17   1
M  END
>  <PUBCHEM_COMPOUND_CID>
131752380

>  <PUBCHEM_COMPOUND_CANONICALIZED>
1

>  <PUBCHEM_CACTVS_COMPLEXITY>
1190

>  <PUBCHEM_CACTVS_HBOND_ACCEPTOR>
20

>  <PUBCHEM_CACTVS_HBOND_DONOR>
14

>  <PUBCHEM_CACTVS_ROTATABLE_BOND>
10

>  <PUBCHEM_CACTVS_SUBSKEYS>
AAADcfB8PgAAAAAAAAAAAAAAAAAAAAAAAAA0aJEiAAAAAACR9AAAGgAACAAADBSwmAMwDsAABkCIAqBSAAICCAAkIAAIiAFGiMgdNzaGNR6ieWOl4BUPuYfK7PzOIAABCAAIQABAAAIQABCAAAAAAAAAAA==

>  <PUBCHEM_IUPAC_OPENEYE_NAME>
(2S,3R,4S,5S,6R)-2-[(2R,3R,4S,5S,6R)-2-[2-(3,4-dihydroxyphenyl)-7-hydroxy-5-[(2S,3R,4S,5S,6R)-3,4,5-trihydroxy-6-(hydroxymethyl)tetrahydropyran-2-yl]oxy-chromenylium-3-yl]oxy-4,5-dihydroxy-6-(hydroxymethyl)tetrahydropyran-3-yl]oxy-6-(hydroxymethyl)tetrahydropyran-3,4,5-triol

>  <PUBCHEM_IUPAC_CAS_NAME>
(2S,3R,4S,5S,6R)-2-[[(2R,3R,4S,5S,6R)-2-[[2-(3,4-dihydroxyphenyl)-7-hydroxy-5-[[(2S,3R,4S,5S,6R)-3,4,5-trihydroxy-6-(hydroxymethyl)-2-oxanyl]oxy]-1-benzopyrylium-3-yl]oxy]-4,5-dihydroxy-6-(hydroxymethyl)-3-oxanyl]oxy]-6-(hydroxymethyl)oxane-3,4,5-triol

>  <PUBCHEM_IUPAC_NAME>
(2S,3R,4S,5S,6R)-2-[(2R,3R,4S,5S,6R)-2-[2-(3,4-dihydroxyphenyl)-7-hydroxy-5-[(2S,3R,4S,5S,6R)-3,4,5-trihydroxy-6-(hydroxymethyl)oxan-2-yl]oxychromenylium-3-yl]oxy-4,5-dihydroxy-6-(hydroxymethyl)oxan-3-yl]oxy-6-(hydroxymethyl)oxane-3,4,5-triol

>  <PUBCHEM_IUPAC_SYSTEMATIC_NAME>
(2S,3R,4S,5S,6R)-2-[(2R,3R,4S,5S,6R)-2-[2-[3,4-bis(oxidanyl)phenyl]-5-[(2S,3R,4S,5S,6R)-6-(hydroxymethyl)-3,4,5-tris(oxidanyl)oxan-2-yl]oxy-7-oxidanyl-chromenylium-3-yl]oxy-6-(hydroxymethyl)-4,5-bis(oxidanyl)oxan-3-yl]oxy-6-(hydroxymethyl)oxane-3,4,5-triol

>  <PUBCHEM_IUPAC_TRADITIONAL_NAME>
(2S,3R,4S,5S,6R)-2-[(2R,3R,4S,5S,6R)-2-[[2-(3,4-dihydroxyphenyl)-7-hydroxy-5-[(2S,3R,4S,5S,6R)-3,4,5-trihydroxy-6-methylol-tetrahydropyran-2-yl]oxy-1-benzopyrylium-3-yl]oxy]-4,5-dihydroxy-6-methylol-tetrahydropyran-3-yl]oxy-6-methylol-tetrahydropyran-3,4,5-triol

>  <PUBCHEM_IUPAC_INCHI>
InChI=1S/C33H40O21/c34-7-18-21(40)24(43)27(46)31(51-18)49-16-5-11(37)4-15-12(16)6-17(29(48-15)10-1-2-13(38)14(39)3-10)50-33-30(26(45)23(42)20(9-36)53-33)54-32-28(47)25(44)22(41)19(8-35)52-32/h1-6,18-28,30-36,40-47H,7-9H2,(H2-,37,38,39)/p+1/t18-,19-,20-,21-,22-,23-,24+,25+,26+,27-,28-,30-,31-,32+,33+/m1/s1

>  <PUBCHEM_IUPAC_INCHIKEY>
LOXRHOFBKUTJEZ-QSJHZMFDSA-O

>  <PUBCHEM_EXACT_MASS>
773.214

>  <PUBCHEM_MOLECULAR_FORMULA>
C33H41O21+

>  <PUBCHEM_MOLECULAR_WEIGHT>
773.67

>  <PUBCHEM_OPENEYE_CAN_SMILES>
C1=CC(=C(C=C1C2=C(C=C3C(=CC(=CC3=[O+]2)O)OC4C(C(C(C(O4)CO)O)O)O)OC5C(C(C(C(O5)CO)O)O)OC6C(C(C(C(O6)CO)O)O)O)O)O

>  <PUBCHEM_OPENEYE_ISO_SMILES>
C1=CC(=C(C=C1C2=C(C=C3C(=CC(=CC3=[O+]2)O)O[C@H]4[C@@H]([C@H]([C@@H]([C@H](O4)CO)O)O)O)O[C@@H]5[C@@H]([C@H]([C@@H]([C@H](O5)CO)O)O)O[C@H]6[C@@H]([C@H]([C@@H]([C@H](O6)CO)O)O)O)O)O

>  <PUBCHEM_CACTVS_TPSA>
340

>  <PUBCHEM_MONOISOTOPIC_WEIGHT>
773.214

>  <PUBCHEM_TOTAL_CHARGE>
1

>  <PUBCHEM_HEAVY_ATOM_COUNT>
54

>  <PUBCHEM_ATOM_DEF_STEREO_COUNT>
15

>  <PUBCHEM_ATOM_UDEF_STEREO_COUNT>
0

>  <PUBCHEM_BOND_DEF_STEREO_COUNT>
0

>  <PUBCHEM_BOND_UDEF_STEREO_COUNT>
0

>  <PUBCHEM_ISOTOPIC_ATOM_COUNT>
0

>  <PUBCHEM_COMPONENT_COUNT>
1

>  <PUBCHEM_CACTVS_TAUTO_COUNT>
97

>  <PUBCHEM_COORDINATE_TYPE>
1
5
255

>  <PUBCHEM_BONDANNOTATIONS>
22  1  6
25  1  6
38  12  6
34  14  6
35  15  5
36  16  5
17  43  8
17  45  8
28  32  5
31  33  6
37  40  6
39  41  8
39  43  8
26  4  6
41  42  8
42  44  8
42  45  8
44  47  8
45  48  8
46  50  8
46  51  8
47  49  8
48  49  8
23  5  5
50  52  8
51  53  8
52  54  8
53  54  8
24  6  6
27  7  5
29  8  6
30  9  5

$$$$
