131752270
 OpenBabel06101807152D

 74 78  0  0  1  0  0  0  0  0999 V2000
    5.1350   -1.2393    0.0000 O   0  0  0  0  0  0  0  0  0  0  0  0
   11.2079   -1.7549    0.0000 O   0  0  0  0  0  0  0  0  0  0  0  0
    6.8671   -1.2393    0.0000 O   0  0  0  0  0  0  0  0  0  0  0  0
   10.3592   -0.2450    0.0000 O   0  0  0  0  0  0  0  0  0  0  0  0
    5.1350   -4.2393    0.0000 O   0  0  0  0  0  0  0  0  0  0  0  0
    3.4030   -3.2393    0.0000 O   0  0  0  0  0  0  0  0  0  0  0  0
    6.8671   -3.2393    0.0000 O   0  0  0  0  0  0  0  0  0  0  0  0
    8.5926   -3.2247    0.0000 O   0  0  0  0  0  0  0  0  0  0  0  0
   10.3130   -4.2447    0.0000 O   0  0  0  0  0  0  0  0  0  0  0  0
    8.6158   -1.2249    0.0000 O   0  0  0  0  0  0  0  0  0  0  0  0
    2.5369   -1.7393    0.0000 O   0  0  0  0  0  0  0  0  0  0  0  0
    8.6504    1.7749    0.0000 O   0  3  0  0  0  0  0  0  0  0  0  0
    5.1208    1.8399    0.0000 O   0  0  0  0  0  0  0  0  0  0  0  0
   11.2773    4.2447    0.0000 O   0  0  0  0  0  0  0  0  0  0  0  0
   12.9745    1.2249    0.0000 O   0  0  0  0  0  0  0  0  0  0  0  0
   12.9976    3.2247    0.0000 O   0  0  0  0  0  0  0  0  0  0  0  0
    5.1350   -3.2393    0.0000 C   0  0  3  0  0  0  0  0  0  0  0  0
    4.2690   -2.7393    0.0000 C   0  0  3  0  0  0  0  0  0  0  0  0
    6.0010   -2.7393    0.0000 C   0  0  3  0  0  0  0  0  0  0  0  0
    4.2690   -1.7393    0.0000 C   0  0  3  0  0  0  0  0  0  0  0  0
    9.4644   -2.7348    0.0000 C   0  0  3  0  0  0  0  0  0  0  0  0
   10.3246   -3.2448    0.0000 C   0  0  3  0  0  0  0  0  0  0  0  0
    9.4759   -1.7349    0.0000 C   0  0  3  0  0  0  0  0  0  0  0  0
   11.1963   -2.7548    0.0000 C   0  0  3  0  0  0  0  0  0  0  0  0
    6.0010   -1.7393    0.0000 C   0  0  3  0  0  0  0  0  0  0  0  0
   10.3477   -1.2449    0.0000 C   0  0  3  0  0  0  0  0  0  0  0  0
    3.4030   -1.2393    0.0000 C   0  0  0  0  0  0  0  0  0  0  0  0
   12.0565   -3.2648    0.0000 C   0  0  0  0  0  0  0  0  0  0  0  0
    6.8671   -0.2393    0.0000 C   0  0  0  0  0  0  0  0  0  0  0  0
    9.4991    0.2650    0.0000 C   0  0  0  0  0  0  0  0  0  0  0  0
    7.7671    0.2850    0.0000 C   0  0  0  0  0  0  0  0  0  0  0  0
    8.6273   -0.2249    0.0000 C   0  0  0  0  0  0  0  0  0  0  0  0
    9.5106    1.2649    0.0000 C   0  0  0  0  0  0  0  0  0  0  0  0
    7.7787    1.2850    0.0000 C   0  0  0  0  0  0  0  0  0  0  0  0
    5.9670    0.2850    0.0000 C   0  0  0  0  0  0  0  0  0  0  0  0
    6.8910    1.8299    0.0000 C   0  0  0  0  0  0  0  0  0  0  0  0
    5.9790    1.3266    0.0000 C   0  0  0  0  0  0  0  0  0  0  0  0
   10.3824    1.7549    0.0000 C   0  0  0  0  0  0  0  0  0  0  0  0
   11.2426    1.2449    0.0000 C   0  0  0  0  0  0  0  0  0  0  0  0
   10.3939    2.7548    0.0000 C   0  0  0  0  0  0  0  0  0  0  0  0
   11.2657    3.2448    0.0000 C   0  0  0  0  0  0  0  0  0  0  0  0
   12.1143    1.7349    0.0000 C   0  0  0  0  0  0  0  0  0  0  0  0
   12.1259    2.7348    0.0000 C   0  0  0  0  0  0  0  0  0  0  0  0
    4.5981   -3.5493    0.0000 H   0  0  0  0  0  0  0  0  0  0  0  0
    4.2690   -3.3593    0.0000 H   0  0  0  0  0  0  0  0  0  0  0  0
    6.0010   -3.3593    0.0000 H   0  0  0  0  0  0  0  0  0  0  0  0
    4.2690   -1.1193    0.0000 H   0  0  0  0  0  0  0  0  0  0  0  0
   10.0049   -2.4310    0.0000 H   0  0  0  0  0  0  0  0  0  0  0  0
   10.8579   -3.5610    0.0000 H   0  0  0  0  0  0  0  0  0  0  0  0
    8.9354   -2.0386    0.0000 H   0  0  0  0  0  0  0  0  0  0  0  0
   11.7368   -2.4510    0.0000 H   0  0  0  0  0  0  0  0  0  0  0  0
    6.0010   -1.1193    0.0000 H   0  0  0  0  0  0  0  0  0  0  0  0
    9.8144   -0.9287    0.0000 H   0  0  0  0  0  0  0  0  0  0  0  0
    3.8015   -0.7643    0.0000 H   0  0  0  0  0  0  0  0  0  0  0  0
    3.0044   -0.7643    0.0000 H   0  0  0  0  0  0  0  0  0  0  0  0
   11.7403   -3.7981    0.0000 H   0  0  0  0  0  0  0  0  0  0  0  0
   12.5898   -3.5810    0.0000 H   0  0  0  0  0  0  0  0  0  0  0  0
   12.3727   -2.7315    0.0000 H   0  0  0  0  0  0  0  0  0  0  0  0
    4.5981   -4.5493    0.0000 H   0  0  0  0  0  0  0  0  0  0  0  0
    3.4030   -3.8593    0.0000 H   0  0  0  0  0  0  0  0  0  0  0  0
    6.8671   -3.8593    0.0000 H   0  0  0  0  0  0  0  0  0  0  0  0
    8.5854   -3.8447    0.0000 H   0  0  0  0  0  0  0  0  0  0  0  0
   10.8463   -4.5609    0.0000 H   0  0  0  0  0  0  0  0  0  0  0  0
    8.0753   -1.5286    0.0000 H   0  0  0  0  0  0  0  0  0  0  0  0
    8.6201   -0.8449    0.0000 H   0  0  0  0  0  0  0  0  0  0  0  0
    2.0000   -1.4293    0.0000 H   0  0  0  0  0  0  0  0  0  0  0  0
    5.4277   -0.0208    0.0000 H   0  0  0  0  0  0  0  0  0  0  0  0
    6.9053    2.4498    0.0000 H   0  0  0  0  0  0  0  0  0  0  0  0
   11.2354    0.6250    0.0000 H   0  0  0  0  0  0  0  0  0  0  0  0
    9.8606    3.0710    0.0000 H   0  0  0  0  0  0  0  0  0  0  0  0
    5.1304    2.4598    0.0000 H   0  0  0  0  0  0  0  0  0  0  0  0
   10.7439    4.5609    0.0000 H   0  0  0  0  0  0  0  0  0  0  0  0
   13.5150    1.5286    0.0000 H   0  0  0  0  0  0  0  0  0  0  0  0
   13.0048    3.8447    0.0000 H   0  0  0  0  0  0  0  0  0  0  0  0
  1 20  1  0  0  0  0
  1 25  1  0  0  0  0
  2 24  1  0  0  0  0
  2 26  1  0  0  0  0
  3 25  1  0  0  0  0
  3 29  1  0  0  0  0
  4 26  1  0  0  0  0
  4 30  1  0  0  0  0
  5 17  1  0  0  0  0
  5 59  1  0  0  0  0
  6 18  1  0  0  0  0
  6 60  1  0  0  0  0
  7 19  1  0  0  0  0
  7 61  1  0  0  0  0
  8 21  1  0  0  0  0
  8 62  1  0  0  0  0
  9 22  1  0  0  0  0
  9 63  1  0  0  0  0
 10 23  1  0  0  0  0
 10 64  1  0  0  0  0
 11 27  1  0  0  0  0
 11 66  1  0  0  0  0
 12 33  1  0  0  0  0
 12 34  2  0  0  0  0
 13 37  1  0  0  0  0
 13 71  1  0  0  0  0
 14 41  1  0  0  0  0
 14 72  1  0  0  0  0
 15 42  1  0  0  0  0
 15 73  1  0  0  0  0
 16 43  1  0  0  0  0
 16 74  1  0  0  0  0
 17 18  1  0  0  0  0
 17 19  1  0  0  0  0
 17 44  1  0  0  0  0
 18 20  1  0  0  0  0
 18 45  1  0  0  0  0
 19 25  1  0  0  0  0
 19 46  1  0  0  0  0
 20 27  1  0  0  0  0
 20 47  1  0  0  0  0
 21 22  1  0  0  0  0
 21 23  1  0  0  0  0
 21 48  1  0  0  0  0
 22 24  1  0  0  0  0
 22 49  1  0  0  0  0
 23 26  1  0  0  0  0
 23 50  1  0  0  0  0
 24 28  1  0  0  0  0
 24 51  1  0  0  0  0
 25 52  1  0  0  0  0
 26 53  1  0  0  0  0
 27 54  1  0  0  0  0
 27 55  1  0  0  0  0
 28 56  1  0  0  0  0
 28 57  1  0  0  0  0
 28 58  1  0  0  0  0
 29 31  1  0  0  0  0
 29 35  2  0  0  0  0
 30 32  1  0  0  0  0
 30 33  2  0  0  0  0
 31 32  2  0  0  0  0
 31 34  1  0  0  0  0
 32 65  1  0  0  0  0
 33 38  1  0  0  0  0
 34 36  1  0  0  0  0
 35 37  1  0  0  0  0
 35 67  1  0  0  0  0
 36 37  2  0  0  0  0
 36 68  1  0  0  0  0
 38 39  2  0  0  0  0
 38 40  1  0  0  0  0
 39 42  1  0  0  0  0
 39 69  1  0  0  0  0
 40 41  2  0  0  0  0
 40 70  1  0  0  0  0
 41 43  1  0  0  0  0
 42 43  2  0  0  0  0
M  CHG  1  12   1
M  END
>  <PUBCHEM_COMPOUND_CID>
131752270

>  <PUBCHEM_COMPOUND_CANONICALIZED>
1

>  <PUBCHEM_CACTVS_COMPLEXITY>
902

>  <PUBCHEM_CACTVS_HBOND_ACCEPTOR>
15

>  <PUBCHEM_CACTVS_HBOND_DONOR>
11

>  <PUBCHEM_CACTVS_ROTATABLE_BOND>
6

>  <PUBCHEM_CACTVS_SUBSKEYS>
AAADceB4PgAAAAAAAAAAAAAAAAAAAAAAAAA0aJECAAAAAACR9AAAGgAACAAADBSwmAMyDsAABkCIAqBSAAICCAAkIAAAiAFGiMgdNzaGNR6ieWOl4BUPuYfK7PzOIAABCAAIQABAAAIQABCAAAAAAAAAAA==

>  <PUBCHEM_IUPAC_OPENEYE_NAME>
2-[7-hydroxy-5-[3,4,5-trihydroxy-6-(hydroxymethyl)tetrahydropyran-2-yl]oxy-2-(3,4,5-trihydroxyphenyl)chromenylium-3-yl]oxy-6-methyl-tetrahydropyran-3,4,5-triol

>  <PUBCHEM_IUPAC_CAS_NAME>
2-[[7-hydroxy-5-[[3,4,5-trihydroxy-6-(hydroxymethyl)-2-oxanyl]oxy]-2-(3,4,5-trihydroxyphenyl)-1-benzopyrylium-3-yl]oxy]-6-methyloxane-3,4,5-triol

>  <PUBCHEM_IUPAC_NAME>
2-[7-hydroxy-5-[3,4,5-trihydroxy-6-(hydroxymethyl)oxan-2-yl]oxy-2-(3,4,5-trihydroxyphenyl)chromenylium-3-yl]oxy-6-methyloxane-3,4,5-triol

>  <PUBCHEM_IUPAC_SYSTEMATIC_NAME>
2-[5-[6-(hydroxymethyl)-3,4,5-tris(oxidanyl)oxan-2-yl]oxy-7-oxidanyl-2-[3,4,5-tris(oxidanyl)phenyl]chromenylium-3-yl]oxy-6-methyl-oxane-3,4,5-triol

>  <PUBCHEM_IUPAC_TRADITIONAL_NAME>
2-[[7-hydroxy-5-(3,4,5-trihydroxy-6-methylol-tetrahydropyran-2-yl)oxy-2-(3,4,5-trihydroxyphenyl)-1-benzopyrylium-3-yl]oxy]-6-methyl-tetrahydropyran-3,4,5-triol

>  <PUBCHEM_IUPAC_INCHI>
InChI=1S/C27H30O16/c1-8-18(32)21(35)23(37)26(39-8)42-16-6-11-14(40-25(16)9-2-12(30)19(33)13(31)3-9)4-10(29)5-15(11)41-27-24(38)22(36)20(34)17(7-28)43-27/h2-6,8,17-18,20-24,26-28,32,34-38H,7H2,1H3,(H3-,29,30,31,33)/p+1

>  <PUBCHEM_IUPAC_INCHIKEY>
IEMQNRLOUXMJQV-UHFFFAOYSA-O

>  <PUBCHEM_EXACT_MASS>
611.161

>  <PUBCHEM_MOLECULAR_FORMULA>
C27H31O16+

>  <PUBCHEM_MOLECULAR_WEIGHT>
611.529

>  <PUBCHEM_OPENEYE_CAN_SMILES>
CC1C(C(C(C(O1)OC2=C([O+]=C3C=C(C=C(C3=C2)OC4C(C(C(C(O4)CO)O)O)O)O)C5=CC(=C(C(=C5)O)O)O)O)O)O

>  <PUBCHEM_OPENEYE_ISO_SMILES>
CC1C(C(C(C(O1)OC2=C([O+]=C3C=C(C=C(C3=C2)OC4C(C(C(C(O4)CO)O)O)O)O)C5=CC(=C(C(=C5)O)O)O)O)O)O

>  <PUBCHEM_CACTVS_TPSA>
260

>  <PUBCHEM_MONOISOTOPIC_WEIGHT>
611.161

>  <PUBCHEM_TOTAL_CHARGE>
1

>  <PUBCHEM_HEAVY_ATOM_COUNT>
43

>  <PUBCHEM_ATOM_DEF_STEREO_COUNT>
0

>  <PUBCHEM_ATOM_UDEF_STEREO_COUNT>
10

>  <PUBCHEM_BOND_DEF_STEREO_COUNT>
0

>  <PUBCHEM_BOND_UDEF_STEREO_COUNT>
0

>  <PUBCHEM_ISOTOPIC_ATOM_COUNT>
0

>  <PUBCHEM_COMPONENT_COUNT>
1

>  <PUBCHEM_CACTVS_TAUTO_COUNT>
128

>  <PUBCHEM_COORDINATE_TYPE>
1
5
255

>  <PUBCHEM_BONDANNOTATIONS>
23  10  3
12  33  8
12  34  8
20  27  3
24  28  3
29  31  8
29  35  8
25  3  3
30  32  8
30  33  8
31  32  8
31  34  8
34  36  8
35  37  8
36  37  8
38  39  8
38  40  8
39  42  8
26  4  3
40  41  8
41  43  8
42  43  8
17  5  3
18  6  3
19  7  3
21  8  3
22  9  3

$$$$
