131752966
 OpenBabel06101807152D

 30 32  0  0  1  0  0  0  0  0999 V2000
    7.3424    0.1671    0.0000 O   0  0  0  0  0  0  0  0  0  0  0  0
    3.7702    0.3970    0.0000 O   0  0  0  0  0  0  0  0  0  0  0  0
    5.5301    1.3623    0.0000 O   0  0  0  0  0  0  0  0  0  0  0  0
    2.0000    0.3865    0.0000 O   0  0  0  0  0  0  0  0  0  0  0  0
    7.9260   -0.6377    0.0000 C   0  0  3  0  0  0  0  0  0  0  0  0
    7.3424   -1.4424    0.0000 C   0  0  0  0  0  0  0  0  0  0  0  0
    6.3961   -1.1377    0.0000 C   0  0  0  0  0  0  0  0  0  0  0  0
    6.3961   -0.1377    0.0000 C   0  0  0  0  0  0  0  0  0  0  0  0
    5.5301   -1.6377    0.0000 C   0  0  0  0  0  0  0  0  0  0  0  0
    8.9260   -0.6377    0.0000 C   0  0  0  0  0  0  0  0  0  0  0  0
    5.5301    0.3623    0.0000 C   0  0  0  0  0  0  0  0  0  0  0  0
    4.6641   -1.1377    0.0000 C   0  0  0  0  0  0  0  0  0  0  0  0
    4.6641   -0.1377    0.0000 C   0  0  0  0  0  0  0  0  0  0  0  0
    9.4260   -1.5037    0.0000 C   0  0  0  0  0  0  0  0  0  0  0  0
    3.7702   -1.6723    0.0000 C   0  0  0  0  0  0  0  0  0  0  0  0
    9.4260    0.2284    0.0000 C   0  0  0  0  0  0  0  0  0  0  0  0
    2.8641   -1.1585    0.0000 C   0  0  0  0  0  0  0  0  0  0  0  0
    2.8641   -0.1169    0.0000 C   0  0  0  0  0  0  0  0  0  0  0  0
    8.2077   -0.0854    0.0000 H   0  0  0  0  0  0  0  0  0  0  0  0
    7.0913   -2.0093    0.0000 H   0  0  0  0  0  0  0  0  0  0  0  0
    7.8798   -1.7516    0.0000 H   0  0  0  0  0  0  0  0  0  0  0  0
    5.5301   -2.2577    0.0000 H   0  0  0  0  0  0  0  0  0  0  0  0
    8.8890   -1.8137    0.0000 H   0  0  0  0  0  0  0  0  0  0  0  0
    9.7360   -2.0406    0.0000 H   0  0  0  0  0  0  0  0  0  0  0  0
    9.9629   -1.1937    0.0000 H   0  0  0  0  0  0  0  0  0  0  0  0
    3.7773   -2.2923    0.0000 H   0  0  0  0  0  0  0  0  0  0  0  0
   10.0460    0.2284    0.0000 H   0  0  0  0  0  0  0  0  0  0  0  0
    9.1160    0.7653    0.0000 H   0  0  0  0  0  0  0  0  0  0  0  0
    2.3284   -1.4706    0.0000 H   0  0  0  0  0  0  0  0  0  0  0  0
    4.9932    1.6723    0.0000 H   0  0  0  0  0  0  0  0  0  0  0  0
  1  5  1  0  0  0  0
  1  8  1  0  0  0  0
  2 13  1  0  0  0  0
  2 18  1  0  0  0  0
  3 11  1  0  0  0  0
  3 30  1  0  0  0  0
  4 18  2  0  0  0  0
  5  6  1  0  0  0  0
  5 10  1  0  0  0  0
  5 19  1  0  0  0  0
  6  7  1  0  0  0  0
  6 20  1  0  0  0  0
  6 21  1  0  0  0  0
  7  8  2  0  0  0  0
  7  9  1  0  0  0  0
  8 11  1  0  0  0  0
  9 12  2  0  0  0  0
  9 22  1  0  0  0  0
 10 14  1  0  0  0  0
 10 16  2  0  0  0  0
 11 13  2  0  0  0  0
 12 13  1  0  0  0  0
 12 15  1  0  0  0  0
 14 23  1  0  0  0  0
 14 24  1  0  0  0  0
 14 25  1  0  0  0  0
 15 17  2  0  0  0  0
 15 26  1  0  0  0  0
 16 27  1  0  0  0  0
 16 28  1  0  0  0  0
 17 18  1  0  0  0  0
 17 29  1  0  0  0  0
M  END
>  <PUBCHEM_COMPOUND_CID>
131752966

>  <PUBCHEM_COMPOUND_CANONICALIZED>
1

>  <PUBCHEM_CACTVS_COMPLEXITY>
414

>  <PUBCHEM_CACTVS_HBOND_ACCEPTOR>
4

>  <PUBCHEM_CACTVS_HBOND_DONOR>
1

>  <PUBCHEM_CACTVS_ROTATABLE_BOND>
1

>  <PUBCHEM_CACTVS_SUBSKEYS>
AAADccBwOAAAAAAAAAAAAAAAAAAAASAAAAAwQAAAAAAAAEiBAAAAGgAACAAADBSgmAIyDoAABgCIAiDSCAACCAAgIAAIiAAEiMgNJyKGMRqCeiOlwBULuYeA4PwOIAADCAAIQABAAAYQABCAAAAAAAAAAA==

>  <PUBCHEM_IUPAC_OPENEYE_NAME>
9-hydroxy-2-isopropenyl-2,3-dihydrofuro[3,2-g]chromen-7-one

>  <PUBCHEM_IUPAC_CAS_NAME>
9-hydroxy-2-(1-methylethenyl)-2,3-dihydrofuro[3,2-g][1]benzopyran-7-one

>  <PUBCHEM_IUPAC_NAME>
9-hydroxy-2-prop-1-en-2-yl-2,3-dihydrofuro[3,2-g]chromen-7-one

>  <PUBCHEM_IUPAC_SYSTEMATIC_NAME>
9-oxidanyl-2-prop-1-en-2-yl-2,3-dihydrofuro[3,2-g]chromen-7-one

>  <PUBCHEM_IUPAC_TRADITIONAL_NAME>
9-hydroxy-2-isopropenyl-2,3-dihydrofuro[3,2-g]chromen-7-one

>  <PUBCHEM_IUPAC_INCHI>
InChI=1S/C14H12O4/c1-7(2)10-6-9-5-8-3-4-11(15)18-13(8)12(16)14(9)17-10/h3-5,10,16H,1,6H2,2H3

>  <PUBCHEM_IUPAC_INCHIKEY>
VIUKEEZPYOJNOJ-UHFFFAOYSA-N

>  <PUBCHEM_EXACT_MASS>
244.074

>  <PUBCHEM_MOLECULAR_FORMULA>
C14H12O4

>  <PUBCHEM_MOLECULAR_WEIGHT>
244.246

>  <PUBCHEM_OPENEYE_CAN_SMILES>
CC(=C)C1CC2=C(O1)C(=C3C(=C2)C=CC(=O)O3)O

>  <PUBCHEM_OPENEYE_ISO_SMILES>
CC(=C)C1CC2=C(O1)C(=C3C(=C2)C=CC(=O)O3)O

>  <PUBCHEM_CACTVS_TPSA>
55.8

>  <PUBCHEM_MONOISOTOPIC_WEIGHT>
244.074

>  <PUBCHEM_TOTAL_CHARGE>
0

>  <PUBCHEM_HEAVY_ATOM_COUNT>
18

>  <PUBCHEM_ATOM_DEF_STEREO_COUNT>
0

>  <PUBCHEM_ATOM_UDEF_STEREO_COUNT>
1

>  <PUBCHEM_BOND_DEF_STEREO_COUNT>
0

>  <PUBCHEM_BOND_UDEF_STEREO_COUNT>
0

>  <PUBCHEM_ISOTOPIC_ATOM_COUNT>
0

>  <PUBCHEM_COMPONENT_COUNT>
1

>  <PUBCHEM_CACTVS_TAUTO_COUNT>
9

>  <PUBCHEM_COORDINATE_TYPE>
1
5
255

>  <PUBCHEM_BONDANNOTATIONS>
11  13  8
12  13  8
12  15  8
15  17  8
17  18  8
2  13  8
2  18  8
5  10  3
7  8  8
7  9  8
8  11  8
9  12  8

$$$$
