131751306
 OpenBabel06101807152D

 85 90  0  0  1  0  0  0  0  0999 V2000
   10.3312    0.6193    0.0000 O   0  0  0  0  0  0  0  0  0  0  0  0
    8.5991   -1.3807    0.0000 O   0  0  0  0  0  0  0  0  0  0  0  0
   12.0632   -1.3807    0.0000 O   0  0  0  0  0  0  0  0  0  0  0  0
   10.3312   -2.3807    0.0000 O   0  0  0  0  0  0  0  0  0  0  0  0
   12.0632    0.6193    0.0000 O   0  0  0  0  0  0  0  0  0  0  0  0
   12.9292    3.1193    0.0000 O   0  0  0  0  0  0  0  0  0  0  0  0
    7.7331    0.1193    0.0000 O   0  0  0  0  0  0  0  0  0  0  0  0
   11.1972   -2.8807    0.0000 O   0  0  0  0  0  0  0  0  0  0  0  0
   10.3312    1.6193    0.0000 O   0  0  0  0  0  0  0  0  0  0  0  0
    9.4270    3.1162    0.0000 O   0  0  0  0  0  0  0  0  0  0  0  0
   11.1851    6.1886    0.0000 O   0  0  0  0  0  0  0  0  0  0  0  0
   16.3933    0.1193    0.0000 O   0  0  0  0  0  0  0  0  0  0  0  0
    2.5369   -2.8807    0.0000 O   0  0  0  0  0  0  0  0  0  0  0  0
   16.3933   -5.8807    0.0000 O   0  0  0  0  0  0  0  0  0  0  0  0
    9.4651   -0.8807    0.0000 C   0  0  3  0  0  0  0  0  0  0  0  0
   10.3312   -1.3807    0.0000 C   0  0  3  0  0  0  0  0  0  0  0  0
   11.1972   -0.8807    0.0000 C   0  0  3  0  0  0  0  0  0  0  0  0
    9.4651    0.1193    0.0000 C   0  0  3  0  0  0  0  0  0  0  0  0
   11.1972    0.1193    0.0000 C   0  0  3  0  0  0  0  0  0  0  0  0
    8.5991    0.6193    0.0000 C   0  0  0  0  0  0  0  0  0  0  0  0
   12.0632    1.6193    0.0000 C   0  0  0  0  0  0  0  0  0  0  0  0
    7.7331   -0.8807    0.0000 C   0  0  0  0  0  0  0  0  0  0  0  0
   12.0632   -2.3807    0.0000 C   0  0  0  0  0  0  0  0  0  0  0  0
   12.9292    2.1193    0.0000 C   0  0  0  0  0  0  0  0  0  0  0  0
   11.1972    2.1193    0.0000 C   0  0  0  0  0  0  0  0  0  0  0  0
   11.1972    3.1193    0.0000 C   0  0  0  0  0  0  0  0  0  0  0  0
    6.8671   -1.3807    0.0000 C   0  0  0  0  0  0  0  0  0  0  0  0
   12.9292   -2.8807    0.0000 C   0  0  0  0  0  0  0  0  0  0  0  0
   12.0632    3.6193    0.0000 C   0  0  0  0  0  0  0  0  0  0  0  0
   13.7953    1.6193    0.0000 C   0  0  0  0  0  0  0  0  0  0  0  0
   10.2872    3.6262    0.0000 C   0  0  0  0  0  0  0  0  0  0  0  0
   12.0793    4.6608    0.0000 C   0  0  0  0  0  0  0  0  0  0  0  0
    6.0010   -0.8807    0.0000 C   0  0  0  0  0  0  0  0  0  0  0  0
   12.9292   -3.8807    0.0000 C   0  0  0  0  0  0  0  0  0  0  0  0
   13.7953    0.6193    0.0000 C   0  0  0  0  0  0  0  0  0  0  0  0
   14.6613    2.1193    0.0000 C   0  0  0  0  0  0  0  0  0  0  0  0
   10.2792    4.6678    0.0000 C   0  0  0  0  0  0  0  0  0  0  0  0
   11.1812    5.1886    0.0000 C   0  0  0  0  0  0  0  0  0  0  0  0
    5.1350   -1.3807    0.0000 C   0  0  0  0  0  0  0  0  0  0  0  0
   14.6613    0.1193    0.0000 C   0  0  0  0  0  0  0  0  0  0  0  0
   15.5273    1.6193    0.0000 C   0  0  0  0  0  0  0  0  0  0  0  0
   13.7953   -4.3807    0.0000 C   0  0  0  0  0  0  0  0  0  0  0  0
   15.5273    0.6193    0.0000 C   0  0  0  0  0  0  0  0  0  0  0  0
    5.1350   -2.3807    0.0000 C   0  0  0  0  0  0  0  0  0  0  0  0
    4.2690   -0.8807    0.0000 C   0  0  0  0  0  0  0  0  0  0  0  0
   14.6613   -3.8807    0.0000 C   0  0  0  0  0  0  0  0  0  0  0  0
   13.7953   -5.3807    0.0000 C   0  0  0  0  0  0  0  0  0  0  0  0
    4.2690   -2.8807    0.0000 C   0  0  0  0  0  0  0  0  0  0  0  0
    3.4030   -1.3807    0.0000 C   0  0  0  0  0  0  0  0  0  0  0  0
   15.5273   -4.3807    0.0000 C   0  0  0  0  0  0  0  0  0  0  0  0
   14.6613   -5.8807    0.0000 C   0  0  0  0  0  0  0  0  0  0  0  0
    3.4030   -2.3807    0.0000 C   0  0  0  0  0  0  0  0  0  0  0  0
   15.5273   -5.3807    0.0000 C   0  0  0  0  0  0  0  0  0  0  0  0
    9.4651   -1.5007    0.0000 H   0  0  0  0  0  0  0  0  0  0  0  0
   10.8681   -1.6907    0.0000 H   0  0  0  0  0  0  0  0  0  0  0  0
   11.1972   -1.5007    0.0000 H   0  0  0  0  0  0  0  0  0  0  0  0
    9.4651    0.7393    0.0000 H   0  0  0  0  0  0  0  0  0  0  0  0
   11.7341   -0.1907    0.0000 H   0  0  0  0  0  0  0  0  0  0  0  0
    8.9091    1.1563    0.0000 H   0  0  0  0  0  0  0  0  0  0  0  0
    8.0622    0.9293    0.0000 H   0  0  0  0  0  0  0  0  0  0  0  0
    8.2891    0.0824    0.0000 H   0  0  0  0  0  0  0  0  0  0  0  0
    9.7942   -2.6907    0.0000 H   0  0  0  0  0  0  0  0  0  0  0  0
    6.8671   -2.0007    0.0000 H   0  0  0  0  0  0  0  0  0  0  0  0
   13.4662   -2.5707    0.0000 H   0  0  0  0  0  0  0  0  0  0  0  0
   12.6198    4.9646    0.0000 H   0  0  0  0  0  0  0  0  0  0  0  0
    6.0010   -0.2607    0.0000 H   0  0  0  0  0  0  0  0  0  0  0  0
   12.3923   -4.1907    0.0000 H   0  0  0  0  0  0  0  0  0  0  0  0
   13.2583    0.3093    0.0000 H   0  0  0  0  0  0  0  0  0  0  0  0
   14.6613    2.7393    0.0000 H   0  0  0  0  0  0  0  0  0  0  0  0
    9.7410    4.9757    0.0000 H   0  0  0  0  0  0  0  0  0  0  0  0
   14.6613   -0.5007    0.0000 H   0  0  0  0  0  0  0  0  0  0  0  0
   16.0643    1.9293    0.0000 H   0  0  0  0  0  0  0  0  0  0  0  0
    8.8865    3.4200    0.0000 H   0  0  0  0  0  0  0  0  0  0  0  0
    5.6720   -2.6907    0.0000 H   0  0  0  0  0  0  0  0  0  0  0  0
    4.2690   -0.2607    0.0000 H   0  0  0  0  0  0  0  0  0  0  0  0
   14.6613   -3.2607    0.0000 H   0  0  0  0  0  0  0  0  0  0  0  0
   13.2583   -5.6907    0.0000 H   0  0  0  0  0  0  0  0  0  0  0  0
   10.6494    6.5007    0.0000 H   0  0  0  0  0  0  0  0  0  0  0  0
    4.2690   -3.5007    0.0000 H   0  0  0  0  0  0  0  0  0  0  0  0
    2.8660   -1.0707    0.0000 H   0  0  0  0  0  0  0  0  0  0  0  0
   16.0643   -4.0707    0.0000 H   0  0  0  0  0  0  0  0  0  0  0  0
   14.6613   -6.5007    0.0000 H   0  0  0  0  0  0  0  0  0  0  0  0
   16.9303    0.4293    0.0000 H   0  0  0  0  0  0  0  0  0  0  0  0
    2.0000   -2.5707    0.0000 H   0  0  0  0  0  0  0  0  0  0  0  0
   16.3933   -6.5007    0.0000 H   0  0  0  0  0  0  0  0  0  0  0  0
  1 18  1  0  0  0  0
  1 19  1  0  0  0  0
  2 15  1  0  0  0  0
  2 22  1  0  0  0  0
  3 17  1  0  0  0  0
  3 23  1  0  0  0  0
  4 16  1  0  0  0  0
  4 62  1  0  0  0  0
  5 19  1  0  0  0  0
  5 21  1  0  0  0  0
  6 24  1  0  0  0  0
  6 29  1  0  0  0  0
  7 22  2  0  0  0  0
  8 23  2  0  0  0  0
  9 25  2  0  0  0  0
 10 31  1  0  0  0  0
 10 73  1  0  0  0  0
 11 38  1  0  0  0  0
 11 78  1  0  0  0  0
 12 43  1  0  0  0  0
 12 83  1  0  0  0  0
 13 52  1  0  0  0  0
 13 84  1  0  0  0  0
 14 53  1  0  0  0  0
 14 85  1  0  0  0  0
 15 16  1  0  0  0  0
 15 18  1  0  0  0  0
 15 54  1  0  0  0  0
 16 17  1  0  0  0  0
 16 55  1  0  0  0  0
 17 19  1  0  0  0  0
 17 56  1  0  0  0  0
 18 20  1  0  0  0  0
 18 57  1  0  0  0  0
 19 58  1  0  0  0  0
 20 59  1  0  0  0  0
 20 60  1  0  0  0  0
 20 61  1  0  0  0  0
 21 24  2  0  0  0  0
 21 25  1  0  0  0  0
 22 27  1  0  0  0  0
 23 28  1  0  0  0  0
 24 30  1  0  0  0  0
 25 26  1  0  0  0  0
 26 29  1  0  0  0  0
 26 31  2  0  0  0  0
 27 33  2  0  0  0  0
 27 63  1  0  0  0  0
 28 34  2  0  0  0  0
 28 64  1  0  0  0  0
 29 32  2  0  0  0  0
 30 35  2  0  0  0  0
 30 36  1  0  0  0  0
 31 37  1  0  0  0  0
 32 38  1  0  0  0  0
 32 65  1  0  0  0  0
 33 39  1  0  0  0  0
 33 66  1  0  0  0  0
 34 42  1  0  0  0  0
 34 67  1  0  0  0  0
 35 40  1  0  0  0  0
 35 68  1  0  0  0  0
 36 41  2  0  0  0  0
 36 69  1  0  0  0  0
 37 38  2  0  0  0  0
 37 70  1  0  0  0  0
 39 44  2  0  0  0  0
 39 45  1  0  0  0  0
 40 43  2  0  0  0  0
 40 71  1  0  0  0  0
 41 43  1  0  0  0  0
 41 72  1  0  0  0  0
 42 46  2  0  0  0  0
 42 47  1  0  0  0  0
 44 48  1  0  0  0  0
 44 74  1  0  0  0  0
 45 49  2  0  0  0  0
 45 75  1  0  0  0  0
 46 50  1  0  0  0  0
 46 76  1  0  0  0  0
 47 51  2  0  0  0  0
 47 77  1  0  0  0  0
 48 52  2  0  0  0  0
 48 79  1  0  0  0  0
 49 52  1  0  0  0  0
 49 80  1  0  0  0  0
 50 53  2  0  0  0  0
 50 81  1  0  0  0  0
 51 53  1  0  0  0  0
 51 82  1  0  0  0  0
M  END
>  <PUBCHEM_COMPOUND_CID>
131751306

>  <PUBCHEM_COMPOUND_CANONICALIZED>
1

>  <PUBCHEM_CACTVS_COMPLEXITY>
1370

>  <PUBCHEM_CACTVS_HBOND_ACCEPTOR>
14

>  <PUBCHEM_CACTVS_HBOND_DONOR>
6

>  <PUBCHEM_CACTVS_ROTATABLE_BOND>
11

>  <PUBCHEM_CACTVS_SUBSKEYS>
AAADcfB8PAAAAAAAAAAAAAAAAAAAAAAAAAA0YMGCAAAAAACBVAAAGgAACAAADBSwmAMyDoAABgCIAqDSCAICCAAkIAAIiAFGCMgdNzaGNR6ieWCl4BUPuYfI7KzOIAAACAAIAABAAAAQABAAAAAAAAAAAA==

>  <PUBCHEM_IUPAC_OPENEYE_NAME>
[6-[5,7-dihydroxy-2-(4-hydroxyphenyl)-4-oxo-chromen-3-yl]oxy-4-hydroxy-5-[(E)-3-(4-hydroxyphenyl)prop-2-enoyl]oxy-2-methyl-tetrahydropyran-3-yl] (E)-3-(4-hydroxyphenyl)prop-2-enoate

>  <PUBCHEM_IUPAC_CAS_NAME>
(E)-3-(4-hydroxyphenyl)-2-propenoic acid [6-[[5,7-dihydroxy-2-(4-hydroxyphenyl)-4-oxo-1-benzopyran-3-yl]oxy]-4-hydroxy-5-[(E)-3-(4-hydroxyphenyl)-1-oxoprop-2-enoxy]-2-methyl-3-oxanyl] ester

>  <PUBCHEM_IUPAC_NAME>
[6-[5,7-dihydroxy-2-(4-hydroxyphenyl)-4-oxochromen-3-yl]oxy-4-hydroxy-5-[(E)-3-(4-hydroxyphenyl)prop-2-enoyl]oxy-2-methyloxan-3-yl] (E)-3-(4-hydroxyphenyl)prop-2-enoate

>  <PUBCHEM_IUPAC_SYSTEMATIC_NAME>
[6-[2-(4-hydroxyphenyl)-5,7-bis(oxidanyl)-4-oxidanylidene-chromen-3-yl]oxy-5-[(E)-3-(4-hydroxyphenyl)prop-2-enoyl]oxy-2-methyl-4-oxidanyl-oxan-3-yl] (E)-3-(4-hydroxyphenyl)prop-2-enoate

>  <PUBCHEM_IUPAC_TRADITIONAL_NAME>
(E)-3-(4-hydroxyphenyl)acrylic acid [6-[5,7-dihydroxy-2-(4-hydroxyphenyl)-4-keto-chromen-3-yl]oxy-4-hydroxy-5-[(E)-3-(4-hydroxyphenyl)acryloyl]oxy-2-methyl-tetrahydropyran-3-yl] ester

>  <PUBCHEM_IUPAC_INCHI>
InChI=1S/C39H32O14/c1-20-35(51-30(45)16-6-21-2-10-24(40)11-3-21)34(48)38(52-31(46)17-7-22-4-12-25(41)13-5-22)39(49-20)53-37-33(47)32-28(44)18-27(43)19-29(32)50-36(37)23-8-14-26(42)15-9-23/h2-20,34-35,38-44,48H,1H3/b16-6+,17-7+

>  <PUBCHEM_IUPAC_INCHIKEY>
KMOHJUXDKSMQOG-KGMKFKQSSA-N

>  <PUBCHEM_EXACT_MASS>
724.179

>  <PUBCHEM_MOLECULAR_FORMULA>
C39H32O14

>  <PUBCHEM_MOLECULAR_WEIGHT>
724.671

>  <PUBCHEM_OPENEYE_CAN_SMILES>
CC1C(C(C(C(O1)OC2=C(OC3=CC(=CC(=C3C2=O)O)O)C4=CC=C(C=C4)O)OC(=O)C=CC5=CC=C(C=C5)O)O)OC(=O)C=CC6=CC=C(C=C6)O

>  <PUBCHEM_OPENEYE_ISO_SMILES>
CC1C(C(C(C(O1)OC2=C(OC3=CC(=CC(=C3C2=O)O)O)C4=CC=C(C=C4)O)OC(=O)/C=C/C5=CC=C(C=C5)O)O)OC(=O)/C=C/C6=CC=C(C=C6)O

>  <PUBCHEM_CACTVS_TPSA>
219

>  <PUBCHEM_MONOISOTOPIC_WEIGHT>
724.179

>  <PUBCHEM_TOTAL_CHARGE>
0

>  <PUBCHEM_HEAVY_ATOM_COUNT>
53

>  <PUBCHEM_ATOM_DEF_STEREO_COUNT>
0

>  <PUBCHEM_ATOM_UDEF_STEREO_COUNT>
5

>  <PUBCHEM_BOND_DEF_STEREO_COUNT>
2

>  <PUBCHEM_BOND_UDEF_STEREO_COUNT>
0

>  <PUBCHEM_ISOTOPIC_ATOM_COUNT>
0

>  <PUBCHEM_COMPONENT_COUNT>
1

>  <PUBCHEM_CACTVS_TAUTO_COUNT>
912

>  <PUBCHEM_COORDINATE_TYPE>
1
5
255

>  <PUBCHEM_BONDANNOTATIONS>
18  20  3
15  2  3
21  24  8
21  25  8
25  26  8
26  29  8
26  31  8
29  32  8
17  3  3
30  35  8
30  36  8
31  37  8
32  38  8
35  40  8
36  41  8
37  38  8
39  44  8
39  45  8
16  4  3
40  43  8
41  43  8
42  46  8
42  47  8
44  48  8
45  49  8
46  50  8
47  51  8
48  52  8
49  52  8
19  5  3
50  53  8
51  53  8
6  24  8
6  29  8

$$$$
