133052649
 OpenBabel06101807152D

139146  0  0  1  0  0  0  0  0999 V2000
    6.8671   -3.6772    0.0000 O   0  0  0  0  0  0  0  0  0  0  0  0
    8.6424    5.6772    0.0000 O   0  0  0  0  0  0  0  0  0  0  0  0
    9.3112   -2.9856    0.0000 O   0  0  0  0  0  0  0  0  0  0  0  0
    5.1350   -3.6772    0.0000 O   0  0  0  0  0  0  0  0  0  0  0  0
    7.7764    7.1772    0.0000 O   0  0  0  0  0  0  0  0  0  0  0  0
    6.8671   -5.6772    0.0000 O   0  0  0  0  0  0  0  0  0  0  0  0
    5.1350   -6.6772    0.0000 O   0  0  0  0  0  0  0  0  0  0  0  0
    3.4030   -5.6772    0.0000 O   0  0  0  0  0  0  0  0  0  0  0  0
   10.3745    8.6773    0.0000 O   0  0  0  0  0  0  0  0  0  0  0  0
    6.0010   -7.1772    0.0000 O   0  0  0  0  0  0  0  0  0  0  0  0
    8.6424    9.6773    0.0000 O   0  0  0  0  0  0  0  0  0  0  0  0
    2.5369   -4.1772    0.0000 O   0  0  0  0  0  0  0  0  0  0  0  0
    3.4030   -2.6772    0.0000 O   0  0  0  0  0  0  0  0  0  0  0  0
    8.5991   -6.6772    0.0000 O   0  0  0  0  0  0  0  0  0  0  0  0
    8.5991   -8.6773    0.0000 O   0  0  0  0  0  0  0  0  0  0  0  0
    6.8671   -9.6773    0.0000 O   0  0  0  0  0  0  0  0  0  0  0  0
    5.1350   -9.6773    0.0000 O   0  0  0  0  0  0  0  0  0  0  0  0
    7.7681    1.0230    0.0000 C   0  0  3  0  0  0  0  0  0  0  0  0
    6.9040    0.5196    0.0000 C   0  0  3  0  0  0  0  0  0  0  0  0
    6.8920   -0.5219    0.0000 C   0  0  3  0  0  0  0  0  0  0  0  0
    7.7643    2.0230    0.0000 C   0  0  3  0  0  0  0  0  0  0  0  0
    7.7920   -1.0462    0.0000 C   0  0  3  0  0  0  0  0  0  0  0  0
    8.6801    0.5196    0.0000 C   0  0  0  0  0  0  0  0  0  0  0  0
    6.8963    2.5196    0.0000 C   0  0  0  0  0  0  0  0  0  0  0  0
    7.8046   -2.1311    0.0000 C   0  0  3  0  0  0  0  0  0  0  0  0
    8.6921   -0.5219    0.0000 C   0  0  0  0  0  0  0  0  0  0  0  0
    6.8762    3.5611    0.0000 C   0  0  3  0  0  0  0  0  0  0  0  0
    7.7722    4.0923    0.0000 C   0  0  3  0  0  0  0  0  0  0  0  0
    8.6723    2.5333    0.0000 C   0  0  0  0  0  0  0  0  0  0  0  0
    6.0361    1.0163    0.0000 C   0  0  0  0  0  0  0  0  0  0  0  0
    5.9421   -1.0462    0.0000 C   0  0  0  0  0  0  0  0  0  0  0  0
    8.6763    3.5749    0.0000 C   0  0  0  0  0  0  0  0  0  0  0  0
    8.7522    1.2004    0.0000 C   0  0  0  0  0  0  0  0  0  0  0  0
    6.8671   -2.6772    0.0000 C   0  0  3  0  0  0  0  0  0  0  0  0
    6.0322    2.0163    0.0000 C   0  0  0  0  0  0  0  0  0  0  0  0
    6.0279   -0.0186    0.0000 C   0  0  0  0  0  0  0  0  0  0  0  0
    5.9295   -2.1311    0.0000 C   0  0  0  0  0  0  0  0  0  0  0  0
    8.7497    1.8531    0.0000 C   0  0  0  0  0  0  0  0  0  0  0  0
    5.9223    4.0780    0.0000 C   0  0  0  0  0  0  0  0  0  0  0  0
    7.7764    5.1772    0.0000 C   0  0  3  0  0  0  0  0  0  0  0  0
    5.9014    5.1628    0.0000 C   0  0  0  0  0  0  0  0  0  0  0  0
    6.8347    5.7161    0.0000 C   0  0  0  0  0  0  0  0  0  0  0  0
    8.8046   -2.1234    0.0000 C   0  0  0  0  0  0  0  0  0  0  0  0
    8.3113   -2.9933    0.0000 C   0  0  0  0  0  0  0  0  0  0  0  0
    8.6324    4.6022    0.0000 C   0  0  0  0  0  0  0  0  0  0  0  0
    5.3881    6.0210    0.0000 C   0  0  0  0  0  0  0  0  0  0  0  0
    4.9015    5.1474    0.0000 C   0  0  0  0  0  0  0  0  0  0  0  0
    6.0010   -4.1772    0.0000 C   0  0  3  0  0  0  0  0  0  0  0  0
    8.6424    6.6772    0.0000 C   0  0  3  0  0  0  0  0  0  0  0  0
    6.0010   -5.1772    0.0000 C   0  0  3  0  0  0  0  0  0  0  0  0
    9.5085    7.1772    0.0000 C   0  0  0  0  0  0  0  0  0  0  0  0
    5.1350   -5.6772    0.0000 C   0  0  3  0  0  0  0  0  0  0  0  0
    4.2690   -4.1772    0.0000 C   0  0  3  0  0  0  0  0  0  0  0  0
    4.2690   -5.1772    0.0000 C   0  0  3  0  0  0  0  0  0  0  0  0
    9.5085    8.1773    0.0000 C   0  0  0  0  0  0  0  0  0  0  0  0
    7.7764    8.1773    0.0000 C   0  0  0  0  0  0  0  0  0  0  0  0
    6.8671   -6.6772    0.0000 C   0  0  3  0  0  0  0  0  0  0  0  0
    8.6424    8.6773    0.0000 C   0  0  0  0  0  0  0  0  0  0  0  0
    3.4030   -3.6772    0.0000 C   0  0  0  0  0  0  0  0  0  0  0  0
    7.7331   -7.1772    0.0000 C   0  0  3  0  0  0  0  0  0  0  0  0
    6.9104    8.6773    0.0000 C   0  0  0  0  0  0  0  0  0  0  0  0
    7.7331   -8.1773    0.0000 C   0  0  3  0  0  0  0  0  0  0  0  0
    6.0010   -8.1773    0.0000 C   0  0  3  0  0  0  0  0  0  0  0  0
    6.8671   -8.6773    0.0000 C   0  0  3  0  0  0  0  0  0  0  0  0
    5.1350   -8.6773    0.0000 C   0  0  0  0  0  0  0  0  0  0  0  0
    7.4398    0.2076    0.0000 H   0  0  0  0  0  0  0  0  0  0  0  0
    8.3314   -1.3521    0.0000 H   0  0  0  0  0  0  0  0  0  0  0  0
    9.2921    0.4206    0.0000 H   0  0  0  0  0  0  0  0  0  0  0  0
    8.8824    1.1057    0.0000 H   0  0  0  0  0  0  0  0  0  0  0  0
    8.9079   -1.1032    0.0000 H   0  0  0  0  0  0  0  0  0  0  0  0
    9.3017   -0.4088    0.0000 H   0  0  0  0  0  0  0  0  0  0  0  0
    6.3466    3.2387    0.0000 H   0  0  0  0  0  0  0  0  0  0  0  0
    8.8791    1.9488    0.0000 H   0  0  0  0  0  0  0  0  0  0  0  0
    9.2836    2.6370    0.0000 H   0  0  0  0  0  0  0  0  0  0  0  0
    5.4251    1.1216    0.0000 H   0  0  0  0  0  0  0  0  0  0  0  0
    5.8263    0.4329    0.0000 H   0  0  0  0  0  0  0  0  0  0  0  0
    5.7398   -0.4601    0.0000 H   0  0  0  0  0  0  0  0  0  0  0  0
    5.3300   -1.1452    0.0000 H   0  0  0  0  0  0  0  0  0  0  0  0
    9.2868    3.4665    0.0000 H   0  0  0  0  0  0  0  0  0  0  0  0
    8.8876    4.1578    0.0000 H   0  0  0  0  0  0  0  0  0  0  0  0
    8.8623    0.5902    0.0000 H   0  0  0  0  0  0  0  0  0  0  0  0
    9.3624    1.3104    0.0000 H   0  0  0  0  0  0  0  0  0  0  0  0
    8.6422    1.8106    0.0000 H   0  0  0  0  0  0  0  0  0  0  0  0
    7.4046   -2.9862    0.0000 H   0  0  0  0  0  0  0  0  0  0  0  0
    5.4941    2.3242    0.0000 H   0  0  0  0  0  0  0  0  0  0  0  0
    6.3400    0.5171    0.0000 H   0  0  0  0  0  0  0  0  0  0  0  0
    5.4922    0.2935    0.0000 H   0  0  0  0  0  0  0  0  0  0  0  0
    5.7158   -0.5543    0.0000 H   0  0  0  0  0  0  0  0  0  0  0  0
    5.3199   -2.0180    0.0000 H   0  0  0  0  0  0  0  0  0  0  0  0
    5.7137   -2.7124    0.0000 H   0  0  0  0  0  0  0  0  0  0  0  0
    8.6444    1.2421    0.0000 H   0  0  0  0  0  0  0  0  0  0  0  0
    9.3607    1.7478    0.0000 H   0  0  0  0  0  0  0  0  0  0  0  0
    8.8550    2.4641    0.0000 H   0  0  0  0  0  0  0  0  0  0  0  0
    5.3095    4.1723    0.0000 H   0  0  0  0  0  0  0  0  0  0  0  0
    5.7246    3.4904    0.0000 H   0  0  0  0  0  0  0  0  0  0  0  0
    7.7752    5.7972    0.0000 H   0  0  0  0  0  0  0  0  0  0  0  0
    7.2302    6.1936    0.0000 H   0  0  0  0  0  0  0  0  0  0  0  0
    6.4319    6.1875    0.0000 H   0  0  0  0  0  0  0  0  0  0  0  0
    9.3855   -1.9069    0.0000 H   0  0  0  0  0  0  0  0  0  0  0  0
    8.6922   -1.5137    0.0000 H   0  0  0  0  0  0  0  0  0  0  0  0
    7.7767   -3.3074    0.0000 H   0  0  0  0  0  0  0  0  0  0  0  0
    8.6254   -3.5278    0.0000 H   0  0  0  0  0  0  0  0  0  0  0  0
    8.8458   -2.6792    0.0000 H   0  0  0  0  0  0  0  0  0  0  0  0
    8.9486    4.0689    0.0000 H   0  0  0  0  0  0  0  0  0  0  0  0
    9.1657    4.9184    0.0000 H   0  0  0  0  0  0  0  0  0  0  0  0
    8.3162    5.1356    0.0000 H   0  0  0  0  0  0  0  0  0  0  0  0
    5.9202    6.3392    0.0000 H   0  0  0  0  0  0  0  0  0  0  0  0
    5.0699    6.5531    0.0000 H   0  0  0  0  0  0  0  0  0  0  0  0
    4.8560    5.7028    0.0000 H   0  0  0  0  0  0  0  0  0  0  0  0
    4.8920    5.7673    0.0000 H   0  0  0  0  0  0  0  0  0  0  0  0
    4.2816    5.1378    0.0000 H   0  0  0  0  0  0  0  0  0  0  0  0
    4.9111    4.5275    0.0000 H   0  0  0  0  0  0  0  0  0  0  0  0
    6.0010   -3.5572    0.0000 H   0  0  0  0  0  0  0  0  0  0  0  0
    9.9312   -2.9808    0.0000 H   0  0  0  0  0  0  0  0  0  0  0  0
    8.1055    6.3672    0.0000 H   0  0  0  0  0  0  0  0  0  0  0  0
    6.0010   -5.7972    0.0000 H   0  0  0  0  0  0  0  0  0  0  0  0
    9.7205    6.5946    0.0000 H   0  0  0  0  0  0  0  0  0  0  0  0
   10.1191    7.2849    0.0000 H   0  0  0  0  0  0  0  0  0  0  0  0
    4.5981   -5.9873    0.0000 H   0  0  0  0  0  0  0  0  0  0  0  0
    4.2690   -3.5572    0.0000 H   0  0  0  0  0  0  0  0  0  0  0  0
    3.7320   -4.8672    0.0000 H   0  0  0  0  0  0  0  0  0  0  0  0
    7.4040   -6.3672    0.0000 H   0  0  0  0  0  0  0  0  0  0  0  0
    4.5981   -6.9872    0.0000 H   0  0  0  0  0  0  0  0  0  0  0  0
    3.4030   -6.2972    0.0000 H   0  0  0  0  0  0  0  0  0  0  0  0
    8.2700   -7.4872    0.0000 H   0  0  0  0  0  0  0  0  0  0  0  0
    7.2204    9.2142    0.0000 H   0  0  0  0  0  0  0  0  0  0  0  0
    6.3735    8.9872    0.0000 H   0  0  0  0  0  0  0  0  0  0  0  0
    6.6004    8.1403    0.0000 H   0  0  0  0  0  0  0  0  0  0  0  0
    7.7331   -8.7972    0.0000 H   0  0  0  0  0  0  0  0  0  0  0  0
    9.1794    9.9872    0.0000 H   0  0  0  0  0  0  0  0  0  0  0  0
    5.4641   -7.8672    0.0000 H   0  0  0  0  0  0  0  0  0  0  0  0
    2.0000   -3.8672    0.0000 H   0  0  0  0  0  0  0  0  0  0  0  0
    7.4040   -8.9872    0.0000 H   0  0  0  0  0  0  0  0  0  0  0  0
    9.1360   -6.9872    0.0000 H   0  0  0  0  0  0  0  0  0  0  0  0
    4.9230   -8.0946    0.0000 H   0  0  0  0  0  0  0  0  0  0  0  0
    4.5244   -8.7849    0.0000 H   0  0  0  0  0  0  0  0  0  0  0  0
    8.5991   -9.2972    0.0000 H   0  0  0  0  0  0  0  0  0  0  0  0
    7.4040   -9.9872    0.0000 H   0  0  0  0  0  0  0  0  0  0  0  0
    4.5981   -9.9872    0.0000 H   0  0  0  0  0  0  0  0  0  0  0  0
  1 34  1  0  0  0  0
  1 48  1  0  0  0  0
  2 40  1  0  0  0  0
  2 49  1  0  0  0  0
  3 43  1  0  0  0  0
  3114  1  0  0  0  0
  4 48  1  0  0  0  0
  4 53  1  0  0  0  0
  5 49  1  0  0  0  0
  5 56  1  0  0  0  0
  6 50  1  0  0  0  0
  6 57  1  0  0  0  0
  7 52  1  0  0  0  0
  7123  1  0  0  0  0
  8 54  1  0  0  0  0
  8124  1  0  0  0  0
  9 55  2  0  0  0  0
 10 57  1  0  0  0  0
 10 63  1  0  0  0  0
 11 58  1  0  0  0  0
 11130  1  0  0  0  0
 12 59  1  0  0  0  0
 12132  1  0  0  0  0
 13 59  2  0  0  0  0
 14 60  1  0  0  0  0
 14134  1  0  0  0  0
 15 62  1  0  0  0  0
 15137  1  0  0  0  0
 16 64  1  0  0  0  0
 16138  1  0  0  0  0
 17 65  1  0  0  0  0
 17139  1  0  0  0  0
 18 19  1  0  0  0  0
 18 21  1  0  0  0  0
 18 23  1  0  0  0  0
 18 33  1  0  0  0  0
 19 20  1  0  0  0  0
 19 30  1  0  0  0  0
 19 66  1  0  0  0  0
 20 22  1  0  0  0  0
 20 31  1  0  0  0  0
 20 36  1  0  0  0  0
 21 24  1  0  0  0  0
 21 29  1  0  0  0  0
 21 38  1  0  0  0  0
 22 25  1  0  0  0  0
 22 26  1  0  0  0  0
 22 67  1  0  0  0  0
 23 26  1  0  0  0  0
 23 68  1  0  0  0  0
 23 69  1  0  0  0  0
 24 27  1  0  0  0  0
 24 35  2  0  0  0  0
 25 34  1  0  0  0  0
 25 43  1  0  0  0  0
 25 44  1  0  0  0  0
 26 70  1  0  0  0  0
 26 71  1  0  0  0  0
 27 28  1  0  0  0  0
 27 39  1  0  0  0  0
 27 72  1  0  0  0  0
 28 32  1  0  0  0  0
 28 40  1  0  0  0  0
 28 45  1  0  0  0  0
 29 32  1  0  0  0  0
 29 73  1  0  0  0  0
 29 74  1  0  0  0  0
 30 35  1  0  0  0  0
 30 75  1  0  0  0  0
 30 76  1  0  0  0  0
 31 37  1  0  0  0  0
 31 77  1  0  0  0  0
 31 78  1  0  0  0  0
 32 79  1  0  0  0  0
 32 80  1  0  0  0  0
 33 81  1  0  0  0  0
 33 82  1  0  0  0  0
 33 83  1  0  0  0  0
 34 37  1  0  0  0  0
 34 84  1  0  0  0  0
 35 85  1  0  0  0  0
 36 86  1  0  0  0  0
 36 87  1  0  0  0  0
 36 88  1  0  0  0  0
 37 89  1  0  0  0  0
 37 90  1  0  0  0  0
 38 91  1  0  0  0  0
 38 92  1  0  0  0  0
 38 93  1  0  0  0  0
 39 41  1  0  0  0  0
 39 94  1  0  0  0  0
 39 95  1  0  0  0  0
 40 42  1  0  0  0  0
 40 96  1  0  0  0  0
 41 42  1  0  0  0  0
 41 46  1  0  0  0  0
 41 47  1  0  0  0  0
 42 97  1  0  0  0  0
 42 98  1  0  0  0  0
 43 99  1  0  0  0  0
 43100  1  0  0  0  0
 44101  1  0  0  0  0
 44102  1  0  0  0  0
 44103  1  0  0  0  0
 45104  1  0  0  0  0
 45105  1  0  0  0  0
 45106  1  0  0  0  0
 46107  1  0  0  0  0
 46108  1  0  0  0  0
 46109  1  0  0  0  0
 47110  1  0  0  0  0
 47111  1  0  0  0  0
 47112  1  0  0  0  0
 48 50  1  0  0  0  0
 48113  1  0  0  0  0
 49 51  1  0  0  0  0
 49115  1  0  0  0  0
 50 52  1  0  0  0  0
 50116  1  0  0  0  0
 51 55  1  0  0  0  0
 51117  1  0  0  0  0
 51118  1  0  0  0  0
 52 54  1  0  0  0  0
 52119  1  0  0  0  0
 53 54  1  0  0  0  0
 53 59  1  0  0  0  0
 53120  1  0  0  0  0
 54121  1  0  0  0  0
 55 58  1  0  0  0  0
 56 58  2  0  0  0  0
 56 61  1  0  0  0  0
 57 60  1  0  0  0  0
 57122  1  0  0  0  0
 60 62  1  0  0  0  0
 60125  1  0  0  0  0
 61126  1  0  0  0  0
 61127  1  0  0  0  0
 61128  1  0  0  0  0
 62 64  1  0  0  0  0
 62129  1  0  0  0  0
 63 64  1  0  0  0  0
 63 65  1  0  0  0  0
 63131  1  0  0  0  0
 64133  1  0  0  0  0
 65135  1  0  0  0  0
 65136  1  0  0  0  0
M  END
>  <PUBCHEM_COMPOUND_CID>
133052649

>  <PUBCHEM_COMPOUND_CANONICALIZED>
1

>  <PUBCHEM_CACTVS_COMPLEXITY>
1900

>  <PUBCHEM_CACTVS_HBOND_ACCEPTOR>
17

>  <PUBCHEM_CACTVS_HBOND_DONOR>
9

>  <PUBCHEM_CACTVS_ROTATABLE_BOND>
9

>  <PUBCHEM_CACTVS_SUBSKEYS>
AAADcfB8PgAAAAAAAAAAAAAAAAAAAAAAAAA0aMGCAAAAAADAAAAAGgAACAAADxSwgAMCCAAABgCIAqDSCAIACAAgIAAACAFAAEgREBYAAQQiQAAFoAAPAQPK7PxPgAAAAAAAAADAAAYAADAAAAAAAAAAAA==

>  <PUBCHEM_IUPAC_OPENEYE_NAME>
3,4-dihydroxy-6-[[4-(hydroxymethyl)-9-[(5-hydroxy-6-methyl-4-oxo-2,3-dihydropyran-2-yl)oxy]-4,6a,6b,8a,11,11,14b-heptamethyl-1,2,3,4a,5,6,7,8,9,10,12,12a,14,14a-tetradecahydropicen-3-yl]oxy]-5-[3,4,5-trihydroxy-6-(hydroxymethyl)tetrahydropyran-2-yl]oxy-tetrahydropyran-2-carboxylic acid

>  <PUBCHEM_IUPAC_CAS_NAME>
3,4-dihydroxy-6-[[4-(hydroxymethyl)-9-[(5-hydroxy-6-methyl-4-oxo-2,3-dihydropyran-2-yl)oxy]-4,6a,6b,8a,11,11,14b-heptamethyl-1,2,3,4a,5,6,7,8,9,10,12,12a,14,14a-tetradecahydropicen-3-yl]oxy]-5-[[3,4,5-trihydroxy-6-(hydroxymethyl)-2-oxanyl]oxy]-2-oxanecarboxylic acid

>  <PUBCHEM_IUPAC_NAME>
3,4-dihydroxy-6-[[4-(hydroxymethyl)-9-[(5-hydroxy-6-methyl-4-oxo-2,3-dihydropyran-2-yl)oxy]-4,6a,6b,8a,11,11,14b-heptamethyl-1,2,3,4a,5,6,7,8,9,10,12,12a,14,14a-tetradecahydropicen-3-yl]oxy]-5-[3,4,5-trihydroxy-6-(hydroxymethyl)oxan-2-yl]oxyoxane-2-carboxylic acid

>  <PUBCHEM_IUPAC_SYSTEMATIC_NAME>
6-[[4-(hydroxymethyl)-4,6a,6b,8a,11,11,14b-heptamethyl-9-[(6-methyl-5-oxidanyl-4-oxidanylidene-2,3-dihydropyran-2-yl)oxy]-1,2,3,4a,5,6,7,8,9,10,12,12a,14,14a-tetradecahydropicen-3-yl]oxy]-5-[6-(hydroxymethyl)-3,4,5-tris(oxidanyl)oxan-2-yl]oxy-3,4-bis(oxidanyl)oxane-2-carboxylic acid

>  <PUBCHEM_IUPAC_TRADITIONAL_NAME>
3,4-dihydroxy-6-[[9-[(5-hydroxy-4-keto-6-methyl-2,3-dihydropyran-2-yl)oxy]-4,6a,6b,8a,11,11,14b-heptamethyl-4-methylol-1,2,3,4a,5,6,7,8,9,10,12,12a,14,14a-tetradecahydropicen-3-yl]oxy]-5-(3,4,5-trihydroxy-6-methylol-tetrahydropyran-2-yl)oxy-tetrahydropyran-2-carboxylic acid

>  <PUBCHEM_IUPAC_INCHI>
InChI=1S/C48H74O17/c1-22-32(52)25(51)17-31(60-22)62-30-19-43(2,3)18-24-23-9-10-28-45(5)13-12-29(46(6,21-50)27(45)11-14-48(28,8)47(23,7)16-15-44(24,30)4)63-42-39(36(56)35(55)38(64-42)40(58)59)65-41-37(57)34(54)33(53)26(20-49)61-41/h9,24,26-31,33-39,41-42,49-50,52-57H,10-21H2,1-8H3,(H,58,59)

>  <PUBCHEM_IUPAC_INCHIKEY>
OJLGASCOGOIOJR-UHFFFAOYSA-N

>  <PUBCHEM_XLOGP3_AA>
4.1

>  <PUBCHEM_EXACT_MASS>
922.493

>  <PUBCHEM_MOLECULAR_FORMULA>
C48H74O17

>  <PUBCHEM_MOLECULAR_WEIGHT>
923.103

>  <PUBCHEM_OPENEYE_CAN_SMILES>
CC1=C(C(=O)CC(O1)OC2CC(CC3C2(CCC4(C3=CCC5C4(CCC6C5(CCC(C6(C)CO)OC7C(C(C(C(O7)C(=O)O)O)O)OC8C(C(C(C(O8)CO)O)O)O)C)C)C)C)(C)C)O

>  <PUBCHEM_OPENEYE_ISO_SMILES>
CC1=C(C(=O)CC(O1)OC2CC(CC3C2(CCC4(C3=CCC5C4(CCC6C5(CCC(C6(C)CO)OC7C(C(C(C(O7)C(=O)O)O)O)OC8C(C(C(C(O8)CO)O)O)O)C)C)C)C)(C)C)O

>  <PUBCHEM_CACTVS_TPSA>
272

>  <PUBCHEM_MONOISOTOPIC_WEIGHT>
922.493

>  <PUBCHEM_TOTAL_CHARGE>
0

>  <PUBCHEM_HEAVY_ATOM_COUNT>
65

>  <PUBCHEM_ATOM_DEF_STEREO_COUNT>
0

>  <PUBCHEM_ATOM_UDEF_STEREO_COUNT>
21

>  <PUBCHEM_BOND_DEF_STEREO_COUNT>
0

>  <PUBCHEM_BOND_UDEF_STEREO_COUNT>
0

>  <PUBCHEM_ISOTOPIC_ATOM_COUNT>
0

>  <PUBCHEM_COMPONENT_COUNT>
1

>  <PUBCHEM_CACTVS_TAUTO_COUNT>
8

>  <PUBCHEM_COORDINATE_TYPE>
1
5
255

>  <PUBCHEM_BONDANNOTATIONS>
34  1  3
48  1  3
60  14  3
62  15  3
64  16  3
18  33  3
19  30  3
40  2  3
49  2  3
20  36  3
21  38  3
22  26  3
25  44  3
27  39  3
28  45  3
53  59  3
50  6  3
57  6  3
63  65  3
52  7  3
54  8  3

$$$$
