13343540
 OpenBabel06101807152D

 35 36  0  0  1  0  0  0  0  0999 V2000
    6.3580    0.4480    0.0000 O   0  0  0  0  0  0  0  0  0  0  0  0
    2.8660   -0.5173    0.0000 O   0  0  0  0  0  0  0  0  0  0  0  0
    2.8660    0.4827    0.0000 O   0  0  0  0  0  0  0  0  0  0  0  0
    8.1282    0.4585    0.0000 O   0  0  0  0  0  0  0  0  0  0  0  0
    4.5981   -0.5173    0.0000 C   0  0  0  0  0  0  0  0  0  0  0  0
    4.5981    0.4827    0.0000 C   0  0  0  0  0  0  0  0  0  0  0  0
    3.7320   -1.0173    0.0000 C   0  0  3  0  0  0  0  0  0  0  0  0
    5.4641    0.9827    0.0000 C   0  0  0  0  0  0  0  0  0  0  0  0
    3.7320    0.9827    0.0000 C   0  0  0  0  0  0  0  0  0  0  0  0
    5.4641    1.9827    0.0000 C   0  0  0  0  0  0  0  0  0  0  0  0
    3.7320   -2.0173    0.0000 C   0  0  0  0  0  0  0  0  0  0  0  0
    3.7320    1.9827    0.0000 C   0  0  0  0  0  0  0  0  0  0  0  0
    4.5981    2.4827    0.0000 C   0  0  0  0  0  0  0  0  0  0  0  0
    6.3580    2.5173    0.0000 C   0  0  0  0  0  0  0  0  0  0  0  0
    2.8660   -2.5173    0.0000 C   0  0  0  0  0  0  0  0  0  0  0  0
    7.2641    2.0035    0.0000 C   0  0  0  0  0  0  0  0  0  0  0  0
    7.2641    0.9619    0.0000 C   0  0  0  0  0  0  0  0  0  0  0  0
    4.5981   -2.5173    0.0000 C   0  0  0  0  0  0  0  0  0  0  0  0
    2.0000    0.9827    0.0000 C   0  0  0  0  0  0  0  0  0  0  0  0
    4.8101   -1.0999    0.0000 H   0  0  0  0  0  0  0  0  0  0  0  0
    5.2087   -0.4097    0.0000 H   0  0  0  0  0  0  0  0  0  0  0  0
    3.7320   -0.3973    0.0000 H   0  0  0  0  0  0  0  0  0  0  0  0
    3.1951    2.2927    0.0000 H   0  0  0  0  0  0  0  0  0  0  0  0
    4.5981    3.1027    0.0000 H   0  0  0  0  0  0  0  0  0  0  0  0
    6.3509    3.1373    0.0000 H   0  0  0  0  0  0  0  0  0  0  0  0
    2.5560   -1.9804    0.0000 H   0  0  0  0  0  0  0  0  0  0  0  0
    2.3291   -2.8273    0.0000 H   0  0  0  0  0  0  0  0  0  0  0  0
    3.1760   -3.0543    0.0000 H   0  0  0  0  0  0  0  0  0  0  0  0
    2.3291   -0.8273    0.0000 H   0  0  0  0  0  0  0  0  0  0  0  0
    7.7998    2.3156    0.0000 H   0  0  0  0  0  0  0  0  0  0  0  0
    4.5981   -3.1373    0.0000 H   0  0  0  0  0  0  0  0  0  0  0  0
    5.1350   -2.2073    0.0000 H   0  0  0  0  0  0  0  0  0  0  0  0
    2.3100    1.5196    0.0000 H   0  0  0  0  0  0  0  0  0  0  0  0
    1.4631    1.2927    0.0000 H   0  0  0  0  0  0  0  0  0  0  0  0
    1.6900    0.4457    0.0000 H   0  0  0  0  0  0  0  0  0  0  0  0
  1  8  1  0  0  0  0
  1 17  1  0  0  0  0
  2  7  1  0  0  0  0
  2 29  1  0  0  0  0
  3  9  1  0  0  0  0
  3 19  1  0  0  0  0
  4 17  2  0  0  0  0
  5  6  1  0  0  0  0
  5  7  1  0  0  0  0
  5 20  1  0  0  0  0
  5 21  1  0  0  0  0
  6  8  1  0  0  0  0
  6  9  2  0  0  0  0
  7 11  1  0  0  0  0
  7 22  1  0  0  0  0
  8 10  2  0  0  0  0
  9 12  1  0  0  0  0
 10 13  1  0  0  0  0
 10 14  1  0  0  0  0
 11 15  1  0  0  0  0
 11 18  2  0  0  0  0
 12 13  2  0  0  0  0
 12 23  1  0  0  0  0
 13 24  1  0  0  0  0
 14 16  2  0  0  0  0
 14 25  1  0  0  0  0
 15 26  1  0  0  0  0
 15 27  1  0  0  0  0
 15 28  1  0  0  0  0
 16 17  1  0  0  0  0
 16 30  1  0  0  0  0
 18 31  1  0  0  0  0
 18 32  1  0  0  0  0
 19 33  1  0  0  0  0
 19 34  1  0  0  0  0
 19 35  1  0  0  0  0
M  END
>  <PUBCHEM_COMPOUND_CID>
13343540

>  <PUBCHEM_COMPOUND_CANONICALIZED>
1

>  <PUBCHEM_CACTVS_COMPLEXITY>
388

>  <PUBCHEM_CACTVS_HBOND_ACCEPTOR>
4

>  <PUBCHEM_CACTVS_HBOND_DONOR>
1

>  <PUBCHEM_CACTVS_ROTATABLE_BOND>
4

>  <PUBCHEM_CACTVS_SUBSKEYS>
AAADceBwOAAAAAAAAAAAAAAAAAAAAAAAAAAwQAAAAAAAAACBAAAAGgAACAAADBSgmAIyDoAABgCIAiDSCAACCAAgIAAIiAAGCMgMNyKEMRqCeiClwBUIuYfA4PwOIAACCAAIAABAAAQQABAAAAAAAAAAAA==

>  <PUBCHEM_IUPAC_OPENEYE_NAME>
8-(2-hydroxy-3-methyl-but-3-enyl)-7-methoxy-chromen-2-one

>  <PUBCHEM_IUPAC_CAS_NAME>
8-(2-hydroxy-3-methylbut-3-enyl)-7-methoxy-1-benzopyran-2-one

>  <PUBCHEM_IUPAC_NAME>
8-(2-hydroxy-3-methylbut-3-enyl)-7-methoxychromen-2-one

>  <PUBCHEM_IUPAC_SYSTEMATIC_NAME>
7-methoxy-8-(3-methyl-2-oxidanyl-but-3-enyl)chromen-2-one

>  <PUBCHEM_IUPAC_TRADITIONAL_NAME>
8-(2-hydroxy-3-methyl-but-3-enyl)-7-methoxy-coumarin

>  <PUBCHEM_IUPAC_INCHI>
InChI=1S/C15H16O4/c1-9(2)12(16)8-11-13(18-3)6-4-10-5-7-14(17)19-15(10)11/h4-7,12,16H,1,8H2,2-3H3

>  <PUBCHEM_IUPAC_INCHIKEY>
SQSRYWNOKPJENY-UHFFFAOYSA-N

>  <PUBCHEM_XLOGP3_AA>
2.8

>  <PUBCHEM_EXACT_MASS>
260.105

>  <PUBCHEM_MOLECULAR_FORMULA>
C15H16O4

>  <PUBCHEM_MOLECULAR_WEIGHT>
260.289

>  <PUBCHEM_OPENEYE_CAN_SMILES>
CC(=C)C(CC1=C(C=CC2=C1OC(=O)C=C2)OC)O

>  <PUBCHEM_OPENEYE_ISO_SMILES>
CC(=C)C(CC1=C(C=CC2=C1OC(=O)C=C2)OC)O

>  <PUBCHEM_CACTVS_TPSA>
55.8

>  <PUBCHEM_MONOISOTOPIC_WEIGHT>
260.105

>  <PUBCHEM_TOTAL_CHARGE>
0

>  <PUBCHEM_HEAVY_ATOM_COUNT>
19

>  <PUBCHEM_ATOM_DEF_STEREO_COUNT>
0

>  <PUBCHEM_ATOM_UDEF_STEREO_COUNT>
1

>  <PUBCHEM_BOND_DEF_STEREO_COUNT>
0

>  <PUBCHEM_BOND_UDEF_STEREO_COUNT>
0

>  <PUBCHEM_ISOTOPIC_ATOM_COUNT>
0

>  <PUBCHEM_COMPONENT_COUNT>
1

>  <PUBCHEM_CACTVS_TAUTO_COUNT>
1

>  <PUBCHEM_COORDINATE_TYPE>
1
5
255

>  <PUBCHEM_BONDANNOTATIONS>
1  17  8
1  8  8
10  13  8
10  14  8
12  13  8
14  16  8
16  17  8
7  2  3
6  8  8
6  9  8
8  10  8
9  12  8

$$$$
