133867
 OpenBabel06101807152D

 48 50  0  0  0  0  0  0  0  0999 V2000
    5.5443    0.2520    0.0000 O   0  0  0  0  0  0  0  0  0  0  0  0
    5.8550    2.8120    0.0000 O   0  0  0  0  0  0  0  0  0  0  0  0
    2.0000    2.0567    0.0000 O   0  0  0  0  0  0  0  0  0  0  0  0
    2.0000    0.0567    0.0000 O   0  0  0  0  0  0  0  0  0  0  0  0
   10.1279    1.0567    0.0000 O   0  0  0  0  0  0  0  0  0  0  0  0
    6.1279    1.0567    0.0000 C   0  0  0  0  0  0  0  0  0  0  0  0
    4.5981    1.5567    0.0000 C   0  0  0  0  0  0  0  0  0  0  0  0
    7.1279    1.0567    0.0000 C   0  0  0  0  0  0  0  0  0  0  0  0
    4.5981    0.5567    0.0000 C   0  0  0  0  0  0  0  0  0  0  0  0
    5.5443    1.8614    0.0000 C   0  0  0  0  0  0  0  0  0  0  0  0
    8.6279    0.1907    0.0000 C   0  0  0  0  0  0  0  0  0  0  0  0
    7.6279    0.1907    0.0000 C   0  0  0  0  0  0  0  0  0  0  0  0
    9.1279   -0.6753    0.0000 C   0  0  0  0  0  0  0  0  0  0  0  0
    3.7320    2.0567    0.0000 C   0  0  0  0  0  0  0  0  0  0  0  0
    7.6279    1.9227    0.0000 C   0  0  0  0  0  0  0  0  0  0  0  0
    3.7320    0.0567    0.0000 C   0  0  0  0  0  0  0  0  0  0  0  0
    9.1279    1.0567    0.0000 C   0  0  0  0  0  0  0  0  0  0  0  0
    2.8660    1.5567    0.0000 C   0  0  0  0  0  0  0  0  0  0  0  0
    2.8660    0.5567    0.0000 C   0  0  0  0  0  0  0  0  0  0  0  0
    8.6279    1.9227    0.0000 C   0  0  0  0  0  0  0  0  0  0  0  0
    8.6279   -1.5414    0.0000 C   0  0  0  0  0  0  0  0  0  0  0  0
    9.1279   -2.4074    0.0000 C   0  0  0  0  0  0  0  0  0  0  0  0
    8.6279   -3.2734    0.0000 C   0  0  0  0  0  0  0  0  0  0  0  0
   10.1279   -2.4074    0.0000 C   0  0  0  0  0  0  0  0  0  0  0  0
    2.0000    3.0567    0.0000 C   0  0  0  0  0  0  0  0  0  0  0  0
    2.0000   -0.9433    0.0000 C   0  0  0  0  0  0  0  0  0  0  0  0
    7.3179   -0.3463    0.0000 H   0  0  0  0  0  0  0  0  0  0  0  0
    9.6028   -1.0739    0.0000 H   0  0  0  0  0  0  0  0  0  0  0  0
    9.6028   -0.2768    0.0000 H   0  0  0  0  0  0  0  0  0  0  0  0
    3.7320    2.6767    0.0000 H   0  0  0  0  0  0  0  0  0  0  0  0
    7.3179    2.4597    0.0000 H   0  0  0  0  0  0  0  0  0  0  0  0
    3.7320   -0.5633    0.0000 H   0  0  0  0  0  0  0  0  0  0  0  0
    8.9379    2.4597    0.0000 H   0  0  0  0  0  0  0  0  0  0  0  0
    8.0079   -1.5414    0.0000 H   0  0  0  0  0  0  0  0  0  0  0  0
    5.4409    3.2734    0.0000 H   0  0  0  0  0  0  0  0  0  0  0  0
    8.0910   -2.9634    0.0000 H   0  0  0  0  0  0  0  0  0  0  0  0
   10.1279   -3.0274    0.0000 H   0  0  0  0  0  0  0  0  0  0  0  0
   10.7479   -2.4074    0.0000 H   0  0  0  0  0  0  0  0  0  0  0  0
   10.1279   -1.7874    0.0000 H   0  0  0  0  0  0  0  0  0  0  0  0
    8.3179   -3.8104    0.0000 H   0  0  0  0  0  0  0  0  0  0  0  0
    9.1648   -3.5834    0.0000 H   0  0  0  0  0  0  0  0  0  0  0  0
   10.4379    1.5936    0.0000 H   0  0  0  0  0  0  0  0  0  0  0  0
    2.6200    3.0567    0.0000 H   0  0  0  0  0  0  0  0  0  0  0  0
    2.0000    3.6767    0.0000 H   0  0  0  0  0  0  0  0  0  0  0  0
    1.3800    3.0567    0.0000 H   0  0  0  0  0  0  0  0  0  0  0  0
    1.3800   -0.9433    0.0000 H   0  0  0  0  0  0  0  0  0  0  0  0
    2.0000   -1.5633    0.0000 H   0  0  0  0  0  0  0  0  0  0  0  0
    2.6200   -0.9433    0.0000 H   0  0  0  0  0  0  0  0  0  0  0  0
  1  6  1  0  0  0  0
  1  9  1  0  0  0  0
  2 10  1  0  0  0  0
  2 35  1  0  0  0  0
  3 18  1  0  0  0  0
  3 25  1  0  0  0  0
  4 19  1  0  0  0  0
  4 26  1  0  0  0  0
  5 17  1  0  0  0  0
  5 42  1  0  0  0  0
  6  8  1  0  0  0  0
  6 10  2  0  0  0  0
  7  9  1  0  0  0  0
  7 10  1  0  0  0  0
  7 14  2  0  0  0  0
  8 12  2  0  0  0  0
  8 15  1  0  0  0  0
  9 16  2  0  0  0  0
 11 12  1  0  0  0  0
 11 13  1  0  0  0  0
 11 17  2  0  0  0  0
 12 27  1  0  0  0  0
 13 21  1  0  0  0  0
 13 28  1  0  0  0  0
 13 29  1  0  0  0  0
 14 18  1  0  0  0  0
 14 30  1  0  0  0  0
 15 20  2  0  0  0  0
 15 31  1  0  0  0  0
 16 19  1  0  0  0  0
 16 32  1  0  0  0  0
 17 20  1  0  0  0  0
 18 19  2  0  0  0  0
 20 33  1  0  0  0  0
 21 22  2  0  0  0  0
 21 34  1  0  0  0  0
 22 23  1  0  0  0  0
 22 24  1  0  0  0  0
 23 36  1  0  0  0  0
 23 40  1  0  0  0  0
 23 41  1  0  0  0  0
 24 37  1  0  0  0  0
 24 38  1  0  0  0  0
 24 39  1  0  0  0  0
 25 43  1  0  0  0  0
 25 44  1  0  0  0  0
 25 45  1  0  0  0  0
 26 46  1  0  0  0  0
 26 47  1  0  0  0  0
 26 48  1  0  0  0  0
M  END
>  <PUBCHEM_COMPOUND_CID>
133867

>  <PUBCHEM_COMPOUND_CANONICALIZED>
1

>  <PUBCHEM_CACTVS_COMPLEXITY>
489

>  <PUBCHEM_CACTVS_HBOND_ACCEPTOR>
5

>  <PUBCHEM_CACTVS_HBOND_DONOR>
2

>  <PUBCHEM_CACTVS_ROTATABLE_BOND>
5

>  <PUBCHEM_CACTVS_SUBSKEYS>
AAADceB4OAAAAAAAAAAAAAAAAAAAASAAAAAwYAAAAAAAAEgB9AAAGgAACAAADASAmAIyBsAABkCIAqBSAAICCAAkIAAIiAFGiMgNJzaGNRqCeWOl4BULuYfK7PzOIQADCAAIQABCAAYQABCAAAAAAAAAAA==

>  <PUBCHEM_IUPAC_OPENEYE_NAME>
2-[4-hydroxy-3-(3-methylbut-2-enyl)phenyl]-5,6-dimethoxy-benzofuran-3-ol

>  <PUBCHEM_IUPAC_CAS_NAME>
2-[4-hydroxy-3-(3-methylbut-2-enyl)phenyl]-5,6-dimethoxy-3-benzofuranol

>  <PUBCHEM_IUPAC_NAME>
2-[4-hydroxy-3-(3-methylbut-2-enyl)phenyl]-5,6-dimethoxy-1-benzofuran-3-ol

>  <PUBCHEM_IUPAC_SYSTEMATIC_NAME>
5,6-dimethoxy-2-[3-(3-methylbut-2-enyl)-4-oxidanyl-phenyl]-1-benzofuran-3-ol

>  <PUBCHEM_IUPAC_TRADITIONAL_NAME>
2-[4-hydroxy-3-(3-methylbut-2-enyl)phenyl]-5,6-dimethoxy-benzofuran-3-ol

>  <PUBCHEM_IUPAC_INCHI>
InChI=1S/C21H22O5/c1-12(2)5-6-13-9-14(7-8-16(13)22)21-20(23)15-10-18(24-3)19(25-4)11-17(15)26-21/h5,7-11,22-23H,6H2,1-4H3

>  <PUBCHEM_IUPAC_INCHIKEY>
KRWXHCWICDLYOY-UHFFFAOYSA-N

>  <PUBCHEM_XLOGP3_AA>
5.1

>  <PUBCHEM_EXACT_MASS>
354.147

>  <PUBCHEM_MOLECULAR_FORMULA>
C21H22O5

>  <PUBCHEM_MOLECULAR_WEIGHT>
354.402

>  <PUBCHEM_OPENEYE_CAN_SMILES>
CC(=CCC1=C(C=CC(=C1)C2=C(C3=CC(=C(C=C3O2)OC)OC)O)O)C

>  <PUBCHEM_OPENEYE_ISO_SMILES>
CC(=CCC1=C(C=CC(=C1)C2=C(C3=CC(=C(C=C3O2)OC)OC)O)O)C

>  <PUBCHEM_CACTVS_TPSA>
72.1

>  <PUBCHEM_MONOISOTOPIC_WEIGHT>
354.147

>  <PUBCHEM_TOTAL_CHARGE>
0

>  <PUBCHEM_HEAVY_ATOM_COUNT>
26

>  <PUBCHEM_ATOM_DEF_STEREO_COUNT>
0

>  <PUBCHEM_ATOM_UDEF_STEREO_COUNT>
0

>  <PUBCHEM_BOND_DEF_STEREO_COUNT>
0

>  <PUBCHEM_BOND_UDEF_STEREO_COUNT>
0

>  <PUBCHEM_ISOTOPIC_ATOM_COUNT>
0

>  <PUBCHEM_COMPONENT_COUNT>
1

>  <PUBCHEM_CACTVS_TAUTO_COUNT>
6

>  <PUBCHEM_COORDINATE_TYPE>
1
5
255

>  <PUBCHEM_BONDANNOTATIONS>
1  6  8
1  9  8
11  12  8
11  17  8
14  18  8
15  20  8
16  19  8
17  20  8
18  19  8
6  10  8
7  10  8
7  14  8
7  9  8
8  12  8
8  15  8
9  16  8

$$$$
