135029
 OpenBabel06101807152D

 36 37  0  0  0  0  0  0  0  0999 V2000
    2.0000    0.5000    0.0000 Cl  0  0  0  0  0  0  0  0  0  0  0  0
    7.5870    1.2552    0.0000 O   0  0  0  0  0  0  0  0  0  0  0  0
    7.8600   -0.5000    0.0000 C   0  0  0  0  0  0  0  0  0  0  0  0
    7.2764   -1.3047    0.0000 C   0  0  0  0  0  0  0  0  0  0  0  0
    6.3301   -1.0000    0.0000 C   0  0  0  0  0  0  0  0  0  0  0  0
    6.3301    0.0000    0.0000 C   0  0  0  0  0  0  0  0  0  0  0  0
    7.2764    0.3047    0.0000 C   0  0  0  0  0  0  0  0  0  0  0  0
    8.6690   -1.0878    0.0000 C   0  0  0  0  0  0  0  0  0  0  0  0
    8.6690    0.0878    0.0000 C   0  0  0  0  0  0  0  0  0  0  0  0
    5.4641    0.5000    0.0000 C   0  0  0  0  0  0  0  0  0  0  0  0
    5.4641   -1.5000    0.0000 C   0  0  0  0  0  0  0  0  0  0  0  0
    4.5981    0.0000    0.0000 C   0  0  0  0  0  0  0  0  0  0  0  0
    4.5981   -1.0000    0.0000 C   0  0  0  0  0  0  0  0  0  0  0  0
    3.7320    0.5000    0.0000 C   0  0  0  0  0  0  0  0  0  0  0  0
    5.4641    1.5000    0.0000 C   0  0  0  0  0  0  0  0  0  0  0  0
    3.7320   -1.5000    0.0000 C   0  0  0  0  0  0  0  0  0  0  0  0
    2.8660    0.0000    0.0000 C   0  0  0  0  0  0  0  0  0  0  0  0
    7.0253   -1.8716    0.0000 H   0  0  0  0  0  0  0  0  0  0  0  0
    7.8137   -1.6140    0.0000 H   0  0  0  0  0  0  0  0  0  0  0  0
    8.3046   -1.5894    0.0000 H   0  0  0  0  0  0  0  0  0  0  0  0
    9.1706   -1.4522    0.0000 H   0  0  0  0  0  0  0  0  0  0  0  0
    9.0334   -0.5862    0.0000 H   0  0  0  0  0  0  0  0  0  0  0  0
    9.0334   -0.4138    0.0000 H   0  0  0  0  0  0  0  0  0  0  0  0
    9.1706    0.4522    0.0000 H   0  0  0  0  0  0  0  0  0  0  0  0
    8.3046    0.5894    0.0000 H   0  0  0  0  0  0  0  0  0  0  0  0
    5.4641   -2.1200    0.0000 H   0  0  0  0  0  0  0  0  0  0  0  0
    4.1306    0.9749    0.0000 H   0  0  0  0  0  0  0  0  0  0  0  0
    3.3335    0.9749    0.0000 H   0  0  0  0  0  0  0  0  0  0  0  0
    6.0841    1.5000    0.0000 H   0  0  0  0  0  0  0  0  0  0  0  0
    5.4641    2.1200    0.0000 H   0  0  0  0  0  0  0  0  0  0  0  0
    4.8441    1.5000    0.0000 H   0  0  0  0  0  0  0  0  0  0  0  0
    3.4220   -0.9631    0.0000 H   0  0  0  0  0  0  0  0  0  0  0  0
    3.1951   -1.8100    0.0000 H   0  0  0  0  0  0  0  0  0  0  0  0
    4.0420   -2.0369    0.0000 H   0  0  0  0  0  0  0  0  0  0  0  0
    2.4675   -0.4749    0.0000 H   0  0  0  0  0  0  0  0  0  0  0  0
    3.2646   -0.4749    0.0000 H   0  0  0  0  0  0  0  0  0  0  0  0
  1 17  1  0  0  0  0
  2  7  2  0  0  0  0
  3  4  1  0  0  0  0
  3  7  1  0  0  0  0
  3  8  1  0  0  0  0
  3  9  1  0  0  0  0
  4  5  1  0  0  0  0
  4 18  1  0  0  0  0
  4 19  1  0  0  0  0
  5  6  2  0  0  0  0
  5 11  1  0  0  0  0
  6  7  1  0  0  0  0
  6 10  1  0  0  0  0
  8 20  1  0  0  0  0
  8 21  1  0  0  0  0
  8 22  1  0  0  0  0
  9 23  1  0  0  0  0
  9 24  1  0  0  0  0
  9 25  1  0  0  0  0
 10 12  2  0  0  0  0
 10 15  1  0  0  0  0
 11 13  2  0  0  0  0
 11 26  1  0  0  0  0
 12 13  1  0  0  0  0
 12 14  1  0  0  0  0
 13 16  1  0  0  0  0
 14 17  1  0  0  0  0
 14 27  1  0  0  0  0
 14 28  1  0  0  0  0
 15 29  1  0  0  0  0
 15 30  1  0  0  0  0
 15 31  1  0  0  0  0
 16 32  1  0  0  0  0
 16 33  1  0  0  0  0
 16 34  1  0  0  0  0
 17 35  1  0  0  0  0
 17 36  1  0  0  0  0
M  END
>  <PUBCHEM_COMPOUND_CID>
135029

>  <PUBCHEM_COMPOUND_CANONICALIZED>
1

>  <PUBCHEM_CACTVS_COMPLEXITY>
310

>  <PUBCHEM_CACTVS_HBOND_ACCEPTOR>
1

>  <PUBCHEM_CACTVS_HBOND_DONOR>
0

>  <PUBCHEM_CACTVS_ROTATABLE_BOND>
2

>  <PUBCHEM_CACTVS_SUBSKEYS>
AAADceBwIAAEAAAAAAAAAAAAAAAAAYAAAAAwAAAAAAAAAGABAAAAGgIAAAAADgeAmEAyAIAAAACIAqBSAAACAAAkAAAAiAEAAsgIIDKBFRCAIQAggAAIiQcIiMCPwAACAAAQAACAAAQAACAAAQAACAAAAA==

>  <PUBCHEM_IUPAC_OPENEYE_NAME>
6-(2-chloroethyl)-2,2,5,7-tetramethyl-indan-1-one

>  <PUBCHEM_IUPAC_CAS_NAME>
6-(2-chloroethyl)-2,2,5,7-tetramethyl-3H-inden-1-one

>  <PUBCHEM_IUPAC_NAME>
6-(2-chloroethyl)-2,2,5,7-tetramethyl-3H-inden-1-one

>  <PUBCHEM_IUPAC_SYSTEMATIC_NAME>
6-(2-chloroethyl)-2,2,5,7-tetramethyl-3H-inden-1-one

>  <PUBCHEM_IUPAC_TRADITIONAL_NAME>
6-(2-chloroethyl)-2,2,5,7-tetramethyl-indan-1-one

>  <PUBCHEM_IUPAC_INCHI>
InChI=1S/C15H19ClO/c1-9-7-11-8-15(3,4)14(17)13(11)10(2)12(9)5-6-16/h7H,5-6,8H2,1-4H3

>  <PUBCHEM_IUPAC_INCHIKEY>
CPNGMVOUDSBLOG-UHFFFAOYSA-N

>  <PUBCHEM_XLOGP3_AA>
4.2

>  <PUBCHEM_EXACT_MASS>
250.112

>  <PUBCHEM_MOLECULAR_FORMULA>
C15H19ClO

>  <PUBCHEM_MOLECULAR_WEIGHT>
250.766

>  <PUBCHEM_OPENEYE_CAN_SMILES>
CC1=C(C(=C2C(=C1)CC(C2=O)(C)C)C)CCCl

>  <PUBCHEM_OPENEYE_ISO_SMILES>
CC1=C(C(=C2C(=C1)CC(C2=O)(C)C)C)CCCl

>  <PUBCHEM_CACTVS_TPSA>
17.1

>  <PUBCHEM_MONOISOTOPIC_WEIGHT>
250.112

>  <PUBCHEM_TOTAL_CHARGE>
0

>  <PUBCHEM_HEAVY_ATOM_COUNT>
17

>  <PUBCHEM_ATOM_DEF_STEREO_COUNT>
0

>  <PUBCHEM_ATOM_UDEF_STEREO_COUNT>
0

>  <PUBCHEM_BOND_DEF_STEREO_COUNT>
0

>  <PUBCHEM_BOND_UDEF_STEREO_COUNT>
0

>  <PUBCHEM_ISOTOPIC_ATOM_COUNT>
0

>  <PUBCHEM_COMPONENT_COUNT>
1

>  <PUBCHEM_CACTVS_TAUTO_COUNT>
25

>  <PUBCHEM_COORDINATE_TYPE>
1
5
255

>  <PUBCHEM_BONDANNOTATIONS>
10  12  8
11  13  8
12  13  8
5  11  8
5  6  8
6  10  8

$$$$
