13547825
 OpenBabel06101807152D

 29 28  0  0  0  0  0  0  0  0999 V2000
    2.5369   -0.3100    0.0000 O   0  0  0  0  0  0  0  0  0  0  0  0
    3.4030    0.1900    0.0000 C   0  0  0  0  0  0  0  0  0  0  0  0
    4.2690    0.6900    0.0000 C   0  0  0  0  0  0  0  0  0  0  0  0
    5.1350    0.1900    0.0000 C   0  0  0  0  0  0  0  0  0  0  0  0
    2.9030    1.0560    0.0000 C   0  0  0  0  0  0  0  0  0  0  0  0
    3.9030   -0.6760    0.0000 C   0  0  0  0  0  0  0  0  0  0  0  0
    6.0010    0.6900    0.0000 C   0  0  0  0  0  0  0  0  0  0  0  0
    6.8671    0.1900    0.0000 C   0  0  0  0  0  0  0  0  0  0  0  0
    7.7331    0.6900    0.0000 C   0  0  0  0  0  0  0  0  0  0  0  0
    6.8671   -0.8100    0.0000 C   0  0  0  0  0  0  0  0  0  0  0  0
    7.7331   -1.3100    0.0000 C   0  0  0  0  0  0  0  0  0  0  0  0
    4.6675    1.1650    0.0000 H   0  0  0  0  0  0  0  0  0  0  0  0
    3.8705    1.1650    0.0000 H   0  0  0  0  0  0  0  0  0  0  0  0
    4.7365   -0.2849    0.0000 H   0  0  0  0  0  0  0  0  0  0  0  0
    5.5335   -0.2849    0.0000 H   0  0  0  0  0  0  0  0  0  0  0  0
    3.4399    1.3660    0.0000 H   0  0  0  0  0  0  0  0  0  0  0  0
    2.5930    1.5930    0.0000 H   0  0  0  0  0  0  0  0  0  0  0  0
    2.3660    0.7460    0.0000 H   0  0  0  0  0  0  0  0  0  0  0  0
    3.3660   -0.9860    0.0000 H   0  0  0  0  0  0  0  0  0  0  0  0
    4.2130   -1.2130    0.0000 H   0  0  0  0  0  0  0  0  0  0  0  0
    4.4399   -0.3660    0.0000 H   0  0  0  0  0  0  0  0  0  0  0  0
    6.0010    1.3100    0.0000 H   0  0  0  0  0  0  0  0  0  0  0  0
    2.0000    0.0000    0.0000 H   0  0  0  0  0  0  0  0  0  0  0  0
    8.0431    0.1531    0.0000 H   0  0  0  0  0  0  0  0  0  0  0  0
    8.2700    1.0000    0.0000 H   0  0  0  0  0  0  0  0  0  0  0  0
    7.4231    1.2269    0.0000 H   0  0  0  0  0  0  0  0  0  0  0  0
    6.3301   -1.1200    0.0000 H   0  0  0  0  0  0  0  0  0  0  0  0
    7.7331   -1.9300    0.0000 H   0  0  0  0  0  0  0  0  0  0  0  0
    8.2700   -1.0000    0.0000 H   0  0  0  0  0  0  0  0  0  0  0  0
  1  2  1  0  0  0  0
  1 23  1  0  0  0  0
  2  3  1  0  0  0  0
  2  5  1  0  0  0  0
  2  6  1  0  0  0  0
  3  4  1  0  0  0  0
  3 12  1  0  0  0  0
  3 13  1  0  0  0  0
  4  7  1  0  0  0  0
  4 14  1  0  0  0  0
  4 15  1  0  0  0  0
  5 16  1  0  0  0  0
  5 17  1  0  0  0  0
  5 18  1  0  0  0  0
  6 19  1  0  0  0  0
  6 20  1  0  0  0  0
  6 21  1  0  0  0  0
  7  8  2  0  0  0  0
  7 22  1  0  0  0  0
  8  9  1  0  0  0  0
  8 10  1  0  0  0  0
  9 24  1  0  0  0  0
  9 25  1  0  0  0  0
  9 26  1  0  0  0  0
 10 11  2  0  0  0  0
 10 27  1  0  0  0  0
 11 28  1  0  0  0  0
 11 29  1  0  0  0  0
M  END
>  <PUBCHEM_COMPOUND_CID>
13547825

>  <PUBCHEM_COMPOUND_CANONICALIZED>
1

>  <PUBCHEM_CACTVS_COMPLEXITY>
154

>  <PUBCHEM_CACTVS_HBOND_ACCEPTOR>
1

>  <PUBCHEM_CACTVS_HBOND_DONOR>
1

>  <PUBCHEM_CACTVS_ROTATABLE_BOND>
4

>  <PUBCHEM_CACTVS_SUBSKEYS>
AAADceBwIAAAAAAAAAAAAAAAAAAAAAAAAAAAAAAAAAAAAAAAAAAAGgAACAAADESAgAACAAAAAgCAAiBCAAAAAAAgAAAICAAAAAgIAAIAAQAAQAAEgAAIgAIAAAAMAAAAAAAAAAAAAAAAAAAAAAAAAAAAAA==

>  <PUBCHEM_IUPAC_OPENEYE_NAME>
(5Z)-2,6-dimethylocta-5,7-dien-2-ol

>  <PUBCHEM_IUPAC_CAS_NAME>
(5Z)-2,6-dimethyl-2-octa-5,7-dienol

>  <PUBCHEM_IUPAC_NAME>
(5Z)-2,6-dimethylocta-5,7-dien-2-ol

>  <PUBCHEM_IUPAC_SYSTEMATIC_NAME>
(5Z)-2,6-dimethylocta-5,7-dien-2-ol

>  <PUBCHEM_IUPAC_TRADITIONAL_NAME>
(5Z)-2,6-dimethylocta-5,7-dien-2-ol

>  <PUBCHEM_IUPAC_INCHI>
InChI=1S/C10H18O/c1-5-9(2)7-6-8-10(3,4)11/h5,7,11H,1,6,8H2,2-4H3/b9-7-

>  <PUBCHEM_IUPAC_INCHIKEY>
IJFKZRMIRAVXRK-CLFYSBASSA-N

>  <PUBCHEM_XLOGP3_AA>
2.9

>  <PUBCHEM_EXACT_MASS>
154.136

>  <PUBCHEM_MOLECULAR_FORMULA>
C10H18O

>  <PUBCHEM_MOLECULAR_WEIGHT>
154.253

>  <PUBCHEM_OPENEYE_CAN_SMILES>
CC(=CCCC(C)(C)O)C=C

>  <PUBCHEM_OPENEYE_ISO_SMILES>
C/C(=C/CCC(C)(C)O)/C=C

>  <PUBCHEM_CACTVS_TPSA>
20.2

>  <PUBCHEM_MONOISOTOPIC_WEIGHT>
154.136

>  <PUBCHEM_TOTAL_CHARGE>
0

>  <PUBCHEM_HEAVY_ATOM_COUNT>
11

>  <PUBCHEM_ATOM_DEF_STEREO_COUNT>
0

>  <PUBCHEM_ATOM_UDEF_STEREO_COUNT>
0

>  <PUBCHEM_BOND_DEF_STEREO_COUNT>
1

>  <PUBCHEM_BOND_UDEF_STEREO_COUNT>
0

>  <PUBCHEM_ISOTOPIC_ATOM_COUNT>
0

>  <PUBCHEM_COMPONENT_COUNT>
1

>  <PUBCHEM_CACTVS_TAUTO_COUNT>
1

>  <PUBCHEM_COORDINATE_TYPE>
1
5
255

$$$$
