13611567
 OpenBabel06101807152D

 28 28  0  0  0  0  0  0  0  0999 V2000
    3.8660   -1.0000    0.0000 O   0  0  0  0  0  0  0  0  0  0  0  0
    3.8660    2.0000    0.0000 O   0  0  0  0  0  0  0  0  0  0  0  0
    3.0000   -0.5000    0.0000 C   0  0  0  0  0  0  0  0  0  0  0  0
    3.0000    0.5000    0.0000 C   0  0  0  0  0  0  0  0  0  0  0  0
    4.7320   -0.5000    0.0000 C   0  0  0  0  0  0  0  0  0  0  0  0
    5.5981   -1.0000    0.0000 C   0  0  0  0  0  0  0  0  0  0  0  0
    2.0000   -0.5000    0.0000 C   0  0  0  0  0  0  0  0  0  0  0  0
    2.5000   -1.3660    0.0000 C   0  0  0  0  0  0  0  0  0  0  0  0
    3.8660    1.0000    0.0000 C   0  0  0  0  0  0  0  0  0  0  0  0
    4.7320    0.5000    0.0000 C   0  0  0  0  0  0  0  0  0  0  0  0
    6.4641   -0.5000    0.0000 C   0  0  0  0  0  0  0  0  0  0  0  0
    5.5981   -2.0000    0.0000 C   0  0  0  0  0  0  0  0  0  0  0  0
    2.7880    1.0826    0.0000 H   0  0  0  0  0  0  0  0  0  0  0  0
    2.3894    0.3923    0.0000 H   0  0  0  0  0  0  0  0  0  0  0  0
    5.5981   -0.3800    0.0000 H   0  0  0  0  0  0  0  0  0  0  0  0
    2.0000    0.1200    0.0000 H   0  0  0  0  0  0  0  0  0  0  0  0
    1.3800   -0.5000    0.0000 H   0  0  0  0  0  0  0  0  0  0  0  0
    2.0000   -1.1200    0.0000 H   0  0  0  0  0  0  0  0  0  0  0  0
    1.9631   -1.0560    0.0000 H   0  0  0  0  0  0  0  0  0  0  0  0
    2.1900   -1.9030    0.0000 H   0  0  0  0  0  0  0  0  0  0  0  0
    3.0369   -1.6760    0.0000 H   0  0  0  0  0  0  0  0  0  0  0  0
    5.2690    0.8100    0.0000 H   0  0  0  0  0  0  0  0  0  0  0  0
    6.7741   -1.0369    0.0000 H   0  0  0  0  0  0  0  0  0  0  0  0
    7.0010   -0.1900    0.0000 H   0  0  0  0  0  0  0  0  0  0  0  0
    6.1541    0.0369    0.0000 H   0  0  0  0  0  0  0  0  0  0  0  0
    4.9781   -2.0000    0.0000 H   0  0  0  0  0  0  0  0  0  0  0  0
    5.5981   -2.6200    0.0000 H   0  0  0  0  0  0  0  0  0  0  0  0
    6.2181   -2.0000    0.0000 H   0  0  0  0  0  0  0  0  0  0  0  0
  1  3  1  0  0  0  0
  1  5  1  0  0  0  0
  2  9  2  0  0  0  0
  3  4  1  0  0  0  0
  3  7  1  0  0  0  0
  3  8  1  0  0  0  0
  4  9  1  0  0  0  0
  4 13  1  0  0  0  0
  4 14  1  0  0  0  0
  5  6  1  0  0  0  0
  5 10  2  0  0  0  0
  6 11  1  0  0  0  0
  6 12  1  0  0  0  0
  6 15  1  0  0  0  0
  7 16  1  0  0  0  0
  7 17  1  0  0  0  0
  7 18  1  0  0  0  0
  8 19  1  0  0  0  0
  8 20  1  0  0  0  0
  8 21  1  0  0  0  0
  9 10  1  0  0  0  0
 10 22  1  0  0  0  0
 11 23  1  0  0  0  0
 11 24  1  0  0  0  0
 11 25  1  0  0  0  0
 12 26  1  0  0  0  0
 12 27  1  0  0  0  0
 12 28  1  0  0  0  0
M  END
>  <PUBCHEM_COMPOUND_CID>
13611567

>  <PUBCHEM_COMPOUND_CANONICALIZED>
1

>  <PUBCHEM_CACTVS_COMPLEXITY>
224

>  <PUBCHEM_CACTVS_HBOND_ACCEPTOR>
2

>  <PUBCHEM_CACTVS_HBOND_DONOR>
0

>  <PUBCHEM_CACTVS_ROTATABLE_BOND>
1

>  <PUBCHEM_CACTVS_SUBSKEYS>
AAADceBwMAAAAAAAAAAAAAAAAAAAAAAAAAAgAAAAAAAAAAAAAAAAGgAAAAAADUSAgAACAAAABACIAKBSAAAACAAgIAAACAEAAEgAABYAAQACAAAEoAAIAQIAAAAMAAAAAAAAAAAAAAAAAAAAAAAAAAAAAA==

>  <PUBCHEM_IUPAC_OPENEYE_NAME>
6-isopropyl-2,2-dimethyl-3H-pyran-4-one

>  <PUBCHEM_IUPAC_CAS_NAME>
2,2-dimethyl-6-propan-2-yl-3H-pyran-4-one

>  <PUBCHEM_IUPAC_NAME>
2,2-dimethyl-6-propan-2-yl-3H-pyran-4-one

>  <PUBCHEM_IUPAC_SYSTEMATIC_NAME>
2,2-dimethyl-6-propan-2-yl-3H-pyran-4-one

>  <PUBCHEM_IUPAC_TRADITIONAL_NAME>
6-isopropyl-2,2-dimethyl-3H-pyran-4-one

>  <PUBCHEM_IUPAC_INCHI>
InChI=1S/C10H16O2/c1-7(2)9-5-8(11)6-10(3,4)12-9/h5,7H,6H2,1-4H3

>  <PUBCHEM_IUPAC_INCHIKEY>
ZBGHKXZWQJSFAC-UHFFFAOYSA-N

>  <PUBCHEM_XLOGP3_AA>
1.7

>  <PUBCHEM_EXACT_MASS>
168.115

>  <PUBCHEM_MOLECULAR_FORMULA>
C10H16O2

>  <PUBCHEM_MOLECULAR_WEIGHT>
168.236

>  <PUBCHEM_OPENEYE_CAN_SMILES>
CC(C)C1=CC(=O)CC(O1)(C)C

>  <PUBCHEM_OPENEYE_ISO_SMILES>
CC(C)C1=CC(=O)CC(O1)(C)C

>  <PUBCHEM_CACTVS_TPSA>
26.3

>  <PUBCHEM_MONOISOTOPIC_WEIGHT>
168.115

>  <PUBCHEM_TOTAL_CHARGE>
0

>  <PUBCHEM_HEAVY_ATOM_COUNT>
12

>  <PUBCHEM_ATOM_DEF_STEREO_COUNT>
0

>  <PUBCHEM_ATOM_UDEF_STEREO_COUNT>
0

>  <PUBCHEM_BOND_DEF_STEREO_COUNT>
0

>  <PUBCHEM_BOND_UDEF_STEREO_COUNT>
0

>  <PUBCHEM_ISOTOPIC_ATOM_COUNT>
0

>  <PUBCHEM_COMPONENT_COUNT>
1

>  <PUBCHEM_CACTVS_TAUTO_COUNT>
5

>  <PUBCHEM_COORDINATE_TYPE>
1
5
255

$$$$
