13644660
 OpenBabel06101807152D

 68 72  0  0  1  0  0  0  0  0999 V2000
    7.7331   -1.7500    0.0000 O   0  0  0  0  0  0  0  0  0  0  0  0
    4.2690    1.2500    0.0000 O   0  0  0  0  0  0  0  0  0  0  0  0
    5.1350   -1.2500    0.0000 O   0  0  0  0  0  0  0  0  0  0  0  0
    5.1350   -3.2500    0.0000 O   0  0  0  0  0  0  0  0  0  0  0  0
    6.8671   -4.2500    0.0000 O   0  0  0  0  0  0  0  0  0  0  0  0
    6.0010    3.2500    0.0000 O   0  0  0  0  0  0  0  0  0  0  0  0
    8.6270   -0.2847    0.0000 O   0  0  0  0  0  0  0  0  0  0  0  0
    4.2690    4.2500    0.0000 O   0  0  0  0  0  0  0  0  0  0  0  0
    5.1350   -0.2500    0.0000 O   0  0  0  0  0  0  0  0  0  0  0  0
    2.5369    3.2500    0.0000 O   0  0  0  0  0  0  0  0  0  0  0  0
    8.5991   -4.2500    0.0000 O   0  0  0  0  0  0  0  0  0  0  0  0
    6.8671    2.7500    0.0000 O   0  0  0  0  0  0  0  0  0  0  0  0
    8.6155    2.7846    0.0000 O   0  0  0  0  0  0  0  0  0  0  0  0
   12.9895   -1.7842    0.0000 O   0  0  0  0  0  0  0  0  0  0  0  0
    6.8671   -1.2500    0.0000 C   0  0  3  0  0  0  0  0  0  0  0  0
    6.0010   -1.7500    0.0000 C   0  0  3  0  0  0  0  0  0  0  0  0
    6.0010   -2.7500    0.0000 C   0  0  3  0  0  0  0  0  0  0  0  0
    6.8671   -3.2500    0.0000 C   0  0  3  0  0  0  0  0  0  0  0  0
    7.7331   -2.7500    0.0000 C   0  0  3  0  0  0  0  0  0  0  0  0
    6.8671   -0.2500    0.0000 C   0  0  0  0  0  0  0  0  0  0  0  0
    5.1350    1.7500    0.0000 C   0  0  3  0  0  0  0  0  0  0  0  0
    5.1350    2.7500    0.0000 C   0  0  3  0  0  0  0  0  0  0  0  0
    6.0010    1.2500    0.0000 C   0  0  0  0  0  0  0  0  0  0  0  0
    4.2690    3.2500    0.0000 C   0  0  3  0  0  0  0  0  0  0  0  0
    6.0010    0.2500    0.0000 C   0  0  0  0  0  0  0  0  0  0  0  0
    3.4030    2.7500    0.0000 C   0  0  3  0  0  0  0  0  0  0  0  0
    7.7331    0.2500    0.0000 C   0  0  0  0  0  0  0  0  0  0  0  0
    8.5991   -3.2500    0.0000 C   0  0  0  0  0  0  0  0  0  0  0  0
    3.4030    1.7500    0.0000 C   0  0  0  0  0  0  0  0  0  0  0  0
    6.8671    1.7500    0.0000 C   0  0  0  0  0  0  0  0  0  0  0  0
    7.7331    1.2500    0.0000 C   0  0  0  0  0  0  0  0  0  0  0  0
    8.6270    1.7847    0.0000 C   0  0  0  0  0  0  0  0  0  0  0  0
    9.5331    0.2292    0.0000 C   0  0  0  0  0  0  0  0  0  0  0  0
    9.5331    1.2708    0.0000 C   0  0  0  0  0  0  0  0  0  0  0  0
   10.3972   -0.2742    0.0000 C   0  0  0  0  0  0  0  0  0  0  0  0
   10.3933   -1.2741    0.0000 C   0  0  0  0  0  0  0  0  0  0  0  0
   11.2651    0.2225    0.0000 C   0  0  0  0  0  0  0  0  0  0  0  0
   11.2574   -1.7775    0.0000 C   0  0  0  0  0  0  0  0  0  0  0  0
   12.1292   -0.2808    0.0000 C   0  0  0  0  0  0  0  0  0  0  0  0
   12.1254   -1.2808    0.0000 C   0  0  0  0  0  0  0  0  0  0  0  0
    6.3301   -0.9400    0.0000 H   0  0  0  0  0  0  0  0  0  0  0  0
    5.4641   -2.0600    0.0000 H   0  0  0  0  0  0  0  0  0  0  0  0
    6.5380   -2.4400    0.0000 H   0  0  0  0  0  0  0  0  0  0  0  0
    6.3301   -3.5600    0.0000 H   0  0  0  0  0  0  0  0  0  0  0  0
    8.2700   -2.4400    0.0000 H   0  0  0  0  0  0  0  0  0  0  0  0
    5.1350    1.1300    0.0000 H   0  0  0  0  0  0  0  0  0  0  0  0
    5.1350    3.3700    0.0000 H   0  0  0  0  0  0  0  0  0  0  0  0
    3.7320    3.5600    0.0000 H   0  0  0  0  0  0  0  0  0  0  0  0
    3.9399    2.4400    0.0000 H   0  0  0  0  0  0  0  0  0  0  0  0
    9.2097   -3.3577    0.0000 H   0  0  0  0  0  0  0  0  0  0  0  0
    8.8112   -2.6674    0.0000 H   0  0  0  0  0  0  0  0  0  0  0  0
    2.7924    1.8577    0.0000 H   0  0  0  0  0  0  0  0  0  0  0  0
    3.1909    1.1674    0.0000 H   0  0  0  0  0  0  0  0  0  0  0  0
    4.5981   -1.5600    0.0000 H   0  0  0  0  0  0  0  0  0  0  0  0
    5.1350   -3.8700    0.0000 H   0  0  0  0  0  0  0  0  0  0  0  0
    6.3301   -4.5600    0.0000 H   0  0  0  0  0  0  0  0  0  0  0  0
    6.0010    3.8700    0.0000 H   0  0  0  0  0  0  0  0  0  0  0  0
    3.7320    4.5600    0.0000 H   0  0  0  0  0  0  0  0  0  0  0  0
    4.5981    0.0600    0.0000 H   0  0  0  0  0  0  0  0  0  0  0  0
    2.0000    2.9400    0.0000 H   0  0  0  0  0  0  0  0  0  0  0  0
   10.0688    1.5829    0.0000 H   0  0  0  0  0  0  0  0  0  0  0  0
    9.1360   -4.5600    0.0000 H   0  0  0  0  0  0  0  0  0  0  0  0
    7.4040    3.0600    0.0000 H   0  0  0  0  0  0  0  0  0  0  0  0
    9.8552   -1.5821    0.0000 H   0  0  0  0  0  0  0  0  0  0  0  0
   11.2675    0.8425    0.0000 H   0  0  0  0  0  0  0  0  0  0  0  0
   11.2550   -2.3975    0.0000 H   0  0  0  0  0  0  0  0  0  0  0  0
   12.6674    0.0271    0.0000 H   0  0  0  0  0  0  0  0  0  0  0  0
   13.5276   -1.4762    0.0000 H   0  0  0  0  0  0  0  0  0  0  0  0
  1 15  1  0  0  0  0
  1 19  1  0  0  0  0
  2 21  1  0  0  0  0
  2 29  1  0  0  0  0
  3 16  1  0  0  0  0
  3 54  1  0  0  0  0
  4 17  1  0  0  0  0
  4 55  1  0  0  0  0
  5 18  1  0  0  0  0
  5 56  1  0  0  0  0
  6 22  1  0  0  0  0
  6 57  1  0  0  0  0
  7 27  1  0  0  0  0
  7 33  1  0  0  0  0
  8 24  1  0  0  0  0
  8 58  1  0  0  0  0
  9 25  1  0  0  0  0
  9 59  1  0  0  0  0
 10 26  1  0  0  0  0
 10 60  1  0  0  0  0
 11 28  1  0  0  0  0
 11 62  1  0  0  0  0
 12 30  1  0  0  0  0
 12 63  1  0  0  0  0
 13 32  2  0  0  0  0
 14 40  1  0  0  0  0
 14 68  1  0  0  0  0
 15 16  1  0  0  0  0
 15 20  1  0  0  0  0
 15 41  1  0  0  0  0
 16 17  1  0  0  0  0
 16 42  1  0  0  0  0
 17 18  1  0  0  0  0
 17 43  1  0  0  0  0
 18 19  1  0  0  0  0
 18 44  1  0  0  0  0
 19 28  1  0  0  0  0
 19 45  1  0  0  0  0
 20 25  1  0  0  0  0
 20 27  2  0  0  0  0
 21 22  1  0  0  0  0
 21 23  1  0  0  0  0
 21 46  1  0  0  0  0
 22 24  1  0  0  0  0
 22 47  1  0  0  0  0
 23 25  2  0  0  0  0
 23 30  1  0  0  0  0
 24 26  1  0  0  0  0
 24 48  1  0  0  0  0
 26 29  1  0  0  0  0
 26 49  1  0  0  0  0
 27 31  1  0  0  0  0
 28 50  1  0  0  0  0
 28 51  1  0  0  0  0
 29 52  1  0  0  0  0
 29 53  1  0  0  0  0
 30 31  2  0  0  0  0
 31 32  1  0  0  0  0
 32 34  1  0  0  0  0
 33 34  2  0  0  0  0
 33 35  1  0  0  0  0
 34 61  1  0  0  0  0
 35 36  2  0  0  0  0
 35 37  1  0  0  0  0
 36 38  1  0  0  0  0
 36 64  1  0  0  0  0
 37 39  2  0  0  0  0
 37 65  1  0  0  0  0
 38 40  2  0  0  0  0
 38 66  1  0  0  0  0
 39 40  1  0  0  0  0
 39 67  1  0  0  0  0
M  END
>  <PUBCHEM_COMPOUND_CID>
13644660

>  <PUBCHEM_COMPOUND_CANONICALIZED>
1

>  <PUBCHEM_CACTVS_COMPLEXITY>
938

>  <PUBCHEM_CACTVS_HBOND_ACCEPTOR>
14

>  <PUBCHEM_CACTVS_HBOND_DONOR>
10

>  <PUBCHEM_CACTVS_ROTATABLE_BOND>
4

>  <PUBCHEM_CACTVS_SUBSKEYS>
AAADceB4PAAAAAAAAAAAAAAAAAAAAAAAAAA0aIECAAAAAACBQAAAGgAACAAADBSgmAIwBoAABgCIAqBSAAACCAAkIAAIiAEGCMgNNzaGNRqCeWCl4BULuQfI7PzOIAACCAAIAABAAAQQABAAAAAAAAAAAA==

>  <PUBCHEM_IUPAC_OPENEYE_NAME>
5,7-dihydroxy-2-(4-hydroxyphenyl)-8-[3,4,5-trihydroxy-6-(hydroxymethyl)tetrahydropyran-2-yl]-6-(3,4,5-trihydroxytetrahydropyran-2-yl)chromen-4-one

>  <PUBCHEM_IUPAC_CAS_NAME>
5,7-dihydroxy-2-(4-hydroxyphenyl)-8-[3,4,5-trihydroxy-6-(hydroxymethyl)-2-oxanyl]-6-(3,4,5-trihydroxy-2-oxanyl)-1-benzopyran-4-one

>  <PUBCHEM_IUPAC_NAME>
5,7-dihydroxy-2-(4-hydroxyphenyl)-8-[3,4,5-trihydroxy-6-(hydroxymethyl)oxan-2-yl]-6-(3,4,5-trihydroxyoxan-2-yl)chromen-4-one

>  <PUBCHEM_IUPAC_SYSTEMATIC_NAME>
8-[6-(hydroxymethyl)-3,4,5-tris(oxidanyl)oxan-2-yl]-2-(4-hydroxyphenyl)-5,7-bis(oxidanyl)-6-[3,4,5-tris(oxidanyl)oxan-2-yl]chromen-4-one

>  <PUBCHEM_IUPAC_TRADITIONAL_NAME>
5,7-dihydroxy-2-(4-hydroxyphenyl)-8-(3,4,5-trihydroxy-6-methylol-tetrahydropyran-2-yl)-6-(3,4,5-trihydroxytetrahydropyran-2-yl)chromone

>  <PUBCHEM_IUPAC_INCHI>
InChI=1S/C26H28O14/c27-6-13-18(32)21(35)23(37)26(40-13)16-20(34)15(25-22(36)17(31)11(30)7-38-25)19(33)14-10(29)5-12(39-24(14)16)8-1-3-9(28)4-2-8/h1-5,11,13,17-18,21-23,25-28,30-37H,6-7H2

>  <PUBCHEM_IUPAC_INCHIKEY>
OVMFOVNOXASTPA-UHFFFAOYSA-N

>  <PUBCHEM_XLOGP3_AA>
-2.2

>  <PUBCHEM_EXACT_MASS>
564.148

>  <PUBCHEM_MOLECULAR_FORMULA>
C26H28O14

>  <PUBCHEM_MOLECULAR_WEIGHT>
564.496

>  <PUBCHEM_OPENEYE_CAN_SMILES>
C1C(C(C(C(O1)C2=C(C3=C(C(=C2O)C4C(C(C(C(O4)CO)O)O)O)OC(=CC3=O)C5=CC=C(C=C5)O)O)O)O)O

>  <PUBCHEM_OPENEYE_ISO_SMILES>
C1C(C(C(C(O1)C2=C(C3=C(C(=C2O)C4C(C(C(C(O4)CO)O)O)O)OC(=CC3=O)C5=CC=C(C=C5)O)O)O)O)O

>  <PUBCHEM_CACTVS_TPSA>
247

>  <PUBCHEM_MONOISOTOPIC_WEIGHT>
564.148

>  <PUBCHEM_TOTAL_CHARGE>
0

>  <PUBCHEM_HEAVY_ATOM_COUNT>
40

>  <PUBCHEM_ATOM_DEF_STEREO_COUNT>
0

>  <PUBCHEM_ATOM_UDEF_STEREO_COUNT>
9

>  <PUBCHEM_BOND_DEF_STEREO_COUNT>
0

>  <PUBCHEM_BOND_UDEF_STEREO_COUNT>
0

>  <PUBCHEM_ISOTOPIC_ATOM_COUNT>
0

>  <PUBCHEM_COMPONENT_COUNT>
1

>  <PUBCHEM_CACTVS_TAUTO_COUNT>
57

>  <PUBCHEM_COORDINATE_TYPE>
1
5
255

>  <PUBCHEM_BONDANNOTATIONS>
26  10  3
15  20  3
19  28  3
20  25  8
20  27  8
21  23  3
23  25  8
23  30  8
27  31  8
16  3  3
30  31  8
31  32  8
32  34  8
33  34  8
35  36  8
35  37  8
36  38  8
37  39  8
38  40  8
39  40  8
17  4  3
18  5  3
22  6  3
7  27  8
7  33  8
24  8  3

$$$$
