136417
 OpenBabel06101807152D

 52 54  0  0  0  0  0  0  0  0999 V2000
    6.3580   -0.1743    0.0000 O   0  0  0  0  0  0  0  0  0  0  0  0
    4.5981   -1.1396    0.0000 O   0  0  0  0  0  0  0  0  0  0  0  0
    8.1282    1.8846    0.0000 O   0  0  0  0  0  0  0  0  0  0  0  0
    2.8660   -0.1396    0.0000 O   0  0  0  0  0  0  0  0  0  0  0  0
    2.8660    1.8604    0.0000 O   0  0  0  0  0  0  0  0  0  0  0  0
    4.5981    2.8604    0.0000 O   0  0  0  0  0  0  0  0  0  0  0  0
    6.3465    2.8950    0.0000 O   0  0  0  0  0  0  0  0  0  0  0  0
    8.9846   -2.6671    0.0000 O   0  0  0  0  0  0  0  0  0  0  0  0
   10.7205   -1.6738    0.0000 O   0  0  0  0  0  0  0  0  0  0  0  0
    5.4641    1.3604    0.0000 C   0  0  0  0  0  0  0  0  0  0  0  0
    5.4641    0.3604    0.0000 C   0  0  0  0  0  0  0  0  0  0  0  0
    7.2641    0.3396    0.0000 C   0  0  0  0  0  0  0  0  0  0  0  0
    4.5981   -0.1396    0.0000 C   0  0  0  0  0  0  0  0  0  0  0  0
    6.3580    1.8951    0.0000 C   0  0  0  0  0  0  0  0  0  0  0  0
    4.5981    1.8604    0.0000 C   0  0  0  0  0  0  0  0  0  0  0  0
    7.2641    1.3812    0.0000 C   0  0  0  0  0  0  0  0  0  0  0  0
    8.1282   -0.1637    0.0000 C   0  0  0  0  0  0  0  0  0  0  0  0
    3.7320    0.3604    0.0000 C   0  0  0  0  0  0  0  0  0  0  0  0
    3.7320    1.3604    0.0000 C   0  0  0  0  0  0  0  0  0  0  0  0
    8.1244   -1.1637    0.0000 C   0  0  0  0  0  0  0  0  0  0  0  0
    8.9962    0.3329    0.0000 C   0  0  0  0  0  0  0  0  0  0  0  0
    8.9884   -1.6671    0.0000 C   0  0  0  0  0  0  0  0  0  0  0  0
    9.8564   -1.1704    0.0000 C   0  0  0  0  0  0  0  0  0  0  0  0
    9.8602   -0.1704    0.0000 C   0  0  0  0  0  0  0  0  0  0  0  0
    3.7320   -1.6396    0.0000 C   0  0  0  0  0  0  0  0  0  0  0  0
    8.1244    2.8845    0.0000 C   0  0  0  0  0  0  0  0  0  0  0  0
    2.0000    0.3604    0.0000 C   0  0  0  0  0  0  0  0  0  0  0  0
    2.0000    1.3604    0.0000 C   0  0  0  0  0  0  0  0  0  0  0  0
    9.8487   -3.1704    0.0000 C   0  0  0  0  0  0  0  0  0  0  0  0
   11.5884   -1.1771    0.0000 C   0  0  0  0  0  0  0  0  0  0  0  0
    7.5862   -1.4717    0.0000 H   0  0  0  0  0  0  0  0  0  0  0  0
    8.9985    0.9529    0.0000 H   0  0  0  0  0  0  0  0  0  0  0  0
   10.3984    0.1375    0.0000 H   0  0  0  0  0  0  0  0  0  0  0  0
    4.0611    3.1704    0.0000 H   0  0  0  0  0  0  0  0  0  0  0  0
    3.4220   -1.1027    0.0000 H   0  0  0  0  0  0  0  0  0  0  0  0
    3.1951   -1.9496    0.0000 H   0  0  0  0  0  0  0  0  0  0  0  0
    4.0420   -2.1765    0.0000 H   0  0  0  0  0  0  0  0  0  0  0  0
    8.7443    2.8869    0.0000 H   0  0  0  0  0  0  0  0  0  0  0  0
    8.1220    3.5045    0.0000 H   0  0  0  0  0  0  0  0  0  0  0  0
    7.5044    2.8822    0.0000 H   0  0  0  0  0  0  0  0  0  0  0  0
    2.3100    0.8973    0.0000 H   0  0  0  0  0  0  0  0  0  0  0  0
    1.4631    0.6704    0.0000 H   0  0  0  0  0  0  0  0  0  0  0  0
    1.6900   -0.1765    0.0000 H   0  0  0  0  0  0  0  0  0  0  0  0
    1.6900    1.8973    0.0000 H   0  0  0  0  0  0  0  0  0  0  0  0
    1.4631    1.0504    0.0000 H   0  0  0  0  0  0  0  0  0  0  0  0
    2.3100    0.8235    0.0000 H   0  0  0  0  0  0  0  0  0  0  0  0
    9.5366   -3.7061    0.0000 H   0  0  0  0  0  0  0  0  0  0  0  0
   10.3844   -3.4825    0.0000 H   0  0  0  0  0  0  0  0  0  0  0  0
   10.1607   -2.6347    0.0000 H   0  0  0  0  0  0  0  0  0  0  0  0
   11.8964   -1.7152    0.0000 H   0  0  0  0  0  0  0  0  0  0  0  0
   12.1266   -0.8692    0.0000 H   0  0  0  0  0  0  0  0  0  0  0  0
   11.2805   -0.6390    0.0000 H   0  0  0  0  0  0  0  0  0  0  0  0
  1 11  1  0  0  0  0
  1 12  1  0  0  0  0
  2 13  1  0  0  0  0
  2 25  1  0  0  0  0
  3 16  1  0  0  0  0
  3 26  1  0  0  0  0
  4 18  1  0  0  0  0
  4 27  1  0  0  0  0
  5 19  1  0  0  0  0
  5 28  1  0  0  0  0
  6 15  1  0  0  0  0
  6 34  1  0  0  0  0
  7 14  2  0  0  0  0
  8 22  1  0  0  0  0
  8 29  1  0  0  0  0
  9 23  1  0  0  0  0
  9 30  1  0  0  0  0
 10 11  1  0  0  0  0
 10 14  1  0  0  0  0
 10 15  2  0  0  0  0
 11 13  2  0  0  0  0
 12 16  2  0  0  0  0
 12 17  1  0  0  0  0
 13 18  1  0  0  0  0
 14 16  1  0  0  0  0
 15 19  1  0  0  0  0
 17 20  2  0  0  0  0
 17 21  1  0  0  0  0
 18 19  2  0  0  0  0
 20 22  1  0  0  0  0
 20 31  1  0  0  0  0
 21 24  2  0  0  0  0
 21 32  1  0  0  0  0
 22 23  2  0  0  0  0
 23 24  1  0  0  0  0
 24 33  1  0  0  0  0
 25 35  1  0  0  0  0
 25 36  1  0  0  0  0
 25 37  1  0  0  0  0
 26 38  1  0  0  0  0
 26 39  1  0  0  0  0
 26 40  1  0  0  0  0
 27 41  1  0  0  0  0
 27 42  1  0  0  0  0
 27 43  1  0  0  0  0
 28 44  1  0  0  0  0
 28 45  1  0  0  0  0
 28 46  1  0  0  0  0
 29 47  1  0  0  0  0
 29 48  1  0  0  0  0
 29 49  1  0  0  0  0
 30 50  1  0  0  0  0
 30 51  1  0  0  0  0
 30 52  1  0  0  0  0
M  END
>  <PUBCHEM_COMPOUND_CID>
136417

>  <PUBCHEM_COMPOUND_CANONICALIZED>
1

>  <PUBCHEM_CACTVS_COMPLEXITY>
636

>  <PUBCHEM_CACTVS_HBOND_ACCEPTOR>
9

>  <PUBCHEM_CACTVS_HBOND_DONOR>
1

>  <PUBCHEM_CACTVS_ROTATABLE_BOND>
7

>  <PUBCHEM_CACTVS_SUBSKEYS>
AAADceB4PAAAAAAAAAAAAAAAAAAAAAAAAAAwYIAAAAAAAACBQAAAGgAACAAADASAmAIyBoAABgCIAqBSAAICCAAkIAAIiAFGiMgNJzaGNR6CeWOl4BULuQfK7LzOIQABCAAIQABCAAIQABCAAAAAAAAAAA==

>  <PUBCHEM_IUPAC_OPENEYE_NAME>
2-(3,4-dimethoxyphenyl)-5-hydroxy-3,6,7,8-tetramethoxy-chromen-4-one

>  <PUBCHEM_IUPAC_CAS_NAME>
2-(3,4-dimethoxyphenyl)-5-hydroxy-3,6,7,8-tetramethoxy-1-benzopyran-4-one

>  <PUBCHEM_IUPAC_NAME>
2-(3,4-dimethoxyphenyl)-5-hydroxy-3,6,7,8-tetramethoxychromen-4-one

>  <PUBCHEM_IUPAC_SYSTEMATIC_NAME>
2-(3,4-dimethoxyphenyl)-3,6,7,8-tetramethoxy-5-oxidanyl-chromen-4-one

>  <PUBCHEM_IUPAC_TRADITIONAL_NAME>
2-(3,4-dimethoxyphenyl)-5-hydroxy-3,6,7,8-tetramethoxy-chromone

>  <PUBCHEM_IUPAC_INCHI>
InChI=1S/C21H22O9/c1-24-11-8-7-10(9-12(11)25-2)16-18(26-3)14(22)13-15(23)19(27-4)21(29-6)20(28-5)17(13)30-16/h7-9,23H,1-6H3

>  <PUBCHEM_IUPAC_INCHIKEY>
JDVPHCLYMGBZLE-UHFFFAOYSA-N

>  <PUBCHEM_XLOGP3_AA>
3.4

>  <PUBCHEM_EXACT_MASS>
418.126

>  <PUBCHEM_MOLECULAR_FORMULA>
C21H22O9

>  <PUBCHEM_MOLECULAR_WEIGHT>
418.398

>  <PUBCHEM_OPENEYE_CAN_SMILES>
COC1=C(C=C(C=C1)C2=C(C(=O)C3=C(O2)C(=C(C(=C3O)OC)OC)OC)OC)OC

>  <PUBCHEM_OPENEYE_ISO_SMILES>
COC1=C(C=C(C=C1)C2=C(C(=O)C3=C(O2)C(=C(C(=C3O)OC)OC)OC)OC)OC

>  <PUBCHEM_CACTVS_TPSA>
102

>  <PUBCHEM_MONOISOTOPIC_WEIGHT>
418.126

>  <PUBCHEM_TOTAL_CHARGE>
0

>  <PUBCHEM_HEAVY_ATOM_COUNT>
30

>  <PUBCHEM_ATOM_DEF_STEREO_COUNT>
0

>  <PUBCHEM_ATOM_UDEF_STEREO_COUNT>
0

>  <PUBCHEM_BOND_DEF_STEREO_COUNT>
0

>  <PUBCHEM_BOND_UDEF_STEREO_COUNT>
0

>  <PUBCHEM_ISOTOPIC_ATOM_COUNT>
0

>  <PUBCHEM_COMPONENT_COUNT>
1

>  <PUBCHEM_CACTVS_TAUTO_COUNT>
4

>  <PUBCHEM_COORDINATE_TYPE>
1
5
255

>  <PUBCHEM_BONDANNOTATIONS>
1  11  8
1  12  8
10  11  8
10  14  8
10  15  8
11  13  8
12  16  8
13  18  8
14  16  8
15  19  8
17  20  8
17  21  8
18  19  8
20  22  8
21  24  8
22  23  8
23  24  8

$$$$
