13662207
 OpenBabel06101807152D

 25 25  0  0  1  0  0  0  0  0999 V2000
    2.8660    0.5000    0.0000 O   0  0  0  0  0  0  0  0  0  0  0  0
    2.0000    2.0000    0.0000 O   0  0  0  0  0  0  0  0  0  0  0  0
    4.5981    1.5000    0.0000 O   0  0  0  0  0  0  0  0  0  0  0  0
    3.7320    0.0000    0.0000 C   0  0  3  0  0  0  0  0  0  0  0  0
    3.7320   -1.0000    0.0000 C   0  0  0  0  0  0  0  0  0  0  0  0
    2.8660   -1.5000    0.0000 C   0  0  0  0  0  0  0  0  0  0  0  0
    4.5981   -1.5000    0.0000 C   0  0  0  0  0  0  0  0  0  0  0  0
    2.8660   -2.5000    0.0000 C   0  0  0  0  0  0  0  0  0  0  0  0
    4.5981   -2.5000    0.0000 C   0  0  0  0  0  0  0  0  0  0  0  0
    4.5981    0.5000    0.0000 C   0  0  0  0  0  0  0  0  0  0  0  0
    2.8660    1.5000    0.0000 C   0  0  0  0  0  0  0  0  0  0  0  0
    3.7320   -3.0000    0.0000 C   0  0  0  0  0  0  0  0  0  0  0  0
    2.0000    3.0000    0.0000 C   0  0  0  0  0  0  0  0  0  0  0  0
    3.7320    0.6200    0.0000 H   0  0  0  0  0  0  0  0  0  0  0  0
    2.3291   -1.1900    0.0000 H   0  0  0  0  0  0  0  0  0  0  0  0
    5.1350   -1.1900    0.0000 H   0  0  0  0  0  0  0  0  0  0  0  0
    2.3291   -2.8100    0.0000 H   0  0  0  0  0  0  0  0  0  0  0  0
    5.1350   -2.8100    0.0000 H   0  0  0  0  0  0  0  0  0  0  0  0
    5.1350    0.1900    0.0000 H   0  0  0  0  0  0  0  0  0  0  0  0
    3.4766    1.3923    0.0000 H   0  0  0  0  0  0  0  0  0  0  0  0
    3.0781    2.0826    0.0000 H   0  0  0  0  0  0  0  0  0  0  0  0
    3.7320   -3.6200    0.0000 H   0  0  0  0  0  0  0  0  0  0  0  0
    2.6200    3.0000    0.0000 H   0  0  0  0  0  0  0  0  0  0  0  0
    2.0000    3.6200    0.0000 H   0  0  0  0  0  0  0  0  0  0  0  0
    1.3800    3.0000    0.0000 H   0  0  0  0  0  0  0  0  0  0  0  0
  1  4  1  0  0  0  0
  1 11  1  0  0  0  0
  2 11  1  0  0  0  0
  2 13  1  0  0  0  0
  3 10  2  0  0  0  0
  4  5  1  0  0  0  0
  4 10  1  0  0  0  0
  4 14  1  0  0  0  0
  5  6  2  0  0  0  0
  5  7  1  0  0  0  0
  6  8  1  0  0  0  0
  6 15  1  0  0  0  0
  7  9  2  0  0  0  0
  7 16  1  0  0  0  0
  8 12  2  0  0  0  0
  8 17  1  0  0  0  0
  9 12  1  0  0  0  0
  9 18  1  0  0  0  0
 10 19  1  0  0  0  0
 11 20  1  0  0  0  0
 11 21  1  0  0  0  0
 12 22  1  0  0  0  0
 13 23  1  0  0  0  0
 13 24  1  0  0  0  0
 13 25  1  0  0  0  0
M  END
>  <PUBCHEM_COMPOUND_CID>
13662207

>  <PUBCHEM_COMPOUND_CANONICALIZED>
1

>  <PUBCHEM_CACTVS_COMPLEXITY>
141

>  <PUBCHEM_CACTVS_HBOND_ACCEPTOR>
3

>  <PUBCHEM_CACTVS_HBOND_DONOR>
0

>  <PUBCHEM_CACTVS_ROTATABLE_BOND>
5

>  <PUBCHEM_CACTVS_SUBSKEYS>
AAADccBwMAAAAAAAAAAAAAAAAAAAAAAAAAAwAAAAAAAAAAABAAAAGgAAAAAADBSgmAMyCIAABACIAihSgAICAAAgAAAIiAFACIgYJjKANRygMAAkwAEMqAeIyKCOAAAAAAAAAAAAAAAAAAAAAAAAAAAAAA==

>  <PUBCHEM_IUPAC_OPENEYE_NAME>
2-(methoxymethoxy)-2-phenyl-acetaldehyde

>  <PUBCHEM_IUPAC_CAS_NAME>
2-(methoxymethoxy)-2-phenylacetaldehyde

>  <PUBCHEM_IUPAC_NAME>
2-(methoxymethoxy)-2-phenylacetaldehyde

>  <PUBCHEM_IUPAC_SYSTEMATIC_NAME>
2-(methoxymethoxy)-2-phenyl-ethanal

>  <PUBCHEM_IUPAC_TRADITIONAL_NAME>
2-(methoxymethoxy)-2-phenyl-acetaldehyde

>  <PUBCHEM_IUPAC_INCHI>
InChI=1S/C10H12O3/c1-12-8-13-10(7-11)9-5-3-2-4-6-9/h2-7,10H,8H2,1H3

>  <PUBCHEM_IUPAC_INCHIKEY>
YHRYIGKHZVPXAD-UHFFFAOYSA-N

>  <PUBCHEM_XLOGP3_AA>
1.3

>  <PUBCHEM_EXACT_MASS>
180.079

>  <PUBCHEM_MOLECULAR_FORMULA>
C10H12O3

>  <PUBCHEM_MOLECULAR_WEIGHT>
180.203

>  <PUBCHEM_OPENEYE_CAN_SMILES>
COCOC(C=O)C1=CC=CC=C1

>  <PUBCHEM_OPENEYE_ISO_SMILES>
COCOC(C=O)C1=CC=CC=C1

>  <PUBCHEM_CACTVS_TPSA>
35.5

>  <PUBCHEM_MONOISOTOPIC_WEIGHT>
180.079

>  <PUBCHEM_TOTAL_CHARGE>
0

>  <PUBCHEM_HEAVY_ATOM_COUNT>
13

>  <PUBCHEM_ATOM_DEF_STEREO_COUNT>
0

>  <PUBCHEM_ATOM_UDEF_STEREO_COUNT>
1

>  <PUBCHEM_BOND_DEF_STEREO_COUNT>
0

>  <PUBCHEM_BOND_UDEF_STEREO_COUNT>
0

>  <PUBCHEM_ISOTOPIC_ATOM_COUNT>
0

>  <PUBCHEM_COMPONENT_COUNT>
1

>  <PUBCHEM_CACTVS_TAUTO_COUNT>
2

>  <PUBCHEM_COORDINATE_TYPE>
1
5
255

>  <PUBCHEM_BONDANNOTATIONS>
4  10  3
5  6  8
5  7  8
6  8  8
7  9  8
8  12  8
9  12  8

$$$$
