13704005
 OpenBabel06101807152D

 24 26  0  0  0  0  0  0  0  0999 V2000
    7.3424    0.0721    0.0000 O   0  0  0  0  0  0  0  0  0  0  0  0
    7.3424   -1.5374    0.0000 O   0  0  0  0  0  0  0  0  0  0  0  0
    3.7702    0.3020    0.0000 O   0  0  0  0  0  0  0  0  0  0  0  0
    5.5301    1.2673    0.0000 O   0  0  0  0  0  0  0  0  0  0  0  0
    2.0000    0.2915    0.0000 O   0  0  0  0  0  0  0  0  0  0  0  0
    6.3961   -0.2327    0.0000 C   0  0  0  0  0  0  0  0  0  0  0  0
    6.3961   -1.2327    0.0000 C   0  0  0  0  0  0  0  0  0  0  0  0
    4.6641   -1.2327    0.0000 C   0  0  0  0  0  0  0  0  0  0  0  0
    4.6641   -0.2327    0.0000 C   0  0  0  0  0  0  0  0  0  0  0  0
    5.5301    0.2673    0.0000 C   0  0  0  0  0  0  0  0  0  0  0  0
    5.5301   -1.7327    0.0000 C   0  0  0  0  0  0  0  0  0  0  0  0
    7.9260   -0.7327    0.0000 C   0  0  0  0  0  0  0  0  0  0  0  0
    3.7702   -1.7673    0.0000 C   0  0  0  0  0  0  0  0  0  0  0  0
    2.8641   -1.2535    0.0000 C   0  0  0  0  0  0  0  0  0  0  0  0
    2.8641   -0.2119    0.0000 C   0  0  0  0  0  0  0  0  0  0  0  0
    6.3961    1.7673    0.0000 C   0  0  0  0  0  0  0  0  0  0  0  0
    5.5301   -2.3527    0.0000 H   0  0  0  0  0  0  0  0  0  0  0  0
    8.3869   -1.1474    0.0000 H   0  0  0  0  0  0  0  0  0  0  0  0
    8.3869   -0.3179    0.0000 H   0  0  0  0  0  0  0  0  0  0  0  0
    3.7773   -2.3873    0.0000 H   0  0  0  0  0  0  0  0  0  0  0  0
    2.3284   -1.5656    0.0000 H   0  0  0  0  0  0  0  0  0  0  0  0
    6.7062    1.2304    0.0000 H   0  0  0  0  0  0  0  0  0  0  0  0
    6.9331    2.0773    0.0000 H   0  0  0  0  0  0  0  0  0  0  0  0
    6.0862    2.3043    0.0000 H   0  0  0  0  0  0  0  0  0  0  0  0
  1  6  1  0  0  0  0
  1 12  1  0  0  0  0
  2  7  1  0  0  0  0
  2 12  1  0  0  0  0
  3  9  1  0  0  0  0
  3 15  1  0  0  0  0
  4 10  1  0  0  0  0
  4 16  1  0  0  0  0
  5 15  2  0  0  0  0
  6  7  2  0  0  0  0
  6 10  1  0  0  0  0
  7 11  1  0  0  0  0
  8  9  1  0  0  0  0
  8 11  2  0  0  0  0
  8 13  1  0  0  0  0
  9 10  2  0  0  0  0
 11 17  1  0  0  0  0
 12 18  1  0  0  0  0
 12 19  1  0  0  0  0
 13 14  2  0  0  0  0
 13 20  1  0  0  0  0
 14 15  1  0  0  0  0
 14 21  1  0  0  0  0
 16 22  1  0  0  0  0
 16 23  1  0  0  0  0
 16 24  1  0  0  0  0
M  END
>  <PUBCHEM_COMPOUND_CID>
13704005

>  <PUBCHEM_COMPOUND_CANONICALIZED>
1

>  <PUBCHEM_CACTVS_COMPLEXITY>
326

>  <PUBCHEM_CACTVS_HBOND_ACCEPTOR>
5

>  <PUBCHEM_CACTVS_HBOND_DONOR>
0

>  <PUBCHEM_CACTVS_ROTATABLE_BOND>
1

>  <PUBCHEM_CACTVS_SUBSKEYS>
AAADccBwOAAAAAAAAAAAAAAAAAAAASAAAAAwQAAAAAAAAEiBAAAAGgAAAAAADASAmAMyDoAABACIAiDSCAACCAAgIAAIiAAGiMgdJyKEMRqiOiKlwBUOqYfA4DwOIQABCAAIQABCAAIQABCAAAAAAAAAAA==

>  <PUBCHEM_IUPAC_OPENEYE_NAME>
4-methoxy-[1,3]dioxolo[4,5-g]chromen-6-one

>  <PUBCHEM_IUPAC_CAS_NAME>
4-methoxy-[1,3]dioxolo[4,5-g][1]benzopyran-6-one

>  <PUBCHEM_IUPAC_NAME>
4-methoxy-[1,3]dioxolo[4,5-g]chromen-6-one

>  <PUBCHEM_IUPAC_SYSTEMATIC_NAME>
4-methoxy-[1,3]dioxolo[4,5-g]chromen-6-one

>  <PUBCHEM_IUPAC_TRADITIONAL_NAME>
4-methoxy-[1,3]dioxolo[4,5-g]chromen-6-one

>  <PUBCHEM_IUPAC_INCHI>
InChI=1S/C11H8O5/c1-13-11-9-6(2-3-8(12)16-9)4-7-10(11)15-5-14-7/h2-4H,5H2,1H3

>  <PUBCHEM_IUPAC_INCHIKEY>
GDJFGAQXNUYMPM-UHFFFAOYSA-N

>  <PUBCHEM_XLOGP3_AA>
1.7

>  <PUBCHEM_EXACT_MASS>
220.037

>  <PUBCHEM_MOLECULAR_FORMULA>
C11H8O5

>  <PUBCHEM_MOLECULAR_WEIGHT>
220.18

>  <PUBCHEM_OPENEYE_CAN_SMILES>
COC1=C2C(=CC3=C1OCO3)C=CC(=O)O2

>  <PUBCHEM_OPENEYE_ISO_SMILES>
COC1=C2C(=CC3=C1OCO3)C=CC(=O)O2

>  <PUBCHEM_CACTVS_TPSA>
54

>  <PUBCHEM_MONOISOTOPIC_WEIGHT>
220.037

>  <PUBCHEM_TOTAL_CHARGE>
0

>  <PUBCHEM_HEAVY_ATOM_COUNT>
16

>  <PUBCHEM_ATOM_DEF_STEREO_COUNT>
0

>  <PUBCHEM_ATOM_UDEF_STEREO_COUNT>
0

>  <PUBCHEM_BOND_DEF_STEREO_COUNT>
0

>  <PUBCHEM_BOND_UDEF_STEREO_COUNT>
0

>  <PUBCHEM_ISOTOPIC_ATOM_COUNT>
0

>  <PUBCHEM_COMPONENT_COUNT>
1

>  <PUBCHEM_CACTVS_TAUTO_COUNT>
1

>  <PUBCHEM_COORDINATE_TYPE>
1
5
255

>  <PUBCHEM_BONDANNOTATIONS>
13  14  8
14  15  8
3  15  8
3  9  8
6  10  8
6  7  8
7  11  8
8  11  8
8  13  8
8  9  8
9  10  8

$$$$
