13725892
 OpenBabel06101807152D

 15 13  0  0  1  0  0  0  0  0999 V2000
    5.5006   -0.7886    0.0000 Ca  0  2  0  0  0 15  0  0  0  0  0  0
    3.1204    1.3942    0.0000 O   0  0  0  0  0  0  0  0  0  0  0  0
    2.3100   -0.2886    0.0000 O   0  0  0  0  0  0  0  0  0  0  0  0
    4.7188   -1.4121    0.0000 O   0  5  0  0  0  0  0  0  0  0  0  0
    5.5006    0.2114    0.0000 O   0  5  0  0  0  0  0  0  0  0  0  0
    3.1204   -1.9714    0.0000 O   0  0  0  0  0  0  0  0  0  0  0  0
    4.9413    1.8098    0.0000 O   0  0  0  0  0  0  0  0  0  0  0  0
    3.7439    0.6124    0.0000 C   0  0  3  0  0  0  0  0  0  0  0  0
    3.3100   -0.2886    0.0000 C   0  0  3  0  0  0  0  0  0  0  0  0
    3.7439   -1.1895    0.0000 C   0  0  0  0  0  0  0  0  0  0  0  0
    4.7188    0.8349    0.0000 C   0  0  0  0  0  0  0  0  0  0  0  0
    3.9487    1.1976    0.0000 H   0  0  0  0  0  0  0  0  0  0  0  0
    2.9801   -0.8135    0.0000 H   0  0  0  0  0  0  0  0  0  0  0  0
    3.3469    1.9714    0.0000 H   0  0  0  0  0  0  0  0  0  0  0  0
    2.0000   -0.8255    0.0000 H   0  0  0  0  0  0  0  0  0  0  0  0
  2  8  1  0  0  0  0
  2 14  1  0  0  0  0
  3  9  1  0  0  0  0
  3 15  1  0  0  0  0
  4 10  1  0  0  0  0
  5 11  1  0  0  0  0
  6 10  2  0  0  0  0
  7 11  2  0  0  0  0
  8  9  1  0  0  0  0
  8 11  1  0  0  0  0
  8 12  1  0  0  0  0
  9 10  1  0  0  0  0
  9 13  1  0  0  0  0
M  CHG  3   1   2   4  -1   5  -1
M  END
>  <PUBCHEM_COMPOUND_CID>
13725892

>  <PUBCHEM_COMPOUND_CANONICALIZED>
1

>  <PUBCHEM_CACTVS_COMPLEXITY>
123

>  <PUBCHEM_CACTVS_HBOND_ACCEPTOR>
6

>  <PUBCHEM_CACTVS_HBOND_DONOR>
2

>  <PUBCHEM_CACTVS_ROTATABLE_BOND>
1

>  <PUBCHEM_CACTVS_SUBSKEYS>
AAADcYBgOAAAAAgAAAAAAAAAAAAAAAAAAAAAAAAAAAAAAAAAAAAAGgAACAAACBSggAIACAAAAgAIAACQCAIAAAAAAAAAAAFAAAABEBQAAAAAQAAFIAABAABDAAAAAAAAAAAAAAAAAAAAAAAAAAAAAAAAAA==

>  <PUBCHEM_IUPAC_OPENEYE_NAME>
calcium;2,3-dihydroxybutanedioate

>  <PUBCHEM_IUPAC_CAS_NAME>
calcium;2,3-dihydroxybutanedioate

>  <PUBCHEM_IUPAC_NAME>
calcium;2,3-dihydroxybutanedioate

>  <PUBCHEM_IUPAC_SYSTEMATIC_NAME>
calcium;2,3-bis(oxidanyl)butanedioate

>  <PUBCHEM_IUPAC_TRADITIONAL_NAME>
calcium;tartrate

>  <PUBCHEM_IUPAC_INCHI>
InChI=1S/C4H6O6.Ca/c5-1(3(7)8)2(6)4(9)10;/h1-2,5-6H,(H,7,8)(H,9,10);/q;+2/p-2

>  <PUBCHEM_IUPAC_INCHIKEY>
GUPPESBEIQALOS-UHFFFAOYSA-L

>  <PUBCHEM_EXACT_MASS>
187.963

>  <PUBCHEM_MOLECULAR_FORMULA>
C4H4CaO6

>  <PUBCHEM_MOLECULAR_WEIGHT>
188.148

>  <PUBCHEM_OPENEYE_CAN_SMILES>
C(C(C(=O)[O-])O)(C(=O)[O-])O.[Ca+2]

>  <PUBCHEM_OPENEYE_ISO_SMILES>
C(C(C(=O)[O-])O)(C(=O)[O-])O.[Ca+2]

>  <PUBCHEM_CACTVS_TPSA>
121

>  <PUBCHEM_MONOISOTOPIC_WEIGHT>
187.963

>  <PUBCHEM_TOTAL_CHARGE>
0

>  <PUBCHEM_HEAVY_ATOM_COUNT>
11

>  <PUBCHEM_ATOM_DEF_STEREO_COUNT>
0

>  <PUBCHEM_ATOM_UDEF_STEREO_COUNT>
2

>  <PUBCHEM_BOND_DEF_STEREO_COUNT>
0

>  <PUBCHEM_BOND_UDEF_STEREO_COUNT>
0

>  <PUBCHEM_ISOTOPIC_ATOM_COUNT>
0

>  <PUBCHEM_COMPONENT_COUNT>
2

>  <PUBCHEM_CACTVS_TAUTO_COUNT>
1

>  <PUBCHEM_COORDINATE_TYPE>
1
5
255

>  <PUBCHEM_BONDANNOTATIONS>
8  2  3
9  3  3

$$$$
