137399
 OpenBabel06101807152D

 43 46  0  0  0  0  0  0  0  0999 V2000
    8.1149   -2.0299    0.0000 O   0  0  0  0  0  0  0  0  0  0  0  0
    9.8950    0.9177    0.0000 O   0  0  0  0  0  0  0  0  0  0  0  0
    9.8438   -1.0627    0.0000 O   0  0  0  0  0  0  0  0  0  0  0  0
    6.3981   -2.0330    0.0000 O   0  0  0  0  0  0  0  0  0  0  0  0
    2.8680   -1.0571    0.0000 O   0  0  0  0  0  0  0  0  0  0  0  0
    6.3820    2.0085    0.0000 N   0  0  0  0  0  0  0  0  0  0  0  0
    7.2641    0.4670    0.0000 C   0  0  0  0  0  0  0  0  0  0  0  0
    7.2641   -0.5330    0.0000 C   0  0  0  0  0  0  0  0  0  0  0  0
    6.3981    0.9670    0.0000 C   0  0  0  0  0  0  0  0  0  0  0  0
    8.1741    0.9739    0.0000 C   0  0  0  0  0  0  0  0  0  0  0  0
    5.5320    0.4670    0.0000 C   0  0  0  0  0  0  0  0  0  0  0  0
    5.5320   -0.5330    0.0000 C   0  0  0  0  0  0  0  0  0  0  0  0
    6.3981   -1.0330    0.0000 C   0  0  0  0  0  0  0  0  0  0  0  0
    8.1223   -1.0299    0.0000 C   0  0  0  0  0  0  0  0  0  0  0  0
    9.0134    0.4456    0.0000 C   0  0  0  0  0  0  0  0  0  0  0  0
    8.9878   -0.5457    0.0000 C   0  0  0  0  0  0  0  0  0  0  0  0
    8.1821    2.0155    0.0000 C   0  0  0  0  0  0  0  0  0  0  0  0
    4.6381    1.0017    0.0000 C   0  0  0  0  0  0  0  0  0  0  0  0
    4.6381   -1.0676    0.0000 C   0  0  0  0  0  0  0  0  0  0  0  0
    7.2800    2.5363    0.0000 C   0  0  0  0  0  0  0  0  0  0  0  0
    3.7320   -0.5538    0.0000 C   0  0  0  0  0  0  0  0  0  0  0  0
    3.7320    0.4878    0.0000 C   0  0  0  0  0  0  0  0  0  0  0  0
    8.9772   -2.5363    0.0000 C   0  0  0  0  0  0  0  0  0  0  0  0
   10.7446    0.3902    0.0000 C   0  0  0  0  0  0  0  0  0  0  0  0
   10.7195   -0.5798    0.0000 C   0  0  0  0  0  0  0  0  0  0  0  0
    2.0000   -0.5605    0.0000 C   0  0  0  0  0  0  0  0  0  0  0  0
    8.7203    2.3234    0.0000 H   0  0  0  0  0  0  0  0  0  0  0  0
    4.6453    1.6216    0.0000 H   0  0  0  0  0  0  0  0  0  0  0  0
    4.6453   -1.6876    0.0000 H   0  0  0  0  0  0  0  0  0  0  0  0
    7.2777    3.1563    0.0000 H   0  0  0  0  0  0  0  0  0  0  0  0
    3.1963    0.7999    0.0000 H   0  0  0  0  0  0  0  0  0  0  0  0
    8.6632   -3.0709    0.0000 H   0  0  0  0  0  0  0  0  0  0  0  0
    9.5118   -2.8502    0.0000 H   0  0  0  0  0  0  0  0  0  0  0  0
    9.2912   -2.0016    0.0000 H   0  0  0  0  0  0  0  0  0  0  0  0
   10.4176   -0.1365    0.0000 H   0  0  0  0  0  0  0  0  0  0  0  0
   11.2713    0.0632    0.0000 H   0  0  0  0  0  0  0  0  0  0  0  0
   11.0716    0.9170    0.0000 H   0  0  0  0  0  0  0  0  0  0  0  0
   11.0189   -1.1228    0.0000 H   0  0  0  0  0  0  0  0  0  0  0  0
   11.2624   -0.2805    0.0000 H   0  0  0  0  0  0  0  0  0  0  0  0
   10.4201   -0.0369    0.0000 H   0  0  0  0  0  0  0  0  0  0  0  0
    2.3079   -0.0223    0.0000 H   0  0  0  0  0  0  0  0  0  0  0  0
    1.4619   -0.2525    0.0000 H   0  0  0  0  0  0  0  0  0  0  0  0
    1.6921   -1.0986    0.0000 H   0  0  0  0  0  0  0  0  0  0  0  0
  1 14  1  0  0  0  0
  1 23  1  0  0  0  0
  2 15  1  0  0  0  0
  2 24  1  0  0  0  0
  3 16  1  0  0  0  0
  3 25  1  0  0  0  0
  4 13  2  0  0  0  0
  5 21  1  0  0  0  0
  5 26  1  0  0  0  0
  6  9  2  0  0  0  0
  6 20  1  0  0  0  0
  7  8  1  0  0  0  0
  7  9  1  0  0  0  0
  7 10  2  0  0  0  0
  8 13  1  0  0  0  0
  8 14  2  0  0  0  0
  9 11  1  0  0  0  0
 10 15  1  0  0  0  0
 10 17  1  0  0  0  0
 11 12  2  0  0  0  0
 11 18  1  0  0  0  0
 12 13  1  0  0  0  0
 12 19  1  0  0  0  0
 14 16  1  0  0  0  0
 15 16  2  0  0  0  0
 17 20  2  0  0  0  0
 17 27  1  0  0  0  0
 18 22  2  0  0  0  0
 18 28  1  0  0  0  0
 19 21  2  0  0  0  0
 19 29  1  0  0  0  0
 20 30  1  0  0  0  0
 21 22  1  0  0  0  0
 22 31  1  0  0  0  0
 23 32  1  0  0  0  0
 23 33  1  0  0  0  0
 23 34  1  0  0  0  0
 24 35  1  0  0  0  0
 24 36  1  0  0  0  0
 24 37  1  0  0  0  0
 25 38  1  0  0  0  0
 25 39  1  0  0  0  0
 25 40  1  0  0  0  0
 26 41  1  0  0  0  0
 26 42  1  0  0  0  0
 26 43  1  0  0  0  0
M  END
>  <PUBCHEM_COMPOUND_CID>
137399

>  <PUBCHEM_COMPOUND_CANONICALIZED>
1

>  <PUBCHEM_CACTVS_COMPLEXITY>
528

>  <PUBCHEM_CACTVS_HBOND_ACCEPTOR>
6

>  <PUBCHEM_CACTVS_HBOND_DONOR>
0

>  <PUBCHEM_CACTVS_ROTATABLE_BOND>
4

>  <PUBCHEM_CACTVS_SUBSKEYS>
AAADceB6OAAAAAAAAAAAAAAAAAAAAAAAAAA8YMEAAAAAAADx9AAAHgAAAAAADAzBngY+htIIFACoA7R3RACCiCA1IiAI2CE+7NgNJ/bEtZuEMWpl4BXK6Ye+/P/OoAADCAAYQADAAAaQADSAAAAAAAAAAA==

>  <PUBCHEM_IUPAC_INCHI>
InChI=1S/C20H17NO5/c1-23-10-5-6-11-13(9-10)17(22)15-14-12(7-8-21-16(11)14)18(24-2)20(26-4)19(15)25-3/h5-9H,1-4H3

>  <PUBCHEM_IUPAC_INCHIKEY>
OOWSNEKQIRVGCG-UHFFFAOYSA-N

>  <PUBCHEM_XLOGP3_AA>
3.2

>  <PUBCHEM_EXACT_MASS>
351.111

>  <PUBCHEM_MOLECULAR_FORMULA>
C20H17NO5

>  <PUBCHEM_MOLECULAR_WEIGHT>
351.358

>  <PUBCHEM_OPENEYE_CAN_SMILES>
COC1=CC2=C(C=C1)C3=NC=CC4=C3C(=C(C(=C4OC)OC)OC)C2=O

>  <PUBCHEM_OPENEYE_ISO_SMILES>
COC1=CC2=C(C=C1)C3=NC=CC4=C3C(=C(C(=C4OC)OC)OC)C2=O

>  <PUBCHEM_CACTVS_TPSA>
66.9

>  <PUBCHEM_MONOISOTOPIC_WEIGHT>
351.111

>  <PUBCHEM_TOTAL_CHARGE>
0

>  <PUBCHEM_HEAVY_ATOM_COUNT>
26

>  <PUBCHEM_ATOM_DEF_STEREO_COUNT>
0

>  <PUBCHEM_ATOM_UDEF_STEREO_COUNT>
0

>  <PUBCHEM_BOND_DEF_STEREO_COUNT>
0

>  <PUBCHEM_BOND_UDEF_STEREO_COUNT>
0

>  <PUBCHEM_ISOTOPIC_ATOM_COUNT>
0

>  <PUBCHEM_COMPONENT_COUNT>
1

>  <PUBCHEM_CACTVS_TAUTO_COUNT>
1

>  <PUBCHEM_COORDINATE_TYPE>
1
5
255

>  <PUBCHEM_BONDANNOTATIONS>
10  15  8
10  17  8
11  12  8
11  18  8
12  19  8
14  16  8
15  16  8
17  20  8
18  22  8
19  21  8
21  22  8
6  20  8
6  9  8
7  10  8
7  8  8
7  9  8
8  14  8

$$$$
