13733133
 OpenBabel06101807152D

 47 47  0  0  0  0  0  0  0  0999 V2000
    4.5981    0.4050    0.0000 O   0  0  0  0  0  0  0  0  0  0  0  0
    2.8660   -4.5950    0.0000 O   0  0  0  0  0  0  0  0  0  0  0  0
    4.5981   -5.5950    0.0000 O   0  0  0  0  0  0  0  0  0  0  0  0
    7.1962    2.9050    0.0000 C   0  0  0  0  0  0  0  0  0  0  0  0
    8.0622    3.4050    0.0000 C   0  0  0  0  0  0  0  0  0  0  0  0
    7.1962    1.9050    0.0000 C   0  0  0  0  0  0  0  0  0  0  0  0
    8.0622    4.4050    0.0000 C   0  0  0  0  0  0  0  0  0  0  0  0
    6.3301    1.4050    0.0000 C   0  0  0  0  0  0  0  0  0  0  0  0
    8.9282    4.9050    0.0000 C   0  0  0  0  0  0  0  0  0  0  0  0
    6.3301    0.4050    0.0000 C   0  0  0  0  0  0  0  0  0  0  0  0
    8.9282    5.9050    0.0000 C   0  0  0  0  0  0  0  0  0  0  0  0
    5.4641   -0.0950    0.0000 C   0  0  0  0  0  0  0  0  0  0  0  0
    5.4641   -1.0950    0.0000 C   0  0  0  0  0  0  0  0  0  0  0  0
    4.5981   -1.5950    0.0000 C   0  0  0  0  0  0  0  0  0  0  0  0
    4.5981   -2.5950    0.0000 C   0  0  0  0  0  0  0  0  0  0  0  0
    3.7320   -3.0950    0.0000 C   0  0  0  0  0  0  0  0  0  0  0  0
    5.4641   -3.0950    0.0000 C   0  0  0  0  0  0  0  0  0  0  0  0
    3.7320   -4.0950    0.0000 C   0  0  0  0  0  0  0  0  0  0  0  0
    5.4641   -4.0950    0.0000 C   0  0  0  0  0  0  0  0  0  0  0  0
    4.5981   -4.5950    0.0000 C   0  0  0  0  0  0  0  0  0  0  0  0
    2.0000   -4.0950    0.0000 C   0  0  0  0  0  0  0  0  0  0  0  0
    6.9841    3.4876    0.0000 H   0  0  0  0  0  0  0  0  0  0  0  0
    6.5856    2.7973    0.0000 H   0  0  0  0  0  0  0  0  0  0  0  0
    8.2742    2.8224    0.0000 H   0  0  0  0  0  0  0  0  0  0  0  0
    8.6728    3.5127    0.0000 H   0  0  0  0  0  0  0  0  0  0  0  0
    7.4082    1.3224    0.0000 H   0  0  0  0  0  0  0  0  0  0  0  0
    7.8067    2.0127    0.0000 H   0  0  0  0  0  0  0  0  0  0  0  0
    7.8501    4.9876    0.0000 H   0  0  0  0  0  0  0  0  0  0  0  0
    7.4516    4.2973    0.0000 H   0  0  0  0  0  0  0  0  0  0  0  0
    6.1181    1.9876    0.0000 H   0  0  0  0  0  0  0  0  0  0  0  0
    5.7196    1.2973    0.0000 H   0  0  0  0  0  0  0  0  0  0  0  0
    9.1403    4.3224    0.0000 H   0  0  0  0  0  0  0  0  0  0  0  0
    9.5388    5.0127    0.0000 H   0  0  0  0  0  0  0  0  0  0  0  0
    6.5422   -0.1776    0.0000 H   0  0  0  0  0  0  0  0  0  0  0  0
    6.9407    0.5127    0.0000 H   0  0  0  0  0  0  0  0  0  0  0  0
    9.5482    5.9050    0.0000 H   0  0  0  0  0  0  0  0  0  0  0  0
    8.9282    6.5250    0.0000 H   0  0  0  0  0  0  0  0  0  0  0  0
    8.3082    5.9050    0.0000 H   0  0  0  0  0  0  0  0  0  0  0  0
    6.0010   -1.4050    0.0000 H   0  0  0  0  0  0  0  0  0  0  0  0
    4.0611   -1.2850    0.0000 H   0  0  0  0  0  0  0  0  0  0  0  0
    3.1951   -2.7850    0.0000 H   0  0  0  0  0  0  0  0  0  0  0  0
    6.0010   -2.7850    0.0000 H   0  0  0  0  0  0  0  0  0  0  0  0
    6.0010   -4.4050    0.0000 H   0  0  0  0  0  0  0  0  0  0  0  0
    5.1350   -5.9050    0.0000 H   0  0  0  0  0  0  0  0  0  0  0  0
    2.3100   -3.5581    0.0000 H   0  0  0  0  0  0  0  0  0  0  0  0
    1.4631   -3.7850    0.0000 H   0  0  0  0  0  0  0  0  0  0  0  0
    1.6900   -4.6319    0.0000 H   0  0  0  0  0  0  0  0  0  0  0  0
  1 12  2  0  0  0  0
  2 18  1  0  0  0  0
  2 21  1  0  0  0  0
  3 20  1  0  0  0  0
  3 44  1  0  0  0  0
  4  5  1  0  0  0  0
  4  6  1  0  0  0  0
  4 22  1  0  0  0  0
  4 23  1  0  0  0  0
  5  7  1  0  0  0  0
  5 24  1  0  0  0  0
  5 25  1  0  0  0  0
  6  8  1  0  0  0  0
  6 26  1  0  0  0  0
  6 27  1  0  0  0  0
  7  9  1  0  0  0  0
  7 28  1  0  0  0  0
  7 29  1  0  0  0  0
  8 10  1  0  0  0  0
  8 30  1  0  0  0  0
  8 31  1  0  0  0  0
  9 11  1  0  0  0  0
  9 32  1  0  0  0  0
  9 33  1  0  0  0  0
 10 12  1  0  0  0  0
 10 34  1  0  0  0  0
 10 35  1  0  0  0  0
 11 36  1  0  0  0  0
 11 37  1  0  0  0  0
 11 38  1  0  0  0  0
 12 13  1  0  0  0  0
 13 14  2  0  0  0  0
 13 39  1  0  0  0  0
 14 15  1  0  0  0  0
 14 40  1  0  0  0  0
 15 16  2  0  0  0  0
 15 17  1  0  0  0  0
 16 18  1  0  0  0  0
 16 41  1  0  0  0  0
 17 19  2  0  0  0  0
 17 42  1  0  0  0  0
 18 20  2  0  0  0  0
 19 20  1  0  0  0  0
 19 43  1  0  0  0  0
 21 45  1  0  0  0  0
 21 46  1  0  0  0  0
 21 47  1  0  0  0  0
M  END
>  <PUBCHEM_COMPOUND_CID>
13733133

>  <PUBCHEM_COMPOUND_CANONICALIZED>
1

>  <PUBCHEM_CACTVS_COMPLEXITY>
312

>  <PUBCHEM_CACTVS_HBOND_ACCEPTOR>
3

>  <PUBCHEM_CACTVS_HBOND_DONOR>
1

>  <PUBCHEM_CACTVS_ROTATABLE_BOND>
10

>  <PUBCHEM_CACTVS_SUBSKEYS>
AAADceB4MAAAAAAAAAAAAAAAAAAAAAAAAAAwAAAAAAAAAAABAAAAGgAACAAADASAmAIyBoAABgCIAqBSAAACCAAgIAAIiAEGiMgNJjKGMRqAcCMkwBELuYeIyJCOIAABAAAAQABAAAIAAACAAAAAAAAAAA==

>  <PUBCHEM_IUPAC_OPENEYE_NAME>
(E)-1-(4-hydroxy-3-methoxy-phenyl)undec-1-en-3-one

>  <PUBCHEM_IUPAC_CAS_NAME>
(E)-1-(4-hydroxy-3-methoxyphenyl)-1-undecen-3-one

>  <PUBCHEM_IUPAC_NAME>
(E)-1-(4-hydroxy-3-methoxyphenyl)undec-1-en-3-one

>  <PUBCHEM_IUPAC_SYSTEMATIC_NAME>
(E)-1-(3-methoxy-4-oxidanyl-phenyl)undec-1-en-3-one

>  <PUBCHEM_IUPAC_TRADITIONAL_NAME>
(E)-1-(4-hydroxy-3-methoxy-phenyl)undec-1-en-3-one

>  <PUBCHEM_IUPAC_INCHI>
InChI=1S/C18H26O3/c1-3-4-5-6-7-8-9-16(19)12-10-15-11-13-17(20)18(14-15)21-2/h10-14,20H,3-9H2,1-2H3/b12-10+

>  <PUBCHEM_IUPAC_INCHIKEY>
XTOVKVSJGYAHKG-ZRDIBKRKSA-N

>  <PUBCHEM_XLOGP3>
5.3

>  <PUBCHEM_EXACT_MASS>
290.188

>  <PUBCHEM_MOLECULAR_FORMULA>
C18H26O3

>  <PUBCHEM_MOLECULAR_WEIGHT>
290.403

>  <PUBCHEM_OPENEYE_CAN_SMILES>
CCCCCCCCC(=O)C=CC1=CC(=C(C=C1)O)OC

>  <PUBCHEM_OPENEYE_ISO_SMILES>
CCCCCCCCC(=O)/C=C/C1=CC(=C(C=C1)O)OC

>  <PUBCHEM_CACTVS_TPSA>
46.5

>  <PUBCHEM_MONOISOTOPIC_WEIGHT>
290.188

>  <PUBCHEM_TOTAL_CHARGE>
0

>  <PUBCHEM_HEAVY_ATOM_COUNT>
21

>  <PUBCHEM_ATOM_DEF_STEREO_COUNT>
0

>  <PUBCHEM_ATOM_UDEF_STEREO_COUNT>
0

>  <PUBCHEM_BOND_DEF_STEREO_COUNT>
1

>  <PUBCHEM_BOND_UDEF_STEREO_COUNT>
0

>  <PUBCHEM_ISOTOPIC_ATOM_COUNT>
0

>  <PUBCHEM_COMPONENT_COUNT>
1

>  <PUBCHEM_CACTVS_TAUTO_COUNT>
11

>  <PUBCHEM_COORDINATE_TYPE>
1
5
255

>  <PUBCHEM_BONDANNOTATIONS>
15  16  8
15  17  8
16  18  8
17  19  8
18  20  8
19  20  8

$$$$
