13733135
 OpenBabel06101807152D

 49 49  0  0  0  0  0  0  0  0999 V2000
    7.7331    1.0000    0.0000 O   0  0  0  0  0  0  0  0  0  0  0  0
    4.2690    5.0000    0.0000 O   0  0  0  0  0  0  0  0  0  0  0  0
    2.5369    4.0000    0.0000 O   0  0  0  0  0  0  0  0  0  0  0  0
    8.5991   -2.5000    0.0000 C   0  0  0  0  0  0  0  0  0  0  0  0
    7.7331   -2.0000    0.0000 C   0  0  0  0  0  0  0  0  0  0  0  0
    8.5991   -3.5000    0.0000 C   0  0  0  0  0  0  0  0  0  0  0  0
    7.7331   -1.0000    0.0000 C   0  0  0  0  0  0  0  0  0  0  0  0
    9.4651   -4.0000    0.0000 C   0  0  0  0  0  0  0  0  0  0  0  0
    6.8671   -0.5000    0.0000 C   0  0  0  0  0  0  0  0  0  0  0  0
    9.4651   -5.0000    0.0000 C   0  0  0  0  0  0  0  0  0  0  0  0
    6.8671    0.5000    0.0000 C   0  0  0  0  0  0  0  0  0  0  0  0
    6.0010    1.0000    0.0000 C   0  0  0  0  0  0  0  0  0  0  0  0
    6.0010    2.0000    0.0000 C   0  0  0  0  0  0  0  0  0  0  0  0
   10.3312   -5.5000    0.0000 C   0  0  0  0  0  0  0  0  0  0  0  0
    5.1350    2.5000    0.0000 C   0  0  0  0  0  0  0  0  0  0  0  0
    5.1350    3.5000    0.0000 C   0  0  0  0  0  0  0  0  0  0  0  0
    4.2690    2.0000    0.0000 C   0  0  0  0  0  0  0  0  0  0  0  0
    4.2690    4.0000    0.0000 C   0  0  0  0  0  0  0  0  0  0  0  0
    3.4030    2.5000    0.0000 C   0  0  0  0  0  0  0  0  0  0  0  0
    3.4030    3.5000    0.0000 C   0  0  0  0  0  0  0  0  0  0  0  0
    5.1350    5.5000    0.0000 C   0  0  0  0  0  0  0  0  0  0  0  0
    9.2097   -2.6077    0.0000 H   0  0  0  0  0  0  0  0  0  0  0  0
    8.8112   -1.9174    0.0000 H   0  0  0  0  0  0  0  0  0  0  0  0
    7.1225   -1.8923    0.0000 H   0  0  0  0  0  0  0  0  0  0  0  0
    7.5210   -2.5826    0.0000 H   0  0  0  0  0  0  0  0  0  0  0  0
    7.9885   -3.3923    0.0000 H   0  0  0  0  0  0  0  0  0  0  0  0
    8.3871   -4.0826    0.0000 H   0  0  0  0  0  0  0  0  0  0  0  0
    8.3437   -1.1077    0.0000 H   0  0  0  0  0  0  0  0  0  0  0  0
    7.9451   -0.4174    0.0000 H   0  0  0  0  0  0  0  0  0  0  0  0
   10.0757   -4.1077    0.0000 H   0  0  0  0  0  0  0  0  0  0  0  0
    9.6772   -3.4174    0.0000 H   0  0  0  0  0  0  0  0  0  0  0  0
    6.2565   -0.3923    0.0000 H   0  0  0  0  0  0  0  0  0  0  0  0
    6.6550   -1.0826    0.0000 H   0  0  0  0  0  0  0  0  0  0  0  0
    8.8546   -4.8923    0.0000 H   0  0  0  0  0  0  0  0  0  0  0  0
    9.2531   -5.5826    0.0000 H   0  0  0  0  0  0  0  0  0  0  0  0
    5.3905    1.1077    0.0000 H   0  0  0  0  0  0  0  0  0  0  0  0
    5.7890    0.4174    0.0000 H   0  0  0  0  0  0  0  0  0  0  0  0
    6.6116    1.8923    0.0000 H   0  0  0  0  0  0  0  0  0  0  0  0
    6.2131    2.5826    0.0000 H   0  0  0  0  0  0  0  0  0  0  0  0
   10.0212   -6.0369    0.0000 H   0  0  0  0  0  0  0  0  0  0  0  0
   10.8681   -5.8100    0.0000 H   0  0  0  0  0  0  0  0  0  0  0  0
   10.6412   -4.9631    0.0000 H   0  0  0  0  0  0  0  0  0  0  0  0
    5.6720    3.8100    0.0000 H   0  0  0  0  0  0  0  0  0  0  0  0
    4.2690    1.3800    0.0000 H   0  0  0  0  0  0  0  0  0  0  0  0
    2.8660    2.1900    0.0000 H   0  0  0  0  0  0  0  0  0  0  0  0
    2.0000    3.6900    0.0000 H   0  0  0  0  0  0  0  0  0  0  0  0
    5.4450    4.9631    0.0000 H   0  0  0  0  0  0  0  0  0  0  0  0
    5.6720    5.8100    0.0000 H   0  0  0  0  0  0  0  0  0  0  0  0
    4.8250    6.0369    0.0000 H   0  0  0  0  0  0  0  0  0  0  0  0
  1 11  2  0  0  0  0
  2 18  1  0  0  0  0
  2 21  1  0  0  0  0
  3 20  1  0  0  0  0
  3 46  1  0  0  0  0
  4  5  1  0  0  0  0
  4  6  1  0  0  0  0
  4 22  1  0  0  0  0
  4 23  1  0  0  0  0
  5  7  1  0  0  0  0
  5 24  1  0  0  0  0
  5 25  1  0  0  0  0
  6  8  1  0  0  0  0
  6 26  1  0  0  0  0
  6 27  1  0  0  0  0
  7  9  1  0  0  0  0
  7 28  1  0  0  0  0
  7 29  1  0  0  0  0
  8 10  1  0  0  0  0
  8 30  1  0  0  0  0
  8 31  1  0  0  0  0
  9 11  1  0  0  0  0
  9 32  1  0  0  0  0
  9 33  1  0  0  0  0
 10 14  1  0  0  0  0
 10 34  1  0  0  0  0
 10 35  1  0  0  0  0
 11 12  1  0  0  0  0
 12 13  1  0  0  0  0
 12 36  1  0  0  0  0
 12 37  1  0  0  0  0
 13 15  1  0  0  0  0
 13 38  1  0  0  0  0
 13 39  1  0  0  0  0
 14 40  1  0  0  0  0
 14 41  1  0  0  0  0
 14 42  1  0  0  0  0
 15 16  2  0  0  0  0
 15 17  1  0  0  0  0
 16 18  1  0  0  0  0
 16 43  1  0  0  0  0
 17 19  2  0  0  0  0
 17 44  1  0  0  0  0
 18 20  2  0  0  0  0
 19 20  1  0  0  0  0
 19 45  1  0  0  0  0
 21 47  1  0  0  0  0
 21 48  1  0  0  0  0
 21 49  1  0  0  0  0
M  END
>  <PUBCHEM_COMPOUND_CID>
13733135

>  <PUBCHEM_COMPOUND_CANONICALIZED>
1

>  <PUBCHEM_CACTVS_COMPLEXITY>
278

>  <PUBCHEM_CACTVS_HBOND_ACCEPTOR>
3

>  <PUBCHEM_CACTVS_HBOND_DONOR>
1

>  <PUBCHEM_CACTVS_ROTATABLE_BOND>
11

>  <PUBCHEM_CACTVS_SUBSKEYS>
AAADceB4MAAAAAAAAAAAAAAAAAAAAAAAAAAwAAAAAAAAAAABAAAAGgAACAAADASAmAIyBoAABgCIAqBSAAACCAAgIAAIiAEGiIgNJjKGMRqAcCMkwBELuAeIyPCOIAABAAAAQABAAAIAAACAAAAAAAAAAA==

>  <PUBCHEM_IUPAC_OPENEYE_NAME>
1-(4-hydroxy-3-methoxy-phenyl)undecan-3-one

>  <PUBCHEM_IUPAC_CAS_NAME>
1-(4-hydroxy-3-methoxyphenyl)-3-undecanone

>  <PUBCHEM_IUPAC_NAME>
1-(4-hydroxy-3-methoxyphenyl)undecan-3-one

>  <PUBCHEM_IUPAC_SYSTEMATIC_NAME>
1-(3-methoxy-4-oxidanyl-phenyl)undecan-3-one

>  <PUBCHEM_IUPAC_TRADITIONAL_NAME>
1-(4-hydroxy-3-methoxy-phenyl)undecan-3-one

>  <PUBCHEM_IUPAC_INCHI>
InChI=1S/C18H28O3/c1-3-4-5-6-7-8-9-16(19)12-10-15-11-13-17(20)18(14-15)21-2/h11,13-14,20H,3-10,12H2,1-2H3

>  <PUBCHEM_IUPAC_INCHIKEY>
CNKCFVAEACZBPL-UHFFFAOYSA-N

>  <PUBCHEM_XLOGP3>
4.3

>  <PUBCHEM_EXACT_MASS>
292.204

>  <PUBCHEM_MOLECULAR_FORMULA>
C18H28O3

>  <PUBCHEM_MOLECULAR_WEIGHT>
292.419

>  <PUBCHEM_OPENEYE_CAN_SMILES>
CCCCCCCCC(=O)CCC1=CC(=C(C=C1)O)OC

>  <PUBCHEM_OPENEYE_ISO_SMILES>
CCCCCCCCC(=O)CCC1=CC(=C(C=C1)O)OC

>  <PUBCHEM_CACTVS_TPSA>
46.5

>  <PUBCHEM_MONOISOTOPIC_WEIGHT>
292.204

>  <PUBCHEM_TOTAL_CHARGE>
0

>  <PUBCHEM_HEAVY_ATOM_COUNT>
21

>  <PUBCHEM_ATOM_DEF_STEREO_COUNT>
0

>  <PUBCHEM_ATOM_UDEF_STEREO_COUNT>
0

>  <PUBCHEM_BOND_DEF_STEREO_COUNT>
0

>  <PUBCHEM_BOND_UDEF_STEREO_COUNT>
0

>  <PUBCHEM_ISOTOPIC_ATOM_COUNT>
0

>  <PUBCHEM_COMPONENT_COUNT>
1

>  <PUBCHEM_CACTVS_TAUTO_COUNT>
9

>  <PUBCHEM_COORDINATE_TYPE>
1
5
255

>  <PUBCHEM_BONDANNOTATIONS>
15  16  8
15  17  8
16  18  8
17  19  8
18  20  8
19  20  8

$$$$
