13803637
 OpenBabel06101807152D

 34 37  0  0  1  0  0  0  0  0999 V2000
    5.9065   -0.5423    0.0000 O   0  0  0  0  0  0  0  0  0  0  0  0
    8.0505    1.5262    0.0000 O   0  0  0  0  0  0  0  0  0  0  0  0
   10.6901   -0.8180    0.0000 O   0  0  0  0  0  0  0  0  0  0  0  0
    2.4170    0.3619    0.0000 O   0  0  0  0  0  0  0  0  0  0  0  0
    6.4033    0.9909    0.0000 C   0  0  3  0  0  0  0  0  0  0  0  0
    6.7123    0.0399    0.0000 C   0  0  3  0  0  0  0  0  0  0  0  0
    5.4092    0.9884    0.0000 C   0  0  0  0  0  0  0  0  0  0  0  0
    7.0724    1.7341    0.0000 C   0  0  0  0  0  0  0  0  0  0  0  0
    7.6904   -0.1680    0.0000 C   0  0  0  0  0  0  0  0  0  0  0  0
    5.1028    0.0427    0.0000 C   0  0  0  0  0  0  0  0  0  0  0  0
    8.3596    0.5751    0.0000 C   0  0  0  0  0  0  0  0  0  0  0  0
    4.7276    1.7679    0.0000 C   0  0  0  0  0  0  0  0  0  0  0  0
    7.9970   -1.1635    0.0000 C   0  0  0  0  0  0  0  0  0  0  0  0
    4.0936   -0.1891    0.0000 C   0  0  0  0  0  0  0  0  0  0  0  0
    9.3816    0.3743    0.0000 C   0  0  0  0  0  0  0  0  0  0  0  0
    3.7133    1.5595    0.0000 C   0  0  0  0  0  0  0  0  0  0  0  0
    3.3942    0.5744    0.0000 C   0  0  0  0  0  0  0  0  0  0  0  0
    9.0142   -1.3879    0.0000 C   0  0  0  0  0  0  0  0  0  0  0  0
    9.7112   -0.6139    0.0000 C   0  0  0  0  0  0  0  0  0  0  0  0
   11.0028   -1.7679    0.0000 C   0  0  0  0  0  0  0  0  0  0  0  0
    6.1504    1.5570    0.0000 H   0  0  0  0  0  0  0  0  0  0  0  0
    6.8404   -0.5667    0.0000 H   0  0  0  0  0  0  0  0  0  0  0  0
    7.3046    2.3089    0.0000 H   0  0  0  0  0  0  0  0  0  0  0  0
    6.5466    2.0626    0.0000 H   0  0  0  0  0  0  0  0  0  0  0  0
    4.9255    2.3554    0.0000 H   0  0  0  0  0  0  0  0  0  0  0  0
    7.5768   -1.6194    0.0000 H   0  0  0  0  0  0  0  0  0  0  0  0
    3.9094   -0.7811    0.0000 H   0  0  0  0  0  0  0  0  0  0  0  0
    9.7912    0.8398    0.0000 H   0  0  0  0  0  0  0  0  0  0  0  0
    3.2998    2.0215    0.0000 H   0  0  0  0  0  0  0  0  0  0  0  0
    9.2035   -1.9783    0.0000 H   0  0  0  0  0  0  0  0  0  0  0  0
    2.0000    0.8207    0.0000 H   0  0  0  0  0  0  0  0  0  0  0  0
   10.4139   -1.9617    0.0000 H   0  0  0  0  0  0  0  0  0  0  0  0
   11.1966   -2.3568    0.0000 H   0  0  0  0  0  0  0  0  0  0  0  0
   11.5917   -1.5740    0.0000 H   0  0  0  0  0  0  0  0  0  0  0  0
  1  6  1  0  0  0  0
  1 10  1  0  0  0  0
  2  8  1  0  0  0  0
  2 11  1  0  0  0  0
  3 19  1  0  0  0  0
  3 20  1  0  0  0  0
  4 17  1  0  0  0  0
  4 31  1  0  0  0  0
  5  6  1  0  0  0  0
  5  7  1  0  0  0  0
  5  8  1  0  0  0  0
  5 21  1  0  0  0  0
  6  9  1  0  0  0  0
  6 22  1  0  0  0  0
  7 10  2  0  0  0  0
  7 12  1  0  0  0  0
  8 23  1  0  0  0  0
  8 24  1  0  0  0  0
  9 11  2  0  0  0  0
  9 13  1  0  0  0  0
 10 14  1  0  0  0  0
 11 15  1  0  0  0  0
 12 16  2  0  0  0  0
 12 25  1  0  0  0  0
 13 18  2  0  0  0  0
 13 26  1  0  0  0  0
 14 17  2  0  0  0  0
 14 27  1  0  0  0  0
 15 19  2  0  0  0  0
 15 28  1  0  0  0  0
 16 17  1  0  0  0  0
 16 29  1  0  0  0  0
 18 19  1  0  0  0  0
 18 30  1  0  0  0  0
 20 32  1  0  0  0  0
 20 33  1  0  0  0  0
 20 34  1  0  0  0  0
M  END
>  <PUBCHEM_COMPOUND_CID>
13803637

>  <PUBCHEM_COMPOUND_CANONICALIZED>
1

>  <PUBCHEM_CACTVS_COMPLEXITY>
360

>  <PUBCHEM_CACTVS_HBOND_ACCEPTOR>
4

>  <PUBCHEM_CACTVS_HBOND_DONOR>
1

>  <PUBCHEM_CACTVS_ROTATABLE_BOND>
1

>  <PUBCHEM_CACTVS_SUBSKEYS>
AAADccB4OAAAAAAAAAAAAAAAAAAAASAAAAA0YIAAAAAAAEiRQAAAGgAACAAADRSgmAIyBoAABgCAAiBCAAACCAAgIAAIiAAGCIgMJyKGMRqCeCClwBUIuAfA4PwOoAAACAAIAABAAAAQABAAAAAAAAAAAA==

>  <PUBCHEM_IUPAC_OPENEYE_NAME>
3-methoxy-6a,11a-dihydro-6H-benzofuro[3,2-c]chromen-9-ol

>  <PUBCHEM_IUPAC_CAS_NAME>
3-methoxy-6a,11a-dihydro-6H-benzofuro[3,2-c][1]benzopyran-9-ol

>  <PUBCHEM_IUPAC_NAME>
3-methoxy-6a,11a-dihydro-6H-[1]benzofuro[3,2-c]chromen-9-ol

>  <PUBCHEM_IUPAC_SYSTEMATIC_NAME>
3-methoxy-6a,11a-dihydro-6H-[1]benzofuro[3,2-c]chromen-9-ol

>  <PUBCHEM_IUPAC_TRADITIONAL_NAME>
3-methoxy-6a,11a-dihydro-6H-benzofuro[3,2-c]chromen-9-ol

>  <PUBCHEM_IUPAC_INCHI>
InChI=1S/C16H14O4/c1-18-10-3-5-12-14(7-10)19-8-13-11-4-2-9(17)6-15(11)20-16(12)13/h2-7,13,16-17H,8H2,1H3

>  <PUBCHEM_IUPAC_INCHIKEY>
YHZDBBUEVZEOIY-UHFFFAOYSA-N

>  <PUBCHEM_XLOGP3_AA>
2.6

>  <PUBCHEM_EXACT_MASS>
270.089

>  <PUBCHEM_MOLECULAR_FORMULA>
C16H14O4

>  <PUBCHEM_MOLECULAR_WEIGHT>
270.284

>  <PUBCHEM_OPENEYE_CAN_SMILES>
COC1=CC2=C(C=C1)C3C(CO2)C4=C(O3)C=C(C=C4)O

>  <PUBCHEM_OPENEYE_ISO_SMILES>
COC1=CC2=C(C=C1)C3C(CO2)C4=C(O3)C=C(C=C4)O

>  <PUBCHEM_CACTVS_TPSA>
47.9

>  <PUBCHEM_MONOISOTOPIC_WEIGHT>
270.089

>  <PUBCHEM_TOTAL_CHARGE>
0

>  <PUBCHEM_HEAVY_ATOM_COUNT>
20

>  <PUBCHEM_ATOM_DEF_STEREO_COUNT>
0

>  <PUBCHEM_ATOM_UDEF_STEREO_COUNT>
2

>  <PUBCHEM_BOND_DEF_STEREO_COUNT>
0

>  <PUBCHEM_BOND_UDEF_STEREO_COUNT>
0

>  <PUBCHEM_ISOTOPIC_ATOM_COUNT>
0

>  <PUBCHEM_COMPONENT_COUNT>
1

>  <PUBCHEM_CACTVS_TAUTO_COUNT>
3

>  <PUBCHEM_COORDINATE_TYPE>
1
5
255

>  <PUBCHEM_BONDANNOTATIONS>
6  1  3
10  14  8
11  15  8
12  16  8
13  18  8
14  17  8
15  19  8
16  17  8
18  19  8
5  8  3
7  10  8
7  12  8
9  11  8
9  13  8

$$$$
