13824420
 OpenBabel06101807152D

 49 52  0  0  1  0  0  0  0  0999 V2000
    3.2547   -0.0018    0.0000 O   0  0  0  0  0  0  0  0  0  0  0  0
    6.3234   -0.0018    0.0000 O   0  0  0  0  0  0  0  0  0  0  0  0
    4.7936    1.4982    0.0000 O   0  0  0  0  0  0  0  0  0  0  0  0
    4.5628    4.1956    0.0000 O   0  0  0  0  0  0  0  0  0  0  0  0
    5.0254   -4.1962    0.0000 O   0  0  0  0  0  0  0  0  0  0  0  0
    2.6064    4.6114    0.0000 O   0  0  0  0  0  0  0  0  0  0  0  0
    6.9824   -4.6086    0.0000 O   0  0  0  0  0  0  0  0  0  0  0  0
    4.7936    0.4982    0.0000 C   0  0  3  0  0  0  0  0  0  0  0  0
    4.7936   -0.5018    0.0000 C   0  0  3  0  0  0  0  0  0  0  0  0
    3.8425    0.8072    0.0000 C   0  0  3  0  0  0  0  0  0  0  0  0
    5.7398   -0.8065    0.0000 C   0  0  3  0  0  0  0  0  0  0  0  0
    5.7398    0.8029    0.0000 C   0  0  0  0  0  0  0  0  0  0  0  0
    3.8425   -0.8108    0.0000 C   0  0  0  0  0  0  0  0  0  0  0  0
    3.5335    1.7583    0.0000 C   0  0  0  0  0  0  0  0  0  0  0  0
    6.0505   -1.7570    0.0000 C   0  0  0  0  0  0  0  0  0  0  0  0
    4.2026    2.5014    0.0000 C   0  0  0  0  0  0  0  0  0  0  0  0
    2.5553    1.9662    0.0000 C   0  0  0  0  0  0  0  0  0  0  0  0
    5.3826   -2.5013    0.0000 C   0  0  0  0  0  0  0  0  0  0  0  0
    7.0290   -1.9633    0.0000 C   0  0  0  0  0  0  0  0  0  0  0  0
    3.8936    3.4525    0.0000 C   0  0  0  0  0  0  0  0  0  0  0  0
    5.6933   -3.4519    0.0000 C   0  0  0  0  0  0  0  0  0  0  0  0
    2.2463    2.9172    0.0000 C   0  0  0  0  0  0  0  0  0  0  0  0
    7.3396   -2.9138    0.0000 C   0  0  0  0  0  0  0  0  0  0  0  0
    2.9155    3.6604    0.0000 C   0  0  0  0  0  0  0  0  0  0  0  0
    6.6718   -3.6581    0.0000 C   0  0  0  0  0  0  0  0  0  0  0  0
    4.2537    5.1467    0.0000 C   0  0  0  0  0  0  0  0  0  0  0  0
    5.3361   -5.1467    0.0000 C   0  0  0  0  0  0  0  0  0  0  0  0
    4.7944   -1.1218    0.0000 H   0  0  0  0  0  0  0  0  0  0  0  0
    3.2302    0.9042    0.0000 H   0  0  0  0  0  0  0  0  0  0  0  0
    6.3523   -0.9027    0.0000 H   0  0  0  0  0  0  0  0  0  0  0  0
    6.2772    1.1122    0.0000 H   0  0  0  0  0  0  0  0  0  0  0  0
    5.4888    1.3698    0.0000 H   0  0  0  0  0  0  0  0  0  0  0  0
    3.3056   -1.1208    0.0000 H   0  0  0  0  0  0  0  0  0  0  0  0
    4.0947   -1.3772    0.0000 H   0  0  0  0  0  0  0  0  0  0  0  0
    5.3305    1.8082    0.0000 H   0  0  0  0  0  0  0  0  0  0  0  0
    4.8091    2.3725    0.0000 H   0  0  0  0  0  0  0  0  0  0  0  0
    2.1405    1.5054    0.0000 H   0  0  0  0  0  0  0  0  0  0  0  0
    4.7759   -2.3735    0.0000 H   0  0  0  0  0  0  0  0  0  0  0  0
    7.4430   -1.5018    0.0000 H   0  0  0  0  0  0  0  0  0  0  0  0
    1.6399    3.0462    0.0000 H   0  0  0  0  0  0  0  0  0  0  0  0
    7.9463   -3.0416    0.0000 H   0  0  0  0  0  0  0  0  0  0  0  0
    2.0000    4.7404    0.0000 H   0  0  0  0  0  0  0  0  0  0  0  0
    7.5891   -4.7365    0.0000 H   0  0  0  0  0  0  0  0  0  0  0  0
    4.8434    5.3383    0.0000 H   0  0  0  0  0  0  0  0  0  0  0  0
    4.0621    5.7363    0.0000 H   0  0  0  0  0  0  0  0  0  0  0  0
    3.6641    4.9551    0.0000 H   0  0  0  0  0  0  0  0  0  0  0  0
    4.7468   -5.3393    0.0000 H   0  0  0  0  0  0  0  0  0  0  0  0
    5.5287   -5.7360    0.0000 H   0  0  0  0  0  0  0  0  0  0  0  0
    5.9254   -4.9541    0.0000 H   0  0  0  0  0  0  0  0  0  0  0  0
  1 10  1  0  0  0  0
  1 13  1  0  0  0  0
  2 11  1  0  0  0  0
  2 12  1  0  0  0  0
  3  8  1  0  0  0  0
  3 35  1  0  0  0  0
  4 20  1  0  0  0  0
  4 26  1  0  0  0  0
  5 21  1  0  0  0  0
  5 27  1  0  0  0  0
  6 24  1  0  0  0  0
  6 42  1  0  0  0  0
  7 25  1  0  0  0  0
  7 43  1  0  0  0  0
  8  9  1  0  0  0  0
  8 10  1  0  0  0  0
  8 12  1  0  0  0  0
  9 11  1  0  0  0  0
  9 13  1  0  0  0  0
  9 28  1  0  0  0  0
 10 14  1  0  0  0  0
 10 29  1  0  0  0  0
 11 15  1  0  0  0  0
 11 30  1  0  0  0  0
 12 31  1  0  0  0  0
 12 32  1  0  0  0  0
 13 33  1  0  0  0  0
 13 34  1  0  0  0  0
 14 16  2  0  0  0  0
 14 17  1  0  0  0  0
 15 18  2  0  0  0  0
 15 19  1  0  0  0  0
 16 20  1  0  0  0  0
 16 36  1  0  0  0  0
 17 22  2  0  0  0  0
 17 37  1  0  0  0  0
 18 21  1  0  0  0  0
 18 38  1  0  0  0  0
 19 23  2  0  0  0  0
 19 39  1  0  0  0  0
 20 24  2  0  0  0  0
 21 25  2  0  0  0  0
 22 24  1  0  0  0  0
 22 40  1  0  0  0  0
 23 25  1  0  0  0  0
 23 41  1  0  0  0  0
 26 44  1  0  0  0  0
 26 45  1  0  0  0  0
 26 46  1  0  0  0  0
 27 47  1  0  0  0  0
 27 48  1  0  0  0  0
 27 49  1  0  0  0  0
M  END
>  <PUBCHEM_COMPOUND_CID>
13824420

>  <PUBCHEM_COMPOUND_CANONICALIZED>
1

>  <PUBCHEM_CACTVS_COMPLEXITY>
517

>  <PUBCHEM_CACTVS_HBOND_ACCEPTOR>
7

>  <PUBCHEM_CACTVS_HBOND_DONOR>
3

>  <PUBCHEM_CACTVS_ROTATABLE_BOND>
4

>  <PUBCHEM_CACTVS_SUBSKEYS>
AAADceB4OAAAAAAAAAAAAAAAAAAAASJAAAAwYAAAAAASAAABQAAAGgAACAAADVSgmAIyBoAABgCAAiBCAAACCAAgIAAIiAAGiIgNJiKGMRqCcCMlwBELuAfA4PwOoAABAAAAQABAAAIAAACAAAAAAAAAAA==

>  <PUBCHEM_IUPAC_OPENEYE_NAME>
3,6-bis(4-hydroxy-3-methoxy-phenyl)-3,4,6,6a-tetrahydro-1H-furo[3,4-c]furan-3a-ol

>  <PUBCHEM_IUPAC_CAS_NAME>
3,6-bis(4-hydroxy-3-methoxyphenyl)-3,4,6,6a-tetrahydro-1H-furo[3,4-c]furan-3a-ol

>  <PUBCHEM_IUPAC_NAME>
3,6-bis(4-hydroxy-3-methoxyphenyl)-3,4,6,6a-tetrahydro-1H-furo[3,4-c]furan-3a-ol

>  <PUBCHEM_IUPAC_SYSTEMATIC_NAME>
3,6-bis(3-methoxy-4-oxidanyl-phenyl)-3,4,6,6a-tetrahydro-1H-furo[3,4-c]furan-3a-ol

>  <PUBCHEM_IUPAC_TRADITIONAL_NAME>
3,6-bis(4-hydroxy-3-methoxy-phenyl)-3,4,6,6a-tetrahydro-1H-furo[3,4-c]furan-3a-ol

>  <PUBCHEM_IUPAC_INCHI>
InChI=1S/C20H22O7/c1-24-16-7-11(3-5-14(16)21)18-13-9-26-19(20(13,23)10-27-18)12-4-6-15(22)17(8-12)25-2/h3-8,13,18-19,21-23H,9-10H2,1-2H3

>  <PUBCHEM_IUPAC_INCHIKEY>
CICMVLOHBZPXIT-UHFFFAOYSA-N

>  <PUBCHEM_XLOGP3_AA>
1.2

>  <PUBCHEM_EXACT_MASS>
374.137

>  <PUBCHEM_MOLECULAR_FORMULA>
C20H22O7

>  <PUBCHEM_MOLECULAR_WEIGHT>
374.389

>  <PUBCHEM_OPENEYE_CAN_SMILES>
COC1=C(C=CC(=C1)C2C3COC(C3(CO2)O)C4=CC(=C(C=C4)O)OC)O

>  <PUBCHEM_OPENEYE_ISO_SMILES>
COC1=C(C=CC(=C1)C2C3COC(C3(CO2)O)C4=CC(=C(C=C4)O)OC)O

>  <PUBCHEM_CACTVS_TPSA>
97.6

>  <PUBCHEM_MONOISOTOPIC_WEIGHT>
374.137

>  <PUBCHEM_TOTAL_CHARGE>
0

>  <PUBCHEM_HEAVY_ATOM_COUNT>
27

>  <PUBCHEM_ATOM_DEF_STEREO_COUNT>
0

>  <PUBCHEM_ATOM_UDEF_STEREO_COUNT>
4

>  <PUBCHEM_BOND_DEF_STEREO_COUNT>
0

>  <PUBCHEM_BOND_UDEF_STEREO_COUNT>
0

>  <PUBCHEM_ISOTOPIC_ATOM_COUNT>
0

>  <PUBCHEM_COMPONENT_COUNT>
1

>  <PUBCHEM_CACTVS_TAUTO_COUNT>
8

>  <PUBCHEM_COORDINATE_TYPE>
1
5
255

>  <PUBCHEM_BONDANNOTATIONS>
10  14  3
11  15  3
14  16  8
14  17  8
15  18  8
15  19  8
16  20  8
17  22  8
18  21  8
19  23  8
20  24  8
21  25  8
22  24  8
23  25  8
8  3  3
9  13  3

$$$$
