13845970
 OpenBabel06101807152D

 37 39  0  0  0  0  0  0  0  0999 V2000
    5.5301   -1.5479    0.0000 O   0  0  0  0  0  0  0  0  0  0  0  0
    2.0000   -1.5721    0.0000 O   0  0  0  0  0  0  0  0  0  0  0  0
    3.7817    1.4867    0.0000 O   0  0  0  0  0  0  0  0  0  0  0  0
    5.5301    1.4521    0.0000 O   0  0  0  0  0  0  0  0  0  0  0  0
    9.8602   -0.0479    0.0000 O   0  0  0  0  0  0  0  0  0  0  0  0
    9.8602    1.9521    0.0000 O   0  0  0  0  0  0  0  0  0  0  0  0
    4.6641   -0.0479    0.0000 C   0  0  0  0  0  0  0  0  0  0  0  0
    6.3961   -0.0479    0.0000 C   0  0  0  0  0  0  0  0  0  0  0  0
    4.6641   -1.0479    0.0000 C   0  0  0  0  0  0  0  0  0  0  0  0
    5.5301    0.4521    0.0000 C   0  0  0  0  0  0  0  0  0  0  0  0
    7.2622    0.4521    0.0000 C   0  0  0  0  0  0  0  0  0  0  0  0
    3.7702    0.4867    0.0000 C   0  0  0  0  0  0  0  0  0  0  0  0
    6.3961   -1.0479    0.0000 C   0  0  0  0  0  0  0  0  0  0  0  0
    3.7702   -1.5826    0.0000 C   0  0  0  0  0  0  0  0  0  0  0  0
    8.1282   -0.0479    0.0000 C   0  0  0  0  0  0  0  0  0  0  0  0
    2.8641   -1.0687    0.0000 C   0  0  0  0  0  0  0  0  0  0  0  0
    2.8641   -0.0271    0.0000 C   0  0  0  0  0  0  0  0  0  0  0  0
    7.2622    1.4521    0.0000 C   0  0  0  0  0  0  0  0  0  0  0  0
    8.9942    0.4521    0.0000 C   0  0  0  0  0  0  0  0  0  0  0  0
    8.1282    1.9521    0.0000 C   0  0  0  0  0  0  0  0  0  0  0  0
    8.9942    1.4521    0.0000 C   0  0  0  0  0  0  0  0  0  0  0  0
    2.0038   -2.5721    0.0000 C   0  0  0  0  0  0  0  0  0  0  0  0
    9.8602   -1.0479    0.0000 C   0  0  0  0  0  0  0  0  0  0  0  0
    6.9331   -1.3579    0.0000 H   0  0  0  0  0  0  0  0  0  0  0  0
    3.7773   -2.2026    0.0000 H   0  0  0  0  0  0  0  0  0  0  0  0
    8.1282   -0.6679    0.0000 H   0  0  0  0  0  0  0  0  0  0  0  0
    2.3284    0.2850    0.0000 H   0  0  0  0  0  0  0  0  0  0  0  0
    6.7252    1.7621    0.0000 H   0  0  0  0  0  0  0  0  0  0  0  0
    8.1282    2.5721    0.0000 H   0  0  0  0  0  0  0  0  0  0  0  0
    3.2484    1.8028    0.0000 H   0  0  0  0  0  0  0  0  0  0  0  0
    1.3839   -2.5745    0.0000 H   0  0  0  0  0  0  0  0  0  0  0  0
    2.0062   -3.1921    0.0000 H   0  0  0  0  0  0  0  0  0  0  0  0
    2.6238   -2.5697    0.0000 H   0  0  0  0  0  0  0  0  0  0  0  0
    9.8602    2.5721    0.0000 H   0  0  0  0  0  0  0  0  0  0  0  0
    9.2402   -1.0479    0.0000 H   0  0  0  0  0  0  0  0  0  0  0  0
    9.8602   -1.6679    0.0000 H   0  0  0  0  0  0  0  0  0  0  0  0
   10.4803   -1.0479    0.0000 H   0  0  0  0  0  0  0  0  0  0  0  0
  1  9  1  0  0  0  0
  1 13  1  0  0  0  0
  2 16  1  0  0  0  0
  2 22  1  0  0  0  0
  3 12  1  0  0  0  0
  3 30  1  0  0  0  0
  4 10  2  0  0  0  0
  5 19  1  0  0  0  0
  5 23  1  0  0  0  0
  6 21  1  0  0  0  0
  6 34  1  0  0  0  0
  7  9  1  0  0  0  0
  7 10  1  0  0  0  0
  7 12  2  0  0  0  0
  8 10  1  0  0  0  0
  8 11  1  0  0  0  0
  8 13  2  0  0  0  0
  9 14  2  0  0  0  0
 11 15  2  0  0  0  0
 11 18  1  0  0  0  0
 12 17  1  0  0  0  0
 13 24  1  0  0  0  0
 14 16  1  0  0  0  0
 14 25  1  0  0  0  0
 15 19  1  0  0  0  0
 15 26  1  0  0  0  0
 16 17  2  0  0  0  0
 17 27  1  0  0  0  0
 18 20  2  0  0  0  0
 18 28  1  0  0  0  0
 19 21  2  0  0  0  0
 20 21  1  0  0  0  0
 20 29  1  0  0  0  0
 22 31  1  0  0  0  0
 22 32  1  0  0  0  0
 22 33  1  0  0  0  0
 23 35  1  0  0  0  0
 23 36  1  0  0  0  0
 23 37  1  0  0  0  0
M  END
>  <PUBCHEM_COMPOUND_CID>
13845970

>  <PUBCHEM_COMPOUND_CANONICALIZED>
1

>  <PUBCHEM_CACTVS_COMPLEXITY>
476

>  <PUBCHEM_CACTVS_HBOND_ACCEPTOR>
6

>  <PUBCHEM_CACTVS_HBOND_DONOR>
2

>  <PUBCHEM_CACTVS_ROTATABLE_BOND>
3

>  <PUBCHEM_CACTVS_SUBSKEYS>
AAADccB4OAAAAAAAAAAAAAAAAAAAAAAAAAAwYIAAAAAAAACBQAAAGgAACAAADASgmAIyBoAABgCIAqBSAAACCAAkIAAIiAEGiMgNJzaGNRqAcWMl4BULuYeI7PzOIAABCAAIQABAAAIQABCAAAAAAAAAAA==

>  <PUBCHEM_IUPAC_OPENEYE_NAME>
5-hydroxy-3-(4-hydroxy-3-methoxy-phenyl)-7-methoxy-chromen-4-one

>  <PUBCHEM_IUPAC_CAS_NAME>
5-hydroxy-3-(4-hydroxy-3-methoxyphenyl)-7-methoxy-1-benzopyran-4-one

>  <PUBCHEM_IUPAC_NAME>
5-hydroxy-3-(4-hydroxy-3-methoxyphenyl)-7-methoxychromen-4-one

>  <PUBCHEM_IUPAC_SYSTEMATIC_NAME>
7-methoxy-3-(3-methoxy-4-oxidanyl-phenyl)-5-oxidanyl-chromen-4-one

>  <PUBCHEM_IUPAC_TRADITIONAL_NAME>
5-hydroxy-3-(4-hydroxy-3-methoxy-phenyl)-7-methoxy-chromone

>  <PUBCHEM_IUPAC_INCHI>
InChI=1S/C17H14O6/c1-21-10-6-13(19)16-15(7-10)23-8-11(17(16)20)9-3-4-12(18)14(5-9)22-2/h3-8,18-19H,1-2H3

>  <PUBCHEM_IUPAC_INCHIKEY>
NMQZMHHAWZDJOJ-UHFFFAOYSA-N

>  <PUBCHEM_XLOGP3_AA>
3

>  <PUBCHEM_EXACT_MASS>
314.079

>  <PUBCHEM_MOLECULAR_FORMULA>
C17H14O6

>  <PUBCHEM_MOLECULAR_WEIGHT>
314.293

>  <PUBCHEM_OPENEYE_CAN_SMILES>
COC1=CC(=C2C(=C1)OC=C(C2=O)C3=CC(=C(C=C3)O)OC)O

>  <PUBCHEM_OPENEYE_ISO_SMILES>
COC1=CC(=C2C(=C1)OC=C(C2=O)C3=CC(=C(C=C3)O)OC)O

>  <PUBCHEM_CACTVS_TPSA>
85.2

>  <PUBCHEM_MONOISOTOPIC_WEIGHT>
314.079

>  <PUBCHEM_TOTAL_CHARGE>
0

>  <PUBCHEM_HEAVY_ATOM_COUNT>
23

>  <PUBCHEM_ATOM_DEF_STEREO_COUNT>
0

>  <PUBCHEM_ATOM_UDEF_STEREO_COUNT>
0

>  <PUBCHEM_BOND_DEF_STEREO_COUNT>
0

>  <PUBCHEM_BOND_UDEF_STEREO_COUNT>
0

>  <PUBCHEM_ISOTOPIC_ATOM_COUNT>
0

>  <PUBCHEM_COMPONENT_COUNT>
1

>  <PUBCHEM_CACTVS_TAUTO_COUNT>
15

>  <PUBCHEM_COORDINATE_TYPE>
1
5
255

>  <PUBCHEM_BONDANNOTATIONS>
1  13  8
1  9  8
11  15  8
11  18  8
12  17  8
14  16  8
15  19  8
16  17  8
18  20  8
19  21  8
20  21  8
7  10  8
7  12  8
7  9  8
8  10  8
8  13  8
9  14  8

$$$$
