13857125
 OpenBabel06101807152D

 47 50  0  0  0  0  0  0  0  0999 V2000
    5.5103    1.5072    0.0000 O   0  0  0  0  0  0  0  0  0  0  0  0
    7.2762    2.5450    0.0000 O   0  0  0  0  0  0  0  0  0  0  0  0
    2.8680   -0.0001    0.0000 O   0  0  0  0  0  0  0  0  0  0  0  0
    2.8680   -2.0484    0.0000 O   0  0  0  0  0  0  0  0  0  0  0  0
    8.1223   -2.0212    0.0000 N   0  0  0  0  0  0  0  0  0  0  0  0
    7.2641   -0.5242    0.0000 C   0  0  0  0  0  0  0  0  0  0  0  0
    6.3981   -0.0242    0.0000 C   0  0  0  0  0  0  0  0  0  0  0  0
    7.2641   -1.5242    0.0000 C   0  0  0  0  0  0  0  0  0  0  0  0
    5.5320   -0.5242    0.0000 C   0  0  0  0  0  0  0  0  0  0  0  0
    8.1741   -0.0174    0.0000 C   0  0  0  0  0  0  0  0  0  0  0  0
    5.5320   -1.5242    0.0000 C   0  0  0  0  0  0  0  0  0  0  0  0
    6.3981   -2.0242    0.0000 C   0  0  0  0  0  0  0  0  0  0  0  0
    6.3820    1.0173    0.0000 C   0  0  0  0  0  0  0  0  0  0  0  0
    8.1821    1.0242    0.0000 C   0  0  0  0  0  0  0  0  0  0  0  0
    9.0134   -0.5456    0.0000 C   0  0  0  0  0  0  0  0  0  0  0  0
    7.2800    1.5450    0.0000 C   0  0  0  0  0  0  0  0  0  0  0  0
    4.6381    0.0104    0.0000 C   0  0  0  0  0  0  0  0  0  0  0  0
    8.9878   -1.5370    0.0000 C   0  0  0  0  0  0  0  0  0  0  0  0
    4.6381   -2.0589    0.0000 C   0  0  0  0  0  0  0  0  0  0  0  0
    3.7320   -0.5034    0.0000 C   0  0  0  0  0  0  0  0  0  0  0  0
    3.7320   -1.5450    0.0000 C   0  0  0  0  0  0  0  0  0  0  0  0
    8.1149   -3.0211    0.0000 C   0  0  0  0  0  0  0  0  0  0  0  0
    5.4987    2.5072    0.0000 C   0  0  0  0  0  0  0  0  0  0  0  0
    8.1403    3.0484    0.0000 C   0  0  0  0  0  0  0  0  0  0  0  0
    2.0000   -0.4967    0.0000 C   0  0  0  0  0  0  0  0  0  0  0  0
    2.8718   -3.0484    0.0000 C   0  0  0  0  0  0  0  0  0  0  0  0
    6.3981   -2.6442    0.0000 H   0  0  0  0  0  0  0  0  0  0  0  0
    8.7203    1.3322    0.0000 H   0  0  0  0  0  0  0  0  0  0  0  0
    9.5600   -0.2529    0.0000 H   0  0  0  0  0  0  0  0  0  0  0  0
    4.6453    0.6304    0.0000 H   0  0  0  0  0  0  0  0  0  0  0  0
    9.5185   -1.8575    0.0000 H   0  0  0  0  0  0  0  0  0  0  0  0
    4.6453   -2.6788    0.0000 H   0  0  0  0  0  0  0  0  0  0  0  0
    7.4949   -3.0165    0.0000 H   0  0  0  0  0  0  0  0  0  0  0  0
    8.1103   -3.6411    0.0000 H   0  0  0  0  0  0  0  0  0  0  0  0
    8.7349   -3.0257    0.0000 H   0  0  0  0  0  0  0  0  0  0  0  0
    6.1187    2.5143    0.0000 H   0  0  0  0  0  0  0  0  0  0  0  0
    5.4915    3.1271    0.0000 H   0  0  0  0  0  0  0  0  0  0  0  0
    4.8787    2.5000    0.0000 H   0  0  0  0  0  0  0  0  0  0  0  0
    8.4523    2.5126    0.0000 H   0  0  0  0  0  0  0  0  0  0  0  0
    8.6760    3.3604    0.0000 H   0  0  0  0  0  0  0  0  0  0  0  0
    7.8282    3.5841    0.0000 H   0  0  0  0  0  0  0  0  0  0  0  0
    1.6921    0.0414    0.0000 H   0  0  0  0  0  0  0  0  0  0  0  0
    1.4619   -0.8047    0.0000 H   0  0  0  0  0  0  0  0  0  0  0  0
    2.3079   -1.0349    0.0000 H   0  0  0  0  0  0  0  0  0  0  0  0
    2.2518   -3.0508    0.0000 H   0  0  0  0  0  0  0  0  0  0  0  0
    2.8742   -3.6684    0.0000 H   0  0  0  0  0  0  0  0  0  0  0  0
    3.4918   -3.0460    0.0000 H   0  0  0  0  0  0  0  0  0  0  0  0
  1 13  1  0  0  0  0
  1 23  1  0  0  0  0
  2 16  1  0  0  0  0
  2 24  1  0  0  0  0
  3 20  1  0  0  0  0
  3 25  1  0  0  0  0
  4 21  1  0  0  0  0
  4 26  1  0  0  0  0
  5  8  1  0  0  0  0
  5 18  1  0  0  0  0
  5 22  1  0  0  0  0
  6  7  1  0  0  0  0
  6  8  2  0  0  0  0
  6 10  1  0  0  0  0
  7  9  2  0  0  0  0
  7 13  1  0  0  0  0
  8 12  1  0  0  0  0
  9 11  1  0  0  0  0
  9 17  1  0  0  0  0
 10 14  2  0  0  0  0
 10 15  1  0  0  0  0
 11 12  2  0  0  0  0
 11 19  1  0  0  0  0
 12 27  1  0  0  0  0
 13 16  2  0  0  0  0
 14 16  1  0  0  0  0
 14 28  1  0  0  0  0
 15 18  2  0  0  0  0
 15 29  1  0  0  0  0
 17 20  2  0  0  0  0
 17 30  1  0  0  0  0
 18 31  1  0  0  0  0
 19 21  2  0  0  0  0
 19 32  1  0  0  0  0
 20 21  1  0  0  0  0
 22 33  1  0  0  0  0
 22 34  1  0  0  0  0
 22 35  1  0  0  0  0
 23 36  1  0  0  0  0
 23 37  1  0  0  0  0
 23 38  1  0  0  0  0
 24 39  1  0  0  0  0
 24 40  1  0  0  0  0
 24 41  1  0  0  0  0
 25 42  1  0  0  0  0
 25 43  1  0  0  0  0
 25 44  1  0  0  0  0
 26 45  1  0  0  0  0
 26 46  1  0  0  0  0
 26 47  1  0  0  0  0
M  END
>  <PUBCHEM_COMPOUND_CID>
13857125

>  <PUBCHEM_COMPOUND_CANONICALIZED>
1

>  <PUBCHEM_CACTVS_COMPLEXITY>
526

>  <PUBCHEM_CACTVS_HBOND_ACCEPTOR>
5

>  <PUBCHEM_CACTVS_HBOND_DONOR>
0

>  <PUBCHEM_CACTVS_ROTATABLE_BOND>
4

>  <PUBCHEM_CACTVS_SUBSKEYS>
AAADceB6OAAAAAAAAAAAAAAAAAAAAAAAAAAwYMEAAAAAAADBVAAAHgAAAAAADAzBmAYyxsMABACAAiRGQACCCAAhIgAIiAAO7IgNJiLEsZuEMCpkwBFK6Aew8P8O6AADQAAaQADQAAaAADSAAAAAAAAAAA==

>  <PUBCHEM_IUPAC_INCHI>
InChI=1S/C21H21NO4/c1-22-7-6-12-9-18(25-4)21(26-5)20-14-11-17(24-3)16(23-2)10-13(14)8-15(22)19(12)20/h6-11H,1-5H3

>  <PUBCHEM_IUPAC_INCHIKEY>
XTZOEAMYNLFKGH-UHFFFAOYSA-N

>  <PUBCHEM_XLOGP3_AA>
4.6

>  <PUBCHEM_EXACT_MASS>
351.147

>  <PUBCHEM_MOLECULAR_FORMULA>
C21H21NO4

>  <PUBCHEM_MOLECULAR_WEIGHT>
351.402

>  <PUBCHEM_OPENEYE_CAN_SMILES>
CN1C=CC2=CC(=C(C3=C4C=C(C(=CC4=CC1=C23)OC)OC)OC)OC

>  <PUBCHEM_OPENEYE_ISO_SMILES>
CN1C=CC2=CC(=C(C3=C4C=C(C(=CC4=CC1=C23)OC)OC)OC)OC

>  <PUBCHEM_CACTVS_TPSA>
40.2

>  <PUBCHEM_MONOISOTOPIC_WEIGHT>
351.147

>  <PUBCHEM_TOTAL_CHARGE>
0

>  <PUBCHEM_HEAVY_ATOM_COUNT>
26

>  <PUBCHEM_ATOM_DEF_STEREO_COUNT>
0

>  <PUBCHEM_ATOM_UDEF_STEREO_COUNT>
0

>  <PUBCHEM_BOND_DEF_STEREO_COUNT>
0

>  <PUBCHEM_BOND_UDEF_STEREO_COUNT>
0

>  <PUBCHEM_ISOTOPIC_ATOM_COUNT>
0

>  <PUBCHEM_COMPONENT_COUNT>
1

>  <PUBCHEM_CACTVS_TAUTO_COUNT>
1

>  <PUBCHEM_COORDINATE_TYPE>
1
5
255

>  <PUBCHEM_BONDANNOTATIONS>
10  14  8
11  12  8
11  19  8
13  16  8
14  16  8
17  20  8
19  21  8
20  21  8
6  10  8
6  7  8
6  8  8
7  13  8
7  9  8
8  12  8
9  11  8
9  17  8

$$$$
