13857953
 OpenBabel06101807152D

 66 71  0  0  1  0  0  0  0  0999 V2000
    5.6604   -1.5203    0.0000 O   0  0  0  0  0  0  0  0  0  0  0  0
    8.3550   -2.0619    0.0000 O   0  0  0  0  0  0  0  0  0  0  0  0
    4.8225   -2.0480    0.0000 O   0  0  0  0  0  0  0  0  0  0  0  0
    2.6697    1.8740    0.0000 O   0  0  0  0  0  0  0  0  0  0  0  0
    5.9204    2.3238    0.0000 O   0  0  0  0  0  0  0  0  0  0  0  0
    7.4490   -3.5827    0.0000 O   0  0  0  0  0  0  0  0  0  0  0  0
   10.2758    0.7046    0.0000 O   0  0  0  0  0  0  0  0  0  0  0  0
    2.7595    3.5827    0.0000 O   0  0  0  0  0  0  0  0  0  0  0  0
    6.5709   -1.0135    0.0000 C   0  0  3  0  0  0  0  0  0  0  0  0
    5.7049   -0.5135    0.0000 C   0  0  3  0  0  0  0  0  0  0  0  0
    7.4369   -0.5135    0.0000 C   0  0  3  0  0  0  0  0  0  0  0  0
    5.7049    0.4865    0.0000 C   0  0  3  0  0  0  0  0  0  0  0  0
    6.5548   -2.0550    0.0000 C   0  0  3  0  0  0  0  0  0  0  0  0
    4.8109    1.0212    0.0000 C   0  0  3  0  0  0  0  0  0  0  0  0
    7.4369    0.4865    0.0000 C   0  0  0  0  0  0  0  0  0  0  0  0
    6.5709    0.9865    0.0000 C   0  0  0  0  0  0  0  0  0  0  0  0
    3.9049    0.5074    0.0000 C   0  0  3  0  0  0  0  0  0  0  0  0
    4.8109   -1.0481    0.0000 C   0  0  0  0  0  0  0  0  0  0  0  0
    8.3469   -1.0203    0.0000 C   0  0  3  0  0  0  0  0  0  0  0  0
    6.3550   -1.6392    0.0000 C   0  0  0  0  0  0  0  0  0  0  0  0
    3.9049   -0.5343    0.0000 C   0  0  0  0  0  0  0  0  0  0  0  0
    8.3029   -0.0135    0.0000 C   0  0  0  0  0  0  0  0  0  0  0  0
    4.9642    2.0313    0.0000 C   0  0  3  0  0  0  0  0  0  0  0  0
    7.4529   -2.5827    0.0000 C   0  0  0  0  0  0  0  0  0  0  0  0
    2.9594    0.8943    0.0000 C   0  0  0  0  0  0  0  0  0  0  0  0
    5.6808    1.5145    0.0000 C   0  0  0  0  0  0  0  0  0  0  0  0
    9.2071   -0.5103    0.0000 C   0  0  0  0  0  0  0  0  0  0  0  0
    4.2721    2.7827    0.0000 C   0  0  0  0  0  0  0  0  0  0  0  0
    2.0000    0.6121    0.0000 C   0  0  0  0  0  0  0  0  0  0  0  0
    2.5819   -0.0317    0.0000 C   0  0  0  0  0  0  0  0  0  0  0  0
    3.2528    2.7129    0.0000 C   0  0  0  0  0  0  0  0  0  0  0  0
   10.1253   -0.9065    0.0000 C   0  0  0  0  0  0  0  0  0  0  0  0
    9.3001    0.4853    0.0000 C   0  0  0  0  0  0  0  0  0  0  0  0
   10.7858   -0.1556    0.0000 C   0  0  0  0  0  0  0  0  0  0  0  0
    6.2418    0.1765    0.0000 H   0  0  0  0  0  0  0  0  0  0  0  0
    6.2387   -2.5883    0.0000 H   0  0  0  0  0  0  0  0  0  0  0  0
    8.0475    0.3789    0.0000 H   0  0  0  0  0  0  0  0  0  0  0  0
    7.6490    1.0692    0.0000 H   0  0  0  0  0  0  0  0  0  0  0  0
    6.9694    1.4615    0.0000 H   0  0  0  0  0  0  0  0  0  0  0  0
    6.1724    1.4615    0.0000 H   0  0  0  0  0  0  0  0  0  0  0  0
    3.3901    0.1618    0.0000 H   0  0  0  0  0  0  0  0  0  0  0  0
    8.8868   -1.3251    0.0000 H   0  0  0  0  0  0  0  0  0  0  0  0
    5.8181   -1.9493    0.0000 H   0  0  0  0  0  0  0  0  0  0  0  0
    6.6650   -2.1761    0.0000 H   0  0  0  0  0  0  0  0  0  0  0  0
    6.8919   -1.3292    0.0000 H   0  0  0  0  0  0  0  0  0  0  0  0
    3.2940   -0.4282    0.0000 H   0  0  0  0  0  0  0  0  0  0  0  0
    3.6958   -1.1180    0.0000 H   0  0  0  0  0  0  0  0  0  0  0  0
    8.6130   -0.5504    0.0000 H   0  0  0  0  0  0  0  0  0  0  0  0
    8.8399    0.2965    0.0000 H   0  0  0  0  0  0  0  0  0  0  0  0
    7.9930    0.5235    0.0000 H   0  0  0  0  0  0  0  0  0  0  0  0
    5.1264    2.6297    0.0000 H   0  0  0  0  0  0  0  0  0  0  0  0
    5.9866    0.9752    0.0000 H   0  0  0  0  0  0  0  0  0  0  0  0
    6.2201    1.8204    0.0000 H   0  0  0  0  0  0  0  0  0  0  0  0
    5.3749    2.0538    0.0000 H   0  0  0  0  0  0  0  0  0  0  0  0
    4.8104    3.0903    0.0000 H   0  0  0  0  0  0  0  0  0  0  0  0
    4.0926    3.3762    0.0000 H   0  0  0  0  0  0  0  0  0  0  0  0
    1.8250    1.2069    0.0000 H   0  0  0  0  0  0  0  0  0  0  0  0
    2.0077    0.2023    0.0000 H   0  0  0  0  0  0  0  0  0  0  0  0
    2.3478   -0.6058    0.0000 H   0  0  0  0  0  0  0  0  0  0  0  0
    1.4052    0.4371    0.0000 H   0  0  0  0  0  0  0  0  0  0  0  0
    3.1560   -0.2658    0.0000 H   0  0  0  0  0  0  0  0  0  0  0  0
    2.1750    0.0173    0.0000 H   0  0  0  0  0  0  0  0  0  0  0  0
    6.0598    2.9279    0.0000 H   0  0  0  0  0  0  0  0  0  0  0  0
   10.2612   -1.5114    0.0000 H   0  0  0  0  0  0  0  0  0  0  0  0
    8.8346    0.8948    0.0000 H   0  0  0  0  0  0  0  0  0  0  0  0
   11.4031   -0.2133    0.0000 H   0  0  0  0  0  0  0  0  0  0  0  0
  1  9  1  0  0  0  0
  1 13  1  0  0  0  0
  2 19  1  0  0  0  0
  2 24  1  0  0  0  0
  3 18  2  0  0  0  0
  4 25  1  0  0  0  0
  4 31  1  0  0  0  0
  5 23  1  0  0  0  0
  5 63  1  0  0  0  0
  6 24  2  0  0  0  0
  7 33  1  0  0  0  0
  7 34  1  0  0  0  0
  8 31  2  0  0  0  0
  9 10  1  0  0  0  0
  9 11  1  0  0  0  0
  9 13  1  0  0  0  0
 10 12  1  0  0  0  0
 10 18  1  0  0  0  0
 10 20  1  0  0  0  0
 11 15  1  0  0  0  0
 11 19  1  0  0  0  0
 11 22  1  0  0  0  0
 12 14  1  0  0  0  0
 12 16  1  0  0  0  0
 12 35  1  0  0  0  0
 13 24  1  0  0  0  0
 13 36  1  0  0  0  0
 14 17  1  0  0  0  0
 14 23  1  0  0  0  0
 14 26  1  0  0  0  0
 15 16  1  0  0  0  0
 15 37  1  0  0  0  0
 15 38  1  0  0  0  0
 16 39  1  0  0  0  0
 16 40  1  0  0  0  0
 17 21  1  0  0  0  0
 17 25  1  0  0  0  0
 17 41  1  0  0  0  0
 18 21  1  0  0  0  0
 19 27  1  0  0  0  0
 19 42  1  0  0  0  0
 20 43  1  0  0  0  0
 20 44  1  0  0  0  0
 20 45  1  0  0  0  0
 21 46  1  0  0  0  0
 21 47  1  0  0  0  0
 22 48  1  0  0  0  0
 22 49  1  0  0  0  0
 22 50  1  0  0  0  0
 23 28  1  0  0  0  0
 23 51  1  0  0  0  0
 25 29  1  0  0  0  0
 25 30  1  0  0  0  0
 26 52  1  0  0  0  0
 26 53  1  0  0  0  0
 26 54  1  0  0  0  0
 27 32  1  0  0  0  0
 27 33  2  0  0  0  0
 28 31  1  0  0  0  0
 28 55  1  0  0  0  0
 28 56  1  0  0  0  0
 29 57  1  0  0  0  0
 29 60  1  0  0  0  0
 29 62  1  0  0  0  0
 30 58  1  0  0  0  0
 30 59  1  0  0  0  0
 30 61  1  0  0  0  0
 32 34  2  0  0  0  0
 32 64  1  0  0  0  0
 33 65  1  0  0  0  0
 34 66  1  0  0  0  0
M  END
>  <PUBCHEM_COMPOUND_CID>
13857953

>  <PUBCHEM_COMPOUND_CANONICALIZED>
1

>  <PUBCHEM_CACTVS_COMPLEXITY>
976

>  <PUBCHEM_CACTVS_HBOND_ACCEPTOR>
8

>  <PUBCHEM_CACTVS_HBOND_DONOR>
1

>  <PUBCHEM_CACTVS_ROTATABLE_BOND>
1

>  <PUBCHEM_CACTVS_SUBSKEYS>
AAADcfB4PAAAAAAAAAAAAAAAEgAAASAAAAA0YIAABIkAAADRgAAAGgAACAAAD1SgmAIyDIAABkCIAqjSiAICCAAkIAAIiAFGCMgNNxYENQ6CWSCl4BEKKYPK7vzvgAAAAAAAAACAAAYAADAAAAAAAAAAAA==

>  <PUBCHEM_IUPAC_INCHI>
InChI=1S/C26H32O8/c1-22(2)15-10-17(28)25(5)14(24(15,4)16(27)11-18(29)33-22)6-8-23(3)19(13-7-9-31-12-13)32-21(30)20-26(23,25)34-20/h7,9,12,14-16,19-20,27H,6,8,10-11H2,1-5H3

>  <PUBCHEM_IUPAC_INCHIKEY>
HWAJASVMTDEFJN-UHFFFAOYSA-N

>  <PUBCHEM_XLOGP3_AA>
2

>  <PUBCHEM_EXACT_MASS>
472.21

>  <PUBCHEM_MOLECULAR_FORMULA>
C26H32O8

>  <PUBCHEM_MOLECULAR_WEIGHT>
472.534

>  <PUBCHEM_OPENEYE_CAN_SMILES>
CC1(C2CC(=O)C3(C(C2(C(CC(=O)O1)O)C)CCC4(C35C(O5)C(=O)OC4C6=COC=C6)C)C)C

>  <PUBCHEM_OPENEYE_ISO_SMILES>
CC1(C2CC(=O)C3(C(C2(C(CC(=O)O1)O)C)CCC4(C35C(O5)C(=O)OC4C6=COC=C6)C)C)C

>  <PUBCHEM_CACTVS_TPSA>
116

>  <PUBCHEM_MONOISOTOPIC_WEIGHT>
472.21

>  <PUBCHEM_TOTAL_CHARGE>
0

>  <PUBCHEM_HEAVY_ATOM_COUNT>
34

>  <PUBCHEM_ATOM_DEF_STEREO_COUNT>
0

>  <PUBCHEM_ATOM_UDEF_STEREO_COUNT>
9

>  <PUBCHEM_BOND_DEF_STEREO_COUNT>
0

>  <PUBCHEM_BOND_UDEF_STEREO_COUNT>
0

>  <PUBCHEM_ISOTOPIC_ATOM_COUNT>
0

>  <PUBCHEM_COMPONENT_COUNT>
1

>  <PUBCHEM_CACTVS_TAUTO_COUNT>
8

>  <PUBCHEM_COORDINATE_TYPE>
1
5
255

>  <PUBCHEM_BONDANNOTATIONS>
9  1  3
10  20  3
11  22  3
12  16  3
13  24  3
14  26  3
17  21  3
19  27  3
27  32  8
27  33  8
32  34  8
23  5  3
7  33  8
7  34  8

$$$$
