13856096
 OpenBabel06101807152D

 39 38  0  0  1  0  0  0  0  0999 V2000
    8.0622   -0.1645    0.0000 P   0  0  3  0  0  0  0  0  0  0  0  0
    9.7942   -0.1645    0.0000 P   0  0  0  0  0  0  0  0  0  0  0  0
    7.1962    0.3355    0.0000 O   0  0  0  0  0  0  0  0  0  0  0  0
    8.9282   -0.6645    0.0000 O   0  0  0  0  0  0  0  0  0  0  0  0
    8.5622    0.7015    0.0000 O   0  0  0  0  0  0  0  0  0  0  0  0
    7.5622   -1.0306    0.0000 O   0  0  0  0  0  0  0  0  0  0  0  0
   10.6603    0.3355    0.0000 O   0  0  0  0  0  0  0  0  0  0  0  0
   10.2942   -1.0306    0.0000 O   0  0  0  0  0  0  0  0  0  0  0  0
    9.2942    0.7015    0.0000 O   0  0  0  0  0  0  0  0  0  0  0  0
    6.3301   -0.1645    0.0000 C   0  0  1  0  0  0  0  0  0  0  0  0
    5.4641   -0.6645    0.0000 C   0  0  0  0  0  0  0  0  0  0  0  0
    4.5981   -0.1645    0.0000 C   0  0  0  0  0  0  0  0  0  0  0  0
    6.8301   -1.0306    0.0000 C   0  0  0  0  0  0  0  0  0  0  0  0
    5.8301    0.7015    0.0000 C   0  0  0  0  0  0  0  0  0  0  0  0
    3.7320   -0.6645    0.0000 C   0  0  0  0  0  0  0  0  0  0  0  0
    2.8660   -0.1645    0.0000 C   0  0  0  0  0  0  0  0  0  0  0  0
    6.3301    1.5675    0.0000 C   0  0  0  0  0  0  0  0  0  0  0  0
    2.0000   -0.6645    0.0000 C   0  0  0  0  0  0  0  0  0  0  0  0
    2.8660    0.8355    0.0000 C   0  0  0  0  0  0  0  0  0  0  0  0
    5.0656   -1.1395    0.0000 H   0  0  0  0  0  0  0  0  0  0  0  0
    5.8626   -1.1395    0.0000 H   0  0  0  0  0  0  0  0  0  0  0  0
    4.9966    0.3104    0.0000 H   0  0  0  0  0  0  0  0  0  0  0  0
    4.1996    0.3104    0.0000 H   0  0  0  0  0  0  0  0  0  0  0  0
    6.2932   -1.3406    0.0000 H   0  0  0  0  0  0  0  0  0  0  0  0
    7.1401   -1.5675    0.0000 H   0  0  0  0  0  0  0  0  0  0  0  0
    7.3671   -0.7206    0.0000 H   0  0  0  0  0  0  0  0  0  0  0  0
    5.2101    0.7015    0.0000 H   0  0  0  0  0  0  0  0  0  0  0  0
    3.7320   -1.2845    0.0000 H   0  0  0  0  0  0  0  0  0  0  0  0
    6.9501    1.5675    0.0000 H   0  0  0  0  0  0  0  0  0  0  0  0
    6.0201    2.1044    0.0000 H   0  0  0  0  0  0  0  0  0  0  0  0
    1.6900   -0.1276    0.0000 H   0  0  0  0  0  0  0  0  0  0  0  0
    1.4631   -0.9745    0.0000 H   0  0  0  0  0  0  0  0  0  0  0  0
    2.3100   -1.2015    0.0000 H   0  0  0  0  0  0  0  0  0  0  0  0
    3.4860    0.8355    0.0000 H   0  0  0  0  0  0  0  0  0  0  0  0
    2.8660    1.4555    0.0000 H   0  0  0  0  0  0  0  0  0  0  0  0
    2.2460    0.8355    0.0000 H   0  0  0  0  0  0  0  0  0  0  0  0
    8.2522    1.2384    0.0000 H   0  0  0  0  0  0  0  0  0  0  0  0
   11.1972    0.0255    0.0000 H   0  0  0  0  0  0  0  0  0  0  0  0
    9.9842   -1.5675    0.0000 H   0  0  0  0  0  0  0  0  0  0  0  0
  1  3  1  0  0  0  0
  1  4  1  0  0  0  0
  1  5  1  0  0  0  0
  1  6  2  0  0  0  0
  2  4  1  0  0  0  0
  2  7  1  0  0  0  0
  2  8  1  0  0  0  0
  2  9  2  0  0  0  0
  5 37  1  0  0  0  0
  7 38  1  0  0  0  0
  8 39  1  0  0  0  0
 10  3  1  6  0  0  0
 10 11  1  0  0  0  0
 10 13  1  0  0  0  0
 10 14  1  0  0  0  0
 11 12  1  0  0  0  0
 11 20  1  0  0  0  0
 11 21  1  0  0  0  0
 12 15  1  0  0  0  0
 12 22  1  0  0  0  0
 12 23  1  0  0  0  0
 13 24  1  0  0  0  0
 13 25  1  0  0  0  0
 13 26  1  0  0  0  0
 14 17  2  0  0  0  0
 14 27  1  0  0  0  0
 15 16  2  0  0  0  0
 15 28  1  0  0  0  0
 16 18  1  0  0  0  0
 16 19  1  0  0  0  0
 17 29  1  0  0  0  0
 17 30  1  0  0  0  0
 18 31  1  0  0  0  0
 18 32  1  0  0  0  0
 18 33  1  0  0  0  0
 19 34  1  0  0  0  0
 19 35  1  0  0  0  0
 19 36  1  0  0  0  0
M  END
>  <PUBCHEM_COMPOUND_CID>
13856096

>  <PUBCHEM_COMPOUND_CANONICALIZED>
1

>  <PUBCHEM_CACTVS_COMPLEXITY>
435

>  <PUBCHEM_CACTVS_HBOND_ACCEPTOR>
7

>  <PUBCHEM_CACTVS_HBOND_DONOR>
3

>  <PUBCHEM_CACTVS_ROTATABLE_BOND>
8

>  <PUBCHEM_CACTVS_SUBSKEYS>
AAADceBwOAMAAAAAAAAAAAAAAAAAAAAAAAAAAAAAAAAAAAAAAAAAGgAACCAADESAgAACAAAAARCAQiBCAIAAAAAgAAAICAAAAAgABAIAAQAAAAAEgAAIAAIAAAAMAAAAAAAAAAAAAAAAAAAAAAAAAAAAAA==

>  <PUBCHEM_IUPAC_OPENEYE_NAME>
[(1R)-1,5-dimethyl-1-vinyl-hex-4-enyl] phosphono hydrogen phosphate

>  <PUBCHEM_IUPAC_CAS_NAME>
[(3R)-3,7-dimethylocta-1,6-dien-3-yl] phosphono hydrogen phosphate

>  <PUBCHEM_IUPAC_NAME>
[(3R)-3,7-dimethylocta-1,6-dien-3-yl] phosphono hydrogen phosphate

>  <PUBCHEM_IUPAC_SYSTEMATIC_NAME>
[(3R)-3,7-dimethylocta-1,6-dien-3-yl] phosphono hydrogen phosphate

>  <PUBCHEM_IUPAC_TRADITIONAL_NAME>
[(1R)-1,5-dimethyl-1-vinyl-hex-4-enyl] phosphono hydrogen phosphate

>  <PUBCHEM_IUPAC_INCHI>
InChI=1S/C10H20O7P2/c1-5-10(4,8-6-7-9(2)3)16-19(14,15)17-18(11,12)13/h5,7H,1,6,8H2,2-4H3,(H,14,15)(H2,11,12,13)/t10-/m0/s1

>  <PUBCHEM_IUPAC_INCHIKEY>
UOJPTUWXHXNLDB-JTQLQIEISA-N

>  <PUBCHEM_XLOGP3_AA>
0.5

>  <PUBCHEM_EXACT_MASS>
314.068

>  <PUBCHEM_MOLECULAR_FORMULA>
C10H20O7P2

>  <PUBCHEM_MOLECULAR_WEIGHT>
314.211

>  <PUBCHEM_OPENEYE_CAN_SMILES>
CC(=CCCC(C)(C=C)OP(=O)(O)OP(=O)(O)O)C

>  <PUBCHEM_OPENEYE_ISO_SMILES>
CC(=CCC[C@](C)(C=C)OP(=O)(O)OP(=O)(O)O)C

>  <PUBCHEM_CACTVS_TPSA>
113

>  <PUBCHEM_MONOISOTOPIC_WEIGHT>
314.068

>  <PUBCHEM_TOTAL_CHARGE>
0

>  <PUBCHEM_HEAVY_ATOM_COUNT>
19

>  <PUBCHEM_ATOM_DEF_STEREO_COUNT>
1

>  <PUBCHEM_ATOM_UDEF_STEREO_COUNT>
0

>  <PUBCHEM_BOND_DEF_STEREO_COUNT>
0

>  <PUBCHEM_BOND_UDEF_STEREO_COUNT>
0

>  <PUBCHEM_ISOTOPIC_ATOM_COUNT>
0

>  <PUBCHEM_COMPONENT_COUNT>
1

>  <PUBCHEM_CACTVS_TAUTO_COUNT>
1

>  <PUBCHEM_COORDINATE_TYPE>
1
5
255

>  <PUBCHEM_BONDANNOTATIONS>
10  3  6

$$$$
