13870574
 OpenBabel06101807152D

 57 59  0  0  1  0  0  0  0  0999 V2000
    5.2623    0.0721    0.0000 O   0  0  0  0  0  0  0  0  0  0  0  0
    2.4067    2.4322    0.0000 O   0  0  0  0  0  0  0  0  0  0  0  0
    7.8034   -3.5156    0.0000 O   0  0  0  0  0  0  0  0  0  0  0  0
    5.2092    4.4683    0.0000 O   0  0  0  0  0  0  0  0  0  0  0  0
    4.3393   -3.5156    0.0000 O   0  0  0  0  0  0  0  0  0  0  0  0
    3.2202    4.2593    0.0000 O   0  0  0  0  0  0  0  0  0  0  0  0
    6.0714   -4.5156    0.0000 O   0  0  0  0  0  0  0  0  0  0  0  0
    6.8804    0.0721    0.0000 C   0  0  3  0  0  0  0  0  0  0  0  0
    6.5714    1.0232    0.0000 C   0  0  3  0  0  0  0  0  0  0  0  0
    6.0714   -0.5157    0.0000 C   0  0  3  0  0  0  0  0  0  0  0  0
    5.5714    1.0232    0.0000 C   0  0  3  0  0  0  0  0  0  0  0  0
    7.8314   -0.2369    0.0000 C   0  0  0  0  0  0  0  0  0  0  0  0
    7.1591    1.8322    0.0000 C   0  0  0  0  0  0  0  0  0  0  0  0
    6.0714   -1.5156    0.0000 C   0  0  0  0  0  0  0  0  0  0  0  0
    4.9836    1.8322    0.0000 C   0  0  0  0  0  0  0  0  0  0  0  0
    5.3903    2.7458    0.0000 C   0  0  0  0  0  0  0  0  0  0  0  0
    5.2053   -2.0156    0.0000 C   0  0  0  0  0  0  0  0  0  0  0  0
    3.9890    1.7277    0.0000 C   0  0  0  0  0  0  0  0  0  0  0  0
    6.9374   -2.0156    0.0000 C   0  0  0  0  0  0  0  0  0  0  0  0
    6.9374   -3.0156    0.0000 C   0  0  0  0  0  0  0  0  0  0  0  0
    3.4013    2.5367    0.0000 C   0  0  0  0  0  0  0  0  0  0  0  0
    5.2053   -3.0156    0.0000 C   0  0  0  0  0  0  0  0  0  0  0  0
    4.8025    3.5548    0.0000 C   0  0  0  0  0  0  0  0  0  0  0  0
    6.0714   -3.5156    0.0000 C   0  0  0  0  0  0  0  0  0  0  0  0
    3.8080    3.4502    0.0000 C   0  0  0  0  0  0  0  0  0  0  0  0
    8.6694   -3.0156    0.0000 C   0  0  0  0  0  0  0  0  0  0  0  0
    2.0000    1.5186    0.0000 C   0  0  0  0  0  0  0  0  0  0  0  0
    3.4733   -3.0156    0.0000 C   0  0  0  0  0  0  0  0  0  0  0  0
    6.2038    4.5728    0.0000 C   0  0  0  0  0  0  0  0  0  0  0  0
    6.9774   -0.5402    0.0000 H   0  0  0  0  0  0  0  0  0  0  0  0
    7.1837    0.9262    0.0000 H   0  0  0  0  0  0  0  0  0  0  0  0
    6.6238   -0.7971    0.0000 H   0  0  0  0  0  0  0  0  0  0  0  0
    5.8528    1.5756    0.0000 H   0  0  0  0  0  0  0  0  0  0  0  0
    7.6398   -0.8265    0.0000 H   0  0  0  0  0  0  0  0  0  0  0  0
    8.4211   -0.4285    0.0000 H   0  0  0  0  0  0  0  0  0  0  0  0
    7.6607    1.4678    0.0000 H   0  0  0  0  0  0  0  0  0  0  0  0
    7.5236    2.3338    0.0000 H   0  0  0  0  0  0  0  0  0  0  0  0
    6.6576    2.1966    0.0000 H   0  0  0  0  0  0  0  0  0  0  0  0
    8.0230    0.3528    0.0000 H   0  0  0  0  0  0  0  0  0  0  0  0
    4.6684   -1.7056    0.0000 H   0  0  0  0  0  0  0  0  0  0  0  0
    6.0069    2.8106    0.0000 H   0  0  0  0  0  0  0  0  0  0  0  0
    7.4743   -1.7056    0.0000 H   0  0  0  0  0  0  0  0  0  0  0  0
    3.7369    1.1613    0.0000 H   0  0  0  0  0  0  0  0  0  0  0  0
    3.4724    4.8257    0.0000 H   0  0  0  0  0  0  0  0  0  0  0  0
    6.6083   -4.8257    0.0000 H   0  0  0  0  0  0  0  0  0  0  0  0
    1.4336    1.7708    0.0000 H   0  0  0  0  0  0  0  0  0  0  0  0
    1.7478    0.9522    0.0000 H   0  0  0  0  0  0  0  0  0  0  0  0
    8.9794   -3.5526    0.0000 H   0  0  0  0  0  0  0  0  0  0  0  0
    9.2064   -2.7056    0.0000 H   0  0  0  0  0  0  0  0  0  0  0  0
    8.3594   -2.4787    0.0000 H   0  0  0  0  0  0  0  0  0  0  0  0
    2.5664    1.2664    0.0000 H   0  0  0  0  0  0  0  0  0  0  0  0
    3.7833   -2.4787    0.0000 H   0  0  0  0  0  0  0  0  0  0  0  0
    2.9363   -2.7056    0.0000 H   0  0  0  0  0  0  0  0  0  0  0  0
    3.1633   -3.5526    0.0000 H   0  0  0  0  0  0  0  0  0  0  0  0
    6.2686    3.9562    0.0000 H   0  0  0  0  0  0  0  0  0  0  0  0
    6.8204    4.6376    0.0000 H   0  0  0  0  0  0  0  0  0  0  0  0
    6.1390    5.1894    0.0000 H   0  0  0  0  0  0  0  0  0  0  0  0
  1 10  1  0  0  0  0
  1 11  1  0  0  0  0
  2 21  1  0  0  0  0
  2 27  1  0  0  0  0
  3 20  1  0  0  0  0
  3 26  1  0  0  0  0
  4 23  1  0  0  0  0
  4 29  1  0  0  0  0
  5 22  1  0  0  0  0
  5 28  1  0  0  0  0
  6 25  1  0  0  0  0
  6 44  1  0  0  0  0
  7 24  1  0  0  0  0
  7 45  1  0  0  0  0
  8  9  1  0  0  0  0
  8 10  1  0  0  0  0
  8 12  1  0  0  0  0
  8 30  1  0  0  0  0
  9 11  1  0  0  0  0
  9 13  1  0  0  0  0
  9 31  1  0  0  0  0
 10 14  1  0  0  0  0
 10 32  1  0  0  0  0
 11 15  1  0  0  0  0
 11 33  1  0  0  0  0
 12 34  1  0  0  0  0
 12 35  1  0  0  0  0
 12 39  1  0  0  0  0
 13 36  1  0  0  0  0
 13 37  1  0  0  0  0
 13 38  1  0  0  0  0
 14 17  2  0  0  0  0
 14 19  1  0  0  0  0
 15 16  2  0  0  0  0
 15 18  1  0  0  0  0
 16 23  1  0  0  0  0
 16 41  1  0  0  0  0
 17 22  1  0  0  0  0
 17 40  1  0  0  0  0
 18 21  2  0  0  0  0
 18 43  1  0  0  0  0
 19 20  2  0  0  0  0
 19 42  1  0  0  0  0
 20 24  1  0  0  0  0
 21 25  1  0  0  0  0
 22 24  2  0  0  0  0
 23 25  2  0  0  0  0
 26 48  1  0  0  0  0
 26 49  1  0  0  0  0
 26 50  1  0  0  0  0
 27 46  1  0  0  0  0
 27 47  1  0  0  0  0
 27 51  1  0  0  0  0
 28 52  1  0  0  0  0
 28 53  1  0  0  0  0
 28 54  1  0  0  0  0
 29 55  1  0  0  0  0
 29 56  1  0  0  0  0
 29 57  1  0  0  0  0
M  END
>  <PUBCHEM_COMPOUND_CID>
13870574

>  <PUBCHEM_COMPOUND_CANONICALIZED>
1

>  <PUBCHEM_CACTVS_COMPLEXITY>
445

>  <PUBCHEM_CACTVS_HBOND_ACCEPTOR>
7

>  <PUBCHEM_CACTVS_HBOND_DONOR>
2

>  <PUBCHEM_CACTVS_ROTATABLE_BOND>
6

>  <PUBCHEM_CACTVS_SUBSKEYS>
AAADceB4OAAAAAAAAAAAAAAAAAAAASAAAAAwYAAAAAAAAAABQAAAGgAACAAADRSgmAIyBoAABgCAAiBCAAACCAAgIAAAiAAGiIgNJyKGMRqCcCMlwBULuAfA4PwOoAABCAAAQABAAAIQAACAAAAAAAAAAA==

>  <PUBCHEM_IUPAC_OPENEYE_NAME>
4-[5-(4-hydroxy-3,5-dimethoxy-phenyl)-3,4-dimethyl-tetrahydrofuran-2-yl]-2,6-dimethoxy-phenol

>  <PUBCHEM_IUPAC_CAS_NAME>
4-[5-(4-hydroxy-3,5-dimethoxyphenyl)-3,4-dimethyl-2-oxolanyl]-2,6-dimethoxyphenol

>  <PUBCHEM_IUPAC_NAME>
4-[5-(4-hydroxy-3,5-dimethoxyphenyl)-3,4-dimethyloxolan-2-yl]-2,6-dimethoxyphenol

>  <PUBCHEM_IUPAC_SYSTEMATIC_NAME>
4-[5-(3,5-dimethoxy-4-oxidanyl-phenyl)-3,4-dimethyl-oxolan-2-yl]-2,6-dimethoxy-phenol

>  <PUBCHEM_IUPAC_TRADITIONAL_NAME>
4-[5-(4-hydroxy-3,5-dimethoxy-phenyl)-3,4-dimethyl-tetrahydrofuran-2-yl]-2,6-dimethoxy-phenol

>  <PUBCHEM_IUPAC_INCHI>
InChI=1S/C22H28O7/c1-11-12(2)22(14-9-17(27-5)20(24)18(10-14)28-6)29-21(11)13-7-15(25-3)19(23)16(8-13)26-4/h7-12,21-24H,1-6H3

>  <PUBCHEM_IUPAC_INCHIKEY>
CAUANPLJFMVCHO-UHFFFAOYSA-N

>  <PUBCHEM_XLOGP3_AA>
3.7

>  <PUBCHEM_EXACT_MASS>
404.184

>  <PUBCHEM_MOLECULAR_FORMULA>
C22H28O7

>  <PUBCHEM_MOLECULAR_WEIGHT>
404.459

>  <PUBCHEM_OPENEYE_CAN_SMILES>
CC1C(C(OC1C2=CC(=C(C(=C2)OC)O)OC)C3=CC(=C(C(=C3)OC)O)OC)C

>  <PUBCHEM_OPENEYE_ISO_SMILES>
CC1C(C(OC1C2=CC(=C(C(=C2)OC)O)OC)C3=CC(=C(C(=C3)OC)O)OC)C

>  <PUBCHEM_CACTVS_TPSA>
86.6

>  <PUBCHEM_MONOISOTOPIC_WEIGHT>
404.184

>  <PUBCHEM_TOTAL_CHARGE>
0

>  <PUBCHEM_HEAVY_ATOM_COUNT>
29

>  <PUBCHEM_ATOM_DEF_STEREO_COUNT>
0

>  <PUBCHEM_ATOM_UDEF_STEREO_COUNT>
4

>  <PUBCHEM_BOND_DEF_STEREO_COUNT>
0

>  <PUBCHEM_BOND_UDEF_STEREO_COUNT>
0

>  <PUBCHEM_ISOTOPIC_ATOM_COUNT>
0

>  <PUBCHEM_COMPONENT_COUNT>
1

>  <PUBCHEM_CACTVS_TAUTO_COUNT>
3

>  <PUBCHEM_COORDINATE_TYPE>
1
5
255

>  <PUBCHEM_BONDANNOTATIONS>
10  14  3
11  15  3
14  17  8
14  19  8
15  16  8
15  18  8
16  23  8
17  22  8
18  21  8
19  20  8
20  24  8
21  25  8
22  24  8
23  25  8
8  12  3
9  13  3

$$$$
