13871877
 OpenBabel06101807152D

 55 58  0  0  1  0  0  0  0  0999 V2000
    5.1350   -1.6796    0.0000 O   0  0  0  0  0  0  0  0  0  0  0  0
    6.8671   -1.6796    0.0000 O   0  0  0  0  0  0  0  0  0  0  0  0
    5.1350   -4.6796    0.0000 O   0  0  0  0  0  0  0  0  0  0  0  0
    3.4030   -3.6796    0.0000 O   0  0  0  0  0  0  0  0  0  0  0  0
    6.8671   -3.6796    0.0000 O   0  0  0  0  0  0  0  0  0  0  0  0
    2.5369   -2.1796    0.0000 O   0  0  0  0  0  0  0  0  0  0  0  0
    8.6230    1.3829    0.0000 O   0  0  0  0  0  0  0  0  0  0  0  0
    5.1208    1.3996    0.0000 O   0  0  0  0  0  0  0  0  0  0  0  0
    6.0308    2.8930    0.0000 O   0  0  0  0  0  0  0  0  0  0  0  0
   12.0910    2.3696    0.0000 O   0  0  0  0  0  0  0  0  0  0  0  0
   12.0987    4.3696    0.0000 O   0  0  0  0  0  0  0  0  0  0  0  0
    5.1350   -3.6796    0.0000 C   0  0  3  0  0  0  0  0  0  0  0  0
    4.2690   -3.1796    0.0000 C   0  0  3  0  0  0  0  0  0  0  0  0
    6.0010   -3.1796    0.0000 C   0  0  3  0  0  0  0  0  0  0  0  0
    4.2690   -2.1796    0.0000 C   0  0  3  0  0  0  0  0  0  0  0  0
    6.0010   -2.1796    0.0000 C   0  0  3  0  0  0  0  0  0  0  0  0
    3.4030   -1.6796    0.0000 C   0  0  0  0  0  0  0  0  0  0  0  0
    6.8671   -0.6796    0.0000 C   0  0  0  0  0  0  0  0  0  0  0  0
    7.7671   -0.1553    0.0000 C   0  0  0  0  0  0  0  0  0  0  0  0
    5.9670   -0.1553    0.0000 C   0  0  0  0  0  0  0  0  0  0  0  0
    7.7551    0.8863    0.0000 C   0  0  0  0  0  0  0  0  0  0  0  0
    6.8910    1.3896    0.0000 C   0  0  0  0  0  0  0  0  0  0  0  0
    5.9790    0.8863    0.0000 C   0  0  0  0  0  0  0  0  0  0  0  0
    6.8948    2.3896    0.0000 C   0  0  0  0  0  0  0  0  0  0  0  0
    8.6269    2.3829    0.0000 C   0  0  0  0  0  0  0  0  0  0  0  0
    7.7628    2.8863    0.0000 C   0  0  0  0  0  0  0  0  0  0  0  0
    9.4948    2.8796    0.0000 C   0  0  0  0  0  0  0  0  0  0  0  0
   10.3589    2.3763    0.0000 C   0  0  0  0  0  0  0  0  0  0  0  0
    9.4987    3.8796    0.0000 C   0  0  0  0  0  0  0  0  0  0  0  0
   11.2269    2.8729    0.0000 C   0  0  0  0  0  0  0  0  0  0  0  0
   10.3666    4.3762    0.0000 C   0  0  0  0  0  0  0  0  0  0  0  0
   11.2307    3.8729    0.0000 C   0  0  0  0  0  0  0  0  0  0  0  0
   12.9589    2.8662    0.0000 C   0  0  0  0  0  0  0  0  0  0  0  0
    5.6720   -3.9896    0.0000 H   0  0  0  0  0  0  0  0  0  0  0  0
    4.2690   -3.7996    0.0000 H   0  0  0  0  0  0  0  0  0  0  0  0
    6.5380   -2.8696    0.0000 H   0  0  0  0  0  0  0  0  0  0  0  0
    4.2690   -1.5596    0.0000 H   0  0  0  0  0  0  0  0  0  0  0  0
    6.0010   -1.5596    0.0000 H   0  0  0  0  0  0  0  0  0  0  0  0
    3.8015   -1.2046    0.0000 H   0  0  0  0  0  0  0  0  0  0  0  0
    3.0044   -1.2046    0.0000 H   0  0  0  0  0  0  0  0  0  0  0  0
    4.5981   -4.9896    0.0000 H   0  0  0  0  0  0  0  0  0  0  0  0
    3.4030   -4.2996    0.0000 H   0  0  0  0  0  0  0  0  0  0  0  0
    6.8671   -4.2996    0.0000 H   0  0  0  0  0  0  0  0  0  0  0  0
    2.0000   -1.8696    0.0000 H   0  0  0  0  0  0  0  0  0  0  0  0
    8.3064   -0.4611    0.0000 H   0  0  0  0  0  0  0  0  0  0  0  0
    5.4277   -0.4611    0.0000 H   0  0  0  0  0  0  0  0  0  0  0  0
    7.7652    3.5063    0.0000 H   0  0  0  0  0  0  0  0  0  0  0  0
    4.5792    1.0979    0.0000 H   0  0  0  0  0  0  0  0  0  0  0  0
   10.3565    1.7563    0.0000 H   0  0  0  0  0  0  0  0  0  0  0  0
    8.9630    4.1916    0.0000 H   0  0  0  0  0  0  0  0  0  0  0  0
   10.3690    4.9962    0.0000 H   0  0  0  0  0  0  0  0  0  0  0  0
   12.1011    4.9896    0.0000 H   0  0  0  0  0  0  0  0  0  0  0  0
   13.2668    2.3281    0.0000 H   0  0  0  0  0  0  0  0  0  0  0  0
   13.4970    3.1742    0.0000 H   0  0  0  0  0  0  0  0  0  0  0  0
   12.6510    3.4044    0.0000 H   0  0  0  0  0  0  0  0  0  0  0  0
  1 15  1  0  0  0  0
  1 16  1  0  0  0  0
  2 16  1  0  0  0  0
  2 18  1  0  0  0  0
  3 12  1  0  0  0  0
  3 41  1  0  0  0  0
  4 13  1  0  0  0  0
  4 42  1  0  0  0  0
  5 14  1  0  0  0  0
  5 43  1  0  0  0  0
  6 17  1  0  0  0  0
  6 44  1  0  0  0  0
  7 21  1  0  0  0  0
  7 25  1  0  0  0  0
  8 23  1  0  0  0  0
  8 48  1  0  0  0  0
  9 24  2  0  0  0  0
 10 30  1  0  0  0  0
 10 33  1  0  0  0  0
 11 32  1  0  0  0  0
 11 52  1  0  0  0  0
 12 13  1  0  0  0  0
 12 14  1  0  0  0  0
 12 34  1  0  0  0  0
 13 15  1  0  0  0  0
 13 35  1  0  0  0  0
 14 16  1  0  0  0  0
 14 36  1  0  0  0  0
 15 17  1  0  0  0  0
 15 37  1  0  0  0  0
 16 38  1  0  0  0  0
 17 39  1  0  0  0  0
 17 40  1  0  0  0  0
 18 19  1  0  0  0  0
 18 20  2  0  0  0  0
 19 21  2  0  0  0  0
 19 45  1  0  0  0  0
 20 23  1  0  0  0  0
 20 46  1  0  0  0  0
 21 22  1  0  0  0  0
 22 23  2  0  0  0  0
 22 24  1  0  0  0  0
 24 26  1  0  0  0  0
 25 26  2  0  0  0  0
 25 27  1  0  0  0  0
 26 47  1  0  0  0  0
 27 28  2  0  0  0  0
 27 29  1  0  0  0  0
 28 30  1  0  0  0  0
 28 49  1  0  0  0  0
 29 31  2  0  0  0  0
 29 50  1  0  0  0  0
 30 32  2  0  0  0  0
 31 32  1  0  0  0  0
 31 51  1  0  0  0  0
 33 53  1  0  0  0  0
 33 54  1  0  0  0  0
 33 55  1  0  0  0  0
M  END
>  <PUBCHEM_COMPOUND_CID>
13871877

>  <PUBCHEM_COMPOUND_CANONICALIZED>
1

>  <PUBCHEM_CACTVS_COMPLEXITY>
729

>  <PUBCHEM_CACTVS_HBOND_ACCEPTOR>
11

>  <PUBCHEM_CACTVS_HBOND_DONOR>
6

>  <PUBCHEM_CACTVS_ROTATABLE_BOND>
5

>  <PUBCHEM_CACTVS_SUBSKEYS>
AAADceB4PAAAAAAAAAAAAAAAAAAAAAAAAAA0YIEAAAAAAACBQAAAGgAACAAADBSwmAMyDoAABgCIAqBSAAACCAAkIAAIiAEGiMgdNzaGNRqieWOl4BUPuQfI7LzOIAABCAAIQABAAAIQABCAAAAAAAAAAA==

>  <PUBCHEM_IUPAC_OPENEYE_NAME>
5-hydroxy-2-(4-hydroxy-3-methoxy-phenyl)-7-[3,4,5-trihydroxy-6-(hydroxymethyl)tetrahydropyran-2-yl]oxy-chromen-4-one

>  <PUBCHEM_IUPAC_CAS_NAME>
5-hydroxy-2-(4-hydroxy-3-methoxyphenyl)-7-[[3,4,5-trihydroxy-6-(hydroxymethyl)-2-oxanyl]oxy]-1-benzopyran-4-one

>  <PUBCHEM_IUPAC_NAME>
5-hydroxy-2-(4-hydroxy-3-methoxyphenyl)-7-[3,4,5-trihydroxy-6-(hydroxymethyl)oxan-2-yl]oxychromen-4-one

>  <PUBCHEM_IUPAC_SYSTEMATIC_NAME>
7-[6-(hydroxymethyl)-3,4,5-tris(oxidanyl)oxan-2-yl]oxy-2-(3-methoxy-4-oxidanyl-phenyl)-5-oxidanyl-chromen-4-one

>  <PUBCHEM_IUPAC_TRADITIONAL_NAME>
5-hydroxy-2-(4-hydroxy-3-methoxy-phenyl)-7-(3,4,5-trihydroxy-6-methylol-tetrahydropyran-2-yl)oxy-chromone

>  <PUBCHEM_IUPAC_INCHI>
InChI=1S/C22H22O11/c1-30-15-4-9(2-3-11(15)24)14-7-13(26)18-12(25)5-10(6-16(18)32-14)31-22-21(29)20(28)19(27)17(8-23)33-22/h2-7,17,19-25,27-29H,8H2,1H3

>  <PUBCHEM_IUPAC_INCHIKEY>
GAMYVSCDDLXAQW-UHFFFAOYSA-N

>  <PUBCHEM_XLOGP3_AA>
0.8

>  <PUBCHEM_EXACT_MASS>
462.116

>  <PUBCHEM_MOLECULAR_FORMULA>
C22H22O11

>  <PUBCHEM_MOLECULAR_WEIGHT>
462.407

>  <PUBCHEM_OPENEYE_CAN_SMILES>
COC1=C(C=CC(=C1)C2=CC(=O)C3=C(C=C(C=C3O2)OC4C(C(C(C(O4)CO)O)O)O)O)O

>  <PUBCHEM_OPENEYE_ISO_SMILES>
COC1=C(C=CC(=C1)C2=CC(=O)C3=C(C=C(C=C3O2)OC4C(C(C(C(O4)CO)O)O)O)O)O

>  <PUBCHEM_CACTVS_TPSA>
175

>  <PUBCHEM_MONOISOTOPIC_WEIGHT>
462.116

>  <PUBCHEM_TOTAL_CHARGE>
0

>  <PUBCHEM_HEAVY_ATOM_COUNT>
33

>  <PUBCHEM_ATOM_DEF_STEREO_COUNT>
0

>  <PUBCHEM_ATOM_UDEF_STEREO_COUNT>
5

>  <PUBCHEM_BOND_DEF_STEREO_COUNT>
0

>  <PUBCHEM_BOND_UDEF_STEREO_COUNT>
0

>  <PUBCHEM_ISOTOPIC_ATOM_COUNT>
0

>  <PUBCHEM_COMPONENT_COUNT>
1

>  <PUBCHEM_CACTVS_TAUTO_COUNT>
29

>  <PUBCHEM_COORDINATE_TYPE>
1
5
255

>  <PUBCHEM_BONDANNOTATIONS>
15  17  3
18  19  8
18  20  8
19  21  8
16  2  3
20  23  8
21  22  8
22  23  8
22  24  8
24  26  8
25  26  8
27  28  8
27  29  8
28  30  8
29  31  8
12  3  3
30  32  8
31  32  8
13  4  3
14  5  3
7  21  8
7  25  8

$$$$
