13873655
 OpenBabel06101807152D

 56 59  0  0  0  0  0  0  0  0999 V2000
    9.9953   -2.2829    0.0000 O   0  0  0  0  0  0  0  0  0  0  0  0
    6.3981   -2.2052    0.0000 O   0  0  0  0  0  0  0  0  0  0  0  0
    8.1465    0.8294    0.0000 O   0  0  0  0  0  0  0  0  0  0  0  0
    6.3981    0.7948    0.0000 O   0  0  0  0  0  0  0  0  0  0  0  0
    2.8680   -0.1810    0.0000 O   0  0  0  0  0  0  0  0  0  0  0  0
    2.8680   -2.2293    0.0000 O   0  0  0  0  0  0  0  0  0  0  0  0
   10.9391   -1.7477    0.0000 C   0  0  0  0  0  0  0  0  0  0  0  0
   10.9391   -0.6627    0.0000 C   0  0  0  0  0  0  0  0  0  0  0  0
    9.9953   -0.1274    0.0000 C   0  0  0  0  0  0  0  0  0  0  0  0
    9.0641   -0.6844    0.0000 C   0  0  0  0  0  0  0  0  0  0  0  0
    9.0641   -1.7260    0.0000 C   0  0  0  0  0  0  0  0  0  0  0  0
   11.9390   -1.7515    0.0000 C   0  0  0  0  0  0  0  0  0  0  0  0
   11.4357   -2.6156    0.0000 C   0  0  0  0  0  0  0  0  0  0  0  0
    8.1580   -0.1705    0.0000 C   0  0  0  0  0  0  0  0  0  0  0  0
    7.2641   -0.7052    0.0000 C   0  0  0  0  0  0  0  0  0  0  0  0
    8.1580   -2.2398    0.0000 C   0  0  0  0  0  0  0  0  0  0  0  0
    7.2641   -1.7052    0.0000 C   0  0  0  0  0  0  0  0  0  0  0  0
    6.3981   -0.2052    0.0000 C   0  0  0  0  0  0  0  0  0  0  0  0
    5.5320   -0.7052    0.0000 C   0  0  0  0  0  0  0  0  0  0  0  0
    5.5320   -1.7052    0.0000 C   0  0  0  0  0  0  0  0  0  0  0  0
    4.6381   -0.1705    0.0000 C   0  0  0  0  0  0  0  0  0  0  0  0
    4.6497    0.8294    0.0000 C   0  0  0  0  0  0  0  0  0  0  0  0
    3.7320   -0.6844    0.0000 C   0  0  0  0  0  0  0  0  0  0  0  0
    4.6381   -2.2398    0.0000 C   0  0  0  0  0  0  0  0  0  0  0  0
    3.7320   -1.7260    0.0000 C   0  0  0  0  0  0  0  0  0  0  0  0
    3.7895    1.3394    0.0000 C   0  0  0  0  0  0  0  0  0  0  0  0
    3.8010    2.3393    0.0000 C   0  0  0  0  0  0  0  0  0  0  0  0
    2.0000   -0.6777    0.0000 C   0  0  0  0  0  0  0  0  0  0  0  0
    2.9409    2.8493    0.0000 C   0  0  0  0  0  0  0  0  0  0  0  0
    4.6728    2.8293    0.0000 C   0  0  0  0  0  0  0  0  0  0  0  0
   11.5499   -0.7688    0.0000 H   0  0  0  0  0  0  0  0  0  0  0  0
   11.1481   -0.0790    0.0000 H   0  0  0  0  0  0  0  0  0  0  0  0
   10.3889    0.3516    0.0000 H   0  0  0  0  0  0  0  0  0  0  0  0
    9.5907    0.3424    0.0000 H   0  0  0  0  0  0  0  0  0  0  0  0
   10.8976   -2.9235    0.0000 H   0  0  0  0  0  0  0  0  0  0  0  0
   11.7436   -3.1537    0.0000 H   0  0  0  0  0  0  0  0  0  0  0  0
   11.9738   -2.3077    0.0000 H   0  0  0  0  0  0  0  0  0  0  0  0
   11.9367   -2.3715    0.0000 H   0  0  0  0  0  0  0  0  0  0  0  0
   12.5590   -1.7539    0.0000 H   0  0  0  0  0  0  0  0  0  0  0  0
   11.9414   -1.1315    0.0000 H   0  0  0  0  0  0  0  0  0  0  0  0
    8.1509   -2.8598    0.0000 H   0  0  0  0  0  0  0  0  0  0  0  0
    5.2590    0.7147    0.0000 H   0  0  0  0  0  0  0  0  0  0  0  0
    4.8684    1.4095    0.0000 H   0  0  0  0  0  0  0  0  0  0  0  0
    4.6453   -2.8598    0.0000 H   0  0  0  0  0  0  0  0  0  0  0  0
    8.6798    1.1456    0.0000 H   0  0  0  0  0  0  0  0  0  0  0  0
    3.2490    1.0356    0.0000 H   0  0  0  0  0  0  0  0  0  0  0  0
    2.8703   -2.8493    0.0000 H   0  0  0  0  0  0  0  0  0  0  0  0
    1.6921   -0.1396    0.0000 H   0  0  0  0  0  0  0  0  0  0  0  0
    1.4619   -0.9856    0.0000 H   0  0  0  0  0  0  0  0  0  0  0  0
    2.3079   -1.2158    0.0000 H   0  0  0  0  0  0  0  0  0  0  0  0
    3.2570    3.3826    0.0000 H   0  0  0  0  0  0  0  0  0  0  0  0
    2.4075    3.1655    0.0000 H   0  0  0  0  0  0  0  0  0  0  0  0
    2.6247    2.3160    0.0000 H   0  0  0  0  0  0  0  0  0  0  0  0
    4.9766    2.2888    0.0000 H   0  0  0  0  0  0  0  0  0  0  0  0
    5.2133    3.1331    0.0000 H   0  0  0  0  0  0  0  0  0  0  0  0
    4.3690    3.3698    0.0000 H   0  0  0  0  0  0  0  0  0  0  0  0
  1  7  1  0  0  0  0
  1 11  1  0  0  0  0
  2 17  1  0  0  0  0
  2 20  1  0  0  0  0
  3 14  1  0  0  0  0
  3 45  1  0  0  0  0
  4 18  2  0  0  0  0
  5 23  1  0  0  0  0
  5 28  1  0  0  0  0
  6 25  1  0  0  0  0
  6 47  1  0  0  0  0
  7  8  1  0  0  0  0
  7 12  1  0  0  0  0
  7 13  1  0  0  0  0
  8  9  1  0  0  0  0
  8 31  1  0  0  0  0
  8 32  1  0  0  0  0
  9 10  1  0  0  0  0
  9 33  1  0  0  0  0
  9 34  1  0  0  0  0
 10 11  2  0  0  0  0
 10 14  1  0  0  0  0
 11 16  1  0  0  0  0
 12 38  1  0  0  0  0
 12 39  1  0  0  0  0
 12 40  1  0  0  0  0
 13 35  1  0  0  0  0
 13 36  1  0  0  0  0
 13 37  1  0  0  0  0
 14 15  2  0  0  0  0
 15 17  1  0  0  0  0
 15 18  1  0  0  0  0
 16 17  2  0  0  0  0
 16 41  1  0  0  0  0
 18 19  1  0  0  0  0
 19 20  1  0  0  0  0
 19 21  2  0  0  0  0
 20 24  2  0  0  0  0
 21 22  1  0  0  0  0
 21 23  1  0  0  0  0
 22 26  1  0  0  0  0
 22 42  1  0  0  0  0
 22 43  1  0  0  0  0
 23 25  2  0  0  0  0
 24 25  1  0  0  0  0
 24 44  1  0  0  0  0
 26 27  2  0  0  0  0
 26 46  1  0  0  0  0
 27 29  1  0  0  0  0
 27 30  1  0  0  0  0
 28 48  1  0  0  0  0
 28 49  1  0  0  0  0
 28 50  1  0  0  0  0
 29 51  1  0  0  0  0
 29 52  1  0  0  0  0
 29 53  1  0  0  0  0
 30 54  1  0  0  0  0
 30 55  1  0  0  0  0
 30 56  1  0  0  0  0
M  END
>  <PUBCHEM_COMPOUND_CID>
13873655

>  <PUBCHEM_COMPOUND_CANONICALIZED>
1

>  <PUBCHEM_CACTVS_COMPLEXITY>
683

>  <PUBCHEM_CACTVS_HBOND_ACCEPTOR>
6

>  <PUBCHEM_CACTVS_HBOND_DONOR>
2

>  <PUBCHEM_CACTVS_ROTATABLE_BOND>
3

>  <PUBCHEM_CACTVS_SUBSKEYS>
AAADceB4OAAAAAAAAAAAAAAAAAAAAAAAAAA0aIEAAAAAAACRQAAAGgAACAAADESAmAIyBoAABgCIAqBSAAACCAAkIAAAiAEGiMgNJzaGNRqCeWOl4BULuQfK7PzOoQADCAAYQABCAAYQADCAAAAAAAAAAA==

>  <PUBCHEM_IUPAC_OPENEYE_NAME>
5,9-dihydroxy-8-methoxy-2,2-dimethyl-7-(3-methylbut-2-enyl)-3,4-dihydropyrano[3,2-b]xanthen-6-one

>  <PUBCHEM_IUPAC_CAS_NAME>
5,9-dihydroxy-8-methoxy-2,2-dimethyl-7-(3-methylbut-2-enyl)-3,4-dihydropyrano[3,2-b]xanthen-6-one

>  <PUBCHEM_IUPAC_NAME>
5,9-dihydroxy-8-methoxy-2,2-dimethyl-7-(3-methylbut-2-enyl)-3,4-dihydropyrano[3,2-b]xanthen-6-one

>  <PUBCHEM_IUPAC_SYSTEMATIC_NAME>
8-methoxy-2,2-dimethyl-7-(3-methylbut-2-enyl)-5,9-bis(oxidanyl)-3,4-dihydropyrano[3,2-b]xanthen-6-one

>  <PUBCHEM_IUPAC_TRADITIONAL_NAME>
5,9-dihydroxy-8-methoxy-2,2-dimethyl-7-(3-methylbut-2-enyl)-3,4-dihydropyrano[3,2-b]xanthen-6-one

>  <PUBCHEM_IUPAC_INCHI>
InChI=1S/C24H26O6/c1-12(2)6-7-14-19-17(10-15(25)23(14)28-5)29-18-11-16-13(8-9-24(3,4)30-16)21(26)20(18)22(19)27/h6,10-11,25-26H,7-9H2,1-5H3

>  <PUBCHEM_IUPAC_INCHIKEY>
KJCDBAVVDILRMP-UHFFFAOYSA-N

>  <PUBCHEM_XLOGP3_AA>
5.7

>  <PUBCHEM_EXACT_MASS>
410.173

>  <PUBCHEM_MOLECULAR_FORMULA>
C24H26O6

>  <PUBCHEM_MOLECULAR_WEIGHT>
410.466

>  <PUBCHEM_OPENEYE_CAN_SMILES>
CC(=CCC1=C2C(=CC(=C1OC)O)OC3=CC4=C(CCC(O4)(C)C)C(=C3C2=O)O)C

>  <PUBCHEM_OPENEYE_ISO_SMILES>
CC(=CCC1=C2C(=CC(=C1OC)O)OC3=CC4=C(CCC(O4)(C)C)C(=C3C2=O)O)C

>  <PUBCHEM_CACTVS_TPSA>
85.2

>  <PUBCHEM_MONOISOTOPIC_WEIGHT>
410.173

>  <PUBCHEM_TOTAL_CHARGE>
0

>  <PUBCHEM_HEAVY_ATOM_COUNT>
30

>  <PUBCHEM_ATOM_DEF_STEREO_COUNT>
0

>  <PUBCHEM_ATOM_UDEF_STEREO_COUNT>
0

>  <PUBCHEM_BOND_DEF_STEREO_COUNT>
0

>  <PUBCHEM_BOND_UDEF_STEREO_COUNT>
0

>  <PUBCHEM_ISOTOPIC_ATOM_COUNT>
0

>  <PUBCHEM_COMPONENT_COUNT>
1

>  <PUBCHEM_CACTVS_TAUTO_COUNT>
81

>  <PUBCHEM_COORDINATE_TYPE>
1
5
255

>  <PUBCHEM_BONDANNOTATIONS>
10  11  8
10  14  8
11  16  8
14  15  8
15  17  8
15  18  8
16  17  8
18  19  8
19  20  8
19  21  8
2  17  8
2  20  8
20  24  8
21  23  8
23  25  8
24  25  8

$$$$
