13870426
 OpenBabel06101807152D

 80 83  0  0  1  0  0  0  0  0999 V2000
    2.5405   -1.2811    0.0000 O   0  0  0  0  0  0  0  0  0  0  0  0
    2.5244   -3.3727    0.0000 O   0  0  0  0  0  0  0  0  0  0  0  0
   10.8207    0.3968    0.0000 O   0  0  0  0  0  0  0  0  0  0  0  0
    9.7956    2.8359    0.0000 O   0  0  0  0  0  0  0  0  0  0  0  0
    7.9174   -0.3204    0.0000 C   0  0  3  0  0  0  0  0  0  0  0  0
    7.9174   -1.3204    0.0000 C   0  0  3  0  0  0  0  0  0  0  0  0
    7.0514   -1.8204    0.0000 C   0  0  3  0  0  0  0  0  0  0  0  0
    6.1854   -1.3204    0.0000 C   0  0  3  0  0  0  0  0  0  0  0  0
    5.2754   -1.8272    0.0000 C   0  0  3  0  0  0  0  0  0  0  0  0
    8.8637   -0.0156    0.0000 C   0  0  3  0  0  0  0  0  0  0  0  0
    7.0514    0.1796    0.0000 C   0  0  0  0  0  0  0  0  0  0  0  0
    5.2674   -2.8688    0.0000 C   0  0  3  0  0  0  0  0  0  0  0  0
    6.1854   -0.3204    0.0000 C   0  0  0  0  0  0  0  0  0  0  0  0
    8.8637   -1.6251    0.0000 C   0  0  0  0  0  0  0  0  0  0  0  0
    7.0675   -2.8619    0.0000 C   0  0  0  0  0  0  0  0  0  0  0  0
    9.4473   -0.8204    0.0000 C   0  0  0  0  0  0  0  0  0  0  0  0
    6.1694   -3.3896    0.0000 C   0  0  0  0  0  0  0  0  0  0  0  0
    4.3486   -1.2631    0.0000 C   0  0  0  0  0  0  0  0  0  0  0  0
    7.9174    0.6796    0.0000 C   0  0  0  0  0  0  0  0  0  0  0  0
    9.1743    0.9349    0.0000 C   0  0  3  0  0  0  0  0  0  0  0  0
    4.3319   -3.4185    0.0000 C   0  0  0  0  0  0  0  0  0  0  0  0
    5.2831   -0.8272    0.0000 C   0  0  0  0  0  0  0  0  0  0  0  0
    3.4007   -1.7911    0.0000 C   0  0  3  0  0  0  0  0  0  0  0  0
    3.3923   -2.8760    0.0000 C   0  0  3  0  0  0  0  0  0  0  0  0
   10.1528    1.1411    0.0000 C   0  0  3  0  0  0  0  0  0  0  0  0
    8.5065    1.6792    0.0000 C   0  0  0  0  0  0  0  0  0  0  0  0
   10.4635    2.0916    0.0000 C   0  0  3  0  0  0  0  0  0  0  0  0
   11.4420    2.2979    0.0000 C   0  0  0  0  0  0  0  0  0  0  0  0
   11.7527    3.2484    0.0000 C   0  0  0  0  0  0  0  0  0  0  0  0
   12.1098    1.5536    0.0000 C   0  0  0  0  0  0  0  0  0  0  0  0
   12.7312    3.4546    0.0000 C   0  0  0  0  0  0  0  0  0  0  0  0
   11.0848    3.9927    0.0000 C   0  0  0  0  0  0  0  0  0  0  0  0
    7.9830   -1.9369    0.0000 H   0  0  0  0  0  0  0  0  0  0  0  0
    7.5907   -2.1262    0.0000 H   0  0  0  0  0  0  0  0  0  0  0  0
    6.7223   -1.0104    0.0000 H   0  0  0  0  0  0  0  0  0  0  0  0
    9.4762    0.0806    0.0000 H   0  0  0  0  0  0  0  0  0  0  0  0
    7.4500    0.6546    0.0000 H   0  0  0  0  0  0  0  0  0  0  0  0
    6.6529    0.6546    0.0000 H   0  0  0  0  0  0  0  0  0  0  0  0
    5.2698   -3.4888    0.0000 H   0  0  0  0  0  0  0  0  0  0  0  0
    5.9733    0.2623    0.0000 H   0  0  0  0  0  0  0  0  0  0  0  0
    5.5748   -0.4280    0.0000 H   0  0  0  0  0  0  0  0  0  0  0  0
    8.6126   -2.1920    0.0000 H   0  0  0  0  0  0  0  0  0  0  0  0
    9.4010   -1.9343    0.0000 H   0  0  0  0  0  0  0  0  0  0  0  0
    7.2855   -3.4423    0.0000 H   0  0  0  0  0  0  0  0  0  0  0  0
    7.6766   -2.7464    0.0000 H   0  0  0  0  0  0  0  0  0  0  0  0
    9.9081   -1.2351    0.0000 H   0  0  0  0  0  0  0  0  0  0  0  0
    9.9081   -0.4056    0.0000 H   0  0  0  0  0  0  0  0  0  0  0  0
    5.7721   -3.8656    0.0000 H   0  0  0  0  0  0  0  0  0  0  0  0
    6.5704   -3.8625    0.0000 H   0  0  0  0  0  0  0  0  0  0  0  0
    4.7568   -0.7965    0.0000 H   0  0  0  0  0  0  0  0  0  0  0  0
    3.9586   -0.7811    0.0000 H   0  0  0  0  0  0  0  0  0  0  0  0
    8.5374    0.6796    0.0000 H   0  0  0  0  0  0  0  0  0  0  0  0
    7.9174    1.2996    0.0000 H   0  0  0  0  0  0  0  0  0  0  0  0
    7.2974    0.6796    0.0000 H   0  0  0  0  0  0  0  0  0  0  0  0
    8.5676    0.8070    0.0000 H   0  0  0  0  0  0  0  0  0  0  0  0
    3.9346   -3.8945    0.0000 H   0  0  0  0  0  0  0  0  0  0  0  0
    4.7329   -3.8914    0.0000 H   0  0  0  0  0  0  0  0  0  0  0  0
    5.9031   -0.8320    0.0000 H   0  0  0  0  0  0  0  0  0  0  0  0
    5.2879   -0.2072    0.0000 H   0  0  0  0  0  0  0  0  0  0  0  0
    4.6631   -0.8224    0.0000 H   0  0  0  0  0  0  0  0  0  0  0  0
    2.8608   -2.0959    0.0000 H   0  0  0  0  0  0  0  0  0  0  0  0
    2.8572   -2.5629    0.0000 H   0  0  0  0  0  0  0  0  0  0  0  0
    9.9602    0.5518    0.0000 H   0  0  0  0  0  0  0  0  0  0  0  0
    8.9680    2.0933    0.0000 H   0  0  0  0  0  0  0  0  0  0  0  0
    8.0924    2.1407    0.0000 H   0  0  0  0  0  0  0  0  0  0  0  0
    8.0450    1.2651    0.0000 H   0  0  0  0  0  0  0  0  0  0  0  0
   10.6561    2.6810    0.0000 H   0  0  0  0  0  0  0  0  0  0  0  0
    2.0000   -1.5849    0.0000 H   0  0  0  0  0  0  0  0  0  0  0  0
    2.5220   -3.9927    0.0000 H   0  0  0  0  0  0  0  0  0  0  0  0
   11.4273    0.5247    0.0000 H   0  0  0  0  0  0  0  0  0  0  0  0
    9.9883    3.4253    0.0000 H   0  0  0  0  0  0  0  0  0  0  0  0
   11.9453    3.8377    0.0000 H   0  0  0  0  0  0  0  0  0  0  0  0
   11.9172    0.9642    0.0000 H   0  0  0  0  0  0  0  0  0  0  0  0
   12.7165    1.6814    0.0000 H   0  0  0  0  0  0  0  0  0  0  0  0
   11.5463    4.4067    0.0000 H   0  0  0  0  0  0  0  0  0  0  0  0
   12.8590    2.8479    0.0000 H   0  0  0  0  0  0  0  0  0  0  0  0
   13.3378    3.5824    0.0000 H   0  0  0  0  0  0  0  0  0  0  0  0
   12.6033    4.0613    0.0000 H   0  0  0  0  0  0  0  0  0  0  0  0
   10.6708    4.4542    0.0000 H   0  0  0  0  0  0  0  0  0  0  0  0
   10.6234    3.5786    0.0000 H   0  0  0  0  0  0  0  0  0  0  0  0
  1 23  1  0  0  0  0
  1 68  1  0  0  0  0
  2 24  1  0  0  0  0
  2 69  1  0  0  0  0
  3 25  1  0  0  0  0
  3 70  1  0  0  0  0
  4 27  1  0  0  0  0
  4 71  1  0  0  0  0
  5  6  1  0  0  0  0
  5 10  1  0  0  0  0
  5 11  1  0  0  0  0
  5 19  1  0  0  0  0
  6  7  1  0  0  0  0
  6 14  1  0  0  0  0
  6 33  1  0  0  0  0
  7  8  1  0  0  0  0
  7 15  1  0  0  0  0
  7 34  1  0  0  0  0
  8  9  1  0  0  0  0
  8 13  1  0  0  0  0
  8 35  1  0  0  0  0
  9 12  1  0  0  0  0
  9 18  1  0  0  0  0
  9 22  1  0  0  0  0
 10 16  1  0  0  0  0
 10 20  1  0  0  0  0
 10 36  1  0  0  0  0
 11 13  1  0  0  0  0
 11 37  1  0  0  0  0
 11 38  1  0  0  0  0
 12 17  1  0  0  0  0
 12 21  1  0  0  0  0
 12 39  1  0  0  0  0
 13 40  1  0  0  0  0
 13 41  1  0  0  0  0
 14 16  1  0  0  0  0
 14 42  1  0  0  0  0
 14 43  1  0  0  0  0
 15 17  1  0  0  0  0
 15 44  1  0  0  0  0
 15 45  1  0  0  0  0
 16 46  1  0  0  0  0
 16 47  1  0  0  0  0
 17 48  1  0  0  0  0
 17 49  1  0  0  0  0
 18 23  1  0  0  0  0
 18 50  1  0  0  0  0
 18 51  1  0  0  0  0
 19 52  1  0  0  0  0
 19 53  1  0  0  0  0
 19 54  1  0  0  0  0
 20 25  1  0  0  0  0
 20 26  1  0  0  0  0
 20 55  1  0  0  0  0
 21 24  1  0  0  0  0
 21 56  1  0  0  0  0
 21 57  1  0  0  0  0
 22 58  1  0  0  0  0
 22 59  1  0  0  0  0
 22 60  1  0  0  0  0
 23 24  1  0  0  0  0
 23 61  1  0  0  0  0
 24 62  1  0  0  0  0
 25 27  1  0  0  0  0
 25 63  1  0  0  0  0
 26 64  1  0  0  0  0
 26 65  1  0  0  0  0
 26 66  1  0  0  0  0
 27 28  1  0  0  0  0
 27 67  1  0  0  0  0
 28 29  1  0  0  0  0
 28 30  2  0  0  0  0
 29 31  1  0  0  0  0
 29 32  1  0  0  0  0
 29 72  1  0  0  0  0
 30 73  1  0  0  0  0
 30 74  1  0  0  0  0
 31 76  1  0  0  0  0
 31 77  1  0  0  0  0
 31 78  1  0  0  0  0
 32 75  1  0  0  0  0
 32 79  1  0  0  0  0
 32 80  1  0  0  0  0
M  END
>  <PUBCHEM_COMPOUND_CID>
13870426

>  <PUBCHEM_COMPOUND_CANONICALIZED>
1

>  <PUBCHEM_CACTVS_COMPLEXITY>
706

>  <PUBCHEM_CACTVS_HBOND_ACCEPTOR>
4

>  <PUBCHEM_CACTVS_HBOND_DONOR>
4

>  <PUBCHEM_CACTVS_ROTATABLE_BOND>
5

>  <PUBCHEM_CACTVS_SUBSKEYS>
AAADcfB4OAAAAAAAAAAAAAAAAAAAAYAAAAAwYMAAAAAAAGDAAAAAGgAACAAADxSggAICAAAAAgCAAgBCAAAAAAAgAAAAAAAAAAgBFAIAAQAAQAAEwAABEAGAwPAPgAAAAAAAAADAAAYAACCAAQAACAAAAA==

>  <PUBCHEM_IUPAC_OPENEYE_NAME>
17-(2,3-dihydroxy-1,5-dimethyl-4-methylene-hexyl)-10,13-dimethyl-2,3,4,5,6,7,8,9,11,12,14,15,16,17-tetradecahydro-1H-cyclopenta[a]phenanthrene-2,3-diol

>  <PUBCHEM_IUPAC_CAS_NAME>
17-(3,4-dihydroxy-6-methyl-5-methyleneheptan-2-yl)-10,13-dimethyl-2,3,4,5,6,7,8,9,11,12,14,15,16,17-tetradecahydro-1H-cyclopenta[a]phenanthrene-2,3-diol

>  <PUBCHEM_IUPAC_NAME>
17-(3,4-dihydroxy-6-methyl-5-methylideneheptan-2-yl)-10,13-dimethyl-2,3,4,5,6,7,8,9,11,12,14,15,16,17-tetradecahydro-1H-cyclopenta[a]phenanthrene-2,3-diol

>  <PUBCHEM_IUPAC_SYSTEMATIC_NAME>
10,13-dimethyl-17-[6-methyl-5-methylidene-3,4-bis(oxidanyl)heptan-2-yl]-2,3,4,5,6,7,8,9,11,12,14,15,16,17-tetradecahydro-1H-cyclopenta[a]phenanthrene-2,3-diol

>  <PUBCHEM_IUPAC_TRADITIONAL_NAME>
17-(2,3-dihydroxy-4-isopropyl-1-methyl-pent-4-enyl)-10,13-dimethyl-2,3,4,5,6,7,8,9,11,12,14,15,16,17-tetradecahydro-1H-cyclopenta[a]phenanthrene-2,3-diol

>  <PUBCHEM_IUPAC_INCHI>
InChI=1S/C28H48O4/c1-15(2)16(3)25(31)26(32)17(4)20-9-10-21-19-8-7-18-13-23(29)24(30)14-28(18,6)22(19)11-12-27(20,21)5/h15,17-26,29-32H,3,7-14H2,1-2,4-6H3

>  <PUBCHEM_IUPAC_INCHIKEY>
YCYJLHFHRKUCQX-UHFFFAOYSA-N

>  <PUBCHEM_XLOGP3_AA>
6.2

>  <PUBCHEM_EXACT_MASS>
448.355

>  <PUBCHEM_MOLECULAR_FORMULA>
C28H48O4

>  <PUBCHEM_MOLECULAR_WEIGHT>
448.688

>  <PUBCHEM_OPENEYE_CAN_SMILES>
CC(C)C(=C)C(C(C(C)C1CCC2C1(CCC3C2CCC4C3(CC(C(C4)O)O)C)C)O)O

>  <PUBCHEM_OPENEYE_ISO_SMILES>
CC(C)C(=C)C(C(C(C)C1CCC2C1(CCC3C2CCC4C3(CC(C(C4)O)O)C)C)O)O

>  <PUBCHEM_CACTVS_TPSA>
80.9

>  <PUBCHEM_MONOISOTOPIC_WEIGHT>
448.355

>  <PUBCHEM_TOTAL_CHARGE>
0

>  <PUBCHEM_HEAVY_ATOM_COUNT>
32

>  <PUBCHEM_ATOM_DEF_STEREO_COUNT>
0

>  <PUBCHEM_ATOM_UDEF_STEREO_COUNT>
12

>  <PUBCHEM_BOND_DEF_STEREO_COUNT>
0

>  <PUBCHEM_BOND_UDEF_STEREO_COUNT>
0

>  <PUBCHEM_ISOTOPIC_ATOM_COUNT>
0

>  <PUBCHEM_COMPONENT_COUNT>
1

>  <PUBCHEM_CACTVS_TAUTO_COUNT>
1

>  <PUBCHEM_COORDINATE_TYPE>
1
5
255

>  <PUBCHEM_BONDANNOTATIONS>
23  1  3
10  16  3
12  21  3
24  2  3
20  26  3
25  3  3
27  4  3
5  19  3
6  14  3
7  15  3
8  13  3
9  22  3

$$$$
