13889021
 OpenBabel06101807152D

 37 39  0  0  0  0  0  0  0  0999 V2000
    6.0290   -0.4293    0.0000 O   0  0  0  0  0  0  0  0  0  0  0  0
    4.2690   -1.3946    0.0000 O   0  0  0  0  0  0  0  0  0  0  0  0
    4.2690    2.6054    0.0000 O   0  0  0  0  0  0  0  0  0  0  0  0
    6.9273   -1.9154    0.0000 O   0  0  0  0  0  0  0  0  0  0  0  0
    2.5369   -0.3946    0.0000 O   0  0  0  0  0  0  0  0  0  0  0  0
    6.0174    2.6400    0.0000 O   0  0  0  0  0  0  0  0  0  0  0  0
    5.1350    1.1054    0.0000 C   0  0  0  0  0  0  0  0  0  0  0  0
    5.1350    0.1054    0.0000 C   0  0  0  0  0  0  0  0  0  0  0  0
    6.9350    0.0846    0.0000 C   0  0  0  0  0  0  0  0  0  0  0  0
    7.7991   -0.4188    0.0000 C   0  0  0  0  0  0  0  0  0  0  0  0
    4.2690   -0.3946    0.0000 C   0  0  0  0  0  0  0  0  0  0  0  0
    6.0290    1.6401    0.0000 C   0  0  0  0  0  0  0  0  0  0  0  0
    4.2690    1.6054    0.0000 C   0  0  0  0  0  0  0  0  0  0  0  0
    6.9350    1.1262    0.0000 C   0  0  0  0  0  0  0  0  0  0  0  0
    3.4030    0.1054    0.0000 C   0  0  0  0  0  0  0  0  0  0  0  0
    3.4030    1.1054    0.0000 C   0  0  0  0  0  0  0  0  0  0  0  0
    7.7953   -1.4188    0.0000 C   0  0  0  0  0  0  0  0  0  0  0  0
    8.6671    0.0779    0.0000 C   0  0  0  0  0  0  0  0  0  0  0  0
    8.6594   -1.9221    0.0000 C   0  0  0  0  0  0  0  0  0  0  0  0
    9.5312   -0.4254    0.0000 C   0  0  0  0  0  0  0  0  0  0  0  0
    9.5273   -1.4254    0.0000 C   0  0  0  0  0  0  0  0  0  0  0  0
    3.4030   -1.8946    0.0000 C   0  0  0  0  0  0  0  0  0  0  0  0
    6.9235   -2.9154    0.0000 C   0  0  0  0  0  0  0  0  0  0  0  0
    7.4708    1.4383    0.0000 H   0  0  0  0  0  0  0  0  0  0  0  0
    2.8660    1.4154    0.0000 H   0  0  0  0  0  0  0  0  0  0  0  0
    8.6694    0.6979    0.0000 H   0  0  0  0  0  0  0  0  0  0  0  0
    8.6570   -2.5421    0.0000 H   0  0  0  0  0  0  0  0  0  0  0  0
   10.0693   -0.1175    0.0000 H   0  0  0  0  0  0  0  0  0  0  0  0
   10.0630   -1.7375    0.0000 H   0  0  0  0  0  0  0  0  0  0  0  0
    3.7320    2.9154    0.0000 H   0  0  0  0  0  0  0  0  0  0  0  0
    2.0000   -0.0846    0.0000 H   0  0  0  0  0  0  0  0  0  0  0  0
    3.0930   -1.3577    0.0000 H   0  0  0  0  0  0  0  0  0  0  0  0
    2.8660   -2.2046    0.0000 H   0  0  0  0  0  0  0  0  0  0  0  0
    3.7130   -2.4315    0.0000 H   0  0  0  0  0  0  0  0  0  0  0  0
    6.3035   -2.9130    0.0000 H   0  0  0  0  0  0  0  0  0  0  0  0
    6.9211   -3.5354    0.0000 H   0  0  0  0  0  0  0  0  0  0  0  0
    7.5434   -2.9178    0.0000 H   0  0  0  0  0  0  0  0  0  0  0  0
  1  8  1  0  0  0  0
  1  9  1  0  0  0  0
  2 11  1  0  0  0  0
  2 22  1  0  0  0  0
  3 13  1  0  0  0  0
  3 30  1  0  0  0  0
  4 17  1  0  0  0  0
  4 23  1  0  0  0  0
  5 15  1  0  0  0  0
  5 31  1  0  0  0  0
  6 12  2  0  0  0  0
  7  8  2  0  0  0  0
  7 12  1  0  0  0  0
  7 13  1  0  0  0  0
  8 11  1  0  0  0  0
  9 10  1  0  0  0  0
  9 14  2  0  0  0  0
 10 17  1  0  0  0  0
 10 18  2  0  0  0  0
 11 15  2  0  0  0  0
 12 14  1  0  0  0  0
 13 16  2  0  0  0  0
 14 24  1  0  0  0  0
 15 16  1  0  0  0  0
 16 25  1  0  0  0  0
 17 19  2  0  0  0  0
 18 20  1  0  0  0  0
 18 26  1  0  0  0  0
 19 21  1  0  0  0  0
 19 27  1  0  0  0  0
 20 21  2  0  0  0  0
 20 28  1  0  0  0  0
 21 29  1  0  0  0  0
 22 32  1  0  0  0  0
 22 33  1  0  0  0  0
 22 34  1  0  0  0  0
 23 35  1  0  0  0  0
 23 36  1  0  0  0  0
 23 37  1  0  0  0  0
M  END
>  <PUBCHEM_COMPOUND_CID>
13889021

>  <PUBCHEM_COMPOUND_CANONICALIZED>
1

>  <PUBCHEM_CACTVS_COMPLEXITY>
476

>  <PUBCHEM_CACTVS_HBOND_ACCEPTOR>
6

>  <PUBCHEM_CACTVS_HBOND_DONOR>
2

>  <PUBCHEM_CACTVS_ROTATABLE_BOND>
3

>  <PUBCHEM_CACTVS_SUBSKEYS>
AAADccB4OAAAAAAAAAAAAAAAAAAAAAAAAAAwYIAAAAAAAACBQAAAGgAACAAADASAmAIyBoAABgCIAqBSAAACCAAkIAAIiAEGiMgNJzaGNRqCeWOl4BULuQfK7LzOIQABCAAIQABCAAIQABCAAAAAAAAAAA==

>  <PUBCHEM_IUPAC_OPENEYE_NAME>
5,7-dihydroxy-8-methoxy-2-(2-methoxyphenyl)chromen-4-one

>  <PUBCHEM_IUPAC_CAS_NAME>
5,7-dihydroxy-8-methoxy-2-(2-methoxyphenyl)-1-benzopyran-4-one

>  <PUBCHEM_IUPAC_NAME>
5,7-dihydroxy-8-methoxy-2-(2-methoxyphenyl)chromen-4-one

>  <PUBCHEM_IUPAC_SYSTEMATIC_NAME>
8-methoxy-2-(2-methoxyphenyl)-5,7-bis(oxidanyl)chromen-4-one

>  <PUBCHEM_IUPAC_TRADITIONAL_NAME>
5,7-dihydroxy-8-methoxy-2-(2-methoxyphenyl)chromone

>  <PUBCHEM_IUPAC_INCHI>
InChI=1S/C17H14O6/c1-21-13-6-4-3-5-9(13)14-8-11(19)15-10(18)7-12(20)16(22-2)17(15)23-14/h3-8,18,20H,1-2H3

>  <PUBCHEM_IUPAC_INCHIKEY>
YHZJRFKTTMDPDF-UHFFFAOYSA-N

>  <PUBCHEM_XLOGP3_AA>
3

>  <PUBCHEM_EXACT_MASS>
314.079

>  <PUBCHEM_MOLECULAR_FORMULA>
C17H14O6

>  <PUBCHEM_MOLECULAR_WEIGHT>
314.293

>  <PUBCHEM_OPENEYE_CAN_SMILES>
COC1=CC=CC=C1C2=CC(=O)C3=C(O2)C(=C(C=C3O)O)OC

>  <PUBCHEM_OPENEYE_ISO_SMILES>
COC1=CC=CC=C1C2=CC(=O)C3=C(O2)C(=C(C=C3O)O)OC

>  <PUBCHEM_CACTVS_TPSA>
85.2

>  <PUBCHEM_MONOISOTOPIC_WEIGHT>
314.079

>  <PUBCHEM_TOTAL_CHARGE>
0

>  <PUBCHEM_HEAVY_ATOM_COUNT>
23

>  <PUBCHEM_ATOM_DEF_STEREO_COUNT>
0

>  <PUBCHEM_ATOM_UDEF_STEREO_COUNT>
0

>  <PUBCHEM_BOND_DEF_STEREO_COUNT>
0

>  <PUBCHEM_BOND_UDEF_STEREO_COUNT>
0

>  <PUBCHEM_ISOTOPIC_ATOM_COUNT>
0

>  <PUBCHEM_COMPONENT_COUNT>
1

>  <PUBCHEM_CACTVS_TAUTO_COUNT>
12

>  <PUBCHEM_COORDINATE_TYPE>
1
5
255

>  <PUBCHEM_BONDANNOTATIONS>
1  8  8
1  9  8
10  17  8
10  18  8
11  15  8
12  14  8
13  16  8
15  16  8
17  19  8
18  20  8
19  21  8
20  21  8
7  12  8
7  13  8
7  8  8
8  11  8
9  14  8

$$$$
