13888657
 OpenBabel06101807152D

 61 66  0  0  0  0  0  0  0  0999 V2000
    6.3962    2.7510    0.0000 O   0  0  0  0  0  0  0  0  0  0  0  0
    4.6523   -1.2559    0.0000 O   0  0  0  0  0  0  0  0  0  0  0  0
    6.3683    1.7856    0.0000 O   0  0  0  0  0  0  0  0  0  0  0  0
    2.9042    1.7856    0.0000 O   0  0  0  0  0  0  0  0  0  0  0  0
    2.9042    2.7856    0.0000 O   0  0  0  0  0  0  0  0  0  0  0  0
    4.6362    5.7857    0.0000 O   0  0  0  0  0  0  0  0  0  0  0  0
    6.3846    5.8202    0.0000 O   0  0  0  0  0  0  0  0  0  0  0  0
    2.0000    0.2888    0.0000 O   0  0  0  0  0  0  0  0  0  0  0  0
   10.7586    1.2515    0.0000 O   0  0  0  0  0  0  0  0  0  0  0  0
    3.7696   -5.7836    0.0000 O   0  0  0  0  0  0  0  0  0  0  0  0
    4.6362    2.7856    0.0000 C   0  0  0  0  0  0  0  0  0  0  0  0
    4.6362    1.7856    0.0000 C   0  0  0  0  0  0  0  0  0  0  0  0
    5.5022    3.2856    0.0000 C   0  0  0  0  0  0  0  0  0  0  0  0
    3.7702    1.2856    0.0000 C   0  0  0  0  0  0  0  0  0  0  0  0
    3.7702    0.2856    0.0000 C   0  0  0  0  0  0  0  0  0  0  0  0
    5.5022    4.2857    0.0000 C   0  0  0  0  0  0  0  0  0  0  0  0
    5.5022    1.2856    0.0000 C   0  0  0  0  0  0  0  0  0  0  0  0
    4.6362   -0.2144    0.0000 C   0  0  0  0  0  0  0  0  0  0  0  0
    3.7702    3.2856    0.0000 C   0  0  0  0  0  0  0  0  0  0  0  0
    5.5022    0.2856    0.0000 C   0  0  0  0  0  0  0  0  0  0  0  0
    4.6362    4.7857    0.0000 C   0  0  0  0  0  0  0  0  0  0  0  0
    3.7702    4.2857    0.0000 C   0  0  0  0  0  0  0  0  0  0  0  0
    6.3962    4.8203    0.0000 C   0  0  0  0  0  0  0  0  0  0  0  0
    2.8602   -0.2212    0.0000 C   0  0  0  0  0  0  0  0  0  0  0  0
    7.3022    3.2648    0.0000 C   0  0  0  0  0  0  0  0  0  0  0  0
    3.7542   -1.7836    0.0000 C   0  0  0  0  0  0  0  0  0  0  0  0
    7.3022    4.3065    0.0000 C   0  0  0  0  0  0  0  0  0  0  0  0
    2.8522   -1.2628    0.0000 C   0  0  0  0  0  0  0  0  0  0  0  0
    8.1663    2.7615    0.0000 C   0  0  0  0  0  0  0  0  0  0  0  0
    3.7581   -2.7836    0.0000 C   0  0  0  0  0  0  0  0  0  0  0  0
    8.1625    1.7615    0.0000 C   0  0  0  0  0  0  0  0  0  0  0  0
    9.0343    3.2582    0.0000 C   0  0  0  0  0  0  0  0  0  0  0  0
    2.8940   -3.2869    0.0000 C   0  0  0  0  0  0  0  0  0  0  0  0
    4.6260   -3.2803    0.0000 C   0  0  0  0  0  0  0  0  0  0  0  0
    7.2343    1.2856    0.0000 C   0  0  0  0  0  0  0  0  0  0  0  0
    9.0266    1.2582    0.0000 C   0  0  0  0  0  0  0  0  0  0  0  0
    9.8984    2.7548    0.0000 C   0  0  0  0  0  0  0  0  0  0  0  0
    2.8978   -4.2869    0.0000 C   0  0  0  0  0  0  0  0  0  0  0  0
    4.6299   -4.2802    0.0000 C   0  0  0  0  0  0  0  0  0  0  0  0
    9.8945    1.7548    0.0000 C   0  0  0  0  0  0  0  0  0  0  0  0
    3.7658   -4.7836    0.0000 C   0  0  0  0  0  0  0  0  0  0  0  0
    6.0392   -0.0244    0.0000 H   0  0  0  0  0  0  0  0  0  0  0  0
    3.2332    4.5956    0.0000 H   0  0  0  0  0  0  0  0  0  0  0  0
    7.8380    4.6185    0.0000 H   0  0  0  0  0  0  0  0  0  0  0  0
    2.3140   -1.5707    0.0000 H   0  0  0  0  0  0  0  0  0  0  0  0
    2.3672    1.4756    0.0000 H   0  0  0  0  0  0  0  0  0  0  0  0
    2.3672    3.0956    0.0000 H   0  0  0  0  0  0  0  0  0  0  0  0
    7.6244    1.4536    0.0000 H   0  0  0  0  0  0  0  0  0  0  0  0
    9.0367    3.8782    0.0000 H   0  0  0  0  0  0  0  0  0  0  0  0
    4.0993    6.0956    0.0000 H   0  0  0  0  0  0  0  0  0  0  0  0
    2.3559   -2.9790    0.0000 H   0  0  0  0  0  0  0  0  0  0  0  0
    5.1618   -2.9682    0.0000 H   0  0  0  0  0  0  0  0  0  0  0  0
    6.9243    0.7487    0.0000 H   0  0  0  0  0  0  0  0  0  0  0  0
    7.7712    0.9756    0.0000 H   0  0  0  0  0  0  0  0  0  0  0  0
    7.5443    1.8226    0.0000 H   0  0  0  0  0  0  0  0  0  0  0  0
    9.0242    0.6382    0.0000 H   0  0  0  0  0  0  0  0  0  0  0  0
   10.4365    3.0628    0.0000 H   0  0  0  0  0  0  0  0  0  0  0  0
    2.3621   -4.5990    0.0000 H   0  0  0  0  0  0  0  0  0  0  0  0
    5.1680   -4.5882    0.0000 H   0  0  0  0  0  0  0  0  0  0  0  0
   11.2967    1.5594    0.0000 H   0  0  0  0  0  0  0  0  0  0  0  0
    3.2339   -6.0956    0.0000 H   0  0  0  0  0  0  0  0  0  0  0  0
  1 13  1  0  0  0  0
  1 25  1  0  0  0  0
  2 18  1  0  0  0  0
  2 26  1  0  0  0  0
  3 17  1  0  0  0  0
  3 35  1  0  0  0  0
  4 14  1  0  0  0  0
  4 46  1  0  0  0  0
  5 19  1  0  0  0  0
  5 47  1  0  0  0  0
  6 21  1  0  0  0  0
  6 50  1  0  0  0  0
  7 23  2  0  0  0  0
  8 24  2  0  0  0  0
  9 40  1  0  0  0  0
  9 60  1  0  0  0  0
 10 41  1  0  0  0  0
 10 61  1  0  0  0  0
 11 12  1  0  0  0  0
 11 13  1  0  0  0  0
 11 19  2  0  0  0  0
 12 14  1  0  0  0  0
 12 17  2  0  0  0  0
 13 16  2  0  0  0  0
 14 15  2  0  0  0  0
 15 18  1  0  0  0  0
 15 24  1  0  0  0  0
 16 21  1  0  0  0  0
 16 23  1  0  0  0  0
 17 20  1  0  0  0  0
 18 20  2  0  0  0  0
 19 22  1  0  0  0  0
 20 42  1  0  0  0  0
 21 22  2  0  0  0  0
 22 43  1  0  0  0  0
 23 27  1  0  0  0  0
 24 28  1  0  0  0  0
 25 27  2  0  0  0  0
 25 29  1  0  0  0  0
 26 28  2  0  0  0  0
 26 30  1  0  0  0  0
 27 44  1  0  0  0  0
 28 45  1  0  0  0  0
 29 31  2  0  0  0  0
 29 32  1  0  0  0  0
 30 33  2  0  0  0  0
 30 34  1  0  0  0  0
 31 36  1  0  0  0  0
 31 48  1  0  0  0  0
 32 37  2  0  0  0  0
 32 49  1  0  0  0  0
 33 38  1  0  0  0  0
 33 51  1  0  0  0  0
 34 39  2  0  0  0  0
 34 52  1  0  0  0  0
 35 53  1  0  0  0  0
 35 54  1  0  0  0  0
 35 55  1  0  0  0  0
 36 40  2  0  0  0  0
 36 56  1  0  0  0  0
 37 40  1  0  0  0  0
 37 57  1  0  0  0  0
 38 41  2  0  0  0  0
 38 58  1  0  0  0  0
 39 41  1  0  0  0  0
 39 59  1  0  0  0  0
M  END
>  <PUBCHEM_COMPOUND_CID>
13888657

>  <PUBCHEM_COMPOUND_CANONICALIZED>
1

>  <PUBCHEM_CACTVS_COMPLEXITY>
1060

>  <PUBCHEM_CACTVS_HBOND_ACCEPTOR>
10

>  <PUBCHEM_CACTVS_HBOND_DONOR>
5

>  <PUBCHEM_CACTVS_ROTATABLE_BOND>
4

>  <PUBCHEM_CACTVS_SUBSKEYS>
AAADceB4PAAAAAAAAAAAAAAAAAAAAAAAAAAwYMGCAAAAAACBVAAAGgAACAAADASAmAIyBoAABgCIAqBSAAACCAAkIAAIiAEGCMgMJzaGNRqCeWCl4BUIuQfI7PzOoAACCAAIAABAAAQQABAAAAAAAAAAAA==

>  <PUBCHEM_IUPAC_OPENEYE_NAME>
5,7-dihydroxy-8-[5-hydroxy-2-(4-hydroxyphenyl)-7-methoxy-4-oxo-chromen-6-yl]-2-(4-hydroxyphenyl)chromen-4-one

>  <PUBCHEM_IUPAC_CAS_NAME>
5,7-dihydroxy-8-[5-hydroxy-2-(4-hydroxyphenyl)-7-methoxy-4-oxo-1-benzopyran-6-yl]-2-(4-hydroxyphenyl)-1-benzopyran-4-one

>  <PUBCHEM_IUPAC_NAME>
5,7-dihydroxy-8-[5-hydroxy-2-(4-hydroxyphenyl)-7-methoxy-4-oxochromen-6-yl]-2-(4-hydroxyphenyl)chromen-4-one

>  <PUBCHEM_IUPAC_SYSTEMATIC_NAME>
2-(4-hydroxyphenyl)-8-[2-(4-hydroxyphenyl)-7-methoxy-5-oxidanyl-4-oxidanylidene-chromen-6-yl]-5,7-bis(oxidanyl)chromen-4-one

>  <PUBCHEM_IUPAC_TRADITIONAL_NAME>
5,7-dihydroxy-8-[5-hydroxy-2-(4-hydroxyphenyl)-4-keto-7-methoxy-chromen-6-yl]-2-(4-hydroxyphenyl)chromone

>  <PUBCHEM_IUPAC_INCHI>
InChI=1S/C31H20O10/c1-39-24-13-25-27(21(37)12-22(40-25)14-2-6-16(32)7-3-14)30(38)29(24)28-19(35)10-18(34)26-20(36)11-23(41-31(26)28)15-4-8-17(33)9-5-15/h2-13,32-35,38H,1H3

>  <PUBCHEM_IUPAC_INCHIKEY>
VQBWKCUMPIMBDA-UHFFFAOYSA-N

>  <PUBCHEM_XLOGP3_AA>
5.4

>  <PUBCHEM_EXACT_MASS>
552.106

>  <PUBCHEM_MOLECULAR_FORMULA>
C31H20O10

>  <PUBCHEM_MOLECULAR_WEIGHT>
552.491

>  <PUBCHEM_OPENEYE_CAN_SMILES>
COC1=C(C(=C2C(=C1)OC(=CC2=O)C3=CC=C(C=C3)O)O)C4=C(C=C(C5=C4OC(=CC5=O)C6=CC=C(C=C6)O)O)O

>  <PUBCHEM_OPENEYE_ISO_SMILES>
COC1=C(C(=C2C(=C1)OC(=CC2=O)C3=CC=C(C=C3)O)O)C4=C(C=C(C5=C4OC(=CC5=O)C6=CC=C(C=C6)O)O)O

>  <PUBCHEM_CACTVS_TPSA>
163

>  <PUBCHEM_MONOISOTOPIC_WEIGHT>
552.106

>  <PUBCHEM_TOTAL_CHARGE>
0

>  <PUBCHEM_HEAVY_ATOM_COUNT>
41

>  <PUBCHEM_ATOM_DEF_STEREO_COUNT>
0

>  <PUBCHEM_ATOM_UDEF_STEREO_COUNT>
0

>  <PUBCHEM_BOND_DEF_STEREO_COUNT>
0

>  <PUBCHEM_BOND_UDEF_STEREO_COUNT>
0

>  <PUBCHEM_ISOTOPIC_ATOM_COUNT>
0

>  <PUBCHEM_COMPONENT_COUNT>
1

>  <PUBCHEM_CACTVS_TAUTO_COUNT>
998

>  <PUBCHEM_COORDINATE_TYPE>
1
5
255

>  <PUBCHEM_BONDANNOTATIONS>
1  13  8
1  25  8
11  13  8
11  19  8
12  14  8
12  17  8
13  16  8
14  15  8
15  18  8
15  24  8
16  21  8
16  23  8
17  20  8
18  20  8
19  22  8
2  18  8
2  26  8
21  22  8
23  27  8
24  28  8
25  27  8
26  28  8
29  31  8
29  32  8
30  33  8
30  34  8
31  36  8
32  37  8
33  38  8
34  39  8
36  40  8
37  40  8
38  41  8
39  41  8

$$$$
