13885696
 OpenBabel06101807152D

 38 43  0  0  1  0  0  0  0  0999 V2000
    2.9180    1.3320    0.0000 O   0  0  0  0  0  0  0  0  0  0  0  0
    2.0000   -1.2164    0.0000 O   0  0  0  0  0  0  0  0  0  0  0  0
    4.7689   -0.3416    0.0000 O   0  0  0  0  0  0  0  0  0  0  0  0
    5.5161   -0.1680    0.0000 O   0  0  0  0  0  0  0  0  0  0  0  0
    5.5740   -3.5326    0.0000 O   0  0  0  0  0  0  0  0  0  0  0  0
    4.0684   -4.4174    0.0000 O   0  0  0  0  0  0  0  0  0  0  0  0
    4.8839    4.4135    0.0000 O   0  0  0  0  0  0  0  0  0  0  0  0
    3.7841   -0.1680    0.0000 C   0  0  3  0  0  0  0  0  0  0  0  0
    2.9180    0.3320    0.0000 C   0  0  3  0  0  0  0  0  0  0  0  0
    3.8001   -1.2095    0.0000 C   0  0  0  0  0  0  0  0  0  0  0  0
    2.0080   -0.1748    0.0000 C   0  0  0  0  0  0  0  0  0  0  0  0
    4.6501    0.3320    0.0000 C   0  0  0  0  0  0  0  0  0  0  0  0
    2.9021   -1.7372    0.0000 C   0  0  0  0  0  0  0  0  0  0  0  0
    4.6501    1.3320    0.0000 C   0  0  0  0  0  0  0  0  0  0  0  0
    3.7841    1.8320    0.0000 C   0  0  0  0  0  0  0  0  0  0  0  0
    4.7520   -1.7301    0.0000 C   0  0  0  0  0  0  0  0  0  0  0  0
    2.8937   -2.8222    0.0000 C   0  0  0  0  0  0  0  0  0  0  0  0
    4.7688   -2.8150    0.0000 C   0  0  0  0  0  0  0  0  0  0  0  0
    5.5601    1.8388    0.0000 C   0  0  0  0  0  0  0  0  0  0  0  0
    3.8334   -3.3647    0.0000 C   0  0  0  0  0  0  0  0  0  0  0  0
    3.7680    2.8735    0.0000 C   0  0  0  0  0  0  0  0  0  0  0  0
    5.5681    2.8804    0.0000 C   0  0  0  0  0  0  0  0  0  0  0  0
    4.6660    3.4013    0.0000 C   0  0  0  0  0  0  0  0  0  0  0  0
    5.1420   -4.5209    0.0000 C   0  0  0  0  0  0  0  0  0  0  0  0
    6.3358    3.5753    0.0000 C   0  0  0  0  0  0  0  0  0  0  0  0
    5.9138    4.5209    0.0000 C   0  0  0  0  0  0  0  0  0  0  0  0
    2.3835    0.6461    0.0000 H   0  0  0  0  0  0  0  0  0  0  0  0
    1.8035    0.4104    0.0000 H   0  0  0  0  0  0  0  0  0  0  0  0
    1.3964   -0.2762    0.0000 H   0  0  0  0  0  0  0  0  0  0  0  0
    5.2829   -1.4098    0.0000 H   0  0  0  0  0  0  0  0  0  0  0  0
    4.9809   -0.9242    0.0000 H   0  0  0  0  0  0  0  0  0  0  0  0
    2.3556   -3.1301    0.0000 H   0  0  0  0  0  0  0  0  0  0  0  0
    6.0934    1.5227    0.0000 H   0  0  0  0  0  0  0  0  0  0  0  0
    3.2275    3.1773    0.0000 H   0  0  0  0  0  0  0  0  0  0  0  0
    5.0180   -5.1284    0.0000 H   0  0  0  0  0  0  0  0  0  0  0  0
    5.7331   -4.7081    0.0000 H   0  0  0  0  0  0  0  0  0  0  0  0
    6.9425    3.4474    0.0000 H   0  0  0  0  0  0  0  0  0  0  0  0
    6.2238    5.0578    0.0000 H   0  0  0  0  0  0  0  0  0  0  0  0
  1  9  1  0  0  0  0
  1 15  1  0  0  0  0
  2 11  1  0  0  0  0
  2 13  1  0  0  0  0
  3  8  1  0  0  0  0
  3 31  1  0  0  0  0
  4 12  2  0  0  0  0
  5 18  1  0  0  0  0
  5 24  1  0  0  0  0
  6 20  1  0  0  0  0
  6 24  1  0  0  0  0
  7 23  1  0  0  0  0
  7 26  1  0  0  0  0
  8  9  1  0  0  0  0
  8 10  1  0  0  0  0
  8 12  1  0  0  0  0
  9 11  1  0  0  0  0
  9 27  1  0  0  0  0
 10 13  1  0  0  0  0
 10 16  2  0  0  0  0
 11 28  1  0  0  0  0
 11 29  1  0  0  0  0
 12 14  1  0  0  0  0
 13 17  2  0  0  0  0
 14 15  2  0  0  0  0
 14 19  1  0  0  0  0
 15 21  1  0  0  0  0
 16 18  1  0  0  0  0
 16 30  1  0  0  0  0
 17 20  1  0  0  0  0
 17 32  1  0  0  0  0
 18 20  2  0  0  0  0
 19 22  2  0  0  0  0
 19 33  1  0  0  0  0
 21 23  2  0  0  0  0
 21 34  1  0  0  0  0
 22 23  1  0  0  0  0
 22 25  1  0  0  0  0
 24 35  1  0  0  0  0
 24 36  1  0  0  0  0
 25 26  2  0  0  0  0
 25 37  1  0  0  0  0
 26 38  1  0  0  0  0
M  END
>  <PUBCHEM_COMPOUND_CID>
13885696

>  <PUBCHEM_COMPOUND_CANONICALIZED>
1

>  <PUBCHEM_CACTVS_COMPLEXITY>
611

>  <PUBCHEM_CACTVS_HBOND_ACCEPTOR>
7

>  <PUBCHEM_CACTVS_HBOND_DONOR>
1

>  <PUBCHEM_CACTVS_ROTATABLE_BOND>
0

>  <PUBCHEM_CACTVS_SUBSKEYS>
AAADccB4OAAAAAAAAAAAAAAAAAAAASJAAAA0aIEAAAAAAEiR9AAAGgAACAAADFSgmAMwDsAABkCIAqhSgAICCAAkIAAIiAFGiMgdJzaENRqieWKl4BUPuYfK7vzuoQADCAAIQABCAAYQABCAAAAAAAAAAA==

>  <PUBCHEM_IUPAC_INCHI>
InChI=1S/C19H12O7/c20-18-10-3-9-1-2-22-12(9)5-13(10)26-17-7-23-14-6-16-15(24-8-25-16)4-11(14)19(17,18)21/h1-6,17,21H,7-8H2

>  <PUBCHEM_IUPAC_INCHIKEY>
HLEAVDSSZUIWQI-UHFFFAOYSA-N

>  <PUBCHEM_XLOGP3_AA>
2.3

>  <PUBCHEM_EXACT_MASS>
352.058

>  <PUBCHEM_MOLECULAR_FORMULA>
C19H12O7

>  <PUBCHEM_MOLECULAR_WEIGHT>
352.298

>  <PUBCHEM_OPENEYE_CAN_SMILES>
C1C2C(C3=CC4=C(C=C3O1)OCO4)(C(=O)C5=C(O2)C=C6C(=C5)C=CO6)O

>  <PUBCHEM_OPENEYE_ISO_SMILES>
C1C2C(C3=CC4=C(C=C3O1)OCO4)(C(=O)C5=C(O2)C=C6C(=C5)C=CO6)O

>  <PUBCHEM_CACTVS_TPSA>
87.4

>  <PUBCHEM_MONOISOTOPIC_WEIGHT>
352.058

>  <PUBCHEM_TOTAL_CHARGE>
0

>  <PUBCHEM_HEAVY_ATOM_COUNT>
26

>  <PUBCHEM_ATOM_DEF_STEREO_COUNT>
0

>  <PUBCHEM_ATOM_UDEF_STEREO_COUNT>
2

>  <PUBCHEM_BOND_DEF_STEREO_COUNT>
0

>  <PUBCHEM_BOND_UDEF_STEREO_COUNT>
0

>  <PUBCHEM_ISOTOPIC_ATOM_COUNT>
0

>  <PUBCHEM_COMPONENT_COUNT>
1

>  <PUBCHEM_CACTVS_TAUTO_COUNT>
1

>  <PUBCHEM_COORDINATE_TYPE>
1
5
255

>  <PUBCHEM_BONDANNOTATIONS>
10  13  8
10  16  8
13  17  8
14  15  8
14  19  8
15  21  8
16  18  8
17  20  8
18  20  8
19  22  8
21  23  8
22  23  8
22  25  8
25  26  8
8  3  3
7  23  8
7  26  8
9  11  3

$$$$
