13893574
 OpenBabel06101807152D

 57 59  0  0  1  0  0  0  0  0999 V2000
    7.9497   -0.5950    0.0000 O   0  0  0  0  0  0  0  0  0  0  0  0
    6.2177    0.4050    0.0000 O   0  0  0  0  0  0  0  0  0  0  0  0
    4.4381    0.4983    0.0000 O   0  0  0  0  0  0  0  0  0  0  0  0
    4.4769    3.0856    0.0000 O   0  0  0  0  0  0  0  0  0  0  0  0
    6.2177   -2.5950    0.0000 O   0  0  0  0  0  0  0  0  0  0  0  0
    9.6818   -0.5950    0.0000 O   0  0  0  0  0  0  0  0  0  0  0  0
    5.9903    2.5686    0.0000 O   0  0  0  0  0  0  0  0  0  0  0  0
    7.9497   -3.5950    0.0000 O   0  0  0  0  0  0  0  0  0  0  0  0
    9.6818   -2.5950    0.0000 O   0  0  0  0  0  0  0  0  0  0  0  0
    2.5369    2.1074    0.0000 O   0  0  0  0  0  0  0  0  0  0  0  0
    4.2690    2.1074    0.0000 C   0  0  3  0  0  0  0  0  0  0  0  0
    7.0837   -1.0950    0.0000 C   0  0  3  0  0  0  0  0  0  0  0  0
    7.0837   -2.0950    0.0000 C   0  0  3  0  0  0  0  0  0  0  0  0
    5.2471    1.8995    0.0000 C   0  0  3  0  0  0  0  0  0  0  0  0
    7.9497   -2.5950    0.0000 C   0  0  3  0  0  0  0  0  0  0  0  0
    5.3517    0.9050    0.0000 C   0  0  3  0  0  0  0  0  0  0  0  0
    8.8158   -2.0950    0.0000 C   0  0  3  0  0  0  0  0  0  0  0  0
    8.8158   -1.0950    0.0000 C   0  0  3  0  0  0  0  0  0  0  0  0
    6.2177   -0.5950    0.0000 C   0  0  0  0  0  0  0  0  0  0  0  0
    3.7690    1.2414    0.0000 C   0  0  0  0  0  0  0  0  0  0  0  0
    3.4030    2.6074    0.0000 C   0  0  0  0  0  0  0  0  0  0  0  0
    9.6818    0.4050    0.0000 C   0  0  0  0  0  0  0  0  0  0  0  0
   10.5478    0.9050    0.0000 C   0  0  0  0  0  0  0  0  0  0  0  0
   10.5478    1.9050    0.0000 C   0  0  0  0  0  0  0  0  0  0  0  0
   11.4138    2.4050    0.0000 C   0  0  0  0  0  0  0  0  0  0  0  0
    9.6818    2.4050    0.0000 C   0  0  0  0  0  0  0  0  0  0  0  0
   11.4138    3.4050    0.0000 C   0  0  0  0  0  0  0  0  0  0  0  0
    9.6818    3.4050    0.0000 C   0  0  0  0  0  0  0  0  0  0  0  0
   10.5478    3.9050    0.0000 C   0  0  0  0  0  0  0  0  0  0  0  0
    7.0837   -0.4750    0.0000 H   0  0  0  0  0  0  0  0  0  0  0  0
    7.0837   -2.7150    0.0000 H   0  0  0  0  0  0  0  0  0  0  0  0
    5.0867    2.4984    0.0000 H   0  0  0  0  0  0  0  0  0  0  0  0
    8.4867   -2.9050    0.0000 H   0  0  0  0  0  0  0  0  0  0  0  0
    5.3192    0.2858    0.0000 H   0  0  0  0  0  0  0  0  0  0  0  0
    9.3527   -1.7850    0.0000 H   0  0  0  0  0  0  0  0  0  0  0  0
    8.8158   -0.4750    0.0000 H   0  0  0  0  0  0  0  0  0  0  0  0
    5.6071   -0.4873    0.0000 H   0  0  0  0  0  0  0  0  0  0  0  0
    6.0056   -1.1776    0.0000 H   0  0  0  0  0  0  0  0  0  0  0  0
    3.2674    1.6058    0.0000 H   0  0  0  0  0  0  0  0  0  0  0  0
    3.3541    0.7807    0.0000 H   0  0  0  0  0  0  0  0  0  0  0  0
    3.8015    3.0824    0.0000 H   0  0  0  0  0  0  0  0  0  0  0  0
    3.0044    3.0824    0.0000 H   0  0  0  0  0  0  0  0  0  0  0  0
    4.0162    3.5004    0.0000 H   0  0  0  0  0  0  0  0  0  0  0  0
    5.6808   -2.2850    0.0000 H   0  0  0  0  0  0  0  0  0  0  0  0
    6.5799    2.3771    0.0000 H   0  0  0  0  0  0  0  0  0  0  0  0
    7.4128   -3.9050    0.0000 H   0  0  0  0  0  0  0  0  0  0  0  0
   10.2187   -2.2850    0.0000 H   0  0  0  0  0  0  0  0  0  0  0  0
    9.4697    0.9876    0.0000 H   0  0  0  0  0  0  0  0  0  0  0  0
    9.0712    0.2973    0.0000 H   0  0  0  0  0  0  0  0  0  0  0  0
    2.0000    2.4174    0.0000 H   0  0  0  0  0  0  0  0  0  0  0  0
   10.7599    0.3224    0.0000 H   0  0  0  0  0  0  0  0  0  0  0  0
   11.1584    1.0127    0.0000 H   0  0  0  0  0  0  0  0  0  0  0  0
   11.9508    2.0950    0.0000 H   0  0  0  0  0  0  0  0  0  0  0  0
    9.1448    2.0950    0.0000 H   0  0  0  0  0  0  0  0  0  0  0  0
   11.9508    3.7150    0.0000 H   0  0  0  0  0  0  0  0  0  0  0  0
    9.1448    3.7150    0.0000 H   0  0  0  0  0  0  0  0  0  0  0  0
   10.5478    4.5250    0.0000 H   0  0  0  0  0  0  0  0  0  0  0  0
  1 12  1  0  0  0  0
  1 18  1  0  0  0  0
  2 16  1  0  0  0  0
  2 19  1  0  0  0  0
  3 16  1  0  0  0  0
  3 20  1  0  0  0  0
  4 11  1  0  0  0  0
  4 43  1  0  0  0  0
  5 13  1  0  0  0  0
  5 44  1  0  0  0  0
  6 18  1  0  0  0  0
  6 22  1  0  0  0  0
  7 14  1  0  0  0  0
  7 45  1  0  0  0  0
  8 15  1  0  0  0  0
  8 46  1  0  0  0  0
  9 17  1  0  0  0  0
  9 47  1  0  0  0  0
 10 21  1  0  0  0  0
 10 50  1  0  0  0  0
 11 14  1  0  0  0  0
 11 20  1  0  0  0  0
 11 21  1  0  0  0  0
 12 13  1  0  0  0  0
 12 19  1  0  0  0  0
 12 30  1  0  0  0  0
 13 15  1  0  0  0  0
 13 31  1  0  0  0  0
 14 16  1  0  0  0  0
 14 32  1  0  0  0  0
 15 17  1  0  0  0  0
 15 33  1  0  0  0  0
 16 34  1  0  0  0  0
 17 18  1  0  0  0  0
 17 35  1  0  0  0  0
 18 36  1  0  0  0  0
 19 37  1  0  0  0  0
 19 38  1  0  0  0  0
 20 39  1  0  0  0  0
 20 40  1  0  0  0  0
 21 41  1  0  0  0  0
 21 42  1  0  0  0  0
 22 23  1  0  0  0  0
 22 48  1  0  0  0  0
 22 49  1  0  0  0  0
 23 24  1  0  0  0  0
 23 51  1  0  0  0  0
 23 52  1  0  0  0  0
 24 25  2  0  0  0  0
 24 26  1  0  0  0  0
 25 27  1  0  0  0  0
 25 53  1  0  0  0  0
 26 28  2  0  0  0  0
 26 54  1  0  0  0  0
 27 29  2  0  0  0  0
 27 55  1  0  0  0  0
 28 29  1  0  0  0  0
 28 56  1  0  0  0  0
 29 57  1  0  0  0  0
M  END
>  <PUBCHEM_COMPOUND_CID>
13893574

>  <PUBCHEM_COMPOUND_CANONICALIZED>
1

>  <PUBCHEM_CACTVS_COMPLEXITY>
501

>  <PUBCHEM_CACTVS_HBOND_ACCEPTOR>
10

>  <PUBCHEM_CACTVS_HBOND_DONOR>
6

>  <PUBCHEM_CACTVS_ROTATABLE_BOND>
8

>  <PUBCHEM_CACTVS_SUBSKEYS>
AAADceB4PAAAAAAAAAAAAAAAAAAAASAAAAA0QAAAAAAAAAABAAAAGgAACAAADFSwmAMwCIAABgCAAiBCAAACAAAgAAAIiAAAAIgZMCKAERCiYAAlwAEPiAfA4KwOAAAAAAAAAAAAAAAAAAAAAAAAAAAAAA==

>  <PUBCHEM_IUPAC_OPENEYE_NAME>
2-[[3,4-dihydroxy-4-(hydroxymethyl)tetrahydrofuran-2-yl]oxymethyl]-6-(2-phenylethoxy)tetrahydropyran-3,4,5-triol

>  <PUBCHEM_IUPAC_CAS_NAME>
2-[[3,4-dihydroxy-4-(hydroxymethyl)-2-oxolanyl]oxymethyl]-6-(2-phenylethoxy)oxane-3,4,5-triol

>  <PUBCHEM_IUPAC_NAME>
2-[[3,4-dihydroxy-4-(hydroxymethyl)oxolan-2-yl]oxymethyl]-6-(2-phenylethoxy)oxane-3,4,5-triol

>  <PUBCHEM_IUPAC_SYSTEMATIC_NAME>
2-[[4-(hydroxymethyl)-3,4-bis(oxidanyl)oxolan-2-yl]oxymethyl]-6-(2-phenylethoxy)oxane-3,4,5-triol

>  <PUBCHEM_IUPAC_TRADITIONAL_NAME>
2-[(3,4-dihydroxy-4-methylol-tetrahydrofuran-2-yl)oxymethyl]-6-phenethoxy-tetrahydropyran-3,4,5-triol

>  <PUBCHEM_IUPAC_INCHI>
InChI=1S/C19H28O10/c20-9-19(25)10-28-18(16(19)24)27-8-12-13(21)14(22)15(23)17(29-12)26-7-6-11-4-2-1-3-5-11/h1-5,12-18,20-25H,6-10H2

>  <PUBCHEM_IUPAC_INCHIKEY>
GZSQKOFXMZDKPV-UHFFFAOYSA-N

>  <PUBCHEM_XLOGP3_AA>
-1.9

>  <PUBCHEM_EXACT_MASS>
416.168

>  <PUBCHEM_MOLECULAR_FORMULA>
C19H28O10

>  <PUBCHEM_MOLECULAR_WEIGHT>
416.423

>  <PUBCHEM_OPENEYE_CAN_SMILES>
C1C(C(C(O1)OCC2C(C(C(C(O2)OCCC3=CC=CC=C3)O)O)O)O)(CO)O

>  <PUBCHEM_OPENEYE_ISO_SMILES>
C1C(C(C(O1)OCC2C(C(C(C(O2)OCCC3=CC=CC=C3)O)O)O)O)(CO)O

>  <PUBCHEM_CACTVS_TPSA>
158

>  <PUBCHEM_MONOISOTOPIC_WEIGHT>
416.168

>  <PUBCHEM_TOTAL_CHARGE>
0

>  <PUBCHEM_HEAVY_ATOM_COUNT>
29

>  <PUBCHEM_ATOM_DEF_STEREO_COUNT>
0

>  <PUBCHEM_ATOM_UDEF_STEREO_COUNT>
8

>  <PUBCHEM_BOND_DEF_STEREO_COUNT>
0

>  <PUBCHEM_BOND_UDEF_STEREO_COUNT>
0

>  <PUBCHEM_ISOTOPIC_ATOM_COUNT>
0

>  <PUBCHEM_COMPONENT_COUNT>
1

>  <PUBCHEM_CACTVS_TAUTO_COUNT>
1

>  <PUBCHEM_COORDINATE_TYPE>
1
5
255

>  <PUBCHEM_BONDANNOTATIONS>
12  19  3
16  2  3
24  25  8
24  26  8
25  27  8
26  28  8
27  29  8
28  29  8
11  4  3
13  5  3
18  6  3
14  7  3
15  8  3
17  9  3

$$$$
