13894650
 OpenBabel06101807152D

 33 32  0  0  1  0  0  0  0  0999 V2000
    3.4030   -1.1550    0.0000 S   0  0  0  0  0  0  0  0  0  0  0  0
    6.0010   -0.6550    0.0000 O   0  0  0  0  0  0  0  0  0  0  0  0
   10.3312    0.8450    0.0000 O   0  0  0  0  0  0  0  0  0  0  0  0
    2.5369    0.3450    0.0000 O   0  0  0  0  0  0  0  0  0  0  0  0
    9.4651   -0.6550    0.0000 O   0  0  0  0  0  0  0  0  0  0  0  0
    3.4030    1.8450    0.0000 O   0  0  0  0  0  0  0  0  0  0  0  0
    5.1350    0.8450    0.0000 N   0  0  0  0  0  0  0  0  0  0  0  0
    8.5991    1.8450    0.0000 N   0  0  0  0  0  0  0  0  0  0  0  0
    7.7331    0.3450    0.0000 C   0  0  0  0  0  0  0  0  0  0  0  0
    6.8671    0.8450    0.0000 C   0  0  0  0  0  0  0  0  0  0  0  0
    8.5991    0.8450    0.0000 C   0  0  3  0  0  0  0  0  0  0  0  0
    4.2690    0.3450    0.0000 C   0  0  3  0  0  0  0  0  0  0  0  0
    6.0010    0.3450    0.0000 C   0  0  0  0  0  0  0  0  0  0  0  0
    4.2690   -0.6550    0.0000 C   0  0  0  0  0  0  0  0  0  0  0  0
    9.4651    0.3450    0.0000 C   0  0  0  0  0  0  0  0  0  0  0  0
    3.4030    0.8450    0.0000 C   0  0  0  0  0  0  0  0  0  0  0  0
    3.4030   -2.1550    0.0000 C   0  0  0  0  0  0  0  0  0  0  0  0
    7.3346   -0.1299    0.0000 H   0  0  0  0  0  0  0  0  0  0  0  0
    8.1316   -0.1299    0.0000 H   0  0  0  0  0  0  0  0  0  0  0  0
    7.2656    1.3200    0.0000 H   0  0  0  0  0  0  0  0  0  0  0  0
    6.4685    1.3200    0.0000 H   0  0  0  0  0  0  0  0  0  0  0  0
    8.0622    1.1550    0.0000 H   0  0  0  0  0  0  0  0  0  0  0  0
    4.2690    0.9650    0.0000 H   0  0  0  0  0  0  0  0  0  0  0  0
    5.1350    1.4650    0.0000 H   0  0  0  0  0  0  0  0  0  0  0  0
    4.4810   -1.2376    0.0000 H   0  0  0  0  0  0  0  0  0  0  0  0
    4.8796   -0.5473    0.0000 H   0  0  0  0  0  0  0  0  0  0  0  0
    9.1360    2.1550    0.0000 H   0  0  0  0  0  0  0  0  0  0  0  0
    8.0622    2.1550    0.0000 H   0  0  0  0  0  0  0  0  0  0  0  0
    2.7830   -2.1550    0.0000 H   0  0  0  0  0  0  0  0  0  0  0  0
    3.4030   -2.7750    0.0000 H   0  0  0  0  0  0  0  0  0  0  0  0
    4.0230   -2.1550    0.0000 H   0  0  0  0  0  0  0  0  0  0  0  0
   10.8681    0.5350    0.0000 H   0  0  0  0  0  0  0  0  0  0  0  0
    2.0000    0.6550    0.0000 H   0  0  0  0  0  0  0  0  0  0  0  0
  1 14  1  0  0  0  0
  1 17  1  0  0  0  0
  2 13  2  0  0  0  0
  3 15  1  0  0  0  0
  3 32  1  0  0  0  0
  4 16  1  0  0  0  0
  4 33  1  0  0  0  0
  5 15  2  0  0  0  0
  6 16  2  0  0  0  0
  7 12  1  0  0  0  0
  7 13  1  0  0  0  0
  7 24  1  0  0  0  0
  8 11  1  0  0  0  0
  8 27  1  0  0  0  0
  8 28  1  0  0  0  0
  9 10  1  0  0  0  0
  9 11  1  0  0  0  0
  9 18  1  0  0  0  0
  9 19  1  0  0  0  0
 10 13  1  0  0  0  0
 10 20  1  0  0  0  0
 10 21  1  0  0  0  0
 11 15  1  0  0  0  0
 11 22  1  0  0  0  0
 12 14  1  0  0  0  0
 12 16  1  0  0  0  0
 12 23  1  0  0  0  0
 14 25  1  0  0  0  0
 14 26  1  0  0  0  0
 17 29  1  0  0  0  0
 17 30  1  0  0  0  0
 17 31  1  0  0  0  0
M  END
>  <PUBCHEM_COMPOUND_CID>
13894650

>  <PUBCHEM_COMPOUND_CANONICALIZED>
1

>  <PUBCHEM_CACTVS_COMPLEXITY>
297

>  <PUBCHEM_CACTVS_HBOND_ACCEPTOR>
7

>  <PUBCHEM_CACTVS_HBOND_DONOR>
4

>  <PUBCHEM_CACTVS_ROTATABLE_BOND>
8

>  <PUBCHEM_CACTVS_SUBSKEYS>
AAADceBzOABAAAAAAAAAAAAAAAAAAAAAAAAAAAAAAAAAAAAAAAAAHgQQCAAACCjFwASCCALAAggIAAGQGAAAAAAAABAAAIGIAAACABIggCAEQAAEFgCQAACcFwIAAAAAAAAAAAAAAAAAAAAAAAAAAAAAAA==

>  <PUBCHEM_IUPAC_OPENEYE_NAME>
2-amino-5-[(1-carboxy-2-methylsulfanyl-ethyl)amino]-5-oxo-pentanoic acid

>  <PUBCHEM_IUPAC_CAS_NAME>
2-amino-5-[[1-carboxy-2-(methylthio)ethyl]amino]-5-oxopentanoic acid

>  <PUBCHEM_IUPAC_NAME>
2-amino-5-[(1-carboxy-2-methylsulfanylethyl)amino]-5-oxopentanoic acid

>  <PUBCHEM_IUPAC_SYSTEMATIC_NAME>
2-azanyl-5-[(3-methylsulfanyl-1-oxidanyl-1-oxidanylidene-propan-2-yl)amino]-5-oxidanylidene-pentanoic acid

>  <PUBCHEM_IUPAC_TRADITIONAL_NAME>
2-amino-5-[[1-carboxy-2-(methylthio)ethyl]amino]-5-keto-valeric acid

>  <PUBCHEM_IUPAC_INCHI>
InChI=1S/C9H16N2O5S/c1-17-4-6(9(15)16)11-7(12)3-2-5(10)8(13)14/h5-6H,2-4,10H2,1H3,(H,11,12)(H,13,14)(H,15,16)

>  <PUBCHEM_IUPAC_INCHIKEY>
UPCDLBPYWXOCOK-UHFFFAOYSA-N

>  <PUBCHEM_XLOGP3_AA>
-3.5

>  <PUBCHEM_EXACT_MASS>
264.078

>  <PUBCHEM_MOLECULAR_FORMULA>
C9H16N2O5S

>  <PUBCHEM_MOLECULAR_WEIGHT>
264.296

>  <PUBCHEM_OPENEYE_CAN_SMILES>
CSCC(C(=O)O)NC(=O)CCC(C(=O)O)N

>  <PUBCHEM_OPENEYE_ISO_SMILES>
CSCC(C(=O)O)NC(=O)CCC(C(=O)O)N

>  <PUBCHEM_CACTVS_TPSA>
155

>  <PUBCHEM_MONOISOTOPIC_WEIGHT>
264.078

>  <PUBCHEM_TOTAL_CHARGE>
0

>  <PUBCHEM_HEAVY_ATOM_COUNT>
17

>  <PUBCHEM_ATOM_DEF_STEREO_COUNT>
0

>  <PUBCHEM_ATOM_UDEF_STEREO_COUNT>
2

>  <PUBCHEM_BOND_DEF_STEREO_COUNT>
0

>  <PUBCHEM_BOND_UDEF_STEREO_COUNT>
0

>  <PUBCHEM_ISOTOPIC_ATOM_COUNT>
0

>  <PUBCHEM_COMPONENT_COUNT>
1

>  <PUBCHEM_CACTVS_TAUTO_COUNT>
2

>  <PUBCHEM_COORDINATE_TYPE>
1
5
255

>  <PUBCHEM_BONDANNOTATIONS>
12  16  3
11  8  3

$$$$
