13893944
 OpenBabel06101807152D

 81 84  0  0  1  0  0  0  0  0999 V2000
    2.5357   -3.2258    0.0000 O   0  0  0  0  0  0  0  0  0  0  0  0
    7.0628   -1.6735    0.0000 C   0  0  3  0  0  0  0  0  0  0  0  0
    7.9288   -1.1735    0.0000 C   0  0  3  0  0  0  0  0  0  0  0  0
    6.1968   -1.1735    0.0000 C   0  0  3  0  0  0  0  0  0  0  0  0
    5.2868   -1.6803    0.0000 C   0  0  3  0  0  0  0  0  0  0  0  0
    7.9288   -0.1735    0.0000 C   0  0  3  0  0  0  0  0  0  0  0  0
    5.2787   -2.7219    0.0000 C   0  0  3  0  0  0  0  0  0  0  0  0
    7.0789   -2.7150    0.0000 C   0  0  0  0  0  0  0  0  0  0  0  0
    6.1968   -0.1735    0.0000 C   0  0  0  0  0  0  0  0  0  0  0  0
    6.1808   -3.2427    0.0000 C   0  0  0  0  0  0  0  0  0  0  0  0
    8.8750   -1.4782    0.0000 C   0  0  0  0  0  0  0  0  0  0  0  0
    7.0628    0.3265    0.0000 C   0  0  0  0  0  0  0  0  0  0  0  0
    8.8750    0.1313    0.0000 C   0  0  3  0  0  0  0  0  0  0  0  0
    4.3433   -3.2716    0.0000 C   0  0  0  0  0  0  0  0  0  0  0  0
    4.3599   -1.1162    0.0000 C   0  0  0  0  0  0  0  0  0  0  0  0
    9.4586   -0.6735    0.0000 C   0  0  0  0  0  0  0  0  0  0  0  0
    7.7056   -2.4395    0.0000 C   0  0  0  0  0  0  0  0  0  0  0  0
    8.2709   -2.1131    0.0000 C   0  0  0  0  0  0  0  0  0  0  0  0
    5.2945   -0.6803    0.0000 C   0  0  0  0  0  0  0  0  0  0  0  0
    3.4037   -2.7291    0.0000 C   0  0  3  0  0  0  0  0  0  0  0  0
    3.4120   -1.6442    0.0000 C   0  0  0  0  0  0  0  0  0  0  0  0
    3.8467   -4.1396    0.0000 C   0  0  0  0  0  0  0  0  0  0  0  0
    4.8466   -4.1357    0.0000 C   0  0  0  0  0  0  0  0  0  0  0  0
    9.1857    1.0818    0.0000 C   0  0  0  0  0  0  0  0  0  0  0  0
   10.1642    1.2880    0.0000 C   0  0  0  0  0  0  0  0  0  0  0  0
    8.5179    1.8261    0.0000 C   0  0  0  0  0  0  0  0  0  0  0  0
   10.4749    2.2385    0.0000 C   0  0  0  0  0  0  0  0  0  0  0  0
   11.4534    2.4448    0.0000 C   0  0  0  0  0  0  0  0  0  0  0  0
   11.7640    3.3953    0.0000 C   0  0  0  0  0  0  0  0  0  0  0  0
   12.7425    3.6015    0.0000 C   0  0  0  0  0  0  0  0  0  0  0  0
   11.0962    4.1396    0.0000 C   0  0  0  0  0  0  0  0  0  0  0  0
    6.7337   -0.8635    0.0000 H   0  0  0  0  0  0  0  0  0  0  0  0
    7.9944    0.4431    0.0000 H   0  0  0  0  0  0  0  0  0  0  0  0
    5.2811   -3.3419    0.0000 H   0  0  0  0  0  0  0  0  0  0  0  0
    7.2969   -3.2954    0.0000 H   0  0  0  0  0  0  0  0  0  0  0  0
    7.6880   -2.5995    0.0000 H   0  0  0  0  0  0  0  0  0  0  0  0
    5.9847    0.4092    0.0000 H   0  0  0  0  0  0  0  0  0  0  0  0
    5.5862   -0.2811    0.0000 H   0  0  0  0  0  0  0  0  0  0  0  0
    5.7835   -3.7187    0.0000 H   0  0  0  0  0  0  0  0  0  0  0  0
    6.5818   -3.7156    0.0000 H   0  0  0  0  0  0  0  0  0  0  0  0
    8.6240   -2.0451    0.0000 H   0  0  0  0  0  0  0  0  0  0  0  0
    9.4124   -1.7874    0.0000 H   0  0  0  0  0  0  0  0  0  0  0  0
    7.4613    0.8015    0.0000 H   0  0  0  0  0  0  0  0  0  0  0  0
    6.6643    0.8015    0.0000 H   0  0  0  0  0  0  0  0  0  0  0  0
    9.4875    0.2275    0.0000 H   0  0  0  0  0  0  0  0  0  0  0  0
    4.7681   -0.6496    0.0000 H   0  0  0  0  0  0  0  0  0  0  0  0
    3.9700   -0.6342    0.0000 H   0  0  0  0  0  0  0  0  0  0  0  0
    9.9195   -1.0882    0.0000 H   0  0  0  0  0  0  0  0  0  0  0  0
    9.9195   -0.2587    0.0000 H   0  0  0  0  0  0  0  0  0  0  0  0
    7.2306   -2.8380    0.0000 H   0  0  0  0  0  0  0  0  0  0  0  0
    8.1041   -2.9144    0.0000 H   0  0  0  0  0  0  0  0  0  0  0  0
    8.1805   -2.0410    0.0000 H   0  0  0  0  0  0  0  0  0  0  0  0
    7.6884   -2.3252    0.0000 H   0  0  0  0  0  0  0  0  0  0  0  0
    8.4830   -2.6957    0.0000 H   0  0  0  0  0  0  0  0  0  0  0  0
    8.8535   -1.9010    0.0000 H   0  0  0  0  0  0  0  0  0  0  0  0
    5.9145   -0.6851    0.0000 H   0  0  0  0  0  0  0  0  0  0  0  0
    5.2993   -0.0604    0.0000 H   0  0  0  0  0  0  0  0  0  0  0  0
    4.6745   -0.6756    0.0000 H   0  0  0  0  0  0  0  0  0  0  0  0
    3.4025   -3.3491    0.0000 H   0  0  0  0  0  0  0  0  0  0  0  0
    3.2075   -1.0589    0.0000 H   0  0  0  0  0  0  0  0  0  0  0  0
    2.8004   -1.7456    0.0000 H   0  0  0  0  0  0  0  0  0  0  0  0
    3.3085   -3.8316    0.0000 H   0  0  0  0  0  0  0  0  0  0  0  0
    3.5387   -4.6777    0.0000 H   0  0  0  0  0  0  0  0  0  0  0  0
    4.3848   -4.4475    0.0000 H   0  0  0  0  0  0  0  0  0  0  0  0
    4.3109   -4.4478    0.0000 H   0  0  0  0  0  0  0  0  0  0  0  0
    5.1587   -4.6715    0.0000 H   0  0  0  0  0  0  0  0  0  0  0  0
    5.3824   -3.8236    0.0000 H   0  0  0  0  0  0  0  0  0  0  0  0
    2.0000   -2.9137    0.0000 H   0  0  0  0  0  0  0  0  0  0  0  0
   10.1848    0.6684    0.0000 H   0  0  0  0  0  0  0  0  0  0  0  0
   10.7780    1.2007    0.0000 H   0  0  0  0  0  0  0  0  0  0  0  0
    8.7105    2.4154    0.0000 H   0  0  0  0  0  0  0  0  0  0  0  0
    7.9112    1.6982    0.0000 H   0  0  0  0  0  0  0  0  0  0  0  0
   10.4543    2.8582    0.0000 H   0  0  0  0  0  0  0  0  0  0  0  0
    9.8611    2.3259    0.0000 H   0  0  0  0  0  0  0  0  0  0  0  0
   11.8674    1.9833    0.0000 H   0  0  0  0  0  0  0  0  0  0  0  0
   12.8704    2.9948    0.0000 H   0  0  0  0  0  0  0  0  0  0  0  0
   13.3492    3.7294    0.0000 H   0  0  0  0  0  0  0  0  0  0  0  0
   12.6147    4.2082    0.0000 H   0  0  0  0  0  0  0  0  0  0  0  0
   11.5577    4.5536    0.0000 H   0  0  0  0  0  0  0  0  0  0  0  0
   10.6821    4.6010    0.0000 H   0  0  0  0  0  0  0  0  0  0  0  0
   10.6347    3.7255    0.0000 H   0  0  0  0  0  0  0  0  0  0  0  0
  1 20  1  0  0  0  0
  1 68  1  0  0  0  0
  2  3  1  0  0  0  0
  2  4  1  0  0  0  0
  2  8  1  0  0  0  0
  2 17  1  0  0  0  0
  3  6  1  0  0  0  0
  3 11  1  0  0  0  0
  3 18  1  0  0  0  0
  4  5  1  0  0  0  0
  4  9  1  0  0  0  0
  4 32  1  0  0  0  0
  5  7  1  0  0  0  0
  5 15  1  0  0  0  0
  5 19  1  0  0  0  0
  6 12  1  0  0  0  0
  6 13  1  0  0  0  0
  6 33  1  0  0  0  0
  7 10  1  0  0  0  0
  7 14  1  0  0  0  0
  7 34  1  0  0  0  0
  8 10  1  0  0  0  0
  8 35  1  0  0  0  0
  8 36  1  0  0  0  0
  9 12  1  0  0  0  0
  9 37  1  0  0  0  0
  9 38  1  0  0  0  0
 10 39  1  0  0  0  0
 10 40  1  0  0  0  0
 11 16  1  0  0  0  0
 11 41  1  0  0  0  0
 11 42  1  0  0  0  0
 12 43  1  0  0  0  0
 12 44  1  0  0  0  0
 13 16  1  0  0  0  0
 13 24  1  0  0  0  0
 13 45  1  0  0  0  0
 14 20  1  0  0  0  0
 14 22  1  0  0  0  0
 14 23  1  0  0  0  0
 15 21  1  0  0  0  0
 15 46  1  0  0  0  0
 15 47  1  0  0  0  0
 16 48  1  0  0  0  0
 16 49  1  0  0  0  0
 17 50  1  0  0  0  0
 17 51  1  0  0  0  0
 17 52  1  0  0  0  0
 18 53  1  0  0  0  0
 18 54  1  0  0  0  0
 18 55  1  0  0  0  0
 19 56  1  0  0  0  0
 19 57  1  0  0  0  0
 19 58  1  0  0  0  0
 20 21  1  0  0  0  0
 20 59  1  0  0  0  0
 21 60  1  0  0  0  0
 21 61  1  0  0  0  0
 22 62  1  0  0  0  0
 22 63  1  0  0  0  0
 22 64  1  0  0  0  0
 23 65  1  0  0  0  0
 23 66  1  0  0  0  0
 23 67  1  0  0  0  0
 24 25  1  0  0  0  0
 24 26  2  0  0  0  0
 25 27  1  0  0  0  0
 25 69  1  0  0  0  0
 25 70  1  0  0  0  0
 26 71  1  0  0  0  0
 26 72  1  0  0  0  0
 27 28  1  0  0  0  0
 27 73  1  0  0  0  0
 27 74  1  0  0  0  0
 28 29  2  0  0  0  0
 28 75  1  0  0  0  0
 29 30  1  0  0  0  0
 29 31  1  0  0  0  0
 30 76  1  0  0  0  0
 30 77  1  0  0  0  0
 30 78  1  0  0  0  0
 31 79  1  0  0  0  0
 31 80  1  0  0  0  0
 31 81  1  0  0  0  0
M  END
>  <PUBCHEM_COMPOUND_CID>
13893944

>  <PUBCHEM_COMPOUND_CANONICALIZED>
1

>  <PUBCHEM_CACTVS_COMPLEXITY>
742

>  <PUBCHEM_CACTVS_HBOND_ACCEPTOR>
1

>  <PUBCHEM_CACTVS_HBOND_DONOR>
1

>  <PUBCHEM_CACTVS_ROTATABLE_BOND>
4

>  <PUBCHEM_CACTVS_SUBSKEYS>
AAADcfB4IAAAAAAAAAAAAAAAAAAAAYAAAAAwYMAAAAAAAGDAAAAAGgAACAAADxSggAICAAAAAgCAAiBCAAAAAAAgAAAACAAAAAgAEAIAAQAAQAAEgAAIAAOAwPAPgAAAAAAAAADAAAYAADAAAQAACAAAAA==

>  <PUBCHEM_IUPAC_OPENEYE_NAME>
4,4,8,10,14-pentamethyl-17-(5-methyl-1-methylene-hex-4-enyl)-2,3,5,6,7,9,11,12,13,15,16,17-dodecahydro-1H-cyclopenta[a]phenanthren-3-ol

>  <PUBCHEM_IUPAC_CAS_NAME>
4,4,8,10,14-pentamethyl-17-(6-methylhepta-1,5-dien-2-yl)-2,3,5,6,7,9,11,12,13,15,16,17-dodecahydro-1H-cyclopenta[a]phenanthren-3-ol

>  <PUBCHEM_IUPAC_NAME>
4,4,8,10,14-pentamethyl-17-(6-methylhepta-1,5-dien-2-yl)-2,3,5,6,7,9,11,12,13,15,16,17-dodecahydro-1H-cyclopenta[a]phenanthren-3-ol

>  <PUBCHEM_IUPAC_SYSTEMATIC_NAME>
4,4,8,10,14-pentamethyl-17-(6-methylhepta-1,5-dien-2-yl)-2,3,5,6,7,9,11,12,13,15,16,17-dodecahydro-1H-cyclopenta[a]phenanthren-3-ol

>  <PUBCHEM_IUPAC_TRADITIONAL_NAME>
4,4,8,10,14-pentamethyl-17-(5-methyl-1-methylene-hex-4-enyl)-2,3,5,6,7,9,11,12,13,15,16,17-dodecahydro-1H-cyclopenta[a]phenanthren-3-ol

>  <PUBCHEM_IUPAC_INCHI>
InChI=1S/C30H50O/c1-20(2)10-9-11-21(3)22-14-18-29(7)23(22)12-13-25-28(6)17-16-26(31)27(4,5)24(28)15-19-30(25,29)8/h10,22-26,31H,3,9,11-19H2,1-2,4-8H3

>  <PUBCHEM_IUPAC_INCHIKEY>
WZAMDSBJONFHAO-UHFFFAOYSA-N

>  <PUBCHEM_XLOGP3_AA>
10

>  <PUBCHEM_EXACT_MASS>
426.386

>  <PUBCHEM_MOLECULAR_FORMULA>
C30H50O

>  <PUBCHEM_MOLECULAR_WEIGHT>
426.729

>  <PUBCHEM_OPENEYE_CAN_SMILES>
CC(=CCCC(=C)C1CCC2(C1CCC3C2(CCC4C3(CCC(C4(C)C)O)C)C)C)C

>  <PUBCHEM_OPENEYE_ISO_SMILES>
CC(=CCCC(=C)C1CCC2(C1CCC3C2(CCC4C3(CCC(C4(C)C)O)C)C)C)C

>  <PUBCHEM_CACTVS_TPSA>
20.2

>  <PUBCHEM_MONOISOTOPIC_WEIGHT>
426.386

>  <PUBCHEM_TOTAL_CHARGE>
0

>  <PUBCHEM_HEAVY_ATOM_COUNT>
31

>  <PUBCHEM_ATOM_DEF_STEREO_COUNT>
0

>  <PUBCHEM_ATOM_UDEF_STEREO_COUNT>
8

>  <PUBCHEM_BOND_DEF_STEREO_COUNT>
0

>  <PUBCHEM_BOND_UDEF_STEREO_COUNT>
0

>  <PUBCHEM_ISOTOPIC_ATOM_COUNT>
0

>  <PUBCHEM_COMPONENT_COUNT>
1

>  <PUBCHEM_CACTVS_TAUTO_COUNT>
1

>  <PUBCHEM_COORDINATE_TYPE>
1
5
255

>  <PUBCHEM_BONDANNOTATIONS>
20  1  3
13  24  3
2  17  3
3  18  3
4  9  3
5  19  3
6  12  3
7  14  3

$$$$
