13915428
 OpenBabel06101807152D

 31 34  0  0  0  0  0  0  0  0999 V2000
    2.8660    0.4894    0.0000 O   0  0  0  0  0  0  0  0  0  0  0  0
    6.3981   -0.5314    0.0000 O   0  0  0  0  0  0  0  0  0  0  0  0
    2.8611    2.4747    0.0000 O   0  0  0  0  0  0  0  0  0  0  0  0
    6.3038   -2.5636    0.0000 O   0  0  0  0  0  0  0  0  0  0  0  0
    4.5632    3.4884    0.0000 O   0  0  0  0  0  0  0  0  0  0  0  0
    4.5632   -3.5095    0.0000 O   0  0  0  0  0  0  0  0  0  0  0  0
    7.2622    1.0136    0.0000 O   0  0  0  0  0  0  0  0  0  0  0  0
    2.0000   -1.0106    0.0000 O   0  0  0  0  0  0  0  0  0  0  0  0
    4.5981    0.4894    0.0000 C   0  0  0  0  0  0  0  0  0  0  0  0
    4.5981   -0.5106    0.0000 C   0  0  0  0  0  0  0  0  0  0  0  0
    5.4920    1.0241    0.0000 C   0  0  0  0  0  0  0  0  0  0  0  0
    3.7320    0.9894    0.0000 C   0  0  0  0  0  0  0  0  0  0  0  0
    3.7320   -1.0106    0.0000 C   0  0  0  0  0  0  0  0  0  0  0  0
    5.4920   -1.0452    0.0000 C   0  0  0  0  0  0  0  0  0  0  0  0
    3.7308    1.9811    0.0000 C   0  0  0  0  0  0  0  0  0  0  0  0
    5.4542    2.0151    0.0000 C   0  0  0  0  0  0  0  0  0  0  0  0
    5.4542   -2.0362    0.0000 C   0  0  0  0  0  0  0  0  0  0  0  0
    3.7308   -2.0023    0.0000 C   0  0  0  0  0  0  0  0  0  0  0  0
    6.3981    0.5102    0.0000 C   0  0  0  0  0  0  0  0  0  0  0  0
    2.8660   -0.5106    0.0000 C   0  0  0  0  0  0  0  0  0  0  0  0
    4.5828    2.4886    0.0000 C   0  0  0  0  0  0  0  0  0  0  0  0
    4.5828   -2.5097    0.0000 C   0  0  0  0  0  0  0  0  0  0  0  0
    2.8537    3.4747    0.0000 C   0  0  0  0  0  0  0  0  0  0  0  0
    5.9810    2.3421    0.0000 H   0  0  0  0  0  0  0  0  0  0  0  0
    3.1916   -2.3083    0.0000 H   0  0  0  0  0  0  0  0  0  0  0  0
    6.2840   -3.1833    0.0000 H   0  0  0  0  0  0  0  0  0  0  0  0
    5.0939    3.8089    0.0000 H   0  0  0  0  0  0  0  0  0  0  0  0
    4.0202   -3.8089    0.0000 H   0  0  0  0  0  0  0  0  0  0  0  0
    3.4737    3.4793    0.0000 H   0  0  0  0  0  0  0  0  0  0  0  0
    2.8491    4.0947    0.0000 H   0  0  0  0  0  0  0  0  0  0  0  0
    2.2337    3.4701    0.0000 H   0  0  0  0  0  0  0  0  0  0  0  0
  1 12  1  0  0  0  0
  1 20  1  0  0  0  0
  2 14  1  0  0  0  0
  2 19  1  0  0  0  0
  3 15  1  0  0  0  0
  3 23  1  0  0  0  0
  4 17  1  0  0  0  0
  4 26  1  0  0  0  0
  5 21  1  0  0  0  0
  5 27  1  0  0  0  0
  6 22  1  0  0  0  0
  6 28  1  0  0  0  0
  7 19  2  0  0  0  0
  8 20  2  0  0  0  0
  9 10  1  0  0  0  0
  9 11  1  0  0  0  0
  9 12  2  0  0  0  0
 10 13  1  0  0  0  0
 10 14  2  0  0  0  0
 11 16  2  0  0  0  0
 11 19  1  0  0  0  0
 12 15  1  0  0  0  0
 13 18  2  0  0  0  0
 13 20  1  0  0  0  0
 14 17  1  0  0  0  0
 15 21  2  0  0  0  0
 16 21  1  0  0  0  0
 16 24  1  0  0  0  0
 17 22  2  0  0  0  0
 18 22  1  0  0  0  0
 18 25  1  0  0  0  0
 23 29  1  0  0  0  0
 23 30  1  0  0  0  0
 23 31  1  0  0  0  0
M  END
>  <PUBCHEM_COMPOUND_CID>
13915428

>  <PUBCHEM_COMPOUND_CANONICALIZED>
1

>  <PUBCHEM_CACTVS_COMPLEXITY>
536

>  <PUBCHEM_CACTVS_HBOND_ACCEPTOR>
8

>  <PUBCHEM_CACTVS_HBOND_DONOR>
3

>  <PUBCHEM_CACTVS_ROTATABLE_BOND>
1

>  <PUBCHEM_CACTVS_SUBSKEYS>
AAADccBwPAAAAAAAAAAAAAAAAAAAAAAAAAA0aIEAAAAAAACRQAAAGgAACAAADASAmAIyDoAABgCIAiDSCAACCAAkIAAAiAEGiMgNJzKGNBqCeyOlwBULuYfK7PzOoAABCAAYQABAAAIQADCAAAAAAAAAAA==

>  <PUBCHEM_IUPAC_INCHI>
InChI=1S/C15H8O8/c1-21-11-7(17)3-5-9-8-4(15(20)23-13(9)11)2-6(16)10(18)12(8)22-14(5)19/h2-3,16-18H,1H3

>  <PUBCHEM_IUPAC_INCHIKEY>
FAARLWTXUUQFSN-UHFFFAOYSA-N

>  <PUBCHEM_XLOGP3_AA>
1.4

>  <PUBCHEM_EXACT_MASS>
316.022

>  <PUBCHEM_MOLECULAR_FORMULA>
C15H8O8

>  <PUBCHEM_MOLECULAR_WEIGHT>
316.221

>  <PUBCHEM_OPENEYE_CAN_SMILES>
COC1=C(C=C2C3=C1OC(=O)C4=CC(=C(C(=C43)OC2=O)O)O)O

>  <PUBCHEM_OPENEYE_ISO_SMILES>
COC1=C(C=C2C3=C1OC(=O)C4=CC(=C(C(=C43)OC2=O)O)O)O

>  <PUBCHEM_CACTVS_TPSA>
123

>  <PUBCHEM_MONOISOTOPIC_WEIGHT>
316.022

>  <PUBCHEM_TOTAL_CHARGE>
0

>  <PUBCHEM_HEAVY_ATOM_COUNT>
23

>  <PUBCHEM_ATOM_DEF_STEREO_COUNT>
0

>  <PUBCHEM_ATOM_UDEF_STEREO_COUNT>
0

>  <PUBCHEM_BOND_DEF_STEREO_COUNT>
0

>  <PUBCHEM_BOND_UDEF_STEREO_COUNT>
0

>  <PUBCHEM_ISOTOPIC_ATOM_COUNT>
0

>  <PUBCHEM_COMPONENT_COUNT>
1

>  <PUBCHEM_CACTVS_TAUTO_COUNT>
77

>  <PUBCHEM_COORDINATE_TYPE>
1
5
255

>  <PUBCHEM_BONDANNOTATIONS>
1  12  8
1  20  8
10  13  8
10  14  8
11  16  8
11  19  8
12  15  8
13  18  8
13  20  8
14  17  8
15  21  8
16  21  8
17  22  8
18  22  8
2  14  8
2  19  8
9  10  8
9  11  8
9  12  8

$$$$
