13940617
 OpenBabel06101807152D

 55 58  0  0  1  0  0  0  0  0999 V2000
    5.1350   -1.6725    0.0000 O   0  0  0  0  0  0  0  0  0  0  0  0
    6.8671   -1.6725    0.0000 O   0  0  0  0  0  0  0  0  0  0  0  0
    5.1350   -4.6725    0.0000 O   0  0  0  0  0  0  0  0  0  0  0  0
    3.4030   -3.6725    0.0000 O   0  0  0  0  0  0  0  0  0  0  0  0
    6.8671   -3.6725    0.0000 O   0  0  0  0  0  0  0  0  0  0  0  0
    2.5369   -2.1725    0.0000 O   0  0  0  0  0  0  0  0  0  0  0  0
    8.6431    1.3343    0.0000 O   0  0  0  0  0  0  0  0  0  0  0  0
    5.1350   -0.6725    0.0000 O   0  0  0  0  0  0  0  0  0  0  0  0
    5.1350    1.3275    0.0000 O   0  0  0  0  0  0  0  0  0  0  0  0
    5.9793    2.8589    0.0000 O   0  0  0  0  0  0  0  0  0  0  0  0
   12.1229    4.3625    0.0000 O   0  0  0  0  0  0  0  0  0  0  0  0
    5.1350   -3.6725    0.0000 C   0  0  3  0  0  0  0  0  0  0  0  0
    4.2690   -3.1725    0.0000 C   0  0  3  0  0  0  0  0  0  0  0  0
    6.0010   -3.1725    0.0000 C   0  0  3  0  0  0  0  0  0  0  0  0
    4.2690   -2.1725    0.0000 C   0  0  3  0  0  0  0  0  0  0  0  0
    6.0010   -2.1725    0.0000 C   0  0  3  0  0  0  0  0  0  0  0  0
    3.4030   -1.6725    0.0000 C   0  0  0  0  0  0  0  0  0  0  0  0
    6.8671   -0.6725    0.0000 C   0  0  0  0  0  0  0  0  0  0  0  0
    6.0010   -0.1725    0.0000 C   0  0  0  0  0  0  0  0  0  0  0  0
    7.7331   -0.1725    0.0000 C   0  0  0  0  0  0  0  0  0  0  0  0
    7.7331    0.8275    0.0000 C   0  0  0  0  0  0  0  0  0  0  0  0
    6.8671    1.3275    0.0000 C   0  0  0  0  0  0  0  0  0  0  0  0
    6.0010    0.8275    0.0000 C   0  0  0  0  0  0  0  0  0  0  0  0
    6.8510    2.3690    0.0000 C   0  0  0  0  0  0  0  0  0  0  0  0
    8.6511    2.3759    0.0000 C   0  0  0  0  0  0  0  0  0  0  0  0
    7.7490    2.8967    0.0000 C   0  0  0  0  0  0  0  0  0  0  0  0
    9.5191    2.8726    0.0000 C   0  0  0  0  0  0  0  0  0  0  0  0
    4.2690   -0.1725    0.0000 C   0  0  0  0  0  0  0  0  0  0  0  0
   10.3832    2.3692    0.0000 C   0  0  0  0  0  0  0  0  0  0  0  0
    9.5229    3.8726    0.0000 C   0  0  0  0  0  0  0  0  0  0  0  0
   11.2511    2.8659    0.0000 C   0  0  0  0  0  0  0  0  0  0  0  0
   10.3909    4.3692    0.0000 C   0  0  0  0  0  0  0  0  0  0  0  0
   11.2550    3.8659    0.0000 C   0  0  0  0  0  0  0  0  0  0  0  0
    5.6720   -3.9825    0.0000 H   0  0  0  0  0  0  0  0  0  0  0  0
    4.2690   -3.7925    0.0000 H   0  0  0  0  0  0  0  0  0  0  0  0
    6.5380   -2.8625    0.0000 H   0  0  0  0  0  0  0  0  0  0  0  0
    4.2690   -1.5525    0.0000 H   0  0  0  0  0  0  0  0  0  0  0  0
    6.0010   -1.5525    0.0000 H   0  0  0  0  0  0  0  0  0  0  0  0
    3.8015   -1.1976    0.0000 H   0  0  0  0  0  0  0  0  0  0  0  0
    3.0044   -1.1976    0.0000 H   0  0  0  0  0  0  0  0  0  0  0  0
    4.5981   -4.9825    0.0000 H   0  0  0  0  0  0  0  0  0  0  0  0
    3.4030   -4.2925    0.0000 H   0  0  0  0  0  0  0  0  0  0  0  0
    6.8671   -4.2925    0.0000 H   0  0  0  0  0  0  0  0  0  0  0  0
    2.0000   -1.8625    0.0000 H   0  0  0  0  0  0  0  0  0  0  0  0
    8.2700   -0.4825    0.0000 H   0  0  0  0  0  0  0  0  0  0  0  0
    7.7466    3.5167    0.0000 H   0  0  0  0  0  0  0  0  0  0  0  0
    4.5981    1.0175    0.0000 H   0  0  0  0  0  0  0  0  0  0  0  0
    4.5790    0.3644    0.0000 H   0  0  0  0  0  0  0  0  0  0  0  0
    3.7320    0.1375    0.0000 H   0  0  0  0  0  0  0  0  0  0  0  0
    3.9590   -0.7095    0.0000 H   0  0  0  0  0  0  0  0  0  0  0  0
   10.3808    1.7492    0.0000 H   0  0  0  0  0  0  0  0  0  0  0  0
    8.9872    4.1846    0.0000 H   0  0  0  0  0  0  0  0  0  0  0  0
   11.7868    2.5538    0.0000 H   0  0  0  0  0  0  0  0  0  0  0  0
   10.3933    4.9892    0.0000 H   0  0  0  0  0  0  0  0  0  0  0  0
   12.1253    4.9825    0.0000 H   0  0  0  0  0  0  0  0  0  0  0  0
  1 15  1  0  0  0  0
  1 16  1  0  0  0  0
  2 16  1  0  0  0  0
  2 18  1  0  0  0  0
  3 12  1  0  0  0  0
  3 41  1  0  0  0  0
  4 13  1  0  0  0  0
  4 42  1  0  0  0  0
  5 14  1  0  0  0  0
  5 43  1  0  0  0  0
  6 17  1  0  0  0  0
  6 44  1  0  0  0  0
  7 21  1  0  0  0  0
  7 25  1  0  0  0  0
  8 19  1  0  0  0  0
  8 28  1  0  0  0  0
  9 23  1  0  0  0  0
  9 47  1  0  0  0  0
 10 24  2  0  0  0  0
 11 33  1  0  0  0  0
 11 55  1  0  0  0  0
 12 13  1  0  0  0  0
 12 14  1  0  0  0  0
 12 34  1  0  0  0  0
 13 15  1  0  0  0  0
 13 35  1  0  0  0  0
 14 16  1  0  0  0  0
 14 36  1  0  0  0  0
 15 17  1  0  0  0  0
 15 37  1  0  0  0  0
 16 38  1  0  0  0  0
 17 39  1  0  0  0  0
 17 40  1  0  0  0  0
 18 19  2  0  0  0  0
 18 20  1  0  0  0  0
 19 23  1  0  0  0  0
 20 21  2  0  0  0  0
 20 45  1  0  0  0  0
 21 22  1  0  0  0  0
 22 23  2  0  0  0  0
 22 24  1  0  0  0  0
 24 26  1  0  0  0  0
 25 26  2  0  0  0  0
 25 27  1  0  0  0  0
 26 46  1  0  0  0  0
 27 29  2  0  0  0  0
 27 30  1  0  0  0  0
 28 48  1  0  0  0  0
 28 49  1  0  0  0  0
 28 50  1  0  0  0  0
 29 31  1  0  0  0  0
 29 51  1  0  0  0  0
 30 32  2  0  0  0  0
 30 52  1  0  0  0  0
 31 33  2  0  0  0  0
 31 53  1  0  0  0  0
 32 33  1  0  0  0  0
 32 54  1  0  0  0  0
M  END
>  <PUBCHEM_COMPOUND_CID>
13940617

>  <PUBCHEM_COMPOUND_CANONICALIZED>
1

>  <PUBCHEM_CACTVS_COMPLEXITY>
721

>  <PUBCHEM_CACTVS_HBOND_ACCEPTOR>
11

>  <PUBCHEM_CACTVS_HBOND_DONOR>
6

>  <PUBCHEM_CACTVS_ROTATABLE_BOND>
5

>  <PUBCHEM_CACTVS_SUBSKEYS>
AAADceB4PAAAAAAAAAAAAAAAAAAAAAAAAAA0YIEAAAAAAACBQAAAGgAACAAADBSwmAMyDoAABgCIAqBSAAACCAAkIAAIiAEGiMgdNzaGNRqieWOl4BUPuQfK7LzOIQABCAAIQABCAAIQABCAAAAAAAAAAA==

>  <PUBCHEM_IUPAC_OPENEYE_NAME>
5-hydroxy-2-(4-hydroxyphenyl)-6-methoxy-7-[3,4,5-trihydroxy-6-(hydroxymethyl)tetrahydropyran-2-yl]oxy-chromen-4-one

>  <PUBCHEM_IUPAC_CAS_NAME>
5-hydroxy-2-(4-hydroxyphenyl)-6-methoxy-7-[[3,4,5-trihydroxy-6-(hydroxymethyl)-2-oxanyl]oxy]-1-benzopyran-4-one

>  <PUBCHEM_IUPAC_NAME>
5-hydroxy-2-(4-hydroxyphenyl)-6-methoxy-7-[3,4,5-trihydroxy-6-(hydroxymethyl)oxan-2-yl]oxychromen-4-one

>  <PUBCHEM_IUPAC_SYSTEMATIC_NAME>
7-[6-(hydroxymethyl)-3,4,5-tris(oxidanyl)oxan-2-yl]oxy-2-(4-hydroxyphenyl)-6-methoxy-5-oxidanyl-chromen-4-one

>  <PUBCHEM_IUPAC_TRADITIONAL_NAME>
5-hydroxy-2-(4-hydroxyphenyl)-6-methoxy-7-(3,4,5-trihydroxy-6-methylol-tetrahydropyran-2-yl)oxy-chromone

>  <PUBCHEM_IUPAC_INCHI>
InChI=1S/C22H22O11/c1-30-21-14(32-22-20(29)19(28)17(26)15(8-23)33-22)7-13-16(18(21)27)11(25)6-12(31-13)9-2-4-10(24)5-3-9/h2-7,15,17,19-20,22-24,26-29H,8H2,1H3

>  <PUBCHEM_IUPAC_INCHIKEY>
GCLAFEGUXXHIFT-UHFFFAOYSA-N

>  <PUBCHEM_XLOGP3_AA>
0.8

>  <PUBCHEM_EXACT_MASS>
462.116

>  <PUBCHEM_MOLECULAR_FORMULA>
C22H22O11

>  <PUBCHEM_MOLECULAR_WEIGHT>
462.407

>  <PUBCHEM_OPENEYE_CAN_SMILES>
COC1=C(C=C2C(=C1O)C(=O)C=C(O2)C3=CC=C(C=C3)O)OC4C(C(C(C(O4)CO)O)O)O

>  <PUBCHEM_OPENEYE_ISO_SMILES>
COC1=C(C=C2C(=C1O)C(=O)C=C(O2)C3=CC=C(C=C3)O)OC4C(C(C(C(O4)CO)O)O)O

>  <PUBCHEM_CACTVS_TPSA>
175

>  <PUBCHEM_MONOISOTOPIC_WEIGHT>
462.116

>  <PUBCHEM_TOTAL_CHARGE>
0

>  <PUBCHEM_HEAVY_ATOM_COUNT>
33

>  <PUBCHEM_ATOM_DEF_STEREO_COUNT>
0

>  <PUBCHEM_ATOM_UDEF_STEREO_COUNT>
5

>  <PUBCHEM_BOND_DEF_STEREO_COUNT>
0

>  <PUBCHEM_BOND_UDEF_STEREO_COUNT>
0

>  <PUBCHEM_ISOTOPIC_ATOM_COUNT>
0

>  <PUBCHEM_COMPONENT_COUNT>
1

>  <PUBCHEM_CACTVS_TAUTO_COUNT>
24

>  <PUBCHEM_COORDINATE_TYPE>
1
5
255

>  <PUBCHEM_BONDANNOTATIONS>
15  17  3
18  19  8
18  20  8
19  23  8
16  2  3
20  21  8
21  22  8
22  23  8
22  24  8
24  26  8
25  26  8
27  29  8
27  30  8
29  31  8
12  3  3
30  32  8
31  33  8
32  33  8
13  4  3
14  5  3
7  21  8
7  25  8

$$$$
