13942388
 OpenBabel06101807152D

 94 99  0  0  1  0  0  0  0  0999 V2000
   10.4037    0.0950    0.0000 O   0  0  0  0  0  0  0  0  0  0  0  0
    9.5376   -2.4050    0.0000 O   0  0  0  0  0  0  0  0  0  0  0  0
    7.8056   -2.4050    0.0000 O   0  0  0  0  0  0  0  0  0  0  0  0
   11.2697   -2.4050    0.0000 O   0  0  0  0  0  0  0  0  0  0  0  0
   11.2697    1.5950    0.0000 O   0  0  0  0  0  0  0  0  0  0  0  0
   13.0017   -1.4050    0.0000 O   0  0  0  0  0  0  0  0  0  0  0  0
    4.2755    3.6258    0.0000 O   0  0  0  0  0  0  0  0  0  0  0  0
   13.0017    0.5950    0.0000 O   0  0  0  0  0  0  0  0  0  0  0  0
    9.5376   -4.4050    0.0000 O   0  0  0  0  0  0  0  0  0  0  0  0
    7.8056   -5.4050    0.0000 O   0  0  0  0  0  0  0  0  0  0  0  0
    6.0736   -4.4050    0.0000 O   0  0  0  0  0  0  0  0  0  0  0  0
    6.0075    3.6192    0.0000 O   0  0  0  0  0  0  0  0  0  0  0  0
    4.2639    0.6258    0.0000 O   0  0  0  0  0  0  0  0  0  0  0  0
    2.5357    1.6325    0.0000 O   0  0  0  0  0  0  0  0  0  0  0  0
    5.9998    1.6192    0.0000 O   0  0  0  0  0  0  0  0  0  0  0  0
    2.5473    4.6325    0.0000 O   0  0  0  0  0  0  0  0  0  0  0  0
    9.5376    3.5950    0.0000 O   0  0  0  0  0  0  0  0  0  0  0  0
    9.5376    0.5950    0.0000 O   0  0  0  0  0  0  0  0  0  0  0  0
    7.7892    0.5604    0.0000 O   0  0  0  0  0  0  0  0  0  0  0  0
   13.8678    3.0950    0.0000 O   0  0  0  0  0  0  0  0  0  0  0  0
   13.8678    5.0950    0.0000 O   0  0  0  0  0  0  0  0  0  0  0  0
   10.4037   -0.9050    0.0000 C   0  0  3  0  0  0  0  0  0  0  0  0
   11.2697   -1.4050    0.0000 C   0  0  3  0  0  0  0  0  0  0  0  0
   12.1357   -0.9050    0.0000 C   0  0  3  0  0  0  0  0  0  0  0  0
   12.1357    0.0950    0.0000 C   0  0  3  0  0  0  0  0  0  0  0  0
    8.6716   -3.9050    0.0000 C   0  0  3  0  0  0  0  0  0  0  0  0
    8.6716   -2.9050    0.0000 C   0  0  3  0  0  0  0  0  0  0  0  0
    7.8056   -4.4050    0.0000 C   0  0  3  0  0  0  0  0  0  0  0  0
   11.2697    0.5950    0.0000 C   0  0  3  0  0  0  0  0  0  0  0  0
    6.9396   -3.9050    0.0000 C   0  0  3  0  0  0  0  0  0  0  0  0
    9.5376   -1.4050    0.0000 C   0  0  0  0  0  0  0  0  0  0  0  0
    6.9396   -2.9050    0.0000 C   0  0  3  0  0  0  0  0  0  0  0  0
    4.2678    1.6258    0.0000 C   0  0  3  0  0  0  0  0  0  0  0  0
    3.4037    2.1292    0.0000 C   0  0  3  0  0  0  0  0  0  0  0  0
    5.1357    2.1225    0.0000 C   0  0  3  0  0  0  0  0  0  0  0  0
    3.4075    3.1292    0.0000 C   0  0  3  0  0  0  0  0  0  0  0  0
    5.1396    3.1225    0.0000 C   0  0  3  0  0  0  0  0  0  0  0  0
    6.0736   -2.4050    0.0000 C   0  0  0  0  0  0  0  0  0  0  0  0
    2.5434    3.6325    0.0000 C   0  0  0  0  0  0  0  0  0  0  0  0
   10.4037    2.0950    0.0000 C   0  0  0  0  0  0  0  0  0  0  0  0
    6.8716    3.1158    0.0000 C   0  0  0  0  0  0  0  0  0  0  0  0
   10.4037    3.0950    0.0000 C   0  0  0  0  0  0  0  0  0  0  0  0
    9.5376    1.5950    0.0000 C   0  0  0  0  0  0  0  0  0  0  0  0
    8.6716    2.0950    0.0000 C   0  0  0  0  0  0  0  0  0  0  0  0
    8.6716    3.0950    0.0000 C   0  0  0  0  0  0  0  0  0  0  0  0
    7.7777    3.6297    0.0000 C   0  0  0  0  0  0  0  0  0  0  0  0
    6.8716    2.0742    0.0000 C   0  0  0  0  0  0  0  0  0  0  0  0
    7.7777    1.5603    0.0000 C   0  0  0  0  0  0  0  0  0  0  0  0
   11.2697    3.5950    0.0000 C   0  0  0  0  0  0  0  0  0  0  0  0
   12.1357    3.0950    0.0000 C   0  0  0  0  0  0  0  0  0  0  0  0
   11.2697    4.5950    0.0000 C   0  0  0  0  0  0  0  0  0  0  0  0
   13.0017    3.5950    0.0000 C   0  0  0  0  0  0  0  0  0  0  0  0
   12.1357    5.0950    0.0000 C   0  0  0  0  0  0  0  0  0  0  0  0
   13.0017    4.5950    0.0000 C   0  0  0  0  0  0  0  0  0  0  0  0
    9.8667   -0.5950    0.0000 H   0  0  0  0  0  0  0  0  0  0  0  0
   10.7328   -1.7150    0.0000 H   0  0  0  0  0  0  0  0  0  0  0  0
   12.6727   -0.5950    0.0000 H   0  0  0  0  0  0  0  0  0  0  0  0
   12.1357    0.7150    0.0000 H   0  0  0  0  0  0  0  0  0  0  0  0
    9.2086   -3.5950    0.0000 H   0  0  0  0  0  0  0  0  0  0  0  0
    8.6716   -2.2850    0.0000 H   0  0  0  0  0  0  0  0  0  0  0  0
    8.3425   -4.7150    0.0000 H   0  0  0  0  0  0  0  0  0  0  0  0
   10.7328    0.9050    0.0000 H   0  0  0  0  0  0  0  0  0  0  0  0
    6.4026   -3.5950    0.0000 H   0  0  0  0  0  0  0  0  0  0  0  0
    9.3256   -0.8224    0.0000 H   0  0  0  0  0  0  0  0  0  0  0  0
    8.9271   -1.5127    0.0000 H   0  0  0  0  0  0  0  0  0  0  0  0
    6.9396   -2.2850    0.0000 H   0  0  0  0  0  0  0  0  0  0  0  0
    3.7296    1.3179    0.0000 H   0  0  0  0  0  0  0  0  0  0  0  0
    2.8680    2.4412    0.0000 H   0  0  0  0  0  0  0  0  0  0  0  0
    5.6738    2.4304    0.0000 H   0  0  0  0  0  0  0  0  0  0  0  0
    3.4099    3.7492    0.0000 H   0  0  0  0  0  0  0  0  0  0  0  0
    5.1420    3.7425    0.0000 H   0  0  0  0  0  0  0  0  0  0  0  0
    6.3835   -1.8681    0.0000 H   0  0  0  0  0  0  0  0  0  0  0  0
    5.5366   -2.0950    0.0000 H   0  0  0  0  0  0  0  0  0  0  0  0
    5.7636   -2.9419    0.0000 H   0  0  0  0  0  0  0  0  0  0  0  0
   10.7328   -2.7150    0.0000 H   0  0  0  0  0  0  0  0  0  0  0  0
   13.0017   -2.0250    0.0000 H   0  0  0  0  0  0  0  0  0  0  0  0
   13.5387    0.2850    0.0000 H   0  0  0  0  0  0  0  0  0  0  0  0
   10.0746   -4.0950    0.0000 H   0  0  0  0  0  0  0  0  0  0  0  0
    7.2687   -5.7150    0.0000 H   0  0  0  0  0  0  0  0  0  0  0  0
    1.9333    3.7425    0.0000 H   0  0  0  0  0  0  0  0  0  0  0  0
    2.3292    3.0507    0.0000 H   0  0  0  0  0  0  0  0  0  0  0  0
    5.5366   -4.0950    0.0000 H   0  0  0  0  0  0  0  0  0  0  0  0
    3.7258    0.3179    0.0000 H   0  0  0  0  0  0  0  0  0  0  0  0
    2.0000    1.9446    0.0000 H   0  0  0  0  0  0  0  0  0  0  0  0
    5.9974    0.9992    0.0000 H   0  0  0  0  0  0  0  0  0  0  0  0
    7.7848    4.2496    0.0000 H   0  0  0  0  0  0  0  0  0  0  0  0
    6.3359    1.7621    0.0000 H   0  0  0  0  0  0  0  0  0  0  0  0
    2.0116    4.9446    0.0000 H   0  0  0  0  0  0  0  0  0  0  0  0
   12.1357    2.4750    0.0000 H   0  0  0  0  0  0  0  0  0  0  0  0
   10.7328    4.9050    0.0000 H   0  0  0  0  0  0  0  0  0  0  0  0
    7.2559    0.2442    0.0000 H   0  0  0  0  0  0  0  0  0  0  0  0
   12.1357    5.7150    0.0000 H   0  0  0  0  0  0  0  0  0  0  0  0
   13.8678    2.4750    0.0000 H   0  0  0  0  0  0  0  0  0  0  0  0
   13.8678    5.7150    0.0000 H   0  0  0  0  0  0  0  0  0  0  0  0
  1 22  1  0  0  0  0
  1 29  1  0  0  0  0
  2 27  1  0  0  0  0
  2 31  1  0  0  0  0
  3 27  1  0  0  0  0
  3 32  1  0  0  0  0
  4 23  1  0  0  0  0
  4 75  1  0  0  0  0
  5 29  1  0  0  0  0
  5 40  1  0  0  0  0
  6 24  1  0  0  0  0
  6 76  1  0  0  0  0
  7 36  1  0  0  0  0
  7 37  1  0  0  0  0
  8 25  1  0  0  0  0
  8 77  1  0  0  0  0
  9 26  1  0  0  0  0
  9 78  1  0  0  0  0
 10 28  1  0  0  0  0
 10 79  1  0  0  0  0
 11 30  1  0  0  0  0
 11 82  1  0  0  0  0
 12 37  1  0  0  0  0
 12 41  1  0  0  0  0
 13 33  1  0  0  0  0
 13 83  1  0  0  0  0
 14 34  1  0  0  0  0
 14 84  1  0  0  0  0
 15 35  1  0  0  0  0
 15 85  1  0  0  0  0
 16 39  1  0  0  0  0
 16 88  1  0  0  0  0
 17 42  1  0  0  0  0
 17 45  1  0  0  0  0
 18 43  2  0  0  0  0
 19 48  1  0  0  0  0
 19 91  1  0  0  0  0
 20 52  1  0  0  0  0
 20 93  1  0  0  0  0
 21 54  1  0  0  0  0
 21 94  1  0  0  0  0
 22 23  1  0  0  0  0
 22 31  1  0  0  0  0
 22 55  1  0  0  0  0
 23 24  1  0  0  0  0
 23 56  1  0  0  0  0
 24 25  1  0  0  0  0
 24 57  1  0  0  0  0
 25 29  1  0  0  0  0
 25 58  1  0  0  0  0
 26 27  1  0  0  0  0
 26 28  1  0  0  0  0
 26 59  1  0  0  0  0
 27 60  1  0  0  0  0
 28 30  1  0  0  0  0
 28 61  1  0  0  0  0
 29 62  1  0  0  0  0
 30 32  1  0  0  0  0
 30 63  1  0  0  0  0
 31 64  1  0  0  0  0
 31 65  1  0  0  0  0
 32 38  1  0  0  0  0
 32 66  1  0  0  0  0
 33 34  1  0  0  0  0
 33 35  1  0  0  0  0
 33 67  1  0  0  0  0
 34 36  1  0  0  0  0
 34 68  1  0  0  0  0
 35 37  1  0  0  0  0
 35 69  1  0  0  0  0
 36 39  1  0  0  0  0
 36 70  1  0  0  0  0
 37 71  1  0  0  0  0
 38 72  1  0  0  0  0
 38 73  1  0  0  0  0
 38 74  1  0  0  0  0
 39 80  1  0  0  0  0
 39 81  1  0  0  0  0
 40 42  2  0  0  0  0
 40 43  1  0  0  0  0
 41 46  1  0  0  0  0
 41 47  2  0  0  0  0
 42 49  1  0  0  0  0
 43 44  1  0  0  0  0
 44 45  1  0  0  0  0
 44 48  2  0  0  0  0
 45 46  2  0  0  0  0
 46 86  1  0  0  0  0
 47 48  1  0  0  0  0
 47 87  1  0  0  0  0
 49 50  2  0  0  0  0
 49 51  1  0  0  0  0
 50 52  1  0  0  0  0
 50 89  1  0  0  0  0
 51 53  2  0  0  0  0
 51 90  1  0  0  0  0
 52 54  2  0  0  0  0
 53 54  1  0  0  0  0
 53 92  1  0  0  0  0
M  END
>  <PUBCHEM_COMPOUND_CID>
13942388

>  <PUBCHEM_COMPOUND_CANONICALIZED>
1

>  <PUBCHEM_CACTVS_COMPLEXITY>
1320

>  <PUBCHEM_CACTVS_HBOND_ACCEPTOR>
21

>  <PUBCHEM_CACTVS_HBOND_DONOR>
13

>  <PUBCHEM_CACTVS_ROTATABLE_BOND>
9

>  <PUBCHEM_CACTVS_SUBSKEYS>
AAADcfB8PgAAAAAAAAAAAAAAAAAAAAAAAAA0aJECAAAAAACBQAAAGgAACAAADBSwmAMyDoAABgCIAqBSAAICCAAkIAAIiAFGiMgdNzaGNR6ieWGl4BUPuQfI7LzOIAABCAAIQABAAAIQABCAAAAAAAAAAA==

>  <PUBCHEM_IUPAC_OPENEYE_NAME>
2-(3,4-dihydroxyphenyl)-5-hydroxy-7-[3,4,5-trihydroxy-6-(hydroxymethyl)tetrahydropyran-2-yl]oxy-3-[3,4,5-trihydroxy-6-[(3,4,5-trihydroxy-6-methyl-tetrahydropyran-2-yl)oxymethyl]tetrahydropyran-2-yl]oxy-chromen-4-one

>  <PUBCHEM_IUPAC_CAS_NAME>
2-(3,4-dihydroxyphenyl)-5-hydroxy-7-[[3,4,5-trihydroxy-6-(hydroxymethyl)-2-oxanyl]oxy]-3-[[3,4,5-trihydroxy-6-[(3,4,5-trihydroxy-6-methyl-2-oxanyl)oxymethyl]-2-oxanyl]oxy]-1-benzopyran-4-one

>  <PUBCHEM_IUPAC_NAME>
2-(3,4-dihydroxyphenyl)-5-hydroxy-7-[3,4,5-trihydroxy-6-(hydroxymethyl)oxan-2-yl]oxy-3-[3,4,5-trihydroxy-6-[(3,4,5-trihydroxy-6-methyloxan-2-yl)oxymethyl]oxan-2-yl]oxychromen-4-one

>  <PUBCHEM_IUPAC_SYSTEMATIC_NAME>
2-[3,4-bis(oxidanyl)phenyl]-7-[6-(hydroxymethyl)-3,4,5-tris(oxidanyl)oxan-2-yl]oxy-3-[6-[[6-methyl-3,4,5-tris(oxidanyl)oxan-2-yl]oxymethyl]-3,4,5-tris(oxidanyl)oxan-2-yl]oxy-5-oxidanyl-chromen-4-one

>  <PUBCHEM_IUPAC_TRADITIONAL_NAME>
2-(3,4-dihydroxyphenyl)-5-hydroxy-7-(3,4,5-trihydroxy-6-methylol-tetrahydropyran-2-yl)oxy-3-[3,4,5-trihydroxy-6-[(3,4,5-trihydroxy-6-methyl-tetrahydropyran-2-yl)oxymethyl]tetrahydropyran-2-yl]oxy-chromone

>  <PUBCHEM_IUPAC_INCHI>
InChI=1S/C33H40O21/c1-9-19(38)23(42)26(45)31(49-9)48-8-17-21(40)25(44)28(47)33(53-17)54-30-22(41)18-14(37)5-11(50-32-27(46)24(43)20(39)16(7-34)52-32)6-15(18)51-29(30)10-2-3-12(35)13(36)4-10/h2-6,9,16-17,19-21,23-28,31-40,42-47H,7-8H2,1H3

>  <PUBCHEM_IUPAC_INCHIKEY>
SPUFXPFDJYNCFD-UHFFFAOYSA-N

>  <PUBCHEM_XLOGP3_AA>
-3.1

>  <PUBCHEM_EXACT_MASS>
772.206

>  <PUBCHEM_MOLECULAR_FORMULA>
C33H40O21

>  <PUBCHEM_MOLECULAR_WEIGHT>
772.662

>  <PUBCHEM_OPENEYE_CAN_SMILES>
CC1C(C(C(C(O1)OCC2C(C(C(C(O2)OC3=C(OC4=CC(=CC(=C4C3=O)O)OC5C(C(C(C(O5)CO)O)O)O)C6=CC(=C(C=C6)O)O)O)O)O)O)O)O

>  <PUBCHEM_OPENEYE_ISO_SMILES>
CC1C(C(C(C(O1)OCC2C(C(C(C(O2)OC3=C(OC4=CC(=CC(=C4C3=O)O)OC5C(C(C(C(O5)CO)O)O)O)C6=CC(=C(C=C6)O)O)O)O)O)O)O)O

>  <PUBCHEM_CACTVS_TPSA>
345

>  <PUBCHEM_MONOISOTOPIC_WEIGHT>
772.206

>  <PUBCHEM_TOTAL_CHARGE>
0

>  <PUBCHEM_HEAVY_ATOM_COUNT>
54

>  <PUBCHEM_ATOM_DEF_STEREO_COUNT>
0

>  <PUBCHEM_ATOM_UDEF_STEREO_COUNT>
15

>  <PUBCHEM_BOND_DEF_STEREO_COUNT>
0

>  <PUBCHEM_BOND_UDEF_STEREO_COUNT>
0

>  <PUBCHEM_ISOTOPIC_ATOM_COUNT>
0

>  <PUBCHEM_COMPONENT_COUNT>
1

>  <PUBCHEM_CACTVS_TAUTO_COUNT>
68

>  <PUBCHEM_COORDINATE_TYPE>
1
5
255

>  <PUBCHEM_BONDANNOTATIONS>
28  10  3
30  11  3
37  12  3
33  13  3
34  14  3
35  15  3
17  42  8
17  45  8
27  2  3
22  31  3
32  38  3
36  39  3
23  4  3
40  42  8
40  43  8
41  46  8
41  47  8
43  44  8
44  45  8
44  48  8
45  46  8
47  48  8
49  50  8
49  51  8
29  5  3
50  52  8
51  53  8
52  54  8
53  54  8
24  6  3
25  8  3
26  9  3

$$$$
