13963777
 OpenBabel06101807152D

 45 47  0  0  0  0  0  0  0  0999 V2000
    6.3580   -0.1743    0.0000 O   0  0  0  0  0  0  0  0  0  0  0  0
    4.5981   -1.1396    0.0000 O   0  0  0  0  0  0  0  0  0  0  0  0
    7.2564   -1.6604    0.0000 O   0  0  0  0  0  0  0  0  0  0  0  0
    2.8660   -0.1396    0.0000 O   0  0  0  0  0  0  0  0  0  0  0  0
    4.5981    2.8604    0.0000 O   0  0  0  0  0  0  0  0  0  0  0  0
    8.9846   -2.6671    0.0000 O   0  0  0  0  0  0  0  0  0  0  0  0
    6.3465    2.8950    0.0000 O   0  0  0  0  0  0  0  0  0  0  0  0
   10.7205   -1.6738    0.0000 O   0  0  0  0  0  0  0  0  0  0  0  0
    5.4641    1.3604    0.0000 C   0  0  0  0  0  0  0  0  0  0  0  0
    5.4641    0.3604    0.0000 C   0  0  0  0  0  0  0  0  0  0  0  0
    7.2641    0.3396    0.0000 C   0  0  0  0  0  0  0  0  0  0  0  0
    8.1282   -0.1637    0.0000 C   0  0  0  0  0  0  0  0  0  0  0  0
    4.5981   -0.1396    0.0000 C   0  0  0  0  0  0  0  0  0  0  0  0
    6.3580    1.8951    0.0000 C   0  0  0  0  0  0  0  0  0  0  0  0
    7.2641    1.3812    0.0000 C   0  0  0  0  0  0  0  0  0  0  0  0
    4.5981    1.8604    0.0000 C   0  0  0  0  0  0  0  0  0  0  0  0
    8.1244   -1.1637    0.0000 C   0  0  0  0  0  0  0  0  0  0  0  0
    3.7320    0.3604    0.0000 C   0  0  0  0  0  0  0  0  0  0  0  0
    3.7320    1.3604    0.0000 C   0  0  0  0  0  0  0  0  0  0  0  0
    8.9962    0.3329    0.0000 C   0  0  0  0  0  0  0  0  0  0  0  0
    8.9884   -1.6671    0.0000 C   0  0  0  0  0  0  0  0  0  0  0  0
    9.8564   -1.1704    0.0000 C   0  0  0  0  0  0  0  0  0  0  0  0
    9.8602   -0.1704    0.0000 C   0  0  0  0  0  0  0  0  0  0  0  0
    3.7320   -1.6396    0.0000 C   0  0  0  0  0  0  0  0  0  0  0  0
    7.2526   -2.6604    0.0000 C   0  0  0  0  0  0  0  0  0  0  0  0
    2.0000    0.3604    0.0000 C   0  0  0  0  0  0  0  0  0  0  0  0
    9.8487   -3.1704    0.0000 C   0  0  0  0  0  0  0  0  0  0  0  0
    7.7998    1.6933    0.0000 H   0  0  0  0  0  0  0  0  0  0  0  0
    3.1951    1.6704    0.0000 H   0  0  0  0  0  0  0  0  0  0  0  0
    8.9985    0.9529    0.0000 H   0  0  0  0  0  0  0  0  0  0  0  0
   10.3984    0.1375    0.0000 H   0  0  0  0  0  0  0  0  0  0  0  0
    4.0611    3.1704    0.0000 H   0  0  0  0  0  0  0  0  0  0  0  0
    3.4220   -1.1027    0.0000 H   0  0  0  0  0  0  0  0  0  0  0  0
    3.1951   -1.9496    0.0000 H   0  0  0  0  0  0  0  0  0  0  0  0
    4.0420   -2.1765    0.0000 H   0  0  0  0  0  0  0  0  0  0  0  0
    6.6326   -2.6580    0.0000 H   0  0  0  0  0  0  0  0  0  0  0  0
    7.2502   -3.2804    0.0000 H   0  0  0  0  0  0  0  0  0  0  0  0
    7.8725   -2.6628    0.0000 H   0  0  0  0  0  0  0  0  0  0  0  0
    2.3100    0.8973    0.0000 H   0  0  0  0  0  0  0  0  0  0  0  0
    1.4631    0.6704    0.0000 H   0  0  0  0  0  0  0  0  0  0  0  0
    1.6900   -0.1765    0.0000 H   0  0  0  0  0  0  0  0  0  0  0  0
   11.2586   -1.3658    0.0000 H   0  0  0  0  0  0  0  0  0  0  0  0
    9.5366   -3.7061    0.0000 H   0  0  0  0  0  0  0  0  0  0  0  0
   10.3844   -3.4825    0.0000 H   0  0  0  0  0  0  0  0  0  0  0  0
   10.1607   -2.6347    0.0000 H   0  0  0  0  0  0  0  0  0  0  0  0
  1 10  1  0  0  0  0
  1 11  1  0  0  0  0
  2 13  1  0  0  0  0
  2 24  1  0  0  0  0
  3 17  1  0  0  0  0
  3 25  1  0  0  0  0
  4 18  1  0  0  0  0
  4 26  1  0  0  0  0
  5 16  1  0  0  0  0
  5 32  1  0  0  0  0
  6 21  1  0  0  0  0
  6 27  1  0  0  0  0
  7 14  2  0  0  0  0
  8 22  1  0  0  0  0
  8 42  1  0  0  0  0
  9 10  2  0  0  0  0
  9 14  1  0  0  0  0
  9 16  1  0  0  0  0
 10 13  1  0  0  0  0
 11 12  1  0  0  0  0
 11 15  2  0  0  0  0
 12 17  2  0  0  0  0
 12 20  1  0  0  0  0
 13 18  2  0  0  0  0
 14 15  1  0  0  0  0
 15 28  1  0  0  0  0
 16 19  2  0  0  0  0
 17 21  1  0  0  0  0
 18 19  1  0  0  0  0
 19 29  1  0  0  0  0
 20 23  2  0  0  0  0
 20 30  1  0  0  0  0
 21 22  2  0  0  0  0
 22 23  1  0  0  0  0
 23 31  1  0  0  0  0
 24 33  1  0  0  0  0
 24 34  1  0  0  0  0
 24 35  1  0  0  0  0
 25 36  1  0  0  0  0
 25 37  1  0  0  0  0
 25 38  1  0  0  0  0
 26 39  1  0  0  0  0
 26 40  1  0  0  0  0
 26 41  1  0  0  0  0
 27 43  1  0  0  0  0
 27 44  1  0  0  0  0
 27 45  1  0  0  0  0
M  END
>  <PUBCHEM_COMPOUND_CID>
13963777

>  <PUBCHEM_COMPOUND_CANONICALIZED>
1

>  <PUBCHEM_CACTVS_COMPLEXITY>
564

>  <PUBCHEM_CACTVS_HBOND_ACCEPTOR>
8

>  <PUBCHEM_CACTVS_HBOND_DONOR>
2

>  <PUBCHEM_CACTVS_ROTATABLE_BOND>
5

>  <PUBCHEM_CACTVS_SUBSKEYS>
AAADceB4PAAAAAAAAAAAAAAAAAAAAAAAAAAwYIAAAAAAAACBQAAAGgAACAAADASAmAIyBoAABgCIAqBSAAACCAAkIAAIiAEGiMgNJzaGNBqCeWOl4BULuQfK7LzOIQABCAAIQABCAAIQABCAAAAAAAAAAA==

>  <PUBCHEM_IUPAC_OPENEYE_NAME>
5-hydroxy-2-(4-hydroxy-2,3-dimethoxy-phenyl)-7,8-dimethoxy-chromen-4-one

>  <PUBCHEM_IUPAC_CAS_NAME>
5-hydroxy-2-(4-hydroxy-2,3-dimethoxyphenyl)-7,8-dimethoxy-1-benzopyran-4-one

>  <PUBCHEM_IUPAC_NAME>
5-hydroxy-2-(4-hydroxy-2,3-dimethoxyphenyl)-7,8-dimethoxychromen-4-one

>  <PUBCHEM_IUPAC_SYSTEMATIC_NAME>
2-(2,3-dimethoxy-4-oxidanyl-phenyl)-7,8-dimethoxy-5-oxidanyl-chromen-4-one

>  <PUBCHEM_IUPAC_TRADITIONAL_NAME>
5-hydroxy-2-(4-hydroxy-2,3-dimethoxy-phenyl)-7,8-dimethoxy-chromone

>  <PUBCHEM_IUPAC_INCHI>
InChI=1S/C19H18O8/c1-23-14-8-12(22)15-11(21)7-13(27-19(15)18(14)26-4)9-5-6-10(20)17(25-3)16(9)24-2/h5-8,20,22H,1-4H3

>  <PUBCHEM_IUPAC_INCHIKEY>
XJMLRDUBVCDIKJ-UHFFFAOYSA-N

>  <PUBCHEM_XLOGP3_AA>
2.9

>  <PUBCHEM_EXACT_MASS>
374.1

>  <PUBCHEM_MOLECULAR_FORMULA>
C19H18O8

>  <PUBCHEM_MOLECULAR_WEIGHT>
374.345

>  <PUBCHEM_OPENEYE_CAN_SMILES>
COC1=C(C2=C(C(=C1)O)C(=O)C=C(O2)C3=C(C(=C(C=C3)O)OC)OC)OC

>  <PUBCHEM_OPENEYE_ISO_SMILES>
COC1=C(C2=C(C(=C1)O)C(=O)C=C(O2)C3=C(C(=C(C=C3)O)OC)OC)OC

>  <PUBCHEM_CACTVS_TPSA>
104

>  <PUBCHEM_MONOISOTOPIC_WEIGHT>
374.1

>  <PUBCHEM_TOTAL_CHARGE>
0

>  <PUBCHEM_HEAVY_ATOM_COUNT>
27

>  <PUBCHEM_ATOM_DEF_STEREO_COUNT>
0

>  <PUBCHEM_ATOM_UDEF_STEREO_COUNT>
0

>  <PUBCHEM_BOND_DEF_STEREO_COUNT>
0

>  <PUBCHEM_BOND_UDEF_STEREO_COUNT>
0

>  <PUBCHEM_ISOTOPIC_ATOM_COUNT>
0

>  <PUBCHEM_COMPONENT_COUNT>
1

>  <PUBCHEM_CACTVS_TAUTO_COUNT>
23

>  <PUBCHEM_COORDINATE_TYPE>
1
5
255

>  <PUBCHEM_BONDANNOTATIONS>
1  10  8
1  11  8
10  13  8
11  15  8
12  17  8
12  20  8
13  18  8
14  15  8
16  19  8
17  21  8
18  19  8
20  23  8
21  22  8
22  23  8
9  10  8
9  14  8
9  16  8

$$$$
