13964005
 OpenBabel06101807152D

 53 57  0  0  0  0  0  0  0  0999 V2000
    4.2974   -3.6578    0.0000 O   0  0  0  0  0  0  0  0  0  0  0  0
    6.0530    3.6506    0.0000 O   0  0  0  0  0  0  0  0  0  0  0  0
    4.3217    0.4964    0.0000 O   0  0  0  0  0  0  0  0  0  0  0  0
    7.8240    0.4933    0.0000 O   0  0  0  0  0  0  0  0  0  0  0  0
    2.5357   -2.5487    0.0000 O   0  0  0  0  0  0  0  0  0  0  0  0
    6.9198   -1.0036    0.0000 O   0  0  0  0  0  0  0  0  0  0  0  0
    5.2370   -4.2003    0.0000 C   0  0  0  0  0  0  0  0  0  0  0  0
    6.9884    4.2003    0.0000 C   0  0  0  0  0  0  0  0  0  0  0  0
    6.1725   -3.6506    0.0000 C   0  0  0  0  0  0  0  0  0  0  0  0
    6.1557   -2.5657    0.0000 C   0  0  0  0  0  0  0  0  0  0  0  0
    7.9280    3.6578    0.0000 C   0  0  0  0  0  0  0  0  0  0  0  0
    5.2038   -2.0451    0.0000 C   0  0  0  0  0  0  0  0  0  0  0  0
    7.9197    2.5728    0.0000 C   0  0  0  0  0  0  0  0  0  0  0  0
    6.9718    2.0449    0.0000 C   0  0  0  0  0  0  0  0  0  0  0  0
    5.1877   -1.0036    0.0000 C   0  0  0  0  0  0  0  0  0  0  0  0
    4.3058   -2.5728    0.0000 C   0  0  0  0  0  0  0  0  0  0  0  0
    6.0697    2.5657    0.0000 C   0  0  0  0  0  0  0  0  0  0  0  0
    6.0538    0.4964    0.0000 C   0  0  0  0  0  0  0  0  0  0  0  0
    5.7404   -5.0644    0.0000 C   0  0  0  0  0  0  0  0  0  0  0  0
    4.7404   -5.0682    0.0000 C   0  0  0  0  0  0  0  0  0  0  0  0
    6.9638    1.0033    0.0000 C   0  0  0  0  0  0  0  0  0  0  0  0
    4.3217   -0.5036    0.0000 C   0  0  0  0  0  0  0  0  0  0  0  0
    5.1877    0.9964    0.0000 C   0  0  0  0  0  0  0  0  0  0  0  0
    7.4851    5.0682    0.0000 C   0  0  0  0  0  0  0  0  0  0  0  0
    6.4851    5.0644    0.0000 C   0  0  0  0  0  0  0  0  0  0  0  0
    6.0538   -0.5036    0.0000 C   0  0  0  0  0  0  0  0  0  0  0  0
    5.1717    2.0379    0.0000 C   0  0  0  0  0  0  0  0  0  0  0  0
    3.4037   -2.0520    0.0000 C   0  0  0  0  0  0  0  0  0  0  0  0
    3.4117   -1.0104    0.0000 C   0  0  0  0  0  0  0  0  0  0  0  0
    6.3905   -4.2310    0.0000 H   0  0  0  0  0  0  0  0  0  0  0  0
    6.7816   -3.5351    0.0000 H   0  0  0  0  0  0  0  0  0  0  0  0
    8.5381    3.5470    0.0000 H   0  0  0  0  0  0  0  0  0  0  0  0
    8.1416    4.2398    0.0000 H   0  0  0  0  0  0  0  0  0  0  0  0
    6.7681   -2.6624    0.0000 H   0  0  0  0  0  0  0  0  0  0  0  0
    6.3558   -1.9788    0.0000 H   0  0  0  0  0  0  0  0  0  0  0  0
    8.1242    1.9875    0.0000 H   0  0  0  0  0  0  0  0  0  0  0  0
    8.5313    2.6742    0.0000 H   0  0  0  0  0  0  0  0  0  0  0  0
    4.2022   -4.7603    0.0000 H   0  0  0  0  0  0  0  0  0  0  0  0
    4.4324   -5.6064    0.0000 H   0  0  0  0  0  0  0  0  0  0  0  0
    5.2785   -5.3762    0.0000 H   0  0  0  0  0  0  0  0  0  0  0  0
    5.2046   -5.3764    0.0000 H   0  0  0  0  0  0  0  0  0  0  0  0
    6.0524   -5.6001    0.0000 H   0  0  0  0  0  0  0  0  0  0  0  0
    6.2761   -4.7523    0.0000 H   0  0  0  0  0  0  0  0  0  0  0  0
    8.0232    4.7603    0.0000 H   0  0  0  0  0  0  0  0  0  0  0  0
    7.0208    5.3764    0.0000 H   0  0  0  0  0  0  0  0  0  0  0  0
    7.7930    5.6064    0.0000 H   0  0  0  0  0  0  0  0  0  0  0  0
    6.9469    5.3762    0.0000 H   0  0  0  0  0  0  0  0  0  0  0  0
    6.1730    5.6001    0.0000 H   0  0  0  0  0  0  0  0  0  0  0  0
    5.9493    4.7523    0.0000 H   0  0  0  0  0  0  0  0  0  0  0  0
    4.6312    2.3417    0.0000 H   0  0  0  0  0  0  0  0  0  0  0  0
    2.8784   -0.6942    0.0000 H   0  0  0  0  0  0  0  0  0  0  0  0
    8.3644    0.7971    0.0000 H   0  0  0  0  0  0  0  0  0  0  0  0
    2.0000   -2.2366    0.0000 H   0  0  0  0  0  0  0  0  0  0  0  0
  1  7  1  0  0  0  0
  1 16  1  0  0  0  0
  2  8  1  0  0  0  0
  2 17  1  0  0  0  0
  3 22  1  0  0  0  0
  3 23  1  0  0  0  0
  4 21  1  0  0  0  0
  4 52  1  0  0  0  0
  5 28  1  0  0  0  0
  5 53  1  0  0  0  0
  6 26  2  0  0  0  0
  7  9  1  0  0  0  0
  7 19  1  0  0  0  0
  7 20  1  0  0  0  0
  8 11  1  0  0  0  0
  8 24  1  0  0  0  0
  8 25  1  0  0  0  0
  9 10  1  0  0  0  0
  9 30  1  0  0  0  0
  9 31  1  0  0  0  0
 10 12  1  0  0  0  0
 10 34  1  0  0  0  0
 10 35  1  0  0  0  0
 11 13  1  0  0  0  0
 11 32  1  0  0  0  0
 11 33  1  0  0  0  0
 12 15  1  0  0  0  0
 12 16  2  0  0  0  0
 13 14  1  0  0  0  0
 13 36  1  0  0  0  0
 13 37  1  0  0  0  0
 14 17  2  0  0  0  0
 14 21  1  0  0  0  0
 15 22  2  0  0  0  0
 15 26  1  0  0  0  0
 16 28  1  0  0  0  0
 17 27  1  0  0  0  0
 18 21  2  0  0  0  0
 18 23  1  0  0  0  0
 18 26  1  0  0  0  0
 19 41  1  0  0  0  0
 19 42  1  0  0  0  0
 19 43  1  0  0  0  0
 20 38  1  0  0  0  0
 20 39  1  0  0  0  0
 20 40  1  0  0  0  0
 22 29  1  0  0  0  0
 23 27  2  0  0  0  0
 24 44  1  0  0  0  0
 24 46  1  0  0  0  0
 24 47  1  0  0  0  0
 25 45  1  0  0  0  0
 25 48  1  0  0  0  0
 25 49  1  0  0  0  0
 27 50  1  0  0  0  0
 28 29  2  0  0  0  0
 29 51  1  0  0  0  0
M  END
>  <PUBCHEM_COMPOUND_CID>
13964005

>  <PUBCHEM_COMPOUND_CANONICALIZED>
1

>  <PUBCHEM_CACTVS_COMPLEXITY>
674

>  <PUBCHEM_CACTVS_HBOND_ACCEPTOR>
6

>  <PUBCHEM_CACTVS_HBOND_DONOR>
2

>  <PUBCHEM_CACTVS_ROTATABLE_BOND>
0

>  <PUBCHEM_CACTVS_SUBSKEYS>
AAADceB4OAAAAAAAAAAAAAAAAAAAAAAAAAA0aJECAAAAAACRQAAAGgAACAAADESAmAAyBoAABgCIAqBSAAACCAAkIAAAiAEGiMgNJzaGNBqCeWOl4BULuQfK7PzOoQADCAAYQABCAAYQADCAAAAAAAAAAA==

>  <PUBCHEM_IUPAC_INCHI>
InChI=1S/C23H24O6/c1-22(2)7-5-11-14(28-22)10-16-18(19(11)25)20(26)17-12-6-8-23(3,4)29-21(12)13(24)9-15(17)27-16/h9-10,24-25H,5-8H2,1-4H3

>  <PUBCHEM_IUPAC_INCHIKEY>
QFURCBFEIGTKCW-UHFFFAOYSA-N

>  <PUBCHEM_XLOGP3_AA>
4.8

>  <PUBCHEM_EXACT_MASS>
396.157

>  <PUBCHEM_MOLECULAR_FORMULA>
C23H24O6

>  <PUBCHEM_MOLECULAR_WEIGHT>
396.439

>  <PUBCHEM_OPENEYE_CAN_SMILES>
CC1(CCC2=C(O1)C=C3C(=C2O)C(=O)C4=C5CCC(OC5=C(C=C4O3)O)(C)C)C

>  <PUBCHEM_OPENEYE_ISO_SMILES>
CC1(CCC2=C(O1)C=C3C(=C2O)C(=O)C4=C5CCC(OC5=C(C=C4O3)O)(C)C)C

>  <PUBCHEM_CACTVS_TPSA>
85.2

>  <PUBCHEM_MONOISOTOPIC_WEIGHT>
396.157

>  <PUBCHEM_TOTAL_CHARGE>
0

>  <PUBCHEM_HEAVY_ATOM_COUNT>
29

>  <PUBCHEM_ATOM_DEF_STEREO_COUNT>
0

>  <PUBCHEM_ATOM_UDEF_STEREO_COUNT>
0

>  <PUBCHEM_BOND_DEF_STEREO_COUNT>
0

>  <PUBCHEM_BOND_UDEF_STEREO_COUNT>
0

>  <PUBCHEM_ISOTOPIC_ATOM_COUNT>
0

>  <PUBCHEM_COMPONENT_COUNT>
1

>  <PUBCHEM_CACTVS_TAUTO_COUNT>
57

>  <PUBCHEM_COORDINATE_TYPE>
1
5
255

>  <PUBCHEM_BONDANNOTATIONS>
12  15  8
12  16  8
14  17  8
14  21  8
15  22  8
15  26  8
16  28  8
17  27  8
18  21  8
18  23  8
18  26  8
22  29  8
23  27  8
28  29  8
3  22  8
3  23  8

$$$$
