13965085
 OpenBabel06101807152D

 56 60  0  0  1  0  0  0  0  0999 V2000
    9.9106    0.0885    0.0000 O   0  0  0  0  0  0  0  0  0  0  0  0
    5.7136   -0.0005    0.0000 O   0  0  0  0  0  0  0  0  0  0  0  0
   11.2942    1.2025    0.0000 O   0  0  0  0  0  0  0  0  0  0  0  0
    6.4393   -0.8381    0.0000 O   0  0  0  0  0  0  0  0  0  0  0  0
    8.7127    1.1634    0.0000 C   0  0  3  0  0  0  0  0  0  0  0  0
    7.8466    1.6634    0.0000 C   0  0  3  0  0  0  0  0  0  0  0  0
    7.8466    2.6634    0.0000 C   0  0  3  0  0  0  0  0  0  0  0  0
    8.7127    3.1634    0.0000 C   0  0  3  0  0  0  0  0  0  0  0  0
    8.3127    1.7634    0.0000 C   0  0  0  0  0  0  0  0  0  0  0  0
    8.3127    2.5634    0.0000 C   0  0  0  0  0  0  0  0  0  0  0  0
    9.5787    1.6634    0.0000 C   0  0  0  0  0  0  0  0  0  0  0  0
    6.9527    3.1981    0.0000 C   0  0  0  0  0  0  0  0  0  0  0  0
    9.5787    2.6634    0.0000 C   0  0  0  0  0  0  0  0  0  0  0  0
    6.9527    1.1287    0.0000 C   0  0  0  0  0  0  0  0  0  0  0  0
    8.9219    0.1916    0.0000 C   0  0  0  0  0  0  0  0  0  0  0  0
    6.0466    2.6842    0.0000 C   0  0  0  0  0  0  0  0  0  0  0  0
    6.0466    1.6426    0.0000 C   0  0  0  0  0  0  0  0  0  0  0  0
   10.3157    0.9963    0.0000 C   0  0  0  0  0  0  0  0  0  0  0  0
    6.7426    0.1148    0.0000 C   0  0  0  0  0  0  0  0  0  0  0  0
    8.2540   -0.5527    0.0000 C   0  0  0  0  0  0  0  0  0  0  0  0
    5.2843    0.9418    0.0000 C   0  0  0  0  0  0  0  0  0  0  0  0
    8.5647   -1.5032    0.0000 C   0  0  0  0  0  0  0  0  0  0  0  0
    4.3042    1.1405    0.0000 C   0  0  0  0  0  0  0  0  0  0  0  0
    7.8968   -2.2475    0.0000 C   0  0  0  0  0  0  0  0  0  0  0  0
    3.6422    0.3911    0.0000 C   0  0  0  0  0  0  0  0  0  0  0  0
    8.2075   -3.1981    0.0000 C   0  0  0  0  0  0  0  0  0  0  0  0
    2.6621    0.5897    0.0000 C   0  0  0  0  0  0  0  0  0  0  0  0
    2.0000   -0.1597    0.0000 C   0  0  0  0  0  0  0  0  0  0  0  0
    7.8514    1.0434    0.0000 H   0  0  0  0  0  0  0  0  0  0  0  0
    7.8514    3.2834    0.0000 H   0  0  0  0  0  0  0  0  0  0  0  0
    8.7127    3.7834    0.0000 H   0  0  0  0  0  0  0  0  0  0  0  0
    7.7256    1.9629    0.0000 H   0  0  0  0  0  0  0  0  0  0  0  0
    8.9061    1.9431    0.0000 H   0  0  0  0  0  0  0  0  0  0  0  0
    7.9349    3.0550    0.0000 H   0  0  0  0  0  0  0  0  0  0  0  0
    8.9061    2.3837    0.0000 H   0  0  0  0  0  0  0  0  0  0  0  0
    7.3573    3.6678    0.0000 H   0  0  0  0  0  0  0  0  0  0  0  0
    6.5591    3.6771    0.0000 H   0  0  0  0  0  0  0  0  0  0  0  0
   10.1156    2.9734    0.0000 H   0  0  0  0  0  0  0  0  0  0  0  0
    5.8376    3.2679    0.0000 H   0  0  0  0  0  0  0  0  0  0  0  0
    5.4358    2.5781    0.0000 H   0  0  0  0  0  0  0  0  0  0  0  0
    7.8400   -1.0142    0.0000 H   0  0  0  0  0  0  0  0  0  0  0  0
    8.9472   -1.9911    0.0000 H   0  0  0  0  0  0  0  0  0  0  0  0
    9.1116   -1.2112    0.0000 H   0  0  0  0  0  0  0  0  0  0  0  0
    4.1071    1.7283    0.0000 H   0  0  0  0  0  0  0  0  0  0  0  0
    7.5143   -1.7596    0.0000 H   0  0  0  0  0  0  0  0  0  0  0  0
    7.3499   -2.5396    0.0000 H   0  0  0  0  0  0  0  0  0  0  0  0
    3.4153   -0.1859    0.0000 H   0  0  0  0  0  0  0  0  0  0  0  0
    4.1710    0.0675    0.0000 H   0  0  0  0  0  0  0  0  0  0  0  0
    7.6182   -3.3907    0.0000 H   0  0  0  0  0  0  0  0  0  0  0  0
    8.4001   -3.7874    0.0000 H   0  0  0  0  0  0  0  0  0  0  0  0
    8.7968   -3.0054    0.0000 H   0  0  0  0  0  0  0  0  0  0  0  0
    2.8889    1.1668    0.0000 H   0  0  0  0  0  0  0  0  0  0  0  0
    2.1332    0.9133    0.0000 H   0  0  0  0  0  0  0  0  0  0  0  0
    1.5354    0.2508    0.0000 H   0  0  0  0  0  0  0  0  0  0  0  0
    1.5895   -0.6243    0.0000 H   0  0  0  0  0  0  0  0  0  0  0  0
    2.4646   -0.5702    0.0000 H   0  0  0  0  0  0  0  0  0  0  0  0
  1 15  1  0  0  0  0
  1 18  1  0  0  0  0
  2 19  1  0  0  0  0
  2 21  1  0  0  0  0
  3 18  2  0  0  0  0
  4 19  2  0  0  0  0
  5  6  1  0  0  0  0
  5  9  1  0  0  0  0
  5 11  1  0  0  0  0
  5 15  1  0  0  0  0
  6  7  1  0  0  0  0
  6 14  1  0  0  0  0
  6 29  1  0  0  0  0
  7  8  1  0  0  0  0
  7 12  1  0  0  0  0
  7 30  1  0  0  0  0
  8 10  1  0  0  0  0
  8 13  1  0  0  0  0
  8 31  1  0  0  0  0
  9 10  1  0  0  0  0
  9 32  1  0  0  0  0
  9 33  1  0  0  0  0
 10 34  1  0  0  0  0
 10 35  1  0  0  0  0
 11 13  2  0  0  0  0
 11 18  1  0  0  0  0
 12 16  1  0  0  0  0
 12 36  1  0  0  0  0
 12 37  1  0  0  0  0
 13 38  1  0  0  0  0
 14 17  2  0  0  0  0
 14 19  1  0  0  0  0
 15 20  2  0  0  0  0
 16 17  1  0  0  0  0
 16 39  1  0  0  0  0
 16 40  1  0  0  0  0
 17 21  1  0  0  0  0
 20 22  1  0  0  0  0
 20 41  1  0  0  0  0
 21 23  2  0  0  0  0
 22 24  1  0  0  0  0
 22 42  1  0  0  0  0
 22 43  1  0  0  0  0
 23 25  1  0  0  0  0
 23 44  1  0  0  0  0
 24 26  1  0  0  0  0
 24 45  1  0  0  0  0
 24 46  1  0  0  0  0
 25 27  1  0  0  0  0
 25 47  1  0  0  0  0
 25 48  1  0  0  0  0
 26 49  1  0  0  0  0
 26 50  1  0  0  0  0
 26 51  1  0  0  0  0
 27 28  1  0  0  0  0
 27 52  1  0  0  0  0
 27 53  1  0  0  0  0
 28 54  1  0  0  0  0
 28 55  1  0  0  0  0
 28 56  1  0  0  0  0
M  END
>  <PUBCHEM_COMPOUND_CID>
13965085

>  <PUBCHEM_COMPOUND_CANONICALIZED>
1

>  <PUBCHEM_CACTVS_COMPLEXITY>
871

>  <PUBCHEM_CACTVS_HBOND_ACCEPTOR>
4

>  <PUBCHEM_CACTVS_HBOND_DONOR>
0

>  <PUBCHEM_CACTVS_ROTATABLE_BOND>
4

>  <PUBCHEM_CACTVS_SUBSKEYS>
AAADceB4OAAAAAAAAAAAAAAAAAAAASIAAAAwQIEAAAAAAEiAAAAAGgAAAAAADwSAgAACCAAABACIAiDSCAAACAAgIAAACAEAAEgIBBIAIAACEAAEwAAIoYOK7PiPgAAAAAAAAACAAAQAACAAAAAAAAAAAA==

>  <PUBCHEM_IUPAC_INCHI>
InChI=1S/C24H28O4/c1-3-5-7-18-16-10-9-15-14-11-12-24(21(15)20(16)23(26)27-18)17(13-14)22(25)28-19(24)8-6-4-2/h7-8,13-15,21H,3-6,9-12H2,1-2H3/b18-7-,19-8-

>  <PUBCHEM_IUPAC_INCHIKEY>
UBBRXVRQZJSDAK-DZWUWFSDSA-N

>  <PUBCHEM_XLOGP3_AA>
4.9

>  <PUBCHEM_EXACT_MASS>
380.199

>  <PUBCHEM_MOLECULAR_FORMULA>
C24H28O4

>  <PUBCHEM_MOLECULAR_WEIGHT>
380.484

>  <PUBCHEM_OPENEYE_CAN_SMILES>
CCCC=C1C2=C(C3C(CC2)C4CCC35C(=C4)C(=O)OC5=CCCC)C(=O)O1

>  <PUBCHEM_OPENEYE_ISO_SMILES>
CCC/C=C\1/C2=C(C3C(CC2)C4CCC3\5C(=C4)C(=O)O/C5=C\CCC)C(=O)O1

>  <PUBCHEM_CACTVS_TPSA>
52.6

>  <PUBCHEM_MONOISOTOPIC_WEIGHT>
380.199

>  <PUBCHEM_TOTAL_CHARGE>
0

>  <PUBCHEM_HEAVY_ATOM_COUNT>
28

>  <PUBCHEM_ATOM_DEF_STEREO_COUNT>
0

>  <PUBCHEM_ATOM_UDEF_STEREO_COUNT>
4

>  <PUBCHEM_BOND_DEF_STEREO_COUNT>
2

>  <PUBCHEM_BOND_UDEF_STEREO_COUNT>
0

>  <PUBCHEM_ISOTOPIC_ATOM_COUNT>
0

>  <PUBCHEM_COMPONENT_COUNT>
1

>  <PUBCHEM_CACTVS_TAUTO_COUNT>
3

>  <PUBCHEM_COORDINATE_TYPE>
1
5
255

>  <PUBCHEM_BONDANNOTATIONS>
5  9  3
6  14  3
7  12  3
8  13  3

$$$$
