13983738
 OpenBabel06101807152D

 38 40  0  0  0  0  0  0  0  0999 V2000
    6.0682   -0.6154    0.0000 O   0  0  0  0  0  0  0  0  0  0  0  0
    7.8003    1.3846    0.0000 O   0  0  0  0  0  0  0  0  0  0  0  0
    4.3198   -1.6500    0.0000 O   0  0  0  0  0  0  0  0  0  0  0  0
    4.3198    2.4192    0.0000 O   0  0  0  0  0  0  0  0  0  0  0  0
    6.0682    2.3846    0.0000 O   0  0  0  0  0  0  0  0  0  0  0  0
    2.5381   -0.6395    0.0000 O   0  0  0  0  0  0  0  0  0  0  0  0
   10.3984   -2.1154    0.0000 O   0  0  0  0  0  0  0  0  0  0  0  0
    5.2022    0.8846    0.0000 C   0  0  0  0  0  0  0  0  0  0  0  0
    5.2022   -0.1154    0.0000 C   0  0  0  0  0  0  0  0  0  0  0  0
    6.9343   -0.1154    0.0000 C   0  0  0  0  0  0  0  0  0  0  0  0
    6.9343    0.8846    0.0000 C   0  0  0  0  0  0  0  0  0  0  0  0
    6.0682    1.3846    0.0000 C   0  0  0  0  0  0  0  0  0  0  0  0
    4.3083   -0.6501    0.0000 C   0  0  0  0  0  0  0  0  0  0  0  0
    4.3083    1.4193    0.0000 C   0  0  0  0  0  0  0  0  0  0  0  0
    7.8003   -0.6154    0.0000 C   0  0  0  0  0  0  0  0  0  0  0  0
    3.4022   -0.1362    0.0000 C   0  0  0  0  0  0  0  0  0  0  0  0
    3.4022    0.9054    0.0000 C   0  0  0  0  0  0  0  0  0  0  0  0
    7.8003   -1.6154    0.0000 C   0  0  0  0  0  0  0  0  0  0  0  0
    8.6663   -0.1154    0.0000 C   0  0  0  0  0  0  0  0  0  0  0  0
    8.6663   -2.1154    0.0000 C   0  0  0  0  0  0  0  0  0  0  0  0
    9.5323   -0.6154    0.0000 C   0  0  0  0  0  0  0  0  0  0  0  0
    9.5323   -1.6154    0.0000 C   0  0  0  0  0  0  0  0  0  0  0  0
    7.8003    2.3846    0.0000 C   0  0  0  0  0  0  0  0  0  0  0  0
    3.4597   -2.1600    0.0000 C   0  0  0  0  0  0  0  0  0  0  0  0
    2.8665    1.2175    0.0000 H   0  0  0  0  0  0  0  0  0  0  0  0
    7.2634   -1.9254    0.0000 H   0  0  0  0  0  0  0  0  0  0  0  0
    8.6663    0.5046    0.0000 H   0  0  0  0  0  0  0  0  0  0  0  0
    8.6663   -2.7354    0.0000 H   0  0  0  0  0  0  0  0  0  0  0  0
   10.0693   -0.3054    0.0000 H   0  0  0  0  0  0  0  0  0  0  0  0
    3.7865    2.7354    0.0000 H   0  0  0  0  0  0  0  0  0  0  0  0
    2.0000   -0.3316    0.0000 H   0  0  0  0  0  0  0  0  0  0  0  0
    8.4203    2.3846    0.0000 H   0  0  0  0  0  0  0  0  0  0  0  0
    7.8003    3.0046    0.0000 H   0  0  0  0  0  0  0  0  0  0  0  0
    7.1803    2.3846    0.0000 H   0  0  0  0  0  0  0  0  0  0  0  0
    3.1435   -1.6266    0.0000 H   0  0  0  0  0  0  0  0  0  0  0  0
    2.9263   -2.4762    0.0000 H   0  0  0  0  0  0  0  0  0  0  0  0
    3.7758   -2.6933    0.0000 H   0  0  0  0  0  0  0  0  0  0  0  0
   10.3984   -2.7354    0.0000 H   0  0  0  0  0  0  0  0  0  0  0  0
  1  9  1  0  0  0  0
  1 10  1  0  0  0  0
  2 11  1  0  0  0  0
  2 23  1  0  0  0  0
  3 13  1  0  0  0  0
  3 24  1  0  0  0  0
  4 14  1  0  0  0  0
  4 30  1  0  0  0  0
  5 12  2  0  0  0  0
  6 16  1  0  0  0  0
  6 31  1  0  0  0  0
  7 22  1  0  0  0  0
  7 38  1  0  0  0  0
  8  9  2  0  0  0  0
  8 12  1  0  0  0  0
  8 14  1  0  0  0  0
  9 13  1  0  0  0  0
 10 11  2  0  0  0  0
 10 15  1  0  0  0  0
 11 12  1  0  0  0  0
 13 16  2  0  0  0  0
 14 17  2  0  0  0  0
 15 18  2  0  0  0  0
 15 19  1  0  0  0  0
 16 17  1  0  0  0  0
 17 25  1  0  0  0  0
 18 20  1  0  0  0  0
 18 26  1  0  0  0  0
 19 21  2  0  0  0  0
 19 27  1  0  0  0  0
 20 22  2  0  0  0  0
 20 28  1  0  0  0  0
 21 22  1  0  0  0  0
 21 29  1  0  0  0  0
 23 32  1  0  0  0  0
 23 33  1  0  0  0  0
 23 34  1  0  0  0  0
 24 35  1  0  0  0  0
 24 36  1  0  0  0  0
 24 37  1  0  0  0  0
M  END
>  <PUBCHEM_COMPOUND_CID>
13983738

>  <PUBCHEM_COMPOUND_CANONICALIZED>
1

>  <PUBCHEM_CACTVS_COMPLEXITY>
509

>  <PUBCHEM_CACTVS_HBOND_ACCEPTOR>
7

>  <PUBCHEM_CACTVS_HBOND_DONOR>
3

>  <PUBCHEM_CACTVS_ROTATABLE_BOND>
3

>  <PUBCHEM_CACTVS_SUBSKEYS>
AAADccB4OAAAAAAAAAAAAAAAAAAAAAAAAAAwYIAAAAAAAACBQAAAGgAACAAADASAmAIyBoAABgCIAqBSAAICCAAkIAAIiAFGiMgNJzaGNR6CeWOl4BULuQfK7LzOIQABCAAIQABCAAIQABCAAAAAAAAAAA==

>  <PUBCHEM_IUPAC_OPENEYE_NAME>
5,7-dihydroxy-2-(4-hydroxyphenyl)-3,8-dimethoxy-chromen-4-one

>  <PUBCHEM_IUPAC_CAS_NAME>
5,7-dihydroxy-2-(4-hydroxyphenyl)-3,8-dimethoxy-1-benzopyran-4-one

>  <PUBCHEM_IUPAC_NAME>
5,7-dihydroxy-2-(4-hydroxyphenyl)-3,8-dimethoxychromen-4-one

>  <PUBCHEM_IUPAC_SYSTEMATIC_NAME>
2-(4-hydroxyphenyl)-3,8-dimethoxy-5,7-bis(oxidanyl)chromen-4-one

>  <PUBCHEM_IUPAC_TRADITIONAL_NAME>
5,7-dihydroxy-2-(4-hydroxyphenyl)-3,8-dimethoxy-chromone

>  <PUBCHEM_IUPAC_INCHI>
InChI=1S/C17H14O7/c1-22-15-11(20)7-10(19)12-13(21)17(23-2)14(24-16(12)15)8-3-5-9(18)6-4-8/h3-7,18-20H,1-2H3

>  <PUBCHEM_IUPAC_INCHIKEY>
QEXFTGWTWYZALN-UHFFFAOYSA-N

>  <PUBCHEM_XLOGP3_AA>
2.8

>  <PUBCHEM_EXACT_MASS>
330.074

>  <PUBCHEM_MOLECULAR_FORMULA>
C17H14O7

>  <PUBCHEM_MOLECULAR_WEIGHT>
330.292

>  <PUBCHEM_OPENEYE_CAN_SMILES>
COC1=C(C=C(C2=C1OC(=C(C2=O)OC)C3=CC=C(C=C3)O)O)O

>  <PUBCHEM_OPENEYE_ISO_SMILES>
COC1=C(C=C(C2=C1OC(=C(C2=O)OC)C3=CC=C(C=C3)O)O)O

>  <PUBCHEM_CACTVS_TPSA>
105

>  <PUBCHEM_MONOISOTOPIC_WEIGHT>
330.074

>  <PUBCHEM_TOTAL_CHARGE>
0

>  <PUBCHEM_HEAVY_ATOM_COUNT>
24

>  <PUBCHEM_ATOM_DEF_STEREO_COUNT>
0

>  <PUBCHEM_ATOM_UDEF_STEREO_COUNT>
0

>  <PUBCHEM_BOND_DEF_STEREO_COUNT>
0

>  <PUBCHEM_BOND_UDEF_STEREO_COUNT>
0

>  <PUBCHEM_ISOTOPIC_ATOM_COUNT>
0

>  <PUBCHEM_COMPONENT_COUNT>
1

>  <PUBCHEM_CACTVS_TAUTO_COUNT>
57

>  <PUBCHEM_COORDINATE_TYPE>
1
5
255

>  <PUBCHEM_BONDANNOTATIONS>
1  10  8
1  9  8
10  11  8
11  12  8
13  16  8
14  17  8
15  18  8
15  19  8
16  17  8
18  20  8
19  21  8
20  22  8
21  22  8
8  12  8
8  14  8
8  9  8
9  13  8

$$$$
