13988324
 OpenBabel06101807152D

 46 48  0  0  1  0  0  0  0  0999 V2000
    5.1350   -1.1395    0.0000 O   0  0  0  0  0  0  0  0  0  0  0  0
    6.8671   -1.1395    0.0000 O   0  0  0  0  0  0  0  0  0  0  0  0
    5.1350   -4.1395    0.0000 O   0  0  0  0  0  0  0  0  0  0  0  0
    3.4030   -3.1395    0.0000 O   0  0  0  0  0  0  0  0  0  0  0  0
    6.8671   -3.1395    0.0000 O   0  0  0  0  0  0  0  0  0  0  0  0
    8.3719    2.6169    0.0000 O   0  0  0  0  0  0  0  0  0  0  0  0
    2.5369   -1.6395    0.0000 O   0  0  0  0  0  0  0  0  0  0  0  0
   10.2629    0.8605    0.0000 O   0  0  0  0  0  0  0  0  0  0  0  0
   10.1966    3.8327    0.0000 O   0  0  0  0  0  0  0  0  0  0  0  0
    8.4737    3.6547    0.0000 O   0  0  0  0  0  0  0  0  0  0  0  0
    8.6793    0.0558    0.0000 N   0  0  0  0  0  0  0  0  0  0  0  0
    5.1350   -3.1395    0.0000 C   0  0  3  0  0  0  0  0  0  0  0  0
    4.2690   -2.6395    0.0000 C   0  0  3  0  0  0  0  0  0  0  0  0
    6.0010   -2.6395    0.0000 C   0  0  3  0  0  0  0  0  0  0  0  0
    4.2690   -1.6395    0.0000 C   0  0  3  0  0  0  0  0  0  0  0  0
    6.0010   -1.6395    0.0000 C   0  0  3  0  0  0  0  0  0  0  0  0
    8.6793    1.6653    0.0000 C   0  0  3  0  0  0  0  0  0  0  0  0
    3.4030   -1.1395    0.0000 C   0  0  0  0  0  0  0  0  0  0  0  0
    7.7331    1.3605    0.0000 C   0  0  0  0  0  0  0  0  0  0  0  0
    7.7331    0.3605    0.0000 C   0  0  0  0  0  0  0  0  0  0  0  0
    6.8671   -0.1395    0.0000 C   0  0  0  0  0  0  0  0  0  0  0  0
    9.2629    0.8605    0.0000 C   0  0  0  0  0  0  0  0  0  0  0  0
    9.4893    2.2517    0.0000 C   0  0  0  0  0  0  0  0  0  0  0  0
    6.8671    1.8605    0.0000 C   0  0  0  0  0  0  0  0  0  0  0  0
    6.0010    0.3605    0.0000 C   0  0  0  0  0  0  0  0  0  0  0  0
    6.0010    1.3605    0.0000 C   0  0  0  0  0  0  0  0  0  0  0  0
    9.3865    3.2464    0.0000 C   0  0  0  0  0  0  0  0  0  0  0  0
    5.6720   -3.4495    0.0000 H   0  0  0  0  0  0  0  0  0  0  0  0
    4.2690   -3.2595    0.0000 H   0  0  0  0  0  0  0  0  0  0  0  0
    6.5380   -2.3295    0.0000 H   0  0  0  0  0  0  0  0  0  0  0  0
    4.2690   -1.0195    0.0000 H   0  0  0  0  0  0  0  0  0  0  0  0
    6.0010   -1.0195    0.0000 H   0  0  0  0  0  0  0  0  0  0  0  0
    3.8015   -0.6645    0.0000 H   0  0  0  0  0  0  0  0  0  0  0  0
    3.0044   -0.6645    0.0000 H   0  0  0  0  0  0  0  0  0  0  0  0
    9.7602    1.6939    0.0000 H   0  0  0  0  0  0  0  0  0  0  0  0
   10.0856    2.4215    0.0000 H   0  0  0  0  0  0  0  0  0  0  0  0
    8.8719   -0.5335    0.0000 H   0  0  0  0  0  0  0  0  0  0  0  0
    4.5981   -4.4495    0.0000 H   0  0  0  0  0  0  0  0  0  0  0  0
    3.4030   -3.7595    0.0000 H   0  0  0  0  0  0  0  0  0  0  0  0
    6.8671   -3.7595    0.0000 H   0  0  0  0  0  0  0  0  0  0  0  0
    6.8671    2.4805    0.0000 H   0  0  0  0  0  0  0  0  0  0  0  0
    5.4641    0.0505    0.0000 H   0  0  0  0  0  0  0  0  0  0  0  0
    5.4641    1.6705    0.0000 H   0  0  0  0  0  0  0  0  0  0  0  0
    7.7657    2.7468    0.0000 H   0  0  0  0  0  0  0  0  0  0  0  0
    2.0000   -1.3295    0.0000 H   0  0  0  0  0  0  0  0  0  0  0  0
   10.1328    4.4495    0.0000 H   0  0  0  0  0  0  0  0  0  0  0  0
  1 15  1  0  0  0  0
  1 16  1  0  0  0  0
  2 16  1  0  0  0  0
  2 21  1  0  0  0  0
  3 12  1  0  0  0  0
  3 38  1  0  0  0  0
  4 13  1  0  0  0  0
  4 39  1  0  0  0  0
  5 14  1  0  0  0  0
  5 40  1  0  0  0  0
  6 17  1  0  0  0  0
  6 44  1  0  0  0  0
  7 18  1  0  0  0  0
  7 45  1  0  0  0  0
  8 22  2  0  0  0  0
  9 27  1  0  0  0  0
  9 46  1  0  0  0  0
 10 27  2  0  0  0  0
 11 20  1  0  0  0  0
 11 22  1  0  0  0  0
 11 37  1  0  0  0  0
 12 13  1  0  0  0  0
 12 14  1  0  0  0  0
 12 28  1  0  0  0  0
 13 15  1  0  0  0  0
 13 29  1  0  0  0  0
 14 16  1  0  0  0  0
 14 30  1  0  0  0  0
 15 18  1  0  0  0  0
 15 31  1  0  0  0  0
 16 32  1  0  0  0  0
 17 19  1  0  0  0  0
 17 22  1  0  0  0  0
 17 23  1  0  0  0  0
 18 33  1  0  0  0  0
 18 34  1  0  0  0  0
 19 20  2  0  0  0  0
 19 24  1  0  0  0  0
 20 21  1  0  0  0  0
 21 25  2  0  0  0  0
 23 27  1  0  0  0  0
 23 35  1  0  0  0  0
 23 36  1  0  0  0  0
 24 26  2  0  0  0  0
 24 41  1  0  0  0  0
 25 26  1  0  0  0  0
 25 42  1  0  0  0  0
 26 43  1  0  0  0  0
M  END
>  <PUBCHEM_COMPOUND_CID>
13988324

>  <PUBCHEM_COMPOUND_CANONICALIZED>
1

>  <PUBCHEM_CACTVS_COMPLEXITY>
588

>  <PUBCHEM_CACTVS_HBOND_ACCEPTOR>
10

>  <PUBCHEM_CACTVS_HBOND_DONOR>
7

>  <PUBCHEM_CACTVS_ROTATABLE_BOND>
5

>  <PUBCHEM_CACTVS_SUBSKEYS>
AAADceB6PAAAAAAAAAAAAAAAAAAAAWAAAAA0QAAAAAAAAFgBAAAAHgAQCAAADFyxmAMwzoLABgCIAiXSWAKCCAAhIAAIiAFHTIgfNjbEtZuneCjn5BHf+Af//f/egAABAAACEAAAAAIAAAQgAAAAAAAAAA==

>  <PUBCHEM_IUPAC_OPENEYE_NAME>
2-[3-hydroxy-2-oxo-7-[3,4,5-trihydroxy-6-(hydroxymethyl)tetrahydropyran-2-yl]oxy-indolin-3-yl]acetic acid

>  <PUBCHEM_IUPAC_CAS_NAME>
2-[3-hydroxy-2-oxo-7-[[3,4,5-trihydroxy-6-(hydroxymethyl)-2-oxanyl]oxy]-1H-indol-3-yl]acetic acid

>  <PUBCHEM_IUPAC_NAME>
2-[3-hydroxy-2-oxo-7-[3,4,5-trihydroxy-6-(hydroxymethyl)oxan-2-yl]oxy-1H-indol-3-yl]acetic acid

>  <PUBCHEM_IUPAC_SYSTEMATIC_NAME>
2-[7-[6-(hydroxymethyl)-3,4,5-tris(oxidanyl)oxan-2-yl]oxy-3-oxidanyl-2-oxidanylidene-1H-indol-3-yl]ethanoic acid

>  <PUBCHEM_IUPAC_TRADITIONAL_NAME>
2-[3-hydroxy-2-keto-7-(3,4,5-trihydroxy-6-methylol-tetrahydropyran-2-yl)oxy-indolin-3-yl]acetic acid

>  <PUBCHEM_IUPAC_INCHI>
InChI=1S/C16H19NO10/c18-5-8-11(21)12(22)13(23)14(27-8)26-7-3-1-2-6-10(7)17-15(24)16(6,25)4-9(19)20/h1-3,8,11-14,18,21-23,25H,4-5H2,(H,17,24)(H,19,20)

>  <PUBCHEM_IUPAC_INCHIKEY>
VNIXZLMYLWKZLU-UHFFFAOYSA-N

>  <PUBCHEM_XLOGP3_AA>
-2.1

>  <PUBCHEM_EXACT_MASS>
385.101

>  <PUBCHEM_MOLECULAR_FORMULA>
C16H19NO10

>  <PUBCHEM_MOLECULAR_WEIGHT>
385.325

>  <PUBCHEM_OPENEYE_CAN_SMILES>
C1=CC2=C(C(=C1)OC3C(C(C(C(O3)CO)O)O)O)NC(=O)C2(CC(=O)O)O

>  <PUBCHEM_OPENEYE_ISO_SMILES>
C1=CC2=C(C(=C1)OC3C(C(C(C(O3)CO)O)O)O)NC(=O)C2(CC(=O)O)O

>  <PUBCHEM_CACTVS_TPSA>
186

>  <PUBCHEM_MONOISOTOPIC_WEIGHT>
385.101

>  <PUBCHEM_TOTAL_CHARGE>
0

>  <PUBCHEM_HEAVY_ATOM_COUNT>
27

>  <PUBCHEM_ATOM_DEF_STEREO_COUNT>
0

>  <PUBCHEM_ATOM_UDEF_STEREO_COUNT>
6

>  <PUBCHEM_BOND_DEF_STEREO_COUNT>
0

>  <PUBCHEM_BOND_UDEF_STEREO_COUNT>
0

>  <PUBCHEM_ISOTOPIC_ATOM_COUNT>
0

>  <PUBCHEM_COMPONENT_COUNT>
1

>  <PUBCHEM_CACTVS_TAUTO_COUNT>
2

>  <PUBCHEM_COORDINATE_TYPE>
1
5
255

>  <PUBCHEM_BONDANNOTATIONS>
15  18  3
19  20  8
19  24  8
16  2  3
20  21  8
21  25  8
24  26  8
25  26  8
12  3  3
13  4  3
14  5  3
17  6  3

$$$$
