13991214
 OpenBabel06101807152D

 82 85  0  0  1  0  0  0  0  0999 V2000
    6.1733   -4.2942    0.0000 O   0  0  0  0  0  0  0  0  0  0  0  0
    2.5405   -1.1857    0.0000 O   0  0  0  0  0  0  0  0  0  0  0  0
    2.5244   -3.2773    0.0000 O   0  0  0  0  0  0  0  0  0  0  0  0
   10.8207    0.4922    0.0000 O   0  0  0  0  0  0  0  0  0  0  0  0
    9.7956    2.9313    0.0000 O   0  0  0  0  0  0  0  0  0  0  0  0
    7.9174   -0.2250    0.0000 C   0  0  3  0  0  0  0  0  0  0  0  0
    7.9174   -1.2250    0.0000 C   0  0  3  0  0  0  0  0  0  0  0  0
    7.0514   -1.7250    0.0000 C   0  0  3  0  0  0  0  0  0  0  0  0
    6.1854   -1.2250    0.0000 C   0  0  3  0  0  0  0  0  0  0  0  0
    5.2754   -1.7318    0.0000 C   0  0  3  0  0  0  0  0  0  0  0  0
    8.8637    0.0797    0.0000 C   0  0  3  0  0  0  0  0  0  0  0  0
    7.0514    0.2750    0.0000 C   0  0  0  0  0  0  0  0  0  0  0  0
    6.1854   -0.2250    0.0000 C   0  0  0  0  0  0  0  0  0  0  0  0
    8.8637   -1.5297    0.0000 C   0  0  0  0  0  0  0  0  0  0  0  0
    5.2674   -2.7734    0.0000 C   0  0  3  0  0  0  0  0  0  0  0  0
    9.4473   -0.7250    0.0000 C   0  0  0  0  0  0  0  0  0  0  0  0
    7.0675   -2.7665    0.0000 C   0  0  0  0  0  0  0  0  0  0  0  0
    4.3486   -1.1678    0.0000 C   0  0  0  0  0  0  0  0  0  0  0  0
    9.1743    1.0303    0.0000 C   0  0  3  0  0  0  0  0  0  0  0  0
    7.9174    0.7750    0.0000 C   0  0  0  0  0  0  0  0  0  0  0  0
    6.1694   -3.2943    0.0000 C   0  0  0  0  0  0  0  0  0  0  0  0
    4.3319   -3.3232    0.0000 C   0  0  0  0  0  0  0  0  0  0  0  0
    5.2831   -0.7319    0.0000 C   0  0  0  0  0  0  0  0  0  0  0  0
    3.4007   -1.6957    0.0000 C   0  0  3  0  0  0  0  0  0  0  0  0
    3.3923   -2.7807    0.0000 C   0  0  3  0  0  0  0  0  0  0  0  0
   10.1528    1.2365    0.0000 C   0  0  3  0  0  0  0  0  0  0  0  0
    8.5065    1.7746    0.0000 C   0  0  0  0  0  0  0  0  0  0  0  0
   10.4635    2.1870    0.0000 C   0  0  3  0  0  0  0  0  0  0  0  0
   11.4420    2.3932    0.0000 C   0  0  0  0  0  0  0  0  0  0  0  0
   11.7527    3.3437    0.0000 C   0  0  0  0  0  0  0  0  0  0  0  0
   12.1098    1.6489    0.0000 C   0  0  0  0  0  0  0  0  0  0  0  0
   12.0633    4.2942    0.0000 C   0  0  0  0  0  0  0  0  0  0  0  0
   12.7032    3.0331    0.0000 C   0  0  0  0  0  0  0  0  0  0  0  0
   10.8021    3.6544    0.0000 C   0  0  0  0  0  0  0  0  0  0  0  0
    7.9830   -1.8415    0.0000 H   0  0  0  0  0  0  0  0  0  0  0  0
    7.5907   -2.0308    0.0000 H   0  0  0  0  0  0  0  0  0  0  0  0
    6.7223   -0.9150    0.0000 H   0  0  0  0  0  0  0  0  0  0  0  0
    9.4762    0.1759    0.0000 H   0  0  0  0  0  0  0  0  0  0  0  0
    7.4500    0.7499    0.0000 H   0  0  0  0  0  0  0  0  0  0  0  0
    6.6529    0.7499    0.0000 H   0  0  0  0  0  0  0  0  0  0  0  0
    5.9733    0.3576    0.0000 H   0  0  0  0  0  0  0  0  0  0  0  0
    5.5748   -0.3327    0.0000 H   0  0  0  0  0  0  0  0  0  0  0  0
    8.6126   -2.0966    0.0000 H   0  0  0  0  0  0  0  0  0  0  0  0
    9.4010   -1.8390    0.0000 H   0  0  0  0  0  0  0  0  0  0  0  0
    5.2698   -3.3934    0.0000 H   0  0  0  0  0  0  0  0  0  0  0  0
    9.9081   -1.1397    0.0000 H   0  0  0  0  0  0  0  0  0  0  0  0
    9.9081   -0.3103    0.0000 H   0  0  0  0  0  0  0  0  0  0  0  0
    7.2855   -3.3469    0.0000 H   0  0  0  0  0  0  0  0  0  0  0  0
    7.6766   -2.6510    0.0000 H   0  0  0  0  0  0  0  0  0  0  0  0
    4.7568   -0.7011    0.0000 H   0  0  0  0  0  0  0  0  0  0  0  0
    3.9586   -0.6857    0.0000 H   0  0  0  0  0  0  0  0  0  0  0  0
    8.5676    0.9024    0.0000 H   0  0  0  0  0  0  0  0  0  0  0  0
    8.5374    0.7750    0.0000 H   0  0  0  0  0  0  0  0  0  0  0  0
    7.9174    1.3950    0.0000 H   0  0  0  0  0  0  0  0  0  0  0  0
    7.2974    0.7750    0.0000 H   0  0  0  0  0  0  0  0  0  0  0  0
    3.9346   -3.7991    0.0000 H   0  0  0  0  0  0  0  0  0  0  0  0
    4.7329   -3.7961    0.0000 H   0  0  0  0  0  0  0  0  0  0  0  0
    5.9031   -0.7367    0.0000 H   0  0  0  0  0  0  0  0  0  0  0  0
    5.2879   -0.1119    0.0000 H   0  0  0  0  0  0  0  0  0  0  0  0
    4.6631   -0.7271    0.0000 H   0  0  0  0  0  0  0  0  0  0  0  0
    2.8608   -2.0005    0.0000 H   0  0  0  0  0  0  0  0  0  0  0  0
    2.8572   -2.4676    0.0000 H   0  0  0  0  0  0  0  0  0  0  0  0
    9.9602    0.6472    0.0000 H   0  0  0  0  0  0  0  0  0  0  0  0
    8.9680    2.1886    0.0000 H   0  0  0  0  0  0  0  0  0  0  0  0
    8.0924    2.2360    0.0000 H   0  0  0  0  0  0  0  0  0  0  0  0
    8.0450    1.3605    0.0000 H   0  0  0  0  0  0  0  0  0  0  0  0
   10.6561    2.7763    0.0000 H   0  0  0  0  0  0  0  0  0  0  0  0
    2.0000   -1.4895    0.0000 H   0  0  0  0  0  0  0  0  0  0  0  0
    2.5220   -3.8973    0.0000 H   0  0  0  0  0  0  0  0  0  0  0  0
   11.4273    0.6200    0.0000 H   0  0  0  0  0  0  0  0  0  0  0  0
    9.9883    3.5206    0.0000 H   0  0  0  0  0  0  0  0  0  0  0  0
   11.9172    1.0596    0.0000 H   0  0  0  0  0  0  0  0  0  0  0  0
   12.7165    1.7768    0.0000 H   0  0  0  0  0  0  0  0  0  0  0  0
   10.9948    4.2437    0.0000 H   0  0  0  0  0  0  0  0  0  0  0  0
   12.5106    2.4438    0.0000 H   0  0  0  0  0  0  0  0  0  0  0  0
   13.2925    2.8405    0.0000 H   0  0  0  0  0  0  0  0  0  0  0  0
   12.8958    3.6224    0.0000 H   0  0  0  0  0  0  0  0  0  0  0  0
   12.6526    4.1016    0.0000 H   0  0  0  0  0  0  0  0  0  0  0  0
   12.2559    4.8836    0.0000 H   0  0  0  0  0  0  0  0  0  0  0  0
   11.4740    4.4869    0.0000 H   0  0  0  0  0  0  0  0  0  0  0  0
   10.2128    3.8470    0.0000 H   0  0  0  0  0  0  0  0  0  0  0  0
   10.6095    3.0651    0.0000 H   0  0  0  0  0  0  0  0  0  0  0  0
  1 21  2  0  0  0  0
  2 24  1  0  0  0  0
  2 68  1  0  0  0  0
  3 25  1  0  0  0  0
  3 69  1  0  0  0  0
  4 26  1  0  0  0  0
  4 70  1  0  0  0  0
  5 28  1  0  0  0  0
  5 71  1  0  0  0  0
  6  7  1  0  0  0  0
  6 11  1  0  0  0  0
  6 12  1  0  0  0  0
  6 20  1  0  0  0  0
  7  8  1  0  0  0  0
  7 14  1  0  0  0  0
  7 35  1  0  0  0  0
  8  9  1  0  0  0  0
  8 17  1  0  0  0  0
  8 36  1  0  0  0  0
  9 10  1  0  0  0  0
  9 13  1  0  0  0  0
  9 37  1  0  0  0  0
 10 15  1  0  0  0  0
 10 18  1  0  0  0  0
 10 23  1  0  0  0  0
 11 16  1  0  0  0  0
 11 19  1  0  0  0  0
 11 38  1  0  0  0  0
 12 13  1  0  0  0  0
 12 39  1  0  0  0  0
 12 40  1  0  0  0  0
 13 41  1  0  0  0  0
 13 42  1  0  0  0  0
 14 16  1  0  0  0  0
 14 43  1  0  0  0  0
 14 44  1  0  0  0  0
 15 21  1  0  0  0  0
 15 22  1  0  0  0  0
 15 45  1  0  0  0  0
 16 46  1  0  0  0  0
 16 47  1  0  0  0  0
 17 21  1  0  0  0  0
 17 48  1  0  0  0  0
 17 49  1  0  0  0  0
 18 24  1  0  0  0  0
 18 50  1  0  0  0  0
 18 51  1  0  0  0  0
 19 26  1  0  0  0  0
 19 27  1  0  0  0  0
 19 52  1  0  0  0  0
 20 53  1  0  0  0  0
 20 54  1  0  0  0  0
 20 55  1  0  0  0  0
 22 25  1  0  0  0  0
 22 56  1  0  0  0  0
 22 57  1  0  0  0  0
 23 58  1  0  0  0  0
 23 59  1  0  0  0  0
 23 60  1  0  0  0  0
 24 25  1  0  0  0  0
 24 61  1  0  0  0  0
 25 62  1  0  0  0  0
 26 28  1  0  0  0  0
 26 63  1  0  0  0  0
 27 64  1  0  0  0  0
 27 65  1  0  0  0  0
 27 66  1  0  0  0  0
 28 29  1  0  0  0  0
 28 67  1  0  0  0  0
 29 30  1  0  0  0  0
 29 31  2  0  0  0  0
 30 32  1  0  0  0  0
 30 33  1  0  0  0  0
 30 34  1  0  0  0  0
 31 72  1  0  0  0  0
 31 73  1  0  0  0  0
 32 78  1  0  0  0  0
 32 79  1  0  0  0  0
 32 80  1  0  0  0  0
 33 75  1  0  0  0  0
 33 76  1  0  0  0  0
 33 77  1  0  0  0  0
 34 74  1  0  0  0  0
 34 81  1  0  0  0  0
 34 82  1  0  0  0  0
M  END
>  <PUBCHEM_COMPOUND_CID>
13991214

>  <PUBCHEM_COMPOUND_CANONICALIZED>
1

>  <PUBCHEM_CACTVS_COMPLEXITY>
816

>  <PUBCHEM_CACTVS_HBOND_ACCEPTOR>
5

>  <PUBCHEM_CACTVS_HBOND_DONOR>
4

>  <PUBCHEM_CACTVS_ROTATABLE_BOND>
5

>  <PUBCHEM_CACTVS_SUBSKEYS>
AAADcfB4OAAAAAAAAAAAAAAAAAAAAYAAAAAwYMAAAAAAAGDAAAAAGgAACAAADxSggAICAAAAAgCIAoBSAAAAAAAgAAAAAAEAAAgBFBIAAQAAQAAEwAABEAGKzPDPgAAAAAAAAADAAAYAACCAAQAACAAAAA==

>  <PUBCHEM_IUPAC_OPENEYE_NAME>
17-(2,3-dihydroxy-1,5,5-trimethyl-4-methylene-hexyl)-2,3-dihydroxy-10,13-dimethyl-1,2,3,4,5,7,8,9,11,12,14,15,16,17-tetradecahydrocyclopenta[a]phenanthren-6-one

>  <PUBCHEM_IUPAC_CAS_NAME>
17-(3,4-dihydroxy-6,6-dimethyl-5-methyleneheptan-2-yl)-2,3-dihydroxy-10,13-dimethyl-1,2,3,4,5,7,8,9,11,12,14,15,16,17-tetradecahydrocyclopenta[a]phenanthren-6-one

>  <PUBCHEM_IUPAC_NAME>
17-(3,4-dihydroxy-6,6-dimethyl-5-methylideneheptan-2-yl)-2,3-dihydroxy-10,13-dimethyl-1,2,3,4,5,7,8,9,11,12,14,15,16,17-tetradecahydrocyclopenta[a]phenanthren-6-one

>  <PUBCHEM_IUPAC_SYSTEMATIC_NAME>
17-[6,6-dimethyl-5-methylidene-3,4-bis(oxidanyl)heptan-2-yl]-10,13-dimethyl-2,3-bis(oxidanyl)-1,2,3,4,5,7,8,9,11,12,14,15,16,17-tetradecahydrocyclopenta[a]phenanthren-6-one

>  <PUBCHEM_IUPAC_TRADITIONAL_NAME>
17-(4-tert-butyl-2,3-dihydroxy-1-methyl-pent-4-enyl)-2,3-dihydroxy-10,13-dimethyl-1,2,3,4,5,7,8,9,11,12,14,15,16,17-tetradecahydrocyclopenta[a]phenanthren-6-one

>  <PUBCHEM_IUPAC_INCHI>
InChI=1S/C29H48O5/c1-15(25(33)26(34)16(2)27(3,4)5)18-8-9-19-17-12-22(30)21-13-23(31)24(32)14-29(21,7)20(17)10-11-28(18,19)6/h15,17-21,23-26,31-34H,2,8-14H2,1,3-7H3

>  <PUBCHEM_IUPAC_INCHIKEY>
HAOQPQZVDMAOKT-UHFFFAOYSA-N

>  <PUBCHEM_XLOGP3_AA>
5.1

>  <PUBCHEM_EXACT_MASS>
476.35

>  <PUBCHEM_MOLECULAR_FORMULA>
C29H48O5

>  <PUBCHEM_MOLECULAR_WEIGHT>
476.698

>  <PUBCHEM_OPENEYE_CAN_SMILES>
CC(C1CCC2C1(CCC3C2CC(=O)C4C3(CC(C(C4)O)O)C)C)C(C(C(=C)C(C)(C)C)O)O

>  <PUBCHEM_OPENEYE_ISO_SMILES>
CC(C1CCC2C1(CCC3C2CC(=O)C4C3(CC(C(C4)O)O)C)C)C(C(C(=C)C(C)(C)C)O)O

>  <PUBCHEM_CACTVS_TPSA>
98

>  <PUBCHEM_MONOISOTOPIC_WEIGHT>
476.35

>  <PUBCHEM_TOTAL_CHARGE>
0

>  <PUBCHEM_HEAVY_ATOM_COUNT>
34

>  <PUBCHEM_ATOM_DEF_STEREO_COUNT>
0

>  <PUBCHEM_ATOM_UDEF_STEREO_COUNT>
12

>  <PUBCHEM_BOND_DEF_STEREO_COUNT>
0

>  <PUBCHEM_BOND_UDEF_STEREO_COUNT>
0

>  <PUBCHEM_ISOTOPIC_ATOM_COUNT>
0

>  <PUBCHEM_COMPONENT_COUNT>
1

>  <PUBCHEM_CACTVS_TAUTO_COUNT>
3

>  <PUBCHEM_COORDINATE_TYPE>
1
5
255

>  <PUBCHEM_BONDANNOTATIONS>
10  23  3
11  16  3
15  22  3
19  27  3
24  2  3
25  3  3
26  4  3
28  5  3
6  20  3
7  14  3
8  17  3
9  13  3

$$$$
