139906
 OpenBabel06101807152D

 31 32  0  0  1  0  0  0  0  0999 V2000
    3.6849   -1.3740    0.0000 S   0  0  0  0  0  0  0  0  0  0  0  0
    3.9437   -0.4081    0.0000 P   0  0  3  0  0  0  0  0  0  0  0  0
    2.5710   -1.0001    0.0000 N   0  0  0  0  0  0  0  0  0  0  0  0
    5.3427   -0.9169    0.0000 N   0  0  0  0  0  0  0  0  0  0  0  0
    2.9659    1.4064    0.0000 N   0  0  0  0  0  0  0  0  0  0  0  0
    4.2025    0.5578    0.0000 C   0  0  3  0  0  0  0  0  0  0  0  0
    2.2290   -0.0604    0.0000 C   0  0  0  0  0  0  0  0  0  0  0  0
    5.6015    0.0490    0.0000 C   0  0  0  0  0  0  0  0  0  0  0  0
    3.8320    1.9064    0.0000 C   0  0  0  0  0  0  0  0  0  0  0  0
    4.4614    1.5237    0.0000 C   0  0  0  0  0  0  0  0  0  0  0  0
    2.1484   -1.9064    0.0000 C   0  0  0  0  0  0  0  0  0  0  0  0
    5.8427   -1.7830    0.0000 C   0  0  0  0  0  0  0  0  0  0  0  0
    2.0000    1.6653    0.0000 C   0  0  0  0  0  0  0  0  0  0  0  0
    2.0347    0.5283    0.0000 H   0  0  0  0  0  0  0  0  0  0  0  0
    1.6432   -0.2636    0.0000 H   0  0  0  0  0  0  0  0  0  0  0  0
    6.1954   -0.1288    0.0000 H   0  0  0  0  0  0  0  0  0  0  0  0
    5.7964    0.6375    0.0000 H   0  0  0  0  0  0  0  0  0  0  0  0
    4.4136    2.1210    0.0000 H   0  0  0  0  0  0  0  0  0  0  0  0
    3.5687    2.4678    0.0000 H   0  0  0  0  0  0  0  0  0  0  0  0
    5.0602    1.3633    0.0000 H   0  0  0  0  0  0  0  0  0  0  0  0
    4.6218    2.1226    0.0000 H   0  0  0  0  0  0  0  0  0  0  0  0
    3.8625    1.6842    0.0000 H   0  0  0  0  0  0  0  0  0  0  0  0
    1.5865   -1.6444    0.0000 H   0  0  0  0  0  0  0  0  0  0  0  0
    1.8864   -2.4684    0.0000 H   0  0  0  0  0  0  0  0  0  0  0  0
    2.7103   -2.1685    0.0000 H   0  0  0  0  0  0  0  0  0  0  0  0
    5.3057   -2.0930    0.0000 H   0  0  0  0  0  0  0  0  0  0  0  0
    6.1527   -2.3199    0.0000 H   0  0  0  0  0  0  0  0  0  0  0  0
    6.3796   -1.4730    0.0000 H   0  0  0  0  0  0  0  0  0  0  0  0
    2.1605    2.2641    0.0000 H   0  0  0  0  0  0  0  0  0  0  0  0
    1.4011    1.8257    0.0000 H   0  0  0  0  0  0  0  0  0  0  0  0
    1.8395    1.0664    0.0000 H   0  0  0  0  0  0  0  0  0  0  0  0
  1  2  2  0  0  0  0
  2  3  1  0  0  0  0
  2  4  1  0  0  0  0
  2  5  1  0  0  0  0
  3  7  1  0  0  0  0
  3 11  1  0  0  0  0
  4  8  1  0  0  0  0
  4 12  1  0  0  0  0
  5  9  1  0  0  0  0
  5 13  1  0  0  0  0
  6  7  1  0  0  0  0
  6  8  1  0  0  0  0
  6  9  1  0  0  0  0
  6 10  1  0  0  0  0
  7 14  1  0  0  0  0
  7 15  1  0  0  0  0
  8 16  1  0  0  0  0
  8 17  1  0  0  0  0
  9 18  1  0  0  0  0
  9 19  1  0  0  0  0
 10 20  1  0  0  0  0
 10 21  1  0  0  0  0
 10 22  1  0  0  0  0
 11 23  1  0  0  0  0
 11 24  1  0  0  0  0
 11 25  1  0  0  0  0
 12 26  1  0  0  0  0
 12 27  1  0  0  0  0
 12 28  1  0  0  0  0
 13 29  1  0  0  0  0
 13 30  1  0  0  0  0
 13 31  1  0  0  0  0
M  END
>  <PUBCHEM_COMPOUND_CID>
139906

>  <PUBCHEM_COMPOUND_CANONICALIZED>
1

>  <PUBCHEM_CACTVS_COMPLEXITY>
240

>  <PUBCHEM_CACTVS_HBOND_ACCEPTOR>
4

>  <PUBCHEM_CACTVS_HBOND_DONOR>
0

>  <PUBCHEM_CACTVS_ROTATABLE_BOND>
0

>  <PUBCHEM_CACTVS_SUBSKEYS>
AAADceBzAAJAAAAAAAAAAAAAAAAAAAAAAAAsWLAAAAAAAAAAAAAAHAAAgAAADgDBAAQCAAIAAAAAAAAAAAAAAAAAAAAAAAAIAAAAAAAAQAAEAAAAAAAAAAAAAAAAAAAAAAAAAAAAAAAAAAAAAAAAAAAAAA==

>  <PUBCHEM_IUPAC_OPENEYE_NAME>
2,4,6,7-tetramethyl-1-thioxo-2,6,7-triaza-1$l^{5}-phosphabicyclo[2.2.2]octane

>  <PUBCHEM_IUPAC_CAS_NAME>
2,4,6,7-tetramethyl-1-sulfanylidene-2,6,7-triaza-1$l^{5}-phosphabicyclo[2.2.2]octane

>  <PUBCHEM_IUPAC_NAME>
2,4,6,7-tetramethyl-1-sulfanylidene-2,6,7-triaza-1$l^{5}-phosphabicyclo[2.2.2]octane

>  <PUBCHEM_IUPAC_SYSTEMATIC_NAME>
2,4,6,7-tetramethyl-1-sulfanylidene-2,6,7-triaza-1$l^{5}-phosphabicyclo[2.2.2]octane

>  <PUBCHEM_IUPAC_TRADITIONAL_NAME>
2,4,6,7-tetramethyl-1-thioxo-2,6,7-triaza-1$l^{5}-phosphabicyclo[2.2.2]octane

>  <PUBCHEM_IUPAC_INCHI>
InChI=1S/C8H18N3PS/c1-8-5-9(2)12(13,10(3)6-8)11(4)7-8/h5-7H2,1-4H3

>  <PUBCHEM_IUPAC_INCHIKEY>
HSDIYUURMFUSLU-UHFFFAOYSA-N

>  <PUBCHEM_XLOGP3_AA>
2

>  <PUBCHEM_EXACT_MASS>
219.096

>  <PUBCHEM_MOLECULAR_FORMULA>
C8H18N3PS

>  <PUBCHEM_MOLECULAR_WEIGHT>
219.287

>  <PUBCHEM_OPENEYE_CAN_SMILES>
CC12CN(P(=S)(N(C1)C)N(C2)C)C

>  <PUBCHEM_OPENEYE_ISO_SMILES>
CC12CN(P(=S)(N(C1)C)N(C2)C)C

>  <PUBCHEM_CACTVS_TPSA>
41.8

>  <PUBCHEM_MONOISOTOPIC_WEIGHT>
219.096

>  <PUBCHEM_TOTAL_CHARGE>
0

>  <PUBCHEM_HEAVY_ATOM_COUNT>
13

>  <PUBCHEM_ATOM_DEF_STEREO_COUNT>
0

>  <PUBCHEM_ATOM_UDEF_STEREO_COUNT>
0

>  <PUBCHEM_BOND_DEF_STEREO_COUNT>
0

>  <PUBCHEM_BOND_UDEF_STEREO_COUNT>
0

>  <PUBCHEM_ISOTOPIC_ATOM_COUNT>
0

>  <PUBCHEM_COMPONENT_COUNT>
1

>  <PUBCHEM_CACTVS_TAUTO_COUNT>
1

>  <PUBCHEM_COORDINATE_TYPE>
1
5
255

$$$$
