13990811
 OpenBabel06101807152D

 35 36  0  0  0  0  0  0  0  0999 V2000
    2.5369   -1.0950    0.0000 O   0  0  0  0  0  0  0  0  0  0  0  0
    6.0010   -1.0950    0.0000 O   0  0  0  0  0  0  0  0  0  0  0  0
    8.5991    3.4050    0.0000 O   0  0  0  0  0  0  0  0  0  0  0  0
    4.2690   -4.0950    0.0000 O   0  0  0  0  0  0  0  0  0  0  0  0
    3.4030    0.4050    0.0000 O   0  0  0  0  0  0  0  0  0  0  0  0
    4.2690   -1.0950    0.0000 C   0  0  0  0  0  0  0  0  0  0  0  0
    6.0010    1.9050    0.0000 C   0  0  0  0  0  0  0  0  0  0  0  0
    3.4030   -1.5950    0.0000 C   0  0  0  0  0  0  0  0  0  0  0  0
    5.1350   -1.5950    0.0000 C   0  0  0  0  0  0  0  0  0  0  0  0
    4.2690   -0.0950    0.0000 C   0  0  0  0  0  0  0  0  0  0  0  0
    5.1350    1.4050    0.0000 C   0  0  0  0  0  0  0  0  0  0  0  0
    3.4030   -2.5950    0.0000 C   0  0  0  0  0  0  0  0  0  0  0  0
    5.1350   -2.5950    0.0000 C   0  0  0  0  0  0  0  0  0  0  0  0
    5.1350    0.4050    0.0000 C   0  0  0  0  0  0  0  0  0  0  0  0
    4.2690   -3.0950    0.0000 C   0  0  0  0  0  0  0  0  0  0  0  0
    6.8671    1.4050    0.0000 C   0  0  0  0  0  0  0  0  0  0  0  0
    6.0010    2.9050    0.0000 C   0  0  0  0  0  0  0  0  0  0  0  0
    7.7331    2.9050    0.0000 C   0  0  0  0  0  0  0  0  0  0  0  0
    7.7331    1.9050    0.0000 C   0  0  0  0  0  0  0  0  0  0  0  0
    6.8671    3.4050    0.0000 C   0  0  0  0  0  0  0  0  0  0  0  0
    8.5991    4.4050    0.0000 C   0  0  0  0  0  0  0  0  0  0  0  0
    4.5981    1.7150    0.0000 H   0  0  0  0  0  0  0  0  0  0  0  0
    2.8660   -2.9050    0.0000 H   0  0  0  0  0  0  0  0  0  0  0  0
    5.6720   -2.9050    0.0000 H   0  0  0  0  0  0  0  0  0  0  0  0
    5.6720    0.0950    0.0000 H   0  0  0  0  0  0  0  0  0  0  0  0
    6.8671    0.7850    0.0000 H   0  0  0  0  0  0  0  0  0  0  0  0
    5.4641    3.2150    0.0000 H   0  0  0  0  0  0  0  0  0  0  0  0
    8.2700    1.5950    0.0000 H   0  0  0  0  0  0  0  0  0  0  0  0
    6.8671    4.0250    0.0000 H   0  0  0  0  0  0  0  0  0  0  0  0
    2.0000   -1.4050    0.0000 H   0  0  0  0  0  0  0  0  0  0  0  0
    6.5380   -1.4050    0.0000 H   0  0  0  0  0  0  0  0  0  0  0  0
    3.7320   -4.4050    0.0000 H   0  0  0  0  0  0  0  0  0  0  0  0
    9.2191    4.4050    0.0000 H   0  0  0  0  0  0  0  0  0  0  0  0
    8.5991    5.0250    0.0000 H   0  0  0  0  0  0  0  0  0  0  0  0
    7.9791    4.4050    0.0000 H   0  0  0  0  0  0  0  0  0  0  0  0
  1  8  1  0  0  0  0
  1 30  1  0  0  0  0
  2  9  1  0  0  0  0
  2 31  1  0  0  0  0
  3 18  1  0  0  0  0
  3 21  1  0  0  0  0
  4 15  1  0  0  0  0
  4 32  1  0  0  0  0
  5 10  2  0  0  0  0
  6  8  2  0  0  0  0
  6  9  1  0  0  0  0
  6 10  1  0  0  0  0
  7 11  1  0  0  0  0
  7 16  2  0  0  0  0
  7 17  1  0  0  0  0
  8 12  1  0  0  0  0
  9 13  2  0  0  0  0
 10 14  1  0  0  0  0
 11 14  2  0  0  0  0
 11 22  1  0  0  0  0
 12 15  2  0  0  0  0
 12 23  1  0  0  0  0
 13 15  1  0  0  0  0
 13 24  1  0  0  0  0
 14 25  1  0  0  0  0
 16 19  1  0  0  0  0
 16 26  1  0  0  0  0
 17 20  2  0  0  0  0
 17 27  1  0  0  0  0
 18 19  2  0  0  0  0
 18 20  1  0  0  0  0
 19 28  1  0  0  0  0
 20 29  1  0  0  0  0
 21 33  1  0  0  0  0
 21 34  1  0  0  0  0
 21 35  1  0  0  0  0
M  END
>  <PUBCHEM_COMPOUND_CID>
13990811

>  <PUBCHEM_COMPOUND_CANONICALIZED>
1

>  <PUBCHEM_CACTVS_COMPLEXITY>
361

>  <PUBCHEM_CACTVS_HBOND_ACCEPTOR>
5

>  <PUBCHEM_CACTVS_HBOND_DONOR>
3

>  <PUBCHEM_CACTVS_ROTATABLE_BOND>
4

>  <PUBCHEM_CACTVS_SUBSKEYS>
AAADccB4OAAAAAAAAAAAAAAAAAAAAAAAAAAwYAAAAAAAAAABQAAAGgAACAAADASAmAIyBoAABgCIAqBSAAACCAAkIAAIiAEGCMgMJzaGNRqAcWAl4BUIuYeI7KTOIAAACAAIAABAAAAQABAAAAAAAAAAAA==

>  <PUBCHEM_IUPAC_OPENEYE_NAME>
(E)-3-(4-methoxyphenyl)-1-(2,4,6-trihydroxyphenyl)prop-2-en-1-one

>  <PUBCHEM_IUPAC_CAS_NAME>
(E)-3-(4-methoxyphenyl)-1-(2,4,6-trihydroxyphenyl)-2-propen-1-one

>  <PUBCHEM_IUPAC_NAME>
(E)-3-(4-methoxyphenyl)-1-(2,4,6-trihydroxyphenyl)prop-2-en-1-one

>  <PUBCHEM_IUPAC_SYSTEMATIC_NAME>
(E)-3-(4-methoxyphenyl)-1-[2,4,6-tris(oxidanyl)phenyl]prop-2-en-1-one

>  <PUBCHEM_IUPAC_TRADITIONAL_NAME>
(E)-3-(4-methoxyphenyl)-1-(2,4,6-trihydroxyphenyl)prop-2-en-1-one

>  <PUBCHEM_IUPAC_INCHI>
InChI=1S/C16H14O5/c1-21-12-5-2-10(3-6-12)4-7-13(18)16-14(19)8-11(17)9-15(16)20/h2-9,17,19-20H,1H3/b7-4+

>  <PUBCHEM_IUPAC_INCHIKEY>
DGUBZDXYXXUHTJ-QPJJXVBHSA-N

>  <PUBCHEM_XLOGP3_AA>
3.1

>  <PUBCHEM_EXACT_MASS>
286.084

>  <PUBCHEM_MOLECULAR_FORMULA>
C16H14O5

>  <PUBCHEM_MOLECULAR_WEIGHT>
286.283

>  <PUBCHEM_OPENEYE_CAN_SMILES>
COC1=CC=C(C=C1)C=CC(=O)C2=C(C=C(C=C2O)O)O

>  <PUBCHEM_OPENEYE_ISO_SMILES>
COC1=CC=C(C=C1)/C=C/C(=O)C2=C(C=C(C=C2O)O)O

>  <PUBCHEM_CACTVS_TPSA>
87

>  <PUBCHEM_MONOISOTOPIC_WEIGHT>
286.084

>  <PUBCHEM_TOTAL_CHARGE>
0

>  <PUBCHEM_HEAVY_ATOM_COUNT>
21

>  <PUBCHEM_ATOM_DEF_STEREO_COUNT>
0

>  <PUBCHEM_ATOM_UDEF_STEREO_COUNT>
0

>  <PUBCHEM_BOND_DEF_STEREO_COUNT>
1

>  <PUBCHEM_BOND_UDEF_STEREO_COUNT>
0

>  <PUBCHEM_ISOTOPIC_ATOM_COUNT>
0

>  <PUBCHEM_COMPONENT_COUNT>
1

>  <PUBCHEM_CACTVS_TAUTO_COUNT>
15

>  <PUBCHEM_COORDINATE_TYPE>
1
5
255

>  <PUBCHEM_BONDANNOTATIONS>
12  15  8
13  15  8
16  19  8
17  20  8
18  19  8
18  20  8
6  8  8
6  9  8
7  16  8
7  17  8
8  12  8
9  13  8

$$$$
