14018335
 OpenBabel06101807152D

 50 52  0  0  1  0  0  0  0  0999 V2000
    8.6793   -0.3833    0.0000 O   0  0  0  0  0  0  0  0  0  0  0  0
    6.8671   -1.5786    0.0000 O   0  0  0  0  0  0  0  0  0  0  0  0
   12.2629   -1.3106    0.0000 O   0  0  0  0  0  0  0  0  0  0  0  0
   13.2629    0.4214    0.0000 O   0  0  0  0  0  0  0  0  0  0  0  0
    2.5369    0.9214    0.0000 O   0  0  0  0  0  0  0  0  0  0  0  0
    8.6793    1.2261    0.0000 C   0  0  3  0  0  0  0  0  0  0  0  0
    9.2629    0.4214    0.0000 C   0  0  3  0  0  0  0  0  0  0  0  0
    7.7331    0.9214    0.0000 C   0  0  0  0  0  0  0  0  0  0  0  0
    7.7331   -0.0786    0.0000 C   0  0  0  0  0  0  0  0  0  0  0  0
   10.2629    0.4214    0.0000 C   0  0  0  0  0  0  0  0  0  0  0  0
    8.9900    2.1767    0.0000 C   0  0  0  0  0  0  0  0  0  0  0  0
    6.8671    1.4214    0.0000 C   0  0  0  0  0  0  0  0  0  0  0  0
    6.8671   -0.5786    0.0000 C   0  0  0  0  0  0  0  0  0  0  0  0
    6.0010    0.9214    0.0000 C   0  0  0  0  0  0  0  0  0  0  0  0
   10.7629   -0.4446    0.0000 C   0  0  0  0  0  0  0  0  0  0  0  0
   10.7629    1.2874    0.0000 C   0  0  0  0  0  0  0  0  0  0  0  0
    6.0010   -0.0786    0.0000 C   0  0  0  0  0  0  0  0  0  0  0  0
   11.7629   -0.4446    0.0000 C   0  0  0  0  0  0  0  0  0  0  0  0
   11.7629    1.2874    0.0000 C   0  0  0  0  0  0  0  0  0  0  0  0
   12.2629    0.4214    0.0000 C   0  0  0  0  0  0  0  0  0  0  0  0
    5.1350    1.4214    0.0000 C   0  0  0  0  0  0  0  0  0  0  0  0
    6.0010   -2.0786    0.0000 C   0  0  0  0  0  0  0  0  0  0  0  0
    4.2690    0.9214    0.0000 C   0  0  0  0  0  0  0  0  0  0  0  0
    3.4030    1.4214    0.0000 C   0  0  0  0  0  0  0  0  0  0  0  0
   11.7629   -2.1767    0.0000 C   0  0  0  0  0  0  0  0  0  0  0  0
   13.7629    1.2874    0.0000 C   0  0  0  0  0  0  0  0  0  0  0  0
    8.2418    1.6655    0.0000 H   0  0  0  0  0  0  0  0  0  0  0  0
    9.5446   -0.1309    0.0000 H   0  0  0  0  0  0  0  0  0  0  0  0
    9.5793    1.9840    0.0000 H   0  0  0  0  0  0  0  0  0  0  0  0
    9.1826    2.7660    0.0000 H   0  0  0  0  0  0  0  0  0  0  0  0
    8.4006    2.3693    0.0000 H   0  0  0  0  0  0  0  0  0  0  0  0
    6.8671    2.0414    0.0000 H   0  0  0  0  0  0  0  0  0  0  0  0
   10.4529   -0.9815    0.0000 H   0  0  0  0  0  0  0  0  0  0  0  0
   10.4529    1.8244    0.0000 H   0  0  0  0  0  0  0  0  0  0  0  0
    5.4641   -0.3886    0.0000 H   0  0  0  0  0  0  0  0  0  0  0  0
   12.0729    1.8244    0.0000 H   0  0  0  0  0  0  0  0  0  0  0  0
    5.1350    2.0414    0.0000 H   0  0  0  0  0  0  0  0  0  0  0  0
    5.6910   -1.5416    0.0000 H   0  0  0  0  0  0  0  0  0  0  0  0
    5.4641   -2.3886    0.0000 H   0  0  0  0  0  0  0  0  0  0  0  0
    6.3110   -2.6155    0.0000 H   0  0  0  0  0  0  0  0  0  0  0  0
    4.2690    0.3014    0.0000 H   0  0  0  0  0  0  0  0  0  0  0  0
    3.8015    1.8964    0.0000 H   0  0  0  0  0  0  0  0  0  0  0  0
    3.0044    1.8964    0.0000 H   0  0  0  0  0  0  0  0  0  0  0  0
   11.2260   -1.8667    0.0000 H   0  0  0  0  0  0  0  0  0  0  0  0
   11.4529   -2.7136    0.0000 H   0  0  0  0  0  0  0  0  0  0  0  0
   12.2999   -2.4867    0.0000 H   0  0  0  0  0  0  0  0  0  0  0  0
   14.2999    0.9774    0.0000 H   0  0  0  0  0  0  0  0  0  0  0  0
   14.0729    1.8244    0.0000 H   0  0  0  0  0  0  0  0  0  0  0  0
   13.2260    1.5974    0.0000 H   0  0  0  0  0  0  0  0  0  0  0  0
    2.0000    1.2314    0.0000 H   0  0  0  0  0  0  0  0  0  0  0  0
  1  7  1  0  0  0  0
  1  9  1  0  0  0  0
  2 13  1  0  0  0  0
  2 22  1  0  0  0  0
  3 18  1  0  0  0  0
  3 25  1  0  0  0  0
  4 20  1  0  0  0  0
  4 26  1  0  0  0  0
  5 24  1  0  0  0  0
  5 50  1  0  0  0  0
  6  7  1  0  0  0  0
  6  8  1  0  0  0  0
  6 11  1  0  0  0  0
  6 27  1  0  0  0  0
  7 10  1  0  0  0  0
  7 28  1  0  0  0  0
  8  9  2  0  0  0  0
  8 12  1  0  0  0  0
  9 13  1  0  0  0  0
 10 15  2  0  0  0  0
 10 16  1  0  0  0  0
 11 29  1  0  0  0  0
 11 30  1  0  0  0  0
 11 31  1  0  0  0  0
 12 14  2  0  0  0  0
 12 32  1  0  0  0  0
 13 17  2  0  0  0  0
 14 17  1  0  0  0  0
 14 21  1  0  0  0  0
 15 18  1  0  0  0  0
 15 33  1  0  0  0  0
 16 19  2  0  0  0  0
 16 34  1  0  0  0  0
 17 35  1  0  0  0  0
 18 20  2  0  0  0  0
 19 20  1  0  0  0  0
 19 36  1  0  0  0  0
 21 23  2  0  0  0  0
 21 37  1  0  0  0  0
 22 38  1  0  0  0  0
 22 39  1  0  0  0  0
 22 40  1  0  0  0  0
 23 24  1  0  0  0  0
 23 41  1  0  0  0  0
 24 42  1  0  0  0  0
 24 43  1  0  0  0  0
 25 44  1  0  0  0  0
 25 45  1  0  0  0  0
 25 46  1  0  0  0  0
 26 47  1  0  0  0  0
 26 48  1  0  0  0  0
 26 49  1  0  0  0  0
M  END
>  <PUBCHEM_COMPOUND_CID>
14018335

>  <PUBCHEM_COMPOUND_CANONICALIZED>
1

>  <PUBCHEM_CACTVS_COMPLEXITY>
467

>  <PUBCHEM_CACTVS_HBOND_ACCEPTOR>
5

>  <PUBCHEM_CACTVS_HBOND_DONOR>
1

>  <PUBCHEM_CACTVS_ROTATABLE_BOND>
6

>  <PUBCHEM_CACTVS_SUBSKEYS>
AAADceB4OAAAAAAAAAAAAAAAAAAAASAAAAAwYAAAAAAAAEgBQAAAGgAACAAADRSgmAIyBoAABgCAAiBCAAACCAAgIAAIiAAGiIgNNiKEMRqCOCKkwBEKuAfA4PwOoAADAAAIQABAAAYAABCAAAAAAAAAAA==

>  <PUBCHEM_IUPAC_OPENEYE_NAME>
(E)-3-[2-(3,4-dimethoxyphenyl)-7-methoxy-3-methyl-2,3-dihydrobenzofuran-5-yl]prop-2-en-1-ol

>  <PUBCHEM_IUPAC_CAS_NAME>
(E)-3-[2-(3,4-dimethoxyphenyl)-7-methoxy-3-methyl-2,3-dihydrobenzofuran-5-yl]-2-propen-1-ol

>  <PUBCHEM_IUPAC_NAME>
(E)-3-[2-(3,4-dimethoxyphenyl)-7-methoxy-3-methyl-2,3-dihydro-1-benzofuran-5-yl]prop-2-en-1-ol

>  <PUBCHEM_IUPAC_SYSTEMATIC_NAME>
(E)-3-[2-(3,4-dimethoxyphenyl)-7-methoxy-3-methyl-2,3-dihydro-1-benzofuran-5-yl]prop-2-en-1-ol

>  <PUBCHEM_IUPAC_TRADITIONAL_NAME>
(E)-3-[2-(3,4-dimethoxyphenyl)-7-methoxy-3-methyl-coumaran-5-yl]prop-2-en-1-ol

>  <PUBCHEM_IUPAC_INCHI>
InChI=1S/C21H24O5/c1-13-16-10-14(6-5-9-22)11-19(25-4)21(16)26-20(13)15-7-8-17(23-2)18(12-15)24-3/h5-8,10-13,20,22H,9H2,1-4H3/b6-5+

>  <PUBCHEM_IUPAC_INCHIKEY>
JRYJEMVPVZEOPW-AATRIKPKSA-N

>  <PUBCHEM_XLOGP3_AA>
3.5

>  <PUBCHEM_EXACT_MASS>
356.162

>  <PUBCHEM_MOLECULAR_FORMULA>
C21H24O5

>  <PUBCHEM_MOLECULAR_WEIGHT>
356.418

>  <PUBCHEM_OPENEYE_CAN_SMILES>
CC1C(OC2=C1C=C(C=C2OC)C=CCO)C3=CC(=C(C=C3)OC)OC

>  <PUBCHEM_OPENEYE_ISO_SMILES>
CC1C(OC2=C1C=C(C=C2OC)/C=C/CO)C3=CC(=C(C=C3)OC)OC

>  <PUBCHEM_CACTVS_TPSA>
57.2

>  <PUBCHEM_MONOISOTOPIC_WEIGHT>
356.162

>  <PUBCHEM_TOTAL_CHARGE>
0

>  <PUBCHEM_HEAVY_ATOM_COUNT>
26

>  <PUBCHEM_ATOM_DEF_STEREO_COUNT>
0

>  <PUBCHEM_ATOM_UDEF_STEREO_COUNT>
2

>  <PUBCHEM_BOND_DEF_STEREO_COUNT>
1

>  <PUBCHEM_BOND_UDEF_STEREO_COUNT>
0

>  <PUBCHEM_ISOTOPIC_ATOM_COUNT>
0

>  <PUBCHEM_COMPONENT_COUNT>
1

>  <PUBCHEM_CACTVS_TAUTO_COUNT>
1

>  <PUBCHEM_COORDINATE_TYPE>
1
5
255

>  <PUBCHEM_BONDANNOTATIONS>
10  15  8
10  16  8
12  14  8
13  17  8
14  17  8
15  18  8
16  19  8
18  20  8
19  20  8
6  11  3
7  10  3
8  12  8
8  9  8
9  13  8

$$$$
