14015414
 OpenBabel06101807152D

 56 58  0  0  1  0  0  0  0  0999 V2000
    4.6587   -0.0587    0.0000 O   0  0  0  0  0  0  0  0  0  0  0  0
    7.1998   -3.6465    0.0000 O   0  0  0  0  0  0  0  0  0  0  0  0
    3.7357   -3.6465    0.0000 O   0  0  0  0  0  0  0  0  0  0  0  0
    4.6056    4.3375    0.0000 O   0  0  0  0  0  0  0  0  0  0  0  0
    5.4677   -4.6465    0.0000 O   0  0  0  0  0  0  0  0  0  0  0  0
    2.6166    4.1284    0.0000 O   0  0  0  0  0  0  0  0  0  0  0  0
    6.2768   -0.0587    0.0000 C   0  0  3  0  0  0  0  0  0  0  0  0
    5.9677    0.8924    0.0000 C   0  0  3  0  0  0  0  0  0  0  0  0
    5.4677   -0.6465    0.0000 C   0  0  3  0  0  0  0  0  0  0  0  0
    4.9677    0.8924    0.0000 C   0  0  3  0  0  0  0  0  0  0  0  0
    7.2278   -0.3677    0.0000 C   0  0  0  0  0  0  0  0  0  0  0  0
    6.5555    1.7014    0.0000 C   0  0  0  0  0  0  0  0  0  0  0  0
    5.4677   -1.6465    0.0000 C   0  0  0  0  0  0  0  0  0  0  0  0
    4.3800    1.7014    0.0000 C   0  0  0  0  0  0  0  0  0  0  0  0
    4.6017   -2.1465    0.0000 C   0  0  0  0  0  0  0  0  0  0  0  0
    6.3338   -2.1465    0.0000 C   0  0  0  0  0  0  0  0  0  0  0  0
    4.7867    2.6149    0.0000 C   0  0  0  0  0  0  0  0  0  0  0  0
    3.3854    1.5968    0.0000 C   0  0  0  0  0  0  0  0  0  0  0  0
    6.3338   -3.1465    0.0000 C   0  0  0  0  0  0  0  0  0  0  0  0
    4.6017   -3.1465    0.0000 C   0  0  0  0  0  0  0  0  0  0  0  0
    4.1989    3.4239    0.0000 C   0  0  0  0  0  0  0  0  0  0  0  0
    2.7976    2.4059    0.0000 C   0  0  0  0  0  0  0  0  0  0  0  0
    5.4677   -3.6465    0.0000 C   0  0  0  0  0  0  0  0  0  0  0  0
    3.2044    3.3194    0.0000 C   0  0  0  0  0  0  0  0  0  0  0  0
    8.0658   -3.1465    0.0000 C   0  0  0  0  0  0  0  0  0  0  0  0
    2.8697   -3.1465    0.0000 C   0  0  0  0  0  0  0  0  0  0  0  0
    4.0179    5.1465    0.0000 C   0  0  0  0  0  0  0  0  0  0  0  0
    4.6017   -5.1465    0.0000 C   0  0  0  0  0  0  0  0  0  0  0  0
    6.7152    0.3797    0.0000 H   0  0  0  0  0  0  0  0  0  0  0  0
    5.6863    1.4448    0.0000 H   0  0  0  0  0  0  0  0  0  0  0  0
    4.9153   -0.9280    0.0000 H   0  0  0  0  0  0  0  0  0  0  0  0
    4.3554    0.7954    0.0000 H   0  0  0  0  0  0  0  0  0  0  0  0
    7.0362   -0.9574    0.0000 H   0  0  0  0  0  0  0  0  0  0  0  0
    7.8175   -0.5593    0.0000 H   0  0  0  0  0  0  0  0  0  0  0  0
    7.4194    0.2219    0.0000 H   0  0  0  0  0  0  0  0  0  0  0  0
    7.0571    1.3369    0.0000 H   0  0  0  0  0  0  0  0  0  0  0  0
    6.9200    2.2030    0.0000 H   0  0  0  0  0  0  0  0  0  0  0  0
    6.0539    2.0658    0.0000 H   0  0  0  0  0  0  0  0  0  0  0  0
    4.0648   -1.8365    0.0000 H   0  0  0  0  0  0  0  0  0  0  0  0
    6.8707   -1.8365    0.0000 H   0  0  0  0  0  0  0  0  0  0  0  0
    5.4033    2.6797    0.0000 H   0  0  0  0  0  0  0  0  0  0  0  0
    3.1333    1.0304    0.0000 H   0  0  0  0  0  0  0  0  0  0  0  0
    2.1810    2.3410    0.0000 H   0  0  0  0  0  0  0  0  0  0  0  0
    2.0000    4.0636    0.0000 H   0  0  0  0  0  0  0  0  0  0  0  0
    8.3758   -3.6834    0.0000 H   0  0  0  0  0  0  0  0  0  0  0  0
    8.6028   -2.8365    0.0000 H   0  0  0  0  0  0  0  0  0  0  0  0
    7.7558   -2.6096    0.0000 H   0  0  0  0  0  0  0  0  0  0  0  0
    3.1797   -2.6096    0.0000 H   0  0  0  0  0  0  0  0  0  0  0  0
    2.3327   -2.8365    0.0000 H   0  0  0  0  0  0  0  0  0  0  0  0
    2.5597   -3.6834    0.0000 H   0  0  0  0  0  0  0  0  0  0  0  0
    4.5194    5.5109    0.0000 H   0  0  0  0  0  0  0  0  0  0  0  0
    3.6534    5.6481    0.0000 H   0  0  0  0  0  0  0  0  0  0  0  0
    3.5163    4.7821    0.0000 H   0  0  0  0  0  0  0  0  0  0  0  0
    4.2917   -4.6096    0.0000 H   0  0  0  0  0  0  0  0  0  0  0  0
    4.0648   -5.4565    0.0000 H   0  0  0  0  0  0  0  0  0  0  0  0
    4.9117   -5.6834    0.0000 H   0  0  0  0  0  0  0  0  0  0  0  0
  1  9  1  0  0  0  0
  1 10  1  0  0  0  0
  2 19  1  0  0  0  0
  2 25  1  0  0  0  0
  3 20  1  0  0  0  0
  3 26  1  0  0  0  0
  4 21  1  0  0  0  0
  4 27  1  0  0  0  0
  5 23  1  0  0  0  0
  5 28  1  0  0  0  0
  6 24  1  0  0  0  0
  6 44  1  0  0  0  0
  7  8  1  0  0  0  0
  7  9  1  0  0  0  0
  7 11  1  0  0  0  0
  7 29  1  0  0  0  0
  8 10  1  0  0  0  0
  8 12  1  0  0  0  0
  8 30  1  0  0  0  0
  9 13  1  0  0  0  0
  9 31  1  0  0  0  0
 10 14  1  0  0  0  0
 10 32  1  0  0  0  0
 11 33  1  0  0  0  0
 11 34  1  0  0  0  0
 11 35  1  0  0  0  0
 12 36  1  0  0  0  0
 12 37  1  0  0  0  0
 12 38  1  0  0  0  0
 13 15  2  0  0  0  0
 13 16  1  0  0  0  0
 14 17  2  0  0  0  0
 14 18  1  0  0  0  0
 15 20  1  0  0  0  0
 15 39  1  0  0  0  0
 16 19  2  0  0  0  0
 16 40  1  0  0  0  0
 17 21  1  0  0  0  0
 17 41  1  0  0  0  0
 18 22  2  0  0  0  0
 18 42  1  0  0  0  0
 19 23  1  0  0  0  0
 20 23  2  0  0  0  0
 21 24  2  0  0  0  0
 22 24  1  0  0  0  0
 22 43  1  0  0  0  0
 25 45  1  0  0  0  0
 25 46  1  0  0  0  0
 25 47  1  0  0  0  0
 26 48  1  0  0  0  0
 26 49  1  0  0  0  0
 26 50  1  0  0  0  0
 27 51  1  0  0  0  0
 27 52  1  0  0  0  0
 27 53  1  0  0  0  0
 28 54  1  0  0  0  0
 28 55  1  0  0  0  0
 28 56  1  0  0  0  0
M  END
>  <PUBCHEM_COMPOUND_CID>
14015414

>  <PUBCHEM_COMPOUND_CANONICALIZED>
1

>  <PUBCHEM_CACTVS_COMPLEXITY>
474

>  <PUBCHEM_CACTVS_HBOND_ACCEPTOR>
6

>  <PUBCHEM_CACTVS_HBOND_DONOR>
1

>  <PUBCHEM_CACTVS_ROTATABLE_BOND>
6

>  <PUBCHEM_CACTVS_SUBSKEYS>
AAADceB4OAAAAAAAAAAAAAAAAAAAASAAAAAwYAAAAAAAAAABQAAAGgAACAAADRSgmAIyBoAABgCAAiBCAAACCAAgIAAIiAAGiIgNJyKGMRqCcCMlwBULuAfA4PwOoAABCAAAQABAAAIQAACAAAAAAAAAAA==

>  <PUBCHEM_IUPAC_OPENEYE_NAME>
4-[3,4-dimethyl-5-(3,4,5-trimethoxyphenyl)tetrahydrofuran-2-yl]-2-methoxy-phenol

>  <PUBCHEM_IUPAC_CAS_NAME>
4-[3,4-dimethyl-5-(3,4,5-trimethoxyphenyl)-2-oxolanyl]-2-methoxyphenol

>  <PUBCHEM_IUPAC_NAME>
4-[3,4-dimethyl-5-(3,4,5-trimethoxyphenyl)oxolan-2-yl]-2-methoxyphenol

>  <PUBCHEM_IUPAC_SYSTEMATIC_NAME>
4-[3,4-dimethyl-5-(3,4,5-trimethoxyphenyl)oxolan-2-yl]-2-methoxy-phenol

>  <PUBCHEM_IUPAC_TRADITIONAL_NAME>
4-[3,4-dimethyl-5-(3,4,5-trimethoxyphenyl)tetrahydrofuran-2-yl]-2-methoxy-phenol

>  <PUBCHEM_IUPAC_INCHI>
InChI=1S/C22H28O6/c1-12-13(2)21(15-10-18(25-4)22(27-6)19(11-15)26-5)28-20(12)14-7-8-16(23)17(9-14)24-3/h7-13,20-21,23H,1-6H3

>  <PUBCHEM_IUPAC_INCHIKEY>
XEDYWOVSWKYCOS-UHFFFAOYSA-N

>  <PUBCHEM_XLOGP3_AA>
4

>  <PUBCHEM_EXACT_MASS>
388.189

>  <PUBCHEM_MOLECULAR_FORMULA>
C22H28O6

>  <PUBCHEM_MOLECULAR_WEIGHT>
388.46

>  <PUBCHEM_OPENEYE_CAN_SMILES>
CC1C(C(OC1C2=CC(=C(C=C2)O)OC)C3=CC(=C(C(=C3)OC)OC)OC)C

>  <PUBCHEM_OPENEYE_ISO_SMILES>
CC1C(C(OC1C2=CC(=C(C=C2)O)OC)C3=CC(=C(C(=C3)OC)OC)OC)C

>  <PUBCHEM_CACTVS_TPSA>
66.4

>  <PUBCHEM_MONOISOTOPIC_WEIGHT>
388.189

>  <PUBCHEM_TOTAL_CHARGE>
0

>  <PUBCHEM_HEAVY_ATOM_COUNT>
28

>  <PUBCHEM_ATOM_DEF_STEREO_COUNT>
0

>  <PUBCHEM_ATOM_UDEF_STEREO_COUNT>
4

>  <PUBCHEM_BOND_DEF_STEREO_COUNT>
0

>  <PUBCHEM_BOND_UDEF_STEREO_COUNT>
0

>  <PUBCHEM_ISOTOPIC_ATOM_COUNT>
0

>  <PUBCHEM_COMPONENT_COUNT>
1

>  <PUBCHEM_CACTVS_TAUTO_COUNT>
3

>  <PUBCHEM_COORDINATE_TYPE>
1
5
255

>  <PUBCHEM_BONDANNOTATIONS>
10  14  3
13  15  8
13  16  8
14  17  8
14  18  8
15  20  8
16  19  8
17  21  8
18  22  8
19  23  8
20  23  8
21  24  8
22  24  8
7  11  3
8  12  3
9  13  3

$$$$
