14015411
 OpenBabel06101807152D

 53 55  0  0  1  0  0  0  0  0999 V2000
    7.8133   -0.7557    0.0000 O   0  0  0  0  0  0  0  0  0  0  0  0
    6.0010   -1.9510    0.0000 O   0  0  0  0  0  0  0  0  0  0  0  0
    4.2690    2.0490    0.0000 O   0  0  0  0  0  0  0  0  0  0  0  0
    2.5369    1.0490    0.0000 O   0  0  0  0  0  0  0  0  0  0  0  0
   11.3969   -1.6830    0.0000 O   0  0  0  0  0  0  0  0  0  0  0  0
   12.3969    0.0490    0.0000 O   0  0  0  0  0  0  0  0  0  0  0  0
    7.8133    0.8538    0.0000 C   0  0  3  0  0  0  0  0  0  0  0  0
    8.3969    0.0490    0.0000 C   0  0  3  0  0  0  0  0  0  0  0  0
    6.8671    0.5490    0.0000 C   0  0  0  0  0  0  0  0  0  0  0  0
    6.8671   -0.4510    0.0000 C   0  0  0  0  0  0  0  0  0  0  0  0
    8.1240    1.8043    0.0000 C   0  0  0  0  0  0  0  0  0  0  0  0
    6.0010    1.0490    0.0000 C   0  0  0  0  0  0  0  0  0  0  0  0
    9.3969    0.0490    0.0000 C   0  0  0  0  0  0  0  0  0  0  0  0
    5.1350    0.5490    0.0000 C   0  0  0  0  0  0  0  0  0  0  0  0
    6.0010   -0.9510    0.0000 C   0  0  0  0  0  0  0  0  0  0  0  0
    4.2690    1.0490    0.0000 C   0  0  3  0  0  0  0  0  0  0  0  0
    5.1350   -0.4510    0.0000 C   0  0  0  0  0  0  0  0  0  0  0  0
    3.4030    0.5490    0.0000 C   0  0  3  0  0  0  0  0  0  0  0  0
    9.8969   -0.8170    0.0000 C   0  0  0  0  0  0  0  0  0  0  0  0
    9.8969    0.9151    0.0000 C   0  0  0  0  0  0  0  0  0  0  0  0
   10.8969   -0.8170    0.0000 C   0  0  0  0  0  0  0  0  0  0  0  0
    3.4030   -0.4510    0.0000 C   0  0  0  0  0  0  0  0  0  0  0  0
   10.8969    0.9151    0.0000 C   0  0  0  0  0  0  0  0  0  0  0  0
   11.3969    0.0490    0.0000 C   0  0  0  0  0  0  0  0  0  0  0  0
    5.1350   -2.4510    0.0000 C   0  0  0  0  0  0  0  0  0  0  0  0
    3.4030    2.5490    0.0000 C   0  0  0  0  0  0  0  0  0  0  0  0
   10.8969   -2.5490    0.0000 C   0  0  0  0  0  0  0  0  0  0  0  0
    7.3758    1.2931    0.0000 H   0  0  0  0  0  0  0  0  0  0  0  0
    8.6786   -0.5033    0.0000 H   0  0  0  0  0  0  0  0  0  0  0  0
    8.7133    1.6117    0.0000 H   0  0  0  0  0  0  0  0  0  0  0  0
    8.3166    2.3936    0.0000 H   0  0  0  0  0  0  0  0  0  0  0  0
    7.5346    1.9969    0.0000 H   0  0  0  0  0  0  0  0  0  0  0  0
    6.0010    1.6690    0.0000 H   0  0  0  0  0  0  0  0  0  0  0  0
    4.8059    1.3590    0.0000 H   0  0  0  0  0  0  0  0  0  0  0  0
    4.5981   -0.7610    0.0000 H   0  0  0  0  0  0  0  0  0  0  0  0
    3.4030    1.1690    0.0000 H   0  0  0  0  0  0  0  0  0  0  0  0
    9.5869   -1.3539    0.0000 H   0  0  0  0  0  0  0  0  0  0  0  0
    9.5869    1.4520    0.0000 H   0  0  0  0  0  0  0  0  0  0  0  0
    2.7830   -0.4510    0.0000 H   0  0  0  0  0  0  0  0  0  0  0  0
    3.4030   -1.0710    0.0000 H   0  0  0  0  0  0  0  0  0  0  0  0
    4.0230   -0.4510    0.0000 H   0  0  0  0  0  0  0  0  0  0  0  0
   11.2069    1.4520    0.0000 H   0  0  0  0  0  0  0  0  0  0  0  0
    2.0000    0.7390    0.0000 H   0  0  0  0  0  0  0  0  0  0  0  0
    4.8250   -1.9140    0.0000 H   0  0  0  0  0  0  0  0  0  0  0  0
    4.5981   -2.7610    0.0000 H   0  0  0  0  0  0  0  0  0  0  0  0
    5.4450   -2.9879    0.0000 H   0  0  0  0  0  0  0  0  0  0  0  0
    3.7130    3.0860    0.0000 H   0  0  0  0  0  0  0  0  0  0  0  0
    2.8660    2.8590    0.0000 H   0  0  0  0  0  0  0  0  0  0  0  0
    3.0930    2.0121    0.0000 H   0  0  0  0  0  0  0  0  0  0  0  0
   12.7069    0.5860    0.0000 H   0  0  0  0  0  0  0  0  0  0  0  0
   10.3600   -2.2390    0.0000 H   0  0  0  0  0  0  0  0  0  0  0  0
   10.5869   -3.0860    0.0000 H   0  0  0  0  0  0  0  0  0  0  0  0
   11.4338   -2.8590    0.0000 H   0  0  0  0  0  0  0  0  0  0  0  0
  1  8  1  0  0  0  0
  1 10  1  0  0  0  0
  2 15  1  0  0  0  0
  2 25  1  0  0  0  0
  3 16  1  0  0  0  0
  3 26  1  0  0  0  0
  4 18  1  0  0  0  0
  4 43  1  0  0  0  0
  5 21  1  0  0  0  0
  5 27  1  0  0  0  0
  6 24  1  0  0  0  0
  6 50  1  0  0  0  0
  7  8  1  0  0  0  0
  7  9  1  0  0  0  0
  7 11  1  0  0  0  0
  7 28  1  0  0  0  0
  8 13  1  0  0  0  0
  8 29  1  0  0  0  0
  9 10  2  0  0  0  0
  9 12  1  0  0  0  0
 10 15  1  0  0  0  0
 11 30  1  0  0  0  0
 11 31  1  0  0  0  0
 11 32  1  0  0  0  0
 12 14  2  0  0  0  0
 12 33  1  0  0  0  0
 13 19  2  0  0  0  0
 13 20  1  0  0  0  0
 14 16  1  0  0  0  0
 14 17  1  0  0  0  0
 15 17  2  0  0  0  0
 16 18  1  0  0  0  0
 16 34  1  0  0  0  0
 17 35  1  0  0  0  0
 18 22  1  0  0  0  0
 18 36  1  0  0  0  0
 19 21  1  0  0  0  0
 19 37  1  0  0  0  0
 20 23  2  0  0  0  0
 20 38  1  0  0  0  0
 21 24  2  0  0  0  0
 22 39  1  0  0  0  0
 22 40  1  0  0  0  0
 22 41  1  0  0  0  0
 23 24  1  0  0  0  0
 23 42  1  0  0  0  0
 25 44  1  0  0  0  0
 25 45  1  0  0  0  0
 25 46  1  0  0  0  0
 26 47  1  0  0  0  0
 26 48  1  0  0  0  0
 26 49  1  0  0  0  0
 27 51  1  0  0  0  0
 27 52  1  0  0  0  0
 27 53  1  0  0  0  0
M  END
>  <PUBCHEM_COMPOUND_CID>
14015411

>  <PUBCHEM_COMPOUND_CANONICALIZED>
1

>  <PUBCHEM_CACTVS_COMPLEXITY>
474

>  <PUBCHEM_CACTVS_HBOND_ACCEPTOR>
6

>  <PUBCHEM_CACTVS_HBOND_DONOR>
2

>  <PUBCHEM_CACTVS_ROTATABLE_BOND>
6

>  <PUBCHEM_CACTVS_SUBSKEYS>
AAADceB4OAAAAAAAAAAAAAAAAAAAASAAAAAwYAAAAAAAAEgBQAAAGgAACAAADRSgmAIyBoAABgCAAiBCAAACCAAgIAAIiAAGiIgNNiKGMRqCeCOkwBELuAfA4PwOoAADAAAIQABAAAYAABCAAAAAAAAAAA==

>  <PUBCHEM_IUPAC_OPENEYE_NAME>
4-[5-(2-hydroxy-1-methoxy-propyl)-7-methoxy-3-methyl-2,3-dihydrobenzofuran-2-yl]-2-methoxy-phenol

>  <PUBCHEM_IUPAC_CAS_NAME>
4-[5-(2-hydroxy-1-methoxypropyl)-7-methoxy-3-methyl-2,3-dihydrobenzofuran-2-yl]-2-methoxyphenol

>  <PUBCHEM_IUPAC_NAME>
4-[5-(2-hydroxy-1-methoxypropyl)-7-methoxy-3-methyl-2,3-dihydro-1-benzofuran-2-yl]-2-methoxyphenol

>  <PUBCHEM_IUPAC_SYSTEMATIC_NAME>
2-methoxy-4-[7-methoxy-5-(1-methoxy-2-oxidanyl-propyl)-3-methyl-2,3-dihydro-1-benzofuran-2-yl]phenol

>  <PUBCHEM_IUPAC_TRADITIONAL_NAME>
4-[5-(2-hydroxy-1-methoxy-propyl)-7-methoxy-3-methyl-coumaran-2-yl]-2-methoxy-phenol

>  <PUBCHEM_IUPAC_INCHI>
InChI=1S/C21H26O6/c1-11-15-8-14(20(26-5)12(2)22)10-18(25-4)21(15)27-19(11)13-6-7-16(23)17(9-13)24-3/h6-12,19-20,22-23H,1-5H3

>  <PUBCHEM_IUPAC_INCHIKEY>
DHRVKFSLKMAPEL-UHFFFAOYSA-N

>  <PUBCHEM_XLOGP3_AA>
2.8

>  <PUBCHEM_EXACT_MASS>
374.173

>  <PUBCHEM_MOLECULAR_FORMULA>
C21H26O6

>  <PUBCHEM_MOLECULAR_WEIGHT>
374.433

>  <PUBCHEM_OPENEYE_CAN_SMILES>
CC1C(OC2=C(C=C(C=C12)C(C(C)O)OC)OC)C3=CC(=C(C=C3)O)OC

>  <PUBCHEM_OPENEYE_ISO_SMILES>
CC1C(OC2=C(C=C(C=C12)C(C(C)O)OC)OC)C3=CC(=C(C=C3)O)OC

>  <PUBCHEM_CACTVS_TPSA>
77.4

>  <PUBCHEM_MONOISOTOPIC_WEIGHT>
374.173

>  <PUBCHEM_TOTAL_CHARGE>
0

>  <PUBCHEM_HEAVY_ATOM_COUNT>
27

>  <PUBCHEM_ATOM_DEF_STEREO_COUNT>
0

>  <PUBCHEM_ATOM_UDEF_STEREO_COUNT>
4

>  <PUBCHEM_BOND_DEF_STEREO_COUNT>
0

>  <PUBCHEM_BOND_UDEF_STEREO_COUNT>
0

>  <PUBCHEM_ISOTOPIC_ATOM_COUNT>
0

>  <PUBCHEM_COMPONENT_COUNT>
1

>  <PUBCHEM_CACTVS_TAUTO_COUNT>
3

>  <PUBCHEM_COORDINATE_TYPE>
1
5
255

>  <PUBCHEM_BONDANNOTATIONS>
10  15  8
12  14  8
13  19  8
13  20  8
14  17  8
15  17  8
19  21  8
20  23  8
21  24  8
23  24  8
16  3  3
18  4  3
7  11  3
8  13  3
9  10  8
9  12  8

$$$$
