14017569
 OpenBabel06101807152D

 77 81  0  0  1  0  0  0  0  0999 V2000
    6.8671   -0.9276    0.0000 O   0  0  0  0  0  0  0  0  0  0  0  0
    7.7331    1.5724    0.0000 O   0  0  0  0  0  0  0  0  0  0  0  0
    5.1350   -0.9276    0.0000 O   0  0  0  0  0  0  0  0  0  0  0  0
    8.5991    0.0725    0.0000 O   0  0  0  0  0  0  0  0  0  0  0  0
    5.1350    0.0725    0.0000 O   0  0  0  0  0  0  0  0  0  0  0  0
    5.1350    2.0724    0.0000 O   0  0  0  0  0  0  0  0  0  0  0  0
    6.8671   -2.9276    0.0000 O   0  0  0  0  0  0  0  0  0  0  0  0
    5.1350   -3.9276    0.0000 O   0  0  0  0  0  0  0  0  0  0  0  0
    3.4030   -2.9276    0.0000 O   0  0  0  0  0  0  0  0  0  0  0  0
    6.0010    3.5724    0.0000 O   0  0  0  0  0  0  0  0  0  0  0  0
    2.5369   -1.4276    0.0000 O   0  0  0  0  0  0  0  0  0  0  0  0
   11.1972    0.5724    0.0000 O   0  0  0  0  0  0  0  0  0  0  0  0
    8.5991    2.0724    0.0000 O   0  0  0  0  0  0  0  0  0  0  0  0
   12.9674    1.5693    0.0000 O   0  0  0  0  0  0  0  0  0  0  0  0
    9.4434    3.6039    0.0000 O   0  0  0  0  0  0  0  0  0  0  0  0
   12.9832    3.6176    0.0000 O   0  0  0  0  0  0  0  0  0  0  0  0
   10.3312   -3.9276    0.0000 O   0  0  0  0  0  0  0  0  0  0  0  0
    6.8671    0.0725    0.0000 C   0  0  3  0  0  0  0  0  0  0  0  0
    6.0010    0.5724    0.0000 C   0  0  3  0  0  0  0  0  0  0  0  0
    6.0010    1.5724    0.0000 C   0  0  3  0  0  0  0  0  0  0  0  0
    6.0010   -1.4276    0.0000 C   0  0  3  0  0  0  0  0  0  0  0  0
    6.0010   -2.4276    0.0000 C   0  0  3  0  0  0  0  0  0  0  0  0
    7.7331    0.5724    0.0000 C   0  0  3  0  0  0  0  0  0  0  0  0
    6.8671    2.0724    0.0000 C   0  0  3  0  0  0  0  0  0  0  0  0
    5.1350   -2.9276    0.0000 C   0  0  3  0  0  0  0  0  0  0  0  0
    4.2690   -2.4276    0.0000 C   0  0  3  0  0  0  0  0  0  0  0  0
    4.2690   -1.4276    0.0000 C   0  0  3  0  0  0  0  0  0  0  0  0
    6.8671    3.0724    0.0000 C   0  0  0  0  0  0  0  0  0  0  0  0
    3.4030   -0.9276    0.0000 C   0  0  0  0  0  0  0  0  0  0  0  0
    9.4651    0.5724    0.0000 C   0  0  0  0  0  0  0  0  0  0  0  0
   10.3312    0.0725    0.0000 C   0  0  0  0  0  0  0  0  0  0  0  0
    9.4651    1.5724    0.0000 C   0  0  0  0  0  0  0  0  0  0  0  0
   10.3312    2.0724    0.0000 C   0  0  0  0  0  0  0  0  0  0  0  0
   11.1972    1.5724    0.0000 C   0  0  0  0  0  0  0  0  0  0  0  0
   10.3312   -0.9276    0.0000 C   0  0  0  0  0  0  0  0  0  0  0  0
   10.3151    3.1140    0.0000 C   0  0  0  0  0  0  0  0  0  0  0  0
   12.1072    2.0793    0.0000 C   0  0  0  0  0  0  0  0  0  0  0  0
   11.1972   -1.4276    0.0000 C   0  0  0  0  0  0  0  0  0  0  0  0
    9.4651   -1.4276    0.0000 C   0  0  0  0  0  0  0  0  0  0  0  0
   11.2131    3.6417    0.0000 C   0  0  0  0  0  0  0  0  0  0  0  0
   12.1152    3.1209    0.0000 C   0  0  0  0  0  0  0  0  0  0  0  0
   11.1972   -2.4276    0.0000 C   0  0  0  0  0  0  0  0  0  0  0  0
    9.4651   -2.4276    0.0000 C   0  0  0  0  0  0  0  0  0  0  0  0
   10.3312   -2.9276    0.0000 C   0  0  0  0  0  0  0  0  0  0  0  0
   13.8391    2.0593    0.0000 C   0  0  0  0  0  0  0  0  0  0  0  0
    7.4040   -0.2376    0.0000 H   0  0  0  0  0  0  0  0  0  0  0  0
    6.0010   -0.0475    0.0000 H   0  0  0  0  0  0  0  0  0  0  0  0
    5.4641    1.2624    0.0000 H   0  0  0  0  0  0  0  0  0  0  0  0
    6.5380   -1.7376    0.0000 H   0  0  0  0  0  0  0  0  0  0  0  0
    6.0010   -3.0476    0.0000 H   0  0  0  0  0  0  0  0  0  0  0  0
    8.2700    0.8824    0.0000 H   0  0  0  0  0  0  0  0  0  0  0  0
    7.4040    2.3824    0.0000 H   0  0  0  0  0  0  0  0  0  0  0  0
    4.5981   -3.2376    0.0000 H   0  0  0  0  0  0  0  0  0  0  0  0
    3.7320   -2.1176    0.0000 H   0  0  0  0  0  0  0  0  0  0  0  0
    4.2690   -0.8076    0.0000 H   0  0  0  0  0  0  0  0  0  0  0  0
    7.4776    2.9648    0.0000 H   0  0  0  0  0  0  0  0  0  0  0  0
    7.0791    3.6551    0.0000 H   0  0  0  0  0  0  0  0  0  0  0  0
    3.8015   -0.4526    0.0000 H   0  0  0  0  0  0  0  0  0  0  0  0
    3.0044   -0.4526    0.0000 H   0  0  0  0  0  0  0  0  0  0  0  0
    4.5981    0.3824    0.0000 H   0  0  0  0  0  0  0  0  0  0  0  0
    5.1350    2.6924    0.0000 H   0  0  0  0  0  0  0  0  0  0  0  0
    7.4040   -2.6176    0.0000 H   0  0  0  0  0  0  0  0  0  0  0  0
    5.6720   -4.2376    0.0000 H   0  0  0  0  0  0  0  0  0  0  0  0
    3.4030   -3.5476    0.0000 H   0  0  0  0  0  0  0  0  0  0  0  0
    6.0010    4.1924    0.0000 H   0  0  0  0  0  0  0  0  0  0  0  0
    2.0000   -1.1176    0.0000 H   0  0  0  0  0  0  0  0  0  0  0  0
   11.7341   -1.1176    0.0000 H   0  0  0  0  0  0  0  0  0  0  0  0
    8.9282   -1.1176    0.0000 H   0  0  0  0  0  0  0  0  0  0  0  0
   11.2108    4.2617    0.0000 H   0  0  0  0  0  0  0  0  0  0  0  0
   11.7341   -2.7376    0.0000 H   0  0  0  0  0  0  0  0  0  0  0  0
    8.9282   -2.7376    0.0000 H   0  0  0  0  0  0  0  0  0  0  0  0
    9.4362    4.2239    0.0000 H   0  0  0  0  0  0  0  0  0  0  0  0
   12.9856    4.2376    0.0000 H   0  0  0  0  0  0  0  0  0  0  0  0
   14.1429    1.5188    0.0000 H   0  0  0  0  0  0  0  0  0  0  0  0
   14.3796    2.3630    0.0000 H   0  0  0  0  0  0  0  0  0  0  0  0
   13.5354    2.5997    0.0000 H   0  0  0  0  0  0  0  0  0  0  0  0
   10.8681   -4.2376    0.0000 H   0  0  0  0  0  0  0  0  0  0  0  0
  1 18  1  0  0  0  0
  1 21  1  0  0  0  0
  2 23  1  0  0  0  0
  2 24  1  0  0  0  0
  3 21  1  0  0  0  0
  3 27  1  0  0  0  0
  4 23  1  0  0  0  0
  4 30  1  0  0  0  0
  5 19  1  0  0  0  0
  5 60  1  0  0  0  0
  6 20  1  0  0  0  0
  6 61  1  0  0  0  0
  7 22  1  0  0  0  0
  7 62  1  0  0  0  0
  8 25  1  0  0  0  0
  8 63  1  0  0  0  0
  9 26  1  0  0  0  0
  9 64  1  0  0  0  0
 10 28  1  0  0  0  0
 10 65  1  0  0  0  0
 11 29  1  0  0  0  0
 11 66  1  0  0  0  0
 12 31  1  0  0  0  0
 12 34  1  0  0  0  0
 13 32  2  0  0  0  0
 14 37  1  0  0  0  0
 14 45  1  0  0  0  0
 15 36  1  0  0  0  0
 15 72  1  0  0  0  0
 16 41  1  0  0  0  0
 16 73  1  0  0  0  0
 17 44  1  0  0  0  0
 17 77  1  0  0  0  0
 18 19  1  0  0  0  0
 18 23  1  0  0  0  0
 18 46  1  0  0  0  0
 19 20  1  0  0  0  0
 19 47  1  0  0  0  0
 20 24  1  0  0  0  0
 20 48  1  0  0  0  0
 21 22  1  0  0  0  0
 21 49  1  0  0  0  0
 22 25  1  0  0  0  0
 22 50  1  0  0  0  0
 23 51  1  0  0  0  0
 24 28  1  0  0  0  0
 24 52  1  0  0  0  0
 25 26  1  0  0  0  0
 25 53  1  0  0  0  0
 26 27  1  0  0  0  0
 26 54  1  0  0  0  0
 27 29  1  0  0  0  0
 27 55  1  0  0  0  0
 28 56  1  0  0  0  0
 28 57  1  0  0  0  0
 29 58  1  0  0  0  0
 29 59  1  0  0  0  0
 30 31  2  0  0  0  0
 30 32  1  0  0  0  0
 31 35  1  0  0  0  0
 32 33  1  0  0  0  0
 33 34  2  0  0  0  0
 33 36  1  0  0  0  0
 34 37  1  0  0  0  0
 35 38  2  0  0  0  0
 35 39  1  0  0  0  0
 36 40  2  0  0  0  0
 37 41  2  0  0  0  0
 38 42  1  0  0  0  0
 38 67  1  0  0  0  0
 39 43  2  0  0  0  0
 39 68  1  0  0  0  0
 40 41  1  0  0  0  0
 40 69  1  0  0  0  0
 42 44  2  0  0  0  0
 42 70  1  0  0  0  0
 43 44  1  0  0  0  0
 43 71  1  0  0  0  0
 45 74  1  0  0  0  0
 45 75  1  0  0  0  0
 45 76  1  0  0  0  0
M  END
>  <PUBCHEM_COMPOUND_CID>
14017569

>  <PUBCHEM_COMPOUND_CANONICALIZED>
1

>  <PUBCHEM_CACTVS_COMPLEXITY>
1050

>  <PUBCHEM_CACTVS_HBOND_ACCEPTOR>
17

>  <PUBCHEM_CACTVS_HBOND_DONOR>
10

>  <PUBCHEM_CACTVS_ROTATABLE_BOND>
8

>  <PUBCHEM_CACTVS_SUBSKEYS>
AAADcfB4PgAAAAAAAAAAAAAAAAAAAAAAAAA0aIECAAAAAACBQAAAGgAACAAADBSwmAMyDoAABgCIAqBSAAICCAAkIAAIiAFGiMgdNzaGNR6ieWOl4BUPuQfK7LzOIQABCAAIQABCAAIQABCAAAAAAAAAAA==

>  <PUBCHEM_IUPAC_OPENEYE_NAME>
3-[4,5-dihydroxy-6-(hydroxymethyl)-3-[3,4,5-trihydroxy-6-(hydroxymethyl)tetrahydropyran-2-yl]oxy-tetrahydropyran-2-yl]oxy-5,7-dihydroxy-2-(4-hydroxyphenyl)-8-methoxy-chromen-4-one

>  <PUBCHEM_IUPAC_CAS_NAME>
3-[[4,5-dihydroxy-6-(hydroxymethyl)-3-[[3,4,5-trihydroxy-6-(hydroxymethyl)-2-oxanyl]oxy]-2-oxanyl]oxy]-5,7-dihydroxy-2-(4-hydroxyphenyl)-8-methoxy-1-benzopyran-4-one

>  <PUBCHEM_IUPAC_NAME>
3-[4,5-dihydroxy-6-(hydroxymethyl)-3-[3,4,5-trihydroxy-6-(hydroxymethyl)oxan-2-yl]oxyoxan-2-yl]oxy-5,7-dihydroxy-2-(4-hydroxyphenyl)-8-methoxychromen-4-one

>  <PUBCHEM_IUPAC_SYSTEMATIC_NAME>
3-[6-(hydroxymethyl)-3-[6-(hydroxymethyl)-3,4,5-tris(oxidanyl)oxan-2-yl]oxy-4,5-bis(oxidanyl)oxan-2-yl]oxy-2-(4-hydroxyphenyl)-8-methoxy-5,7-bis(oxidanyl)chromen-4-one

>  <PUBCHEM_IUPAC_TRADITIONAL_NAME>
3-[4,5-dihydroxy-6-methylol-3-(3,4,5-trihydroxy-6-methylol-tetrahydropyran-2-yl)oxy-tetrahydropyran-2-yl]oxy-5,7-dihydroxy-2-(4-hydroxyphenyl)-8-methoxy-chromone

>  <PUBCHEM_IUPAC_INCHI>
InChI=1S/C28H32O17/c1-40-23-12(33)6-11(32)15-18(36)25(22(43-24(15)23)9-2-4-10(31)5-3-9)44-28-26(20(38)17(35)14(8-30)42-28)45-27-21(39)19(37)16(34)13(7-29)41-27/h2-6,13-14,16-17,19-21,26-35,37-39H,7-8H2,1H3

>  <PUBCHEM_IUPAC_INCHIKEY>
MFWGLPLRRMATKY-UHFFFAOYSA-N

>  <PUBCHEM_XLOGP3_AA>
-0.9

>  <PUBCHEM_EXACT_MASS>
640.164

>  <PUBCHEM_MOLECULAR_FORMULA>
C28H32O17

>  <PUBCHEM_MOLECULAR_WEIGHT>
640.547

>  <PUBCHEM_OPENEYE_CAN_SMILES>
COC1=C(C=C(C2=C1OC(=C(C2=O)OC3C(C(C(C(O3)CO)O)O)OC4C(C(C(C(O4)CO)O)O)O)C5=CC=C(C=C5)O)O)O

>  <PUBCHEM_OPENEYE_ISO_SMILES>
COC1=C(C=C(C2=C1OC(=C(C2=O)OC3C(C(C(C(O3)CO)O)O)OC4C(C(C(C(O4)CO)O)O)O)C5=CC=C(C=C5)O)O)O

>  <PUBCHEM_CACTVS_TPSA>
275

>  <PUBCHEM_MONOISOTOPIC_WEIGHT>
640.164

>  <PUBCHEM_TOTAL_CHARGE>
0

>  <PUBCHEM_HEAVY_ATOM_COUNT>
45

>  <PUBCHEM_ATOM_DEF_STEREO_COUNT>
0

>  <PUBCHEM_ATOM_UDEF_STEREO_COUNT>
10

>  <PUBCHEM_BOND_DEF_STEREO_COUNT>
0

>  <PUBCHEM_BOND_UDEF_STEREO_COUNT>
0

>  <PUBCHEM_ISOTOPIC_ATOM_COUNT>
0

>  <PUBCHEM_COMPONENT_COUNT>
1

>  <PUBCHEM_CACTVS_TAUTO_COUNT>
57

>  <PUBCHEM_COORDINATE_TYPE>
1
5
255

>  <PUBCHEM_BONDANNOTATIONS>
18  1  3
21  1  3
12  31  8
12  34  8
24  28  3
27  29  3
30  31  8
30  32  8
32  33  8
33  34  8
33  36  8
34  37  8
35  38  8
35  39  8
36  40  8
37  41  8
38  42  8
39  43  8
23  4  3
40  41  8
42  44  8
43  44  8
19  5  3
20  6  3
22  7  3
25  8  3
26  9  3

$$$$
