14015413
 OpenBabel06101807152D

 46 48  0  0  1  0  0  0  0  0999 V2000
    7.8133   -0.3833    0.0000 O   0  0  0  0  0  0  0  0  0  0  0  0
    6.0010   -1.5786    0.0000 O   0  0  0  0  0  0  0  0  0  0  0  0
   11.3969   -1.3106    0.0000 O   0  0  0  0  0  0  0  0  0  0  0  0
    2.5369    1.4214    0.0000 O   0  0  0  0  0  0  0  0  0  0  0  0
   12.3969    0.4214    0.0000 O   0  0  0  0  0  0  0  0  0  0  0  0
    7.8133    1.2261    0.0000 C   0  0  3  0  0  0  0  0  0  0  0  0
    8.3969    0.4214    0.0000 C   0  0  3  0  0  0  0  0  0  0  0  0
    6.8671    0.9214    0.0000 C   0  0  0  0  0  0  0  0  0  0  0  0
    6.8671   -0.0786    0.0000 C   0  0  0  0  0  0  0  0  0  0  0  0
    8.1240    2.1767    0.0000 C   0  0  0  0  0  0  0  0  0  0  0  0
    9.3969    0.4214    0.0000 C   0  0  0  0  0  0  0  0  0  0  0  0
    6.0010    1.4214    0.0000 C   0  0  0  0  0  0  0  0  0  0  0  0
    6.0010   -0.5786    0.0000 C   0  0  0  0  0  0  0  0  0  0  0  0
    5.1350    0.9214    0.0000 C   0  0  0  0  0  0  0  0  0  0  0  0
    5.1350   -0.0786    0.0000 C   0  0  0  0  0  0  0  0  0  0  0  0
    9.8969   -0.4446    0.0000 C   0  0  0  0  0  0  0  0  0  0  0  0
    9.8969    1.2874    0.0000 C   0  0  0  0  0  0  0  0  0  0  0  0
    4.2690    1.4214    0.0000 C   0  0  0  0  0  0  0  0  0  0  0  0
   10.8969   -0.4446    0.0000 C   0  0  0  0  0  0  0  0  0  0  0  0
   10.8969    1.2874    0.0000 C   0  0  0  0  0  0  0  0  0  0  0  0
    3.4030    0.9214    0.0000 C   0  0  0  0  0  0  0  0  0  0  0  0
   11.3969    0.4214    0.0000 C   0  0  0  0  0  0  0  0  0  0  0  0
    5.1350   -2.0786    0.0000 C   0  0  0  0  0  0  0  0  0  0  0  0
   10.8969   -2.1767    0.0000 C   0  0  0  0  0  0  0  0  0  0  0  0
    7.3758    1.6655    0.0000 H   0  0  0  0  0  0  0  0  0  0  0  0
    8.6786   -0.1309    0.0000 H   0  0  0  0  0  0  0  0  0  0  0  0
    8.7133    1.9840    0.0000 H   0  0  0  0  0  0  0  0  0  0  0  0
    8.3166    2.7660    0.0000 H   0  0  0  0  0  0  0  0  0  0  0  0
    7.5346    2.3693    0.0000 H   0  0  0  0  0  0  0  0  0  0  0  0
    6.0010    2.0414    0.0000 H   0  0  0  0  0  0  0  0  0  0  0  0
    4.5981   -0.3886    0.0000 H   0  0  0  0  0  0  0  0  0  0  0  0
    9.5869   -0.9815    0.0000 H   0  0  0  0  0  0  0  0  0  0  0  0
    9.5869    1.8244    0.0000 H   0  0  0  0  0  0  0  0  0  0  0  0
    4.6675    1.8964    0.0000 H   0  0  0  0  0  0  0  0  0  0  0  0
    3.8705    1.8964    0.0000 H   0  0  0  0  0  0  0  0  0  0  0  0
   11.2069    1.8244    0.0000 H   0  0  0  0  0  0  0  0  0  0  0  0
    3.0044    0.4465    0.0000 H   0  0  0  0  0  0  0  0  0  0  0  0
    3.8015    0.4465    0.0000 H   0  0  0  0  0  0  0  0  0  0  0  0
    4.8250   -1.5416    0.0000 H   0  0  0  0  0  0  0  0  0  0  0  0
    4.5981   -2.3886    0.0000 H   0  0  0  0  0  0  0  0  0  0  0  0
    5.4450   -2.6155    0.0000 H   0  0  0  0  0  0  0  0  0  0  0  0
    2.0000    1.1114    0.0000 H   0  0  0  0  0  0  0  0  0  0  0  0
   12.7069    0.9583    0.0000 H   0  0  0  0  0  0  0  0  0  0  0  0
   10.3600   -1.8667    0.0000 H   0  0  0  0  0  0  0  0  0  0  0  0
   10.5869   -2.7136    0.0000 H   0  0  0  0  0  0  0  0  0  0  0  0
   11.4338   -2.4867    0.0000 H   0  0  0  0  0  0  0  0  0  0  0  0
  1  7  1  0  0  0  0
  1  9  1  0  0  0  0
  2 13  1  0  0  0  0
  2 23  1  0  0  0  0
  3 19  1  0  0  0  0
  3 24  1  0  0  0  0
  4 21  1  0  0  0  0
  4 42  1  0  0  0  0
  5 22  1  0  0  0  0
  5 43  1  0  0  0  0
  6  7  1  0  0  0  0
  6  8  1  0  0  0  0
  6 10  1  0  0  0  0
  6 25  1  0  0  0  0
  7 11  1  0  0  0  0
  7 26  1  0  0  0  0
  8  9  2  0  0  0  0
  8 12  1  0  0  0  0
  9 13  1  0  0  0  0
 10 27  1  0  0  0  0
 10 28  1  0  0  0  0
 10 29  1  0  0  0  0
 11 16  2  0  0  0  0
 11 17  1  0  0  0  0
 12 14  2  0  0  0  0
 12 30  1  0  0  0  0
 13 15  2  0  0  0  0
 14 15  1  0  0  0  0
 14 18  1  0  0  0  0
 15 31  1  0  0  0  0
 16 19  1  0  0  0  0
 16 32  1  0  0  0  0
 17 20  2  0  0  0  0
 17 33  1  0  0  0  0
 18 21  1  0  0  0  0
 18 34  1  0  0  0  0
 18 35  1  0  0  0  0
 19 22  2  0  0  0  0
 20 22  1  0  0  0  0
 20 36  1  0  0  0  0
 21 37  1  0  0  0  0
 21 38  1  0  0  0  0
 23 39  1  0  0  0  0
 23 40  1  0  0  0  0
 23 41  1  0  0  0  0
 24 44  1  0  0  0  0
 24 45  1  0  0  0  0
 24 46  1  0  0  0  0
M  END
>  <PUBCHEM_COMPOUND_CID>
14015413

>  <PUBCHEM_COMPOUND_CANONICALIZED>
1

>  <PUBCHEM_CACTVS_COMPLEXITY>
403

>  <PUBCHEM_CACTVS_HBOND_ACCEPTOR>
5

>  <PUBCHEM_CACTVS_HBOND_DONOR>
2

>  <PUBCHEM_CACTVS_ROTATABLE_BOND>
5

>  <PUBCHEM_CACTVS_SUBSKEYS>
AAADceB4OAAAAAAAAAAAAAAAAAAAASAAAAAwYAAAAAAAAEgBQAAAGgAACAAADRSgmAIyBoAABgCAAiBCAAACCAAgIAAIiAAGiIgNNiKGMRqCeCOkwBELuAfA4PwOoAADAAAIQABAAAYAABCAAAAAAAAAAA==

>  <PUBCHEM_IUPAC_OPENEYE_NAME>
4-[5-(2-hydroxyethyl)-7-methoxy-3-methyl-2,3-dihydrobenzofuran-2-yl]-2-methoxy-phenol

>  <PUBCHEM_IUPAC_CAS_NAME>
4-[5-(2-hydroxyethyl)-7-methoxy-3-methyl-2,3-dihydrobenzofuran-2-yl]-2-methoxyphenol

>  <PUBCHEM_IUPAC_NAME>
4-[5-(2-hydroxyethyl)-7-methoxy-3-methyl-2,3-dihydro-1-benzofuran-2-yl]-2-methoxyphenol

>  <PUBCHEM_IUPAC_SYSTEMATIC_NAME>
4-[5-(2-hydroxyethyl)-7-methoxy-3-methyl-2,3-dihydro-1-benzofuran-2-yl]-2-methoxy-phenol

>  <PUBCHEM_IUPAC_TRADITIONAL_NAME>
4-[5-(2-hydroxyethyl)-7-methoxy-3-methyl-coumaran-2-yl]-2-methoxy-phenol

>  <PUBCHEM_IUPAC_INCHI>
InChI=1S/C19H22O5/c1-11-14-8-12(6-7-20)9-17(23-3)19(14)24-18(11)13-4-5-15(21)16(10-13)22-2/h4-5,8-11,18,20-21H,6-7H2,1-3H3

>  <PUBCHEM_IUPAC_INCHIKEY>
NBJKTAQUPAAPLZ-UHFFFAOYSA-N

>  <PUBCHEM_XLOGP3_AA>
2.9

>  <PUBCHEM_EXACT_MASS>
330.147

>  <PUBCHEM_MOLECULAR_FORMULA>
C19H22O5

>  <PUBCHEM_MOLECULAR_WEIGHT>
330.38

>  <PUBCHEM_OPENEYE_CAN_SMILES>
CC1C(OC2=C(C=C(C=C12)CCO)OC)C3=CC(=C(C=C3)O)OC

>  <PUBCHEM_OPENEYE_ISO_SMILES>
CC1C(OC2=C(C=C(C=C12)CCO)OC)C3=CC(=C(C=C3)O)OC

>  <PUBCHEM_CACTVS_TPSA>
68.2

>  <PUBCHEM_MONOISOTOPIC_WEIGHT>
330.147

>  <PUBCHEM_TOTAL_CHARGE>
0

>  <PUBCHEM_HEAVY_ATOM_COUNT>
24

>  <PUBCHEM_ATOM_DEF_STEREO_COUNT>
0

>  <PUBCHEM_ATOM_UDEF_STEREO_COUNT>
2

>  <PUBCHEM_BOND_DEF_STEREO_COUNT>
0

>  <PUBCHEM_BOND_UDEF_STEREO_COUNT>
0

>  <PUBCHEM_ISOTOPIC_ATOM_COUNT>
0

>  <PUBCHEM_COMPONENT_COUNT>
1

>  <PUBCHEM_CACTVS_TAUTO_COUNT>
3

>  <PUBCHEM_COORDINATE_TYPE>
1
5
255

>  <PUBCHEM_BONDANNOTATIONS>
11  16  8
11  17  8
12  14  8
13  15  8
14  15  8
16  19  8
17  20  8
19  22  8
20  22  8
6  10  3
7  11  3
8  12  8
8  9  8
9  13  8

$$$$
