14034812
 OpenBabel06101807152D

 45 46  0  0  0  0  0  0  0  0999 V2000
    2.8660   -1.0000    0.0000 O   0  0  0  0  0  0  0  0  0  0  0  0
    7.1962    0.5000    0.0000 O   0  0  0  0  0  0  0  0  0  0  0  0
    4.5981   -4.0000    0.0000 O   0  0  0  0  0  0  0  0  0  0  0  0
    6.3301   -1.0000    0.0000 O   0  0  0  0  0  0  0  0  0  0  0  0
    8.9282    3.5000    0.0000 O   0  0  0  0  0  0  0  0  0  0  0  0
    3.7320    0.5000    0.0000 O   0  0  0  0  0  0  0  0  0  0  0  0
    4.5981   -1.0000    0.0000 C   0  0  0  0  0  0  0  0  0  0  0  0
    3.7320   -1.5000    0.0000 C   0  0  0  0  0  0  0  0  0  0  0  0
    6.3301    2.0000    0.0000 C   0  0  0  0  0  0  0  0  0  0  0  0
    5.4641   -1.5000    0.0000 C   0  0  0  0  0  0  0  0  0  0  0  0
    4.5981    0.0000    0.0000 C   0  0  0  0  0  0  0  0  0  0  0  0
    7.1962    1.5000    0.0000 C   0  0  0  0  0  0  0  0  0  0  0  0
    3.7320   -2.5000    0.0000 C   0  0  0  0  0  0  0  0  0  0  0  0
    4.5981   -3.0000    0.0000 C   0  0  0  0  0  0  0  0  0  0  0  0
    5.4641    1.5000    0.0000 C   0  0  0  0  0  0  0  0  0  0  0  0
    5.4641   -2.5000    0.0000 C   0  0  0  0  0  0  0  0  0  0  0  0
    5.4641    0.5000    0.0000 C   0  0  0  0  0  0  0  0  0  0  0  0
    6.3301    3.0000    0.0000 C   0  0  0  0  0  0  0  0  0  0  0  0
    8.0622    2.0000    0.0000 C   0  0  0  0  0  0  0  0  0  0  0  0
    8.0622    3.0000    0.0000 C   0  0  0  0  0  0  0  0  0  0  0  0
    7.1962    3.5000    0.0000 C   0  0  0  0  0  0  0  0  0  0  0  0
    2.0000   -1.5000    0.0000 C   0  0  0  0  0  0  0  0  0  0  0  0
    8.0622    0.0000    0.0000 C   0  0  0  0  0  0  0  0  0  0  0  0
    5.4641   -4.5000    0.0000 C   0  0  0  0  0  0  0  0  0  0  0  0
    8.9282    4.5000    0.0000 C   0  0  0  0  0  0  0  0  0  0  0  0
    3.1951   -2.8100    0.0000 H   0  0  0  0  0  0  0  0  0  0  0  0
    4.9272    1.8100    0.0000 H   0  0  0  0  0  0  0  0  0  0  0  0
    6.0010   -2.8100    0.0000 H   0  0  0  0  0  0  0  0  0  0  0  0
    6.0010    0.1900    0.0000 H   0  0  0  0  0  0  0  0  0  0  0  0
    5.7932    3.3100    0.0000 H   0  0  0  0  0  0  0  0  0  0  0  0
    8.5991    1.6900    0.0000 H   0  0  0  0  0  0  0  0  0  0  0  0
    7.1962    4.1200    0.0000 H   0  0  0  0  0  0  0  0  0  0  0  0
    6.8671   -1.3100    0.0000 H   0  0  0  0  0  0  0  0  0  0  0  0
    1.6900   -0.9631    0.0000 H   0  0  0  0  0  0  0  0  0  0  0  0
    1.4631   -1.8100    0.0000 H   0  0  0  0  0  0  0  0  0  0  0  0
    2.3100   -2.0369    0.0000 H   0  0  0  0  0  0  0  0  0  0  0  0
    7.7522   -0.5369    0.0000 H   0  0  0  0  0  0  0  0  0  0  0  0
    8.5991   -0.3100    0.0000 H   0  0  0  0  0  0  0  0  0  0  0  0
    8.3722    0.5369    0.0000 H   0  0  0  0  0  0  0  0  0  0  0  0
    5.1541   -5.0369    0.0000 H   0  0  0  0  0  0  0  0  0  0  0  0
    6.0010   -4.8100    0.0000 H   0  0  0  0  0  0  0  0  0  0  0  0
    5.7741   -3.9631    0.0000 H   0  0  0  0  0  0  0  0  0  0  0  0
    9.5482    4.5000    0.0000 H   0  0  0  0  0  0  0  0  0  0  0  0
    8.9282    5.1200    0.0000 H   0  0  0  0  0  0  0  0  0  0  0  0
    8.3082    4.5000    0.0000 H   0  0  0  0  0  0  0  0  0  0  0  0
  1  8  1  0  0  0  0
  1 22  1  0  0  0  0
  2 12  1  0  0  0  0
  2 23  1  0  0  0  0
  3 14  1  0  0  0  0
  3 24  1  0  0  0  0
  4 10  1  0  0  0  0
  4 33  1  0  0  0  0
  5 20  1  0  0  0  0
  5 25  1  0  0  0  0
  6 11  2  0  0  0  0
  7  8  1  0  0  0  0
  7 10  2  0  0  0  0
  7 11  1  0  0  0  0
  8 13  2  0  0  0  0
  9 12  2  0  0  0  0
  9 15  1  0  0  0  0
  9 18  1  0  0  0  0
 10 16  1  0  0  0  0
 11 17  1  0  0  0  0
 12 19  1  0  0  0  0
 13 14  1  0  0  0  0
 13 26  1  0  0  0  0
 14 16  2  0  0  0  0
 15 17  2  0  0  0  0
 15 27  1  0  0  0  0
 16 28  1  0  0  0  0
 17 29  1  0  0  0  0
 18 21  2  0  0  0  0
 18 30  1  0  0  0  0
 19 20  2  0  0  0  0
 19 31  1  0  0  0  0
 20 21  1  0  0  0  0
 21 32  1  0  0  0  0
 22 34  1  0  0  0  0
 22 35  1  0  0  0  0
 22 36  1  0  0  0  0
 23 37  1  0  0  0  0
 23 38  1  0  0  0  0
 23 39  1  0  0  0  0
 24 40  1  0  0  0  0
 24 41  1  0  0  0  0
 24 42  1  0  0  0  0
 25 43  1  0  0  0  0
 25 44  1  0  0  0  0
 25 45  1  0  0  0  0
M  END
>  <PUBCHEM_COMPOUND_CID>
14034812

>  <PUBCHEM_COMPOUND_CANONICALIZED>
1

>  <PUBCHEM_CACTVS_COMPLEXITY>
451

>  <PUBCHEM_CACTVS_HBOND_ACCEPTOR>
6

>  <PUBCHEM_CACTVS_HBOND_DONOR>
1

>  <PUBCHEM_CACTVS_ROTATABLE_BOND>
7

>  <PUBCHEM_CACTVS_SUBSKEYS>
AAADceB4OAAAAAAAAAAAAAAAAAAAAAAAAAAwYAAAAAAAAAABQAAAGgAACAAADASAmAIyBoAABgCIAqBSAAACCAAkIAAIiAEGCMgMJzaGNRqAcWAl4BUIuYeI7KzOIAAACAAIAABAAAAQABAAAAAAAAAAAA==

>  <PUBCHEM_IUPAC_OPENEYE_NAME>
(E)-3-(2,4-dimethoxyphenyl)-1-(2-hydroxy-4,6-dimethoxy-phenyl)prop-2-en-1-one

>  <PUBCHEM_IUPAC_CAS_NAME>
(E)-3-(2,4-dimethoxyphenyl)-1-(2-hydroxy-4,6-dimethoxyphenyl)-2-propen-1-one

>  <PUBCHEM_IUPAC_NAME>
(E)-3-(2,4-dimethoxyphenyl)-1-(2-hydroxy-4,6-dimethoxyphenyl)prop-2-en-1-one

>  <PUBCHEM_IUPAC_SYSTEMATIC_NAME>
(E)-1-(2,4-dimethoxy-6-oxidanyl-phenyl)-3-(2,4-dimethoxyphenyl)prop-2-en-1-one

>  <PUBCHEM_IUPAC_TRADITIONAL_NAME>
(E)-3-(2,4-dimethoxyphenyl)-1-(2-hydroxy-4,6-dimethoxy-phenyl)prop-2-en-1-one

>  <PUBCHEM_IUPAC_INCHI>
InChI=1S/C19H20O6/c1-22-13-7-5-12(17(10-13)24-3)6-8-15(20)19-16(21)9-14(23-2)11-18(19)25-4/h5-11,21H,1-4H3/b8-6+

>  <PUBCHEM_IUPAC_INCHIKEY>
IAUDUEQNUVKNBT-SOFGYWHQSA-N

>  <PUBCHEM_XLOGP3_AA>
3.8

>  <PUBCHEM_EXACT_MASS>
344.126

>  <PUBCHEM_MOLECULAR_FORMULA>
C19H20O6

>  <PUBCHEM_MOLECULAR_WEIGHT>
344.363

>  <PUBCHEM_OPENEYE_CAN_SMILES>
COC1=CC(=C(C=C1)C=CC(=O)C2=C(C=C(C=C2OC)OC)O)OC

>  <PUBCHEM_OPENEYE_ISO_SMILES>
COC1=CC(=C(C=C1)/C=C/C(=O)C2=C(C=C(C=C2OC)OC)O)OC

>  <PUBCHEM_CACTVS_TPSA>
74.2

>  <PUBCHEM_MONOISOTOPIC_WEIGHT>
344.126

>  <PUBCHEM_TOTAL_CHARGE>
0

>  <PUBCHEM_HEAVY_ATOM_COUNT>
25

>  <PUBCHEM_ATOM_DEF_STEREO_COUNT>
0

>  <PUBCHEM_ATOM_UDEF_STEREO_COUNT>
0

>  <PUBCHEM_BOND_DEF_STEREO_COUNT>
1

>  <PUBCHEM_BOND_UDEF_STEREO_COUNT>
0

>  <PUBCHEM_ISOTOPIC_ATOM_COUNT>
0

>  <PUBCHEM_COMPONENT_COUNT>
1

>  <PUBCHEM_CACTVS_TAUTO_COUNT>
5

>  <PUBCHEM_COORDINATE_TYPE>
1
5
255

>  <PUBCHEM_BONDANNOTATIONS>
10  16  8
12  19  8
13  14  8
14  16  8
18  21  8
19  20  8
20  21  8
7  10  8
7  8  8
8  13  8
9  12  8
9  18  8

$$$$
