14034125
 OpenBabel06101807152D

 30 32  0  0  0  0  0  0  0  0999 V2000
    4.6660   -1.0969    0.0000 O   0  0  0  0  0  0  0  0  0  0  0  0
    6.4144    1.9377    0.0000 O   0  0  0  0  0  0  0  0  0  0  0  0
    4.6660    1.9031    0.0000 O   0  0  0  0  0  0  0  0  0  0  0  0
    6.4144   -2.1315    0.0000 O   0  0  0  0  0  0  0  0  0  0  0  0
    8.1962    0.9273    0.0000 O   0  0  0  0  0  0  0  0  0  0  0  0
    2.9176   -2.1315    0.0000 O   0  0  0  0  0  0  0  0  0  0  0  0
    5.5321    0.4031    0.0000 C   0  0  0  0  0  0  0  0  0  0  0  0
    5.5321   -0.5969    0.0000 C   0  0  0  0  0  0  0  0  0  0  0  0
    3.8000    0.4031    0.0000 C   0  0  0  0  0  0  0  0  0  0  0  0
    4.6660    0.9031    0.0000 C   0  0  0  0  0  0  0  0  0  0  0  0
    3.8000   -0.5969    0.0000 C   0  0  0  0  0  0  0  0  0  0  0  0
    6.4260    0.9378    0.0000 C   0  0  0  0  0  0  0  0  0  0  0  0
    6.4260   -1.1316    0.0000 C   0  0  0  0  0  0  0  0  0  0  0  0
    7.3321    0.4239    0.0000 C   0  0  0  0  0  0  0  0  0  0  0  0
    2.9061    0.9378    0.0000 C   0  0  0  0  0  0  0  0  0  0  0  0
    2.9061   -1.1316    0.0000 C   0  0  0  0  0  0  0  0  0  0  0  0
    7.3321   -0.6177    0.0000 C   0  0  0  0  0  0  0  0  0  0  0  0
    2.0000    0.4239    0.0000 C   0  0  0  0  0  0  0  0  0  0  0  0
    2.0000   -0.6177    0.0000 C   0  0  0  0  0  0  0  0  0  0  0  0
    7.2746    2.4477    0.0000 C   0  0  0  0  0  0  0  0  0  0  0  0
    2.9132    1.5577    0.0000 H   0  0  0  0  0  0  0  0  0  0  0  0
    7.8678   -0.9298    0.0000 H   0  0  0  0  0  0  0  0  0  0  0  0
    1.4643    0.7360    0.0000 H   0  0  0  0  0  0  0  0  0  0  0  0
    1.4643   -0.9298    0.0000 H   0  0  0  0  0  0  0  0  0  0  0  0
    6.9478   -2.4477    0.0000 H   0  0  0  0  0  0  0  0  0  0  0  0
    8.7343    0.6193    0.0000 H   0  0  0  0  0  0  0  0  0  0  0  0
    7.5908    1.9144    0.0000 H   0  0  0  0  0  0  0  0  0  0  0  0
    7.8079    2.7639    0.0000 H   0  0  0  0  0  0  0  0  0  0  0  0
    6.9584    2.9810    0.0000 H   0  0  0  0  0  0  0  0  0  0  0  0
    2.3843   -2.4477    0.0000 H   0  0  0  0  0  0  0  0  0  0  0  0
  1  8  1  0  0  0  0
  1 11  1  0  0  0  0
  2 12  1  0  0  0  0
  2 20  1  0  0  0  0
  3 10  2  0  0  0  0
  4 13  1  0  0  0  0
  4 25  1  0  0  0  0
  5 14  1  0  0  0  0
  5 26  1  0  0  0  0
  6 16  1  0  0  0  0
  6 30  1  0  0  0  0
  7  8  2  0  0  0  0
  7 10  1  0  0  0  0
  7 12  1  0  0  0  0
  8 13  1  0  0  0  0
  9 10  1  0  0  0  0
  9 11  2  0  0  0  0
  9 15  1  0  0  0  0
 11 16  1  0  0  0  0
 12 14  2  0  0  0  0
 13 17  2  0  0  0  0
 14 17  1  0  0  0  0
 15 18  2  0  0  0  0
 15 21  1  0  0  0  0
 16 19  2  0  0  0  0
 17 22  1  0  0  0  0
 18 19  1  0  0  0  0
 18 23  1  0  0  0  0
 19 24  1  0  0  0  0
 20 27  1  0  0  0  0
 20 28  1  0  0  0  0
 20 29  1  0  0  0  0
M  END
>  <PUBCHEM_COMPOUND_CID>
14034125

>  <PUBCHEM_COMPOUND_CANONICALIZED>
1

>  <PUBCHEM_CACTVS_COMPLEXITY>
386

>  <PUBCHEM_CACTVS_HBOND_ACCEPTOR>
6

>  <PUBCHEM_CACTVS_HBOND_DONOR>
3

>  <PUBCHEM_CACTVS_ROTATABLE_BOND>
1

>  <PUBCHEM_CACTVS_SUBSKEYS>
AAADccBwOAAAAAAAAAAAAAAAAAAAAAAAAAA0YIAAAAAAAACRQAAAGgAACAAADASAmAIyBoAABgCIAqBSAAACCAAkIAAIiAEGiMgNJzaGNRqCeWOl4BULuYfK6PyOAQABCAAIQAACAAIQABCAAAAAAAAAAA==

>  <PUBCHEM_IUPAC_OPENEYE_NAME>
2,4,5-trihydroxy-1-methoxy-xanthen-9-one

>  <PUBCHEM_IUPAC_CAS_NAME>
2,4,5-trihydroxy-1-methoxy-9-xanthenone

>  <PUBCHEM_IUPAC_NAME>
2,4,5-trihydroxy-1-methoxyxanthen-9-one

>  <PUBCHEM_IUPAC_SYSTEMATIC_NAME>
1-methoxy-2,4,5-tris(oxidanyl)xanthen-9-one

>  <PUBCHEM_IUPAC_TRADITIONAL_NAME>
2,4,5-trihydroxy-1-methoxy-xanthone

>  <PUBCHEM_IUPAC_INCHI>
InChI=1S/C14H10O6/c1-19-13-8(16)5-9(17)14-10(13)11(18)6-3-2-4-7(15)12(6)20-14/h2-5,15-17H,1H3

>  <PUBCHEM_IUPAC_INCHIKEY>
POWRXIZFZXGLOK-UHFFFAOYSA-N

>  <PUBCHEM_XLOGP3_AA>
1.9

>  <PUBCHEM_EXACT_MASS>
274.048

>  <PUBCHEM_MOLECULAR_FORMULA>
C14H10O6

>  <PUBCHEM_MOLECULAR_WEIGHT>
274.228

>  <PUBCHEM_OPENEYE_CAN_SMILES>
COC1=C(C=C(C2=C1C(=O)C3=C(O2)C(=CC=C3)O)O)O

>  <PUBCHEM_OPENEYE_ISO_SMILES>
COC1=C(C=C(C2=C1C(=O)C3=C(O2)C(=CC=C3)O)O)O

>  <PUBCHEM_CACTVS_TPSA>
96.2

>  <PUBCHEM_MONOISOTOPIC_WEIGHT>
274.048

>  <PUBCHEM_TOTAL_CHARGE>
0

>  <PUBCHEM_HEAVY_ATOM_COUNT>
20

>  <PUBCHEM_ATOM_DEF_STEREO_COUNT>
0

>  <PUBCHEM_ATOM_UDEF_STEREO_COUNT>
0

>  <PUBCHEM_BOND_DEF_STEREO_COUNT>
0

>  <PUBCHEM_BOND_UDEF_STEREO_COUNT>
0

>  <PUBCHEM_ISOTOPIC_ATOM_COUNT>
0

>  <PUBCHEM_COMPONENT_COUNT>
1

>  <PUBCHEM_CACTVS_TAUTO_COUNT>
18

>  <PUBCHEM_COORDINATE_TYPE>
1
5
255

>  <PUBCHEM_BONDANNOTATIONS>
1  11  8
1  8  8
11  16  8
12  14  8
13  17  8
14  17  8
15  18  8
16  19  8
18  19  8
7  10  8
7  12  8
7  8  8
8  13  8
9  10  8
9  11  8
9  15  8

$$$$
