14038477
 OpenBabel06101807152D

 39 39  0  0  0  0  0  0  0  0999 V2000
    2.9881    0.9160    0.0000 C   0  0  0  0  0  0  0  0  0  0  0  0
    2.7292   -0.0499    0.0000 C   0  0  0  0  0  0  0  0  0  0  0  0
    3.2292   -0.9160    0.0000 C   0  0  0  0  0  0  0  0  0  0  0  0
    4.2292   -0.9160    0.0000 C   0  0  0  0  0  0  0  0  0  0  0  0
    2.0000    0.7619    0.0000 C   0  0  0  0  0  0  0  0  0  0  0  0
    2.3984    1.7236    0.0000 C   0  0  0  0  0  0  0  0  0  0  0  0
    3.8541    1.4160    0.0000 C   0  0  0  0  0  0  0  0  0  0  0  0
    5.0953   -1.4160    0.0000 C   0  0  0  0  0  0  0  0  0  0  0  0
    4.7201    0.9160    0.0000 C   0  0  0  0  0  0  0  0  0  0  0  0
    5.9613    0.0840    0.0000 C   0  0  0  0  0  0  0  0  0  0  0  0
    6.4613    0.9501    0.0000 C   0  0  0  0  0  0  0  0  0  0  0  0
    5.9613   -0.9160    0.0000 C   0  0  0  0  0  0  0  0  0  0  0  0
    5.5861    1.4160    0.0000 C   0  0  0  0  0  0  0  0  0  0  0  0
    5.0953   -2.4160    0.0000 C   0  0  0  0  0  0  0  0  0  0  0  0
    5.5767    2.4160    0.0000 C   0  0  0  0  0  0  0  0  0  0  0  0
    2.1923    0.2601    0.0000 H   0  0  0  0  0  0  0  0  0  0  0  0
    2.2908   -0.4883    0.0000 H   0  0  0  0  0  0  0  0  0  0  0  0
    2.6466   -1.1280    0.0000 H   0  0  0  0  0  0  0  0  0  0  0  0
    3.3369   -1.5265    0.0000 H   0  0  0  0  0  0  0  0  0  0  0  0
    4.7042   -0.5174    0.0000 H   0  0  0  0  0  0  0  0  0  0  0  0
    4.0688   -1.5148    0.0000 H   0  0  0  0  0  0  0  0  0  0  0  0
    2.8991    2.0892    0.0000 H   0  0  0  0  0  0  0  0  0  0  0  0
    2.0327    2.2243    0.0000 H   0  0  0  0  0  0  0  0  0  0  0  0
    1.8976    1.3580    0.0000 H   0  0  0  0  0  0  0  0  0  0  0  0
    1.9045    1.3745    0.0000 H   0  0  0  0  0  0  0  0  0  0  0  0
    1.3874    0.6664    0.0000 H   0  0  0  0  0  0  0  0  0  0  0  0
    2.0955    0.1493    0.0000 H   0  0  0  0  0  0  0  0  0  0  0  0
    3.8541    2.0360    0.0000 H   0  0  0  0  0  0  0  0  0  0  0  0
    4.7201    0.2960    0.0000 H   0  0  0  0  0  0  0  0  0  0  0  0
    5.5628    0.5590    0.0000 H   0  0  0  0  0  0  0  0  0  0  0  0
    6.5602   -0.0764    0.0000 H   0  0  0  0  0  0  0  0  0  0  0  0
    7.0017    0.6462    0.0000 H   0  0  0  0  0  0  0  0  0  0  0  0
    6.7589    1.4940    0.0000 H   0  0  0  0  0  0  0  0  0  0  0  0
    6.4982   -1.2260    0.0000 H   0  0  0  0  0  0  0  0  0  0  0  0
    4.4753   -2.4160    0.0000 H   0  0  0  0  0  0  0  0  0  0  0  0
    5.0953   -3.0360    0.0000 H   0  0  0  0  0  0  0  0  0  0  0  0
    5.7153   -2.4160    0.0000 H   0  0  0  0  0  0  0  0  0  0  0  0
    6.1107    2.7310    0.0000 H   0  0  0  0  0  0  0  0  0  0  0  0
    5.0368    2.7209    0.0000 H   0  0  0  0  0  0  0  0  0  0  0  0
  1  2  1  0  0  0  0
  1  5  1  0  0  0  0
  1  6  1  0  0  0  0
  1  7  1  0  0  0  0
  2  3  1  0  0  0  0
  2 16  1  0  0  0  0
  2 17  1  0  0  0  0
  3  4  1  0  0  0  0
  3 18  1  0  0  0  0
  3 19  1  0  0  0  0
  4  8  1  0  0  0  0
  4 20  1  0  0  0  0
  4 21  1  0  0  0  0
  5 25  1  0  0  0  0
  5 26  1  0  0  0  0
  5 27  1  0  0  0  0
  6 22  1  0  0  0  0
  6 23  1  0  0  0  0
  6 24  1  0  0  0  0
  7  9  2  0  0  0  0
  7 28  1  0  0  0  0
  8 12  2  0  0  0  0
  8 14  1  0  0  0  0
  9 13  1  0  0  0  0
  9 29  1  0  0  0  0
 10 11  1  0  0  0  0
 10 12  1  0  0  0  0
 10 30  1  0  0  0  0
 10 31  1  0  0  0  0
 11 13  1  0  0  0  0
 11 32  1  0  0  0  0
 11 33  1  0  0  0  0
 12 34  1  0  0  0  0
 13 15  2  0  0  0  0
 14 35  1  0  0  0  0
 14 36  1  0  0  0  0
 14 37  1  0  0  0  0
 15 38  1  0  0  0  0
 15 39  1  0  0  0  0
M  END
>  <PUBCHEM_COMPOUND_CID>
14038477

>  <PUBCHEM_COMPOUND_CANONICALIZED>
1

>  <PUBCHEM_CACTVS_COMPLEXITY>
276

>  <PUBCHEM_CACTVS_HBOND_ACCEPTOR>
0

>  <PUBCHEM_CACTVS_HBOND_DONOR>
0

>  <PUBCHEM_CACTVS_ROTATABLE_BOND>
0

>  <PUBCHEM_CACTVS_SUBSKEYS>
AAADceBwAAAAAAAAAAAAAAAAAAAAAAAAAAAAAAAAAAAAAAAAAAAAGAAAAAAADgCAAAACAAAAAACAAiBCAAAAAAAgAAAICAAAAAgIAAIAAQAAAAAAgAAIgAMAgEANAAAAAAAAAAAAAAAAAAAAAAAAAAAAAA==

>  <PUBCHEM_IUPAC_OPENEYE_NAME>
(1Z,6E)-1,8,8-trimethyl-5-methylene-cycloundeca-1,6-diene

>  <PUBCHEM_IUPAC_CAS_NAME>
(1Z,6E)-1,8,8-trimethyl-5-methylenecycloundeca-1,6-diene

>  <PUBCHEM_IUPAC_NAME>
(1Z,6E)-1,8,8-trimethyl-5-methylidenecycloundeca-1,6-diene

>  <PUBCHEM_IUPAC_SYSTEMATIC_NAME>
(1Z,6E)-1,8,8-trimethyl-5-methylidene-cycloundeca-1,6-diene

>  <PUBCHEM_IUPAC_TRADITIONAL_NAME>
(1Z,6E)-1,8,8-trimethyl-5-methylene-cycloundeca-1,6-diene

>  <PUBCHEM_IUPAC_INCHI>
InChI=1S/C15H24/c1-13-7-5-8-14(2)10-12-15(3,4)11-6-9-13/h7,10,12H,2,5-6,8-9,11H2,1,3-4H3/b12-10+,13-7-

>  <PUBCHEM_IUPAC_INCHIKEY>
FNXUOGPQAOCFKU-RYKBTYGJSA-N

>  <PUBCHEM_XLOGP3_AA>
5

>  <PUBCHEM_EXACT_MASS>
204.188

>  <PUBCHEM_MOLECULAR_FORMULA>
C15H24

>  <PUBCHEM_MOLECULAR_WEIGHT>
204.357

>  <PUBCHEM_OPENEYE_CAN_SMILES>
CC1=CCCC(=C)C=CC(CCC1)(C)C

>  <PUBCHEM_OPENEYE_ISO_SMILES>
C/C/1=C/CCC(=C)/C=C/C(CCC1)(C)C

>  <PUBCHEM_CACTVS_TPSA>
0

>  <PUBCHEM_MONOISOTOPIC_WEIGHT>
204.188

>  <PUBCHEM_TOTAL_CHARGE>
0

>  <PUBCHEM_HEAVY_ATOM_COUNT>
15

>  <PUBCHEM_ATOM_DEF_STEREO_COUNT>
0

>  <PUBCHEM_ATOM_UDEF_STEREO_COUNT>
0

>  <PUBCHEM_BOND_DEF_STEREO_COUNT>
2

>  <PUBCHEM_BOND_UDEF_STEREO_COUNT>
0

>  <PUBCHEM_ISOTOPIC_ATOM_COUNT>
0

>  <PUBCHEM_COMPONENT_COUNT>
1

>  <PUBCHEM_CACTVS_TAUTO_COUNT>
1

>  <PUBCHEM_COORDINATE_TYPE>
1
5
255

$$$$
