14032965
 OpenBabel06101807152D

 73 77  0  0  1  0  0  0  0  0999 V2000
    7.7331    0.4700    0.0000 O   0  0  0  0  0  0  0  0  0  0  0  0
    4.2690   -0.5300    0.0000 O   0  0  0  0  0  0  0  0  0  0  0  0
    6.0010   -0.5300    0.0000 O   0  0  0  0  0  0  0  0  0  0  0  0
    6.0010    2.4700    0.0000 O   0  0  0  0  0  0  0  0  0  0  0  0
    7.7331    3.4700    0.0000 O   0  0  0  0  0  0  0  0  0  0  0  0
    9.4651    0.4700    0.0000 O   0  0  0  0  0  0  0  0  0  0  0  0
    6.0010   -2.5300    0.0000 O   0  0  0  0  0  0  0  0  0  0  0  0
    4.2690   -3.5300    0.0000 O   0  0  0  0  0  0  0  0  0  0  0  0
    9.4651    2.4700    0.0000 O   0  0  0  0  0  0  0  0  0  0  0  0
    2.5369   -2.5300    0.0000 O   0  0  0  0  0  0  0  0  0  0  0  0
    2.5369    0.4700    0.0000 O   0  0  0  0  0  0  0  0  0  0  0  0
   12.9953    0.4805    0.0000 O   0  0  0  0  0  0  0  0  0  0  0  0
   11.2586    3.5218    0.0000 O   0  0  0  0  0  0  0  0  0  0  0  0
   13.0069    3.4805    0.0000 O   0  0  0  0  0  0  0  0  0  0  0  0
   15.5838   -2.0295    0.0000 O   0  0  0  0  0  0  0  0  0  0  0  0
   17.3196   -1.0362    0.0000 O   0  0  0  0  0  0  0  0  0  0  0  0
    6.8671    0.9700    0.0000 C   0  0  3  0  0  0  0  0  0  0  0  0
    6.8671    1.9700    0.0000 C   0  0  3  0  0  0  0  0  0  0  0  0
    7.7331    2.4700    0.0000 C   0  0  3  0  0  0  0  0  0  0  0  0
    5.1350   -2.0300    0.0000 C   0  0  3  0  0  0  0  0  0  0  0  0
    4.2690   -2.5300    0.0000 C   0  0  3  0  0  0  0  0  0  0  0  0
    5.1350   -1.0300    0.0000 C   0  0  3  0  0  0  0  0  0  0  0  0
    8.5991    1.9700    0.0000 C   0  0  3  0  0  0  0  0  0  0  0  0
    3.4030   -2.0300    0.0000 C   0  0  3  0  0  0  0  0  0  0  0  0
    3.4030   -1.0300    0.0000 C   0  0  3  0  0  0  0  0  0  0  0  0
    6.0010    0.4700    0.0000 C   0  0  0  0  0  0  0  0  0  0  0  0
    8.5991    0.9700    0.0000 C   0  0  3  0  0  0  0  0  0  0  0  0
    2.5369   -0.5300    0.0000 C   0  0  0  0  0  0  0  0  0  0  0  0
   10.3312    0.9700    0.0000 C   0  0  0  0  0  0  0  0  0  0  0  0
   11.2352    0.4526    0.0000 C   0  0  0  0  0  0  0  0  0  0  0  0
   10.3352    2.0116    0.0000 C   0  0  0  0  0  0  0  0  0  0  0  0
   12.1312    0.9838    0.0000 C   0  0  0  0  0  0  0  0  0  0  0  0
   11.2432    2.5219    0.0000 C   0  0  0  0  0  0  0  0  0  0  0  0
   12.1351    1.9838    0.0000 C   0  0  0  0  0  0  0  0  0  0  0  0
   13.0030    2.4805    0.0000 C   0  0  0  0  0  0  0  0  0  0  0  0
   13.8633    0.9772    0.0000 C   0  0  0  0  0  0  0  0  0  0  0  0
   13.8671    1.9772    0.0000 C   0  0  0  0  0  0  0  0  0  0  0  0
   14.7274    0.4738    0.0000 C   0  0  0  0  0  0  0  0  0  0  0  0
   14.7235   -0.5262    0.0000 C   0  0  0  0  0  0  0  0  0  0  0  0
   15.5953    0.9705    0.0000 C   0  0  0  0  0  0  0  0  0  0  0  0
   15.5876   -1.0295    0.0000 C   0  0  0  0  0  0  0  0  0  0  0  0
   16.4594    0.4671    0.0000 C   0  0  0  0  0  0  0  0  0  0  0  0
   16.4556   -0.5329    0.0000 C   0  0  0  0  0  0  0  0  0  0  0  0
    6.8671    0.3500    0.0000 H   0  0  0  0  0  0  0  0  0  0  0  0
    6.3301    1.6600    0.0000 H   0  0  0  0  0  0  0  0  0  0  0  0
    7.1962    2.7800    0.0000 H   0  0  0  0  0  0  0  0  0  0  0  0
    5.1350   -2.6500    0.0000 H   0  0  0  0  0  0  0  0  0  0  0  0
    3.7320   -2.8401    0.0000 H   0  0  0  0  0  0  0  0  0  0  0  0
    5.6720   -1.3400    0.0000 H   0  0  0  0  0  0  0  0  0  0  0  0
    8.5991    2.5900    0.0000 H   0  0  0  0  0  0  0  0  0  0  0  0
    2.8660   -1.7200    0.0000 H   0  0  0  0  0  0  0  0  0  0  0  0
    3.4030   -0.4100    0.0000 H   0  0  0  0  0  0  0  0  0  0  0  0
    5.7890    1.0526    0.0000 H   0  0  0  0  0  0  0  0  0  0  0  0
    5.3905    0.3623    0.0000 H   0  0  0  0  0  0  0  0  0  0  0  0
    8.5991    0.3500    0.0000 H   0  0  0  0  0  0  0  0  0  0  0  0
    1.9264   -0.4224    0.0000 H   0  0  0  0  0  0  0  0  0  0  0  0
    2.3249   -1.1127    0.0000 H   0  0  0  0  0  0  0  0  0  0  0  0
    5.4641    2.1599    0.0000 H   0  0  0  0  0  0  0  0  0  0  0  0
    7.1962    3.7800    0.0000 H   0  0  0  0  0  0  0  0  0  0  0  0
    6.5380   -2.2200    0.0000 H   0  0  0  0  0  0  0  0  0  0  0  0
    3.7320   -3.8400    0.0000 H   0  0  0  0  0  0  0  0  0  0  0  0
    9.4651    3.0900    0.0000 H   0  0  0  0  0  0  0  0  0  0  0  0
    2.0000   -2.2200    0.0000 H   0  0  0  0  0  0  0  0  0  0  0  0
    2.0000    0.7800    0.0000 H   0  0  0  0  0  0  0  0  0  0  0  0
   11.2400   -0.1674    0.0000 H   0  0  0  0  0  0  0  0  0  0  0  0
    9.8006    2.3257    0.0000 H   0  0  0  0  0  0  0  0  0  0  0  0
   14.4053    2.2851    0.0000 H   0  0  0  0  0  0  0  0  0  0  0  0
   10.7265    3.8400    0.0000 H   0  0  0  0  0  0  0  0  0  0  0  0
   14.1854   -0.8341    0.0000 H   0  0  0  0  0  0  0  0  0  0  0  0
   15.5977    1.5905    0.0000 H   0  0  0  0  0  0  0  0  0  0  0  0
   16.9975    0.7751    0.0000 H   0  0  0  0  0  0  0  0  0  0  0  0
   16.1195   -2.3416    0.0000 H   0  0  0  0  0  0  0  0  0  0  0  0
   17.8578   -0.7283    0.0000 H   0  0  0  0  0  0  0  0  0  0  0  0
  1 17  1  0  0  0  0
  1 27  1  0  0  0  0
  2 22  1  0  0  0  0
  2 25  1  0  0  0  0
  3 22  1  0  0  0  0
  3 26  1  0  0  0  0
  4 18  1  0  0  0  0
  4 58  1  0  0  0  0
  5 19  1  0  0  0  0
  5 59  1  0  0  0  0
  6 27  1  0  0  0  0
  6 29  1  0  0  0  0
  7 20  1  0  0  0  0
  7 60  1  0  0  0  0
  8 21  1  0  0  0  0
  8 61  1  0  0  0  0
  9 23  1  0  0  0  0
  9 62  1  0  0  0  0
 10 24  1  0  0  0  0
 10 63  1  0  0  0  0
 11 28  1  0  0  0  0
 11 64  1  0  0  0  0
 12 32  1  0  0  0  0
 12 36  1  0  0  0  0
 13 33  1  0  0  0  0
 13 68  1  0  0  0  0
 14 35  2  0  0  0  0
 15 41  1  0  0  0  0
 15 72  1  0  0  0  0
 16 43  1  0  0  0  0
 16 73  1  0  0  0  0
 17 18  1  0  0  0  0
 17 26  1  0  0  0  0
 17 44  1  0  0  0  0
 18 19  1  0  0  0  0
 18 45  1  0  0  0  0
 19 23  1  0  0  0  0
 19 46  1  0  0  0  0
 20 21  1  0  0  0  0
 20 22  1  0  0  0  0
 20 47  1  0  0  0  0
 21 24  1  0  0  0  0
 21 48  1  0  0  0  0
 22 49  1  0  0  0  0
 23 27  1  0  0  0  0
 23 50  1  0  0  0  0
 24 25  1  0  0  0  0
 24 51  1  0  0  0  0
 25 28  1  0  0  0  0
 25 52  1  0  0  0  0
 26 53  1  0  0  0  0
 26 54  1  0  0  0  0
 27 55  1  0  0  0  0
 28 56  1  0  0  0  0
 28 57  1  0  0  0  0
 29 30  1  0  0  0  0
 29 31  2  0  0  0  0
 30 32  2  0  0  0  0
 30 65  1  0  0  0  0
 31 33  1  0  0  0  0
 31 66  1  0  0  0  0
 32 34  1  0  0  0  0
 33 34  2  0  0  0  0
 34 35  1  0  0  0  0
 35 37  1  0  0  0  0
 36 37  2  0  0  0  0
 36 38  1  0  0  0  0
 37 67  1  0  0  0  0
 38 39  2  0  0  0  0
 38 40  1  0  0  0  0
 39 41  1  0  0  0  0
 39 69  1  0  0  0  0
 40 42  2  0  0  0  0
 40 70  1  0  0  0  0
 41 43  2  0  0  0  0
 42 43  1  0  0  0  0
 42 71  1  0  0  0  0
M  END
>  <PUBCHEM_COMPOUND_CID>
14032965

>  <PUBCHEM_COMPOUND_CANONICALIZED>
1

>  <PUBCHEM_CACTVS_COMPLEXITY>
996

>  <PUBCHEM_CACTVS_HBOND_ACCEPTOR>
16

>  <PUBCHEM_CACTVS_HBOND_DONOR>
10

>  <PUBCHEM_CACTVS_ROTATABLE_BOND>
7

>  <PUBCHEM_CACTVS_SUBSKEYS>
AAADceB4PgAAAAAAAAAAAAAAAAAAAAAAAAA0aIECAAAAAACBQAAAGgAACAAADBSwmAMwDoAABgCIAqBSAAACCAAkIAAIiAEGiMgdNzaGNRqieWGl4BUPuQfI7LzOIAABCAAIQABAAAIQABCAAAAAAAAAAA==

>  <PUBCHEM_IUPAC_OPENEYE_NAME>
2-(3,4-dihydroxyphenyl)-5-hydroxy-7-[3,4,5-trihydroxy-6-[[3,4,5-trihydroxy-6-(hydroxymethyl)tetrahydropyran-2-yl]oxymethyl]tetrahydropyran-2-yl]oxy-chromen-4-one

>  <PUBCHEM_IUPAC_CAS_NAME>
2-(3,4-dihydroxyphenyl)-5-hydroxy-7-[[3,4,5-trihydroxy-6-[[3,4,5-trihydroxy-6-(hydroxymethyl)-2-oxanyl]oxymethyl]-2-oxanyl]oxy]-1-benzopyran-4-one

>  <PUBCHEM_IUPAC_NAME>
2-(3,4-dihydroxyphenyl)-5-hydroxy-7-[3,4,5-trihydroxy-6-[[3,4,5-trihydroxy-6-(hydroxymethyl)oxan-2-yl]oxymethyl]oxan-2-yl]oxychromen-4-one

>  <PUBCHEM_IUPAC_SYSTEMATIC_NAME>
2-[3,4-bis(oxidanyl)phenyl]-7-[6-[[6-(hydroxymethyl)-3,4,5-tris(oxidanyl)oxan-2-yl]oxymethyl]-3,4,5-tris(oxidanyl)oxan-2-yl]oxy-5-oxidanyl-chromen-4-one

>  <PUBCHEM_IUPAC_TRADITIONAL_NAME>
2-(3,4-dihydroxyphenyl)-5-hydroxy-7-[3,4,5-trihydroxy-6-[(3,4,5-trihydroxy-6-methylol-tetrahydropyran-2-yl)oxymethyl]tetrahydropyran-2-yl]oxy-chromone

>  <PUBCHEM_IUPAC_INCHI>
InChI=1S/C27H30O16/c28-7-17-20(33)22(35)24(37)26(42-17)39-8-18-21(34)23(36)25(38)27(43-18)40-10-4-13(31)19-14(32)6-15(41-16(19)5-10)9-1-2-11(29)12(30)3-9/h1-6,17-18,20-31,33-38H,7-8H2

>  <PUBCHEM_IUPAC_INCHIKEY>
LDTDRTSKWGQBAA-UHFFFAOYSA-N

>  <PUBCHEM_XLOGP3_AA>
-1.6

>  <PUBCHEM_EXACT_MASS>
610.153

>  <PUBCHEM_MOLECULAR_FORMULA>
C27H30O16

>  <PUBCHEM_MOLECULAR_WEIGHT>
610.521

>  <PUBCHEM_OPENEYE_CAN_SMILES>
C1=CC(=C(C=C1C2=CC(=O)C3=C(C=C(C=C3O2)OC4C(C(C(C(O4)COC5C(C(C(C(O5)CO)O)O)O)O)O)O)O)O)O

>  <PUBCHEM_OPENEYE_ISO_SMILES>
C1=CC(=C(C=C1C2=CC(=O)C3=C(C=C(C=C3O2)OC4C(C(C(C(O4)COC5C(C(C(C(O5)CO)O)O)O)O)O)O)O)O)O

>  <PUBCHEM_CACTVS_TPSA>
266

>  <PUBCHEM_MONOISOTOPIC_WEIGHT>
610.153

>  <PUBCHEM_TOTAL_CHARGE>
0

>  <PUBCHEM_HEAVY_ATOM_COUNT>
43

>  <PUBCHEM_ATOM_DEF_STEREO_COUNT>
0

>  <PUBCHEM_ATOM_UDEF_STEREO_COUNT>
10

>  <PUBCHEM_BOND_DEF_STEREO_COUNT>
0

>  <PUBCHEM_BOND_UDEF_STEREO_COUNT>
0

>  <PUBCHEM_ISOTOPIC_ATOM_COUNT>
0

>  <PUBCHEM_COMPONENT_COUNT>
1

>  <PUBCHEM_CACTVS_TAUTO_COUNT>
68

>  <PUBCHEM_COORDINATE_TYPE>
1
5
255

>  <PUBCHEM_BONDANNOTATIONS>
24  10  3
12  32  8
12  36  8
17  26  3
25  28  3
29  30  8
29  31  8
22  3  3
30  32  8
31  33  8
32  34  8
33  34  8
34  35  8
35  37  8
36  37  8
38  39  8
38  40  8
39  41  8
18  4  3
40  42  8
41  43  8
42  43  8
19  5  3
27  6  3
20  7  3
21  8  3
23  9  3

$$$$
