14035324
 OpenBabel06101807152D

 72 76  0  0  1  0  0  0  0  0999 V2000
    5.1459   -2.6330    0.0000 O   0  0  0  0  0  0  0  0  0  0  0  0
    5.1396    4.4396    0.0000 O   0  0  0  0  0  0  0  0  0  0  0  0
    6.8779   -2.6330    0.0000 O   0  0  0  0  0  0  0  0  0  0  0  0
    5.1459   -5.6330    0.0000 O   0  0  0  0  0  0  0  0  0  0  0  0
    3.4138   -4.6330    0.0000 O   0  0  0  0  0  0  0  0  0  0  0  0
    5.9998    2.9363    0.0000 O   0  0  0  0  0  0  0  0  0  0  0  0
    6.8779   -4.6330    0.0000 O   0  0  0  0  0  0  0  0  0  0  0  0
    2.5357    2.9496    0.0000 O   0  0  0  0  0  0  0  0  0  0  0  0
    2.5434    4.9496    0.0000 O   0  0  0  0  0  0  0  0  0  0  0  0
    4.2639    1.9430    0.0000 O   0  0  0  0  0  0  0  0  0  0  0  0
    2.5478   -3.1330    0.0000 O   0  0  0  0  0  0  0  0  0  0  0  0
    7.7440   -0.1330    0.0000 O   0  0  0  0  0  0  0  0  0  0  0  0
    5.1459   -1.6329    0.0000 O   0  0  0  0  0  0  0  0  0  0  0  0
    4.2417   -0.1361    0.0000 O   0  0  0  0  0  0  0  0  0  0  0  0
   11.2081   -3.1330    0.0000 O   0  0  0  0  0  0  0  0  0  0  0  0
    5.1459   -4.6330    0.0000 C   0  0  3  0  0  0  0  0  0  0  0  0
    4.2799   -4.1330    0.0000 C   0  0  3  0  0  0  0  0  0  0  0  0
    6.0119   -4.1330    0.0000 C   0  0  3  0  0  0  0  0  0  0  0  0
    4.2799   -3.1330    0.0000 C   0  0  3  0  0  0  0  0  0  0  0  0
    3.4037    3.4463    0.0000 C   0  0  3  0  0  0  0  0  0  0  0  0
    3.4075    4.4463    0.0000 C   0  0  3  0  0  0  0  0  0  0  0  0
    6.0119   -3.1330    0.0000 C   0  0  3  0  0  0  0  0  0  0  0  0
    4.2678    2.9430    0.0000 C   0  0  3  0  0  0  0  0  0  0  0  0
    4.2755    4.9430    0.0000 C   0  0  3  0  0  0  0  0  0  0  0  0
    5.1357    3.4396    0.0000 C   0  0  3  0  0  0  0  0  0  0  0  0
    3.4138   -2.6330    0.0000 C   0  0  0  0  0  0  0  0  0  0  0  0
    4.2793    5.9430    0.0000 C   0  0  0  0  0  0  0  0  0  0  0  0
    6.8779   -1.6329    0.0000 C   0  0  0  0  0  0  0  0  0  0  0  0
    5.9960    1.9363    0.0000 C   0  0  0  0  0  0  0  0  0  0  0  0
    6.0119   -0.1330    0.0000 C   0  0  0  0  0  0  0  0  0  0  0  0
    6.0119   -1.1329    0.0000 C   0  0  0  0  0  0  0  0  0  0  0  0
    7.7440   -1.1329    0.0000 C   0  0  0  0  0  0  0  0  0  0  0  0
    6.8779    0.3670    0.0000 C   0  0  0  0  0  0  0  0  0  0  0  0
    6.8940    1.4086    0.0000 C   0  0  0  0  0  0  0  0  0  0  0  0
    5.0939    1.4155    0.0000 C   0  0  0  0  0  0  0  0  0  0  0  0
    5.1019    0.3739    0.0000 C   0  0  0  0  0  0  0  0  0  0  0  0
    8.6100   -1.6329    0.0000 C   0  0  0  0  0  0  0  0  0  0  0  0
    9.4760   -1.1329    0.0000 C   0  0  0  0  0  0  0  0  0  0  0  0
    8.6100   -2.6330    0.0000 C   0  0  0  0  0  0  0  0  0  0  0  0
   10.3420   -1.6329    0.0000 C   0  0  0  0  0  0  0  0  0  0  0  0
    9.4760   -3.1330    0.0000 C   0  0  0  0  0  0  0  0  0  0  0  0
   10.3420   -2.6330    0.0000 C   0  0  0  0  0  0  0  0  0  0  0  0
    5.6828   -4.9430    0.0000 H   0  0  0  0  0  0  0  0  0  0  0  0
    3.7429   -3.8230    0.0000 H   0  0  0  0  0  0  0  0  0  0  0  0
    6.5488   -3.8230    0.0000 H   0  0  0  0  0  0  0  0  0  0  0  0
    4.2799   -2.5130    0.0000 H   0  0  0  0  0  0  0  0  0  0  0  0
    2.8680    3.7584    0.0000 H   0  0  0  0  0  0  0  0  0  0  0  0
    3.4099    5.0663    0.0000 H   0  0  0  0  0  0  0  0  0  0  0  0
    6.0119   -2.5130    0.0000 H   0  0  0  0  0  0  0  0  0  0  0  0
    3.7296    2.6350    0.0000 H   0  0  0  0  0  0  0  0  0  0  0  0
    4.8136    5.2509    0.0000 H   0  0  0  0  0  0  0  0  0  0  0  0
    5.1333    2.8196    0.0000 H   0  0  0  0  0  0  0  0  0  0  0  0
    3.8124   -2.1580    0.0000 H   0  0  0  0  0  0  0  0  0  0  0  0
    3.0153   -2.1580    0.0000 H   0  0  0  0  0  0  0  0  0  0  0  0
    4.8993    5.9406    0.0000 H   0  0  0  0  0  0  0  0  0  0  0  0
    4.2817    6.5630    0.0000 H   0  0  0  0  0  0  0  0  0  0  0  0
    3.6593    5.9453    0.0000 H   0  0  0  0  0  0  0  0  0  0  0  0
    4.6090   -5.9430    0.0000 H   0  0  0  0  0  0  0  0  0  0  0  0
    3.4138   -5.2530    0.0000 H   0  0  0  0  0  0  0  0  0  0  0  0
    6.8779   -5.2530    0.0000 H   0  0  0  0  0  0  0  0  0  0  0  0
    2.0000    3.2617    0.0000 H   0  0  0  0  0  0  0  0  0  0  0  0
    2.5458    5.5696    0.0000 H   0  0  0  0  0  0  0  0  0  0  0  0
    3.7258    1.6351    0.0000 H   0  0  0  0  0  0  0  0  0  0  0  0
    2.0109   -2.8230    0.0000 H   0  0  0  0  0  0  0  0  0  0  0  0
    7.4345    1.7123    0.0000 H   0  0  0  0  0  0  0  0  0  0  0  0
    4.5558    1.7234    0.0000 H   0  0  0  0  0  0  0  0  0  0  0  0
    9.4760   -0.5130    0.0000 H   0  0  0  0  0  0  0  0  0  0  0  0
    8.0730   -2.9430    0.0000 H   0  0  0  0  0  0  0  0  0  0  0  0
    3.7012    0.1677    0.0000 H   0  0  0  0  0  0  0  0  0  0  0  0
   10.8790   -1.3230    0.0000 H   0  0  0  0  0  0  0  0  0  0  0  0
    9.4760   -3.7530    0.0000 H   0  0  0  0  0  0  0  0  0  0  0  0
   11.2081   -3.7530    0.0000 H   0  0  0  0  0  0  0  0  0  0  0  0
  1 19  1  0  0  0  0
  1 22  1  0  0  0  0
  2 24  1  0  0  0  0
  2 25  1  0  0  0  0
  3 22  1  0  0  0  0
  3 28  1  0  0  0  0
  4 16  1  0  0  0  0
  4 58  1  0  0  0  0
  5 17  1  0  0  0  0
  5 59  1  0  0  0  0
  6 25  1  0  0  0  0
  6 29  1  0  0  0  0
  7 18  1  0  0  0  0
  7 60  1  0  0  0  0
  8 20  1  0  0  0  0
  8 61  1  0  0  0  0
  9 21  1  0  0  0  0
  9 62  1  0  0  0  0
 10 23  1  0  0  0  0
 10 63  1  0  0  0  0
 11 26  1  0  0  0  0
 11 64  1  0  0  0  0
 12 32  1  0  0  0  0
 12 33  1  0  0  0  0
 13 31  2  0  0  0  0
 14 36  1  0  0  0  0
 14 69  1  0  0  0  0
 15 42  1  0  0  0  0
 15 72  1  0  0  0  0
 16 17  1  0  0  0  0
 16 18  1  0  0  0  0
 16 43  1  0  0  0  0
 17 19  1  0  0  0  0
 17 44  1  0  0  0  0
 18 22  1  0  0  0  0
 18 45  1  0  0  0  0
 19 26  1  0  0  0  0
 19 46  1  0  0  0  0
 20 21  1  0  0  0  0
 20 23  1  0  0  0  0
 20 47  1  0  0  0  0
 21 24  1  0  0  0  0
 21 48  1  0  0  0  0
 22 49  1  0  0  0  0
 23 25  1  0  0  0  0
 23 50  1  0  0  0  0
 24 27  1  0  0  0  0
 24 51  1  0  0  0  0
 25 52  1  0  0  0  0
 26 53  1  0  0  0  0
 26 54  1  0  0  0  0
 27 55  1  0  0  0  0
 27 56  1  0  0  0  0
 27 57  1  0  0  0  0
 28 31  1  0  0  0  0
 28 32  2  0  0  0  0
 29 34  1  0  0  0  0
 29 35  2  0  0  0  0
 30 31  1  0  0  0  0
 30 33  1  0  0  0  0
 30 36  2  0  0  0  0
 32 37  1  0  0  0  0
 33 34  2  0  0  0  0
 34 65  1  0  0  0  0
 35 36  1  0  0  0  0
 35 66  1  0  0  0  0
 37 38  2  0  0  0  0
 37 39  1  0  0  0  0
 38 40  1  0  0  0  0
 38 67  1  0  0  0  0
 39 41  2  0  0  0  0
 39 68  1  0  0  0  0
 40 42  2  0  0  0  0
 40 70  1  0  0  0  0
 41 42  1  0  0  0  0
 41 71  1  0  0  0  0
M  END
>  <PUBCHEM_COMPOUND_CID>
14035324

>  <PUBCHEM_COMPOUND_CANONICALIZED>
1

>  <PUBCHEM_CACTVS_COMPLEXITY>
985

>  <PUBCHEM_CACTVS_HBOND_ACCEPTOR>
15

>  <PUBCHEM_CACTVS_HBOND_DONOR>
9

>  <PUBCHEM_CACTVS_ROTATABLE_BOND>
6

>  <PUBCHEM_CACTVS_SUBSKEYS>
AAADceB4PAAAAAAAAAAAAAAAAAAAAAAAAAA0aIECAAAAAACBQAAAGgAACAAADBSwmAMyDoAABgCIAqBSAAICCAAkIAAIiAFGCMgdNzaGNR6ieWCl4BUPuQfI7KzOIAAACAAIAABAAAAQABAAAAAAAAAAAA==

>  <PUBCHEM_IUPAC_OPENEYE_NAME>
5-hydroxy-2-(4-hydroxyphenyl)-3-[3,4,5-trihydroxy-6-(hydroxymethyl)tetrahydropyran-2-yl]oxy-7-(3,4,5-trihydroxy-6-methyl-tetrahydropyran-2-yl)oxy-chromen-4-one

>  <PUBCHEM_IUPAC_CAS_NAME>
5-hydroxy-2-(4-hydroxyphenyl)-3-[[3,4,5-trihydroxy-6-(hydroxymethyl)-2-oxanyl]oxy]-7-[(3,4,5-trihydroxy-6-methyl-2-oxanyl)oxy]-1-benzopyran-4-one

>  <PUBCHEM_IUPAC_NAME>
5-hydroxy-2-(4-hydroxyphenyl)-3-[3,4,5-trihydroxy-6-(hydroxymethyl)oxan-2-yl]oxy-7-(3,4,5-trihydroxy-6-methyloxan-2-yl)oxychromen-4-one

>  <PUBCHEM_IUPAC_SYSTEMATIC_NAME>
3-[6-(hydroxymethyl)-3,4,5-tris(oxidanyl)oxan-2-yl]oxy-2-(4-hydroxyphenyl)-7-[6-methyl-3,4,5-tris(oxidanyl)oxan-2-yl]oxy-5-oxidanyl-chromen-4-one

>  <PUBCHEM_IUPAC_TRADITIONAL_NAME>
5-hydroxy-2-(4-hydroxyphenyl)-3-(3,4,5-trihydroxy-6-methylol-tetrahydropyran-2-yl)oxy-7-(3,4,5-trihydroxy-6-methyl-tetrahydropyran-2-yl)oxy-chromone

>  <PUBCHEM_IUPAC_INCHI>
InChI=1S/C27H30O15/c1-9-17(31)20(34)22(36)26(38-9)39-12-6-13(30)16-14(7-12)40-24(10-2-4-11(29)5-3-10)25(19(16)33)42-27-23(37)21(35)18(32)15(8-28)41-27/h2-7,9,15,17-18,20-23,26-32,34-37H,8H2,1H3

>  <PUBCHEM_IUPAC_INCHIKEY>
JYXSWDCPHRTYGU-UHFFFAOYSA-N

>  <PUBCHEM_XLOGP3_AA>
-0.6

>  <PUBCHEM_EXACT_MASS>
594.158

>  <PUBCHEM_MOLECULAR_FORMULA>
C27H30O15

>  <PUBCHEM_MOLECULAR_WEIGHT>
594.522

>  <PUBCHEM_OPENEYE_CAN_SMILES>
CC1C(C(C(C(O1)OC2=CC(=C3C(=C2)OC(=C(C3=O)OC4C(C(C(C(O4)CO)O)O)O)C5=CC=C(C=C5)O)O)O)O)O

>  <PUBCHEM_OPENEYE_ISO_SMILES>
CC1C(C(C(C(O1)OC2=CC(=C3C(=C2)OC(=C(C3=O)OC4C(C(C(C(O4)CO)O)O)O)C5=CC=C(C=C5)O)O)O)O)O

>  <PUBCHEM_CACTVS_TPSA>
245

>  <PUBCHEM_MONOISOTOPIC_WEIGHT>
594.158

>  <PUBCHEM_TOTAL_CHARGE>
0

>  <PUBCHEM_HEAVY_ATOM_COUNT>
42

>  <PUBCHEM_ATOM_DEF_STEREO_COUNT>
0

>  <PUBCHEM_ATOM_UDEF_STEREO_COUNT>
10

>  <PUBCHEM_BOND_DEF_STEREO_COUNT>
0

>  <PUBCHEM_BOND_UDEF_STEREO_COUNT>
0

>  <PUBCHEM_ISOTOPIC_ATOM_COUNT>
0

>  <PUBCHEM_COMPONENT_COUNT>
1

>  <PUBCHEM_CACTVS_TAUTO_COUNT>
24

>  <PUBCHEM_COORDINATE_TYPE>
1
5
255

>  <PUBCHEM_BONDANNOTATIONS>
23  10  3
12  32  8
12  33  8
19  26  3
24  27  3
28  31  8
28  32  8
29  34  8
29  35  8
22  3  3
30  31  8
30  33  8
30  36  8
33  34  8
35  36  8
37  38  8
37  39  8
38  40  8
39  41  8
16  4  3
40  42  8
41  42  8
17  5  3
25  6  3
18  7  3
20  8  3
21  9  3

$$$$
