14031069
 OpenBabel06101807152D

 40 41  0  0  0  0  0  0  0  0999 V2000
    2.5369    1.6550    0.0000 O   0  0  0  0  0  0  0  0  0  0  0  0
    9.4651   -1.3450    0.0000 O   0  0  0  0  0  0  0  0  0  0  0  0
    7.7331   -4.3450    0.0000 O   0  0  0  0  0  0  0  0  0  0  0  0
    5.1350    0.1550    0.0000 C   0  0  0  0  0  0  0  0  0  0  0  0
    4.2690    1.6550    0.0000 C   0  0  0  0  0  0  0  0  0  0  0  0
    5.1350    1.1550    0.0000 C   0  0  0  0  0  0  0  0  0  0  0  0
    3.4030    1.1550    0.0000 C   0  0  0  0  0  0  0  0  0  0  0  0
    6.0010   -0.3450    0.0000 C   0  0  0  0  0  0  0  0  0  0  0  0
    4.2690   -0.3450    0.0000 C   0  0  0  0  0  0  0  0  0  0  0  0
    6.8671   -1.8450    0.0000 C   0  0  0  0  0  0  0  0  0  0  0  0
    6.0010   -1.3450    0.0000 C   0  0  0  0  0  0  0  0  0  0  0  0
    3.4030    0.1550    0.0000 C   0  0  0  0  0  0  0  0  0  0  0  0
    4.2690    2.6550    0.0000 C   0  0  0  0  0  0  0  0  0  0  0  0
    6.8671   -2.8450    0.0000 C   0  0  0  0  0  0  0  0  0  0  0  0
    7.7331   -1.3450    0.0000 C   0  0  0  0  0  0  0  0  0  0  0  0
    8.5991   -1.8450    0.0000 C   0  0  0  0  0  0  0  0  0  0  0  0
    7.7331   -3.3450    0.0000 C   0  0  0  0  0  0  0  0  0  0  0  0
    8.5991   -2.8450    0.0000 C   0  0  0  0  0  0  0  0  0  0  0  0
    5.1350    3.1550    0.0000 C   0  0  0  0  0  0  0  0  0  0  0  0
    5.1350    4.1550    0.0000 C   0  0  0  0  0  0  0  0  0  0  0  0
    6.0010    4.6550    0.0000 C   0  0  0  0  0  0  0  0  0  0  0  0
    4.2690    4.6550    0.0000 C   0  0  0  0  0  0  0  0  0  0  0  0
    5.6720    1.4650    0.0000 H   0  0  0  0  0  0  0  0  0  0  0  0
    6.5380   -0.0350    0.0000 H   0  0  0  0  0  0  0  0  0  0  0  0
    4.2690   -0.9650    0.0000 H   0  0  0  0  0  0  0  0  0  0  0  0
    5.4641   -1.6550    0.0000 H   0  0  0  0  0  0  0  0  0  0  0  0
    2.8660   -0.1550    0.0000 H   0  0  0  0  0  0  0  0  0  0  0  0
    3.7320    2.9650    0.0000 H   0  0  0  0  0  0  0  0  0  0  0  0
    6.3301   -3.1550    0.0000 H   0  0  0  0  0  0  0  0  0  0  0  0
    7.7331   -0.7250    0.0000 H   0  0  0  0  0  0  0  0  0  0  0  0
    9.1360   -3.1550    0.0000 H   0  0  0  0  0  0  0  0  0  0  0  0
    5.6720    2.8450    0.0000 H   0  0  0  0  0  0  0  0  0  0  0  0
    2.0000    1.3450    0.0000 H   0  0  0  0  0  0  0  0  0  0  0  0
    6.3110    4.1181    0.0000 H   0  0  0  0  0  0  0  0  0  0  0  0
    6.5380    4.9650    0.0000 H   0  0  0  0  0  0  0  0  0  0  0  0
    5.6910    5.1919    0.0000 H   0  0  0  0  0  0  0  0  0  0  0  0
   10.0021   -1.6550    0.0000 H   0  0  0  0  0  0  0  0  0  0  0  0
    8.2700   -4.6550    0.0000 H   0  0  0  0  0  0  0  0  0  0  0  0
    4.2690    5.2750    0.0000 H   0  0  0  0  0  0  0  0  0  0  0  0
    3.7320    4.3450    0.0000 H   0  0  0  0  0  0  0  0  0  0  0  0
  1  7  1  0  0  0  0
  1 33  1  0  0  0  0
  2 16  1  0  0  0  0
  2 37  1  0  0  0  0
  3 17  1  0  0  0  0
  3 38  1  0  0  0  0
  4  6  2  0  0  0  0
  4  8  1  0  0  0  0
  4  9  1  0  0  0  0
  5  6  1  0  0  0  0
  5  7  2  0  0  0  0
  5 13  1  0  0  0  0
  6 23  1  0  0  0  0
  7 12  1  0  0  0  0
  8 11  2  0  0  0  0
  8 24  1  0  0  0  0
  9 12  2  0  0  0  0
  9 25  1  0  0  0  0
 10 11  1  0  0  0  0
 10 14  2  0  0  0  0
 10 15  1  0  0  0  0
 11 26  1  0  0  0  0
 12 27  1  0  0  0  0
 13 19  2  0  0  0  0
 13 28  1  0  0  0  0
 14 17  1  0  0  0  0
 14 29  1  0  0  0  0
 15 16  2  0  0  0  0
 15 30  1  0  0  0  0
 16 18  1  0  0  0  0
 17 18  2  0  0  0  0
 18 31  1  0  0  0  0
 19 20  1  0  0  0  0
 19 32  1  0  0  0  0
 20 21  1  0  0  0  0
 20 22  2  0  0  0  0
 21 34  1  0  0  0  0
 21 35  1  0  0  0  0
 21 36  1  0  0  0  0
 22 39  1  0  0  0  0
 22 40  1  0  0  0  0
M  END
>  <PUBCHEM_COMPOUND_CID>
14031069

>  <PUBCHEM_COMPOUND_CANONICALIZED>
1

>  <PUBCHEM_CACTVS_COMPLEXITY>
416

>  <PUBCHEM_CACTVS_HBOND_ACCEPTOR>
3

>  <PUBCHEM_CACTVS_HBOND_DONOR>
3

>  <PUBCHEM_CACTVS_ROTATABLE_BOND>
4

>  <PUBCHEM_CACTVS_SUBSKEYS>
AAADceB4MAAAAAAAAAAAAAAAAAAAAAAAAAAwYAAAAAAAAAABQAAAGgAACAAADASAmAAyBoAAAgCAAiBCAAACAAAgIAAIiAAGCIgIJyKCERKAcAAlwBUImAeA4HQOIAADCAAIAABAAAYQABAAAAAAAAAAAA==

>  <PUBCHEM_IUPAC_OPENEYE_NAME>
5-[(E)-2-[4-hydroxy-3-[(1E)-3-methylbuta-1,3-dienyl]phenyl]vinyl]benzene-1,3-diol

>  <PUBCHEM_IUPAC_CAS_NAME>
5-[(E)-2-[4-hydroxy-3-[(1E)-3-methylbuta-1,3-dienyl]phenyl]ethenyl]benzene-1,3-diol

>  <PUBCHEM_IUPAC_NAME>
5-[(E)-2-[4-hydroxy-3-[(1E)-3-methylbuta-1,3-dienyl]phenyl]ethenyl]benzene-1,3-diol

>  <PUBCHEM_IUPAC_SYSTEMATIC_NAME>
5-[(E)-2-[3-[(1E)-3-methylbuta-1,3-dienyl]-4-oxidanyl-phenyl]ethenyl]benzene-1,3-diol

>  <PUBCHEM_IUPAC_TRADITIONAL_NAME>
5-[(E)-2-[4-hydroxy-3-[(1E)-3-methylbuta-1,3-dienyl]phenyl]vinyl]resorcinol

>  <PUBCHEM_IUPAC_INCHI>
InChI=1S/C19H18O3/c1-13(2)3-7-16-9-14(6-8-19(16)22)4-5-15-10-17(20)12-18(21)11-15/h3-12,20-22H,1H2,2H3/b5-4+,7-3+

>  <PUBCHEM_IUPAC_INCHIKEY>
MNTCXQWBUINPSP-JLVHPEPXSA-N

>  <PUBCHEM_XLOGP3_AA>
5.2

>  <PUBCHEM_EXACT_MASS>
294.126

>  <PUBCHEM_MOLECULAR_FORMULA>
C19H18O3

>  <PUBCHEM_MOLECULAR_WEIGHT>
294.35

>  <PUBCHEM_OPENEYE_CAN_SMILES>
CC(=C)C=CC1=C(C=CC(=C1)C=CC2=CC(=CC(=C2)O)O)O

>  <PUBCHEM_OPENEYE_ISO_SMILES>
CC(=C)/C=C/C1=C(C=CC(=C1)/C=C/C2=CC(=CC(=C2)O)O)O

>  <PUBCHEM_CACTVS_TPSA>
60.7

>  <PUBCHEM_MONOISOTOPIC_WEIGHT>
294.126

>  <PUBCHEM_TOTAL_CHARGE>
0

>  <PUBCHEM_HEAVY_ATOM_COUNT>
22

>  <PUBCHEM_ATOM_DEF_STEREO_COUNT>
0

>  <PUBCHEM_ATOM_UDEF_STEREO_COUNT>
0

>  <PUBCHEM_BOND_DEF_STEREO_COUNT>
2

>  <PUBCHEM_BOND_UDEF_STEREO_COUNT>
0

>  <PUBCHEM_ISOTOPIC_ATOM_COUNT>
0

>  <PUBCHEM_COMPONENT_COUNT>
1

>  <PUBCHEM_CACTVS_TAUTO_COUNT>
35

>  <PUBCHEM_COORDINATE_TYPE>
1
5
255

>  <PUBCHEM_BONDANNOTATIONS>
10  14  8
10  15  8
14  17  8
15  16  8
16  18  8
17  18  8
4  6  8
4  9  8
5  6  8
5  7  8
7  12  8
9  12  8

$$$$
