14057245
 OpenBabel06101807152D

 49 53  0  0  1  0  0  0  0  0999 V2000
    5.5162    1.0406    0.0000 O   0  0  0  0  0  0  0  0  0  0  0  0
    4.7902   -2.3392    0.0000 O   0  0  0  0  0  0  0  0  0  0  0  0
    8.4608   -0.0601    0.0000 O   0  0  0  0  0  0  0  0  0  0  0  0
    7.9380    1.5971    0.0000 O   0  0  0  0  0  0  0  0  0  0  0  0
    4.4394    2.2690    0.0000 O   0  0  0  0  0  0  0  0  0  0  0  0
    6.1653    2.1234    0.0000 O   0  0  0  0  0  0  0  0  0  0  0  0
    4.4481    0.1523    0.0000 C   0  0  3  0  0  0  0  0  0  0  0  0
    5.6621   -0.6933    0.0000 C   0  0  3  0  0  0  0  0  0  0  0  0
    4.7500   -0.7149    0.0000 C   0  0  3  0  0  0  0  0  0  0  0  0
    5.9251    0.1807    0.0000 C   0  0  3  0  0  0  0  0  0  0  0  0
    5.1763    0.7015    0.0000 C   0  0  3  0  0  0  0  0  0  0  0  0
    6.8424    0.3967    0.0000 C   0  0  3  0  0  0  0  0  0  0  0  0
    3.7521   -0.6801    0.0000 C   0  0  0  0  0  0  0  0  0  0  0  0
    4.2598   -1.4914    0.0000 C   0  0  3  0  0  0  0  0  0  0  0  0
    3.5812    0.4569    0.0000 C   0  0  0  0  0  0  0  0  0  0  0  0
    2.6992   -0.9427    0.0000 C   0  0  3  0  0  0  0  0  0  0  0  0
    6.2999   -1.4079    0.0000 C   0  0  0  0  0  0  0  0  0  0  0  0
    3.3475   -1.5927    0.0000 C   0  0  0  0  0  0  0  0  0  0  0  0
    7.4875   -0.2895    0.0000 C   0  0  3  0  0  0  0  0  0  0  0  0
    2.8036   -0.0301    0.0000 C   0  0  0  0  0  0  0  0  0  0  0  0
    7.2160   -1.1921    0.0000 C   0  0  0  0  0  0  0  0  0  0  0  0
    7.1072    1.0406    0.0000 C   0  0  0  0  0  0  0  0  0  0  0  0
    5.2603    1.6980    0.0000 C   0  0  0  0  0  0  0  0  0  0  0  0
    7.8258    0.5779    0.0000 C   0  0  0  0  0  0  0  0  0  0  0  0
    2.0000    0.5650    0.0000 C   0  0  0  0  0  0  0  0  0  0  0  0
    5.0558   -1.2543    0.0000 H   0  0  0  0  0  0  0  0  0  0  0  0
    6.0411    0.7897    0.0000 H   0  0  0  0  0  0  0  0  0  0  0  0
    4.6335    1.0011    0.0000 H   0  0  0  0  0  0  0  0  0  0  0  0
    3.7092   -1.2986    0.0000 H   0  0  0  0  0  0  0  0  0  0  0  0
    4.3272   -0.9117    0.0000 H   0  0  0  0  0  0  0  0  0  0  0  0
    3.9898   -2.0496    0.0000 H   0  0  0  0  0  0  0  0  0  0  0  0
    3.9118    0.9815    0.0000 H   0  0  0  0  0  0  0  0  0  0  0  0
    3.1434    0.8960    0.0000 H   0  0  0  0  0  0  0  0  0  0  0  0
    2.1137   -1.1466    0.0000 H   0  0  0  0  0  0  0  0  0  0  0  0
    5.7755   -1.7388    0.0000 H   0  0  0  0  0  0  0  0  0  0  0  0
    6.5396   -1.9796    0.0000 H   0  0  0  0  0  0  0  0  0  0  0  0
    2.8220   -1.9218    0.0000 H   0  0  0  0  0  0  0  0  0  0  0  0
    3.5514   -2.1782    0.0000 H   0  0  0  0  0  0  0  0  0  0  0  0
    7.9124   -0.7410    0.0000 H   0  0  0  0  0  0  0  0  0  0  0  0
    7.2512   -1.8111    0.0000 H   0  0  0  0  0  0  0  0  0  0  0  0
    7.8318   -1.2649    0.0000 H   0  0  0  0  0  0  0  0  0  0  0  0
    7.9382   -0.0319    0.0000 H   0  0  0  0  0  0  0  0  0  0  0  0
    8.4356    0.6902    0.0000 H   0  0  0  0  0  0  0  0  0  0  0  0
    7.7135    1.1876    0.0000 H   0  0  0  0  0  0  0  0  0  0  0  0
    4.4995   -2.8868    0.0000 H   0  0  0  0  0  0  0  0  0  0  0  0
    2.0704    1.1810    0.0000 H   0  0  0  0  0  0  0  0  0  0  0  0
    1.4313    0.3181    0.0000 H   0  0  0  0  0  0  0  0  0  0  0  0
    8.8858   -0.5115    0.0000 H   0  0  0  0  0  0  0  0  0  0  0  0
    4.4915    2.8868    0.0000 H   0  0  0  0  0  0  0  0  0  0  0  0
  1  8  1  0  0  0  0
  1 22  1  0  0  0  0
  2 14  1  0  0  0  0
  2 45  1  0  0  0  0
  3 19  1  0  0  0  0
  3 48  1  0  0  0  0
  4 22  2  0  0  0  0
  5 23  1  0  0  0  0
  5 49  1  0  0  0  0
  6 23  2  0  0  0  0
  7  9  1  0  0  0  0
  7 11  1  0  0  0  0
  7 13  1  0  0  0  0
  7 15  1  0  0  0  0
  8  9  1  0  0  0  0
  8 10  1  0  0  0  0
  8 17  1  0  0  0  0
  9 14  1  0  0  0  0
  9 26  1  0  0  0  0
 10 11  1  0  0  0  0
 10 12  1  0  0  0  0
 10 27  1  0  0  0  0
 11 23  1  0  0  0  0
 11 28  1  0  0  0  0
 12 19  1  0  0  0  0
 12 22  1  0  0  0  0
 12 24  1  0  0  0  0
 13 16  1  0  0  0  0
 13 29  1  0  0  0  0
 13 30  1  0  0  0  0
 14 18  1  0  0  0  0
 14 31  1  0  0  0  0
 15 20  1  0  0  0  0
 15 32  1  0  0  0  0
 15 33  1  0  0  0  0
 16 18  1  0  0  0  0
 16 20  1  0  0  0  0
 16 34  1  0  0  0  0
 17 21  1  0  0  0  0
 17 35  1  0  0  0  0
 17 36  1  0  0  0  0
 18 37  1  0  0  0  0
 18 38  1  0  0  0  0
 19 21  1  0  0  0  0
 19 39  1  0  0  0  0
 20 25  2  0  0  0  0
 21 40  1  0  0  0  0
 21 41  1  0  0  0  0
 24 42  1  0  0  0  0
 24 43  1  0  0  0  0
 24 44  1  0  0  0  0
 25 46  1  0  0  0  0
 25 47  1  0  0  0  0
M  END
>  <PUBCHEM_COMPOUND_CID>
14057245

>  <PUBCHEM_COMPOUND_CANONICALIZED>
1

>  <PUBCHEM_CACTVS_COMPLEXITY>
717

>  <PUBCHEM_CACTVS_HBOND_ACCEPTOR>
6

>  <PUBCHEM_CACTVS_HBOND_DONOR>
3

>  <PUBCHEM_CACTVS_ROTATABLE_BOND>
1

>  <PUBCHEM_CACTVS_SUBSKEYS>
AAADceB4OAAAAAAAAAAAAAAAAAAAAaMEAAAwYAAABogSAGDAAAAAGgAACAAAD1SggAICCAAABgCIAgDSCAAAAAAgAAAAAAEAAAgAEBYAAQACQAAFoAAAAAHK7vzPgAAAAAAAAADCAAYAADAAAYAADAAAAA==

>  <PUBCHEM_IUPAC_INCHI>
InChI=1S/C19H24O6/c1-8-6-18-7-9(8)5-10(20)13(18)19-4-3-11(21)17(2,16(24)25-19)14(19)12(18)15(22)23/h9-14,20-21H,1,3-7H2,2H3,(H,22,23)

>  <PUBCHEM_IUPAC_INCHIKEY>
NYLKJADFYRJQOI-UHFFFAOYSA-N

>  <PUBCHEM_XLOGP3_AA>
0.5

>  <PUBCHEM_EXACT_MASS>
348.157

>  <PUBCHEM_MOLECULAR_FORMULA>
C19H24O6

>  <PUBCHEM_MOLECULAR_WEIGHT>
348.395

>  <PUBCHEM_OPENEYE_CAN_SMILES>
CC12C(CCC3(C1C(C45C3C(CC(C4)C(=C)C5)O)C(=O)O)OC2=O)O

>  <PUBCHEM_OPENEYE_ISO_SMILES>
CC12C(CCC3(C1C(C45C3C(CC(C4)C(=C)C5)O)C(=O)O)OC2=O)O

>  <PUBCHEM_CACTVS_TPSA>
104

>  <PUBCHEM_MONOISOTOPIC_WEIGHT>
348.157

>  <PUBCHEM_TOTAL_CHARGE>
0

>  <PUBCHEM_HEAVY_ATOM_COUNT>
25

>  <PUBCHEM_ATOM_DEF_STEREO_COUNT>
0

>  <PUBCHEM_ATOM_UDEF_STEREO_COUNT>
9

>  <PUBCHEM_BOND_DEF_STEREO_COUNT>
0

>  <PUBCHEM_BOND_UDEF_STEREO_COUNT>
0

>  <PUBCHEM_ISOTOPIC_ATOM_COUNT>
0

>  <PUBCHEM_COMPONENT_COUNT>
1

>  <PUBCHEM_CACTVS_TAUTO_COUNT>
1

>  <PUBCHEM_COORDINATE_TYPE>
1
5
255

>  <PUBCHEM_BONDANNOTATIONS>
10  11  3
11  23  3
12  24  3
16  13  3
14  2  3
19  3  3
7  13  3
8  17  3
9  14  3

$$$$
