14060453
 OpenBabel06101807152D

103105  0  0  1  0  0  0  0  0999 V2000
    7.7331    0.5950    0.0000 O   0  0  0  0  0  0  0  0  0  0  0  0
    6.0010    0.5950    0.0000 O   0  0  0  0  0  0  0  0  0  0  0  0
    4.2690   -1.4050    0.0000 O   0  0  0  0  0  0  0  0  0  0  0  0
    8.5991    3.0950    0.0000 O   0  0  0  0  0  0  0  0  0  0  0  0
    9.4651    1.5950    0.0000 O   0  0  0  0  0  0  0  0  0  0  0  0
    5.1350   -2.9050    0.0000 O   0  0  0  0  0  0  0  0  0  0  0  0
    6.0010   -2.4050    0.0000 O   0  0  0  0  0  0  0  0  0  0  0  0
    7.7331   -1.4050    0.0000 O   0  0  0  0  0  0  0  0  0  0  0  0
    6.0010    1.5950    0.0000 O   0  0  0  0  0  0  0  0  0  0  0  0
    6.0010    3.5950    0.0000 O   0  0  0  0  0  0  0  0  0  0  0  0
    2.5369   -2.4050    0.0000 O   0  0  0  0  0  0  0  0  0  0  0  0
    2.5369   -4.4050    0.0000 O   0  0  0  0  0  0  0  0  0  0  0  0
    4.2690   -5.4050    0.0000 O   0  0  0  0  0  0  0  0  0  0  0  0
    8.5991    5.0950    0.0000 O   0  0  0  0  0  0  0  0  0  0  0  0
    5.1350   -0.9050    0.0000 C   0  0  3  0  0  0  0  0  0  0  0  0
    7.7331    1.5950    0.0000 C   0  0  3  0  0  0  0  0  0  0  0  0
    6.0010   -1.4050    0.0000 C   0  0  3  0  0  0  0  0  0  0  0  0
    6.8671   -0.9050    0.0000 C   0  0  3  0  0  0  0  0  0  0  0  0
    6.8671    0.0950    0.0000 C   0  0  3  0  0  0  0  0  0  0  0  0
    5.1350    0.0950    0.0000 C   0  0  3  0  0  0  0  0  0  0  0  0
    6.8671    2.0950    0.0000 C   0  0  3  0  0  0  0  0  0  0  0  0
    8.5991    2.0950    0.0000 C   0  0  3  0  0  0  0  0  0  0  0  0
    6.8671    3.0950    0.0000 C   0  0  3  0  0  0  0  0  0  0  0  0
    7.7331    3.5950    0.0000 C   0  0  3  0  0  0  0  0  0  0  0  0
    4.2690   -2.4050    0.0000 C   0  0  3  0  0  0  0  0  0  0  0  0
    3.4030   -2.9050    0.0000 C   0  0  3  0  0  0  0  0  0  0  0  0
    3.4030   -3.9050    0.0000 C   0  0  3  0  0  0  0  0  0  0  0  0
    4.2690   -4.4050    0.0000 C   0  0  3  0  0  0  0  0  0  0  0  0
    5.1350   -3.9050    0.0000 C   0  0  3  0  0  0  0  0  0  0  0  0
    4.2690    0.5950    0.0000 C   0  0  0  0  0  0  0  0  0  0  0  0
   10.3312    2.0950    0.0000 C   0  0  3  0  0  0  0  0  0  0  0  0
    7.7331    4.5950    0.0000 C   0  0  0  0  0  0  0  0  0  0  0  0
   11.1972    2.5950    0.0000 C   0  0  0  0  0  0  0  0  0  0  0  0
    6.0010   -4.4050    0.0000 C   0  0  0  0  0  0  0  0  0  0  0  0
    9.8312    2.9610    0.0000 C   0  0  0  0  0  0  0  0  0  0  0  0
   10.8312    1.2290    0.0000 C   0  0  0  0  0  0  0  0  0  0  0  0
   12.0632    2.0950    0.0000 C   0  0  0  0  0  0  0  0  0  0  0  0
   12.9292    2.5950    0.0000 C   0  0  0  0  0  0  0  0  0  0  0  0
   10.3312    0.3629    0.0000 C   0  0  0  0  0  0  0  0  0  0  0  0
   13.7953    2.0950    0.0000 C   0  0  0  0  0  0  0  0  0  0  0  0
   14.6613    2.5950    0.0000 C   0  0  0  0  0  0  0  0  0  0  0  0
   13.7953    1.0950    0.0000 C   0  0  0  0  0  0  0  0  0  0  0  0
   15.5273    2.0950    0.0000 C   0  0  0  0  0  0  0  0  0  0  0  0
   16.3933    2.5950    0.0000 C   0  0  0  0  0  0  0  0  0  0  0  0
   17.2594    2.0950    0.0000 C   0  0  0  0  0  0  0  0  0  0  0  0
   18.1254    2.5950    0.0000 C   0  0  0  0  0  0  0  0  0  0  0  0
   17.2594    1.0950    0.0000 C   0  0  0  0  0  0  0  0  0  0  0  0
    5.1350   -1.5250    0.0000 H   0  0  0  0  0  0  0  0  0  0  0  0
    7.1962    1.2850    0.0000 H   0  0  0  0  0  0  0  0  0  0  0  0
    6.5380   -1.7150    0.0000 H   0  0  0  0  0  0  0  0  0  0  0  0
    7.4040   -0.5950    0.0000 H   0  0  0  0  0  0  0  0  0  0  0  0
    6.8671    0.7150    0.0000 H   0  0  0  0  0  0  0  0  0  0  0  0
    5.1350    0.7150    0.0000 H   0  0  0  0  0  0  0  0  0  0  0  0
    6.3301    2.4050    0.0000 H   0  0  0  0  0  0  0  0  0  0  0  0
    8.5991    1.4750    0.0000 H   0  0  0  0  0  0  0  0  0  0  0  0
    6.8671    3.7150    0.0000 H   0  0  0  0  0  0  0  0  0  0  0  0
    8.2700    3.9050    0.0000 H   0  0  0  0  0  0  0  0  0  0  0  0
    3.7320   -2.0950    0.0000 H   0  0  0  0  0  0  0  0  0  0  0  0
    3.9399   -3.2150    0.0000 H   0  0  0  0  0  0  0  0  0  0  0  0
    2.8660   -3.5950    0.0000 H   0  0  0  0  0  0  0  0  0  0  0  0
    4.8059   -4.7150    0.0000 H   0  0  0  0  0  0  0  0  0  0  0  0
    5.6720   -3.5950    0.0000 H   0  0  0  0  0  0  0  0  0  0  0  0
    4.5790    1.1319    0.0000 H   0  0  0  0  0  0  0  0  0  0  0  0
    3.7320    0.9050    0.0000 H   0  0  0  0  0  0  0  0  0  0  0  0
    3.9590    0.0581    0.0000 H   0  0  0  0  0  0  0  0  0  0  0  0
    7.5210    5.1776    0.0000 H   0  0  0  0  0  0  0  0  0  0  0  0
    7.1225    4.4873    0.0000 H   0  0  0  0  0  0  0  0  0  0  0  0
    6.5380   -2.7150    0.0000 H   0  0  0  0  0  0  0  0  0  0  0  0
    8.2700   -1.0950    0.0000 H   0  0  0  0  0  0  0  0  0  0  0  0
    5.4641    1.9050    0.0000 H   0  0  0  0  0  0  0  0  0  0  0  0
   11.5957    3.0700    0.0000 H   0  0  0  0  0  0  0  0  0  0  0  0
   10.7987    3.0700    0.0000 H   0  0  0  0  0  0  0  0  0  0  0  0
    6.0010    4.2150    0.0000 H   0  0  0  0  0  0  0  0  0  0  0  0
    5.6910   -4.9419    0.0000 H   0  0  0  0  0  0  0  0  0  0  0  0
    6.5380   -4.7150    0.0000 H   0  0  0  0  0  0  0  0  0  0  0  0
    6.3110   -3.8681    0.0000 H   0  0  0  0  0  0  0  0  0  0  0  0
   10.3681    3.2710    0.0000 H   0  0  0  0  0  0  0  0  0  0  0  0
    9.5212    3.4980    0.0000 H   0  0  0  0  0  0  0  0  0  0  0  0
    9.2942    2.6510    0.0000 H   0  0  0  0  0  0  0  0  0  0  0  0
    2.0000   -2.7150    0.0000 H   0  0  0  0  0  0  0  0  0  0  0  0
    2.5369   -5.0250    0.0000 H   0  0  0  0  0  0  0  0  0  0  0  0
   11.4512    1.2290    0.0000 H   0  0  0  0  0  0  0  0  0  0  0  0
    4.8059   -5.7150    0.0000 H   0  0  0  0  0  0  0  0  0  0  0  0
   11.6647    1.6200    0.0000 H   0  0  0  0  0  0  0  0  0  0  0  0
   12.4617    1.6200    0.0000 H   0  0  0  0  0  0  0  0  0  0  0  0
    8.5991    5.7150    0.0000 H   0  0  0  0  0  0  0  0  0  0  0  0
   12.9292    3.2150    0.0000 H   0  0  0  0  0  0  0  0  0  0  0  0
    9.7112    0.3629    0.0000 H   0  0  0  0  0  0  0  0  0  0  0  0
   10.6412   -0.1740    0.0000 H   0  0  0  0  0  0  0  0  0  0  0  0
   15.0598    3.0700    0.0000 H   0  0  0  0  0  0  0  0  0  0  0  0
   14.2628    3.0700    0.0000 H   0  0  0  0  0  0  0  0  0  0  0  0
   13.1753    1.0950    0.0000 H   0  0  0  0  0  0  0  0  0  0  0  0
   13.7953    0.4750    0.0000 H   0  0  0  0  0  0  0  0  0  0  0  0
   14.4153    1.0950    0.0000 H   0  0  0  0  0  0  0  0  0  0  0  0
   15.1288    1.6200    0.0000 H   0  0  0  0  0  0  0  0  0  0  0  0
   15.9258    1.6200    0.0000 H   0  0  0  0  0  0  0  0  0  0  0  0
   16.3933    3.2150    0.0000 H   0  0  0  0  0  0  0  0  0  0  0  0
   18.4354    2.0581    0.0000 H   0  0  0  0  0  0  0  0  0  0  0  0
   18.6623    2.9050    0.0000 H   0  0  0  0  0  0  0  0  0  0  0  0
   17.8154    3.1319    0.0000 H   0  0  0  0  0  0  0  0  0  0  0  0
   16.6394    1.0950    0.0000 H   0  0  0  0  0  0  0  0  0  0  0  0
   17.2594    0.4750    0.0000 H   0  0  0  0  0  0  0  0  0  0  0  0
   17.8794    1.0950    0.0000 H   0  0  0  0  0  0  0  0  0  0  0  0
  1 16  1  0  0  0  0
  1 19  1  0  0  0  0
  2 19  1  0  0  0  0
  2 20  1  0  0  0  0
  3 15  1  0  0  0  0
  3 25  1  0  0  0  0
  4 22  1  0  0  0  0
  4 24  1  0  0  0  0
  5 22  1  0  0  0  0
  5 31  1  0  0  0  0
  6 25  1  0  0  0  0
  6 29  1  0  0  0  0
  7 17  1  0  0  0  0
  7 68  1  0  0  0  0
  8 18  1  0  0  0  0
  8 69  1  0  0  0  0
  9 21  1  0  0  0  0
  9 70  1  0  0  0  0
 10 23  1  0  0  0  0
 10 73  1  0  0  0  0
 11 26  1  0  0  0  0
 11 80  1  0  0  0  0
 12 27  1  0  0  0  0
 12 81  1  0  0  0  0
 13 28  1  0  0  0  0
 13 83  1  0  0  0  0
 14 32  1  0  0  0  0
 14 86  1  0  0  0  0
 15 17  1  0  0  0  0
 15 20  1  0  0  0  0
 15 48  1  0  0  0  0
 16 21  1  0  0  0  0
 16 22  1  0  0  0  0
 16 49  1  0  0  0  0
 17 18  1  0  0  0  0
 17 50  1  0  0  0  0
 18 19  1  0  0  0  0
 18 51  1  0  0  0  0
 19 52  1  0  0  0  0
 20 30  1  0  0  0  0
 20 53  1  0  0  0  0
 21 23  1  0  0  0  0
 21 54  1  0  0  0  0
 22 55  1  0  0  0  0
 23 24  1  0  0  0  0
 23 56  1  0  0  0  0
 24 32  1  0  0  0  0
 24 57  1  0  0  0  0
 25 26  1  0  0  0  0
 25 58  1  0  0  0  0
 26 27  1  0  0  0  0
 26 59  1  0  0  0  0
 27 28  1  0  0  0  0
 27 60  1  0  0  0  0
 28 29  1  0  0  0  0
 28 61  1  0  0  0  0
 29 34  1  0  0  0  0
 29 62  1  0  0  0  0
 30 63  1  0  0  0  0
 30 64  1  0  0  0  0
 30 65  1  0  0  0  0
 31 33  1  0  0  0  0
 31 35  1  0  0  0  0
 31 36  1  0  0  0  0
 32 66  1  0  0  0  0
 32 67  1  0  0  0  0
 33 37  1  0  0  0  0
 33 71  1  0  0  0  0
 33 72  1  0  0  0  0
 34 74  1  0  0  0  0
 34 75  1  0  0  0  0
 34 76  1  0  0  0  0
 35 77  1  0  0  0  0
 35 78  1  0  0  0  0
 35 79  1  0  0  0  0
 36 39  2  0  0  0  0
 36 82  1  0  0  0  0
 37 38  1  0  0  0  0
 37 84  1  0  0  0  0
 37 85  1  0  0  0  0
 38 40  2  0  0  0  0
 38 87  1  0  0  0  0
 39 88  1  0  0  0  0
 39 89  1  0  0  0  0
 40 41  1  0  0  0  0
 40 42  1  0  0  0  0
 41 43  1  0  0  0  0
 41 90  1  0  0  0  0
 41 91  1  0  0  0  0
 42 92  1  0  0  0  0
 42 93  1  0  0  0  0
 42 94  1  0  0  0  0
 43 44  1  0  0  0  0
 43 95  1  0  0  0  0
 43 96  1  0  0  0  0
 44 45  2  0  0  0  0
 44 97  1  0  0  0  0
 45 46  1  0  0  0  0
 45 47  1  0  0  0  0
 46 98  1  0  0  0  0
 46 99  1  0  0  0  0
 46100  1  0  0  0  0
 47101  1  0  0  0  0
 47102  1  0  0  0  0
 47103  1  0  0  0  0
M  END
>  <PUBCHEM_COMPOUND_CID>
14060453

>  <PUBCHEM_COMPOUND_CANONICALIZED>
1

>  <PUBCHEM_CACTVS_COMPLEXITY>
1050

>  <PUBCHEM_CACTVS_HBOND_ACCEPTOR>
14

>  <PUBCHEM_CACTVS_HBOND_DONOR>
8

>  <PUBCHEM_CACTVS_ROTATABLE_BOND>
14

>  <PUBCHEM_CACTVS_SUBSKEYS>
AAADcfB8PAAAAAAAAAAAAAAAAAAAAAAAAAAkSJAAAAAAAAAAAAAAGgAACAAADFSwgAMCCAAABgCAAiBCAAAAAAAgAAAICAAAAAgRFAIAIQAiQAAFgAAPIAPAYAwMAAAAAAAAAAAAAAAAAAAAAAAAAAAAAA==

>  <PUBCHEM_IUPAC_OPENEYE_NAME>
2-[6-[4,5-dihydroxy-6-(hydroxymethyl)-2-[(4E)-1,5,9-trimethyl-1-vinyl-deca-4,8-dienoxy]tetrahydropyran-3-yl]oxy-4,5-dihydroxy-2-methyl-tetrahydropyran-3-yl]oxy-6-methyl-tetrahydropyran-3,4,5-triol

>  <PUBCHEM_IUPAC_CAS_NAME>
2-[[6-[[4,5-dihydroxy-6-(hydroxymethyl)-2-[(6E)-3,7,11-trimethyldodeca-1,6,10-trien-3-yl]oxy-3-oxanyl]oxy]-4,5-dihydroxy-2-methyl-3-oxanyl]oxy]-6-methyloxane-3,4,5-triol

>  <PUBCHEM_IUPAC_NAME>
2-[6-[4,5-dihydroxy-6-(hydroxymethyl)-2-[(6E)-3,7,11-trimethyldodeca-1,6,10-trien-3-yl]oxyoxan-3-yl]oxy-4,5-dihydroxy-2-methyloxan-3-yl]oxy-6-methyloxane-3,4,5-triol

>  <PUBCHEM_IUPAC_SYSTEMATIC_NAME>
2-[6-[6-(hydroxymethyl)-4,5-bis(oxidanyl)-2-[(6E)-3,7,11-trimethyldodeca-1,6,10-trien-3-yl]oxy-oxan-3-yl]oxy-2-methyl-4,5-bis(oxidanyl)oxan-3-yl]oxy-6-methyl-oxane-3,4,5-triol

>  <PUBCHEM_IUPAC_TRADITIONAL_NAME>
2-[6-[4,5-dihydroxy-6-methylol-2-[(4E)-1,5,9-trimethyl-1-vinyl-deca-4,8-dienoxy]tetrahydropyran-3-yl]oxy-4,5-dihydroxy-2-methyl-tetrahydropyran-3-yl]oxy-6-methyl-tetrahydropyran-3,4,5-triol

>  <PUBCHEM_IUPAC_INCHI>
InChI=1S/C33H56O14/c1-8-33(7,14-10-13-17(4)12-9-11-16(2)3)47-32-29(24(38)22(36)20(15-34)44-32)46-31-27(41)25(39)28(19(6)43-31)45-30-26(40)23(37)21(35)18(5)42-30/h8,11,13,18-32,34-41H,1,9-10,12,14-15H2,2-7H3/b17-13+

>  <PUBCHEM_IUPAC_INCHIKEY>
NLQYAUOYHNMEPR-GHRIWEEISA-N

>  <PUBCHEM_XLOGP3_AA>
0.8

>  <PUBCHEM_EXACT_MASS>
676.367

>  <PUBCHEM_MOLECULAR_FORMULA>
C33H56O14

>  <PUBCHEM_MOLECULAR_WEIGHT>
676.797

>  <PUBCHEM_OPENEYE_CAN_SMILES>
CC1C(C(C(C(O1)OC2C(OC(C(C2O)O)OC3C(C(C(OC3OC(C)(CCC=C(C)CCC=C(C)C)C=C)CO)O)O)C)O)O)O

>  <PUBCHEM_OPENEYE_ISO_SMILES>
CC1C(C(C(C(O1)OC2C(OC(C(C2O)O)OC3C(C(C(OC3OC(C)(CC/C=C(\C)/CCC=C(C)C)C=C)CO)O)O)C)O)O)O

>  <PUBCHEM_CACTVS_TPSA>
217

>  <PUBCHEM_MONOISOTOPIC_WEIGHT>
676.367

>  <PUBCHEM_TOTAL_CHARGE>
0

>  <PUBCHEM_HEAVY_ATOM_COUNT>
47

>  <PUBCHEM_ATOM_DEF_STEREO_COUNT>
0

>  <PUBCHEM_ATOM_UDEF_STEREO_COUNT>
16

>  <PUBCHEM_BOND_DEF_STEREO_COUNT>
1

>  <PUBCHEM_BOND_UDEF_STEREO_COUNT>
0

>  <PUBCHEM_ISOTOPIC_ATOM_COUNT>
0

>  <PUBCHEM_COMPONENT_COUNT>
1

>  <PUBCHEM_CACTVS_TAUTO_COUNT>
1

>  <PUBCHEM_COORDINATE_TYPE>
1
5
255

>  <PUBCHEM_BONDANNOTATIONS>
16  1  3
19  1  3
23  10  3
26  11  3
27  12  3
28  13  3
20  30  3
24  32  3
29  34  3
15  3  3
25  3  3
31  35  3
22  5  3
17  7  3
18  8  3
21  9  3

$$$$
