14060449
 OpenBabel06101807152D

 83 84  0  0  1  0  0  0  0  0999 V2000
    6.3301   -4.3450    0.0000 O   0  0  0  0  0  0  0  0  0  0  0  0
    4.5981   -2.3450    0.0000 O   0  0  0  0  0  0  0  0  0  0  0  0
    7.1962   -2.8450    0.0000 O   0  0  0  0  0  0  0  0  0  0  0  0
    6.3301   -2.3450    0.0000 O   0  0  0  0  0  0  0  0  0  0  0  0
    4.5981   -5.3450    0.0000 O   0  0  0  0  0  0  0  0  0  0  0  0
    2.8660   -4.3450    0.0000 O   0  0  0  0  0  0  0  0  0  0  0  0
    8.0622   -5.3450    0.0000 O   0  0  0  0  0  0  0  0  0  0  0  0
    9.7942   -4.3450    0.0000 O   0  0  0  0  0  0  0  0  0  0  0  0
    9.7942   -2.3450    0.0000 O   0  0  0  0  0  0  0  0  0  0  0  0
    2.8660   -1.3450    0.0000 O   0  0  0  0  0  0  0  0  0  0  0  0
    5.4641   -3.8450    0.0000 C   0  0  3  0  0  0  0  0  0  0  0  0
    4.5981   -4.3450    0.0000 C   0  0  3  0  0  0  0  0  0  0  0  0
    5.4641   -2.8450    0.0000 C   0  0  3  0  0  0  0  0  0  0  0  0
    3.7320   -3.8450    0.0000 C   0  0  3  0  0  0  0  0  0  0  0  0
    3.7320   -2.8450    0.0000 C   0  0  3  0  0  0  0  0  0  0  0  0
    7.1962   -3.8450    0.0000 C   0  0  3  0  0  0  0  0  0  0  0  0
    8.0622   -4.3450    0.0000 C   0  0  3  0  0  0  0  0  0  0  0  0
    8.9282   -3.8450    0.0000 C   0  0  3  0  0  0  0  0  0  0  0  0
    8.9282   -2.8450    0.0000 C   0  0  3  0  0  0  0  0  0  0  0  0
    8.0622   -2.3450    0.0000 C   0  0  3  0  0  0  0  0  0  0  0  0
    6.3301   -1.3450    0.0000 C   0  0  3  0  0  0  0  0  0  0  0  0
    2.8660   -2.3450    0.0000 C   0  0  0  0  0  0  0  0  0  0  0  0
    6.3301   -0.3450    0.0000 C   0  0  0  0  0  0  0  0  0  0  0  0
    8.0622   -1.3450    0.0000 C   0  0  0  0  0  0  0  0  0  0  0  0
    5.3301   -1.3450    0.0000 C   0  0  0  0  0  0  0  0  0  0  0  0
    7.3301   -1.3450    0.0000 C   0  0  0  0  0  0  0  0  0  0  0  0
    5.4641    0.1550    0.0000 C   0  0  0  0  0  0  0  0  0  0  0  0
    5.4641    1.1550    0.0000 C   0  0  0  0  0  0  0  0  0  0  0  0
    7.8301   -0.4790    0.0000 C   0  0  0  0  0  0  0  0  0  0  0  0
    4.5981    1.6550    0.0000 C   0  0  0  0  0  0  0  0  0  0  0  0
    4.5981    2.6550    0.0000 C   0  0  0  0  0  0  0  0  0  0  0  0
    3.7320    1.1550    0.0000 C   0  0  0  0  0  0  0  0  0  0  0  0
    3.7320    3.1550    0.0000 C   0  0  0  0  0  0  0  0  0  0  0  0
    3.7320    4.1550    0.0000 C   0  0  0  0  0  0  0  0  0  0  0  0
    2.8660    4.6550    0.0000 C   0  0  0  0  0  0  0  0  0  0  0  0
    2.8660    5.6550    0.0000 C   0  0  0  0  0  0  0  0  0  0  0  0
    2.0000    4.1550    0.0000 C   0  0  0  0  0  0  0  0  0  0  0  0
    5.4641   -4.4650    0.0000 H   0  0  0  0  0  0  0  0  0  0  0  0
    4.0611   -4.6550    0.0000 H   0  0  0  0  0  0  0  0  0  0  0  0
    5.4641   -2.2250    0.0000 H   0  0  0  0  0  0  0  0  0  0  0  0
    3.1951   -3.5350    0.0000 H   0  0  0  0  0  0  0  0  0  0  0  0
    3.7320   -2.2250    0.0000 H   0  0  0  0  0  0  0  0  0  0  0  0
    7.1962   -4.4650    0.0000 H   0  0  0  0  0  0  0  0  0  0  0  0
    8.5991   -4.6550    0.0000 H   0  0  0  0  0  0  0  0  0  0  0  0
    9.4651   -3.5350    0.0000 H   0  0  0  0  0  0  0  0  0  0  0  0
    8.9282   -2.2250    0.0000 H   0  0  0  0  0  0  0  0  0  0  0  0
    7.5252   -2.0350    0.0000 H   0  0  0  0  0  0  0  0  0  0  0  0
    2.2554   -2.2373    0.0000 H   0  0  0  0  0  0  0  0  0  0  0  0
    2.6540   -2.9276    0.0000 H   0  0  0  0  0  0  0  0  0  0  0  0
    6.9407   -0.4527    0.0000 H   0  0  0  0  0  0  0  0  0  0  0  0
    6.5422    0.2376    0.0000 H   0  0  0  0  0  0  0  0  0  0  0  0
    4.0611   -5.6550    0.0000 H   0  0  0  0  0  0  0  0  0  0  0  0
    8.6822   -1.3450    0.0000 H   0  0  0  0  0  0  0  0  0  0  0  0
    8.0622   -0.7250    0.0000 H   0  0  0  0  0  0  0  0  0  0  0  0
    7.4422   -1.3450    0.0000 H   0  0  0  0  0  0  0  0  0  0  0  0
    2.3291   -4.0350    0.0000 H   0  0  0  0  0  0  0  0  0  0  0  0
    5.3301   -0.7250    0.0000 H   0  0  0  0  0  0  0  0  0  0  0  0
    4.7101   -1.3450    0.0000 H   0  0  0  0  0  0  0  0  0  0  0  0
    5.3301   -1.9650    0.0000 H   0  0  0  0  0  0  0  0  0  0  0  0
    8.5991   -5.6550    0.0000 H   0  0  0  0  0  0  0  0  0  0  0  0
   10.3312   -4.0350    0.0000 H   0  0  0  0  0  0  0  0  0  0  0  0
    7.6401   -1.8819    0.0000 H   0  0  0  0  0  0  0  0  0  0  0  0
    9.7942   -1.7250    0.0000 H   0  0  0  0  0  0  0  0  0  0  0  0
    4.8535    0.2627    0.0000 H   0  0  0  0  0  0  0  0  0  0  0  0
    5.2520   -0.4276    0.0000 H   0  0  0  0  0  0  0  0  0  0  0  0
    2.3291   -1.0350    0.0000 H   0  0  0  0  0  0  0  0  0  0  0  0
    6.0010    1.4650    0.0000 H   0  0  0  0  0  0  0  0  0  0  0  0
    8.4501   -0.4790    0.0000 H   0  0  0  0  0  0  0  0  0  0  0  0
    7.5201    0.0580    0.0000 H   0  0  0  0  0  0  0  0  0  0  0  0
    5.2087    2.5473    0.0000 H   0  0  0  0  0  0  0  0  0  0  0  0
    4.8101    3.2376    0.0000 H   0  0  0  0  0  0  0  0  0  0  0  0
    3.4220    1.6919    0.0000 H   0  0  0  0  0  0  0  0  0  0  0  0
    3.1951    0.8450    0.0000 H   0  0  0  0  0  0  0  0  0  0  0  0
    4.0420    0.6181    0.0000 H   0  0  0  0  0  0  0  0  0  0  0  0
    3.1215    3.2627    0.0000 H   0  0  0  0  0  0  0  0  0  0  0  0
    3.5200    2.5724    0.0000 H   0  0  0  0  0  0  0  0  0  0  0  0
    4.2690    4.4650    0.0000 H   0  0  0  0  0  0  0  0  0  0  0  0
    1.6900    4.6919    0.0000 H   0  0  0  0  0  0  0  0  0  0  0  0
    1.4631    3.8450    0.0000 H   0  0  0  0  0  0  0  0  0  0  0  0
    2.3100    3.6181    0.0000 H   0  0  0  0  0  0  0  0  0  0  0  0
    3.4860    5.6550    0.0000 H   0  0  0  0  0  0  0  0  0  0  0  0
    2.8660    6.2750    0.0000 H   0  0  0  0  0  0  0  0  0  0  0  0
    2.2460    5.6550    0.0000 H   0  0  0  0  0  0  0  0  0  0  0  0
  1 11  1  0  0  0  0
  1 16  1  0  0  0  0
  2 13  1  0  0  0  0
  2 15  1  0  0  0  0
  3 16  1  0  0  0  0
  3 20  1  0  0  0  0
  4 13  1  0  0  0  0
  4 21  1  0  0  0  0
  5 12  1  0  0  0  0
  5 52  1  0  0  0  0
  6 14  1  0  0  0  0
  6 56  1  0  0  0  0
  7 17  1  0  0  0  0
  7 60  1  0  0  0  0
  8 18  1  0  0  0  0
  8 61  1  0  0  0  0
  9 19  1  0  0  0  0
  9 63  1  0  0  0  0
 10 22  1  0  0  0  0
 10 66  1  0  0  0  0
 11 12  1  0  0  0  0
 11 13  1  0  0  0  0
 11 38  1  0  0  0  0
 12 14  1  0  0  0  0
 12 39  1  0  0  0  0
 13 40  1  0  0  0  0
 14 15  1  0  0  0  0
 14 41  1  0  0  0  0
 15 22  1  0  0  0  0
 15 42  1  0  0  0  0
 16 17  1  0  0  0  0
 16 43  1  0  0  0  0
 17 18  1  0  0  0  0
 17 44  1  0  0  0  0
 18 19  1  0  0  0  0
 18 45  1  0  0  0  0
 19 20  1  0  0  0  0
 19 46  1  0  0  0  0
 20 24  1  0  0  0  0
 20 47  1  0  0  0  0
 21 23  1  0  0  0  0
 21 25  1  0  0  0  0
 21 26  1  0  0  0  0
 22 48  1  0  0  0  0
 22 49  1  0  0  0  0
 23 27  1  0  0  0  0
 23 50  1  0  0  0  0
 23 51  1  0  0  0  0
 24 53  1  0  0  0  0
 24 54  1  0  0  0  0
 24 55  1  0  0  0  0
 25 57  1  0  0  0  0
 25 58  1  0  0  0  0
 25 59  1  0  0  0  0
 26 29  2  0  0  0  0
 26 62  1  0  0  0  0
 27 28  1  0  0  0  0
 27 64  1  0  0  0  0
 27 65  1  0  0  0  0
 28 30  2  0  0  0  0
 28 67  1  0  0  0  0
 29 68  1  0  0  0  0
 29 69  1  0  0  0  0
 30 31  1  0  0  0  0
 30 32  1  0  0  0  0
 31 33  1  0  0  0  0
 31 70  1  0  0  0  0
 31 71  1  0  0  0  0
 32 72  1  0  0  0  0
 32 73  1  0  0  0  0
 32 74  1  0  0  0  0
 33 34  1  0  0  0  0
 33 75  1  0  0  0  0
 33 76  1  0  0  0  0
 34 35  2  0  0  0  0
 34 77  1  0  0  0  0
 35 36  1  0  0  0  0
 35 37  1  0  0  0  0
 36 81  1  0  0  0  0
 36 82  1  0  0  0  0
 36 83  1  0  0  0  0
 37 78  1  0  0  0  0
 37 79  1  0  0  0  0
 37 80  1  0  0  0  0
M  END
>  <PUBCHEM_COMPOUND_CID>
14060449

>  <PUBCHEM_COMPOUND_CANONICALIZED>
1

>  <PUBCHEM_CACTVS_COMPLEXITY>
781

>  <PUBCHEM_CACTVS_HBOND_ACCEPTOR>
10

>  <PUBCHEM_CACTVS_HBOND_DONOR>
6

>  <PUBCHEM_CACTVS_ROTATABLE_BOND>
12

>  <PUBCHEM_CACTVS_SUBSKEYS>
AAADcfB4PAAAAAAAAAAAAAAAAAAAAAAAAAAkSAAAAAAAAAAAAAAAGgAACAAADFSwgAMCCAAABgCAAiBCAAAAAAAgAAAICAAAAAgRFAIAIQAiQAAFgAAPIAPAYAwMAAAAAAAAAAAAAAAAAAAAAAAAAAAAAA==

>  <PUBCHEM_IUPAC_OPENEYE_NAME>
2-[4,5-dihydroxy-6-(hydroxymethyl)-2-[(4E)-1,5,9-trimethyl-1-vinyl-deca-4,8-dienoxy]tetrahydropyran-3-yl]oxy-6-methyl-tetrahydropyran-3,4,5-triol

>  <PUBCHEM_IUPAC_CAS_NAME>
2-[[4,5-dihydroxy-6-(hydroxymethyl)-2-[(6E)-3,7,11-trimethyldodeca-1,6,10-trien-3-yl]oxy-3-oxanyl]oxy]-6-methyloxane-3,4,5-triol

>  <PUBCHEM_IUPAC_NAME>
2-[4,5-dihydroxy-6-(hydroxymethyl)-2-[(6E)-3,7,11-trimethyldodeca-1,6,10-trien-3-yl]oxyoxan-3-yl]oxy-6-methyloxane-3,4,5-triol

>  <PUBCHEM_IUPAC_SYSTEMATIC_NAME>
2-[6-(hydroxymethyl)-4,5-bis(oxidanyl)-2-[(6E)-3,7,11-trimethyldodeca-1,6,10-trien-3-yl]oxy-oxan-3-yl]oxy-6-methyl-oxane-3,4,5-triol

>  <PUBCHEM_IUPAC_TRADITIONAL_NAME>
2-[4,5-dihydroxy-6-methylol-2-[(4E)-1,5,9-trimethyl-1-vinyl-deca-4,8-dienoxy]tetrahydropyran-3-yl]oxy-6-methyl-tetrahydropyran-3,4,5-triol

>  <PUBCHEM_IUPAC_INCHI>
InChI=1S/C27H46O10/c1-7-27(6,13-9-12-16(4)11-8-10-15(2)3)37-26-24(22(32)20(30)18(14-28)35-26)36-25-23(33)21(31)19(29)17(5)34-25/h7,10,12,17-26,28-33H,1,8-9,11,13-14H2,2-6H3/b16-12+

>  <PUBCHEM_IUPAC_INCHIKEY>
ATWXTQLIHDYQCP-FOWTUZBSSA-N

>  <PUBCHEM_XLOGP3_AA>
1.9

>  <PUBCHEM_EXACT_MASS>
530.309

>  <PUBCHEM_MOLECULAR_FORMULA>
C27H46O10

>  <PUBCHEM_MOLECULAR_WEIGHT>
530.655

>  <PUBCHEM_OPENEYE_CAN_SMILES>
CC1C(C(C(C(O1)OC2C(C(C(OC2OC(C)(CCC=C(C)CCC=C(C)C)C=C)CO)O)O)O)O)O

>  <PUBCHEM_OPENEYE_ISO_SMILES>
CC1C(C(C(C(O1)OC2C(C(C(OC2OC(C)(CC/C=C(\C)/CCC=C(C)C)C=C)CO)O)O)O)O)O

>  <PUBCHEM_CACTVS_TPSA>
158

>  <PUBCHEM_MONOISOTOPIC_WEIGHT>
530.309

>  <PUBCHEM_TOTAL_CHARGE>
0

>  <PUBCHEM_HEAVY_ATOM_COUNT>
37

>  <PUBCHEM_ATOM_DEF_STEREO_COUNT>
0

>  <PUBCHEM_ATOM_UDEF_STEREO_COUNT>
11

>  <PUBCHEM_BOND_DEF_STEREO_COUNT>
1

>  <PUBCHEM_BOND_UDEF_STEREO_COUNT>
0

>  <PUBCHEM_ISOTOPIC_ATOM_COUNT>
0

>  <PUBCHEM_COMPONENT_COUNT>
1

>  <PUBCHEM_CACTVS_TAUTO_COUNT>
1

>  <PUBCHEM_COORDINATE_TYPE>
1
5
255

>  <PUBCHEM_BONDANNOTATIONS>
11  1  3
16  1  3
15  22  3
20  24  3
21  25  3
13  4  3
12  5  3
14  6  3
17  7  3
18  8  3
19  9  3

$$$$
