14077816
 OpenBabel06101807152D

 34 36  0  0  0  0  0  0  0  0999 V2000
    6.0682   -2.2327    0.0000 O   0  0  0  0  0  0  0  0  0  0  0  0
    6.9343    1.2673    0.0000 O   0  0  0  0  0  0  0  0  0  0  0  0
    2.5381   -2.2568    0.0000 O   0  0  0  0  0  0  0  0  0  0  0  0
   10.3984    1.2673    0.0000 O   0  0  0  0  0  0  0  0  0  0  0  0
    6.9343   -0.7327    0.0000 C   0  0  0  0  0  0  0  0  0  0  0  0
    6.9343   -1.7327    0.0000 C   0  0  0  0  0  0  0  0  0  0  0  0
    7.8003   -0.2327    0.0000 C   0  0  0  0  0  0  0  0  0  0  0  0
    5.2022   -0.7327    0.0000 C   0  0  0  0  0  0  0  0  0  0  0  0
    6.0682   -0.2327    0.0000 C   0  0  0  0  0  0  0  0  0  0  0  0
    5.2022   -1.7327    0.0000 C   0  0  0  0  0  0  0  0  0  0  0  0
    7.8003    0.7673    0.0000 C   0  0  0  0  0  0  0  0  0  0  0  0
    8.6663   -0.7327    0.0000 C   0  0  0  0  0  0  0  0  0  0  0  0
    4.3083   -0.1980    0.0000 C   0  0  0  0  0  0  0  0  0  0  0  0
    4.3083   -2.2673    0.0000 C   0  0  0  0  0  0  0  0  0  0  0  0
    8.6663    1.2673    0.0000 C   0  0  0  0  0  0  0  0  0  0  0  0
    3.4022   -1.7535    0.0000 C   0  0  0  0  0  0  0  0  0  0  0  0
    3.4022   -0.7119    0.0000 C   0  0  0  0  0  0  0  0  0  0  0  0
    9.5323   -0.2327    0.0000 C   0  0  0  0  0  0  0  0  0  0  0  0
    9.5323    0.7673    0.0000 C   0  0  0  0  0  0  0  0  0  0  0  0
    6.9343    2.2673    0.0000 C   0  0  0  0  0  0  0  0  0  0  0  0
    7.1463   -2.3153    0.0000 H   0  0  0  0  0  0  0  0  0  0  0  0
    7.5449   -1.6250    0.0000 H   0  0  0  0  0  0  0  0  0  0  0  0
    6.0682    0.3873    0.0000 H   0  0  0  0  0  0  0  0  0  0  0  0
    8.6663   -1.3527    0.0000 H   0  0  0  0  0  0  0  0  0  0  0  0
    4.3154    0.4220    0.0000 H   0  0  0  0  0  0  0  0  0  0  0  0
    4.3154   -2.8873    0.0000 H   0  0  0  0  0  0  0  0  0  0  0  0
    8.6663    1.8873    0.0000 H   0  0  0  0  0  0  0  0  0  0  0  0
    2.8665   -0.3998    0.0000 H   0  0  0  0  0  0  0  0  0  0  0  0
   10.0693   -0.5427    0.0000 H   0  0  0  0  0  0  0  0  0  0  0  0
    7.5543    2.2673    0.0000 H   0  0  0  0  0  0  0  0  0  0  0  0
    6.9343    2.8873    0.0000 H   0  0  0  0  0  0  0  0  0  0  0  0
    6.3143    2.2673    0.0000 H   0  0  0  0  0  0  0  0  0  0  0  0
    2.0000   -1.9489    0.0000 H   0  0  0  0  0  0  0  0  0  0  0  0
   10.9353    0.9573    0.0000 H   0  0  0  0  0  0  0  0  0  0  0  0
  1  6  1  0  0  0  0
  1 10  1  0  0  0  0
  2 11  1  0  0  0  0
  2 20  1  0  0  0  0
  3 16  1  0  0  0  0
  3 33  1  0  0  0  0
  4 19  1  0  0  0  0
  4 34  1  0  0  0  0
  5  6  1  0  0  0  0
  5  7  1  0  0  0  0
  5  9  2  0  0  0  0
  6 21  1  0  0  0  0
  6 22  1  0  0  0  0
  7 11  2  0  0  0  0
  7 12  1  0  0  0  0
  8  9  1  0  0  0  0
  8 10  2  0  0  0  0
  8 13  1  0  0  0  0
  9 23  1  0  0  0  0
 10 14  1  0  0  0  0
 11 15  1  0  0  0  0
 12 18  2  0  0  0  0
 12 24  1  0  0  0  0
 13 17  2  0  0  0  0
 13 25  1  0  0  0  0
 14 16  2  0  0  0  0
 14 26  1  0  0  0  0
 15 19  2  0  0  0  0
 15 27  1  0  0  0  0
 16 17  1  0  0  0  0
 17 28  1  0  0  0  0
 18 19  1  0  0  0  0
 18 29  1  0  0  0  0
 20 30  1  0  0  0  0
 20 31  1  0  0  0  0
 20 32  1  0  0  0  0
M  END
>  <PUBCHEM_COMPOUND_CID>
14077816

>  <PUBCHEM_COMPOUND_CANONICALIZED>
1

>  <PUBCHEM_CACTVS_COMPLEXITY>
368

>  <PUBCHEM_CACTVS_HBOND_ACCEPTOR>
4

>  <PUBCHEM_CACTVS_HBOND_DONOR>
2

>  <PUBCHEM_CACTVS_ROTATABLE_BOND>
2

>  <PUBCHEM_CACTVS_SUBSKEYS>
AAADccB4OAAAAAAAAAAAAAAAAAAAAAAAAAAwYIAAAAAAAACBQAAAGgAACAAADASgmAIyBoAABgCAAiBCAAACCAAgIAAIiAAGCIgMJyKGMRqCeCClwBUIuAfA4KwOIAAACAAIAABAAAAQABAAAAAAAAAAAA==

>  <PUBCHEM_IUPAC_OPENEYE_NAME>
3-(4-hydroxy-2-methoxy-phenyl)-2H-chromen-7-ol

>  <PUBCHEM_IUPAC_CAS_NAME>
3-(4-hydroxy-2-methoxyphenyl)-2H-1-benzopyran-7-ol

>  <PUBCHEM_IUPAC_NAME>
3-(4-hydroxy-2-methoxyphenyl)-2H-chromen-7-ol

>  <PUBCHEM_IUPAC_SYSTEMATIC_NAME>
3-(2-methoxy-4-oxidanyl-phenyl)-2H-chromen-7-ol

>  <PUBCHEM_IUPAC_TRADITIONAL_NAME>
3-(4-hydroxy-2-methoxy-phenyl)-2H-chromen-7-ol

>  <PUBCHEM_IUPAC_INCHI>
InChI=1S/C16H14O4/c1-19-16-8-13(18)4-5-14(16)11-6-10-2-3-12(17)7-15(10)20-9-11/h2-8,17-18H,9H2,1H3

>  <PUBCHEM_IUPAC_INCHIKEY>
RMENXIMFGIVCHR-UHFFFAOYSA-N

>  <PUBCHEM_XLOGP3_AA>
2.7

>  <PUBCHEM_EXACT_MASS>
270.089

>  <PUBCHEM_MOLECULAR_FORMULA>
C16H14O4

>  <PUBCHEM_MOLECULAR_WEIGHT>
270.284

>  <PUBCHEM_OPENEYE_CAN_SMILES>
COC1=C(C=CC(=C1)O)C2=CC3=C(C=C(C=C3)O)OC2

>  <PUBCHEM_OPENEYE_ISO_SMILES>
COC1=C(C=CC(=C1)O)C2=CC3=C(C=C(C=C3)O)OC2

>  <PUBCHEM_CACTVS_TPSA>
58.9

>  <PUBCHEM_MONOISOTOPIC_WEIGHT>
270.089

>  <PUBCHEM_TOTAL_CHARGE>
0

>  <PUBCHEM_HEAVY_ATOM_COUNT>
20

>  <PUBCHEM_ATOM_DEF_STEREO_COUNT>
0

>  <PUBCHEM_ATOM_UDEF_STEREO_COUNT>
0

>  <PUBCHEM_BOND_DEF_STEREO_COUNT>
0

>  <PUBCHEM_BOND_UDEF_STEREO_COUNT>
0

>  <PUBCHEM_ISOTOPIC_ATOM_COUNT>
0

>  <PUBCHEM_COMPONENT_COUNT>
1

>  <PUBCHEM_CACTVS_TAUTO_COUNT>
14

>  <PUBCHEM_COORDINATE_TYPE>
1
5
255

>  <PUBCHEM_BONDANNOTATIONS>
10  14  8
11  15  8
12  18  8
13  17  8
14  16  8
15  19  8
16  17  8
18  19  8
7  11  8
7  12  8
8  10  8
8  13  8

$$$$
