14077419
 OpenBabel06101807152D

 50 53  0  0  1  0  0  0  0  0999 V2000
    5.1350   -0.3521    0.0000 O   0  0  0  0  0  0  0  0  0  0  0  0
    6.8671   -0.3521    0.0000 O   0  0  0  0  0  0  0  0  0  0  0  0
    5.1350   -3.3520    0.0000 O   0  0  0  0  0  0  0  0  0  0  0  0
    3.4030   -2.3521    0.0000 O   0  0  0  0  0  0  0  0  0  0  0  0
    6.8671   -2.3521    0.0000 O   0  0  0  0  0  0  0  0  0  0  0  0
    2.5369   -0.8521    0.0000 O   0  0  0  0  0  0  0  0  0  0  0  0
    8.6158   -0.3377    0.0000 O   0  0  0  0  0  0  0  0  0  0  0  0
    8.6620    3.6620    0.0000 O   0  0  0  0  0  0  0  0  0  0  0  0
   10.3636   -0.3925    0.0000 O   0  0  0  0  0  0  0  0  0  0  0  0
    5.1350   -2.3521    0.0000 C   0  0  3  0  0  0  0  0  0  0  0  0
    4.2690   -1.8520    0.0000 C   0  0  3  0  0  0  0  0  0  0  0  0
    6.0010   -1.8520    0.0000 C   0  0  3  0  0  0  0  0  0  0  0  0
    4.2690   -0.8521    0.0000 C   0  0  3  0  0  0  0  0  0  0  0  0
    6.0010   -0.8521    0.0000 C   0  0  3  0  0  0  0  0  0  0  0  0
    3.4030   -0.3521    0.0000 C   0  0  0  0  0  0  0  0  0  0  0  0
    6.8671    0.6479    0.0000 C   0  0  0  0  0  0  0  0  0  0  0  0
    7.7671    1.1722    0.0000 C   0  0  0  0  0  0  0  0  0  0  0  0
    7.7787    2.1722    0.0000 C   0  0  0  0  0  0  0  0  0  0  0  0
    5.9670    1.1722    0.0000 C   0  0  0  0  0  0  0  0  0  0  0  0
    8.6273    0.6623    0.0000 C   0  0  0  0  0  0  0  0  0  0  0  0
    5.9790    2.2138    0.0000 C   0  0  0  0  0  0  0  0  0  0  0  0
    9.4991    1.1522    0.0000 C   0  0  0  0  0  0  0  0  0  0  0  0
    6.8910    2.7171    0.0000 C   0  0  0  0  0  0  0  0  0  0  0  0
    8.6504    2.6621    0.0000 C   0  0  0  0  0  0  0  0  0  0  0  0
    9.5106    2.1521    0.0000 C   0  0  0  0  0  0  0  0  0  0  0  0
   10.3868    0.6072    0.0000 C   0  0  0  0  0  0  0  0  0  0  0  0
    5.1208    2.7271    0.0000 C   0  0  0  0  0  0  0  0  0  0  0  0
   10.4107    2.6764    0.0000 C   0  0  0  0  0  0  0  0  0  0  0  0
   11.2987    1.1106    0.0000 C   0  0  0  0  0  0  0  0  0  0  0  0
   11.3108    2.1521    0.0000 C   0  0  0  0  0  0  0  0  0  0  0  0
    5.6720   -2.6620    0.0000 H   0  0  0  0  0  0  0  0  0  0  0  0
    4.2690   -2.4720    0.0000 H   0  0  0  0  0  0  0  0  0  0  0  0
    6.5380   -1.5420    0.0000 H   0  0  0  0  0  0  0  0  0  0  0  0
    4.2690   -0.2321    0.0000 H   0  0  0  0  0  0  0  0  0  0  0  0
    6.0010   -0.2321    0.0000 H   0  0  0  0  0  0  0  0  0  0  0  0
    3.8015    0.1229    0.0000 H   0  0  0  0  0  0  0  0  0  0  0  0
    3.0044    0.1229    0.0000 H   0  0  0  0  0  0  0  0  0  0  0  0
    4.5981   -3.6620    0.0000 H   0  0  0  0  0  0  0  0  0  0  0  0
    3.4030   -2.9720    0.0000 H   0  0  0  0  0  0  0  0  0  0  0  0
    6.8671   -2.9720    0.0000 H   0  0  0  0  0  0  0  0  0  0  0  0
    5.4277    0.8664    0.0000 H   0  0  0  0  0  0  0  0  0  0  0  0
    2.0000   -0.5421    0.0000 H   0  0  0  0  0  0  0  0  0  0  0  0
    6.9053    3.3370    0.0000 H   0  0  0  0  0  0  0  0  0  0  0  0
    5.4391    3.2592    0.0000 H   0  0  0  0  0  0  0  0  0  0  0  0
    4.5887    3.0453    0.0000 H   0  0  0  0  0  0  0  0  0  0  0  0
    4.8026    2.1950    0.0000 H   0  0  0  0  0  0  0  0  0  0  0  0
   10.4107    3.2964    0.0000 H   0  0  0  0  0  0  0  0  0  0  0  0
   11.8308    0.7923    0.0000 H   0  0  0  0  0  0  0  0  0  0  0  0
   11.8501    2.4580    0.0000 H   0  0  0  0  0  0  0  0  0  0  0  0
   10.8933   -0.7148    0.0000 H   0  0  0  0  0  0  0  0  0  0  0  0
  1 13  1  0  0  0  0
  1 14  1  0  0  0  0
  2 14  1  0  0  0  0
  2 16  1  0  0  0  0
  3 10  1  0  0  0  0
  3 38  1  0  0  0  0
  4 11  1  0  0  0  0
  4 39  1  0  0  0  0
  5 12  1  0  0  0  0
  5 40  1  0  0  0  0
  6 15  1  0  0  0  0
  6 42  1  0  0  0  0
  7 20  2  0  0  0  0
  8 24  2  0  0  0  0
  9 26  1  0  0  0  0
  9 50  1  0  0  0  0
 10 11  1  0  0  0  0
 10 12  1  0  0  0  0
 10 31  1  0  0  0  0
 11 13  1  0  0  0  0
 11 32  1  0  0  0  0
 12 14  1  0  0  0  0
 12 33  1  0  0  0  0
 13 15  1  0  0  0  0
 13 34  1  0  0  0  0
 14 35  1  0  0  0  0
 15 36  1  0  0  0  0
 15 37  1  0  0  0  0
 16 17  1  0  0  0  0
 16 19  2  0  0  0  0
 17 18  2  0  0  0  0
 17 20  1  0  0  0  0
 18 23  1  0  0  0  0
 18 24  1  0  0  0  0
 19 21  1  0  0  0  0
 19 41  1  0  0  0  0
 20 22  1  0  0  0  0
 21 23  2  0  0  0  0
 21 27  1  0  0  0  0
 22 25  2  0  0  0  0
 22 26  1  0  0  0  0
 23 43  1  0  0  0  0
 24 25  1  0  0  0  0
 25 28  1  0  0  0  0
 26 29  2  0  0  0  0
 27 44  1  0  0  0  0
 27 45  1  0  0  0  0
 27 46  1  0  0  0  0
 28 30  2  0  0  0  0
 28 47  1  0  0  0  0
 29 30  1  0  0  0  0
 29 48  1  0  0  0  0
 30 49  1  0  0  0  0
M  END
>  <PUBCHEM_COMPOUND_CID>
14077419

>  <PUBCHEM_COMPOUND_CANONICALIZED>
1

>  <PUBCHEM_CACTVS_COMPLEXITY>
669

>  <PUBCHEM_CACTVS_HBOND_ACCEPTOR>
9

>  <PUBCHEM_CACTVS_HBOND_DONOR>
5

>  <PUBCHEM_CACTVS_ROTATABLE_BOND>
3

>  <PUBCHEM_CACTVS_SUBSKEYS>
AAADceB4PAAAAAAAAAAAAAAAAAAAAAAAAAA0YMEAAAAAAADBQAAAGgAACAAADBSwmAMyDoAABgCIAqBSAAACCAAkIAAIiAEGCMgdNjaGNRqieWCl4BEPuYfL6PyOwAADAAAYAACAAAYAADAAAAAAAAAAAA==

>  <PUBCHEM_IUPAC_OPENEYE_NAME>
8-hydroxy-3-methyl-1-[3,4,5-trihydroxy-6-(hydroxymethyl)tetrahydropyran-2-yl]oxy-anthracene-9,10-dione

>  <PUBCHEM_IUPAC_CAS_NAME>
8-hydroxy-3-methyl-1-[[3,4,5-trihydroxy-6-(hydroxymethyl)-2-oxanyl]oxy]anthracene-9,10-dione

>  <PUBCHEM_IUPAC_NAME>
8-hydroxy-3-methyl-1-[3,4,5-trihydroxy-6-(hydroxymethyl)oxan-2-yl]oxyanthracene-9,10-dione

>  <PUBCHEM_IUPAC_SYSTEMATIC_NAME>
1-[6-(hydroxymethyl)-3,4,5-tris(oxidanyl)oxan-2-yl]oxy-3-methyl-8-oxidanyl-anthracene-9,10-dione

>  <PUBCHEM_IUPAC_TRADITIONAL_NAME>
8-hydroxy-3-methyl-1-(3,4,5-trihydroxy-6-methylol-tetrahydropyran-2-yl)oxy-9,10-anthraquinone

>  <PUBCHEM_IUPAC_INCHI>
InChI=1S/C21H20O9/c1-8-5-10-15(18(26)14-9(16(10)24)3-2-4-11(14)23)12(6-8)29-21-20(28)19(27)17(25)13(7-22)30-21/h2-6,13,17,19-23,25,27-28H,7H2,1H3

>  <PUBCHEM_IUPAC_INCHIKEY>
QKPDYSSHOSPOKH-UHFFFAOYSA-N

>  <PUBCHEM_XLOGP3_AA>
1.3

>  <PUBCHEM_EXACT_MASS>
416.111

>  <PUBCHEM_MOLECULAR_FORMULA>
C21H20O9

>  <PUBCHEM_MOLECULAR_WEIGHT>
416.382

>  <PUBCHEM_OPENEYE_CAN_SMILES>
CC1=CC(=C2C(=C1)C(=O)C3=C(C2=O)C(=CC=C3)O)OC4C(C(C(C(O4)CO)O)O)O

>  <PUBCHEM_OPENEYE_ISO_SMILES>
CC1=CC(=C2C(=C1)C(=O)C3=C(C2=O)C(=CC=C3)O)OC4C(C(C(C(O4)CO)O)O)O

>  <PUBCHEM_CACTVS_TPSA>
154

>  <PUBCHEM_MONOISOTOPIC_WEIGHT>
416.111

>  <PUBCHEM_TOTAL_CHARGE>
0

>  <PUBCHEM_HEAVY_ATOM_COUNT>
30

>  <PUBCHEM_ATOM_DEF_STEREO_COUNT>
0

>  <PUBCHEM_ATOM_UDEF_STEREO_COUNT>
5

>  <PUBCHEM_BOND_DEF_STEREO_COUNT>
0

>  <PUBCHEM_BOND_UDEF_STEREO_COUNT>
0

>  <PUBCHEM_ISOTOPIC_ATOM_COUNT>
0

>  <PUBCHEM_COMPONENT_COUNT>
1

>  <PUBCHEM_CACTVS_TAUTO_COUNT>
24

>  <PUBCHEM_COORDINATE_TYPE>
1
5
255

>  <PUBCHEM_BONDANNOTATIONS>
13  15  3
16  17  8
16  19  8
17  18  8
18  23  8
19  21  8
14  2  3
21  23  8
22  25  8
22  26  8
25  28  8
26  29  8
28  30  8
29  30  8
10  3  3
11  4  3
12  5  3

$$$$
