14132229
 OpenBabel06101807152D

 53 53  0  0  1  0  0  0  0  0999 V2000
    4.2690   -1.9050    0.0000 O   0  0  0  0  0  0  0  0  0  0  0  0
    6.0010   -1.9050    0.0000 O   0  0  0  0  0  0  0  0  0  0  0  0
    4.2690   -4.9050    0.0000 O   0  0  0  0  0  0  0  0  0  0  0  0
    6.0010   -3.9050    0.0000 O   0  0  0  0  0  0  0  0  0  0  0  0
    2.5369   -3.9050    0.0000 O   0  0  0  0  0  0  0  0  0  0  0  0
    8.5991   -0.4050    0.0000 O   0  0  0  0  0  0  0  0  0  0  0  0
    2.5369   -0.9050    0.0000 O   0  0  0  0  0  0  0  0  0  0  0  0
    6.8671    1.5950    0.0000 O   0  0  0  0  0  0  0  0  0  0  0  0
   10.3312    4.5950    0.0000 O   0  0  0  0  0  0  0  0  0  0  0  0
    8.5991    4.5950    0.0000 O   0  0  0  0  0  0  0  0  0  0  0  0
    8.5991    1.5950    0.0000 N   0  0  0  0  0  0  0  0  0  0  0  0
    4.2690   -3.9050    0.0000 C   0  0  3  0  0  0  0  0  0  0  0  0
    5.1350   -3.4050    0.0000 C   0  0  3  0  0  0  0  0  0  0  0  0
    3.4030   -3.4050    0.0000 C   0  0  3  0  0  0  0  0  0  0  0  0
    5.1350   -2.4050    0.0000 C   0  0  3  0  0  0  0  0  0  0  0  0
    3.4030   -2.4050    0.0000 C   0  0  3  0  0  0  0  0  0  0  0  0
    6.8671   -0.4050    0.0000 C   0  0  0  0  0  0  0  0  0  0  0  0
    6.0010   -0.9050    0.0000 C   0  0  0  0  0  0  0  0  0  0  0  0
    7.7331    0.0950    0.0000 C   0  0  3  0  0  0  0  0  0  0  0  0
    2.5369   -1.9050    0.0000 C   0  0  0  0  0  0  0  0  0  0  0  0
    6.3671    0.4610    0.0000 C   0  0  0  0  0  0  0  0  0  0  0  0
    7.3671   -1.2710    0.0000 C   0  0  0  0  0  0  0  0  0  0  0  0
    7.7331    1.0950    0.0000 C   0  0  0  0  0  0  0  0  0  0  0  0
    8.5991    2.5950    0.0000 C   0  0  0  0  0  0  0  0  0  0  0  0
    9.4651    3.0950    0.0000 C   0  0  0  0  0  0  0  0  0  0  0  0
    9.4651    4.0950    0.0000 C   0  0  0  0  0  0  0  0  0  0  0  0
    4.8059   -4.2150    0.0000 H   0  0  0  0  0  0  0  0  0  0  0  0
    5.6720   -3.0950    0.0000 H   0  0  0  0  0  0  0  0  0  0  0  0
    3.4030   -4.0250    0.0000 H   0  0  0  0  0  0  0  0  0  0  0  0
    5.1350   -1.7850    0.0000 H   0  0  0  0  0  0  0  0  0  0  0  0
    3.4030   -1.7850    0.0000 H   0  0  0  0  0  0  0  0  0  0  0  0
    5.7890   -0.3224    0.0000 H   0  0  0  0  0  0  0  0  0  0  0  0
    5.3905   -1.0127    0.0000 H   0  0  0  0  0  0  0  0  0  0  0  0
    8.2700    0.4050    0.0000 H   0  0  0  0  0  0  0  0  0  0  0  0
    1.9264   -1.7973    0.0000 H   0  0  0  0  0  0  0  0  0  0  0  0
    2.3249   -2.4876    0.0000 H   0  0  0  0  0  0  0  0  0  0  0  0
    6.8301   -1.5810    0.0000 H   0  0  0  0  0  0  0  0  0  0  0  0
    7.6771   -1.8080    0.0000 H   0  0  0  0  0  0  0  0  0  0  0  0
    7.9040   -0.9610    0.0000 H   0  0  0  0  0  0  0  0  0  0  0  0
    6.9040    0.7710    0.0000 H   0  0  0  0  0  0  0  0  0  0  0  0
    6.0571    0.9980    0.0000 H   0  0  0  0  0  0  0  0  0  0  0  0
    5.8301    0.1510    0.0000 H   0  0  0  0  0  0  0  0  0  0  0  0
    3.7320   -5.2150    0.0000 H   0  0  0  0  0  0  0  0  0  0  0  0
    6.5380   -3.5950    0.0000 H   0  0  0  0  0  0  0  0  0  0  0  0
    2.0000   -3.5950    0.0000 H   0  0  0  0  0  0  0  0  0  0  0  0
    9.1360   -0.0950    0.0000 H   0  0  0  0  0  0  0  0  0  0  0  0
    2.0000   -0.5950    0.0000 H   0  0  0  0  0  0  0  0  0  0  0  0
    9.1360    1.2850    0.0000 H   0  0  0  0  0  0  0  0  0  0  0  0
    8.3871    3.1776    0.0000 H   0  0  0  0  0  0  0  0  0  0  0  0
    7.9885    2.4873    0.0000 H   0  0  0  0  0  0  0  0  0  0  0  0
    9.6772    2.5124    0.0000 H   0  0  0  0  0  0  0  0  0  0  0  0
   10.0757    3.2027    0.0000 H   0  0  0  0  0  0  0  0  0  0  0  0
   10.3312    5.2150    0.0000 H   0  0  0  0  0  0  0  0  0  0  0  0
  1 15  1  0  0  0  0
  1 16  1  0  0  0  0
  2 15  1  0  0  0  0
  2 18  1  0  0  0  0
  3 12  1  0  0  0  0
  3 43  1  0  0  0  0
  4 13  1  0  0  0  0
  4 44  1  0  0  0  0
  5 14  1  0  0  0  0
  5 45  1  0  0  0  0
  6 19  1  0  0  0  0
  6 46  1  0  0  0  0
  7 20  1  0  0  0  0
  7 47  1  0  0  0  0
  8 23  2  0  0  0  0
  9 26  1  0  0  0  0
  9 53  1  0  0  0  0
 10 26  2  0  0  0  0
 11 23  1  0  0  0  0
 11 24  1  0  0  0  0
 11 48  1  0  0  0  0
 12 13  1  0  0  0  0
 12 14  1  0  0  0  0
 12 27  1  0  0  0  0
 13 15  1  0  0  0  0
 13 28  1  0  0  0  0
 14 16  1  0  0  0  0
 14 29  1  0  0  0  0
 15 30  1  0  0  0  0
 16 20  1  0  0  0  0
 16 31  1  0  0  0  0
 17 18  1  0  0  0  0
 17 19  1  0  0  0  0
 17 21  1  0  0  0  0
 17 22  1  0  0  0  0
 18 32  1  0  0  0  0
 18 33  1  0  0  0  0
 19 23  1  0  0  0  0
 19 34  1  0  0  0  0
 20 35  1  0  0  0  0
 20 36  1  0  0  0  0
 21 40  1  0  0  0  0
 21 41  1  0  0  0  0
 21 42  1  0  0  0  0
 22 37  1  0  0  0  0
 22 38  1  0  0  0  0
 22 39  1  0  0  0  0
 24 25  1  0  0  0  0
 24 49  1  0  0  0  0
 24 50  1  0  0  0  0
 25 26  1  0  0  0  0
 25 51  1  0  0  0  0
 25 52  1  0  0  0  0
M  END
>  <PUBCHEM_COMPOUND_CID>
14132229

>  <PUBCHEM_COMPOUND_CANONICALIZED>
1

>  <PUBCHEM_CACTVS_COMPLEXITY>
485

>  <PUBCHEM_CACTVS_HBOND_ACCEPTOR>
10

>  <PUBCHEM_CACTVS_HBOND_DONOR>
7

>  <PUBCHEM_CACTVS_ROTATABLE_BOND>
9

>  <PUBCHEM_CACTVS_SUBSKEYS>
AAADceByPAAAAAAAAAAAAAAAAAAAAAAAAAAkAAAAAAAAAAAAAAAAHgAQCAAADhTxgAcCCALABgAIAAGQGAIAAAAAAAAAAIFIAAATEBoAgAAmQAAHFgCXAAHiYAwJAAAAAAAAAAAAAAAAAAAAAAAAAAAAAA==

>  <PUBCHEM_IUPAC_OPENEYE_NAME>
3-[[2-hydroxy-3,3-dimethyl-4-[3,4,5-trihydroxy-6-(hydroxymethyl)tetrahydropyran-2-yl]oxy-butanoyl]amino]propanoic acid

>  <PUBCHEM_IUPAC_CAS_NAME>
3-[[2-hydroxy-3,3-dimethyl-1-oxo-4-[[3,4,5-trihydroxy-6-(hydroxymethyl)-2-oxanyl]oxy]butyl]amino]propanoic acid

>  <PUBCHEM_IUPAC_NAME>
3-[[2-hydroxy-3,3-dimethyl-4-[3,4,5-trihydroxy-6-(hydroxymethyl)oxan-2-yl]oxybutanoyl]amino]propanoic acid

>  <PUBCHEM_IUPAC_SYSTEMATIC_NAME>
3-[[4-[6-(hydroxymethyl)-3,4,5-tris(oxidanyl)oxan-2-yl]oxy-3,3-dimethyl-2-oxidanyl-butanoyl]amino]propanoic acid

>  <PUBCHEM_IUPAC_TRADITIONAL_NAME>
3-[[2-hydroxy-3,3-dimethyl-4-(3,4,5-trihydroxy-6-methylol-tetrahydropyran-2-yl)oxy-butanoyl]amino]propionic acid

>  <PUBCHEM_IUPAC_INCHI>
InChI=1S/C15H27NO10/c1-15(2,12(23)13(24)16-4-3-8(18)19)6-25-14-11(22)10(21)9(20)7(5-17)26-14/h7,9-12,14,17,20-23H,3-6H2,1-2H3,(H,16,24)(H,18,19)

>  <PUBCHEM_IUPAC_INCHIKEY>
GMURXYJSTRMISD-UHFFFAOYSA-N

>  <PUBCHEM_XLOGP3_AA>
-2.7

>  <PUBCHEM_EXACT_MASS>
381.163

>  <PUBCHEM_MOLECULAR_FORMULA>
C15H27NO10

>  <PUBCHEM_MOLECULAR_WEIGHT>
381.378

>  <PUBCHEM_OPENEYE_CAN_SMILES>
CC(C)(COC1C(C(C(C(O1)CO)O)O)O)C(C(=O)NCCC(=O)O)O

>  <PUBCHEM_OPENEYE_ISO_SMILES>
CC(C)(COC1C(C(C(C(O1)CO)O)O)O)C(C(=O)NCCC(=O)O)O

>  <PUBCHEM_CACTVS_TPSA>
186

>  <PUBCHEM_MONOISOTOPIC_WEIGHT>
381.163

>  <PUBCHEM_TOTAL_CHARGE>
0

>  <PUBCHEM_HEAVY_ATOM_COUNT>
26

>  <PUBCHEM_ATOM_DEF_STEREO_COUNT>
0

>  <PUBCHEM_ATOM_UDEF_STEREO_COUNT>
6

>  <PUBCHEM_BOND_DEF_STEREO_COUNT>
0

>  <PUBCHEM_BOND_UDEF_STEREO_COUNT>
0

>  <PUBCHEM_ISOTOPIC_ATOM_COUNT>
0

>  <PUBCHEM_COMPONENT_COUNT>
1

>  <PUBCHEM_CACTVS_TAUTO_COUNT>
2

>  <PUBCHEM_COORDINATE_TYPE>
1
5
255

>  <PUBCHEM_BONDANNOTATIONS>
16  20  3
15  2  3
12  3  3
13  4  3
14  5  3
19  6  3

$$$$
