14134311
 OpenBabel06101807152D

 29 31  0  0  1  0  0  0  0  0999 V2000
    2.8641   -0.2119    0.0000 O   0  0  0  0  0  0  0  0  0  0  0  0
    7.3424   -1.5374    0.0000 O   0  0  0  0  0  0  0  0  0  0  0  0
    5.5301    1.2673    0.0000 O   0  0  0  0  0  0  0  0  0  0  0  0
    3.7817    1.3019    0.0000 O   0  0  0  0  0  0  0  0  0  0  0  0
    3.7702   -1.7673    0.0000 C   0  0  0  0  0  0  0  0  0  0  0  0
    4.6641   -1.2327    0.0000 C   0  0  0  0  0  0  0  0  0  0  0  0
    2.8641   -1.2535    0.0000 C   0  0  3  0  0  0  0  0  0  0  0  0
    4.6641   -0.2327    0.0000 C   0  0  0  0  0  0  0  0  0  0  0  0
    5.5301    0.2673    0.0000 C   0  0  0  0  0  0  0  0  0  0  0  0
    5.5301   -1.7327    0.0000 C   0  0  0  0  0  0  0  0  0  0  0  0
    6.3961   -0.2327    0.0000 C   0  0  0  0  0  0  0  0  0  0  0  0
    6.3961   -1.2327    0.0000 C   0  0  0  0  0  0  0  0  0  0  0  0
    3.7702    0.3020    0.0000 C   0  0  0  0  0  0  0  0  0  0  0  0
    2.0000   -1.7568    0.0000 C   0  0  0  0  0  0  0  0  0  0  0  0
    7.3424    0.0721    0.0000 C   0  0  0  0  0  0  0  0  0  0  0  0
    7.9260   -0.7327    0.0000 C   0  0  0  0  0  0  0  0  0  0  0  0
    6.3961    1.7673    0.0000 C   0  0  0  0  0  0  0  0  0  0  0  0
    3.3765   -2.2464    0.0000 H   0  0  0  0  0  0  0  0  0  0  0  0
    4.1748   -2.2371    0.0000 H   0  0  0  0  0  0  0  0  0  0  0  0
    2.3266   -0.9445    0.0000 H   0  0  0  0  0  0  0  0  0  0  0  0
    5.5301   -2.3527    0.0000 H   0  0  0  0  0  0  0  0  0  0  0  0
    1.6879   -1.2211    0.0000 H   0  0  0  0  0  0  0  0  0  0  0  0
    1.4643   -2.0689    0.0000 H   0  0  0  0  0  0  0  0  0  0  0  0
    2.3121   -2.2926    0.0000 H   0  0  0  0  0  0  0  0  0  0  0  0
    7.5350    0.6614    0.0000 H   0  0  0  0  0  0  0  0  0  0  0  0
    8.5460   -0.7327    0.0000 H   0  0  0  0  0  0  0  0  0  0  0  0
    6.7062    1.2304    0.0000 H   0  0  0  0  0  0  0  0  0  0  0  0
    6.9331    2.0773    0.0000 H   0  0  0  0  0  0  0  0  0  0  0  0
    6.0862    2.3043    0.0000 H   0  0  0  0  0  0  0  0  0  0  0  0
  1  7  1  0  0  0  0
  1 13  1  0  0  0  0
  2 12  1  0  0  0  0
  2 16  1  0  0  0  0
  3  9  1  0  0  0  0
  3 17  1  0  0  0  0
  4 13  2  0  0  0  0
  5  6  1  0  0  0  0
  5  7  1  0  0  0  0
  5 18  1  0  0  0  0
  5 19  1  0  0  0  0
  6  8  1  0  0  0  0
  6 10  2  0  0  0  0
  7 14  1  0  0  0  0
  7 20  1  0  0  0  0
  8  9  2  0  0  0  0
  8 13  1  0  0  0  0
  9 11  1  0  0  0  0
 10 12  1  0  0  0  0
 10 21  1  0  0  0  0
 11 12  2  0  0  0  0
 11 15  1  0  0  0  0
 14 22  1  0  0  0  0
 14 23  1  0  0  0  0
 14 24  1  0  0  0  0
 15 16  2  0  0  0  0
 15 25  1  0  0  0  0
 16 26  1  0  0  0  0
 17 27  1  0  0  0  0
 17 28  1  0  0  0  0
 17 29  1  0  0  0  0
M  END
>  <PUBCHEM_COMPOUND_CID>
14134311

>  <PUBCHEM_COMPOUND_CANONICALIZED>
1

>  <PUBCHEM_CACTVS_COMPLEXITY>
317

>  <PUBCHEM_CACTVS_HBOND_ACCEPTOR>
4

>  <PUBCHEM_CACTVS_HBOND_DONOR>
0

>  <PUBCHEM_CACTVS_ROTATABLE_BOND>
1

>  <PUBCHEM_CACTVS_SUBSKEYS>
AAADccBwOAAAAAAAAAAAAAAAAAAAASAAAAA0QAAAAAAAAEiR8AAAGgAAAAAADBSgmAIyDsAABECIAqjSiAACCAAkIAAIiAEGCMgMJzaENRqCOWCl4BUIqYfK7vzu4AADCAAYAADAAAYQADAAAAAAAAAAAA==

>  <PUBCHEM_IUPAC_OPENEYE_NAME>
4-methoxy-7-methyl-7,8-dihydrofuro[2,3-g]isochromen-5-one

>  <PUBCHEM_IUPAC_CAS_NAME>
4-methoxy-7-methyl-7,8-dihydrofuro[2,3-g][2]benzopyran-5-one

>  <PUBCHEM_IUPAC_NAME>
4-methoxy-7-methyl-7,8-dihydrofuro[2,3-g]isochromen-5-one

>  <PUBCHEM_IUPAC_SYSTEMATIC_NAME>
4-methoxy-7-methyl-7,8-dihydrofuro[2,3-g]isochromen-5-one

>  <PUBCHEM_IUPAC_TRADITIONAL_NAME>
4-methoxy-7-methyl-7,8-dihydrofur[2,3-g]isochromen-5-one

>  <PUBCHEM_IUPAC_INCHI>
InChI=1S/C13H12O4/c1-7-5-8-6-10-9(3-4-16-10)12(15-2)11(8)13(14)17-7/h3-4,6-7H,5H2,1-2H3

>  <PUBCHEM_IUPAC_INCHIKEY>
LJCCQQNTPLPSNX-UHFFFAOYSA-N

>  <PUBCHEM_XLOGP3_AA>
2.6

>  <PUBCHEM_EXACT_MASS>
232.074

>  <PUBCHEM_MOLECULAR_FORMULA>
C13H12O4

>  <PUBCHEM_MOLECULAR_WEIGHT>
232.235

>  <PUBCHEM_OPENEYE_CAN_SMILES>
CC1CC2=CC3=C(C=CO3)C(=C2C(=O)O1)OC

>  <PUBCHEM_OPENEYE_ISO_SMILES>
CC1CC2=CC3=C(C=CO3)C(=C2C(=O)O1)OC

>  <PUBCHEM_CACTVS_TPSA>
48.7

>  <PUBCHEM_MONOISOTOPIC_WEIGHT>
232.074

>  <PUBCHEM_TOTAL_CHARGE>
0

>  <PUBCHEM_HEAVY_ATOM_COUNT>
17

>  <PUBCHEM_ATOM_DEF_STEREO_COUNT>
0

>  <PUBCHEM_ATOM_UDEF_STEREO_COUNT>
1

>  <PUBCHEM_BOND_DEF_STEREO_COUNT>
0

>  <PUBCHEM_BOND_UDEF_STEREO_COUNT>
0

>  <PUBCHEM_ISOTOPIC_ATOM_COUNT>
0

>  <PUBCHEM_COMPONENT_COUNT>
1

>  <PUBCHEM_CACTVS_TAUTO_COUNT>
1

>  <PUBCHEM_COORDINATE_TYPE>
1
5
255

>  <PUBCHEM_BONDANNOTATIONS>
10  12  8
11  12  8
11  15  8
15  16  8
2  12  8
2  16  8
6  10  8
6  8  8
7  14  3
8  9  8
9  11  8

$$$$
