14132338
 OpenBabel06101807152D

 45 46  0  0  1  0  0  0  0  0999 V2000
    5.1350   -0.9050    0.0000 O   0  0  0  0  0  0  0  0  0  0  0  0
    6.8671   -0.9050    0.0000 O   0  0  0  0  0  0  0  0  0  0  0  0
    5.1350   -3.9050    0.0000 O   0  0  0  0  0  0  0  0  0  0  0  0
    3.4030   -2.9050    0.0000 O   0  0  0  0  0  0  0  0  0  0  0  0
    6.8671   -2.9050    0.0000 O   0  0  0  0  0  0  0  0  0  0  0  0
    2.5369   -1.4050    0.0000 O   0  0  0  0  0  0  0  0  0  0  0  0
    8.5991    0.0950    0.0000 O   0  0  0  0  0  0  0  0  0  0  0  0
    5.1350    0.0950    0.0000 O   0  0  0  0  0  0  0  0  0  0  0  0
    7.7331    3.5950    0.0000 O   0  0  0  0  0  0  0  0  0  0  0  0
    6.0010    3.5950    0.0000 O   0  0  0  0  0  0  0  0  0  0  0  0
    5.1350   -2.9050    0.0000 C   0  0  3  0  0  0  0  0  0  0  0  0
    4.2690   -2.4050    0.0000 C   0  0  3  0  0  0  0  0  0  0  0  0
    6.0010   -2.4050    0.0000 C   0  0  3  0  0  0  0  0  0  0  0  0
    4.2690   -1.4050    0.0000 C   0  0  3  0  0  0  0  0  0  0  0  0
    6.0010   -1.4050    0.0000 C   0  0  3  0  0  0  0  0  0  0  0  0
    3.4030   -0.9050    0.0000 C   0  0  0  0  0  0  0  0  0  0  0  0
    6.8671    0.0950    0.0000 C   0  0  0  0  0  0  0  0  0  0  0  0
    7.7331    0.5950    0.0000 C   0  0  0  0  0  0  0  0  0  0  0  0
    6.0010    0.5950    0.0000 C   0  0  0  0  0  0  0  0  0  0  0  0
    7.7331    1.5950    0.0000 C   0  0  0  0  0  0  0  0  0  0  0  0
    6.0010    1.5950    0.0000 C   0  0  0  0  0  0  0  0  0  0  0  0
    6.8671    2.0950    0.0000 C   0  0  0  0  0  0  0  0  0  0  0  0
    6.8671    3.0950    0.0000 C   0  0  0  0  0  0  0  0  0  0  0  0
    9.4651    0.5950    0.0000 C   0  0  0  0  0  0  0  0  0  0  0  0
    4.2690    0.5950    0.0000 C   0  0  0  0  0  0  0  0  0  0  0  0
    5.6720   -3.2150    0.0000 H   0  0  0  0  0  0  0  0  0  0  0  0
    4.2690   -3.0250    0.0000 H   0  0  0  0  0  0  0  0  0  0  0  0
    6.5380   -2.0950    0.0000 H   0  0  0  0  0  0  0  0  0  0  0  0
    4.2690   -0.7850    0.0000 H   0  0  0  0  0  0  0  0  0  0  0  0
    6.0010   -0.7850    0.0000 H   0  0  0  0  0  0  0  0  0  0  0  0
    3.8015   -0.4301    0.0000 H   0  0  0  0  0  0  0  0  0  0  0  0
    3.0044   -0.4301    0.0000 H   0  0  0  0  0  0  0  0  0  0  0  0
    4.5981   -4.2150    0.0000 H   0  0  0  0  0  0  0  0  0  0  0  0
    3.4030   -3.5250    0.0000 H   0  0  0  0  0  0  0  0  0  0  0  0
    6.8671   -3.5250    0.0000 H   0  0  0  0  0  0  0  0  0  0  0  0
    2.0000   -1.0950    0.0000 H   0  0  0  0  0  0  0  0  0  0  0  0
    8.2700    1.9050    0.0000 H   0  0  0  0  0  0  0  0  0  0  0  0
    5.4641    1.9050    0.0000 H   0  0  0  0  0  0  0  0  0  0  0  0
    9.7751    0.0581    0.0000 H   0  0  0  0  0  0  0  0  0  0  0  0
   10.0021    0.9050    0.0000 H   0  0  0  0  0  0  0  0  0  0  0  0
    9.1551    1.1319    0.0000 H   0  0  0  0  0  0  0  0  0  0  0  0
    4.5790    1.1319    0.0000 H   0  0  0  0  0  0  0  0  0  0  0  0
    3.7320    0.9050    0.0000 H   0  0  0  0  0  0  0  0  0  0  0  0
    3.9590    0.0581    0.0000 H   0  0  0  0  0  0  0  0  0  0  0  0
    7.7331    4.2150    0.0000 H   0  0  0  0  0  0  0  0  0  0  0  0
  1 14  1  0  0  0  0
  1 15  1  0  0  0  0
  2 15  1  0  0  0  0
  2 17  1  0  0  0  0
  3 11  1  0  0  0  0
  3 33  1  0  0  0  0
  4 12  1  0  0  0  0
  4 34  1  0  0  0  0
  5 13  1  0  0  0  0
  5 35  1  0  0  0  0
  6 16  1  0  0  0  0
  6 36  1  0  0  0  0
  7 18  1  0  0  0  0
  7 24  1  0  0  0  0
  8 19  1  0  0  0  0
  8 25  1  0  0  0  0
  9 23  1  0  0  0  0
  9 45  1  0  0  0  0
 10 23  2  0  0  0  0
 11 12  1  0  0  0  0
 11 13  1  0  0  0  0
 11 26  1  0  0  0  0
 12 14  1  0  0  0  0
 12 27  1  0  0  0  0
 13 15  1  0  0  0  0
 13 28  1  0  0  0  0
 14 16  1  0  0  0  0
 14 29  1  0  0  0  0
 15 30  1  0  0  0  0
 16 31  1  0  0  0  0
 16 32  1  0  0  0  0
 17 18  2  0  0  0  0
 17 19  1  0  0  0  0
 18 20  1  0  0  0  0
 19 21  2  0  0  0  0
 20 22  2  0  0  0  0
 20 37  1  0  0  0  0
 21 22  1  0  0  0  0
 21 38  1  0  0  0  0
 22 23  1  0  0  0  0
 24 39  1  0  0  0  0
 24 40  1  0  0  0  0
 24 41  1  0  0  0  0
 25 42  1  0  0  0  0
 25 43  1  0  0  0  0
 25 44  1  0  0  0  0
M  END
>  <PUBCHEM_COMPOUND_CID>
14132338

>  <PUBCHEM_COMPOUND_CANONICALIZED>
1

>  <PUBCHEM_CACTVS_COMPLEXITY>
432

>  <PUBCHEM_CACTVS_HBOND_ACCEPTOR>
10

>  <PUBCHEM_CACTVS_HBOND_DONOR>
5

>  <PUBCHEM_CACTVS_ROTATABLE_BOND>
6

>  <PUBCHEM_CACTVS_SUBSKEYS>
AAADceBwPAAAAAAAAAAAAAAAAAAAAAAAAAA0QAAAAAAAAAABAAAAGgAACAAADBSwmAMyDoAABgCIAiDSCAACCAAkIAAAiAEGiMgdNzKENRqieSKlwBUPuYfK7DzOIAABCAAAQABAAAIQAACAAAAAAAAAAA==

>  <PUBCHEM_IUPAC_OPENEYE_NAME>
3,5-dimethoxy-4-[3,4,5-trihydroxy-6-(hydroxymethyl)tetrahydropyran-2-yl]oxy-benzoic acid

>  <PUBCHEM_IUPAC_CAS_NAME>
3,5-dimethoxy-4-[[3,4,5-trihydroxy-6-(hydroxymethyl)-2-oxanyl]oxy]benzoic acid

>  <PUBCHEM_IUPAC_NAME>
3,5-dimethoxy-4-[3,4,5-trihydroxy-6-(hydroxymethyl)oxan-2-yl]oxybenzoic acid

>  <PUBCHEM_IUPAC_SYSTEMATIC_NAME>
4-[6-(hydroxymethyl)-3,4,5-tris(oxidanyl)oxan-2-yl]oxy-3,5-dimethoxy-benzoic acid

>  <PUBCHEM_IUPAC_TRADITIONAL_NAME>
3,5-dimethoxy-4-(3,4,5-trihydroxy-6-methylol-tetrahydropyran-2-yl)oxy-benzoic acid

>  <PUBCHEM_IUPAC_INCHI>
InChI=1S/C15H20O10/c1-22-7-3-6(14(20)21)4-8(23-2)13(7)25-15-12(19)11(18)10(17)9(5-16)24-15/h3-4,9-12,15-19H,5H2,1-2H3,(H,20,21)

>  <PUBCHEM_IUPAC_INCHIKEY>
BLKMDORKRDACEI-UHFFFAOYSA-N

>  <PUBCHEM_XLOGP3>
-1

>  <PUBCHEM_EXACT_MASS>
360.106

>  <PUBCHEM_MOLECULAR_FORMULA>
C15H20O10

>  <PUBCHEM_MOLECULAR_WEIGHT>
360.315

>  <PUBCHEM_OPENEYE_CAN_SMILES>
COC1=CC(=CC(=C1OC2C(C(C(C(O2)CO)O)O)O)OC)C(=O)O

>  <PUBCHEM_OPENEYE_ISO_SMILES>
COC1=CC(=CC(=C1OC2C(C(C(C(O2)CO)O)O)O)OC)C(=O)O

>  <PUBCHEM_CACTVS_TPSA>
155

>  <PUBCHEM_MONOISOTOPIC_WEIGHT>
360.106

>  <PUBCHEM_TOTAL_CHARGE>
0

>  <PUBCHEM_HEAVY_ATOM_COUNT>
25

>  <PUBCHEM_ATOM_DEF_STEREO_COUNT>
0

>  <PUBCHEM_ATOM_UDEF_STEREO_COUNT>
5

>  <PUBCHEM_BOND_DEF_STEREO_COUNT>
0

>  <PUBCHEM_BOND_UDEF_STEREO_COUNT>
0

>  <PUBCHEM_ISOTOPIC_ATOM_COUNT>
0

>  <PUBCHEM_COMPONENT_COUNT>
1

>  <PUBCHEM_CACTVS_TAUTO_COUNT>
1

>  <PUBCHEM_COORDINATE_TYPE>
1
5
255

>  <PUBCHEM_BONDANNOTATIONS>
14  16  3
17  18  8
17  19  8
18  20  8
19  21  8
15  2  3
20  22  8
21  22  8
11  3  3
12  4  3
13  5  3

$$$$
