14162621
 OpenBabel06101807152D

 41 44  0  0  0  0  0  0  0  0999 V2000
   10.4366    0.7056    0.0000 O   0  0  0  0  0  0  0  0  0  0  0  0
    6.9006    0.7334    0.0000 O   0  0  0  0  0  0  0  0  0  0  0  0
    8.6605   -2.3013    0.0000 O   0  0  0  0  0  0  0  0  0  0  0  0
    6.9121   -2.3359    0.0000 O   0  0  0  0  0  0  0  0  0  0  0  0
    2.5381    2.2329    0.0000 O   0  0  0  0  0  0  0  0  0  0  0  0
   10.4446    1.7472    0.0000 C   0  0  0  0  0  0  0  0  0  0  0  0
    8.6605    0.6987    0.0000 C   0  0  0  0  0  0  0  0  0  0  0  0
    9.5266    0.1987    0.0000 C   0  0  0  0  0  0  0  0  0  0  0  0
    9.5425    2.2680    0.0000 C   0  0  0  0  0  0  0  0  0  0  0  0
    7.7945    0.1987    0.0000 C   0  0  0  0  0  0  0  0  0  0  0  0
    8.6445    1.7402    0.0000 C   0  0  0  0  0  0  0  0  0  0  0  0
   10.9479    2.6113    0.0000 C   0  0  0  0  0  0  0  0  0  0  0  0
   11.4446    1.7433    0.0000 C   0  0  0  0  0  0  0  0  0  0  0  0
    7.7945   -0.8013    0.0000 C   0  0  0  0  0  0  0  0  0  0  0  0
    9.5266   -0.8013    0.0000 C   0  0  0  0  0  0  0  0  0  0  0  0
    8.6605   -1.3013    0.0000 C   0  0  0  0  0  0  0  0  0  0  0  0
    6.9006   -1.3359    0.0000 C   0  0  0  0  0  0  0  0  0  0  0  0
    5.9945    0.2195    0.0000 C   0  0  0  0  0  0  0  0  0  0  0  0
    5.9945   -0.8221    0.0000 C   0  0  0  0  0  0  0  0  0  0  0  0
    5.1304    0.7229    0.0000 C   0  0  0  0  0  0  0  0  0  0  0  0
    5.1343    1.7229    0.0000 C   0  0  0  0  0  0  0  0  0  0  0  0
    4.2625    0.2262    0.0000 C   0  0  0  0  0  0  0  0  0  0  0  0
    4.2702    2.2262    0.0000 C   0  0  0  0  0  0  0  0  0  0  0  0
    3.3984    0.7296    0.0000 C   0  0  0  0  0  0  0  0  0  0  0  0
    3.4022    1.7296    0.0000 C   0  0  0  0  0  0  0  0  0  0  0  0
    9.5401    2.8880    0.0000 H   0  0  0  0  0  0  0  0  0  0  0  0
    8.1040    2.0440    0.0000 H   0  0  0  0  0  0  0  0  0  0  0  0
   11.4837    2.2992    0.0000 H   0  0  0  0  0  0  0  0  0  0  0  0
   11.2600    3.1470    0.0000 H   0  0  0  0  0  0  0  0  0  0  0  0
   11.4422    1.1233    0.0000 H   0  0  0  0  0  0  0  0  0  0  0  0
   12.0646    1.7409    0.0000 H   0  0  0  0  0  0  0  0  0  0  0  0
   11.4470    2.3633    0.0000 H   0  0  0  0  0  0  0  0  0  0  0  0
   10.4122    2.9233    0.0000 H   0  0  0  0  0  0  0  0  0  0  0  0
   10.0635   -1.1113    0.0000 H   0  0  0  0  0  0  0  0  0  0  0  0
    5.4588   -1.1342    0.0000 H   0  0  0  0  0  0  0  0  0  0  0  0
    9.1975   -2.6113    0.0000 H   0  0  0  0  0  0  0  0  0  0  0  0
    5.6724    2.0308    0.0000 H   0  0  0  0  0  0  0  0  0  0  0  0
    4.2601   -0.3938    0.0000 H   0  0  0  0  0  0  0  0  0  0  0  0
    4.2726    2.8462    0.0000 H   0  0  0  0  0  0  0  0  0  0  0  0
    2.8602    0.4216    0.0000 H   0  0  0  0  0  0  0  0  0  0  0  0
    2.0000    1.9250    0.0000 H   0  0  0  0  0  0  0  0  0  0  0  0
  1  6  1  0  0  0  0
  1  8  1  0  0  0  0
  2 10  1  0  0  0  0
  2 18  1  0  0  0  0
  3 16  1  0  0  0  0
  3 36  1  0  0  0  0
  4 17  2  0  0  0  0
  5 25  1  0  0  0  0
  5 41  1  0  0  0  0
  6  9  1  0  0  0  0
  6 12  1  0  0  0  0
  6 13  1  0  0  0  0
  7  8  2  0  0  0  0
  7 10  1  0  0  0  0
  7 11  1  0  0  0  0
  8 15  1  0  0  0  0
  9 11  2  0  0  0  0
  9 26  1  0  0  0  0
 10 14  2  0  0  0  0
 11 27  1  0  0  0  0
 12 28  1  0  0  0  0
 12 29  1  0  0  0  0
 12 33  1  0  0  0  0
 13 30  1  0  0  0  0
 13 31  1  0  0  0  0
 13 32  1  0  0  0  0
 14 16  1  0  0  0  0
 14 17  1  0  0  0  0
 15 16  2  0  0  0  0
 15 34  1  0  0  0  0
 17 19  1  0  0  0  0
 18 19  2  0  0  0  0
 18 20  1  0  0  0  0
 19 35  1  0  0  0  0
 20 21  2  0  0  0  0
 20 22  1  0  0  0  0
 21 23  1  0  0  0  0
 21 37  1  0  0  0  0
 22 24  2  0  0  0  0
 22 38  1  0  0  0  0
 23 25  2  0  0  0  0
 23 39  1  0  0  0  0
 24 25  1  0  0  0  0
 24 40  1  0  0  0  0
M  END
>  <PUBCHEM_COMPOUND_CID>
14162621

>  <PUBCHEM_COMPOUND_CANONICALIZED>
1

>  <PUBCHEM_CACTVS_COMPLEXITY>
599

>  <PUBCHEM_CACTVS_HBOND_ACCEPTOR>
5

>  <PUBCHEM_CACTVS_HBOND_DONOR>
2

>  <PUBCHEM_CACTVS_ROTATABLE_BOND>
1

>  <PUBCHEM_CACTVS_SUBSKEYS>
AAADceB4OAAAAAAAAAAAAAAAAAAAAAAAAAAwYIEAAAAAAACBQAAAGgAACAAADESAmAAyBoAABgCIAqBSAAACCAAkIAAIiAEGCMgMJzaGNRqCeWCl4BUIuQeI7OzOIAACCAAIAABAAAQQABAAAAAAAAAAAA==

>  <PUBCHEM_IUPAC_OPENEYE_NAME>
5-hydroxy-2-(4-hydroxyphenyl)-8,8-dimethyl-pyrano[2,3-h]chromen-4-one

>  <PUBCHEM_IUPAC_CAS_NAME>
5-hydroxy-2-(4-hydroxyphenyl)-8,8-dimethyl-4-pyrano[2,3-h][1]benzopyranone

>  <PUBCHEM_IUPAC_NAME>
5-hydroxy-2-(4-hydroxyphenyl)-8,8-dimethylpyrano[2,3-h]chromen-4-one

>  <PUBCHEM_IUPAC_SYSTEMATIC_NAME>
2-(4-hydroxyphenyl)-8,8-dimethyl-5-oxidanyl-pyrano[2,3-h]chromen-4-one

>  <PUBCHEM_IUPAC_TRADITIONAL_NAME>
5-hydroxy-2-(4-hydroxyphenyl)-8,8-dimethyl-pyrano[2,3-h]chromen-4-one

>  <PUBCHEM_IUPAC_INCHI>
InChI=1S/C20H16O5/c1-20(2)8-7-13-17(25-20)10-15(23)18-14(22)9-16(24-19(13)18)11-3-5-12(21)6-4-11/h3-10,21,23H,1-2H3

>  <PUBCHEM_IUPAC_INCHIKEY>
YEUHAZULDUVZLA-UHFFFAOYSA-N

>  <PUBCHEM_XLOGP3>
3

>  <PUBCHEM_EXACT_MASS>
336.1

>  <PUBCHEM_MOLECULAR_FORMULA>
C20H16O5

>  <PUBCHEM_MOLECULAR_WEIGHT>
336.343

>  <PUBCHEM_OPENEYE_CAN_SMILES>
CC1(C=CC2=C3C(=C(C=C2O1)O)C(=O)C=C(O3)C4=CC=C(C=C4)O)C

>  <PUBCHEM_OPENEYE_ISO_SMILES>
CC1(C=CC2=C3C(=C(C=C2O1)O)C(=O)C=C(O3)C4=CC=C(C=C4)O)C

>  <PUBCHEM_CACTVS_TPSA>
76

>  <PUBCHEM_MONOISOTOPIC_WEIGHT>
336.1

>  <PUBCHEM_TOTAL_CHARGE>
0

>  <PUBCHEM_HEAVY_ATOM_COUNT>
25

>  <PUBCHEM_ATOM_DEF_STEREO_COUNT>
0

>  <PUBCHEM_ATOM_UDEF_STEREO_COUNT>
0

>  <PUBCHEM_BOND_DEF_STEREO_COUNT>
0

>  <PUBCHEM_BOND_UDEF_STEREO_COUNT>
0

>  <PUBCHEM_ISOTOPIC_ATOM_COUNT>
0

>  <PUBCHEM_COMPONENT_COUNT>
1

>  <PUBCHEM_CACTVS_TAUTO_COUNT>
29

>  <PUBCHEM_COORDINATE_TYPE>
1
5
255

>  <PUBCHEM_BONDANNOTATIONS>
10  14  8
14  16  8
14  17  8
15  16  8
17  19  8
18  19  8
2  10  8
2  18  8
20  21  8
20  22  8
21  23  8
22  24  8
23  25  8
24  25  8
7  10  8
7  8  8
8  15  8

$$$$
