14160539
 OpenBabel06101807152D

 52 55  0  0  1  0  0  0  0  0999 V2000
    6.8536    0.7928    0.0000 O   0  0  0  0  0  0  0  0  0  0  0  0
    5.5177   -1.6657    0.0000 O   0  0  0  0  0  0  0  0  0  0  0  0
    2.1106    1.6053    0.0000 O   0  0  0  0  0  0  0  0  0  0  0  0
    6.7168   -0.4158    0.0000 O   0  0  0  0  0  0  0  0  0  0  0  0
    2.6346   -2.5532    0.0000 O   0  0  0  0  0  0  0  0  0  0  0  0
    4.3664   -2.5835    0.0000 O   0  0  0  0  0  0  0  0  0  0  0  0
    5.1708    0.9824    0.0000 C   0  0  3  0  0  0  0  0  0  0  0  0
    4.2699    1.4163    0.0000 C   0  0  3  0  0  0  0  0  0  0  0  0
    3.5848    0.6960    0.0000 C   0  0  3  0  0  0  0  0  0  0  0  0
    4.0566   -0.1790    0.0000 C   0  0  3  0  0  0  0  0  0  0  0  0
    5.0349   -0.0023    0.0000 C   0  0  3  0  0  0  0  0  0  0  0  0
    5.0640    2.1592    0.0000 C   0  0  0  0  0  0  0  0  0  0  0  0
    6.0718    1.4163    0.0000 C   0  0  3  0  0  0  0  0  0  0  0  0
    5.6708    3.1731    0.0000 C   0  0  3  0  0  0  0  0  0  0  0  0
    4.0474    2.3912    0.0000 C   0  0  0  0  0  0  0  0  0  0  0  0
    3.5267   -1.0686    0.0000 C   0  0  3  0  0  0  0  0  0  0  0  0
    2.5503    0.7421    0.0000 C   0  0  0  0  0  0  0  0  0  0  0  0
    4.6708    3.1731    0.0000 C   0  0  0  0  0  0  0  0  0  0  0  0
    6.2943    2.3912    0.0000 C   0  0  0  0  0  0  0  0  0  0  0  0
    2.4915   -1.0465    0.0000 C   0  0  0  0  0  0  0  0  0  0  0  0
    2.0000   -0.1350    0.0000 C   0  0  0  0  0  0  0  0  0  0  0  0
    3.1102    1.5762    0.0000 C   0  0  0  0  0  0  0  0  0  0  0  0
    5.7565   -0.6946    0.0000 C   0  0  0  0  0  0  0  0  0  0  0  0
    4.3838   -1.5836    0.0000 C   0  0  0  0  0  0  0  0  0  0  0  0
    3.5092   -2.0684    0.0000 C   0  0  0  0  0  0  0  0  0  0  0  0
    7.2693    2.6138    0.0000 C   0  0  0  0  0  0  0  0  0  0  0  0
    3.6720    1.5805    0.0000 H   0  0  0  0  0  0  0  0  0  0  0  0
    4.4098   -0.6885    0.0000 H   0  0  0  0  0  0  0  0  0  0  0  0
    4.8558   -0.5959    0.0000 H   0  0  0  0  0  0  0  0  0  0  0  0
    4.6562    2.6262    0.0000 H   0  0  0  0  0  0  0  0  0  0  0  0
    4.4940    1.9154    0.0000 H   0  0  0  0  0  0  0  0  0  0  0  0
    6.0024    0.8002    0.0000 H   0  0  0  0  0  0  0  0  0  0  0  0
    5.9399    3.7317    0.0000 H   0  0  0  0  0  0  0  0  0  0  0  0
    3.6608    2.8760    0.0000 H   0  0  0  0  0  0  0  0  0  0  0  0
    3.4888    2.1222    0.0000 H   0  0  0  0  0  0  0  0  0  0  0  0
    2.6835    1.3476    0.0000 H   0  0  0  0  0  0  0  0  0  0  0  0
    1.9765    0.9769    0.0000 H   0  0  0  0  0  0  0  0  0  0  0  0
    4.8088    3.7775    0.0000 H   0  0  0  0  0  0  0  0  0  0  0  0
    4.1123    3.4421    0.0000 H   0  0  0  0  0  0  0  0  0  0  0  0
    1.9034   -1.2430    0.0000 H   0  0  0  0  0  0  0  0  0  0  0  0
    2.5845   -1.6594    0.0000 H   0  0  0  0  0  0  0  0  0  0  0  0
    1.5390    0.2795    0.0000 H   0  0  0  0  0  0  0  0  0  0  0  0
    1.5127   -0.5184    0.0000 H   0  0  0  0  0  0  0  0  0  0  0  0
    3.4356    2.1039    0.0000 H   0  0  0  0  0  0  0  0  0  0  0  0
    4.0645   -2.1150    0.0000 H   0  0  0  0  0  0  0  0  0  0  0  0
    4.9153   -1.9030    0.0000 H   0  0  0  0  0  0  0  0  0  0  0  0
    4.7032   -1.0522    0.0000 H   0  0  0  0  0  0  0  0  0  0  0  0
    7.4308    1.0193    0.0000 H   0  0  0  0  0  0  0  0  0  0  0  0
    7.6910    2.1593    0.0000 H   0  0  0  0  0  0  0  0  0  0  0  0
    7.4520    3.2062    0.0000 H   0  0  0  0  0  0  0  0  0  0  0  0
    5.9651   -2.0949    0.0000 H   0  0  0  0  0  0  0  0  0  0  0  0
    2.6237   -3.1731    0.0000 H   0  0  0  0  0  0  0  0  0  0  0  0
  1 13  1  0  0  0  0
  1 48  1  0  0  0  0
  2 23  1  0  0  0  0
  2 51  1  0  0  0  0
  3 22  2  0  0  0  0
  4 23  2  0  0  0  0
  5 25  1  0  0  0  0
  5 52  1  0  0  0  0
  6 25  2  0  0  0  0
  7  8  1  0  0  0  0
  7 11  1  0  0  0  0
  7 12  1  0  0  0  0
  7 13  1  0  0  0  0
  8  9  1  0  0  0  0
  8 15  1  0  0  0  0
  8 27  1  0  0  0  0
  9 10  1  0  0  0  0
  9 17  1  0  0  0  0
  9 22  1  0  0  0  0
 10 11  1  0  0  0  0
 10 16  1  0  0  0  0
 10 28  1  0  0  0  0
 11 23  1  0  0  0  0
 11 29  1  0  0  0  0
 12 14  1  0  0  0  0
 12 30  1  0  0  0  0
 12 31  1  0  0  0  0
 13 19  1  0  0  0  0
 13 32  1  0  0  0  0
 14 18  1  0  0  0  0
 14 19  1  0  0  0  0
 14 33  1  0  0  0  0
 15 18  1  0  0  0  0
 15 34  1  0  0  0  0
 15 35  1  0  0  0  0
 16 20  1  0  0  0  0
 16 24  1  0  0  0  0
 16 25  1  0  0  0  0
 17 21  1  0  0  0  0
 17 36  1  0  0  0  0
 17 37  1  0  0  0  0
 18 38  1  0  0  0  0
 18 39  1  0  0  0  0
 19 26  2  0  0  0  0
 20 21  1  0  0  0  0
 20 40  1  0  0  0  0
 20 41  1  0  0  0  0
 21 42  1  0  0  0  0
 21 43  1  0  0  0  0
 22 44  1  0  0  0  0
 24 45  1  0  0  0  0
 24 46  1  0  0  0  0
 24 47  1  0  0  0  0
 26 49  1  0  0  0  0
 26 50  1  0  0  0  0
M  END
>  <PUBCHEM_COMPOUND_CID>
14160539

>  <PUBCHEM_COMPOUND_CANONICALIZED>
1

>  <PUBCHEM_CACTVS_COMPLEXITY>
715

>  <PUBCHEM_CACTVS_HBOND_ACCEPTOR>
6

>  <PUBCHEM_CACTVS_HBOND_DONOR>
3

>  <PUBCHEM_CACTVS_ROTATABLE_BOND>
3

>  <PUBCHEM_CACTVS_SUBSKEYS>
AAADceB4OAAAAAAAAAAAAAAAAAAAAYMAAAAwYAAABgAAAGDAAAAAGgAACAAADxSggAICCAAAAgCIAgjSiAAAAAAgAAAAAAEAAAgAFBIAAQAAQAAEgAAAEAHK7vDPgAAAAAAAAACAAAQAACAAAYAADAAAAA==

>  <PUBCHEM_IUPAC_INCHI>
InChI=1S/C20H26O6/c1-10-11-4-5-12-19(9-21)7-3-6-18(2,17(25)26)14(19)13(16(23)24)20(12,8-11)15(10)22/h9,11-15,22H,1,3-8H2,2H3,(H,23,24)(H,25,26)

>  <PUBCHEM_IUPAC_INCHIKEY>
XIYAYYIGCSWTQO-UHFFFAOYSA-N

>  <PUBCHEM_XLOGP3_AA>
1

>  <PUBCHEM_EXACT_MASS>
362.173

>  <PUBCHEM_MOLECULAR_FORMULA>
C20H26O6

>  <PUBCHEM_MOLECULAR_WEIGHT>
362.422

>  <PUBCHEM_OPENEYE_CAN_SMILES>
CC1(CCCC2(C1C(C34C2CCC(C3)C(=C)C4O)C(=O)O)C=O)C(=O)O

>  <PUBCHEM_OPENEYE_ISO_SMILES>
CC1(CCCC2(C1C(C34C2CCC(C3)C(=C)C4O)C(=O)O)C=O)C(=O)O

>  <PUBCHEM_CACTVS_TPSA>
112

>  <PUBCHEM_MONOISOTOPIC_WEIGHT>
362.173

>  <PUBCHEM_TOTAL_CHARGE>
0

>  <PUBCHEM_HEAVY_ATOM_COUNT>
26

>  <PUBCHEM_ATOM_DEF_STEREO_COUNT>
0

>  <PUBCHEM_ATOM_UDEF_STEREO_COUNT>
8

>  <PUBCHEM_BOND_DEF_STEREO_COUNT>
0

>  <PUBCHEM_BOND_UDEF_STEREO_COUNT>
0

>  <PUBCHEM_ISOTOPIC_ATOM_COUNT>
0

>  <PUBCHEM_COMPONENT_COUNT>
1

>  <PUBCHEM_CACTVS_TAUTO_COUNT>
1

>  <PUBCHEM_COORDINATE_TYPE>
1
5
255

>  <PUBCHEM_BONDANNOTATIONS>
13  1  3
10  16  3
11  23  3
14  12  3
16  24  3
7  12  3
8  15  3
9  22  3

$$$$
