14160515
 OpenBabel06101807152D

 49 53  0  0  1  0  0  0  0  0999 V2000
    5.8776    0.5374    0.0000 O   0  0  0  0  0  0  0  0  0  0  0  0
    3.9066    0.9532    0.0000 O   0  0  0  0  0  0  0  0  0  0  0  0
    2.1162   -1.7746    0.0000 O   0  0  0  0  0  0  0  0  0  0  0  0
    8.2994    1.0940    0.0000 O   0  0  0  0  0  0  0  0  0  0  0  0
    4.8007    1.7658    0.0000 O   0  0  0  0  0  0  0  0  0  0  0  0
    6.5267    1.6203    0.0000 O   0  0  0  0  0  0  0  0  0  0  0  0
    4.8095   -0.3508    0.0000 C   0  0  3  0  0  0  0  0  0  0  0  0
    6.0235   -1.1965    0.0000 C   0  0  3  0  0  0  0  0  0  0  0  0
    5.1114   -1.2180    0.0000 C   0  0  3  0  0  0  0  0  0  0  0  0
    6.2865   -0.3224    0.0000 C   0  0  3  0  0  0  0  0  0  0  0  0
    5.5377    0.1984    0.0000 C   0  0  3  0  0  0  0  0  0  0  0  0
    7.2038   -0.1064    0.0000 C   0  0  3  0  0  0  0  0  0  0  0  0
    4.1135   -1.1832    0.0000 C   0  0  0  0  0  0  0  0  0  0  0  0
    3.9426   -0.0462    0.0000 C   0  0  3  0  0  0  0  0  0  0  0  0
    3.0606   -1.4458    0.0000 C   0  0  3  0  0  0  0  0  0  0  0  0
    4.6212   -1.9946    0.0000 C   0  0  0  0  0  0  0  0  0  0  0  0
    6.6612   -1.9110    0.0000 C   0  0  0  0  0  0  0  0  0  0  0  0
    3.7088   -2.0958    0.0000 C   0  0  0  0  0  0  0  0  0  0  0  0
    7.8489   -0.7926    0.0000 C   0  0  0  0  0  0  0  0  0  0  0  0
    3.1650   -0.5332    0.0000 C   0  0  0  0  0  0  0  0  0  0  0  0
    7.5774   -1.6953    0.0000 C   0  0  0  0  0  0  0  0  0  0  0  0
    7.4686    0.5374    0.0000 C   0  0  0  0  0  0  0  0  0  0  0  0
    5.6217    1.1949    0.0000 C   0  0  0  0  0  0  0  0  0  0  0  0
    8.1872    0.0748    0.0000 C   0  0  0  0  0  0  0  0  0  0  0  0
    2.3614    0.0619    0.0000 C   0  0  0  0  0  0  0  0  0  0  0  0
    5.4171   -1.7574    0.0000 H   0  0  0  0  0  0  0  0  0  0  0  0
    6.4025    0.2866    0.0000 H   0  0  0  0  0  0  0  0  0  0  0  0
    4.9949    0.4980    0.0000 H   0  0  0  0  0  0  0  0  0  0  0  0
    4.0706   -1.8018    0.0000 H   0  0  0  0  0  0  0  0  0  0  0  0
    4.6886   -1.4148    0.0000 H   0  0  0  0  0  0  0  0  0  0  0  0
    3.3949    0.2443    0.0000 H   0  0  0  0  0  0  0  0  0  0  0  0
    4.5506   -2.6105    0.0000 H   0  0  0  0  0  0  0  0  0  0  0  0
    5.2060   -2.2005    0.0000 H   0  0  0  0  0  0  0  0  0  0  0  0
    6.1369   -2.2419    0.0000 H   0  0  0  0  0  0  0  0  0  0  0  0
    6.9010   -2.4828    0.0000 H   0  0  0  0  0  0  0  0  0  0  0  0
    3.1834   -2.4249    0.0000 H   0  0  0  0  0  0  0  0  0  0  0  0
    3.9127   -2.6813    0.0000 H   0  0  0  0  0  0  0  0  0  0  0  0
    8.4025   -1.0716    0.0000 H   0  0  0  0  0  0  0  0  0  0  0  0
    8.2199   -0.2959    0.0000 H   0  0  0  0  0  0  0  0  0  0  0  0
    7.6126   -2.3143    0.0000 H   0  0  0  0  0  0  0  0  0  0  0  0
    8.1931   -1.7680    0.0000 H   0  0  0  0  0  0  0  0  0  0  0  0
    8.2995   -0.5350    0.0000 H   0  0  0  0  0  0  0  0  0  0  0  0
    8.7969    0.1871    0.0000 H   0  0  0  0  0  0  0  0  0  0  0  0
    8.0749    0.6845    0.0000 H   0  0  0  0  0  0  0  0  0  0  0  0
    3.3589    1.2437    0.0000 H   0  0  0  0  0  0  0  0  0  0  0  0
    2.0000   -2.3836    0.0000 H   0  0  0  0  0  0  0  0  0  0  0  0
    2.4318    0.6779    0.0000 H   0  0  0  0  0  0  0  0  0  0  0  0
    1.7927   -0.1851    0.0000 H   0  0  0  0  0  0  0  0  0  0  0  0
    4.8528    2.3836    0.0000 H   0  0  0  0  0  0  0  0  0  0  0  0
  1  8  1  0  0  0  0
  1 22  1  0  0  0  0
  2 14  1  0  0  0  0
  2 45  1  0  0  0  0
  3 15  1  0  0  0  0
  3 46  1  0  0  0  0
  4 22  2  0  0  0  0
  5 23  1  0  0  0  0
  5 49  1  0  0  0  0
  6 23  2  0  0  0  0
  7  9  1  0  0  0  0
  7 11  1  0  0  0  0
  7 13  1  0  0  0  0
  7 14  1  0  0  0  0
  8  9  1  0  0  0  0
  8 10  1  0  0  0  0
  8 17  1  0  0  0  0
  9 16  1  0  0  0  0
  9 26  1  0  0  0  0
 10 11  1  0  0  0  0
 10 12  1  0  0  0  0
 10 27  1  0  0  0  0
 11 23  1  0  0  0  0
 11 28  1  0  0  0  0
 12 19  1  0  0  0  0
 12 22  1  0  0  0  0
 12 24  1  0  0  0  0
 13 15  1  0  0  0  0
 13 29  1  0  0  0  0
 13 30  1  0  0  0  0
 14 20  1  0  0  0  0
 14 31  1  0  0  0  0
 15 18  1  0  0  0  0
 15 20  1  0  0  0  0
 16 18  1  0  0  0  0
 16 32  1  0  0  0  0
 16 33  1  0  0  0  0
 17 21  1  0  0  0  0
 17 34  1  0  0  0  0
 17 35  1  0  0  0  0
 18 36  1  0  0  0  0
 18 37  1  0  0  0  0
 19 21  1  0  0  0  0
 19 38  1  0  0  0  0
 19 39  1  0  0  0  0
 20 25  2  0  0  0  0
 21 40  1  0  0  0  0
 21 41  1  0  0  0  0
 24 42  1  0  0  0  0
 24 43  1  0  0  0  0
 24 44  1  0  0  0  0
 25 47  1  0  0  0  0
 25 48  1  0  0  0  0
M  END
>  <PUBCHEM_COMPOUND_CID>
14160515

>  <PUBCHEM_COMPOUND_CANONICALIZED>
1

>  <PUBCHEM_CACTVS_COMPLEXITY>
731

>  <PUBCHEM_CACTVS_HBOND_ACCEPTOR>
6

>  <PUBCHEM_CACTVS_HBOND_DONOR>
3

>  <PUBCHEM_CACTVS_ROTATABLE_BOND>
1

>  <PUBCHEM_CACTVS_SUBSKEYS>
AAADceB4OAAAAAAAAAAAAAAAAAAAAaMEAAAwYAAABogSAGDAAAAAGgAACAAAD1SggAICCAAABgCIAgDSCAAAAAAgAAAAAAEAAAgAFBIAAQACQAAFgAAAEAHK7vzPgAAAAAAAAADAAAYAADAAAYQADAAAAA==

>  <PUBCHEM_IUPAC_INCHI>
InChI=1S/C19H24O6/c1-9-13(20)18-8-17(9,24)7-4-10(18)19-6-3-5-16(2,15(23)25-19)12(19)11(18)14(21)22/h10-13,20,24H,1,3-8H2,2H3,(H,21,22)

>  <PUBCHEM_IUPAC_INCHIKEY>
VSDJZJDZDIIVFU-UHFFFAOYSA-N

>  <PUBCHEM_XLOGP3_AA>
0.1

>  <PUBCHEM_EXACT_MASS>
348.157

>  <PUBCHEM_MOLECULAR_FORMULA>
C19H24O6

>  <PUBCHEM_MOLECULAR_WEIGHT>
348.395

>  <PUBCHEM_OPENEYE_CAN_SMILES>
CC12CCCC3(C1C(C45C3CCC(C4)(C(=C)C5O)O)C(=O)O)OC2=O

>  <PUBCHEM_OPENEYE_ISO_SMILES>
CC12CCCC3(C1C(C45C3CCC(C4)(C(=C)C5O)O)C(=O)O)OC2=O

>  <PUBCHEM_CACTVS_TPSA>
104

>  <PUBCHEM_MONOISOTOPIC_WEIGHT>
348.157

>  <PUBCHEM_TOTAL_CHARGE>
0

>  <PUBCHEM_HEAVY_ATOM_COUNT>
25

>  <PUBCHEM_ATOM_DEF_STEREO_COUNT>
0

>  <PUBCHEM_ATOM_UDEF_STEREO_COUNT>
8

>  <PUBCHEM_BOND_DEF_STEREO_COUNT>
0

>  <PUBCHEM_BOND_UDEF_STEREO_COUNT>
0

>  <PUBCHEM_ISOTOPIC_ATOM_COUNT>
0

>  <PUBCHEM_COMPONENT_COUNT>
1

>  <PUBCHEM_CACTVS_TAUTO_COUNT>
1

>  <PUBCHEM_COORDINATE_TYPE>
1
5
255

>  <PUBCHEM_BONDANNOTATIONS>
10  11  3
11  23  3
12  24  3
14  2  3
15  3  3
7  13  3
8  17  3
9  16  3

$$$$
