14160541
 OpenBabel06101807152D

 53 56  0  0  1  0  0  0  0  0999 V2000
    7.0374    0.7928    0.0000 O   0  0  0  0  0  0  0  0  0  0  0  0
    2.2943    1.6053    0.0000 O   0  0  0  0  0  0  0  0  0  0  0  0
    5.7014   -1.6657    0.0000 O   0  0  0  0  0  0  0  0  0  0  0  0
    3.3229    2.5758    0.0000 O   0  0  0  0  0  0  0  0  0  0  0  0
    6.9005   -0.4158    0.0000 O   0  0  0  0  0  0  0  0  0  0  0  0
    2.8183   -2.5532    0.0000 O   0  0  0  0  0  0  0  0  0  0  0  0
    4.5500   -2.5835    0.0000 O   0  0  0  0  0  0  0  0  0  0  0  0
    5.3546    0.9824    0.0000 C   0  0  3  0  0  0  0  0  0  0  0  0
    4.4536    1.4163    0.0000 C   0  0  3  0  0  0  0  0  0  0  0  0
    3.7685    0.6960    0.0000 C   0  0  3  0  0  0  0  0  0  0  0  0
    4.2403   -0.1790    0.0000 C   0  0  3  0  0  0  0  0  0  0  0  0
    5.2186   -0.0023    0.0000 C   0  0  3  0  0  0  0  0  0  0  0  0
    5.2477    2.1592    0.0000 C   0  0  0  0  0  0  0  0  0  0  0  0
    6.2555    1.4163    0.0000 C   0  0  3  0  0  0  0  0  0  0  0  0
    5.8546    3.1731    0.0000 C   0  0  3  0  0  0  0  0  0  0  0  0
    4.2311    2.3912    0.0000 C   0  0  0  0  0  0  0  0  0  0  0  0
    3.7104   -1.0686    0.0000 C   0  0  3  0  0  0  0  0  0  0  0  0
    2.7340    0.7421    0.0000 C   0  0  0  0  0  0  0  0  0  0  0  0
    4.8546    3.1731    0.0000 C   0  0  0  0  0  0  0  0  0  0  0  0
    6.4780    2.3912    0.0000 C   0  0  0  0  0  0  0  0  0  0  0  0
    2.6752   -1.0465    0.0000 C   0  0  0  0  0  0  0  0  0  0  0  0
    2.1837   -0.1350    0.0000 C   0  0  0  0  0  0  0  0  0  0  0  0
    3.2938    1.5762    0.0000 C   0  0  0  0  0  0  0  0  0  0  0  0
    5.9402   -0.6946    0.0000 C   0  0  0  0  0  0  0  0  0  0  0  0
    4.5675   -1.5836    0.0000 C   0  0  0  0  0  0  0  0  0  0  0  0
    3.6929   -2.0684    0.0000 C   0  0  0  0  0  0  0  0  0  0  0  0
    7.4530    2.6138    0.0000 C   0  0  0  0  0  0  0  0  0  0  0  0
    3.8557    1.5805    0.0000 H   0  0  0  0  0  0  0  0  0  0  0  0
    4.5935   -0.6885    0.0000 H   0  0  0  0  0  0  0  0  0  0  0  0
    5.8042    0.2012    0.0000 H   0  0  0  0  0  0  0  0  0  0  0  0
    4.8399    2.6262    0.0000 H   0  0  0  0  0  0  0  0  0  0  0  0
    4.6777    1.9154    0.0000 H   0  0  0  0  0  0  0  0  0  0  0  0
    6.8407    1.6211    0.0000 H   0  0  0  0  0  0  0  0  0  0  0  0
    6.1236    3.7317    0.0000 H   0  0  0  0  0  0  0  0  0  0  0  0
    3.8445    2.8760    0.0000 H   0  0  0  0  0  0  0  0  0  0  0  0
    3.6725    2.1222    0.0000 H   0  0  0  0  0  0  0  0  0  0  0  0
    2.8672    1.3476    0.0000 H   0  0  0  0  0  0  0  0  0  0  0  0
    2.1602    0.9769    0.0000 H   0  0  0  0  0  0  0  0  0  0  0  0
    4.9925    3.7775    0.0000 H   0  0  0  0  0  0  0  0  0  0  0  0
    4.2960    3.4421    0.0000 H   0  0  0  0  0  0  0  0  0  0  0  0
    2.0871   -1.2430    0.0000 H   0  0  0  0  0  0  0  0  0  0  0  0
    2.7682   -1.6594    0.0000 H   0  0  0  0  0  0  0  0  0  0  0  0
    1.7226    0.2795    0.0000 H   0  0  0  0  0  0  0  0  0  0  0  0
    1.6964   -0.5184    0.0000 H   0  0  0  0  0  0  0  0  0  0  0  0
    4.2482   -2.1150    0.0000 H   0  0  0  0  0  0  0  0  0  0  0  0
    5.0990   -1.9030    0.0000 H   0  0  0  0  0  0  0  0  0  0  0  0
    4.8869   -1.0522    0.0000 H   0  0  0  0  0  0  0  0  0  0  0  0
    7.6145    1.0193    0.0000 H   0  0  0  0  0  0  0  0  0  0  0  0
    7.8747    2.1593    0.0000 H   0  0  0  0  0  0  0  0  0  0  0  0
    7.6357    3.2062    0.0000 H   0  0  0  0  0  0  0  0  0  0  0  0
    2.0000    2.1510    0.0000 H   0  0  0  0  0  0  0  0  0  0  0  0
    6.1488   -2.0949    0.0000 H   0  0  0  0  0  0  0  0  0  0  0  0
    2.8074   -3.1731    0.0000 H   0  0  0  0  0  0  0  0  0  0  0  0
  1 14  1  0  0  0  0
  1 48  1  0  0  0  0
  2 23  1  0  0  0  0
  2 51  1  0  0  0  0
  3 24  1  0  0  0  0
  3 52  1  0  0  0  0
  4 23  2  0  0  0  0
  5 24  2  0  0  0  0
  6 26  1  0  0  0  0
  6 53  1  0  0  0  0
  7 26  2  0  0  0  0
  8  9  1  0  0  0  0
  8 12  1  0  0  0  0
  8 13  1  0  0  0  0
  8 14  1  0  0  0  0
  9 10  1  0  0  0  0
  9 16  1  0  0  0  0
  9 28  1  0  0  0  0
 10 11  1  0  0  0  0
 10 18  1  0  0  0  0
 10 23  1  0  0  0  0
 11 12  1  0  0  0  0
 11 17  1  0  0  0  0
 11 29  1  0  0  0  0
 12 24  1  0  0  0  0
 12 30  1  0  0  0  0
 13 15  1  0  0  0  0
 13 31  1  0  0  0  0
 13 32  1  0  0  0  0
 14 20  1  0  0  0  0
 14 33  1  0  0  0  0
 15 19  1  0  0  0  0
 15 20  1  0  0  0  0
 15 34  1  0  0  0  0
 16 19  1  0  0  0  0
 16 35  1  0  0  0  0
 16 36  1  0  0  0  0
 17 21  1  0  0  0  0
 17 25  1  0  0  0  0
 17 26  1  0  0  0  0
 18 22  1  0  0  0  0
 18 37  1  0  0  0  0
 18 38  1  0  0  0  0
 19 39  1  0  0  0  0
 19 40  1  0  0  0  0
 20 27  2  0  0  0  0
 21 22  1  0  0  0  0
 21 41  1  0  0  0  0
 21 42  1  0  0  0  0
 22 43  1  0  0  0  0
 22 44  1  0  0  0  0
 25 45  1  0  0  0  0
 25 46  1  0  0  0  0
 25 47  1  0  0  0  0
 27 49  1  0  0  0  0
 27 50  1  0  0  0  0
M  END
>  <PUBCHEM_COMPOUND_CID>
14160541

>  <PUBCHEM_COMPOUND_CANONICALIZED>
1

>  <PUBCHEM_CACTVS_COMPLEXITY>
759

>  <PUBCHEM_CACTVS_HBOND_ACCEPTOR>
7

>  <PUBCHEM_CACTVS_HBOND_DONOR>
4

>  <PUBCHEM_CACTVS_ROTATABLE_BOND>
3

>  <PUBCHEM_CACTVS_SUBSKEYS>
AAADceB4OAAAAAAAAAAAAAAAAAAAAYMAAAAwYAAABgAAAGDAAAAAGgAACAAADxSggAICCAAAAgCIAgDSCAAAAAAgAAAAAAEAAAgAFBIAAQAAQAAEgAAAEAHK7vTPgAAAAAAAAACAAAQAACAAAYAADAAAAA==

>  <PUBCHEM_IUPAC_INCHI>
InChI=1S/C20H26O7/c1-9-10-4-5-11-19(17(26)27)7-3-6-18(2,16(24)25)13(19)12(15(22)23)20(11,8-10)14(9)21/h10-14,21H,1,3-8H2,2H3,(H,22,23)(H,24,25)(H,26,27)

>  <PUBCHEM_IUPAC_INCHIKEY>
GYALTOSSVLCVLA-UHFFFAOYSA-N

>  <PUBCHEM_XLOGP3_AA>
1.1

>  <PUBCHEM_EXACT_MASS>
378.168

>  <PUBCHEM_MOLECULAR_FORMULA>
C20H26O7

>  <PUBCHEM_MOLECULAR_WEIGHT>
378.421

>  <PUBCHEM_OPENEYE_CAN_SMILES>
CC1(CCCC2(C1C(C34C2CCC(C3)C(=C)C4O)C(=O)O)C(=O)O)C(=O)O

>  <PUBCHEM_OPENEYE_ISO_SMILES>
CC1(CCCC2(C1C(C34C2CCC(C3)C(=C)C4O)C(=O)O)C(=O)O)C(=O)O

>  <PUBCHEM_CACTVS_TPSA>
132

>  <PUBCHEM_MONOISOTOPIC_WEIGHT>
378.168

>  <PUBCHEM_TOTAL_CHARGE>
0

>  <PUBCHEM_HEAVY_ATOM_COUNT>
27

>  <PUBCHEM_ATOM_DEF_STEREO_COUNT>
0

>  <PUBCHEM_ATOM_UDEF_STEREO_COUNT>
8

>  <PUBCHEM_BOND_DEF_STEREO_COUNT>
0

>  <PUBCHEM_BOND_UDEF_STEREO_COUNT>
0

>  <PUBCHEM_ISOTOPIC_ATOM_COUNT>
0

>  <PUBCHEM_COMPONENT_COUNT>
1

>  <PUBCHEM_CACTVS_TAUTO_COUNT>
1

>  <PUBCHEM_COORDINATE_TYPE>
1
5
255

>  <PUBCHEM_BONDANNOTATIONS>
14  1  3
10  23  3
11  17  3
12  24  3
15  13  3
17  25  3
8  13  3
9  16  3

$$$$
