14186205
 OpenBabel06101807152D

195204  0  0  1  0  0  0  0  0999 V2000
    6.8671   -5.3672    0.0000 O   0  0  0  0  0  0  0  0  0  0  0  0
    8.6424    3.9872    0.0000 O   0  0  0  0  0  0  0  0  0  0  0  0
    6.8270    5.0261    0.0000 O   0  0  0  0  0  0  0  0  0  0  0  0
    9.3112   -4.6756    0.0000 O   0  0  0  0  0  0  0  0  0  0  0  0
    5.1350   -5.3672    0.0000 O   0  0  0  0  0  0  0  0  0  0  0  0
    7.7764    5.4873    0.0000 O   0  0  0  0  0  0  0  0  0  0  0  0
    6.8671   -7.3672    0.0000 O   0  0  0  0  0  0  0  0  0  0  0  0
   10.3745    4.9873    0.0000 O   0  0  0  0  0  0  0  0  0  0  0  0
    5.1350   -8.3672    0.0000 O   0  0  0  0  0  0  0  0  0  0  0  0
   10.3745    6.9872    0.0000 O   0  0  0  0  0  0  0  0  0  0  0  0
    3.4030   -7.3672    0.0000 O   0  0  0  0  0  0  0  0  0  0  0  0
    8.6424    7.9872    0.0000 O   0  0  0  0  0  0  0  0  0  0  0  0
    6.0010   -8.8672    0.0000 O   0  0  0  0  0  0  0  0  0  0  0  0
    2.5369   -5.8672    0.0000 O   0  0  0  0  0  0  0  0  0  0  0  0
    3.4030   -4.3672    0.0000 O   0  0  0  0  0  0  0  0  0  0  0  0
    8.5991   -8.3672    0.0000 O   0  0  0  0  0  0  0  0  0  0  0  0
    9.5085    8.4872    0.0000 O   0  0  0  0  0  0  0  0  0  0  0  0
    8.5991  -10.3673    0.0000 O   0  0  0  0  0  0  0  0  0  0  0  0
   12.1066    7.9872    0.0000 O   0  0  0  0  0  0  0  0  0  0  0  0
    6.8671  -11.3673    0.0000 O   0  0  0  0  0  0  0  0  0  0  0  0
   12.1066    9.9872    0.0000 O   0  0  0  0  0  0  0  0  0  0  0  0
    9.4651   -9.8672    0.0000 O   0  0  0  0  0  0  0  0  0  0  0  0
   10.3745   10.9873    0.0000 O   0  0  0  0  0  0  0  0  0  0  0  0
    5.1350  -11.3673    0.0000 O   0  0  0  0  0  0  0  0  0  0  0  0
   10.3312   -7.3672    0.0000 O   0  0  0  0  0  0  0  0  0  0  0  0
   12.0632   -8.3672    0.0000 O   0  0  0  0  0  0  0  0  0  0  0  0
   12.9726    9.4872    0.0000 O   0  0  0  0  0  0  0  0  0  0  0  0
   12.0632  -10.3673    0.0000 O   0  0  0  0  0  0  0  0  0  0  0  0
   11.2405   11.4873    0.0000 O   0  0  0  0  0  0  0  0  0  0  0  0
    8.6424   10.9873    0.0000 O   0  0  0  0  0  0  0  0  0  0  0  0
   11.1972  -11.8673    0.0000 O   0  0  0  0  0  0  0  0  0  0  0  0
    7.7681   -0.6670    0.0000 C   0  0  3  0  0  0  0  0  0  0  0  0
    6.9040   -1.1704    0.0000 C   0  0  3  0  0  0  0  0  0  0  0  0
    6.8920   -2.2119    0.0000 C   0  0  3  0  0  0  0  0  0  0  0  0
    7.7643    0.3330    0.0000 C   0  0  3  0  0  0  0  0  0  0  0  0
    7.7920   -2.7362    0.0000 C   0  0  3  0  0  0  0  0  0  0  0  0
    8.6801   -1.1704    0.0000 C   0  0  0  0  0  0  0  0  0  0  0  0
    6.8963    0.8296    0.0000 C   0  0  0  0  0  0  0  0  0  0  0  0
    6.8762    1.8711    0.0000 C   0  0  3  0  0  0  0  0  0  0  0  0
    8.6921   -2.2119    0.0000 C   0  0  0  0  0  0  0  0  0  0  0  0
    7.8046   -3.8211    0.0000 C   0  0  3  0  0  0  0  0  0  0  0  0
    7.7722    2.4023    0.0000 C   0  0  3  0  0  0  0  0  0  0  0  0
    8.6723    0.8433    0.0000 C   0  0  0  0  0  0  0  0  0  0  0  0
    6.0361   -0.6737    0.0000 C   0  0  0  0  0  0  0  0  0  0  0  0
    5.9421   -2.7362    0.0000 C   0  0  0  0  0  0  0  0  0  0  0  0
    8.6763    1.8849    0.0000 C   0  0  0  0  0  0  0  0  0  0  0  0
    8.7522   -0.4896    0.0000 C   0  0  0  0  0  0  0  0  0  0  0  0
    6.8671   -4.3672    0.0000 C   0  0  3  0  0  0  0  0  0  0  0  0
    6.0322    0.3263    0.0000 C   0  0  0  0  0  0  0  0  0  0  0  0
    6.0279   -1.7086    0.0000 C   0  0  0  0  0  0  0  0  0  0  0  0
    5.9295   -3.8211    0.0000 C   0  0  0  0  0  0  0  0  0  0  0  0
    8.7497    0.1631    0.0000 C   0  0  0  0  0  0  0  0  0  0  0  0
    5.9223    2.3880    0.0000 C   0  0  0  0  0  0  0  0  0  0  0  0
    7.7764    3.4872    0.0000 C   0  0  3  0  0  0  0  0  0  0  0  0
    5.9014    3.4728    0.0000 C   0  0  0  0  0  0  0  0  0  0  0  0
    6.8347    4.0261    0.0000 C   0  0  3  0  0  0  0  0  0  0  0  0
    8.8046   -3.8134    0.0000 C   0  0  0  0  0  0  0  0  0  0  0  0
    8.3113   -4.6833    0.0000 C   0  0  0  0  0  0  0  0  0  0  0  0
    8.6324    2.9122    0.0000 C   0  0  0  0  0  0  0  0  0  0  0  0
    4.9015    3.4574    0.0000 C   0  0  0  0  0  0  0  0  0  0  0  0
    5.3881    4.3310    0.0000 C   0  0  0  0  0  0  0  0  0  0  0  0
    6.0010   -5.8672    0.0000 C   0  0  3  0  0  0  0  0  0  0  0  0
    8.6424    4.9873    0.0000 C   0  0  3  0  0  0  0  0  0  0  0  0
    6.0010   -6.8672    0.0000 C   0  0  3  0  0  0  0  0  0  0  0  0
    9.5085    5.4873    0.0000 C   0  0  3  0  0  0  0  0  0  0  0  0
    5.1350   -7.3672    0.0000 C   0  0  3  0  0  0  0  0  0  0  0  0
    9.5085    6.4873    0.0000 C   0  0  3  0  0  0  0  0  0  0  0  0
    4.2690   -5.8672    0.0000 C   0  0  3  0  0  0  0  0  0  0  0  0
    4.2690   -6.8672    0.0000 C   0  0  3  0  0  0  0  0  0  0  0  0
    7.7764    6.4873    0.0000 C   0  0  0  0  0  0  0  0  0  0  0  0
    8.6424    6.9872    0.0000 C   0  0  3  0  0  0  0  0  0  0  0  0
    6.8671   -8.3672    0.0000 C   0  0  3  0  0  0  0  0  0  0  0  0
    3.4030   -5.3672    0.0000 C   0  0  0  0  0  0  0  0  0  0  0  0
    7.7331   -8.8672    0.0000 C   0  0  3  0  0  0  0  0  0  0  0  0
   10.3745    7.9872    0.0000 C   0  0  3  0  0  0  0  0  0  0  0  0
    7.7331   -9.8672    0.0000 C   0  0  3  0  0  0  0  0  0  0  0  0
    6.0010   -9.8672    0.0000 C   0  0  3  0  0  0  0  0  0  0  0  0
   11.2405    8.4872    0.0000 C   0  0  3  0  0  0  0  0  0  0  0  0
    6.8671  -10.3673    0.0000 C   0  0  3  0  0  0  0  0  0  0  0  0
   11.2405    9.4872    0.0000 C   0  0  3  0  0  0  0  0  0  0  0  0
    9.5085    9.4872    0.0000 C   0  0  0  0  0  0  0  0  0  0  0  0
    5.1350  -10.3673    0.0000 C   0  0  0  0  0  0  0  0  0  0  0  0
   10.3745    9.9872    0.0000 C   0  0  3  0  0  0  0  0  0  0  0  0
    9.4651   -8.8672    0.0000 C   0  0  3  0  0  0  0  0  0  0  0  0
   10.3312   -8.3672    0.0000 C   0  0  3  0  0  0  0  0  0  0  0  0
   11.1972   -8.8672    0.0000 C   0  0  3  0  0  0  0  0  0  0  0  0
   12.9726    8.4872    0.0000 C   0  0  0  0  0  0  0  0  0  0  0  0
   10.3312  -10.3673    0.0000 C   0  0  3  0  0  0  0  0  0  0  0  0
   11.1972   -9.8672    0.0000 C   0  0  3  0  0  0  0  0  0  0  0  0
   12.1066   10.9873    0.0000 C   0  0  0  0  0  0  0  0  0  0  0  0
    9.5085   11.4873    0.0000 C   0  0  0  0  0  0  0  0  0  0  0  0
   13.8386    7.9872    0.0000 C   0  0  0  0  0  0  0  0  0  0  0  0
   10.3312  -11.3673    0.0000 C   0  0  0  0  0  0  0  0  0  0  0  0
   12.9726   11.4873    0.0000 C   0  0  0  0  0  0  0  0  0  0  0  0
    9.5085   12.4873    0.0000 C   0  0  0  0  0  0  0  0  0  0  0  0
    7.4398   -1.4824    0.0000 H   0  0  0  0  0  0  0  0  0  0  0  0
    8.3314   -3.0421    0.0000 H   0  0  0  0  0  0  0  0  0  0  0  0
    9.2921   -1.2694    0.0000 H   0  0  0  0  0  0  0  0  0  0  0  0
    8.8824   -0.5843    0.0000 H   0  0  0  0  0  0  0  0  0  0  0  0
    6.3466    1.5487    0.0000 H   0  0  0  0  0  0  0  0  0  0  0  0
    8.9079   -2.7932    0.0000 H   0  0  0  0  0  0  0  0  0  0  0  0
    9.3017   -2.0988    0.0000 H   0  0  0  0  0  0  0  0  0  0  0  0
    8.8791    0.2588    0.0000 H   0  0  0  0  0  0  0  0  0  0  0  0
    9.2836    0.9470    0.0000 H   0  0  0  0  0  0  0  0  0  0  0  0
    5.4251   -0.5684    0.0000 H   0  0  0  0  0  0  0  0  0  0  0  0
    5.8263   -1.2571    0.0000 H   0  0  0  0  0  0  0  0  0  0  0  0
    5.7398   -2.1502    0.0000 H   0  0  0  0  0  0  0  0  0  0  0  0
    5.3300   -2.8352    0.0000 H   0  0  0  0  0  0  0  0  0  0  0  0
    9.2868    1.7765    0.0000 H   0  0  0  0  0  0  0  0  0  0  0  0
    8.8876    2.4678    0.0000 H   0  0  0  0  0  0  0  0  0  0  0  0
    8.8623   -1.0998    0.0000 H   0  0  0  0  0  0  0  0  0  0  0  0
    9.3624   -0.3796    0.0000 H   0  0  0  0  0  0  0  0  0  0  0  0
    8.6422    0.1206    0.0000 H   0  0  0  0  0  0  0  0  0  0  0  0
    7.4046   -4.6762    0.0000 H   0  0  0  0  0  0  0  0  0  0  0  0
    5.4941    0.6342    0.0000 H   0  0  0  0  0  0  0  0  0  0  0  0
    6.3400   -1.1729    0.0000 H   0  0  0  0  0  0  0  0  0  0  0  0
    5.4922   -1.3965    0.0000 H   0  0  0  0  0  0  0  0  0  0  0  0
    5.7158   -2.2443    0.0000 H   0  0  0  0  0  0  0  0  0  0  0  0
    5.3199   -3.7080    0.0000 H   0  0  0  0  0  0  0  0  0  0  0  0
    5.7137   -4.4024    0.0000 H   0  0  0  0  0  0  0  0  0  0  0  0
    8.6444   -0.4479    0.0000 H   0  0  0  0  0  0  0  0  0  0  0  0
    9.3607    0.0578    0.0000 H   0  0  0  0  0  0  0  0  0  0  0  0
    8.8550    0.7741    0.0000 H   0  0  0  0  0  0  0  0  0  0  0  0
    5.3095    2.4823    0.0000 H   0  0  0  0  0  0  0  0  0  0  0  0
    5.7246    1.8004    0.0000 H   0  0  0  0  0  0  0  0  0  0  0  0
    8.3128    3.1762    0.0000 H   0  0  0  0  0  0  0  0  0  0  0  0
    7.3698    4.3392    0.0000 H   0  0  0  0  0  0  0  0  0  0  0  0
    9.3855   -3.5969    0.0000 H   0  0  0  0  0  0  0  0  0  0  0  0
    8.6922   -3.2037    0.0000 H   0  0  0  0  0  0  0  0  0  0  0  0
    7.7767   -4.9974    0.0000 H   0  0  0  0  0  0  0  0  0  0  0  0
    8.6254   -5.2178    0.0000 H   0  0  0  0  0  0  0  0  0  0  0  0
    8.8458   -4.3692    0.0000 H   0  0  0  0  0  0  0  0  0  0  0  0
    8.9486    2.3789    0.0000 H   0  0  0  0  0  0  0  0  0  0  0  0
    9.1657    3.2284    0.0000 H   0  0  0  0  0  0  0  0  0  0  0  0
    8.3162    3.4456    0.0000 H   0  0  0  0  0  0  0  0  0  0  0  0
    4.8920    4.0773    0.0000 H   0  0  0  0  0  0  0  0  0  0  0  0
    4.2816    3.4478    0.0000 H   0  0  0  0  0  0  0  0  0  0  0  0
    4.9111    2.8375    0.0000 H   0  0  0  0  0  0  0  0  0  0  0  0
    5.9202    4.6492    0.0000 H   0  0  0  0  0  0  0  0  0  0  0  0
    5.0699    4.8631    0.0000 H   0  0  0  0  0  0  0  0  0  0  0  0
    4.8560    4.0128    0.0000 H   0  0  0  0  0  0  0  0  0  0  0  0
    6.2877    5.3320    0.0000 H   0  0  0  0  0  0  0  0  0  0  0  0
    6.0010   -5.2472    0.0000 H   0  0  0  0  0  0  0  0  0  0  0  0
    9.9312   -4.6708    0.0000 H   0  0  0  0  0  0  0  0  0  0  0  0
    8.1055    4.6772    0.0000 H   0  0  0  0  0  0  0  0  0  0  0  0
    6.0010   -7.4872    0.0000 H   0  0  0  0  0  0  0  0  0  0  0  0
   10.0454    5.7972    0.0000 H   0  0  0  0  0  0  0  0  0  0  0  0
    4.5981   -7.6772    0.0000 H   0  0  0  0  0  0  0  0  0  0  0  0
    9.5085    7.1072    0.0000 H   0  0  0  0  0  0  0  0  0  0  0  0
    4.2690   -5.2472    0.0000 H   0  0  0  0  0  0  0  0  0  0  0  0
    3.7320   -6.5572    0.0000 H   0  0  0  0  0  0  0  0  0  0  0  0
    7.5644    7.0699    0.0000 H   0  0  0  0  0  0  0  0  0  0  0  0
    7.1658    6.3796    0.0000 H   0  0  0  0  0  0  0  0  0  0  0  0
    8.1055    7.2972    0.0000 H   0  0  0  0  0  0  0  0  0  0  0  0
   10.9114    5.2972    0.0000 H   0  0  0  0  0  0  0  0  0  0  0  0
    7.4040   -8.0572    0.0000 H   0  0  0  0  0  0  0  0  0  0  0  0
    4.5981   -8.6773    0.0000 H   0  0  0  0  0  0  0  0  0  0  0  0
    3.4030   -7.9872    0.0000 H   0  0  0  0  0  0  0  0  0  0  0  0
    8.1055    8.2972    0.0000 H   0  0  0  0  0  0  0  0  0  0  0  0
    8.2700   -9.1773    0.0000 H   0  0  0  0  0  0  0  0  0  0  0  0
    9.8376    7.6772    0.0000 H   0  0  0  0  0  0  0  0  0  0  0  0
    7.7331  -10.4873    0.0000 H   0  0  0  0  0  0  0  0  0  0  0  0
    5.4641   -9.5572    0.0000 H   0  0  0  0  0  0  0  0  0  0  0  0
   11.7775    8.7972    0.0000 H   0  0  0  0  0  0  0  0  0  0  0  0
    2.0000   -5.5572    0.0000 H   0  0  0  0  0  0  0  0  0  0  0  0
    6.3301  -10.6773    0.0000 H   0  0  0  0  0  0  0  0  0  0  0  0
   11.2405   10.1073    0.0000 H   0  0  0  0  0  0  0  0  0  0  0  0
    9.2964   10.0699    0.0000 H   0  0  0  0  0  0  0  0  0  0  0  0
    8.8979    9.3796    0.0000 H   0  0  0  0  0  0  0  0  0  0  0  0
    4.9230   -9.7846    0.0000 H   0  0  0  0  0  0  0  0  0  0  0  0
    4.5244  -10.4749    0.0000 H   0  0  0  0  0  0  0  0  0  0  0  0
    9.8376   10.2973    0.0000 H   0  0  0  0  0  0  0  0  0  0  0  0
    9.4651   -8.2472    0.0000 H   0  0  0  0  0  0  0  0  0  0  0  0
    8.5991  -10.9873    0.0000 H   0  0  0  0  0  0  0  0  0  0  0  0
    7.4040  -11.6773    0.0000 H   0  0  0  0  0  0  0  0  0  0  0  0
   10.8681   -8.0572    0.0000 H   0  0  0  0  0  0  0  0  0  0  0  0
    4.5981  -11.6773    0.0000 H   0  0  0  0  0  0  0  0  0  0  0  0
   11.7341   -9.1773    0.0000 H   0  0  0  0  0  0  0  0  0  0  0  0
    9.7942  -10.6773    0.0000 H   0  0  0  0  0  0  0  0  0  0  0  0
   11.1972  -10.4873    0.0000 H   0  0  0  0  0  0  0  0  0  0  0  0
   10.8681   -7.0572    0.0000 H   0  0  0  0  0  0  0  0  0  0  0  0
   13.5286    7.4503    0.0000 H   0  0  0  0  0  0  0  0  0  0  0  0
   14.3755    7.6772    0.0000 H   0  0  0  0  0  0  0  0  0  0  0  0
   14.1486    8.5242    0.0000 H   0  0  0  0  0  0  0  0  0  0  0  0
    9.7206  -11.2596    0.0000 H   0  0  0  0  0  0  0  0  0  0  0  0
   10.1191  -11.9499    0.0000 H   0  0  0  0  0  0  0  0  0  0  0  0
   12.6002   -8.6773    0.0000 H   0  0  0  0  0  0  0  0  0  0  0  0
   13.2826   10.9503    0.0000 H   0  0  0  0  0  0  0  0  0  0  0  0
   13.5095   11.7973    0.0000 H   0  0  0  0  0  0  0  0  0  0  0  0
   12.6626   12.0242    0.0000 H   0  0  0  0  0  0  0  0  0  0  0  0
   12.6002  -10.0573    0.0000 H   0  0  0  0  0  0  0  0  0  0  0  0
   10.1285   12.4873    0.0000 H   0  0  0  0  0  0  0  0  0  0  0  0
    9.5085   13.1073    0.0000 H   0  0  0  0  0  0  0  0  0  0  0  0
    8.8885   12.4873    0.0000 H   0  0  0  0  0  0  0  0  0  0  0  0
   11.1972  -12.4873    0.0000 H   0  0  0  0  0  0  0  0  0  0  0  0
  1 48  1  0  0  0  0
  1 62  1  0  0  0  0
  2 54  1  0  0  0  0
  2 63  1  0  0  0  0
  3 56  1  0  0  0  0
  3142  1  0  0  0  0
  4 57  1  0  0  0  0
  4144  1  0  0  0  0
  5 62  1  0  0  0  0
  5 68  1  0  0  0  0
  6 63  1  0  0  0  0
  6 70  1  0  0  0  0
  7 64  1  0  0  0  0
  7 72  1  0  0  0  0
  8 65  1  0  0  0  0
  8155  1  0  0  0  0
  9 66  1  0  0  0  0
  9157  1  0  0  0  0
 10 67  1  0  0  0  0
 10 75  1  0  0  0  0
 11 69  1  0  0  0  0
 11158  1  0  0  0  0
 12 71  1  0  0  0  0
 12159  1  0  0  0  0
 13 72  1  0  0  0  0
 13 77  1  0  0  0  0
 14 73  1  0  0  0  0
 14165  1  0  0  0  0
 15 73  2  0  0  0  0
 16 74  1  0  0  0  0
 16 84  1  0  0  0  0
 17 75  1  0  0  0  0
 17 81  1  0  0  0  0
 18 76  1  0  0  0  0
 18174  1  0  0  0  0
 19 78  1  0  0  0  0
 19 87  1  0  0  0  0
 20 79  1  0  0  0  0
 20175  1  0  0  0  0
 21 80  1  0  0  0  0
 21 90  1  0  0  0  0
 22 84  1  0  0  0  0
 22 88  1  0  0  0  0
 23 83  1  0  0  0  0
 23 91  1  0  0  0  0
 24 82  1  0  0  0  0
 24177  1  0  0  0  0
 25 85  1  0  0  0  0
 25181  1  0  0  0  0
 26 86  1  0  0  0  0
 26187  1  0  0  0  0
 27 87  2  0  0  0  0
 28 89  1  0  0  0  0
 28191  1  0  0  0  0
 29 90  2  0  0  0  0
 30 91  2  0  0  0  0
 31 93  1  0  0  0  0
 31195  1  0  0  0  0
 32 33  1  0  0  0  0
 32 35  1  0  0  0  0
 32 37  1  0  0  0  0
 32 47  1  0  0  0  0
 33 34  1  0  0  0  0
 33 44  1  0  0  0  0
 33 96  1  0  0  0  0
 34 36  1  0  0  0  0
 34 45  1  0  0  0  0
 34 50  1  0  0  0  0
 35 38  1  0  0  0  0
 35 43  1  0  0  0  0
 35 52  1  0  0  0  0
 36 40  1  0  0  0  0
 36 41  1  0  0  0  0
 36 97  1  0  0  0  0
 37 40  1  0  0  0  0
 37 98  1  0  0  0  0
 37 99  1  0  0  0  0
 38 39  1  0  0  0  0
 38 49  2  0  0  0  0
 39 42  1  0  0  0  0
 39 53  1  0  0  0  0
 39100  1  0  0  0  0
 40101  1  0  0  0  0
 40102  1  0  0  0  0
 41 48  1  0  0  0  0
 41 57  1  0  0  0  0
 41 58  1  0  0  0  0
 42 46  1  0  0  0  0
 42 54  1  0  0  0  0
 42 59  1  0  0  0  0
 43 46  1  0  0  0  0
 43103  1  0  0  0  0
 43104  1  0  0  0  0
 44 49  1  0  0  0  0
 44105  1  0  0  0  0
 44106  1  0  0  0  0
 45 51  1  0  0  0  0
 45107  1  0  0  0  0
 45108  1  0  0  0  0
 46109  1  0  0  0  0
 46110  1  0  0  0  0
 47111  1  0  0  0  0
 47112  1  0  0  0  0
 47113  1  0  0  0  0
 48 51  1  0  0  0  0
 48114  1  0  0  0  0
 49115  1  0  0  0  0
 50116  1  0  0  0  0
 50117  1  0  0  0  0
 50118  1  0  0  0  0
 51119  1  0  0  0  0
 51120  1  0  0  0  0
 52121  1  0  0  0  0
 52122  1  0  0  0  0
 52123  1  0  0  0  0
 53 55  1  0  0  0  0
 53124  1  0  0  0  0
 53125  1  0  0  0  0
 54 56  1  0  0  0  0
 54126  1  0  0  0  0
 55 56  1  0  0  0  0
 55 60  1  0  0  0  0
 55 61  1  0  0  0  0
 56127  1  0  0  0  0
 57128  1  0  0  0  0
 57129  1  0  0  0  0
 58130  1  0  0  0  0
 58131  1  0  0  0  0
 58132  1  0  0  0  0
 59133  1  0  0  0  0
 59134  1  0  0  0  0
 59135  1  0  0  0  0
 60136  1  0  0  0  0
 60137  1  0  0  0  0
 60138  1  0  0  0  0
 61139  1  0  0  0  0
 61140  1  0  0  0  0
 61141  1  0  0  0  0
 62 64  1  0  0  0  0
 62143  1  0  0  0  0
 63 65  1  0  0  0  0
 63145  1  0  0  0  0
 64 66  1  0  0  0  0
 64146  1  0  0  0  0
 65 67  1  0  0  0  0
 65147  1  0  0  0  0
 66 69  1  0  0  0  0
 66148  1  0  0  0  0
 67 71  1  0  0  0  0
 67149  1  0  0  0  0
 68 69  1  0  0  0  0
 68 73  1  0  0  0  0
 68150  1  0  0  0  0
 69151  1  0  0  0  0
 70 71  1  0  0  0  0
 70152  1  0  0  0  0
 70153  1  0  0  0  0
 71154  1  0  0  0  0
 72 74  1  0  0  0  0
 72156  1  0  0  0  0
 74 76  1  0  0  0  0
 74160  1  0  0  0  0
 75 78  1  0  0  0  0
 75161  1  0  0  0  0
 76 79  1  0  0  0  0
 76162  1  0  0  0  0
 77 79  1  0  0  0  0
 77 82  1  0  0  0  0
 77163  1  0  0  0  0
 78 80  1  0  0  0  0
 78164  1  0  0  0  0
 79166  1  0  0  0  0
 80 83  1  0  0  0  0
 80167  1  0  0  0  0
 81 83  1  0  0  0  0
 81168  1  0  0  0  0
 81169  1  0  0  0  0
 82170  1  0  0  0  0
 82171  1  0  0  0  0
 83172  1  0  0  0  0
 84 85  1  0  0  0  0
 84173  1  0  0  0  0
 85 86  1  0  0  0  0
 85176  1  0  0  0  0
 86 89  1  0  0  0  0
 86178  1  0  0  0  0
 87 92  1  0  0  0  0
 88 89  1  0  0  0  0
 88 93  1  0  0  0  0
 88179  1  0  0  0  0
 89180  1  0  0  0  0
 90 94  1  0  0  0  0
 91 95  1  0  0  0  0
 92182  1  0  0  0  0
 92183  1  0  0  0  0
 92184  1  0  0  0  0
 93185  1  0  0  0  0
 93186  1  0  0  0  0
 94188  1  0  0  0  0
 94189  1  0  0  0  0
 94190  1  0  0  0  0
 95192  1  0  0  0  0
 95193  1  0  0  0  0
 95194  1  0  0  0  0
M  END
>  <PUBCHEM_COMPOUND_CID>
14186205

>  <PUBCHEM_COMPOUND_CANONICALIZED>
1

>  <PUBCHEM_CACTVS_COMPLEXITY>
2780

>  <PUBCHEM_CACTVS_HBOND_ACCEPTOR>
31

>  <PUBCHEM_CACTVS_HBOND_DONOR>
14

>  <PUBCHEM_CACTVS_ROTATABLE_BOND>
20

>  <PUBCHEM_CACTVS_SUBSKEYS>
AAADcfB8PgAAAAAAAAAAAAAAAAAAAAAAAAA0aNGiQAAAAADAAAAAGgAACAAADxSwgAMCCAAABgCIAiDSCAIAAAAgAAAACAFAAAgREBYAAQQiQAAFoAAPAAPK7PxPgAAAAAAAAADAAAYAADCAAAAAAAAAAA==

>  <PUBCHEM_IUPAC_OPENEYE_NAME>
5-[4,5-dihydroxy-6-(hydroxymethyl)-3-[3,4,5-trihydroxy-6-(hydroxymethyl)tetrahydropyran-2-yl]oxy-tetrahydropyran-2-yl]oxy-6-[[9-[3,5-dihydroxy-4-(3,4,5-triacetoxytetrahydropyran-2-yl)oxy-tetrahydropyran-2-yl]oxy-10-hydroxy-4-(hydroxymethyl)-4,6a,6b,8a,11,11,14b-heptamethyl-1,2,3,4a,5,6,7,8,9,10,12,12a,14,14a-tetradecahydropicen-3-yl]oxy]-3,4-dihydroxy-tetrahydropyran-2-carboxylic acid

>  <PUBCHEM_IUPAC_CAS_NAME>
5-[[4,5-dihydroxy-6-(hydroxymethyl)-3-[[3,4,5-trihydroxy-6-(hydroxymethyl)-2-oxanyl]oxy]-2-oxanyl]oxy]-6-[[9-[[3,5-dihydroxy-4-[(3,4,5-triacetyloxy-2-oxanyl)oxy]-2-oxanyl]oxy]-10-hydroxy-4-(hydroxymethyl)-4,6a,6b,8a,11,11,14b-heptamethyl-1,2,3,4a,5,6,7,8,9,10,12,12a,14,14a-tetradecahydropicen-3-yl]oxy]-3,4-dihydroxy-2-oxanecarboxylic acid

>  <PUBCHEM_IUPAC_NAME>
5-[4,5-dihydroxy-6-(hydroxymethyl)-3-[3,4,5-trihydroxy-6-(hydroxymethyl)oxan-2-yl]oxyoxan-2-yl]oxy-6-[[9-[3,5-dihydroxy-4-(3,4,5-triacetyloxyoxan-2-yl)oxyoxan-2-yl]oxy-10-hydroxy-4-(hydroxymethyl)-4,6a,6b,8a,11,11,14b-heptamethyl-1,2,3,4a,5,6,7,8,9,10,12,12a,14,14a-tetradecahydropicen-3-yl]oxy]-3,4-dihydroxyoxane-2-carboxylic acid

>  <PUBCHEM_IUPAC_SYSTEMATIC_NAME>
6-[[9-[3,5-bis(oxidanyl)-4-(3,4,5-triacetyloxyoxan-2-yl)oxy-oxan-2-yl]oxy-4-(hydroxymethyl)-4,6a,6b,8a,11,11,14b-heptamethyl-10-oxidanyl-1,2,3,4a,5,6,7,8,9,10,12,12a,14,14a-tetradecahydropicen-3-yl]oxy]-5-[6-(hydroxymethyl)-3-[6-(hydroxymethyl)-3,4,5-tris(oxidanyl)oxan-2-yl]oxy-4,5-bis(oxidanyl)oxan-2-yl]oxy-3,4-bis(oxidanyl)oxane-2-carboxylic acid

>  <PUBCHEM_IUPAC_TRADITIONAL_NAME>
5-[4,5-dihydroxy-6-methylol-3-(3,4,5-trihydroxy-6-methylol-tetrahydropyran-2-yl)oxy-tetrahydropyran-2-yl]oxy-6-[[9-[3,5-dihydroxy-4-(3,4,5-triacetoxytetrahydropyran-2-yl)oxy-tetrahydropyran-2-yl]oxy-10-hydroxy-4,6a,6b,8a,11,11,14b-heptamethyl-4-methylol-1,2,3,4a,5,6,7,8,9,10,12,12a,14,14a-tetradecahydropicen-3-yl]oxy]-3,4-dihydroxy-tetrahydropyran-2-carboxylic acid

>  <PUBCHEM_IUPAC_INCHI>
InChI=1S/C64H100O31/c1-25(68)85-33-23-84-56(50(87-27(3)70)46(33)86-26(2)69)91-45-30(71)22-83-54(44(45)79)95-52-51(80)59(4,5)19-29-28-11-12-35-61(7)15-14-36(62(8,24-67)34(61)13-16-64(35,10)63(28,9)18-17-60(29,52)6)90-58-49(42(77)41(76)47(92-58)53(81)82)94-57-48(40(75)38(73)32(21-66)89-57)93-55-43(78)39(74)37(72)31(20-65)88-55/h11,29-52,54-58,65-67,71-80H,12-24H2,1-10H3,(H,81,82)

>  <PUBCHEM_IUPAC_INCHIKEY>
KBGJRGWLUHSDLW-UHFFFAOYSA-N

>  <PUBCHEM_XLOGP3_AA>
-0.6

>  <PUBCHEM_EXACT_MASS>
1364.625

>  <PUBCHEM_MOLECULAR_FORMULA>
C64H100O31

>  <PUBCHEM_MOLECULAR_WEIGHT>
1365.473

>  <PUBCHEM_OPENEYE_CAN_SMILES>
CC(=O)OC1COC(C(C1OC(=O)C)OC(=O)C)OC2C(COC(C2O)OC3C(C(CC4C3(CCC5(C4=CCC6C5(CCC7C6(CCC(C7(C)CO)OC8C(C(C(C(O8)C(=O)O)O)O)OC9C(C(C(C(O9)CO)O)O)OC1C(C(C(C(O1)CO)O)O)O)C)C)C)C)(C)C)O)O

>  <PUBCHEM_OPENEYE_ISO_SMILES>
CC(=O)OC1COC(C(C1OC(=O)C)OC(=O)C)OC2C(COC(C2O)OC3C(C(CC4C3(CCC5(C4=CCC6C5(CCC7C6(CCC(C7(C)CO)OC8C(C(C(C(O8)C(=O)O)O)O)OC9C(C(C(C(O9)CO)O)O)OC1C(C(C(C(O1)CO)O)O)O)C)C)C)C)(C)C)O)O

>  <PUBCHEM_CACTVS_TPSA>
472

>  <PUBCHEM_MONOISOTOPIC_WEIGHT>
1364.625

>  <PUBCHEM_TOTAL_CHARGE>
0

>  <PUBCHEM_HEAVY_ATOM_COUNT>
95

>  <PUBCHEM_ATOM_DEF_STEREO_COUNT>
0

>  <PUBCHEM_ATOM_UDEF_STEREO_COUNT>
34

>  <PUBCHEM_BOND_DEF_STEREO_COUNT>
0

>  <PUBCHEM_BOND_UDEF_STEREO_COUNT>
0

>  <PUBCHEM_ISOTOPIC_ATOM_COUNT>
0

>  <PUBCHEM_COMPONENT_COUNT>
1

>  <PUBCHEM_CACTVS_TAUTO_COUNT>
1

>  <PUBCHEM_COORDINATE_TYPE>
1
5
255

>  <PUBCHEM_BONDANNOTATIONS>
48  1  3
62  1  3
67  10  3
75  10  3
69  11  3
71  12  3
74  16  3
84  16  3
76  18  3
78  19  3
54  2  3
63  2  3
79  20  3
80  21  3
83  23  3
85  25  3
86  26  3
89  28  3
56  3  3
32  47  3
33  44  3
34  50  3
35  52  3
36  40  3
39  53  3
41  58  3
42  59  3
68  73  3
64  7  3
72  7  3
77  82  3
65  8  3
88  93  3
66  9  3

$$$$
