14189058
 OpenBabel06101807152D

 51 54  0  0  1  0  0  0  0  0999 V2000
    6.5862   -2.7666    0.0000 O   0  0  0  0  0  0  0  0  0  0  0  0
    5.0916   -1.7960    0.0000 O   0  0  0  0  0  0  0  0  0  0  0  0
   12.0791   -1.2594    0.0000 O   0  0  0  0  0  0  0  0  0  0  0  0
   12.0791   -2.8689    0.0000 O   0  0  0  0  0  0  0  0  0  0  0  0
    4.2294    2.3950    0.0000 O   0  0  0  0  0  0  0  0  0  0  0  0
    2.7431    1.0568    0.0000 O   0  0  0  0  0  0  0  0  0  0  0  0
    6.7553   -1.1574    0.0000 C   0  0  3  0  0  0  0  0  0  0  0  0
    7.6688   -1.5642    0.0000 C   0  0  3  0  0  0  0  0  0  0  0  0
    6.0862   -1.9006    0.0000 C   0  0  3  0  0  0  0  0  0  0  0  0
    7.5643   -2.5587    0.0000 C   0  0  0  0  0  0  0  0  0  0  0  0
    8.5348   -1.0642    0.0000 C   0  0  0  0  0  0  0  0  0  0  0  0
    6.5474   -0.1793    0.0000 C   0  0  0  0  0  0  0  0  0  0  0  0
    9.4009   -1.5642    0.0000 C   0  0  0  0  0  0  0  0  0  0  0  0
    5.5963    0.1297    0.0000 C   0  0  0  0  0  0  0  0  0  0  0  0
   10.2669   -1.0642    0.0000 C   0  0  0  0  0  0  0  0  0  0  0  0
    9.4009   -2.5642    0.0000 C   0  0  0  0  0  0  0  0  0  0  0  0
    5.3884    1.1079    0.0000 C   0  0  0  0  0  0  0  0  0  0  0  0
    4.8532   -0.5394    0.0000 C   0  0  0  0  0  0  0  0  0  0  0  0
   11.1329   -1.5642    0.0000 C   0  0  0  0  0  0  0  0  0  0  0  0
   10.2669   -3.0642    0.0000 C   0  0  0  0  0  0  0  0  0  0  0  0
   11.1329   -2.5642    0.0000 C   0  0  0  0  0  0  0  0  0  0  0  0
    4.4374    1.4169    0.0000 C   0  0  0  0  0  0  0  0  0  0  0  0
    3.9021   -0.2304    0.0000 C   0  0  0  0  0  0  0  0  0  0  0  0
    3.6942    0.7478    0.0000 C   0  0  0  0  0  0  0  0  0  0  0  0
   12.6628   -2.0642    0.0000 C   0  0  0  0  0  0  0  0  0  0  0  0
    4.9726    3.0642    0.0000 C   0  0  0  0  0  0  0  0  0  0  0  0
    2.0000    0.3876    0.0000 C   0  0  0  0  0  0  0  0  0  0  0  0
    6.1564   -0.9970    0.0000 H   0  0  0  0  0  0  0  0  0  0  0  0
    8.1888   -1.9018    0.0000 H   0  0  0  0  0  0  0  0  0  0  0  0
    5.7485   -2.4206    0.0000 H   0  0  0  0  0  0  0  0  0  0  0  0
    7.6291   -3.1753    0.0000 H   0  0  0  0  0  0  0  0  0  0  0  0
    8.1843   -2.5587    0.0000 H   0  0  0  0  0  0  0  0  0  0  0  0
    8.9334   -0.5892    0.0000 H   0  0  0  0  0  0  0  0  0  0  0  0
    8.1363   -0.5892    0.0000 H   0  0  0  0  0  0  0  0  0  0  0  0
    7.1670   -0.1577    0.0000 H   0  0  0  0  0  0  0  0  0  0  0  0
    6.6337    0.4347    0.0000 H   0  0  0  0  0  0  0  0  0  0  0  0
    4.7272   -2.2976    0.0000 H   0  0  0  0  0  0  0  0  0  0  0  0
   10.2669   -0.4442    0.0000 H   0  0  0  0  0  0  0  0  0  0  0  0
    8.8639   -2.8742    0.0000 H   0  0  0  0  0  0  0  0  0  0  0  0
    5.8492    1.5227    0.0000 H   0  0  0  0  0  0  0  0  0  0  0  0
    4.9821   -1.1458    0.0000 H   0  0  0  0  0  0  0  0  0  0  0  0
   10.2669   -3.6842    0.0000 H   0  0  0  0  0  0  0  0  0  0  0  0
    3.4414   -0.6452    0.0000 H   0  0  0  0  0  0  0  0  0  0  0  0
   13.1236   -2.4789    0.0000 H   0  0  0  0  0  0  0  0  0  0  0  0
   13.1236   -1.6494    0.0000 H   0  0  0  0  0  0  0  0  0  0  0  0
    5.3874    2.6034    0.0000 H   0  0  0  0  0  0  0  0  0  0  0  0
    5.4333    3.4790    0.0000 H   0  0  0  0  0  0  0  0  0  0  0  0
    4.5577    3.5249    0.0000 H   0  0  0  0  0  0  0  0  0  0  0  0
    1.5851    0.8484    0.0000 H   0  0  0  0  0  0  0  0  0  0  0  0
    1.5392   -0.0272    0.0000 H   0  0  0  0  0  0  0  0  0  0  0  0
    2.4149   -0.0731    0.0000 H   0  0  0  0  0  0  0  0  0  0  0  0
  1  9  1  0  0  0  0
  1 10  1  0  0  0  0
  2  9  1  0  0  0  0
  2 37  1  0  0  0  0
  3 19  1  0  0  0  0
  3 25  1  0  0  0  0
  4 21  1  0  0  0  0
  4 25  1  0  0  0  0
  5 22  1  0  0  0  0
  5 26  1  0  0  0  0
  6 24  1  0  0  0  0
  6 27  1  0  0  0  0
  7  8  1  0  0  0  0
  7  9  1  0  0  0  0
  7 12  1  0  0  0  0
  7 28  1  0  0  0  0
  8 10  1  0  0  0  0
  8 11  1  0  0  0  0
  8 29  1  0  0  0  0
  9 30  1  0  0  0  0
 10 31  1  0  0  0  0
 10 32  1  0  0  0  0
 11 13  1  0  0  0  0
 11 33  1  0  0  0  0
 11 34  1  0  0  0  0
 12 14  1  0  0  0  0
 12 35  1  0  0  0  0
 12 36  1  0  0  0  0
 13 15  2  0  0  0  0
 13 16  1  0  0  0  0
 14 17  2  0  0  0  0
 14 18  1  0  0  0  0
 15 19  1  0  0  0  0
 15 38  1  0  0  0  0
 16 20  2  0  0  0  0
 16 39  1  0  0  0  0
 17 22  1  0  0  0  0
 17 40  1  0  0  0  0
 18 23  2  0  0  0  0
 18 41  1  0  0  0  0
 19 21  2  0  0  0  0
 20 21  1  0  0  0  0
 20 42  1  0  0  0  0
 22 24  2  0  0  0  0
 23 24  1  0  0  0  0
 23 43  1  0  0  0  0
 25 44  1  0  0  0  0
 25 45  1  0  0  0  0
 26 46  1  0  0  0  0
 26 47  1  0  0  0  0
 26 48  1  0  0  0  0
 27 49  1  0  0  0  0
 27 50  1  0  0  0  0
 27 51  1  0  0  0  0
M  END
>  <PUBCHEM_COMPOUND_CID>
14189058

>  <PUBCHEM_COMPOUND_CANONICALIZED>
1

>  <PUBCHEM_CACTVS_COMPLEXITY>
474

>  <PUBCHEM_CACTVS_HBOND_ACCEPTOR>
6

>  <PUBCHEM_CACTVS_HBOND_DONOR>
1

>  <PUBCHEM_CACTVS_ROTATABLE_BOND>
6

>  <PUBCHEM_CACTVS_SUBSKEYS>
AAADceB4OAAAAAAAAAAAAAAAAAAAASJAAAAwYAAAAAAAAEgBQAAAGgAACAAADQSwmAMyDoAABgCAAiBCAAACCAAgIAAIiAAGiIgdNiKEMRqicCIkwBEOqAfAwPAOoAABAAAAQABAAAIAAACAAAAAAAAAAA==

>  <PUBCHEM_IUPAC_OPENEYE_NAME>
4-(1,3-benzodioxol-5-ylmethyl)-3-[(3,4-dimethoxyphenyl)methyl]tetrahydrofuran-2-ol

>  <PUBCHEM_IUPAC_CAS_NAME>
4-(1,3-benzodioxol-5-ylmethyl)-3-[(3,4-dimethoxyphenyl)methyl]-2-oxolanol

>  <PUBCHEM_IUPAC_NAME>
4-(1,3-benzodioxol-5-ylmethyl)-3-[(3,4-dimethoxyphenyl)methyl]oxolan-2-ol

>  <PUBCHEM_IUPAC_SYSTEMATIC_NAME>
4-(1,3-benzodioxol-5-ylmethyl)-3-[(3,4-dimethoxyphenyl)methyl]oxolan-2-ol

>  <PUBCHEM_IUPAC_TRADITIONAL_NAME>
4-piperonyl-3-veratryl-tetrahydrofuran-2-ol

>  <PUBCHEM_IUPAC_INCHI>
InChI=1S/C21H24O6/c1-23-17-5-3-14(9-19(17)24-2)8-16-15(11-25-21(16)22)7-13-4-6-18-20(10-13)27-12-26-18/h3-6,9-10,15-16,21-22H,7-8,11-12H2,1-2H3

>  <PUBCHEM_IUPAC_INCHIKEY>
FDXPFHFRXMBVEU-UHFFFAOYSA-N

>  <PUBCHEM_XLOGP3_AA>
3.5

>  <PUBCHEM_EXACT_MASS>
372.157

>  <PUBCHEM_MOLECULAR_FORMULA>
C21H24O6

>  <PUBCHEM_MOLECULAR_WEIGHT>
372.417

>  <PUBCHEM_OPENEYE_CAN_SMILES>
COC1=C(C=C(C=C1)CC2C(COC2O)CC3=CC4=C(C=C3)OCO4)OC

>  <PUBCHEM_OPENEYE_ISO_SMILES>
COC1=C(C=C(C=C1)CC2C(COC2O)CC3=CC4=C(C=C3)OCO4)OC

>  <PUBCHEM_CACTVS_TPSA>
66.4

>  <PUBCHEM_MONOISOTOPIC_WEIGHT>
372.157

>  <PUBCHEM_TOTAL_CHARGE>
0

>  <PUBCHEM_HEAVY_ATOM_COUNT>
27

>  <PUBCHEM_ATOM_DEF_STEREO_COUNT>
0

>  <PUBCHEM_ATOM_UDEF_STEREO_COUNT>
3

>  <PUBCHEM_BOND_DEF_STEREO_COUNT>
0

>  <PUBCHEM_BOND_UDEF_STEREO_COUNT>
0

>  <PUBCHEM_ISOTOPIC_ATOM_COUNT>
0

>  <PUBCHEM_COMPONENT_COUNT>
1

>  <PUBCHEM_CACTVS_TAUTO_COUNT>
1

>  <PUBCHEM_COORDINATE_TYPE>
1
5
255

>  <PUBCHEM_BONDANNOTATIONS>
13  15  8
13  16  8
14  17  8
14  18  8
15  19  8
16  20  8
17  22  8
18  23  8
19  21  8
9  2  3
20  21  8
22  24  8
23  24  8
7  12  3
8  11  3

$$$$
