14186883
 OpenBabel06101807152D

 60 64  0  0  1  0  0  0  0  0999 V2000
    8.4073   -2.9996    0.0000 O   0  0  0  0  0  0  0  0  0  0  0  0
   10.0381   -1.3332    0.0000 O   0  0  0  0  0  0  0  0  0  0  0  0
    2.0000    2.3796    0.0000 O   0  0  0  0  0  0  0  0  0  0  0  0
   10.1763   -2.9130    0.0000 O   0  0  0  0  0  0  0  0  0  0  0  0
    7.3399   -0.7648    0.0000 C   0  0  3  0  0  0  0  0  0  0  0  0
    6.4739   -1.2648    0.0000 C   0  0  3  0  0  0  0  0  0  0  0  0
    5.6079   -0.7648    0.0000 C   0  0  3  0  0  0  0  0  0  0  0  0
    5.6079    0.2352    0.0000 C   0  0  3  0  0  0  0  0  0  0  0  0
    8.0770   -1.4319    0.0000 C   0  0  3  0  0  0  0  0  0  0  0  0
    4.7140    0.7699    0.0000 C   0  0  3  0  0  0  0  0  0  0  0  0
    7.3399    0.2352    0.0000 C   0  0  0  0  0  0  0  0  0  0  0  0
    6.6831   -2.2366    0.0000 C   0  0  0  0  0  0  0  0  0  0  0  0
    7.6718   -2.3396    0.0000 C   0  0  3  0  0  0  0  0  0  0  0  0
    6.4739    0.7352    0.0000 C   0  0  0  0  0  0  0  0  0  0  0  0
    3.8079    0.2560    0.0000 C   0  0  3  0  0  0  0  0  0  0  0  0
    4.7140   -1.2994    0.0000 C   0  0  0  0  0  0  0  0  0  0  0  0
    3.8079   -0.7856    0.0000 C   0  0  0  0  0  0  0  0  0  0  0  0
    9.0594   -1.5386    0.0000 C   0  0  3  0  0  0  0  0  0  0  0  0
    4.7390    1.8546    0.0000 C   0  0  0  0  0  0  0  0  0  0  0  0
    8.2060   -0.2648    0.0000 C   0  0  0  0  0  0  0  0  0  0  0  0
    2.8641    0.7913    0.0000 C   0  0  0  0  0  0  0  0  0  0  0  0
    5.5838    1.2632    0.0000 C   0  0  0  0  0  0  0  0  0  0  0  0
    3.8079    2.4115    0.0000 C   0  0  0  0  0  0  0  0  0  0  0  0
    2.8641    1.8763    0.0000 C   0  0  3  0  0  0  0  0  0  0  0  0
    9.2632   -2.5055    0.0000 C   0  0  0  0  0  0  0  0  0  0  0  0
    9.1665   -0.5443    0.0000 C   0  0  0  0  0  0  0  0  0  0  0  0
    5.9728   -1.6298    0.0000 H   0  0  0  0  0  0  0  0  0  0  0  0
    5.6127   -1.3848    0.0000 H   0  0  0  0  0  0  0  0  0  0  0  0
    6.1448   -0.0748    0.0000 H   0  0  0  0  0  0  0  0  0  0  0  0
    8.3308   -0.8662    0.0000 H   0  0  0  0  0  0  0  0  0  0  0  0
    7.9505    0.1276    0.0000 H   0  0  0  0  0  0  0  0  0  0  0  0
    7.5520    0.8178    0.0000 H   0  0  0  0  0  0  0  0  0  0  0  0
    6.0666   -2.3026    0.0000 H   0  0  0  0  0  0  0  0  0  0  0  0
    6.6840   -2.8566    0.0000 H   0  0  0  0  0  0  0  0  0  0  0  0
    7.4204   -2.9064    0.0000 H   0  0  0  0  0  0  0  0  0  0  0  0
    6.8724    1.2102    0.0000 H   0  0  0  0  0  0  0  0  0  0  0  0
    6.0754    1.2102    0.0000 H   0  0  0  0  0  0  0  0  0  0  0  0
    3.2721   -0.0560    0.0000 H   0  0  0  0  0  0  0  0  0  0  0  0
    4.3203   -1.7784    0.0000 H   0  0  0  0  0  0  0  0  0  0  0  0
    5.1185   -1.7692    0.0000 H   0  0  0  0  0  0  0  0  0  0  0  0
    3.1970   -0.6795    0.0000 H   0  0  0  0  0  0  0  0  0  0  0  0
    3.5988   -1.3693    0.0000 H   0  0  0  0  0  0  0  0  0  0  0  0
    5.3473    1.7344    0.0000 H   0  0  0  0  0  0  0  0  0  0  0  0
    4.9615    2.4333    0.0000 H   0  0  0  0  0  0  0  0  0  0  0  0
    8.5160   -0.8017    0.0000 H   0  0  0  0  0  0  0  0  0  0  0  0
    8.7429    0.0452    0.0000 H   0  0  0  0  0  0  0  0  0  0  0  0
    7.8960    0.2722    0.0000 H   0  0  0  0  0  0  0  0  0  0  0  0
    2.2532    0.8974    0.0000 H   0  0  0  0  0  0  0  0  0  0  0  0
    2.6550    0.2076    0.0000 H   0  0  0  0  0  0  0  0  0  0  0  0
    5.8896    0.7239    0.0000 H   0  0  0  0  0  0  0  0  0  0  0  0
    6.1231    1.5690    0.0000 H   0  0  0  0  0  0  0  0  0  0  0  0
    5.2780    1.8025    0.0000 H   0  0  0  0  0  0  0  0  0  0  0  0
    4.2125    2.8813    0.0000 H   0  0  0  0  0  0  0  0  0  0  0  0
    3.4142    2.8905    0.0000 H   0  0  0  0  0  0  0  0  0  0  0  0
    2.8677    2.4963    0.0000 H   0  0  0  0  0  0  0  0  0  0  0  0
    9.7829   -0.6107    0.0000 H   0  0  0  0  0  0  0  0  0  0  0  0
    9.2329    0.0721    0.0000 H   0  0  0  0  0  0  0  0  0  0  0  0
    8.5500   -0.4779    0.0000 H   0  0  0  0  0  0  0  0  0  0  0  0
   10.2312   -0.7440    0.0000 H   0  0  0  0  0  0  0  0  0  0  0  0
    2.0024    2.9996    0.0000 H   0  0  0  0  0  0  0  0  0  0  0  0
  1 13  1  0  0  0  0
  1 25  1  0  0  0  0
  2 18  1  0  0  0  0
  2 59  1  0  0  0  0
  3 24  1  0  0  0  0
  3 60  1  0  0  0  0
  4 25  2  0  0  0  0
  5  6  1  0  0  0  0
  5  9  1  0  0  0  0
  5 11  1  0  0  0  0
  5 20  1  0  0  0  0
  6  7  1  0  0  0  0
  6 12  1  0  0  0  0
  6 27  1  0  0  0  0
  7  8  1  0  0  0  0
  7 16  1  0  0  0  0
  7 28  1  0  0  0  0
  8 10  1  0  0  0  0
  8 14  1  0  0  0  0
  8 29  1  0  0  0  0
  9 13  1  0  0  0  0
  9 18  1  0  0  0  0
  9 30  1  0  0  0  0
 10 15  1  0  0  0  0
 10 19  1  0  0  0  0
 10 22  1  0  0  0  0
 11 14  1  0  0  0  0
 11 31  1  0  0  0  0
 11 32  1  0  0  0  0
 12 13  1  0  0  0  0
 12 33  1  0  0  0  0
 12 34  1  0  0  0  0
 13 35  1  0  0  0  0
 14 36  1  0  0  0  0
 14 37  1  0  0  0  0
 15 17  1  0  0  0  0
 15 21  1  0  0  0  0
 15 38  1  0  0  0  0
 16 17  1  0  0  0  0
 16 39  1  0  0  0  0
 16 40  1  0  0  0  0
 17 41  1  0  0  0  0
 17 42  1  0  0  0  0
 18 25  1  0  0  0  0
 18 26  1  0  0  0  0
 19 23  1  0  0  0  0
 19 43  1  0  0  0  0
 19 44  1  0  0  0  0
 20 45  1  0  0  0  0
 20 46  1  0  0  0  0
 20 47  1  0  0  0  0
 21 24  1  0  0  0  0
 21 48  1  0  0  0  0
 21 49  1  0  0  0  0
 22 50  1  0  0  0  0
 22 51  1  0  0  0  0
 22 52  1  0  0  0  0
 23 24  1  0  0  0  0
 23 53  1  0  0  0  0
 23 54  1  0  0  0  0
 24 55  1  0  0  0  0
 26 56  1  0  0  0  0
 26 57  1  0  0  0  0
 26 58  1  0  0  0  0
M  END
>  <PUBCHEM_COMPOUND_CID>
14186883

>  <PUBCHEM_COMPOUND_CANONICALIZED>
1

>  <PUBCHEM_CACTVS_COMPLEXITY>
634

>  <PUBCHEM_CACTVS_HBOND_ACCEPTOR>
4

>  <PUBCHEM_CACTVS_HBOND_DONOR>
2

>  <PUBCHEM_CACTVS_ROTATABLE_BOND>
0

>  <PUBCHEM_CACTVS_SUBSKEYS>
AAADcfB4OAAAAAAAAAAAAAAAAAAAAaIAAAAwYMAAAAASAGDAAAAAGgAACAAAD1SggAICCAAABgAIAACQCAIAAAAAAAAAAAFAAAABEBIAAAACQAAFAAADAAGKyPCPgAAAAAAAAADAAAYAACAAAYAADAAAAA==

>  <PUBCHEM_IUPAC_INCHI>
InChI=1S/C22H34O4/c1-20-8-6-13(23)10-12(20)4-5-14-15(20)7-9-21(2)16(14)11-17-18(21)22(3,25)19(24)26-17/h12-18,23,25H,4-11H2,1-3H3

>  <PUBCHEM_IUPAC_INCHIKEY>
OCPGSVYCKLXPSO-UHFFFAOYSA-N

>  <PUBCHEM_XLOGP3_AA>
4.2

>  <PUBCHEM_EXACT_MASS>
362.246

>  <PUBCHEM_MOLECULAR_FORMULA>
C22H34O4

>  <PUBCHEM_MOLECULAR_WEIGHT>
362.51

>  <PUBCHEM_OPENEYE_CAN_SMILES>
CC12CCC(CC1CCC3C2CCC4(C3CC5C4C(C(=O)O5)(C)O)C)O

>  <PUBCHEM_OPENEYE_ISO_SMILES>
CC12CCC(CC1CCC3C2CCC4(C3CC5C4C(C(=O)O5)(C)O)C)O

>  <PUBCHEM_CACTVS_TPSA>
66.8

>  <PUBCHEM_MONOISOTOPIC_WEIGHT>
362.246

>  <PUBCHEM_TOTAL_CHARGE>
0

>  <PUBCHEM_HEAVY_ATOM_COUNT>
26

>  <PUBCHEM_ATOM_DEF_STEREO_COUNT>
0

>  <PUBCHEM_ATOM_UDEF_STEREO_COUNT>
10

>  <PUBCHEM_BOND_DEF_STEREO_COUNT>
0

>  <PUBCHEM_BOND_UDEF_STEREO_COUNT>
0

>  <PUBCHEM_ISOTOPIC_ATOM_COUNT>
0

>  <PUBCHEM_COMPONENT_COUNT>
1

>  <PUBCHEM_CACTVS_TAUTO_COUNT>
1

>  <PUBCHEM_COORDINATE_TYPE>
1
5
255

>  <PUBCHEM_BONDANNOTATIONS>
10  22  3
13  12  3
15  17  3
18  2  3
24  3  3
5  20  3
6  12  3
7  16  3
8  14  3
9  18  3

$$$$
