14190656
 OpenBabel06101807152D

 50 50  0  0  1  0  0  0  0  0999 V2000
    4.2690   -0.8450    0.0000 O   0  0  0  0  0  0  0  0  0  0  0  0
    6.0010   -0.8450    0.0000 O   0  0  0  0  0  0  0  0  0  0  0  0
    4.2690   -3.8450    0.0000 O   0  0  0  0  0  0  0  0  0  0  0  0
    6.0010   -2.8450    0.0000 O   0  0  0  0  0  0  0  0  0  0  0  0
    2.5369   -2.8450    0.0000 O   0  0  0  0  0  0  0  0  0  0  0  0
    2.5369    0.1550    0.0000 O   0  0  0  0  0  0  0  0  0  0  0  0
    4.2690   -2.8450    0.0000 C   0  0  3  0  0  0  0  0  0  0  0  0
    5.1350   -2.3450    0.0000 C   0  0  3  0  0  0  0  0  0  0  0  0
    3.4030   -2.3450    0.0000 C   0  0  3  0  0  0  0  0  0  0  0  0
    5.1350   -1.3450    0.0000 C   0  0  3  0  0  0  0  0  0  0  0  0
    3.4030   -1.3450    0.0000 C   0  0  3  0  0  0  0  0  0  0  0  0
    6.0010    0.1550    0.0000 C   0  0  3  0  0  0  0  0  0  0  0  0
    2.5369   -0.8450    0.0000 C   0  0  0  0  0  0  0  0  0  0  0  0
    6.0010    1.1550    0.0000 C   0  0  0  0  0  0  0  0  0  0  0  0
    5.0010    0.1550    0.0000 C   0  0  0  0  0  0  0  0  0  0  0  0
    6.8671    1.6550    0.0000 C   0  0  0  0  0  0  0  0  0  0  0  0
    7.0010    0.1550    0.0000 C   0  0  0  0  0  0  0  0  0  0  0  0
    6.8671    2.6550    0.0000 C   0  0  0  0  0  0  0  0  0  0  0  0
    7.5010   -0.7110    0.0000 C   0  0  0  0  0  0  0  0  0  0  0  0
    7.7331    3.1550    0.0000 C   0  0  0  0  0  0  0  0  0  0  0  0
    7.7331    4.1550    0.0000 C   0  0  0  0  0  0  0  0  0  0  0  0
    8.5991    2.6550    0.0000 C   0  0  0  0  0  0  0  0  0  0  0  0
    4.8059   -3.1550    0.0000 H   0  0  0  0  0  0  0  0  0  0  0  0
    5.6720   -2.0350    0.0000 H   0  0  0  0  0  0  0  0  0  0  0  0
    3.4030   -2.9650    0.0000 H   0  0  0  0  0  0  0  0  0  0  0  0
    5.1350   -0.7250    0.0000 H   0  0  0  0  0  0  0  0  0  0  0  0
    3.4030   -0.7250    0.0000 H   0  0  0  0  0  0  0  0  0  0  0  0
    1.9264   -0.7373    0.0000 H   0  0  0  0  0  0  0  0  0  0  0  0
    2.3249   -1.4276    0.0000 H   0  0  0  0  0  0  0  0  0  0  0  0
    5.7890    1.7376    0.0000 H   0  0  0  0  0  0  0  0  0  0  0  0
    5.3905    1.0473    0.0000 H   0  0  0  0  0  0  0  0  0  0  0  0
    5.0010    0.7750    0.0000 H   0  0  0  0  0  0  0  0  0  0  0  0
    4.3810    0.1550    0.0000 H   0  0  0  0  0  0  0  0  0  0  0  0
    5.0010   -0.4650    0.0000 H   0  0  0  0  0  0  0  0  0  0  0  0
    3.7320   -4.1550    0.0000 H   0  0  0  0  0  0  0  0  0  0  0  0
    6.0010   -3.4650    0.0000 H   0  0  0  0  0  0  0  0  0  0  0  0
    2.0000   -2.5350    0.0000 H   0  0  0  0  0  0  0  0  0  0  0  0
    7.0791    1.0724    0.0000 H   0  0  0  0  0  0  0  0  0  0  0  0
    7.4776    1.7627    0.0000 H   0  0  0  0  0  0  0  0  0  0  0  0
    7.3110    0.6919    0.0000 H   0  0  0  0  0  0  0  0  0  0  0  0
    2.0000    0.4650    0.0000 H   0  0  0  0  0  0  0  0  0  0  0  0
    6.3301    2.9650    0.0000 H   0  0  0  0  0  0  0  0  0  0  0  0
    7.1910   -1.2480    0.0000 H   0  0  0  0  0  0  0  0  0  0  0  0
    8.1210   -0.7110    0.0000 H   0  0  0  0  0  0  0  0  0  0  0  0
    8.3531    4.1550    0.0000 H   0  0  0  0  0  0  0  0  0  0  0  0
    7.7331    4.7750    0.0000 H   0  0  0  0  0  0  0  0  0  0  0  0
    7.1131    4.1550    0.0000 H   0  0  0  0  0  0  0  0  0  0  0  0
    8.2891    2.1181    0.0000 H   0  0  0  0  0  0  0  0  0  0  0  0
    9.1360    2.3450    0.0000 H   0  0  0  0  0  0  0  0  0  0  0  0
    8.9091    3.1919    0.0000 H   0  0  0  0  0  0  0  0  0  0  0  0
  1 10  1  0  0  0  0
  1 11  1  0  0  0  0
  2 10  1  0  0  0  0
  2 12  1  0  0  0  0
  3  7  1  0  0  0  0
  3 35  1  0  0  0  0
  4  8  1  0  0  0  0
  4 36  1  0  0  0  0
  5  9  1  0  0  0  0
  5 37  1  0  0  0  0
  6 13  1  0  0  0  0
  6 41  1  0  0  0  0
  7  8  1  0  0  0  0
  7  9  1  0  0  0  0
  7 23  1  0  0  0  0
  8 10  1  0  0  0  0
  8 24  1  0  0  0  0
  9 11  1  0  0  0  0
  9 25  1  0  0  0  0
 10 26  1  0  0  0  0
 11 13  1  0  0  0  0
 11 27  1  0  0  0  0
 12 14  1  0  0  0  0
 12 15  1  0  0  0  0
 12 17  1  0  0  0  0
 13 28  1  0  0  0  0
 13 29  1  0  0  0  0
 14 16  1  0  0  0  0
 14 30  1  0  0  0  0
 14 31  1  0  0  0  0
 15 32  1  0  0  0  0
 15 33  1  0  0  0  0
 15 34  1  0  0  0  0
 16 18  1  0  0  0  0
 16 38  1  0  0  0  0
 16 39  1  0  0  0  0
 17 19  2  0  0  0  0
 17 40  1  0  0  0  0
 18 20  2  0  0  0  0
 18 42  1  0  0  0  0
 19 43  1  0  0  0  0
 19 44  1  0  0  0  0
 20 21  1  0  0  0  0
 20 22  1  0  0  0  0
 21 45  1  0  0  0  0
 21 46  1  0  0  0  0
 21 47  1  0  0  0  0
 22 48  1  0  0  0  0
 22 49  1  0  0  0  0
 22 50  1  0  0  0  0
M  END
>  <PUBCHEM_COMPOUND_CID>
14190656

>  <PUBCHEM_COMPOUND_CANONICALIZED>
1

>  <PUBCHEM_CACTVS_COMPLEXITY>
392

>  <PUBCHEM_CACTVS_HBOND_ACCEPTOR>
6

>  <PUBCHEM_CACTVS_HBOND_DONOR>
4

>  <PUBCHEM_CACTVS_ROTATABLE_BOND>
7

>  <PUBCHEM_CACTVS_SUBSKEYS>
AAADceB4OAAAAAAAAAAAAAAAAAAAAAAAAAAkAAAAAAAAAAAAAAAAGgAACAAADFSwgAMCCAAABgCAAiBCAAAAAAAgAAAICAAAAAgRFAIAIQAiQAAFgAAPIAPAYAwMAAAAAAAAAAAAAAAAAAAAAAAAAAAAAA==

>  <PUBCHEM_IUPAC_OPENEYE_NAME>
2-(1,5-dimethyl-1-vinyl-hex-4-enoxy)-6-(hydroxymethyl)tetrahydropyran-3,4,5-triol

>  <PUBCHEM_IUPAC_CAS_NAME>
2-(3,7-dimethylocta-1,6-dien-3-yloxy)-6-(hydroxymethyl)oxane-3,4,5-triol

>  <PUBCHEM_IUPAC_NAME>
2-(3,7-dimethylocta-1,6-dien-3-yloxy)-6-(hydroxymethyl)oxane-3,4,5-triol

>  <PUBCHEM_IUPAC_SYSTEMATIC_NAME>
2-(3,7-dimethylocta-1,6-dien-3-yloxy)-6-(hydroxymethyl)oxane-3,4,5-triol

>  <PUBCHEM_IUPAC_TRADITIONAL_NAME>
2-(1,5-dimethyl-1-vinyl-hex-4-enoxy)-6-methylol-tetrahydropyran-3,4,5-triol

>  <PUBCHEM_IUPAC_INCHI>
InChI=1S/C16H28O6/c1-5-16(4,8-6-7-10(2)3)22-15-14(20)13(19)12(18)11(9-17)21-15/h5,7,11-15,17-20H,1,6,8-9H2,2-4H3

>  <PUBCHEM_IUPAC_INCHIKEY>
FLXYFXDZJHWWGW-UHFFFAOYSA-N

>  <PUBCHEM_XLOGP3_AA>
1.1

>  <PUBCHEM_EXACT_MASS>
316.189

>  <PUBCHEM_MOLECULAR_FORMULA>
C16H28O6

>  <PUBCHEM_MOLECULAR_WEIGHT>
316.394

>  <PUBCHEM_OPENEYE_CAN_SMILES>
CC(=CCCC(C)(C=C)OC1C(C(C(C(O1)CO)O)O)O)C

>  <PUBCHEM_OPENEYE_ISO_SMILES>
CC(=CCCC(C)(C=C)OC1C(C(C(C(O1)CO)O)O)O)C

>  <PUBCHEM_CACTVS_TPSA>
99.4

>  <PUBCHEM_MONOISOTOPIC_WEIGHT>
316.189

>  <PUBCHEM_TOTAL_CHARGE>
0

>  <PUBCHEM_HEAVY_ATOM_COUNT>
22

>  <PUBCHEM_ATOM_DEF_STEREO_COUNT>
0

>  <PUBCHEM_ATOM_UDEF_STEREO_COUNT>
6

>  <PUBCHEM_BOND_DEF_STEREO_COUNT>
0

>  <PUBCHEM_BOND_UDEF_STEREO_COUNT>
0

>  <PUBCHEM_ISOTOPIC_ATOM_COUNT>
0

>  <PUBCHEM_COMPONENT_COUNT>
1

>  <PUBCHEM_CACTVS_TAUTO_COUNT>
1

>  <PUBCHEM_COORDINATE_TYPE>
1
5
255

>  <PUBCHEM_BONDANNOTATIONS>
11  13  3
12  15  3
10  2  3
7  3  3
8  4  3
9  5  3

$$$$
