14235481
 OpenBabel06101807152D

 73 74  0  0  1  0  0  0  0  0999 V2000
    5.4646   -3.6056    0.0000 O   0  0  0  0  0  0  0  0  0  0  0  0
    2.0000   -4.6056    0.0000 O   0  0  0  0  0  0  0  0  0  0  0  0
   18.0981    4.6886    0.0000 O   0  0  0  0  0  0  0  0  0  0  0  0
    4.5981   -3.1056    0.0000 C   0  0  2  0  0  0  0  0  0  0  0  0
    4.5981   -4.1056    0.0000 C   0  0  1  0  0  0  0  0  0  0  0  0
    3.7320   -2.6056    0.0000 C   0  0  0  0  0  0  0  0  0  0  0  0
    3.7320   -4.6056    0.0000 C   0  0  0  0  0  0  0  0  0  0  0  0
    2.8660   -3.1056    0.0000 C   0  0  0  0  0  0  0  0  0  0  0  0
    2.8660   -4.1056    0.0000 C   0  0  2  0  0  0  0  0  0  0  0  0
    4.5981   -5.1056    0.0000 C   0  0  0  0  0  0  0  0  0  0  0  0
    5.0981   -2.2396    0.0000 C   0  0  0  0  0  0  0  0  0  0  0  0
    2.8660   -2.1056    0.0000 C   0  0  0  0  0  0  0  0  0  0  0  0
    3.7320   -1.6056    0.0000 C   0  0  0  0  0  0  0  0  0  0  0  0
    6.0981   -2.2396    0.0000 C   0  0  0  0  0  0  0  0  0  0  0  0
    6.5981   -1.3735    0.0000 C   0  0  0  0  0  0  0  0  0  0  0  0
    6.0981   -0.5075    0.0000 C   0  0  0  0  0  0  0  0  0  0  0  0
    7.5981   -1.3735    0.0000 C   0  0  0  0  0  0  0  0  0  0  0  0
    8.0981   -0.5075    0.0000 C   0  0  0  0  0  0  0  0  0  0  0  0
    9.0981   -0.5075    0.0000 C   0  0  0  0  0  0  0  0  0  0  0  0
    9.5981    0.3585    0.0000 C   0  0  0  0  0  0  0  0  0  0  0  0
    9.0981    1.2245    0.0000 C   0  0  0  0  0  0  0  0  0  0  0  0
   10.5981    0.3585    0.0000 C   0  0  0  0  0  0  0  0  0  0  0  0
   11.0981    1.2245    0.0000 C   0  0  0  0  0  0  0  0  0  0  0  0
   12.0981    1.2245    0.0000 C   0  0  0  0  0  0  0  0  0  0  0  0
   12.5981    2.0906    0.0000 C   0  0  0  0  0  0  0  0  0  0  0  0
   13.5981    2.0906    0.0000 C   0  0  0  0  0  0  0  0  0  0  0  0
   14.0981    1.2245    0.0000 C   0  0  0  0  0  0  0  0  0  0  0  0
   14.0981    2.9566    0.0000 C   0  0  0  0  0  0  0  0  0  0  0  0
   15.0981    2.9566    0.0000 C   0  0  0  0  0  0  0  0  0  0  0  0
   15.5981    3.8226    0.0000 C   0  0  0  0  0  0  0  0  0  0  0  0
   16.5981    3.8226    0.0000 C   0  0  0  0  0  0  0  0  0  0  0  0
   17.0981    2.9566    0.0000 C   0  0  0  0  0  0  0  0  0  0  0  0
   17.0981    4.6886    0.0000 C   0  0  0  0  0  0  0  0  0  0  0  0
    3.3335   -5.0805    0.0000 H   0  0  0  0  0  0  0  0  0  0  0  0
    4.1306   -5.0805    0.0000 H   0  0  0  0  0  0  0  0  0  0  0  0
    2.6540   -2.5230    0.0000 H   0  0  0  0  0  0  0  0  0  0  0  0
    2.2554   -3.2132    0.0000 H   0  0  0  0  0  0  0  0  0  0  0  0
    2.8660   -4.7256    0.0000 H   0  0  0  0  0  0  0  0  0  0  0  0
    3.9781   -5.1056    0.0000 H   0  0  0  0  0  0  0  0  0  0  0  0
    4.5981   -5.7256    0.0000 H   0  0  0  0  0  0  0  0  0  0  0  0
    5.2181   -5.1056    0.0000 H   0  0  0  0  0  0  0  0  0  0  0  0
    4.7881   -1.7026    0.0000 H   0  0  0  0  0  0  0  0  0  0  0  0
    3.1760   -1.5687    0.0000 H   0  0  0  0  0  0  0  0  0  0  0  0
    2.3291   -1.7956    0.0000 H   0  0  0  0  0  0  0  0  0  0  0  0
    2.5560   -2.6425    0.0000 H   0  0  0  0  0  0  0  0  0  0  0  0
    4.3520   -1.6056    0.0000 H   0  0  0  0  0  0  0  0  0  0  0  0
    3.7320   -0.9856    0.0000 H   0  0  0  0  0  0  0  0  0  0  0  0
    3.1120   -1.6056    0.0000 H   0  0  0  0  0  0  0  0  0  0  0  0
    2.0000   -5.2256    0.0000 H   0  0  0  0  0  0  0  0  0  0  0  0
    6.4081   -2.7765    0.0000 H   0  0  0  0  0  0  0  0  0  0  0  0
    6.6350   -0.1975    0.0000 H   0  0  0  0  0  0  0  0  0  0  0  0
    5.7881    0.0294    0.0000 H   0  0  0  0  0  0  0  0  0  0  0  0
    5.5611   -0.8175    0.0000 H   0  0  0  0  0  0  0  0  0  0  0  0
    7.9081   -1.9105    0.0000 H   0  0  0  0  0  0  0  0  0  0  0  0
    7.7881    0.0294    0.0000 H   0  0  0  0  0  0  0  0  0  0  0  0
    9.4081   -1.0444    0.0000 H   0  0  0  0  0  0  0  0  0  0  0  0
    9.6350    1.5345    0.0000 H   0  0  0  0  0  0  0  0  0  0  0  0
    8.7881    1.7615    0.0000 H   0  0  0  0  0  0  0  0  0  0  0  0
    8.5611    0.9145    0.0000 H   0  0  0  0  0  0  0  0  0  0  0  0
   10.9081   -0.1784    0.0000 H   0  0  0  0  0  0  0  0  0  0  0  0
   10.7881    1.7615    0.0000 H   0  0  0  0  0  0  0  0  0  0  0  0
   12.4081    0.6876    0.0000 H   0  0  0  0  0  0  0  0  0  0  0  0
   12.2881    2.6275    0.0000 H   0  0  0  0  0  0  0  0  0  0  0  0
   13.5611    0.9145    0.0000 H   0  0  0  0  0  0  0  0  0  0  0  0
   14.4081    0.6876    0.0000 H   0  0  0  0  0  0  0  0  0  0  0  0
   14.6350    1.5345    0.0000 H   0  0  0  0  0  0  0  0  0  0  0  0
   13.7881    3.4935    0.0000 H   0  0  0  0  0  0  0  0  0  0  0  0
   15.4081    2.4197    0.0000 H   0  0  0  0  0  0  0  0  0  0  0  0
   15.2881    4.3596    0.0000 H   0  0  0  0  0  0  0  0  0  0  0  0
   16.5611    2.6466    0.0000 H   0  0  0  0  0  0  0  0  0  0  0  0
   17.4081    2.4197    0.0000 H   0  0  0  0  0  0  0  0  0  0  0  0
   17.6350    3.2666    0.0000 H   0  0  0  0  0  0  0  0  0  0  0  0
   16.7881    5.2256    0.0000 H   0  0  0  0  0  0  0  0  0  0  0  0
  1  4  1  0  0  0  0
  1  5  1  0  0  0  0
  2 49  1  0  0  0  0
  3 33  2  0  0  0  0
  4  5  1  1  0  0  0
  4  6  1  0  0  0  0
  4 11  1  0  0  0  0
  5  7  1  0  0  0  0
  5 10  1  1  0  0  0
  6  8  1  0  0  0  0
  6 12  1  0  0  0  0
  6 13  1  0  0  0  0
  7  9  1  0  0  0  0
  7 34  1  0  0  0  0
  7 35  1  0  0  0  0
  8  9  1  0  0  0  0
  8 36  1  0  0  0  0
  8 37  1  0  0  0  0
  9  2  1  0  0  0  0
  9 38  1  6  0  0  0
 10 39  1  0  0  0  0
 10 40  1  0  0  0  0
 10 41  1  0  0  0  0
 11 14  2  0  0  0  0
 11 42  1  0  0  0  0
 12 43  1  0  0  0  0
 12 44  1  0  0  0  0
 12 45  1  0  0  0  0
 13 46  1  0  0  0  0
 13 47  1  0  0  0  0
 13 48  1  0  0  0  0
 14 15  1  0  0  0  0
 14 50  1  0  0  0  0
 15 16  1  0  0  0  0
 15 17  2  0  0  0  0
 16 51  1  0  0  0  0
 16 52  1  0  0  0  0
 16 53  1  0  0  0  0
 17 18  1  0  0  0  0
 17 54  1  0  0  0  0
 18 19  2  0  0  0  0
 18 55  1  0  0  0  0
 19 20  1  0  0  0  0
 19 56  1  0  0  0  0
 20 21  1  0  0  0  0
 20 22  2  0  0  0  0
 21 57  1  0  0  0  0
 21 58  1  0  0  0  0
 21 59  1  0  0  0  0
 22 23  1  0  0  0  0
 22 60  1  0  0  0  0
 23 24  2  0  0  0  0
 23 61  1  0  0  0  0
 24 25  1  0  0  0  0
 24 62  1  0  0  0  0
 25 26  2  0  0  0  0
 25 63  1  0  0  0  0
 26 27  1  0  0  0  0
 26 28  1  0  0  0  0
 27 64  1  0  0  0  0
 27 65  1  0  0  0  0
 27 66  1  0  0  0  0
 28 29  2  0  0  0  0
 28 67  1  0  0  0  0
 29 30  1  0  0  0  0
 29 68  1  0  0  0  0
 30 31  2  0  0  0  0
 30 69  1  0  0  0  0
 31 32  1  0  0  0  0
 31 33  1  0  0  0  0
 32 70  1  0  0  0  0
 32 71  1  0  0  0  0
 32 72  1  0  0  0  0
 33 73  1  0  0  0  0
M  END
>  <PUBCHEM_COMPOUND_CID>
14235481

>  <PUBCHEM_COMPOUND_CANONICALIZED>
1

>  <PUBCHEM_CACTVS_COMPLEXITY>
965

>  <PUBCHEM_CACTVS_HBOND_ACCEPTOR>
3

>  <PUBCHEM_CACTVS_HBOND_DONOR>
1

>  <PUBCHEM_CACTVS_ROTATABLE_BOND>
9

>  <PUBCHEM_CACTVS_SUBSKEYS>
AAADcfB4MAAAAAAAAAAAAAAAEgAAAAAAAAAwAAAABIAAAAAAAAAAGgAACAAADlSggAICAAAABgCIAihSgAAAAAAgAAAICAEAAEgIFAIAIQACUAAFwAAIoYPA4PQPgAAAAAAAAABCAAYQADAAAAAAAAAAAA==

>  <PUBCHEM_IUPAC_OPENEYE_NAME>
(2E,4E,6E,8E,10E,12E,14E,16E)-17-[(1R,3S,6S)-3-hydroxy-1,5,5-trimethyl-7-oxabicyclo[4.1.0]heptan-6-yl]-2,6,11,15-tetramethyl-heptadeca-2,4,6,8,10,12,14,16-octaenal

>  <PUBCHEM_IUPAC_CAS_NAME>
(2E,4E,6E,8E,10E,12E,14E,16E)-17-[(1R,3S,6S)-3-hydroxy-1,5,5-trimethyl-7-oxabicyclo[4.1.0]heptan-6-yl]-2,6,11,15-tetramethylheptadeca-2,4,6,8,10,12,14,16-octaenal

>  <PUBCHEM_IUPAC_NAME>
(2E,4E,6E,8E,10E,12E,14E,16E)-17-[(1R,3S,6S)-3-hydroxy-1,5,5-trimethyl-7-oxabicyclo[4.1.0]heptan-6-yl]-2,6,11,15-tetramethylheptadeca-2,4,6,8,10,12,14,16-octaenal

>  <PUBCHEM_IUPAC_SYSTEMATIC_NAME>
(2E,4E,6E,8E,10E,12E,14E,16E)-2,6,11,15-tetramethyl-17-[(1R,3S,6S)-1,5,5-trimethyl-3-oxidanyl-7-oxabicyclo[4.1.0]heptan-6-yl]heptadeca-2,4,6,8,10,12,14,16-octaenal

>  <PUBCHEM_IUPAC_TRADITIONAL_NAME>
(2E,4E,6E,8E,10E,12E,14E,16E)-17-[(1R,3S,6S)-3-hydroxy-1,5,5-trimethyl-7-oxabicyclo[4.1.0]heptan-6-yl]-2,6,11,15-tetramethyl-heptadeca-2,4,6,8,10,12,14,16-octaenal

>  <PUBCHEM_IUPAC_INCHI>
InChI=1S/C30H40O3/c1-23(12-8-9-13-24(2)15-11-17-26(4)22-31)14-10-16-25(3)18-19-30-28(5,6)20-27(32)21-29(30,7)33-30/h8-19,22,27,32H,20-21H2,1-7H3/b9-8+,14-10+,15-11+,19-18+,23-12+,24-13+,25-16+,26-17+/t27-,29+,30-/m0/s1

>  <PUBCHEM_IUPAC_INCHIKEY>
TUSQPOXZYYVVMH-WMRQXDNJSA-N

>  <PUBCHEM_XLOGP3_AA>
7.5

>  <PUBCHEM_EXACT_MASS>
448.298

>  <PUBCHEM_MOLECULAR_FORMULA>
C30H40O3

>  <PUBCHEM_MOLECULAR_WEIGHT>
448.647

>  <PUBCHEM_OPENEYE_CAN_SMILES>
CC(=CC=CC=C(C)C=CC=C(C)C=O)C=CC=C(C)C=CC12C(CC(CC1(O2)C)O)(C)C

>  <PUBCHEM_OPENEYE_ISO_SMILES>
C/C(=C\C=C\C=C(/C)\C=C\C=C(/C)\C=O)/C=C/C=C(\C)/C=C/[C@]12[C@](O1)(C[C@H](CC2(C)C)O)C

>  <PUBCHEM_CACTVS_TPSA>
49.8

>  <PUBCHEM_MONOISOTOPIC_WEIGHT>
448.298

>  <PUBCHEM_TOTAL_CHARGE>
0

>  <PUBCHEM_HEAVY_ATOM_COUNT>
33

>  <PUBCHEM_ATOM_DEF_STEREO_COUNT>
3

>  <PUBCHEM_ATOM_UDEF_STEREO_COUNT>
0

>  <PUBCHEM_BOND_DEF_STEREO_COUNT>
8

>  <PUBCHEM_BOND_UDEF_STEREO_COUNT>
0

>  <PUBCHEM_ISOTOPIC_ATOM_COUNT>
0

>  <PUBCHEM_COMPONENT_COUNT>
1

>  <PUBCHEM_CACTVS_TAUTO_COUNT>
1

>  <PUBCHEM_COORDINATE_TYPE>
1
5
255

>  <PUBCHEM_BONDANNOTATIONS>
9  2  5
4  11  5
5  10  5

$$$$
