14237658
 OpenBabel06101807152D

 55 58  0  0  0  0  0  0  0  0999 V2000
    3.9061   -1.9174    0.0000 O   0  0  0  0  0  0  0  0  0  0  0  0
    7.4260   -1.9174    0.0000 O   0  0  0  0  0  0  0  0  0  0  0  0
    5.6660    1.1173    0.0000 O   0  0  0  0  0  0  0  0  0  0  0  0
    7.4144    1.1519    0.0000 O   0  0  0  0  0  0  0  0  0  0  0  0
   10.0680   -1.3552    0.0000 O   0  0  0  0  0  0  0  0  0  0  0  0
   11.7884    1.6515    0.0000 O   0  0  0  0  0  0  0  0  0  0  0  0
    3.0000   -1.4035    0.0000 C   0  0  0  0  0  0  0  0  0  0  0  0
    4.8000   -0.3827    0.0000 C   0  0  0  0  0  0  0  0  0  0  0  0
    4.8000   -1.3827    0.0000 C   0  0  0  0  0  0  0  0  0  0  0  0
    3.0000   -0.3619    0.0000 C   0  0  0  0  0  0  0  0  0  0  0  0
    6.5320   -0.3827    0.0000 C   0  0  0  0  0  0  0  0  0  0  0  0
    5.6660    0.1173    0.0000 C   0  0  0  0  0  0  0  0  0  0  0  0
    3.9061    0.1520    0.0000 C   0  0  0  0  0  0  0  0  0  0  0  0
    2.0000   -1.4074    0.0000 C   0  0  0  0  0  0  0  0  0  0  0  0
    2.5033   -2.2715    0.0000 C   0  0  0  0  0  0  0  0  0  0  0  0
    6.5320   -1.3827    0.0000 C   0  0  0  0  0  0  0  0  0  0  0  0
    5.6660   -1.8827    0.0000 C   0  0  0  0  0  0  0  0  0  0  0  0
    8.3321   -0.3619    0.0000 C   0  0  0  0  0  0  0  0  0  0  0  0
    7.4260    0.1520    0.0000 C   0  0  0  0  0  0  0  0  0  0  0  0
    9.1962    0.1415    0.0000 C   0  0  0  0  0  0  0  0  0  0  0  0
    8.3321   -1.4035    0.0000 C   0  0  0  0  0  0  0  0  0  0  0  0
   10.0641   -0.3552    0.0000 C   0  0  0  0  0  0  0  0  0  0  0  0
   10.9282    0.1481    0.0000 C   0  0  0  0  0  0  0  0  0  0  0  0
    9.1923    1.1414    0.0000 C   0  0  0  0  0  0  0  0  0  0  0  0
   11.7961   -0.3485    0.0000 C   0  0  0  0  0  0  0  0  0  0  0  0
   10.9243    1.1481    0.0000 C   0  0  0  0  0  0  0  0  0  0  0  0
   10.0564    1.6448    0.0000 C   0  0  0  0  0  0  0  0  0  0  0  0
   12.6602    0.1548    0.0000 C   0  0  0  0  0  0  0  0  0  0  0  0
   13.5282   -0.3418    0.0000 C   0  0  0  0  0  0  0  0  0  0  0  0
   14.3923    0.1615    0.0000 C   0  0  0  0  0  0  0  0  0  0  0  0
   13.5320   -1.3418    0.0000 C   0  0  0  0  0  0  0  0  0  0  0  0
    2.4643   -0.0498    0.0000 H   0  0  0  0  0  0  0  0  0  0  0  0
    3.9132    0.7719    0.0000 H   0  0  0  0  0  0  0  0  0  0  0  0
    1.9976   -0.7874    0.0000 H   0  0  0  0  0  0  0  0  0  0  0  0
    1.3800   -1.4098    0.0000 H   0  0  0  0  0  0  0  0  0  0  0  0
    2.0024   -2.0274    0.0000 H   0  0  0  0  0  0  0  0  0  0  0  0
    1.9652   -1.9635    0.0000 H   0  0  0  0  0  0  0  0  0  0  0  0
    2.1954   -2.8096    0.0000 H   0  0  0  0  0  0  0  0  0  0  0  0
    3.0415   -2.5794    0.0000 H   0  0  0  0  0  0  0  0  0  0  0  0
    5.6660   -2.5027    0.0000 H   0  0  0  0  0  0  0  0  0  0  0  0
    8.8678   -1.7156    0.0000 H   0  0  0  0  0  0  0  0  0  0  0  0
   11.3994   -0.8250    0.0000 H   0  0  0  0  0  0  0  0  0  0  0  0
   12.1965   -0.8219    0.0000 H   0  0  0  0  0  0  0  0  0  0  0  0
    8.6542    1.4494    0.0000 H   0  0  0  0  0  0  0  0  0  0  0  0
   10.0540    2.2648    0.0000 H   0  0  0  0  0  0  0  0  0  0  0  0
    5.1291    1.4273    0.0000 H   0  0  0  0  0  0  0  0  0  0  0  0
   12.6578    0.7748    0.0000 H   0  0  0  0  0  0  0  0  0  0  0  0
   10.6061   -1.6631    0.0000 H   0  0  0  0  0  0  0  0  0  0  0  0
   11.7860    2.2715    0.0000 H   0  0  0  0  0  0  0  0  0  0  0  0
   14.7043   -0.3743    0.0000 H   0  0  0  0  0  0  0  0  0  0  0  0
   14.9280    0.4736    0.0000 H   0  0  0  0  0  0  0  0  0  0  0  0
   12.9120   -1.3442    0.0000 H   0  0  0  0  0  0  0  0  0  0  0  0
   13.5344   -1.9618    0.0000 H   0  0  0  0  0  0  0  0  0  0  0  0
   14.1520   -1.3394    0.0000 H   0  0  0  0  0  0  0  0  0  0  0  0
   14.0802    0.6972    0.0000 H   0  0  0  0  0  0  0  0  0  0  0  0
  1  7  1  0  0  0  0
  1  9  1  0  0  0  0
  2 16  1  0  0  0  0
  2 21  1  0  0  0  0
  3 12  1  0  0  0  0
  3 46  1  0  0  0  0
  4 19  2  0  0  0  0
  5 22  1  0  0  0  0
  5 48  1  0  0  0  0
  6 26  1  0  0  0  0
  6 49  1  0  0  0  0
  7 10  1  0  0  0  0
  7 14  1  0  0  0  0
  7 15  1  0  0  0  0
  8  9  2  0  0  0  0
  8 12  1  0  0  0  0
  8 13  1  0  0  0  0
  9 17  1  0  0  0  0
 10 13  2  0  0  0  0
 10 32  1  0  0  0  0
 11 12  2  0  0  0  0
 11 16  1  0  0  0  0
 11 19  1  0  0  0  0
 13 33  1  0  0  0  0
 14 34  1  0  0  0  0
 14 35  1  0  0  0  0
 14 36  1  0  0  0  0
 15 37  1  0  0  0  0
 15 38  1  0  0  0  0
 15 39  1  0  0  0  0
 16 17  2  0  0  0  0
 17 40  1  0  0  0  0
 18 19  1  0  0  0  0
 18 20  1  0  0  0  0
 18 21  2  0  0  0  0
 20 22  2  0  0  0  0
 20 24  1  0  0  0  0
 21 41  1  0  0  0  0
 22 23  1  0  0  0  0
 23 25  1  0  0  0  0
 23 26  2  0  0  0  0
 24 27  2  0  0  0  0
 24 44  1  0  0  0  0
 25 28  1  0  0  0  0
 25 42  1  0  0  0  0
 25 43  1  0  0  0  0
 26 27  1  0  0  0  0
 27 45  1  0  0  0  0
 28 29  2  0  0  0  0
 28 47  1  0  0  0  0
 29 30  1  0  0  0  0
 29 31  1  0  0  0  0
 30 50  1  0  0  0  0
 30 51  1  0  0  0  0
 30 55  1  0  0  0  0
 31 52  1  0  0  0  0
 31 53  1  0  0  0  0
 31 54  1  0  0  0  0
M  END
>  <PUBCHEM_COMPOUND_CID>
14237658

>  <PUBCHEM_COMPOUND_CANONICALIZED>
1

>  <PUBCHEM_CACTVS_COMPLEXITY>
792

>  <PUBCHEM_CACTVS_HBOND_ACCEPTOR>
6

>  <PUBCHEM_CACTVS_HBOND_DONOR>
3

>  <PUBCHEM_CACTVS_ROTATABLE_BOND>
3

>  <PUBCHEM_CACTVS_SUBSKEYS>
AAADceB4OAAAAAAAAAAAAAAAAAAAAAAAAAAwYIEAAAAAAACBQAAAGgAACAAADESgmAIyBoAABgCIAqBSAAACCAAkIAAIiAEGCMgMJzaGNRqCeWCl4BUIuYeK7PzOIAACCAAIAABAAAQQABAAAAAAAAAAAA==

>  <PUBCHEM_IUPAC_OPENEYE_NAME>
7-[2,4-dihydroxy-3-(3-methylbut-2-enyl)phenyl]-5-hydroxy-2,2-dimethyl-pyrano[3,2-g]chromen-6-one

>  <PUBCHEM_IUPAC_CAS_NAME>
7-[2,4-dihydroxy-3-(3-methylbut-2-enyl)phenyl]-5-hydroxy-2,2-dimethyl-6-pyrano[3,2-g][1]benzopyranone

>  <PUBCHEM_IUPAC_NAME>
7-[2,4-dihydroxy-3-(3-methylbut-2-enyl)phenyl]-5-hydroxy-2,2-dimethylpyrano[3,2-g]chromen-6-one

>  <PUBCHEM_IUPAC_SYSTEMATIC_NAME>
2,2-dimethyl-7-[3-(3-methylbut-2-enyl)-2,4-bis(oxidanyl)phenyl]-5-oxidanyl-pyrano[3,2-g]chromen-6-one

>  <PUBCHEM_IUPAC_TRADITIONAL_NAME>
7-[2,4-dihydroxy-3-(3-methylbut-2-enyl)phenyl]-5-hydroxy-2,2-dimethyl-pyrano[3,2-g]chromen-6-one

>  <PUBCHEM_IUPAC_INCHI>
InChI=1S/C25H24O6/c1-13(2)5-6-15-18(26)8-7-14(22(15)27)17-12-30-20-11-19-16(9-10-25(3,4)31-19)23(28)21(20)24(17)29/h5,7-12,26-28H,6H2,1-4H3

>  <PUBCHEM_IUPAC_INCHIKEY>
BUYJDESZDWGXRM-UHFFFAOYSA-N

>  <PUBCHEM_XLOGP3_AA>
5.5

>  <PUBCHEM_EXACT_MASS>
420.157

>  <PUBCHEM_MOLECULAR_FORMULA>
C25H24O6

>  <PUBCHEM_MOLECULAR_WEIGHT>
420.461

>  <PUBCHEM_OPENEYE_CAN_SMILES>
CC(=CCC1=C(C=CC(=C1O)C2=COC3=CC4=C(C=CC(O4)(C)C)C(=C3C2=O)O)O)C

>  <PUBCHEM_OPENEYE_ISO_SMILES>
CC(=CCC1=C(C=CC(=C1O)C2=COC3=CC4=C(C=CC(O4)(C)C)C(=C3C2=O)O)O)C

>  <PUBCHEM_CACTVS_TPSA>
96.2

>  <PUBCHEM_MONOISOTOPIC_WEIGHT>
420.157

>  <PUBCHEM_TOTAL_CHARGE>
0

>  <PUBCHEM_HEAVY_ATOM_COUNT>
31

>  <PUBCHEM_ATOM_DEF_STEREO_COUNT>
0

>  <PUBCHEM_ATOM_UDEF_STEREO_COUNT>
0

>  <PUBCHEM_BOND_DEF_STEREO_COUNT>
0

>  <PUBCHEM_BOND_UDEF_STEREO_COUNT>
0

>  <PUBCHEM_ISOTOPIC_ATOM_COUNT>
0

>  <PUBCHEM_COMPONENT_COUNT>
1

>  <PUBCHEM_CACTVS_TAUTO_COUNT>
45

>  <PUBCHEM_COORDINATE_TYPE>
1
5
255

>  <PUBCHEM_BONDANNOTATIONS>
11  12  8
11  16  8
11  19  8
16  17  8
18  19  8
18  21  8
2  16  8
2  21  8
20  22  8
20  24  8
22  23  8
23  26  8
24  27  8
26  27  8
8  12  8
8  9  8
9  17  8

$$$$
