14258974
 OpenBabel06101807152D

 39 41  0  0  1  0  0  0  0  0999 V2000
    5.2718    2.0575    0.0000 O   0  0  0  0  0  0  0  0  0  0  0  0
    9.2644   -0.1812    0.0000 O   0  0  0  0  0  0  0  0  0  0  0  0
    4.8318    0.1665    0.0000 C   0  0  3  0  0  0  0  0  0  0  0  0
    6.2496    0.2429    0.0000 C   0  0  3  0  0  0  0  0  0  0  0  0
    6.5084    1.2088    0.0000 C   0  0  3  0  0  0  0  0  0  0  0  0
    4.5562   -0.7947    0.0000 C   0  0  0  0  0  0  0  0  0  0  0  0
    4.0028    0.7257    0.0000 C   0  0  0  0  0  0  0  0  0  0  0  0
    3.5568   -0.8296    0.0000 C   0  0  3  0  0  0  0  0  0  0  0  0
    3.2147    0.1101    0.0000 C   0  0  0  0  0  0  0  0  0  0  0  0
    6.1378    2.5575    0.0000 C   0  0  0  0  0  0  0  0  0  0  0  0
    7.5213   -0.5517    0.0000 C   0  0  0  0  0  0  0  0  0  0  0  0
    7.9401    1.0112    0.0000 C   0  0  0  0  0  0  0  0  0  0  0  0
    5.9908   -0.7230    0.0000 C   0  0  0  0  0  0  0  0  0  0  0  0
    8.2984    0.0776    0.0000 C   0  0  0  0  0  0  0  0  0  0  0  0
    2.9976   -1.6587    0.0000 C   0  0  0  0  0  0  0  0  0  0  0  0
    2.0000   -1.5889    0.0000 C   0  0  0  0  0  0  0  0  0  0  0  0
    3.4359   -2.5575    0.0000 C   0  0  0  0  0  0  0  0  0  0  0  0
    6.9172    1.6750    0.0000 H   0  0  0  0  0  0  0  0  0  0  0  0
    4.5129   -1.4132    0.0000 H   0  0  0  0  0  0  0  0  0  0  0  0
    5.1667   -0.9024    0.0000 H   0  0  0  0  0  0  0  0  0  0  0  0
    4.4013    1.2007    0.0000 H   0  0  0  0  0  0  0  0  0  0  0  0
    3.5721    1.1717    0.0000 H   0  0  0  0  0  0  0  0  0  0  0  0
    3.8573   -1.3719    0.0000 H   0  0  0  0  0  0  0  0  0  0  0  0
    2.8862    0.6359    0.0000 H   0  0  0  0  0  0  0  0  0  0  0  0
    2.6575   -0.1617    0.0000 H   0  0  0  0  0  0  0  0  0  0  0  0
    6.7195    2.7720    0.0000 H   0  0  0  0  0  0  0  0  0  0  0  0
    5.8746    3.1188    0.0000 H   0  0  0  0  0  0  0  0  0  0  0  0
    7.1367   -1.0381    0.0000 H   0  0  0  0  0  0  0  0  0  0  0  0
    7.9622   -0.9876    0.0000 H   0  0  0  0  0  0  0  0  0  0  0  0
    8.5479    1.1335    0.0000 H   0  0  0  0  0  0  0  0  0  0  0  0
    7.9210    1.6309    0.0000 H   0  0  0  0  0  0  0  0  0  0  0  0
    5.3919   -0.5626    0.0000 H   0  0  0  0  0  0  0  0  0  0  0  0
    5.8303   -1.3219    0.0000 H   0  0  0  0  0  0  0  0  0  0  0  0
    6.5897   -0.8835    0.0000 H   0  0  0  0  0  0  0  0  0  0  0  0
    2.0432   -0.9704    0.0000 H   0  0  0  0  0  0  0  0  0  0  0  0
    1.3815   -1.5457    0.0000 H   0  0  0  0  0  0  0  0  0  0  0  0
    1.9568   -2.2074    0.0000 H   0  0  0  0  0  0  0  0  0  0  0  0
    3.0892   -3.0715    0.0000 H   0  0  0  0  0  0  0  0  0  0  0  0
    4.0544   -2.6007    0.0000 H   0  0  0  0  0  0  0  0  0  0  0  0
  1  4  1  0  0  0  0
  1 10  1  0  0  0  0
  2 14  2  0  0  0  0
  3  4  1  0  0  0  0
  3  5  1  0  0  0  0
  3  6  1  0  0  0  0
  3  7  1  0  0  0  0
  4 11  1  0  0  0  0
  4 13  1  0  0  0  0
  5 10  1  0  0  0  0
  5 12  1  0  0  0  0
  5 18  1  0  0  0  0
  6  8  1  0  0  0  0
  6 19  1  0  0  0  0
  6 20  1  0  0  0  0
  7  9  1  0  0  0  0
  7 21  1  0  0  0  0
  7 22  1  0  0  0  0
  8  9  1  0  0  0  0
  8 15  1  0  0  0  0
  8 23  1  0  0  0  0
  9 24  1  0  0  0  0
  9 25  1  0  0  0  0
 10 26  1  0  0  0  0
 10 27  1  0  0  0  0
 11 14  1  0  0  0  0
 11 28  1  0  0  0  0
 11 29  1  0  0  0  0
 12 14  1  0  0  0  0
 12 30  1  0  0  0  0
 12 31  1  0  0  0  0
 13 32  1  0  0  0  0
 13 33  1  0  0  0  0
 13 34  1  0  0  0  0
 15 16  1  0  0  0  0
 15 17  2  0  0  0  0
 16 35  1  0  0  0  0
 16 36  1  0  0  0  0
 16 37  1  0  0  0  0
 17 38  1  0  0  0  0
 17 39  1  0  0  0  0
M  END
>  <PUBCHEM_COMPOUND_CID>
14258974

>  <PUBCHEM_COMPOUND_CANONICALIZED>
1

>  <PUBCHEM_CACTVS_COMPLEXITY>
386

>  <PUBCHEM_CACTVS_HBOND_ACCEPTOR>
2

>  <PUBCHEM_CACTVS_HBOND_DONOR>
0

>  <PUBCHEM_CACTVS_ROTATABLE_BOND>
1

>  <PUBCHEM_CACTVS_SUBSKEYS>
AAADceBwMAAAAAAAAAAAAAAAAAAAAaIAAAAwAAAABIAAAAAAAAAAGgAAAAAAD0SggAICAAAABACIAoBSAAAAAAAgAAAAAAEAAAgAABYAAQACAAAEoAAAAAGKzPDPgAAAAAAAAAAAAAYAADAAAQAAAAAAAA==

>  <PUBCHEM_IUPAC_OPENEYE_NAME>
3'-isopropenyl-5-methyl-spiro[6-oxabicyclo[3.2.1]octane-8,1'-cyclopentane]-3-one

>  <PUBCHEM_IUPAC_CAS_NAME>
5-methyl-3'-(1-methylethenyl)-3-spiro[6-oxabicyclo[3.2.1]octane-8,1'-cyclopentane]one

>  <PUBCHEM_IUPAC_NAME>
5-methyl-3'-prop-1-en-2-ylspiro[6-oxabicyclo[3.2.1]octane-8,1'-cyclopentane]-3-one

>  <PUBCHEM_IUPAC_SYSTEMATIC_NAME>
5-methyl-3'-prop-1-en-2-yl-spiro[6-oxabicyclo[3.2.1]octane-8,1'-cyclopentane]-3-one

>  <PUBCHEM_IUPAC_TRADITIONAL_NAME>
3'-isopropenyl-5-methyl-spiro[6-oxabicyclo[3.2.1]octane-8,1'-cyclopentane]-3-one

>  <PUBCHEM_IUPAC_INCHI>
InChI=1S/C15H22O2/c1-10(2)11-4-5-15(7-11)12-6-13(16)8-14(15,3)17-9-12/h11-12H,1,4-9H2,2-3H3

>  <PUBCHEM_IUPAC_INCHIKEY>
YHIWYGHFGRMQMO-UHFFFAOYSA-N

>  <PUBCHEM_XLOGP3_AA>
2.5

>  <PUBCHEM_EXACT_MASS>
234.162

>  <PUBCHEM_MOLECULAR_FORMULA>
C15H22O2

>  <PUBCHEM_MOLECULAR_WEIGHT>
234.339

>  <PUBCHEM_OPENEYE_CAN_SMILES>
CC(=C)C1CCC2(C1)C3CC(=O)CC2(OC3)C

>  <PUBCHEM_OPENEYE_ISO_SMILES>
CC(=C)C1CCC2(C1)C3CC(=O)CC2(OC3)C

>  <PUBCHEM_CACTVS_TPSA>
26.3

>  <PUBCHEM_MONOISOTOPIC_WEIGHT>
234.162

>  <PUBCHEM_TOTAL_CHARGE>
0

>  <PUBCHEM_HEAVY_ATOM_COUNT>
17

>  <PUBCHEM_ATOM_DEF_STEREO_COUNT>
0

>  <PUBCHEM_ATOM_UDEF_STEREO_COUNT>
4

>  <PUBCHEM_BOND_DEF_STEREO_COUNT>
0

>  <PUBCHEM_BOND_UDEF_STEREO_COUNT>
0

>  <PUBCHEM_ISOTOPIC_ATOM_COUNT>
0

>  <PUBCHEM_COMPONENT_COUNT>
1

>  <PUBCHEM_CACTVS_TAUTO_COUNT>
3

>  <PUBCHEM_COORDINATE_TYPE>
1
5
255

>  <PUBCHEM_BONDANNOTATIONS>
3  6  3
4  13  3
5  10  3
8  15  3

$$$$
