14259786
 OpenBabel06101807152D

 32 34  0  0  0  0  0  0  0  0999 V2000
    7.2785    1.7623    0.0000 O   0  0  0  0  0  0  0  0  0  0  0  0
    5.5301    1.7277    0.0000 O   0  0  0  0  0  0  0  0  0  0  0  0
    5.5301   -2.2723    0.0000 O   0  0  0  0  0  0  0  0  0  0  0  0
    9.0602    0.7519    0.0000 O   0  0  0  0  0  0  0  0  0  0  0  0
    6.3961    0.2277    0.0000 C   0  0  0  0  0  0  0  0  0  0  0  0
    4.6641    0.2277    0.0000 C   0  0  0  0  0  0  0  0  0  0  0  0
    6.3961   -0.7723    0.0000 C   0  0  0  0  0  0  0  0  0  0  0  0
    4.6641   -0.7723    0.0000 C   0  0  0  0  0  0  0  0  0  0  0  0
    5.5301    0.7277    0.0000 C   0  0  0  0  0  0  0  0  0  0  0  0
    5.5301   -1.2723    0.0000 C   0  0  0  0  0  0  0  0  0  0  0  0
    7.2901    0.7624    0.0000 C   0  0  0  0  0  0  0  0  0  0  0  0
    3.7702    0.7624    0.0000 C   0  0  0  0  0  0  0  0  0  0  0  0
    3.7702   -1.3070    0.0000 C   0  0  0  0  0  0  0  0  0  0  0  0
    2.8641    0.2485    0.0000 C   0  0  0  0  0  0  0  0  0  0  0  0
    7.2901   -1.3070    0.0000 C   0  0  0  0  0  0  0  0  0  0  0  0
    2.8641   -0.7931    0.0000 C   0  0  0  0  0  0  0  0  0  0  0  0
    8.1962    0.2485    0.0000 C   0  0  0  0  0  0  0  0  0  0  0  0
    8.1962   -0.7931    0.0000 C   0  0  0  0  0  0  0  0  0  0  0  0
    2.0000    0.7519    0.0000 C   0  0  0  0  0  0  0  0  0  0  0  0
    8.1387    2.2723    0.0000 C   0  0  0  0  0  0  0  0  0  0  0  0
    3.7773    1.3823    0.0000 H   0  0  0  0  0  0  0  0  0  0  0  0
    3.7773   -1.9269    0.0000 H   0  0  0  0  0  0  0  0  0  0  0  0
    7.2829   -1.9269    0.0000 H   0  0  0  0  0  0  0  0  0  0  0  0
    2.3284   -1.1052    0.0000 H   0  0  0  0  0  0  0  0  0  0  0  0
    8.7319   -1.1052    0.0000 H   0  0  0  0  0  0  0  0  0  0  0  0
    2.3121    1.2876    0.0000 H   0  0  0  0  0  0  0  0  0  0  0  0
    1.4643    1.0639    0.0000 H   0  0  0  0  0  0  0  0  0  0  0  0
    1.6879    0.2161    0.0000 H   0  0  0  0  0  0  0  0  0  0  0  0
    9.5984    0.4439    0.0000 H   0  0  0  0  0  0  0  0  0  0  0  0
    8.4549    1.7390    0.0000 H   0  0  0  0  0  0  0  0  0  0  0  0
    8.6720    2.5885    0.0000 H   0  0  0  0  0  0  0  0  0  0  0  0
    7.8225    2.8056    0.0000 H   0  0  0  0  0  0  0  0  0  0  0  0
  1 11  1  0  0  0  0
  1 20  1  0  0  0  0
  2  9  2  0  0  0  0
  3 10  2  0  0  0  0
  4 17  1  0  0  0  0
  4 29  1  0  0  0  0
  5  7  2  0  0  0  0
  5  9  1  0  0  0  0
  5 11  1  0  0  0  0
  6  8  2  0  0  0  0
  6  9  1  0  0  0  0
  6 12  1  0  0  0  0
  7 10  1  0  0  0  0
  7 15  1  0  0  0  0
  8 10  1  0  0  0  0
  8 13  1  0  0  0  0
 11 17  2  0  0  0  0
 12 14  2  0  0  0  0
 12 21  1  0  0  0  0
 13 16  2  0  0  0  0
 13 22  1  0  0  0  0
 14 16  1  0  0  0  0
 14 19  1  0  0  0  0
 15 18  2  0  0  0  0
 15 23  1  0  0  0  0
 16 24  1  0  0  0  0
 17 18  1  0  0  0  0
 18 25  1  0  0  0  0
 19 26  1  0  0  0  0
 19 27  1  0  0  0  0
 19 28  1  0  0  0  0
 20 30  1  0  0  0  0
 20 31  1  0  0  0  0
 20 32  1  0  0  0  0
M  END
>  <PUBCHEM_COMPOUND_CID>
14259786

>  <PUBCHEM_COMPOUND_CANONICALIZED>
1

>  <PUBCHEM_CACTVS_COMPLEXITY>
419

>  <PUBCHEM_CACTVS_HBOND_ACCEPTOR>
4

>  <PUBCHEM_CACTVS_HBOND_DONOR>
1

>  <PUBCHEM_CACTVS_ROTATABLE_BOND>
1

>  <PUBCHEM_CACTVS_SUBSKEYS>
AAADccB4OAAAAAAAAAAAAAAAAAAAAAAAAAAwYMAAAAAAAADBQAAAGgAACAAADASAmAIyBoAABgCIAqBSAAACCAAkIAAIiAEGiMgNJjaGNRqAcWMk4BELuYeLzPDO4AADAAAYQADAAAYAADCAAAAAAAAAAA==

>  <PUBCHEM_IUPAC_OPENEYE_NAME>
2-hydroxy-1-methoxy-7-methyl-anthracene-9,10-dione

>  <PUBCHEM_IUPAC_CAS_NAME>
2-hydroxy-1-methoxy-7-methylanthracene-9,10-dione

>  <PUBCHEM_IUPAC_NAME>
2-hydroxy-1-methoxy-7-methylanthracene-9,10-dione

>  <PUBCHEM_IUPAC_SYSTEMATIC_NAME>
1-methoxy-7-methyl-2-oxidanyl-anthracene-9,10-dione

>  <PUBCHEM_IUPAC_TRADITIONAL_NAME>
2-hydroxy-1-methoxy-7-methyl-9,10-anthraquinone

>  <PUBCHEM_IUPAC_INCHI>
InChI=1S/C16H12O4/c1-8-3-4-9-11(7-8)15(19)13-10(14(9)18)5-6-12(17)16(13)20-2/h3-7,17H,1-2H3

>  <PUBCHEM_IUPAC_INCHIKEY>
BGSVZFQQTPFVTB-UHFFFAOYSA-N

>  <PUBCHEM_XLOGP3_AA>
2.8

>  <PUBCHEM_EXACT_MASS>
268.074

>  <PUBCHEM_MOLECULAR_FORMULA>
C16H12O4

>  <PUBCHEM_MOLECULAR_WEIGHT>
268.268

>  <PUBCHEM_OPENEYE_CAN_SMILES>
CC1=CC2=C(C=C1)C(=O)C3=C(C2=O)C(=C(C=C3)O)OC

>  <PUBCHEM_OPENEYE_ISO_SMILES>
CC1=CC2=C(C=C1)C(=O)C3=C(C2=O)C(=C(C=C3)O)OC

>  <PUBCHEM_CACTVS_TPSA>
63.6

>  <PUBCHEM_MONOISOTOPIC_WEIGHT>
268.074

>  <PUBCHEM_TOTAL_CHARGE>
0

>  <PUBCHEM_HEAVY_ATOM_COUNT>
20

>  <PUBCHEM_ATOM_DEF_STEREO_COUNT>
0

>  <PUBCHEM_ATOM_UDEF_STEREO_COUNT>
0

>  <PUBCHEM_BOND_DEF_STEREO_COUNT>
0

>  <PUBCHEM_BOND_UDEF_STEREO_COUNT>
0

>  <PUBCHEM_ISOTOPIC_ATOM_COUNT>
0

>  <PUBCHEM_COMPONENT_COUNT>
1

>  <PUBCHEM_CACTVS_TAUTO_COUNT>
24

>  <PUBCHEM_COORDINATE_TYPE>
1
5
255

>  <PUBCHEM_BONDANNOTATIONS>
11  17  8
12  14  8
13  16  8
14  16  8
15  18  8
17  18  8
5  11  8
5  7  8
6  12  8
6  8  8
7  15  8
8  13  8

$$$$
