14258983
 OpenBabel06101807152D

 41 42  0  0  1  0  0  0  0  0999 V2000
    4.5000   -2.0717    0.0000 O   0  0  0  0  0  0  0  0  0  0  0  0
    2.0000    0.5264    0.0000 O   0  0  0  0  0  0  0  0  0  0  0  0
    5.0000    0.5264    0.0000 C   0  0  3  0  0  0  0  0  0  0  0  0
    5.5878    1.3354    0.0000 C   0  0  0  0  0  0  0  0  0  0  0  0
    4.5000   -0.3397    0.0000 C   0  0  3  0  0  0  0  0  0  0  0  0
    4.5000    1.3924    0.0000 C   0  0  3  0  0  0  0  0  0  0  0  0
    5.5878   -0.2827    0.0000 C   0  0  0  0  0  0  0  0  0  0  0  0
    6.5388    1.0264    0.0000 C   0  0  3  0  0  0  0  0  0  0  0  0
    6.5388    0.0264    0.0000 C   0  0  0  0  0  0  0  0  0  0  0  0
    3.5000   -0.3397    0.0000 C   0  0  0  0  0  0  0  0  0  0  0  0
    3.5000    1.3924    0.0000 C   0  0  0  0  0  0  0  0  0  0  0  0
    5.0000   -1.2057    0.0000 C   0  0  0  0  0  0  0  0  0  0  0  0
    3.0000    0.5264    0.0000 C   0  0  0  0  0  0  0  0  0  0  0  0
    5.0000    2.2584    0.0000 C   0  0  0  0  0  0  0  0  0  0  0  0
    7.3479    1.6141    0.0000 C   0  0  0  0  0  0  0  0  0  0  0  0
    8.2614    1.2074    0.0000 C   0  0  0  0  0  0  0  0  0  0  0  0
    7.2433    2.6087    0.0000 C   0  0  0  0  0  0  0  0  0  0  0  0
    5.8400    1.9018    0.0000 H   0  0  0  0  0  0  0  0  0  0  0  0
    5.0508    1.6454    0.0000 H   0  0  0  0  0  0  0  0  0  0  0  0
    4.1900   -0.8766    0.0000 H   0  0  0  0  0  0  0  0  0  0  0  0
    5.1200    1.3924    0.0000 H   0  0  0  0  0  0  0  0  0  0  0  0
    5.0508   -0.5927    0.0000 H   0  0  0  0  0  0  0  0  0  0  0  0
    5.8400   -0.8491    0.0000 H   0  0  0  0  0  0  0  0  0  0  0  0
    6.4418    1.6387    0.0000 H   0  0  0  0  0  0  0  0  0  0  0  0
    6.6678   -0.5801    0.0000 H   0  0  0  0  0  0  0  0  0  0  0  0
    7.1554    0.0912    0.0000 H   0  0  0  0  0  0  0  0  0  0  0  0
    2.9174   -0.5517    0.0000 H   0  0  0  0  0  0  0  0  0  0  0  0
    3.6077   -0.9503    0.0000 H   0  0  0  0  0  0  0  0  0  0  0  0
    3.6077    2.0030    0.0000 H   0  0  0  0  0  0  0  0  0  0  0  0
    2.9174    1.6044    0.0000 H   0  0  0  0  0  0  0  0  0  0  0  0
    5.4750   -1.6042    0.0000 H   0  0  0  0  0  0  0  0  0  0  0  0
    5.4750   -0.8072    0.0000 H   0  0  0  0  0  0  0  0  0  0  0  0
    5.5369    1.9484    0.0000 H   0  0  0  0  0  0  0  0  0  0  0  0
    5.3100    2.7953    0.0000 H   0  0  0  0  0  0  0  0  0  0  0  0
    4.4631    2.5684    0.0000 H   0  0  0  0  0  0  0  0  0  0  0  0
    8.0092    0.6410    0.0000 H   0  0  0  0  0  0  0  0  0  0  0  0
    8.8278    0.9552    0.0000 H   0  0  0  0  0  0  0  0  0  0  0  0
    8.5136    1.7738    0.0000 H   0  0  0  0  0  0  0  0  0  0  0  0
    4.8100   -2.6087    0.0000 H   0  0  0  0  0  0  0  0  0  0  0  0
    7.7449    2.9731    0.0000 H   0  0  0  0  0  0  0  0  0  0  0  0
    6.6769    2.8608    0.0000 H   0  0  0  0  0  0  0  0  0  0  0  0
  1 12  1  0  0  0  0
  1 39  1  0  0  0  0
  2 13  2  0  0  0  0
  3  4  1  0  0  0  0
  3  5  1  0  0  0  0
  3  6  1  0  0  0  0
  3  7  1  0  0  0  0
  4  8  1  0  0  0  0
  4 18  1  0  0  0  0
  4 19  1  0  0  0  0
  5 10  1  0  0  0  0
  5 12  1  0  0  0  0
  5 20  1  0  0  0  0
  6 11  1  0  0  0  0
  6 14  1  0  0  0  0
  6 21  1  0  0  0  0
  7  9  1  0  0  0  0
  7 22  1  0  0  0  0
  7 23  1  0  0  0  0
  8  9  1  0  0  0  0
  8 15  1  0  0  0  0
  8 24  1  0  0  0  0
  9 25  1  0  0  0  0
  9 26  1  0  0  0  0
 10 13  1  0  0  0  0
 10 27  1  0  0  0  0
 10 28  1  0  0  0  0
 11 13  1  0  0  0  0
 11 29  1  0  0  0  0
 11 30  1  0  0  0  0
 12 31  1  0  0  0  0
 12 32  1  0  0  0  0
 14 33  1  0  0  0  0
 14 34  1  0  0  0  0
 14 35  1  0  0  0  0
 15 16  1  0  0  0  0
 15 17  2  0  0  0  0
 16 36  1  0  0  0  0
 16 37  1  0  0  0  0
 16 38  1  0  0  0  0
 17 40  1  0  0  0  0
 17 41  1  0  0  0  0
M  END
>  <PUBCHEM_COMPOUND_CID>
14258983

>  <PUBCHEM_COMPOUND_CANONICALIZED>
1

>  <PUBCHEM_CACTVS_COMPLEXITY>
334

>  <PUBCHEM_CACTVS_HBOND_ACCEPTOR>
2

>  <PUBCHEM_CACTVS_HBOND_DONOR>
1

>  <PUBCHEM_CACTVS_ROTATABLE_BOND>
2

>  <PUBCHEM_CACTVS_SUBSKEYS>
AAADceBwMAAAAAAAAAAAAAAAAAAAAYAAAAAwAAAAAAAAAAAAAAAAGgAACAAADwSggAICAAAAAgCIAoBSAAAAAAAgAAAAAAEAAAgAEBIAAQAAQAAEgAAAAAGKyPCPgAAAAAAAAAAAAAQAACAAAQAAAAAAAA==

>  <PUBCHEM_IUPAC_OPENEYE_NAME>
10-(hydroxymethyl)-3-isopropenyl-6-methyl-spiro[4.5]decan-8-one

>  <PUBCHEM_IUPAC_CAS_NAME>
10-(hydroxymethyl)-6-methyl-3-(1-methylethenyl)-8-spiro[4.5]decanone

>  <PUBCHEM_IUPAC_NAME>
10-(hydroxymethyl)-6-methyl-3-prop-1-en-2-ylspiro[4.5]decan-8-one

>  <PUBCHEM_IUPAC_SYSTEMATIC_NAME>
10-(hydroxymethyl)-6-methyl-3-prop-1-en-2-yl-spiro[4.5]decan-8-one

>  <PUBCHEM_IUPAC_TRADITIONAL_NAME>
3-isopropenyl-6-methyl-10-methylol-spiro[4.5]decan-8-one

>  <PUBCHEM_IUPAC_INCHI>
InChI=1S/C15H24O2/c1-10(2)12-4-5-15(8-12)11(3)6-14(17)7-13(15)9-16/h11-13,16H,1,4-9H2,2-3H3

>  <PUBCHEM_IUPAC_INCHIKEY>
YKAYVNCAHDGJNI-UHFFFAOYSA-N

>  <PUBCHEM_XLOGP3_AA>
3.1

>  <PUBCHEM_EXACT_MASS>
236.178

>  <PUBCHEM_MOLECULAR_FORMULA>
C15H24O2

>  <PUBCHEM_MOLECULAR_WEIGHT>
236.355

>  <PUBCHEM_OPENEYE_CAN_SMILES>
CC1CC(=O)CC(C12CCC(C2)C(=C)C)CO

>  <PUBCHEM_OPENEYE_ISO_SMILES>
CC1CC(=O)CC(C12CCC(C2)C(=C)C)CO

>  <PUBCHEM_CACTVS_TPSA>
37.3

>  <PUBCHEM_MONOISOTOPIC_WEIGHT>
236.178

>  <PUBCHEM_TOTAL_CHARGE>
0

>  <PUBCHEM_HEAVY_ATOM_COUNT>
17

>  <PUBCHEM_ATOM_DEF_STEREO_COUNT>
0

>  <PUBCHEM_ATOM_UDEF_STEREO_COUNT>
4

>  <PUBCHEM_BOND_DEF_STEREO_COUNT>
0

>  <PUBCHEM_BOND_UDEF_STEREO_COUNT>
0

>  <PUBCHEM_ISOTOPIC_ATOM_COUNT>
0

>  <PUBCHEM_COMPONENT_COUNT>
1

>  <PUBCHEM_CACTVS_TAUTO_COUNT>
3

>  <PUBCHEM_COORDINATE_TYPE>
1
5
255

>  <PUBCHEM_BONDANNOTATIONS>
3  4  3
5  12  3
6  14  3
8  15  3

$$$$
