14309761
 OpenBabel06101807152D

 42 45  0  0  0  0  0  0  0  0999 V2000
    7.6904    2.0665    0.0000 O   0  0  0  0  0  0  0  0  0  0  0  0
    5.9065    2.4409    0.0000 O   0  0  0  0  0  0  0  0  0  0  0  0
    8.4155   -1.3598    0.0000 O   0  0  0  0  0  0  0  0  0  0  0  0
    6.7634   -0.7866    0.0000 O   0  0  0  0  0  0  0  0  0  0  0  0
   11.0552    0.9986    0.0000 O   0  0  0  0  0  0  0  0  0  0  0  0
    2.4170    1.5366    0.0000 O   0  0  0  0  0  0  0  0  0  0  0  0
    6.4033    0.9076    0.0000 C   0  0  0  0  0  0  0  0  0  0  0  0
    8.0505    0.3723    0.0000 C   0  0  0  0  0  0  0  0  0  0  0  0
    5.4092    0.9102    0.0000 C   0  0  0  0  0  0  0  0  0  0  0  0
    8.3596    1.3234    0.0000 C   0  0  0  0  0  0  0  0  0  0  0  0
    7.0724    0.1644    0.0000 C   0  0  0  0  0  0  0  0  0  0  0  0
    9.7560   -0.2037    0.0000 C   0  0  0  0  0  0  0  0  0  0  0  0
    6.7123    1.8586    0.0000 C   0  0  0  0  0  0  0  0  0  0  0  0
    8.7355   -0.4124    0.0000 C   0  0  0  0  0  0  0  0  0  0  0  0
    5.1028    1.8558    0.0000 C   0  0  0  0  0  0  0  0  0  0  0  0
   10.4223   -0.9494    0.0000 C   0  0  0  0  0  0  0  0  0  0  0  0
   10.0779    0.7870    0.0000 C   0  0  0  0  0  0  0  0  0  0  0  0
    9.3750    1.5556    0.0000 C   0  0  0  0  0  0  0  0  0  0  0  0
    4.7276    0.1307    0.0000 C   0  0  0  0  0  0  0  0  0  0  0  0
    4.0936    2.0876    0.0000 C   0  0  0  0  0  0  0  0  0  0  0  0
   11.4012   -0.7453    0.0000 C   0  0  0  0  0  0  0  0  0  0  0  0
    3.7133    0.3390    0.0000 C   0  0  0  0  0  0  0  0  0  0  0  0
    3.3942    1.3241    0.0000 C   0  0  0  0  0  0  0  0  0  0  0  0
   12.0675   -1.4910    0.0000 C   0  0  0  0  0  0  0  0  0  0  0  0
   13.0464   -1.2868    0.0000 C   0  0  0  0  0  0  0  0  0  0  0  0
   11.7548   -2.4409    0.0000 C   0  0  0  0  0  0  0  0  0  0  0  0
    9.8952   -1.2759    0.0000 H   0  0  0  0  0  0  0  0  0  0  0  0
   10.6523   -1.5252    0.0000 H   0  0  0  0  0  0  0  0  0  0  0  0
    9.5597    2.1475    0.0000 H   0  0  0  0  0  0  0  0  0  0  0  0
    4.9255   -0.4569    0.0000 H   0  0  0  0  0  0  0  0  0  0  0  0
    3.9094    2.6796    0.0000 H   0  0  0  0  0  0  0  0  0  0  0  0
   11.5951   -0.1564    0.0000 H   0  0  0  0  0  0  0  0  0  0  0  0
    3.2998   -0.1230    0.0000 H   0  0  0  0  0  0  0  0  0  0  0  0
    8.8250   -1.8253    0.0000 H   0  0  0  0  0  0  0  0  0  0  0  0
   11.2446    1.5890    0.0000 H   0  0  0  0  0  0  0  0  0  0  0  0
   13.1730   -1.8938    0.0000 H   0  0  0  0  0  0  0  0  0  0  0  0
   13.6534   -1.1603    0.0000 H   0  0  0  0  0  0  0  0  0  0  0  0
   11.1659   -2.2470    0.0000 H   0  0  0  0  0  0  0  0  0  0  0  0
   11.5609   -3.0298    0.0000 H   0  0  0  0  0  0  0  0  0  0  0  0
   12.3437   -2.6347    0.0000 H   0  0  0  0  0  0  0  0  0  0  0  0
   12.9199   -0.6799    0.0000 H   0  0  0  0  0  0  0  0  0  0  0  0
    2.0000    1.0778    0.0000 H   0  0  0  0  0  0  0  0  0  0  0  0
  1 10  1  0  0  0  0
  1 13  1  0  0  0  0
  2 13  1  0  0  0  0
  2 15  1  0  0  0  0
  3 14  1  0  0  0  0
  3 34  1  0  0  0  0
  4 11  2  0  0  0  0
  5 17  1  0  0  0  0
  5 35  1  0  0  0  0
  6 23  1  0  0  0  0
  6 42  1  0  0  0  0
  7  9  1  0  0  0  0
  7 11  1  0  0  0  0
  7 13  2  0  0  0  0
  8 10  2  0  0  0  0
  8 11  1  0  0  0  0
  8 14  1  0  0  0  0
  9 15  2  0  0  0  0
  9 19  1  0  0  0  0
 10 18  1  0  0  0  0
 12 14  2  0  0  0  0
 12 16  1  0  0  0  0
 12 17  1  0  0  0  0
 15 20  1  0  0  0  0
 16 21  1  0  0  0  0
 16 27  1  0  0  0  0
 16 28  1  0  0  0  0
 17 18  2  0  0  0  0
 18 29  1  0  0  0  0
 19 22  2  0  0  0  0
 19 30  1  0  0  0  0
 20 23  2  0  0  0  0
 20 31  1  0  0  0  0
 21 24  2  0  0  0  0
 21 32  1  0  0  0  0
 22 23  1  0  0  0  0
 22 33  1  0  0  0  0
 24 25  1  0  0  0  0
 24 26  1  0  0  0  0
 25 36  1  0  0  0  0
 25 37  1  0  0  0  0
 25 41  1  0  0  0  0
 26 38  1  0  0  0  0
 26 39  1  0  0  0  0
 26 40  1  0  0  0  0
M  END
>  <PUBCHEM_COMPOUND_CID>
14309761

>  <PUBCHEM_COMPOUND_CANONICALIZED>
1

>  <PUBCHEM_CACTVS_COMPLEXITY>
585

>  <PUBCHEM_CACTVS_HBOND_ACCEPTOR>
6

>  <PUBCHEM_CACTVS_HBOND_DONOR>
3

>  <PUBCHEM_CACTVS_ROTATABLE_BOND>
2

>  <PUBCHEM_CACTVS_SUBSKEYS>
AAADceB4OAAAAAAAAAAAAAAAAAAAASAAAAA0YIAAAAAAAEiR9AAAGgAACAAADASAmAAyDsAABkCIAqDSCAACCAAkIAAIiAEGCMgcJzaONRqie2Cl4BUMuYfL7PzOoAACCAAIAABAAAQQABAAAAAAAAAAAA==

>  <PUBCHEM_IUPAC_OPENEYE_NAME>
1,3,8-trihydroxy-2-(3-methylbut-2-enyl)benzofuro[2,3-b]chromen-11-one

>  <PUBCHEM_IUPAC_CAS_NAME>
1,3,8-trihydroxy-2-(3-methylbut-2-enyl)-11-benzofuro[2,3-b][1]benzopyranone

>  <PUBCHEM_IUPAC_NAME>
1,3,8-trihydroxy-2-(3-methylbut-2-enyl)-[1]benzofuro[2,3-b]chromen-11-one

>  <PUBCHEM_IUPAC_SYSTEMATIC_NAME>
2-(3-methylbut-2-enyl)-1,3,8-tris(oxidanyl)-[1]benzofuro[2,3-b]chromen-11-one

>  <PUBCHEM_IUPAC_TRADITIONAL_NAME>
1,3,8-trihydroxy-2-(3-methylbut-2-enyl)benzofuro[2,3-b]chromen-11-one

>  <PUBCHEM_IUPAC_INCHI>
InChI=1S/C20H16O6/c1-9(2)3-5-11-13(22)8-15-17(18(11)23)19(24)16-12-6-4-10(21)7-14(12)25-20(16)26-15/h3-4,6-8,21-23H,5H2,1-2H3

>  <PUBCHEM_IUPAC_INCHIKEY>
NOYRXEKDLRHOOL-UHFFFAOYSA-N

>  <PUBCHEM_XLOGP3_AA>
5.1

>  <PUBCHEM_EXACT_MASS>
352.095

>  <PUBCHEM_MOLECULAR_FORMULA>
C20H16O6

>  <PUBCHEM_MOLECULAR_WEIGHT>
352.342

>  <PUBCHEM_OPENEYE_CAN_SMILES>
CC(=CCC1=C(C=C2C(=C1O)C(=O)C3=C(O2)OC4=C3C=CC(=C4)O)O)C

>  <PUBCHEM_OPENEYE_ISO_SMILES>
CC(=CCC1=C(C=C2C(=C1O)C(=O)C3=C(O2)OC4=C3C=CC(=C4)O)O)C

>  <PUBCHEM_CACTVS_TPSA>
100

>  <PUBCHEM_MONOISOTOPIC_WEIGHT>
352.095

>  <PUBCHEM_TOTAL_CHARGE>
0

>  <PUBCHEM_HEAVY_ATOM_COUNT>
26

>  <PUBCHEM_ATOM_DEF_STEREO_COUNT>
0

>  <PUBCHEM_ATOM_UDEF_STEREO_COUNT>
0

>  <PUBCHEM_BOND_DEF_STEREO_COUNT>
0

>  <PUBCHEM_BOND_UDEF_STEREO_COUNT>
0

>  <PUBCHEM_ISOTOPIC_ATOM_COUNT>
0

>  <PUBCHEM_COMPONENT_COUNT>
1

>  <PUBCHEM_CACTVS_TAUTO_COUNT>
36

>  <PUBCHEM_COORDINATE_TYPE>
1
5
255

>  <PUBCHEM_BONDANNOTATIONS>
1  10  8
1  13  8
10  18  8
12  14  8
12  17  8
15  20  8
17  18  8
19  22  8
2  13  8
2  15  8
20  23  8
22  23  8
7  11  8
7  13  8
7  9  8
8  10  8
8  11  8
8  14  8
9  15  8
9  19  8

$$$$
