14312560
 OpenBabel06101807152D

 57 58  0  0  1  0  0  0  0  0999 V2000
    6.8671   -0.2110    0.0000 O   0  0  0  0  0  0  0  0  0  0  0  0
    5.1350   -0.2110    0.0000 O   0  0  0  0  0  0  0  0  0  0  0  0
    4.3671    1.6550    0.0000 O   0  0  0  0  0  0  0  0  0  0  0  0
    6.8671   -2.2110    0.0000 O   0  0  0  0  0  0  0  0  0  0  0  0
    5.1350   -3.2110    0.0000 O   0  0  0  0  0  0  0  0  0  0  0  0
    3.4030   -2.2110    0.0000 O   0  0  0  0  0  0  0  0  0  0  0  0
    2.5369   -0.7110    0.0000 O   0  0  0  0  0  0  0  0  0  0  0  0
    9.3671    3.3870    0.0000 O   0  0  0  0  0  0  0  0  0  0  0  0
    6.8671    0.7890    0.0000 C   0  0  3  0  0  0  0  0  0  0  0  0
    6.8671    2.5210    0.0000 C   0  0  0  0  0  0  0  0  0  0  0  0
    5.8671    0.7890    0.0000 C   0  0  0  0  0  0  0  0  0  0  0  0
    5.8671    2.5210    0.0000 C   0  0  0  0  0  0  0  0  0  0  0  0
    7.3671    1.6550    0.0000 C   0  0  0  0  0  0  0  0  0  0  0  0
    5.3671    1.6550    0.0000 C   0  0  3  0  0  0  0  0  0  0  0  0
    6.0010   -0.7110    0.0000 C   0  0  3  0  0  0  0  0  0  0  0  0
    7.7331    0.2890    0.0000 C   0  0  0  0  0  0  0  0  0  0  0  0
    6.8671    3.5210    0.0000 C   0  0  0  0  0  0  0  0  0  0  0  0
    7.7331    3.0210    0.0000 C   0  0  0  0  0  0  0  0  0  0  0  0
    6.0010   -1.7110    0.0000 C   0  0  3  0  0  0  0  0  0  0  0  0
    5.1350   -2.2110    0.0000 C   0  0  3  0  0  0  0  0  0  0  0  0
    4.2690   -1.7110    0.0000 C   0  0  3  0  0  0  0  0  0  0  0  0
    4.2690   -0.7110    0.0000 C   0  0  3  0  0  0  0  0  0  0  0  0
    8.3671    1.6550    0.0000 C   0  0  0  0  0  0  0  0  0  0  0  0
    3.4030   -0.2110    0.0000 C   0  0  0  0  0  0  0  0  0  0  0  0
    9.3671    1.6550    0.0000 C   0  0  0  0  0  0  0  0  0  0  0  0
    9.8671    2.5210    0.0000 C   0  0  0  0  0  0  0  0  0  0  0  0
   10.8671    2.5210    0.0000 C   0  0  0  0  0  0  0  0  0  0  0  0
    5.2844    0.5769    0.0000 H   0  0  0  0  0  0  0  0  0  0  0  0
    5.9747    0.1784    0.0000 H   0  0  0  0  0  0  0  0  0  0  0  0
    5.9747    3.1316    0.0000 H   0  0  0  0  0  0  0  0  0  0  0  0
    5.2844    2.7331    0.0000 H   0  0  0  0  0  0  0  0  0  0  0  0
    5.0571    1.1181    0.0000 H   0  0  0  0  0  0  0  0  0  0  0  0
    6.0010   -0.0910    0.0000 H   0  0  0  0  0  0  0  0  0  0  0  0
    7.4231   -0.2480    0.0000 H   0  0  0  0  0  0  0  0  0  0  0  0
    8.2700   -0.0210    0.0000 H   0  0  0  0  0  0  0  0  0  0  0  0
    8.0431    0.8259    0.0000 H   0  0  0  0  0  0  0  0  0  0  0  0
    8.0431    2.4841    0.0000 H   0  0  0  0  0  0  0  0  0  0  0  0
    8.2700    3.3310    0.0000 H   0  0  0  0  0  0  0  0  0  0  0  0
    7.4231    3.5580    0.0000 H   0  0  0  0  0  0  0  0  0  0  0  0
    7.4871    3.5210    0.0000 H   0  0  0  0  0  0  0  0  0  0  0  0
    6.8671    4.1410    0.0000 H   0  0  0  0  0  0  0  0  0  0  0  0
    6.2471    3.5210    0.0000 H   0  0  0  0  0  0  0  0  0  0  0  0
    6.5380   -1.4010    0.0000 H   0  0  0  0  0  0  0  0  0  0  0  0
    4.5981   -2.5210    0.0000 H   0  0  0  0  0  0  0  0  0  0  0  0
    3.7320   -1.4010    0.0000 H   0  0  0  0  0  0  0  0  0  0  0  0
    4.2690   -0.0910    0.0000 H   0  0  0  0  0  0  0  0  0  0  0  0
    4.0571    2.1919    0.0000 H   0  0  0  0  0  0  0  0  0  0  0  0
    3.8015    0.2639    0.0000 H   0  0  0  0  0  0  0  0  0  0  0  0
    3.0044    0.2639    0.0000 H   0  0  0  0  0  0  0  0  0  0  0  0
    6.8671   -2.8310    0.0000 H   0  0  0  0  0  0  0  0  0  0  0  0
    4.5981   -3.5210    0.0000 H   0  0  0  0  0  0  0  0  0  0  0  0
    3.4030   -2.8310    0.0000 H   0  0  0  0  0  0  0  0  0  0  0  0
    9.6771    1.1181    0.0000 H   0  0  0  0  0  0  0  0  0  0  0  0
    2.0000   -0.4010    0.0000 H   0  0  0  0  0  0  0  0  0  0  0  0
   10.8671    1.9010    0.0000 H   0  0  0  0  0  0  0  0  0  0  0  0
   11.4871    2.5210    0.0000 H   0  0  0  0  0  0  0  0  0  0  0  0
   10.8671    3.1410    0.0000 H   0  0  0  0  0  0  0  0  0  0  0  0
  1  9  1  0  0  0  0
  1 15  1  0  0  0  0
  2 15  1  0  0  0  0
  2 22  1  0  0  0  0
  3 14  1  0  0  0  0
  3 47  1  0  0  0  0
  4 19  1  0  0  0  0
  4 50  1  0  0  0  0
  5 20  1  0  0  0  0
  5 51  1  0  0  0  0
  6 21  1  0  0  0  0
  6 52  1  0  0  0  0
  7 24  1  0  0  0  0
  7 54  1  0  0  0  0
  8 26  2  0  0  0  0
  9 11  1  0  0  0  0
  9 13  1  0  0  0  0
  9 16  1  0  0  0  0
 10 12  1  0  0  0  0
 10 13  1  0  0  0  0
 10 17  1  0  0  0  0
 10 18  1  0  0  0  0
 11 14  1  0  0  0  0
 11 28  1  0  0  0  0
 11 29  1  0  0  0  0
 12 14  1  0  0  0  0
 12 30  1  0  0  0  0
 12 31  1  0  0  0  0
 13 23  2  0  0  0  0
 14 32  1  0  0  0  0
 15 19  1  0  0  0  0
 15 33  1  0  0  0  0
 16 34  1  0  0  0  0
 16 35  1  0  0  0  0
 16 36  1  0  0  0  0
 17 40  1  0  0  0  0
 17 41  1  0  0  0  0
 17 42  1  0  0  0  0
 18 37  1  0  0  0  0
 18 38  1  0  0  0  0
 18 39  1  0  0  0  0
 19 20  1  0  0  0  0
 19 43  1  0  0  0  0
 20 21  1  0  0  0  0
 20 44  1  0  0  0  0
 21 22  1  0  0  0  0
 21 45  1  0  0  0  0
 22 24  1  0  0  0  0
 22 46  1  0  0  0  0
 23 25  2  0  0  0  0
 24 48  1  0  0  0  0
 24 49  1  0  0  0  0
 25 26  1  0  0  0  0
 25 53  1  0  0  0  0
 26 27  1  0  0  0  0
 27 55  1  0  0  0  0
 27 56  1  0  0  0  0
 27 57  1  0  0  0  0
M  END
>  <PUBCHEM_COMPOUND_CID>
14312560

>  <PUBCHEM_COMPOUND_CANONICALIZED>
1

>  <PUBCHEM_CACTVS_COMPLEXITY>
623

>  <PUBCHEM_CACTVS_HBOND_ACCEPTOR>
8

>  <PUBCHEM_CACTVS_HBOND_DONOR>
5

>  <PUBCHEM_CACTVS_ROTATABLE_BOND>
4

>  <PUBCHEM_CACTVS_SUBSKEYS>
AAADceB4PAAAAAAAAAAAAAAAAAAAAAAAAAA0QAAAAAAAAAAAAAAAGgAACAAADlSwgAMCCAAABgCIAqBSAAAAAAAgAAAAAAAAAEgRFAIAIAAiQAAFgAAHIAHA4FwPAAAAAAAAAAAAAAYQAAAAAAAAAAAAAA==

>  <PUBCHEM_IUPAC_OPENEYE_NAME>
4-[4-hydroxy-2,2,6-trimethyl-6-[3,4,5-trihydroxy-6-(hydroxymethyl)tetrahydropyran-2-yl]oxy-cyclohexylidene]but-3-en-2-one

>  <PUBCHEM_IUPAC_CAS_NAME>
4-[4-hydroxy-2,2,6-trimethyl-6-[[3,4,5-trihydroxy-6-(hydroxymethyl)-2-oxanyl]oxy]cyclohexylidene]-3-buten-2-one

>  <PUBCHEM_IUPAC_NAME>
4-[4-hydroxy-2,2,6-trimethyl-6-[3,4,5-trihydroxy-6-(hydroxymethyl)oxan-2-yl]oxycyclohexylidene]but-3-en-2-one

>  <PUBCHEM_IUPAC_SYSTEMATIC_NAME>
4-[2-[6-(hydroxymethyl)-3,4,5-tris(oxidanyl)oxan-2-yl]oxy-2,6,6-trimethyl-4-oxidanyl-cyclohexylidene]but-3-en-2-one

>  <PUBCHEM_IUPAC_TRADITIONAL_NAME>
4-[4-hydroxy-2,2,6-trimethyl-6-(3,4,5-trihydroxy-6-methylol-tetrahydropyran-2-yl)oxy-cyclohexylidene]but-3-en-2-one

>  <PUBCHEM_IUPAC_INCHI>
InChI=1S/C19H30O8/c1-10(21)5-6-13-18(2,3)7-11(22)8-19(13,4)27-17-16(25)15(24)14(23)12(9-20)26-17/h5,11-12,14-17,20,22-25H,7-9H2,1-4H3

>  <PUBCHEM_IUPAC_INCHIKEY>
XTODSGVDHGMKSN-UHFFFAOYSA-N

>  <PUBCHEM_XLOGP3_AA>
-1.6

>  <PUBCHEM_EXACT_MASS>
386.194

>  <PUBCHEM_MOLECULAR_FORMULA>
C19H30O8

>  <PUBCHEM_MOLECULAR_WEIGHT>
386.441

>  <PUBCHEM_OPENEYE_CAN_SMILES>
CC(=O)C=C=C1C(CC(CC1(C)OC2C(C(C(C(O2)CO)O)O)O)O)(C)C

>  <PUBCHEM_OPENEYE_ISO_SMILES>
CC(=O)C=C=C1C(CC(CC1(C)OC2C(C(C(C(O2)CO)O)O)O)O)(C)C

>  <PUBCHEM_CACTVS_TPSA>
137

>  <PUBCHEM_MONOISOTOPIC_WEIGHT>
386.194

>  <PUBCHEM_TOTAL_CHARGE>
0

>  <PUBCHEM_HEAVY_ATOM_COUNT>
27

>  <PUBCHEM_ATOM_DEF_STEREO_COUNT>
0

>  <PUBCHEM_ATOM_UDEF_STEREO_COUNT>
7

>  <PUBCHEM_BOND_DEF_STEREO_COUNT>
0

>  <PUBCHEM_BOND_UDEF_STEREO_COUNT>
0

>  <PUBCHEM_ISOTOPIC_ATOM_COUNT>
0

>  <PUBCHEM_COMPONENT_COUNT>
1

>  <PUBCHEM_CACTVS_TAUTO_COUNT>
2

>  <PUBCHEM_COORDINATE_TYPE>
1
5
255

>  <PUBCHEM_BONDANNOTATIONS>
15  1  3
22  24  3
14  3  3
19  4  3
20  5  3
21  6  3
9  16  3

$$$$
