14311197
 OpenBabel06101807152D

 54 57  0  0  1  0  0  0  0  0999 V2000
    5.1350   -0.3845    0.0000 O   0  0  0  0  0  0  0  0  0  0  0  0
    6.8671   -0.3845    0.0000 O   0  0  0  0  0  0  0  0  0  0  0  0
    5.1350   -3.3845    0.0000 O   0  0  0  0  0  0  0  0  0  0  0  0
    3.4030   -2.3845    0.0000 O   0  0  0  0  0  0  0  0  0  0  0  0
    6.8671   -2.3845    0.0000 O   0  0  0  0  0  0  0  0  0  0  0  0
    2.5369   -0.8845    0.0000 O   0  0  0  0  0  0  0  0  0  0  0  0
    8.6504    2.6297    0.0000 O   0  0  0  0  0  0  0  0  0  0  0  0
    5.1208    2.6946    0.0000 O   0  0  0  0  0  0  0  0  0  0  0  0
    8.6158   -0.3701    0.0000 O   0  0  0  0  0  0  0  0  0  0  0  0
   12.9398   -0.9202    0.0000 O   0  0  0  0  0  0  0  0  0  0  0  0
    5.1350   -2.3845    0.0000 C   0  0  3  0  0  0  0  0  0  0  0  0
    4.2690   -1.8845    0.0000 C   0  0  3  0  0  0  0  0  0  0  0  0
    6.0010   -1.8845    0.0000 C   0  0  3  0  0  0  0  0  0  0  0  0
    4.2690   -0.8845    0.0000 C   0  0  3  0  0  0  0  0  0  0  0  0
    6.0010   -0.8845    0.0000 C   0  0  3  0  0  0  0  0  0  0  0  0
    3.4030   -0.3845    0.0000 C   0  0  0  0  0  0  0  0  0  0  0  0
    6.8671    0.6155    0.0000 C   0  0  0  0  0  0  0  0  0  0  0  0
    7.7671    1.1398    0.0000 C   0  0  0  0  0  0  0  0  0  0  0  0
    5.9670    1.1398    0.0000 C   0  0  0  0  0  0  0  0  0  0  0  0
    7.7787    2.1397    0.0000 C   0  0  0  0  0  0  0  0  0  0  0  0
    8.6273    0.6298    0.0000 C   0  0  0  0  0  0  0  0  0  0  0  0
    5.9790    2.1813    0.0000 C   0  0  0  0  0  0  0  0  0  0  0  0
    6.8910    2.6847    0.0000 C   0  0  0  0  0  0  0  0  0  0  0  0
    9.4991    1.1198    0.0000 C   0  0  0  0  0  0  0  0  0  0  0  0
    9.5106    2.1197    0.0000 C   0  0  0  0  0  0  0  0  0  0  0  0
   10.3592    0.6098    0.0000 C   0  0  0  0  0  0  0  0  0  0  0  0
   10.3477   -0.3902    0.0000 C   0  0  0  0  0  0  0  0  0  0  0  0
   11.2310    1.0997    0.0000 C   0  0  0  0  0  0  0  0  0  0  0  0
    5.1363    3.6945    0.0000 C   0  0  0  0  0  0  0  0  0  0  0  0
   11.2079   -0.9001    0.0000 C   0  0  0  0  0  0  0  0  0  0  0  0
   12.0912    0.5897    0.0000 C   0  0  0  0  0  0  0  0  0  0  0  0
   12.0796   -0.4102    0.0000 C   0  0  0  0  0  0  0  0  0  0  0  0
    5.6720   -2.6945    0.0000 H   0  0  0  0  0  0  0  0  0  0  0  0
    4.2690   -2.5045    0.0000 H   0  0  0  0  0  0  0  0  0  0  0  0
    6.5380   -1.5745    0.0000 H   0  0  0  0  0  0  0  0  0  0  0  0
    4.2690   -0.2645    0.0000 H   0  0  0  0  0  0  0  0  0  0  0  0
    6.0010   -0.2645    0.0000 H   0  0  0  0  0  0  0  0  0  0  0  0
    3.8015    0.0904    0.0000 H   0  0  0  0  0  0  0  0  0  0  0  0
    3.0044    0.0904    0.0000 H   0  0  0  0  0  0  0  0  0  0  0  0
    4.5981   -3.6945    0.0000 H   0  0  0  0  0  0  0  0  0  0  0  0
    3.4030   -3.0045    0.0000 H   0  0  0  0  0  0  0  0  0  0  0  0
    6.8671   -3.0045    0.0000 H   0  0  0  0  0  0  0  0  0  0  0  0
    2.0000   -0.5745    0.0000 H   0  0  0  0  0  0  0  0  0  0  0  0
    5.4277    0.8339    0.0000 H   0  0  0  0  0  0  0  0  0  0  0  0
    6.9053    3.3045    0.0000 H   0  0  0  0  0  0  0  0  0  0  0  0
   10.0511    2.4234    0.0000 H   0  0  0  0  0  0  0  0  0  0  0  0
    9.8072   -0.6939    0.0000 H   0  0  0  0  0  0  0  0  0  0  0  0
   11.2382    1.7197    0.0000 H   0  0  0  0  0  0  0  0  0  0  0  0
   11.2007   -1.5201    0.0000 H   0  0  0  0  0  0  0  0  0  0  0  0
   12.6317    0.8935    0.0000 H   0  0  0  0  0  0  0  0  0  0  0  0
    5.7562    3.6850    0.0000 H   0  0  0  0  0  0  0  0  0  0  0  0
    5.1458    4.3144    0.0000 H   0  0  0  0  0  0  0  0  0  0  0  0
    4.5163    3.7041    0.0000 H   0  0  0  0  0  0  0  0  0  0  0  0
   13.4803   -0.6164    0.0000 H   0  0  0  0  0  0  0  0  0  0  0  0
  1 14  1  0  0  0  0
  1 15  1  0  0  0  0
  2 15  1  0  0  0  0
  2 17  1  0  0  0  0
  3 11  1  0  0  0  0
  3 40  1  0  0  0  0
  4 12  1  0  0  0  0
  4 41  1  0  0  0  0
  5 13  1  0  0  0  0
  5 42  1  0  0  0  0
  6 16  1  0  0  0  0
  6 43  1  0  0  0  0
  7 20  1  0  0  0  0
  7 25  1  0  0  0  0
  8 22  1  0  0  0  0
  8 29  1  0  0  0  0
  9 21  2  0  0  0  0
 10 32  1  0  0  0  0
 10 54  1  0  0  0  0
 11 12  1  0  0  0  0
 11 13  1  0  0  0  0
 11 33  1  0  0  0  0
 12 14  1  0  0  0  0
 12 34  1  0  0  0  0
 13 15  1  0  0  0  0
 13 35  1  0  0  0  0
 14 16  1  0  0  0  0
 14 36  1  0  0  0  0
 15 37  1  0  0  0  0
 16 38  1  0  0  0  0
 16 39  1  0  0  0  0
 17 18  1  0  0  0  0
 17 19  2  0  0  0  0
 18 20  2  0  0  0  0
 18 21  1  0  0  0  0
 19 22  1  0  0  0  0
 19 44  1  0  0  0  0
 20 23  1  0  0  0  0
 21 24  1  0  0  0  0
 22 23  2  0  0  0  0
 23 45  1  0  0  0  0
 24 25  2  0  0  0  0
 24 26  1  0  0  0  0
 25 46  1  0  0  0  0
 26 27  2  0  0  0  0
 26 28  1  0  0  0  0
 27 30  1  0  0  0  0
 27 47  1  0  0  0  0
 28 31  2  0  0  0  0
 28 48  1  0  0  0  0
 29 51  1  0  0  0  0
 29 52  1  0  0  0  0
 29 53  1  0  0  0  0
 30 32  2  0  0  0  0
 30 49  1  0  0  0  0
 31 32  1  0  0  0  0
 31 50  1  0  0  0  0
M  END
>  <PUBCHEM_COMPOUND_CID>
14311197

>  <PUBCHEM_COMPOUND_CANONICALIZED>
1

>  <PUBCHEM_CACTVS_COMPLEXITY>
690

>  <PUBCHEM_CACTVS_HBOND_ACCEPTOR>
10

>  <PUBCHEM_CACTVS_HBOND_DONOR>
5

>  <PUBCHEM_CACTVS_ROTATABLE_BOND>
5

>  <PUBCHEM_CACTVS_SUBSKEYS>
AAADceB4PAAAAAAAAAAAAAAAAAAAAAAAAAA0YIEAAAAAAACBQAAAGgAACAAADBSwmAMyDoAABgCIAqBSAAACCAAkIAAIiAEGCMgdNzaGNRqieWCl4BUPuYfI7PzOIAAACAAIAABAAAAQABAAAAAAAAAAAA==

>  <PUBCHEM_IUPAC_OPENEYE_NAME>
3-(4-hydroxyphenyl)-7-methoxy-5-[3,4,5-trihydroxy-6-(hydroxymethyl)tetrahydropyran-2-yl]oxy-chromen-4-one

>  <PUBCHEM_IUPAC_CAS_NAME>
3-(4-hydroxyphenyl)-7-methoxy-5-[[3,4,5-trihydroxy-6-(hydroxymethyl)-2-oxanyl]oxy]-1-benzopyran-4-one

>  <PUBCHEM_IUPAC_NAME>
3-(4-hydroxyphenyl)-7-methoxy-5-[3,4,5-trihydroxy-6-(hydroxymethyl)oxan-2-yl]oxychromen-4-one

>  <PUBCHEM_IUPAC_SYSTEMATIC_NAME>
5-[6-(hydroxymethyl)-3,4,5-tris(oxidanyl)oxan-2-yl]oxy-3-(4-hydroxyphenyl)-7-methoxy-chromen-4-one

>  <PUBCHEM_IUPAC_TRADITIONAL_NAME>
3-(4-hydroxyphenyl)-7-methoxy-5-(3,4,5-trihydroxy-6-methylol-tetrahydropyran-2-yl)oxy-chromone

>  <PUBCHEM_IUPAC_INCHI>
InChI=1S/C22H22O10/c1-29-12-6-14-17(18(25)13(9-30-14)10-2-4-11(24)5-3-10)15(7-12)31-22-21(28)20(27)19(26)16(8-23)32-22/h2-7,9,16,19-24,26-28H,8H2,1H3

>  <PUBCHEM_IUPAC_INCHIKEY>
AJAGLPDYKVWJQE-UHFFFAOYSA-N

>  <PUBCHEM_XLOGP3_AA>
0.6

>  <PUBCHEM_EXACT_MASS>
446.121

>  <PUBCHEM_MOLECULAR_FORMULA>
C22H22O10

>  <PUBCHEM_MOLECULAR_WEIGHT>
446.408

>  <PUBCHEM_OPENEYE_CAN_SMILES>
COC1=CC(=C2C(=C1)OC=C(C2=O)C3=CC=C(C=C3)O)OC4C(C(C(C(O4)CO)O)O)O

>  <PUBCHEM_OPENEYE_ISO_SMILES>
COC1=CC(=C2C(=C1)OC=C(C2=O)C3=CC=C(C=C3)O)OC4C(C(C(C(O4)CO)O)O)O

>  <PUBCHEM_CACTVS_TPSA>
155

>  <PUBCHEM_MONOISOTOPIC_WEIGHT>
446.121

>  <PUBCHEM_TOTAL_CHARGE>
0

>  <PUBCHEM_HEAVY_ATOM_COUNT>
32

>  <PUBCHEM_ATOM_DEF_STEREO_COUNT>
0

>  <PUBCHEM_ATOM_UDEF_STEREO_COUNT>
5

>  <PUBCHEM_BOND_DEF_STEREO_COUNT>
0

>  <PUBCHEM_BOND_UDEF_STEREO_COUNT>
0

>  <PUBCHEM_ISOTOPIC_ATOM_COUNT>
0

>  <PUBCHEM_COMPONENT_COUNT>
1

>  <PUBCHEM_CACTVS_TAUTO_COUNT>
2

>  <PUBCHEM_COORDINATE_TYPE>
1
5
255

>  <PUBCHEM_BONDANNOTATIONS>
14  16  3
17  18  8
17  19  8
18  20  8
18  21  8
19  22  8
15  2  3
20  23  8
21  24  8
22  23  8
24  25  8
26  27  8
26  28  8
27  30  8
28  31  8
11  3  3
30  32  8
31  32  8
12  4  3
13  5  3
7  20  8
7  25  8

$$$$
