14353449
 OpenBabel06101807152D

 40 42  0  0  0  0  0  0  0  0999 V2000
    5.5301   -0.6154    0.0000 O   0  0  0  0  0  0  0  0  0  0  0  0
    7.2622    1.3846    0.0000 O   0  0  0  0  0  0  0  0  0  0  0  0
    2.0000   -0.6395    0.0000 O   0  0  0  0  0  0  0  0  0  0  0  0
    3.7817    2.4192    0.0000 O   0  0  0  0  0  0  0  0  0  0  0  0
    5.5301    2.3846    0.0000 O   0  0  0  0  0  0  0  0  0  0  0  0
    9.8602   -2.1154    0.0000 O   0  0  0  0  0  0  0  0  0  0  0  0
    4.6641    0.8846    0.0000 C   0  0  0  0  0  0  0  0  0  0  0  0
    4.6641   -0.1154    0.0000 C   0  0  0  0  0  0  0  0  0  0  0  0
    3.7702    1.4193    0.0000 C   0  0  0  0  0  0  0  0  0  0  0  0
    2.8641    0.9054    0.0000 C   0  0  0  0  0  0  0  0  0  0  0  0
    6.3961   -0.1154    0.0000 C   0  0  0  0  0  0  0  0  0  0  0  0
    5.5301    1.3846    0.0000 C   0  0  0  0  0  0  0  0  0  0  0  0
    2.8641   -0.1362    0.0000 C   0  0  0  0  0  0  0  0  0  0  0  0
    6.3961    0.8846    0.0000 C   0  0  0  0  0  0  0  0  0  0  0  0
    3.7702   -0.6501    0.0000 C   0  0  0  0  0  0  0  0  0  0  0  0
    7.2622   -0.6154    0.0000 C   0  0  0  0  0  0  0  0  0  0  0  0
    2.0000    1.4088    0.0000 C   0  0  0  0  0  0  0  0  0  0  0  0
    7.2622   -1.6154    0.0000 C   0  0  0  0  0  0  0  0  0  0  0  0
    8.1282   -0.1154    0.0000 C   0  0  0  0  0  0  0  0  0  0  0  0
    8.1282   -2.1154    0.0000 C   0  0  0  0  0  0  0  0  0  0  0  0
    8.9942   -0.6154    0.0000 C   0  0  0  0  0  0  0  0  0  0  0  0
    8.9942   -1.6154    0.0000 C   0  0  0  0  0  0  0  0  0  0  0  0
    7.2622    2.3846    0.0000 C   0  0  0  0  0  0  0  0  0  0  0  0
    2.0038   -1.6395    0.0000 C   0  0  0  0  0  0  0  0  0  0  0  0
    3.7773   -1.2700    0.0000 H   0  0  0  0  0  0  0  0  0  0  0  0
    2.3121    1.9445    0.0000 H   0  0  0  0  0  0  0  0  0  0  0  0
    1.4643    1.7208    0.0000 H   0  0  0  0  0  0  0  0  0  0  0  0
    1.6879    0.8730    0.0000 H   0  0  0  0  0  0  0  0  0  0  0  0
    6.7252   -1.9254    0.0000 H   0  0  0  0  0  0  0  0  0  0  0  0
    8.1282    0.5046    0.0000 H   0  0  0  0  0  0  0  0  0  0  0  0
    3.2484    2.7354    0.0000 H   0  0  0  0  0  0  0  0  0  0  0  0
    8.1282   -2.7354    0.0000 H   0  0  0  0  0  0  0  0  0  0  0  0
    9.5312   -0.3054    0.0000 H   0  0  0  0  0  0  0  0  0  0  0  0
    7.8822    2.3846    0.0000 H   0  0  0  0  0  0  0  0  0  0  0  0
    7.2622    3.0046    0.0000 H   0  0  0  0  0  0  0  0  0  0  0  0
    6.6422    2.3846    0.0000 H   0  0  0  0  0  0  0  0  0  0  0  0
    1.3839   -1.6419    0.0000 H   0  0  0  0  0  0  0  0  0  0  0  0
    2.0062   -2.2595    0.0000 H   0  0  0  0  0  0  0  0  0  0  0  0
    2.6238   -1.6371    0.0000 H   0  0  0  0  0  0  0  0  0  0  0  0
    9.8602   -2.7354    0.0000 H   0  0  0  0  0  0  0  0  0  0  0  0
  1  8  1  0  0  0  0
  1 11  1  0  0  0  0
  2 14  1  0  0  0  0
  2 23  1  0  0  0  0
  3 13  1  0  0  0  0
  3 24  1  0  0  0  0
  4  9  1  0  0  0  0
  4 31  1  0  0  0  0
  5 12  2  0  0  0  0
  6 22  1  0  0  0  0
  6 40  1  0  0  0  0
  7  8  1  0  0  0  0
  7  9  2  0  0  0  0
  7 12  1  0  0  0  0
  8 15  2  0  0  0  0
  9 10  1  0  0  0  0
 10 13  2  0  0  0  0
 10 17  1  0  0  0  0
 11 14  2  0  0  0  0
 11 16  1  0  0  0  0
 12 14  1  0  0  0  0
 13 15  1  0  0  0  0
 15 25  1  0  0  0  0
 16 18  2  0  0  0  0
 16 19  1  0  0  0  0
 17 26  1  0  0  0  0
 17 27  1  0  0  0  0
 17 28  1  0  0  0  0
 18 20  1  0  0  0  0
 18 29  1  0  0  0  0
 19 21  2  0  0  0  0
 19 30  1  0  0  0  0
 20 22  2  0  0  0  0
 20 32  1  0  0  0  0
 21 22  1  0  0  0  0
 21 33  1  0  0  0  0
 23 34  1  0  0  0  0
 23 35  1  0  0  0  0
 23 36  1  0  0  0  0
 24 37  1  0  0  0  0
 24 38  1  0  0  0  0
 24 39  1  0  0  0  0
M  END
>  <PUBCHEM_COMPOUND_CID>
14353449

>  <PUBCHEM_COMPOUND_CANONICALIZED>
1

>  <PUBCHEM_CACTVS_COMPLEXITY>
508

>  <PUBCHEM_CACTVS_HBOND_ACCEPTOR>
6

>  <PUBCHEM_CACTVS_HBOND_DONOR>
2

>  <PUBCHEM_CACTVS_ROTATABLE_BOND>
3

>  <PUBCHEM_CACTVS_SUBSKEYS>
AAADceB4OAAAAAAAAAAAAAAAAAAAAAAAAAAwYIAAAAAAAACBQAAAGgAACAAADASAmAIyBoAABgCIAqBSAAICCAAkIAAIiAFGCMgMJzaGNR6CeWCl4BUIuQfI7PzOIAACCAAIAABAAAQQABAAAAAAAAAAAA==

>  <PUBCHEM_IUPAC_OPENEYE_NAME>
5-hydroxy-2-(4-hydroxyphenyl)-3,7-dimethoxy-6-methyl-chromen-4-one

>  <PUBCHEM_IUPAC_CAS_NAME>
5-hydroxy-2-(4-hydroxyphenyl)-3,7-dimethoxy-6-methyl-1-benzopyran-4-one

>  <PUBCHEM_IUPAC_NAME>
5-hydroxy-2-(4-hydroxyphenyl)-3,7-dimethoxy-6-methylchromen-4-one

>  <PUBCHEM_IUPAC_SYSTEMATIC_NAME>
2-(4-hydroxyphenyl)-3,7-dimethoxy-6-methyl-5-oxidanyl-chromen-4-one

>  <PUBCHEM_IUPAC_TRADITIONAL_NAME>
5-hydroxy-2-(4-hydroxyphenyl)-3,7-dimethoxy-6-methyl-chromone

>  <PUBCHEM_IUPAC_INCHI>
InChI=1S/C18H16O6/c1-9-12(22-2)8-13-14(15(9)20)16(21)18(23-3)17(24-13)10-4-6-11(19)7-5-10/h4-8,19-20H,1-3H3

>  <PUBCHEM_IUPAC_INCHIKEY>
DTOUWUNQCABKEZ-UHFFFAOYSA-N

>  <PUBCHEM_XLOGP3_AA>
3.5

>  <PUBCHEM_EXACT_MASS>
328.095

>  <PUBCHEM_MOLECULAR_FORMULA>
C18H16O6

>  <PUBCHEM_MOLECULAR_WEIGHT>
328.32

>  <PUBCHEM_OPENEYE_CAN_SMILES>
CC1=C(C=C2C(=C1O)C(=O)C(=C(O2)C3=CC=C(C=C3)O)OC)OC

>  <PUBCHEM_OPENEYE_ISO_SMILES>
CC1=C(C=C2C(=C1O)C(=O)C(=C(O2)C3=CC=C(C=C3)O)OC)OC

>  <PUBCHEM_CACTVS_TPSA>
85.2

>  <PUBCHEM_MONOISOTOPIC_WEIGHT>
328.095

>  <PUBCHEM_TOTAL_CHARGE>
0

>  <PUBCHEM_HEAVY_ATOM_COUNT>
24

>  <PUBCHEM_ATOM_DEF_STEREO_COUNT>
0

>  <PUBCHEM_ATOM_UDEF_STEREO_COUNT>
0

>  <PUBCHEM_BOND_DEF_STEREO_COUNT>
0

>  <PUBCHEM_BOND_UDEF_STEREO_COUNT>
0

>  <PUBCHEM_ISOTOPIC_ATOM_COUNT>
0

>  <PUBCHEM_COMPONENT_COUNT>
1

>  <PUBCHEM_CACTVS_TAUTO_COUNT>
24

>  <PUBCHEM_COORDINATE_TYPE>
1
5
255

>  <PUBCHEM_BONDANNOTATIONS>
1  11  8
1  8  8
10  13  8
11  14  8
12  14  8
13  15  8
16  18  8
16  19  8
18  20  8
19  21  8
20  22  8
21  22  8
7  12  8
7  8  8
7  9  8
8  15  8
9  10  8

$$$$
