14353377
 OpenBabel06101807152D

 37 39  0  0  0  0  0  0  0  0999 V2000
    6.0290   -0.9226    0.0000 O   0  0  0  0  0  0  0  0  0  0  0  0
    4.2690   -1.8879    0.0000 O   0  0  0  0  0  0  0  0  0  0  0  0
    4.2690    2.1121    0.0000 O   0  0  0  0  0  0  0  0  0  0  0  0
    2.5369   -0.8879    0.0000 O   0  0  0  0  0  0  0  0  0  0  0  0
    6.0174    2.1467    0.0000 O   0  0  0  0  0  0  0  0  0  0  0  0
   10.3914   -2.4221    0.0000 O   0  0  0  0  0  0  0  0  0  0  0  0
    5.1350    0.6121    0.0000 C   0  0  0  0  0  0  0  0  0  0  0  0
    5.1350   -0.3879    0.0000 C   0  0  0  0  0  0  0  0  0  0  0  0
    6.9350   -0.4087    0.0000 C   0  0  0  0  0  0  0  0  0  0  0  0
    4.2690   -0.8879    0.0000 C   0  0  0  0  0  0  0  0  0  0  0  0
    6.0290    1.1467    0.0000 C   0  0  0  0  0  0  0  0  0  0  0  0
    7.7991   -0.9121    0.0000 C   0  0  0  0  0  0  0  0  0  0  0  0
    4.2690    1.1121    0.0000 C   0  0  0  0  0  0  0  0  0  0  0  0
    6.9350    0.6329    0.0000 C   0  0  0  0  0  0  0  0  0  0  0  0
    3.4030   -0.3879    0.0000 C   0  0  0  0  0  0  0  0  0  0  0  0
    3.4030    0.6121    0.0000 C   0  0  0  0  0  0  0  0  0  0  0  0
    7.7953   -1.9121    0.0000 C   0  0  0  0  0  0  0  0  0  0  0  0
    8.6671   -0.4154    0.0000 C   0  0  0  0  0  0  0  0  0  0  0  0
    8.6594   -2.4154    0.0000 C   0  0  0  0  0  0  0  0  0  0  0  0
    9.5312   -0.9188    0.0000 C   0  0  0  0  0  0  0  0  0  0  0  0
    9.5273   -1.9187    0.0000 C   0  0  0  0  0  0  0  0  0  0  0  0
    3.4030   -2.3879    0.0000 C   0  0  0  0  0  0  0  0  0  0  0  0
   11.2593   -1.9254    0.0000 C   0  0  0  0  0  0  0  0  0  0  0  0
    7.4708    0.9450    0.0000 H   0  0  0  0  0  0  0  0  0  0  0  0
    2.8660    0.9221    0.0000 H   0  0  0  0  0  0  0  0  0  0  0  0
    7.2571   -2.2200    0.0000 H   0  0  0  0  0  0  0  0  0  0  0  0
    8.6694    0.2046    0.0000 H   0  0  0  0  0  0  0  0  0  0  0  0
    8.6570   -3.0354    0.0000 H   0  0  0  0  0  0  0  0  0  0  0  0
   10.0693   -0.6108    0.0000 H   0  0  0  0  0  0  0  0  0  0  0  0
    3.7320    2.4221    0.0000 H   0  0  0  0  0  0  0  0  0  0  0  0
    2.0000   -0.5779    0.0000 H   0  0  0  0  0  0  0  0  0  0  0  0
    3.0930   -1.8510    0.0000 H   0  0  0  0  0  0  0  0  0  0  0  0
    2.8660   -2.6979    0.0000 H   0  0  0  0  0  0  0  0  0  0  0  0
    3.7130   -2.9249    0.0000 H   0  0  0  0  0  0  0  0  0  0  0  0
   11.5673   -2.4635    0.0000 H   0  0  0  0  0  0  0  0  0  0  0  0
   11.7975   -1.6175    0.0000 H   0  0  0  0  0  0  0  0  0  0  0  0
   10.9514   -1.3873    0.0000 H   0  0  0  0  0  0  0  0  0  0  0  0
  1  8  1  0  0  0  0
  1  9  1  0  0  0  0
  2 10  1  0  0  0  0
  2 22  1  0  0  0  0
  3 13  1  0  0  0  0
  3 30  1  0  0  0  0
  4 15  1  0  0  0  0
  4 31  1  0  0  0  0
  5 11  2  0  0  0  0
  6 21  1  0  0  0  0
  6 23  1  0  0  0  0
  7  8  2  0  0  0  0
  7 11  1  0  0  0  0
  7 13  1  0  0  0  0
  8 10  1  0  0  0  0
  9 12  1  0  0  0  0
  9 14  2  0  0  0  0
 10 15  2  0  0  0  0
 11 14  1  0  0  0  0
 12 17  2  0  0  0  0
 12 18  1  0  0  0  0
 13 16  2  0  0  0  0
 14 24  1  0  0  0  0
 15 16  1  0  0  0  0
 16 25  1  0  0  0  0
 17 19  1  0  0  0  0
 17 26  1  0  0  0  0
 18 20  2  0  0  0  0
 18 27  1  0  0  0  0
 19 21  2  0  0  0  0
 19 28  1  0  0  0  0
 20 21  1  0  0  0  0
 20 29  1  0  0  0  0
 22 32  1  0  0  0  0
 22 33  1  0  0  0  0
 22 34  1  0  0  0  0
 23 35  1  0  0  0  0
 23 36  1  0  0  0  0
 23 37  1  0  0  0  0
M  END
>  <PUBCHEM_COMPOUND_CID>
14353377

>  <PUBCHEM_COMPOUND_CANONICALIZED>
1

>  <PUBCHEM_CACTVS_COMPLEXITY>
468

>  <PUBCHEM_CACTVS_HBOND_ACCEPTOR>
6

>  <PUBCHEM_CACTVS_HBOND_DONOR>
2

>  <PUBCHEM_CACTVS_ROTATABLE_BOND>
3

>  <PUBCHEM_CACTVS_SUBSKEYS>
AAADccB4OAAAAAAAAAAAAAAAAAAAAAAAAAAwYIAAAAAAAACBQAAAGgAACAAADASAmAIyBoAABgCIAqBSAAACCAAkIAAIiAEGiMgNJzaGNRqCeWOl4BULuQfK7LzOIQABCAAIQABCAAIQABCAAAAAAAAAAA==

>  <PUBCHEM_IUPAC_OPENEYE_NAME>
5,7-dihydroxy-8-methoxy-2-(4-methoxyphenyl)chromen-4-one

>  <PUBCHEM_IUPAC_CAS_NAME>
5,7-dihydroxy-8-methoxy-2-(4-methoxyphenyl)-1-benzopyran-4-one

>  <PUBCHEM_IUPAC_NAME>
5,7-dihydroxy-8-methoxy-2-(4-methoxyphenyl)chromen-4-one

>  <PUBCHEM_IUPAC_SYSTEMATIC_NAME>
8-methoxy-2-(4-methoxyphenyl)-5,7-bis(oxidanyl)chromen-4-one

>  <PUBCHEM_IUPAC_TRADITIONAL_NAME>
5,7-dihydroxy-8-methoxy-2-(4-methoxyphenyl)chromone

>  <PUBCHEM_IUPAC_INCHI>
InChI=1S/C17H14O6/c1-21-10-5-3-9(4-6-10)14-8-12(19)15-11(18)7-13(20)16(22-2)17(15)23-14/h3-8,18,20H,1-2H3

>  <PUBCHEM_IUPAC_INCHIKEY>
MRQSJFKGZKPPNM-UHFFFAOYSA-N

>  <PUBCHEM_XLOGP3_AA>
3

>  <PUBCHEM_EXACT_MASS>
314.079

>  <PUBCHEM_MOLECULAR_FORMULA>
C17H14O6

>  <PUBCHEM_MOLECULAR_WEIGHT>
314.293

>  <PUBCHEM_OPENEYE_CAN_SMILES>
COC1=CC=C(C=C1)C2=CC(=O)C3=C(O2)C(=C(C=C3O)O)OC

>  <PUBCHEM_OPENEYE_ISO_SMILES>
COC1=CC=C(C=C1)C2=CC(=O)C3=C(O2)C(=C(C=C3O)O)OC

>  <PUBCHEM_CACTVS_TPSA>
85.2

>  <PUBCHEM_MONOISOTOPIC_WEIGHT>
314.079

>  <PUBCHEM_TOTAL_CHARGE>
0

>  <PUBCHEM_HEAVY_ATOM_COUNT>
23

>  <PUBCHEM_ATOM_DEF_STEREO_COUNT>
0

>  <PUBCHEM_ATOM_UDEF_STEREO_COUNT>
0

>  <PUBCHEM_BOND_DEF_STEREO_COUNT>
0

>  <PUBCHEM_BOND_UDEF_STEREO_COUNT>
0

>  <PUBCHEM_ISOTOPIC_ATOM_COUNT>
0

>  <PUBCHEM_COMPONENT_COUNT>
1

>  <PUBCHEM_CACTVS_TAUTO_COUNT>
12

>  <PUBCHEM_COORDINATE_TYPE>
1
5
255

>  <PUBCHEM_BONDANNOTATIONS>
1  8  8
1  9  8
10  15  8
11  14  8
12  17  8
12  18  8
13  16  8
15  16  8
17  19  8
18  20  8
19  21  8
20  21  8
7  11  8
7  13  8
7  8  8
8  10  8
9  14  8

$$$$
