14379528
 OpenBabel06101807152D

 32 34  0  0  0  0  0  0  0  0999 V2000
    4.6660    1.8246    0.0000 O   0  0  0  0  0  0  0  0  0  0  0  0
    4.6660   -2.1754    0.0000 O   0  0  0  0  0  0  0  0  0  0  0  0
    8.1962   -1.1995    0.0000 O   0  0  0  0  0  0  0  0  0  0  0  0
    2.9176    1.8592    0.0000 O   0  0  0  0  0  0  0  0  0  0  0  0
    9.0641    0.3521    0.0000 O   0  0  0  0  0  0  0  0  0  0  0  0
    8.1923    1.8488    0.0000 O   0  0  0  0  0  0  0  0  0  0  0  0
    5.5321    0.3246    0.0000 C   0  0  0  0  0  0  0  0  0  0  0  0
    5.5321   -0.6754    0.0000 C   0  0  0  0  0  0  0  0  0  0  0  0
    6.4260    0.8593    0.0000 C   0  0  0  0  0  0  0  0  0  0  0  0
    3.8000    0.3246    0.0000 C   0  0  0  0  0  0  0  0  0  0  0  0
    3.8000   -0.6754    0.0000 C   0  0  0  0  0  0  0  0  0  0  0  0
    4.6660    0.8246    0.0000 C   0  0  0  0  0  0  0  0  0  0  0  0
    4.6660   -1.1754    0.0000 C   0  0  0  0  0  0  0  0  0  0  0  0
    7.3321    0.3454    0.0000 C   0  0  0  0  0  0  0  0  0  0  0  0
    6.4260   -1.2100    0.0000 C   0  0  0  0  0  0  0  0  0  0  0  0
    7.3321   -0.6962    0.0000 C   0  0  0  0  0  0  0  0  0  0  0  0
    2.9061    0.8593    0.0000 C   0  0  0  0  0  0  0  0  0  0  0  0
    6.4144    1.8592    0.0000 C   0  0  0  0  0  0  0  0  0  0  0  0
    2.9061   -1.2100    0.0000 C   0  0  0  0  0  0  0  0  0  0  0  0
    2.0000    0.3454    0.0000 C   0  0  0  0  0  0  0  0  0  0  0  0
    2.0000   -0.6962    0.0000 C   0  0  0  0  0  0  0  0  0  0  0  0
    8.1962    0.8488    0.0000 C   0  0  0  0  0  0  0  0  0  0  0  0
    6.4188   -1.8300    0.0000 H   0  0  0  0  0  0  0  0  0  0  0  0
    7.0344    1.8664    0.0000 H   0  0  0  0  0  0  0  0  0  0  0  0
    6.4073    2.4792    0.0000 H   0  0  0  0  0  0  0  0  0  0  0  0
    5.7945    1.8520    0.0000 H   0  0  0  0  0  0  0  0  0  0  0  0
    2.9132   -1.8300    0.0000 H   0  0  0  0  0  0  0  0  0  0  0  0
    1.4643    0.6575    0.0000 H   0  0  0  0  0  0  0  0  0  0  0  0
    1.4643   -1.0083    0.0000 H   0  0  0  0  0  0  0  0  0  0  0  0
    8.1938   -1.8195    0.0000 H   0  0  0  0  0  0  0  0  0  0  0  0
    2.3843    2.1754    0.0000 H   0  0  0  0  0  0  0  0  0  0  0  0
    9.5998    0.6642    0.0000 H   0  0  0  0  0  0  0  0  0  0  0  0
  1 12  2  0  0  0  0
  2 13  2  0  0  0  0
  3 16  1  0  0  0  0
  3 30  1  0  0  0  0
  4 17  1  0  0  0  0
  4 31  1  0  0  0  0
  5 22  1  0  0  0  0
  5 32  1  0  0  0  0
  6 22  2  0  0  0  0
  7  8  1  0  0  0  0
  7  9  2  0  0  0  0
  7 12  1  0  0  0  0
  8 13  1  0  0  0  0
  8 15  2  0  0  0  0
  9 14  1  0  0  0  0
  9 18  1  0  0  0  0
 10 11  2  0  0  0  0
 10 12  1  0  0  0  0
 10 17  1  0  0  0  0
 11 13  1  0  0  0  0
 11 19  1  0  0  0  0
 14 16  2  0  0  0  0
 14 22  1  0  0  0  0
 15 16  1  0  0  0  0
 15 23  1  0  0  0  0
 17 20  2  0  0  0  0
 18 24  1  0  0  0  0
 18 25  1  0  0  0  0
 18 26  1  0  0  0  0
 19 21  2  0  0  0  0
 19 27  1  0  0  0  0
 20 21  1  0  0  0  0
 20 28  1  0  0  0  0
 21 29  1  0  0  0  0
M  END
>  <PUBCHEM_COMPOUND_CID>
14379528

>  <PUBCHEM_COMPOUND_CANONICALIZED>
1

>  <PUBCHEM_CACTVS_COMPLEXITY>
515

>  <PUBCHEM_CACTVS_HBOND_ACCEPTOR>
6

>  <PUBCHEM_CACTVS_HBOND_DONOR>
3

>  <PUBCHEM_CACTVS_ROTATABLE_BOND>
1

>  <PUBCHEM_CACTVS_SUBSKEYS>
AAADccB4OAAAAAAAAAAAAAAAAAAAAAAAAAAwYMAAAAAAAADBQAAAGgAACAAADASAmAAyDoAAAgCIAqDSCAACAAAkIAAIiAEGCMgIJzaCFRKAcUAl4BEImYeLzvDu4AADAAAYAADAAAYAADAAAAAAAAAAAA==

>  <PUBCHEM_IUPAC_OPENEYE_NAME>
3,8-dihydroxy-1-methyl-9,10-dioxo-anthracene-2-carboxylic acid

>  <PUBCHEM_IUPAC_CAS_NAME>
3,8-dihydroxy-1-methyl-9,10-dioxo-2-anthracenecarboxylic acid

>  <PUBCHEM_IUPAC_NAME>
3,8-dihydroxy-1-methyl-9,10-dioxoanthracene-2-carboxylic acid

>  <PUBCHEM_IUPAC_SYSTEMATIC_NAME>
1-methyl-3,8-bis(oxidanyl)-9,10-bis(oxidanylidene)anthracene-2-carboxylic acid

>  <PUBCHEM_IUPAC_TRADITIONAL_NAME>
3,8-dihydroxy-9,10-diketo-1-methyl-anthracene-2-carboxylic acid

>  <PUBCHEM_IUPAC_INCHI>
InChI=1S/C16H10O6/c1-6-11-8(5-10(18)12(6)16(21)22)14(19)7-3-2-4-9(17)13(7)15(11)20/h2-5,17-18H,1H3,(H,21,22)

>  <PUBCHEM_IUPAC_INCHIKEY>
MHABMANUFPZXEB-UHFFFAOYSA-N

>  <PUBCHEM_XLOGP3_AA>
3.2

>  <PUBCHEM_EXACT_MASS>
298.048

>  <PUBCHEM_MOLECULAR_FORMULA>
C16H10O6

>  <PUBCHEM_MOLECULAR_WEIGHT>
298.25

>  <PUBCHEM_OPENEYE_CAN_SMILES>
CC1=C2C(=CC(=C1C(=O)O)O)C(=O)C3=C(C2=O)C(=CC=C3)O

>  <PUBCHEM_OPENEYE_ISO_SMILES>
CC1=C2C(=CC(=C1C(=O)O)O)C(=O)C3=C(C2=O)C(=CC=C3)O

>  <PUBCHEM_CACTVS_TPSA>
112

>  <PUBCHEM_MONOISOTOPIC_WEIGHT>
298.048

>  <PUBCHEM_TOTAL_CHARGE>
0

>  <PUBCHEM_HEAVY_ATOM_COUNT>
22

>  <PUBCHEM_ATOM_DEF_STEREO_COUNT>
0

>  <PUBCHEM_ATOM_UDEF_STEREO_COUNT>
0

>  <PUBCHEM_BOND_DEF_STEREO_COUNT>
0

>  <PUBCHEM_BOND_UDEF_STEREO_COUNT>
0

>  <PUBCHEM_ISOTOPIC_ATOM_COUNT>
0

>  <PUBCHEM_COMPONENT_COUNT>
1

>  <PUBCHEM_CACTVS_TAUTO_COUNT>
81

>  <PUBCHEM_COORDINATE_TYPE>
1
5
255

>  <PUBCHEM_BONDANNOTATIONS>
10  11  8
10  17  8
11  19  8
14  16  8
15  16  8
17  20  8
19  21  8
20  21  8
7  8  8
7  9  8
8  15  8
9  14  8

$$$$
