14375136
 OpenBabel06101807152D

 74 78  0  0  1  0  0  0  0  0999 V2000
    5.1940   -2.7769    0.0000 O   0  0  0  0  0  0  0  0  0  0  0  0
    5.1343    3.2715    0.0000 O   0  0  0  0  0  0  0  0  0  0  0  0
    6.9260   -2.7769    0.0000 O   0  0  0  0  0  0  0  0  0  0  0  0
    4.2740    1.7682    0.0000 O   0  0  0  0  0  0  0  0  0  0  0  0
    5.1940   -5.7769    0.0000 O   0  0  0  0  0  0  0  0  0  0  0  0
    3.4619   -4.7769    0.0000 O   0  0  0  0  0  0  0  0  0  0  0  0
    2.5304    4.7615    0.0000 O   0  0  0  0  0  0  0  0  0  0  0  0
    4.2586    5.7682    0.0000 O   0  0  0  0  0  0  0  0  0  0  0  0
    6.9260   -4.7769    0.0000 O   0  0  0  0  0  0  0  0  0  0  0  0
    2.5381    2.7615    0.0000 O   0  0  0  0  0  0  0  0  0  0  0  0
    2.5959   -3.2769    0.0000 O   0  0  0  0  0  0  0  0  0  0  0  0
    5.9906    5.7748    0.0000 O   0  0  0  0  0  0  0  0  0  0  0  0
    7.7920   -0.2769    0.0000 O   0  0  0  0  0  0  0  0  0  0  0  0
    4.2898   -0.2800    0.0000 O   0  0  0  0  0  0  0  0  0  0  0  0
    6.0479    2.7923    0.0000 O   0  0  0  0  0  0  0  0  0  0  0  0
    5.1940   -1.7769    0.0000 O   0  0  0  0  0  0  0  0  0  0  0  0
   11.2561   -3.2769    0.0000 O   0  0  0  0  0  0  0  0  0  0  0  0
    5.1940   -4.7769    0.0000 C   0  0  3  0  0  0  0  0  0  0  0  0
    4.3280   -4.2769    0.0000 C   0  0  3  0  0  0  0  0  0  0  0  0
    3.3984    4.2648    0.0000 C   0  0  3  0  0  0  0  0  0  0  0  0
    4.2625    4.7682    0.0000 C   0  0  3  0  0  0  0  0  0  0  0  0
    6.0600   -4.2769    0.0000 C   0  0  3  0  0  0  0  0  0  0  0  0
    4.3280   -3.2769    0.0000 C   0  0  3  0  0  0  0  0  0  0  0  0
    3.4022    3.2648    0.0000 C   0  0  3  0  0  0  0  0  0  0  0  0
    5.1304    4.2715    0.0000 C   0  0  3  0  0  0  0  0  0  0  0  0
    6.0600   -3.2769    0.0000 C   0  0  3  0  0  0  0  0  0  0  0  0
    4.2702    2.7682    0.0000 C   0  0  3  0  0  0  0  0  0  0  0  0
    3.4619   -2.7769    0.0000 C   0  0  0  0  0  0  0  0  0  0  0  0
    5.9945    4.7748    0.0000 C   0  0  0  0  0  0  0  0  0  0  0  0
    6.9260   -1.7769    0.0000 C   0  0  0  0  0  0  0  0  0  0  0  0
    5.1420    1.2715    0.0000 C   0  0  0  0  0  0  0  0  0  0  0  0
    6.0600   -0.2769    0.0000 C   0  0  0  0  0  0  0  0  0  0  0  0
    5.1500    0.2299    0.0000 C   0  0  0  0  0  0  0  0  0  0  0  0
    6.0600   -1.2769    0.0000 C   0  0  0  0  0  0  0  0  0  0  0  0
    7.7920   -1.2769    0.0000 C   0  0  0  0  0  0  0  0  0  0  0  0
    6.9260    0.2231    0.0000 C   0  0  0  0  0  0  0  0  0  0  0  0
    6.0440    1.7924    0.0000 C   0  0  0  0  0  0  0  0  0  0  0  0
    6.9421    1.2646    0.0000 C   0  0  0  0  0  0  0  0  0  0  0  0
    8.6581   -1.7769    0.0000 C   0  0  0  0  0  0  0  0  0  0  0  0
    9.5241   -1.2769    0.0000 C   0  0  0  0  0  0  0  0  0  0  0  0
    8.6581   -2.7769    0.0000 C   0  0  0  0  0  0  0  0  0  0  0  0
   10.3901   -1.7769    0.0000 C   0  0  0  0  0  0  0  0  0  0  0  0
    9.5241   -3.2769    0.0000 C   0  0  0  0  0  0  0  0  0  0  0  0
   10.3901   -2.7769    0.0000 C   0  0  0  0  0  0  0  0  0  0  0  0
    5.7309   -5.0869    0.0000 H   0  0  0  0  0  0  0  0  0  0  0  0
    4.3280   -4.8969    0.0000 H   0  0  0  0  0  0  0  0  0  0  0  0
    2.8626    3.9528    0.0000 H   0  0  0  0  0  0  0  0  0  0  0  0
    3.7243    5.0761    0.0000 H   0  0  0  0  0  0  0  0  0  0  0  0
    6.5969   -3.9669    0.0000 H   0  0  0  0  0  0  0  0  0  0  0  0
    4.3280   -2.6569    0.0000 H   0  0  0  0  0  0  0  0  0  0  0  0
    3.9380    3.5769    0.0000 H   0  0  0  0  0  0  0  0  0  0  0  0
    5.6685    3.9636    0.0000 H   0  0  0  0  0  0  0  0  0  0  0  0
    6.0600   -2.6569    0.0000 H   0  0  0  0  0  0  0  0  0  0  0  0
    3.7344    2.4561    0.0000 H   0  0  0  0  0  0  0  0  0  0  0  0
    3.8604   -2.3020    0.0000 H   0  0  0  0  0  0  0  0  0  0  0  0
    3.0634   -2.3020    0.0000 H   0  0  0  0  0  0  0  0  0  0  0  0
    6.2088    4.1931    0.0000 H   0  0  0  0  0  0  0  0  0  0  0  0
    6.6046    4.8849    0.0000 H   0  0  0  0  0  0  0  0  0  0  0  0
    4.6570   -6.0869    0.0000 H   0  0  0  0  0  0  0  0  0  0  0  0
    3.4619   -5.3969    0.0000 H   0  0  0  0  0  0  0  0  0  0  0  0
    2.5280    5.3815    0.0000 H   0  0  0  0  0  0  0  0  0  0  0  0
    3.7205    6.0761    0.0000 H   0  0  0  0  0  0  0  0  0  0  0  0
    6.9260   -5.3969    0.0000 H   0  0  0  0  0  0  0  0  0  0  0  0
    2.0000    3.0694    0.0000 H   0  0  0  0  0  0  0  0  0  0  0  0
    2.0590   -2.9669    0.0000 H   0  0  0  0  0  0  0  0  0  0  0  0
    6.5264    6.0869    0.0000 H   0  0  0  0  0  0  0  0  0  0  0  0
    7.4826    1.5684    0.0000 H   0  0  0  0  0  0  0  0  0  0  0  0
    3.7493    0.0237    0.0000 H   0  0  0  0  0  0  0  0  0  0  0  0
    6.5860    3.1003    0.0000 H   0  0  0  0  0  0  0  0  0  0  0  0
    9.5241   -0.6569    0.0000 H   0  0  0  0  0  0  0  0  0  0  0  0
    8.1211   -3.0869    0.0000 H   0  0  0  0  0  0  0  0  0  0  0  0
   10.9271   -1.4669    0.0000 H   0  0  0  0  0  0  0  0  0  0  0  0
    9.5241   -3.8969    0.0000 H   0  0  0  0  0  0  0  0  0  0  0  0
   11.2561   -3.8969    0.0000 H   0  0  0  0  0  0  0  0  0  0  0  0
  1 23  1  0  0  0  0
  1 26  1  0  0  0  0
  2 25  1  0  0  0  0
  2 27  1  0  0  0  0
  3 26  1  0  0  0  0
  3 30  1  0  0  0  0
  4 27  1  0  0  0  0
  4 31  1  0  0  0  0
  5 18  1  0  0  0  0
  5 59  1  0  0  0  0
  6 19  1  0  0  0  0
  6 60  1  0  0  0  0
  7 20  1  0  0  0  0
  7 61  1  0  0  0  0
  8 21  1  0  0  0  0
  8 62  1  0  0  0  0
  9 22  1  0  0  0  0
  9 63  1  0  0  0  0
 10 24  1  0  0  0  0
 10 64  1  0  0  0  0
 11 28  1  0  0  0  0
 11 65  1  0  0  0  0
 12 29  1  0  0  0  0
 12 66  1  0  0  0  0
 13 35  1  0  0  0  0
 13 36  1  0  0  0  0
 14 33  1  0  0  0  0
 14 68  1  0  0  0  0
 15 37  1  0  0  0  0
 15 69  1  0  0  0  0
 16 34  2  0  0  0  0
 17 44  1  0  0  0  0
 17 74  1  0  0  0  0
 18 19  1  0  0  0  0
 18 22  1  0  0  0  0
 18 45  1  0  0  0  0
 19 23  1  0  0  0  0
 19 46  1  0  0  0  0
 20 21  1  0  0  0  0
 20 24  1  0  0  0  0
 20 47  1  0  0  0  0
 21 25  1  0  0  0  0
 21 48  1  0  0  0  0
 22 26  1  0  0  0  0
 22 49  1  0  0  0  0
 23 28  1  0  0  0  0
 23 50  1  0  0  0  0
 24 27  1  0  0  0  0
 24 51  1  0  0  0  0
 25 29  1  0  0  0  0
 25 52  1  0  0  0  0
 26 53  1  0  0  0  0
 27 54  1  0  0  0  0
 28 55  1  0  0  0  0
 28 56  1  0  0  0  0
 29 57  1  0  0  0  0
 29 58  1  0  0  0  0
 30 34  1  0  0  0  0
 30 35  2  0  0  0  0
 31 33  2  0  0  0  0
 31 37  1  0  0  0  0
 32 33  1  0  0  0  0
 32 34  1  0  0  0  0
 32 36  2  0  0  0  0
 35 39  1  0  0  0  0
 36 38  1  0  0  0  0
 37 38  2  0  0  0  0
 38 67  1  0  0  0  0
 39 40  2  0  0  0  0
 39 41  1  0  0  0  0
 40 42  1  0  0  0  0
 40 70  1  0  0  0  0
 41 43  2  0  0  0  0
 41 71  1  0  0  0  0
 42 44  2  0  0  0  0
 42 72  1  0  0  0  0
 43 44  1  0  0  0  0
 43 73  1  0  0  0  0
M  END
>  <PUBCHEM_COMPOUND_CID>
14375136

>  <PUBCHEM_COMPOUND_CANONICALIZED>
1

>  <PUBCHEM_CACTVS_COMPLEXITY>
1030

>  <PUBCHEM_CACTVS_HBOND_ACCEPTOR>
17

>  <PUBCHEM_CACTVS_HBOND_DONOR>
11

>  <PUBCHEM_CACTVS_ROTATABLE_BOND>
7

>  <PUBCHEM_CACTVS_SUBSKEYS>
AAADceB4PgAAAAAAAAAAAAAAAAAAAAAAAAA0aIECAAAAAACBQAAAGgAACAAADBSwmAMwDoAABgCIAqBSAAICCAAkIAAIiAFGiMgdNzaGNR6ieWOl4BUPuQfK7LzOIQABCAAIQABCAAIQABCAAAAAAAAAAA==

>  <PUBCHEM_IUPAC_OPENEYE_NAME>
5,7-dihydroxy-2-(4-hydroxyphenyl)-3,6-bis[[3,4,5-trihydroxy-6-(hydroxymethyl)tetrahydropyran-2-yl]oxy]chromen-4-one

>  <PUBCHEM_IUPAC_CAS_NAME>
5,7-dihydroxy-2-(4-hydroxyphenyl)-3,6-bis[[3,4,5-trihydroxy-6-(hydroxymethyl)-2-oxanyl]oxy]-1-benzopyran-4-one

>  <PUBCHEM_IUPAC_NAME>
5,7-dihydroxy-2-(4-hydroxyphenyl)-3,6-bis[[3,4,5-trihydroxy-6-(hydroxymethyl)oxan-2-yl]oxy]chromen-4-one

>  <PUBCHEM_IUPAC_SYSTEMATIC_NAME>
3,6-bis[[6-(hydroxymethyl)-3,4,5-tris(oxidanyl)oxan-2-yl]oxy]-2-(4-hydroxyphenyl)-5,7-bis(oxidanyl)chromen-4-one

>  <PUBCHEM_IUPAC_TRADITIONAL_NAME>
5,7-dihydroxy-2-(4-hydroxyphenyl)-3,6-bis[(3,4,5-trihydroxy-6-methylol-tetrahydropyran-2-yl)oxy]chromone

>  <PUBCHEM_IUPAC_INCHI>
InChI=1S/C27H30O17/c28-6-12-15(32)19(36)21(38)26(41-12)43-24-10(31)5-11-14(17(24)34)18(35)25(23(40-11)8-1-3-9(30)4-2-8)44-27-22(39)20(37)16(33)13(7-29)42-27/h1-5,12-13,15-16,19-22,26-34,36-39H,6-7H2

>  <PUBCHEM_IUPAC_INCHIKEY>
GIHCVNUAKOTVCJ-UHFFFAOYSA-N

>  <PUBCHEM_XLOGP3_AA>
-1.4

>  <PUBCHEM_EXACT_MASS>
626.148

>  <PUBCHEM_MOLECULAR_FORMULA>
C27H30O17

>  <PUBCHEM_MOLECULAR_WEIGHT>
626.52

>  <PUBCHEM_OPENEYE_CAN_SMILES>
C1=CC(=CC=C1C2=C(C(=O)C3=C(C(=C(C=C3O2)O)OC4C(C(C(C(O4)CO)O)O)O)O)OC5C(C(C(C(O5)CO)O)O)O)O

>  <PUBCHEM_OPENEYE_ISO_SMILES>
C1=CC(=CC=C1C2=C(C(=O)C3=C(C(=C(C=C3O2)O)OC4C(C(C(C(O4)CO)O)O)O)O)OC5C(C(C(C(O5)CO)O)O)O)O

>  <PUBCHEM_CACTVS_TPSA>
286

>  <PUBCHEM_MONOISOTOPIC_WEIGHT>
626.148

>  <PUBCHEM_TOTAL_CHARGE>
0

>  <PUBCHEM_HEAVY_ATOM_COUNT>
44

>  <PUBCHEM_ATOM_DEF_STEREO_COUNT>
0

>  <PUBCHEM_ATOM_UDEF_STEREO_COUNT>
10

>  <PUBCHEM_BOND_DEF_STEREO_COUNT>
0

>  <PUBCHEM_BOND_UDEF_STEREO_COUNT>
0

>  <PUBCHEM_ISOTOPIC_ATOM_COUNT>
0

>  <PUBCHEM_COMPONENT_COUNT>
1

>  <PUBCHEM_CACTVS_TAUTO_COUNT>
57

>  <PUBCHEM_COORDINATE_TYPE>
1
5
255

>  <PUBCHEM_BONDANNOTATIONS>
24  10  3
13  35  8
13  36  8
23  28  3
25  29  3
26  3  3
30  34  8
30  35  8
31  33  8
31  37  8
32  33  8
32  34  8
32  36  8
36  38  8
37  38  8
39  40  8
39  41  8
27  4  3
40  42  8
41  43  8
42  44  8
43  44  8
18  5  3
19  6  3
20  7  3
21  8  3
22  9  3

$$$$
