14375140
 OpenBabel06101807152D

 94 99  0  0  1  0  0  0  0  0999 V2000
    7.7331    0.4700    0.0000 O   0  0  0  0  0  0  0  0  0  0  0  0
    6.0010   -0.5300    0.0000 O   0  0  0  0  0  0  0  0  0  0  0  0
    4.2690   -0.5300    0.0000 O   0  0  0  0  0  0  0  0  0  0  0  0
    6.0010    2.4700    0.0000 O   0  0  0  0  0  0  0  0  0  0  0  0
    9.4651    0.4700    0.0000 O   0  0  0  0  0  0  0  0  0  0  0  0
    7.7331    3.4700    0.0000 O   0  0  0  0  0  0  0  0  0  0  0  0
   18.1914    0.4605    0.0000 O   0  0  0  0  0  0  0  0  0  0  0  0
    9.4651    2.4700    0.0000 O   0  0  0  0  0  0  0  0  0  0  0  0
    6.0010   -2.5300    0.0000 O   0  0  0  0  0  0  0  0  0  0  0  0
    4.2690   -3.5300    0.0000 O   0  0  0  0  0  0  0  0  0  0  0  0
    2.5369   -2.5300    0.0000 O   0  0  0  0  0  0  0  0  0  0  0  0
   17.3196   -1.0362    0.0000 O   0  0  0  0  0  0  0  0  0  0  0  0
   20.7837   -1.0495    0.0000 O   0  0  0  0  0  0  0  0  0  0  0  0
   20.7914    0.9504    0.0000 O   0  0  0  0  0  0  0  0  0  0  0  0
   19.0478   -2.0428    0.0000 O   0  0  0  0  0  0  0  0  0  0  0  0
   12.9953    0.4805    0.0000 O   0  0  0  0  0  0  0  0  0  0  0  0
   19.9312    2.4538    0.0000 O   0  0  0  0  0  0  0  0  0  0  0  0
   11.2586    3.5218    0.0000 O   0  0  0  0  0  0  0  0  0  0  0  0
   13.0069    3.4805    0.0000 O   0  0  0  0  0  0  0  0  0  0  0  0
    6.8671    0.9700    0.0000 C   0  0  3  0  0  0  0  0  0  0  0  0
    6.8671    1.9700    0.0000 C   0  0  3  0  0  0  0  0  0  0  0  0
    7.7331    2.4700    0.0000 C   0  0  3  0  0  0  0  0  0  0  0  0
    8.5991    1.9700    0.0000 C   0  0  3  0  0  0  0  0  0  0  0  0
    5.1350   -2.0300    0.0000 C   0  0  3  0  0  0  0  0  0  0  0  0
    5.1350   -1.0300    0.0000 C   0  0  3  0  0  0  0  0  0  0  0  0
    4.2690   -2.5300    0.0000 C   0  0  3  0  0  0  0  0  0  0  0  0
    3.4030   -2.0300    0.0000 C   0  0  3  0  0  0  0  0  0  0  0  0
    8.5991    0.9700    0.0000 C   0  0  3  0  0  0  0  0  0  0  0  0
    6.0010    0.4700    0.0000 C   0  0  0  0  0  0  0  0  0  0  0  0
    3.4030   -1.0300    0.0000 C   0  0  3  0  0  0  0  0  0  0  0  0
   19.9196   -0.5462    0.0000 C   0  0  3  0  0  0  0  0  0  0  0  0
   19.9235    0.4538    0.0000 C   0  0  3  0  0  0  0  0  0  0  0  0
   19.0517   -1.0429    0.0000 C   0  0  3  0  0  0  0  0  0  0  0  0
   19.0594    0.9571    0.0000 C   0  0  3  0  0  0  0  0  0  0  0  0
   18.1876   -0.5395    0.0000 C   0  0  3  0  0  0  0  0  0  0  0  0
    2.5369   -0.5300    0.0000 C   0  0  0  0  0  0  0  0  0  0  0  0
   19.0632    1.9571    0.0000 C   0  0  0  0  0  0  0  0  0  0  0  0
   10.3312    0.9700    0.0000 C   0  0  0  0  0  0  0  0  0  0  0  0
   13.8633    0.9772    0.0000 C   0  0  3  0  0  0  0  0  0  0  0  0
   11.2352    0.4526    0.0000 C   0  0  0  0  0  0  0  0  0  0  0  0
   12.1312    0.9838    0.0000 C   0  0  0  0  0  0  0  0  0  0  0  0
   16.4556   -0.5329    0.0000 C   0  0  0  0  0  0  0  0  0  0  0  0
   12.1351    1.9838    0.0000 C   0  0  0  0  0  0  0  0  0  0  0  0
   10.3352    2.0116    0.0000 C   0  0  0  0  0  0  0  0  0  0  0  0
   13.8671    1.9772    0.0000 C   0  0  0  0  0  0  0  0  0  0  0  0
   14.7274    0.4738    0.0000 C   0  0  0  0  0  0  0  0  0  0  0  0
   11.2432    2.5219    0.0000 C   0  0  0  0  0  0  0  0  0  0  0  0
   13.0030    2.4805    0.0000 C   0  0  0  0  0  0  0  0  0  0  0  0
   16.4594    0.4671    0.0000 C   0  0  0  0  0  0  0  0  0  0  0  0
   15.5876   -1.0295    0.0000 C   0  0  0  0  0  0  0  0  0  0  0  0
   15.5953    0.9705    0.0000 C   0  0  0  0  0  0  0  0  0  0  0  0
   14.7235   -0.5262    0.0000 C   0  0  0  0  0  0  0  0  0  0  0  0
    6.8671    0.3500    0.0000 H   0  0  0  0  0  0  0  0  0  0  0  0
    6.3301    1.6600    0.0000 H   0  0  0  0  0  0  0  0  0  0  0  0
    7.1962    2.7800    0.0000 H   0  0  0  0  0  0  0  0  0  0  0  0
    8.5991    2.5900    0.0000 H   0  0  0  0  0  0  0  0  0  0  0  0
    5.1350   -2.6500    0.0000 H   0  0  0  0  0  0  0  0  0  0  0  0
    5.6720   -1.3400    0.0000 H   0  0  0  0  0  0  0  0  0  0  0  0
    3.7320   -2.8401    0.0000 H   0  0  0  0  0  0  0  0  0  0  0  0
    2.8660   -1.7200    0.0000 H   0  0  0  0  0  0  0  0  0  0  0  0
    8.5991    0.3500    0.0000 H   0  0  0  0  0  0  0  0  0  0  0  0
    5.7890    1.0526    0.0000 H   0  0  0  0  0  0  0  0  0  0  0  0
    5.3905    0.3623    0.0000 H   0  0  0  0  0  0  0  0  0  0  0  0
    3.4030   -0.4100    0.0000 H   0  0  0  0  0  0  0  0  0  0  0  0
   20.4578   -0.2383    0.0000 H   0  0  0  0  0  0  0  0  0  0  0  0
   19.9259    1.0738    0.0000 H   0  0  0  0  0  0  0  0  0  0  0  0
   19.5874   -1.3549    0.0000 H   0  0  0  0  0  0  0  0  0  0  0  0
   18.5237    1.2692    0.0000 H   0  0  0  0  0  0  0  0  0  0  0  0
   18.1852   -1.1595    0.0000 H   0  0  0  0  0  0  0  0  0  0  0  0
    2.8469    0.0069    0.0000 H   0  0  0  0  0  0  0  0  0  0  0  0
    2.0000   -0.2200    0.0000 H   0  0  0  0  0  0  0  0  0  0  0  0
    2.2269   -1.0670    0.0000 H   0  0  0  0  0  0  0  0  0  0  0  0
    5.4641    2.1599    0.0000 H   0  0  0  0  0  0  0  0  0  0  0  0
    7.1962    3.7800    0.0000 H   0  0  0  0  0  0  0  0  0  0  0  0
    9.4651    3.0900    0.0000 H   0  0  0  0  0  0  0  0  0  0  0  0
    6.5380   -2.2200    0.0000 H   0  0  0  0  0  0  0  0  0  0  0  0
    3.7320   -3.8400    0.0000 H   0  0  0  0  0  0  0  0  0  0  0  0
   18.8534    2.5405    0.0000 H   0  0  0  0  0  0  0  0  0  0  0  0
   18.4523    1.8518    0.0000 H   0  0  0  0  0  0  0  0  0  0  0  0
    2.0000   -2.2200    0.0000 H   0  0  0  0  0  0  0  0  0  0  0  0
   21.3218   -0.7416    0.0000 H   0  0  0  0  0  0  0  0  0  0  0  0
   21.3272    0.6384    0.0000 H   0  0  0  0  0  0  0  0  0  0  0  0
   19.5836   -2.3549    0.0000 H   0  0  0  0  0  0  0  0  0  0  0  0
   14.4014    1.2851    0.0000 H   0  0  0  0  0  0  0  0  0  0  0  0
   11.2400   -0.1674    0.0000 H   0  0  0  0  0  0  0  0  0  0  0  0
    9.8006    2.3257    0.0000 H   0  0  0  0  0  0  0  0  0  0  0  0
   14.4773    1.8671    0.0000 H   0  0  0  0  0  0  0  0  0  0  0  0
   14.0814    2.5589    0.0000 H   0  0  0  0  0  0  0  0  0  0  0  0
   19.9336    3.0738    0.0000 H   0  0  0  0  0  0  0  0  0  0  0  0
   16.9975    0.7751    0.0000 H   0  0  0  0  0  0  0  0  0  0  0  0
   15.5852   -1.6495    0.0000 H   0  0  0  0  0  0  0  0  0  0  0  0
   15.5977    1.5905    0.0000 H   0  0  0  0  0  0  0  0  0  0  0  0
   14.1854   -0.8341    0.0000 H   0  0  0  0  0  0  0  0  0  0  0  0
   10.7265    3.8400    0.0000 H   0  0  0  0  0  0  0  0  0  0  0  0
  1 20  1  0  0  0  0
  1 28  1  0  0  0  0
  2 25  1  0  0  0  0
  2 29  1  0  0  0  0
  3 25  1  0  0  0  0
  3 30  1  0  0  0  0
  4 21  1  0  0  0  0
  4 73  1  0  0  0  0
  5 28  1  0  0  0  0
  5 38  1  0  0  0  0
  6 22  1  0  0  0  0
  6 74  1  0  0  0  0
  7 34  1  0  0  0  0
  7 35  1  0  0  0  0
  8 23  1  0  0  0  0
  8 75  1  0  0  0  0
  9 24  1  0  0  0  0
  9 76  1  0  0  0  0
 10 26  1  0  0  0  0
 10 77  1  0  0  0  0
 11 27  1  0  0  0  0
 11 80  1  0  0  0  0
 12 35  1  0  0  0  0
 12 42  1  0  0  0  0
 13 31  1  0  0  0  0
 13 81  1  0  0  0  0
 14 32  1  0  0  0  0
 14 82  1  0  0  0  0
 15 33  1  0  0  0  0
 15 83  1  0  0  0  0
 16 39  1  0  0  0  0
 16 41  1  0  0  0  0
 17 37  1  0  0  0  0
 17 89  1  0  0  0  0
 18 47  1  0  0  0  0
 18 94  1  0  0  0  0
 19 48  2  0  0  0  0
 20 21  1  0  0  0  0
 20 29  1  0  0  0  0
 20 53  1  0  0  0  0
 21 22  1  0  0  0  0
 21 54  1  0  0  0  0
 22 23  1  0  0  0  0
 22 55  1  0  0  0  0
 23 28  1  0  0  0  0
 23 56  1  0  0  0  0
 24 25  1  0  0  0  0
 24 26  1  0  0  0  0
 24 57  1  0  0  0  0
 25 58  1  0  0  0  0
 26 27  1  0  0  0  0
 26 59  1  0  0  0  0
 27 30  1  0  0  0  0
 27 60  1  0  0  0  0
 28 61  1  0  0  0  0
 29 62  1  0  0  0  0
 29 63  1  0  0  0  0
 30 36  1  0  0  0  0
 30 64  1  0  0  0  0
 31 32  1  0  0  0  0
 31 33  1  0  0  0  0
 31 65  1  0  0  0  0
 32 34  1  0  0  0  0
 32 66  1  0  0  0  0
 33 35  1  0  0  0  0
 33 67  1  0  0  0  0
 34 37  1  0  0  0  0
 34 68  1  0  0  0  0
 35 69  1  0  0  0  0
 36 70  1  0  0  0  0
 36 71  1  0  0  0  0
 36 72  1  0  0  0  0
 37 78  1  0  0  0  0
 37 79  1  0  0  0  0
 38 40  1  0  0  0  0
 38 44  2  0  0  0  0
 39 45  1  0  0  0  0
 39 46  1  0  0  0  0
 39 84  1  0  0  0  0
 40 41  2  0  0  0  0
 40 85  1  0  0  0  0
 41 43  1  0  0  0  0
 42 49  2  0  0  0  0
 42 50  1  0  0  0  0
 43 47  2  0  0  0  0
 43 48  1  0  0  0  0
 44 47  1  0  0  0  0
 44 86  1  0  0  0  0
 45 48  1  0  0  0  0
 45 87  1  0  0  0  0
 45 88  1  0  0  0  0
 46 51  2  0  0  0  0
 46 52  1  0  0  0  0
 49 51  1  0  0  0  0
 49 90  1  0  0  0  0
 50 52  2  0  0  0  0
 50 91  1  0  0  0  0
 51 92  1  0  0  0  0
 52 93  1  0  0  0  0
M  END
>  <PUBCHEM_COMPOUND_CID>
14375140

>  <PUBCHEM_COMPOUND_CANONICALIZED>
1

>  <PUBCHEM_CACTVS_COMPLEXITY>
1170

>  <PUBCHEM_CACTVS_HBOND_ACCEPTOR>
19

>  <PUBCHEM_CACTVS_HBOND_DONOR>
11

>  <PUBCHEM_CACTVS_ROTATABLE_BOND>
9

>  <PUBCHEM_CACTVS_SUBSKEYS>
AAADcfB8PgAAAAAAAAAAAAAAAAAAAAAAAAA0aJEiAAAAAACRQAAAGgAACAAADBSwmAMyDoAABgCIAqBSAAACCAAkIAAIiAEGCMgdNzaGNRqieWCl4BUPuQfI7OzOIAAACAAIAABAAAAQABAAAAAAAAAAAA==

>  <PUBCHEM_IUPAC_OPENEYE_NAME>
5-hydroxy-2-[4-[3,4,5-trihydroxy-6-(hydroxymethyl)tetrahydropyran-2-yl]oxyphenyl]-7-[3,4,5-trihydroxy-6-[(3,4,5-trihydroxy-6-methyl-tetrahydropyran-2-yl)oxymethyl]tetrahydropyran-2-yl]oxy-chroman-4-one

>  <PUBCHEM_IUPAC_CAS_NAME>
5-hydroxy-2-[4-[[3,4,5-trihydroxy-6-(hydroxymethyl)-2-oxanyl]oxy]phenyl]-7-[[3,4,5-trihydroxy-6-[(3,4,5-trihydroxy-6-methyl-2-oxanyl)oxymethyl]-2-oxanyl]oxy]-3,4-dihydro-2H-1-benzopyran-4-one

>  <PUBCHEM_IUPAC_NAME>
5-hydroxy-2-[4-[3,4,5-trihydroxy-6-(hydroxymethyl)oxan-2-yl]oxyphenyl]-7-[3,4,5-trihydroxy-6-[(3,4,5-trihydroxy-6-methyloxan-2-yl)oxymethyl]oxan-2-yl]oxy-2,3-dihydrochromen-4-one

>  <PUBCHEM_IUPAC_SYSTEMATIC_NAME>
2-[4-[6-(hydroxymethyl)-3,4,5-tris(oxidanyl)oxan-2-yl]oxyphenyl]-7-[6-[[6-methyl-3,4,5-tris(oxidanyl)oxan-2-yl]oxymethyl]-3,4,5-tris(oxidanyl)oxan-2-yl]oxy-5-oxidanyl-2,3-dihydrochromen-4-one

>  <PUBCHEM_IUPAC_TRADITIONAL_NAME>
5-hydroxy-2-[4-(3,4,5-trihydroxy-6-methylol-tetrahydropyran-2-yl)oxyphenyl]-7-[3,4,5-trihydroxy-6-[(3,4,5-trihydroxy-6-methyl-tetrahydropyran-2-yl)oxymethyl]tetrahydropyran-2-yl]oxy-chroman-4-one

>  <PUBCHEM_IUPAC_INCHI>
InChI=1S/C33H42O19/c1-11-22(37)25(40)28(43)31(47-11)46-10-20-24(39)27(42)30(45)33(52-20)49-14-6-15(35)21-16(36)8-17(50-18(21)7-14)12-2-4-13(5-3-12)48-32-29(44)26(41)23(38)19(9-34)51-32/h2-7,11,17,19-20,22-35,37-45H,8-10H2,1H3

>  <PUBCHEM_IUPAC_INCHIKEY>
KQUWJUNIYQVHCG-UHFFFAOYSA-N

>  <PUBCHEM_XLOGP3_AA>
-2.9

>  <PUBCHEM_EXACT_MASS>
742.232

>  <PUBCHEM_MOLECULAR_FORMULA>
C33H42O19

>  <PUBCHEM_MOLECULAR_WEIGHT>
742.68

>  <PUBCHEM_OPENEYE_CAN_SMILES>
CC1C(C(C(C(O1)OCC2C(C(C(C(O2)OC3=CC(=C4C(=O)CC(OC4=C3)C5=CC=C(C=C5)OC6C(C(C(C(O6)CO)O)O)O)O)O)O)O)O)O)O

>  <PUBCHEM_OPENEYE_ISO_SMILES>
CC1C(C(C(C(O1)OCC2C(C(C(C(O2)OC3=CC(=C4C(=O)CC(OC4=C3)C5=CC=C(C=C5)OC6C(C(C(C(O6)CO)O)O)O)O)O)O)O)O)O)O

>  <PUBCHEM_CACTVS_TPSA>
304

>  <PUBCHEM_MONOISOTOPIC_WEIGHT>
742.232

>  <PUBCHEM_TOTAL_CHARGE>
0

>  <PUBCHEM_HEAVY_ATOM_COUNT>
52

>  <PUBCHEM_ATOM_DEF_STEREO_COUNT>
0

>  <PUBCHEM_ATOM_UDEF_STEREO_COUNT>
16

>  <PUBCHEM_BOND_DEF_STEREO_COUNT>
0

>  <PUBCHEM_BOND_UDEF_STEREO_COUNT>
0

>  <PUBCHEM_ISOTOPIC_ATOM_COUNT>
0

>  <PUBCHEM_COMPONENT_COUNT>
1

>  <PUBCHEM_CACTVS_TAUTO_COUNT>
9

>  <PUBCHEM_COORDINATE_TYPE>
1
5
255

>  <PUBCHEM_BONDANNOTATIONS>
26  10  3
27  11  3
35  12  3
31  13  3
32  14  3
33  15  3
25  2  3
20  29  3
30  36  3
34  37  3
38  40  8
38  44  8
39  46  3
21  4  3
40  41  8
41  43  8
42  49  8
42  50  8
43  47  8
44  47  8
46  51  8
46  52  8
49  51  8
28  5  3
50  52  8
22  6  3
23  8  3
24  9  3

$$$$
