14409592
 OpenBabel06101807152D

 35 34  0  0  0  0  0  0  0  0999 V2000
   12.3923    0.9400    0.0000 C   0  0  0  0  0  0  0  0  0  0  0  0
   13.2583    1.4400    0.0000 C   0  0  0  0  0  0  0  0  0  0  0  0
   11.5263    1.4400    0.0000 C   0  0  0  0  0  0  0  0  0  0  0  0
   14.1244    0.9400    0.0000 C   0  0  0  0  0  0  0  0  0  0  0  0
   10.6603    0.9400    0.0000 C   0  0  0  0  0  0  0  0  0  0  0  0
   14.9904    1.4400    0.0000 C   0  0  0  0  0  0  0  0  0  0  0  0
    9.7942    1.4400    0.0000 C   0  0  0  0  0  0  0  0  0  0  0  0
   15.8564    0.9400    0.0000 C   0  0  0  0  0  0  0  0  0  0  0  0
    8.9282    0.9400    0.0000 C   0  0  0  0  0  0  0  0  0  0  0  0
    8.0622    1.4400    0.0000 C   0  0  0  0  0  0  0  0  0  0  0  0
    7.1962    0.9400    0.0000 C   0  0  0  0  0  0  0  0  0  0  0  0
    6.3301    0.4400    0.0000 C   0  0  0  0  0  0  0  0  0  0  0  0
    5.4641   -0.0600    0.0000 C   0  0  0  0  0  0  0  0  0  0  0  0
    4.5981   -0.5600    0.0000 C   0  0  0  0  0  0  0  0  0  0  0  0
    2.0000   -2.0600    0.0000 C   0  0  0  0  0  0  0  0  0  0  0  0
    3.7320   -1.0600    0.0000 C   0  0  0  0  0  0  0  0  0  0  0  0
    2.8660   -1.5600    0.0000 C   0  0  0  0  0  0  0  0  0  0  0  0
   11.9938    0.4651    0.0000 H   0  0  0  0  0  0  0  0  0  0  0  0
   12.7908    0.4651    0.0000 H   0  0  0  0  0  0  0  0  0  0  0  0
   13.6569    1.9150    0.0000 H   0  0  0  0  0  0  0  0  0  0  0  0
   12.8598    1.9150    0.0000 H   0  0  0  0  0  0  0  0  0  0  0  0
   11.9248    1.9150    0.0000 H   0  0  0  0  0  0  0  0  0  0  0  0
   11.1278    1.9150    0.0000 H   0  0  0  0  0  0  0  0  0  0  0  0
   13.7258    0.4651    0.0000 H   0  0  0  0  0  0  0  0  0  0  0  0
   14.5229    0.4651    0.0000 H   0  0  0  0  0  0  0  0  0  0  0  0
   10.6603    0.3200    0.0000 H   0  0  0  0  0  0  0  0  0  0  0  0
   14.9904    2.0600    0.0000 H   0  0  0  0  0  0  0  0  0  0  0  0
    9.7942    2.0600    0.0000 H   0  0  0  0  0  0  0  0  0  0  0  0
   15.8564    0.3200    0.0000 H   0  0  0  0  0  0  0  0  0  0  0  0
   16.3933    1.2500    0.0000 H   0  0  0  0  0  0  0  0  0  0  0  0
    8.9282    0.3200    0.0000 H   0  0  0  0  0  0  0  0  0  0  0  0
    8.0622    2.0600    0.0000 H   0  0  0  0  0  0  0  0  0  0  0  0
    1.6900   -1.5231    0.0000 H   0  0  0  0  0  0  0  0  0  0  0  0
    1.4631   -2.3700    0.0000 H   0  0  0  0  0  0  0  0  0  0  0  0
    2.3100   -2.5969    0.0000 H   0  0  0  0  0  0  0  0  0  0  0  0
  1  2  1  0  0  0  0
  1  3  1  0  0  0  0
  1 18  1  0  0  0  0
  1 19  1  0  0  0  0
  2  4  1  0  0  0  0
  2 20  1  0  0  0  0
  2 21  1  0  0  0  0
  3  5  1  0  0  0  0
  3 22  1  0  0  0  0
  3 23  1  0  0  0  0
  4  6  1  0  0  0  0
  4 24  1  0  0  0  0
  4 25  1  0  0  0  0
  5  7  2  0  0  0  0
  5 26  1  0  0  0  0
  6  8  2  0  0  0  0
  6 27  1  0  0  0  0
  7  9  1  0  0  0  0
  7 28  1  0  0  0  0
  8 29  1  0  0  0  0
  8 30  1  0  0  0  0
  9 10  2  0  0  0  0
  9 31  1  0  0  0  0
 10 11  1  0  0  0  0
 10 32  1  0  0  0  0
 11 12  3  0  0  0  0
 12 13  1  0  0  0  0
 13 14  3  0  0  0  0
 14 16  1  0  0  0  0
 15 17  1  0  0  0  0
 15 33  1  0  0  0  0
 15 34  1  0  0  0  0
 15 35  1  0  0  0  0
 16 17  3  0  0  0  0
M  END
>  <PUBCHEM_COMPOUND_CID>
14409592

>  <PUBCHEM_COMPOUND_CANONICALIZED>
1

>  <PUBCHEM_CACTVS_COMPLEXITY>
460

>  <PUBCHEM_CACTVS_HBOND_ACCEPTOR>
0

>  <PUBCHEM_CACTVS_HBOND_DONOR>
0

>  <PUBCHEM_CACTVS_ROTATABLE_BOND>
8

>  <PUBCHEM_CACTVS_SUBSKEYS>
AAADceB4AAAAAAAAAAAAAAAAAAAAAAAAAAAAAAAAAAAAAAAAAAAAGAAAAAAACACAAAACAAAAAADAECBCAAAAAAAgAAAICAAAAAgIAAIAAQAAAAAAgAAIgAMAAAAAAAAAAAAAAAAAAAAAAAAAAAAAAAAAAA==

>  <PUBCHEM_IUPAC_OPENEYE_NAME>
(7E,9E)-heptadeca-1,7,9-trien-11,13,15-triyne

>  <PUBCHEM_IUPAC_CAS_NAME>
(7E,9E)-heptadeca-1,7,9-trien-11,13,15-triyne

>  <PUBCHEM_IUPAC_NAME>
(7E,9E)-heptadeca-1,7,9-trien-11,13,15-triyne

>  <PUBCHEM_IUPAC_SYSTEMATIC_NAME>
(7E,9E)-heptadeca-1,7,9-trien-11,13,15-triyne

>  <PUBCHEM_IUPAC_TRADITIONAL_NAME>
(7E,9E)-heptadeca-1,7,9-trien-11,13,15-triyne

>  <PUBCHEM_IUPAC_INCHI>
InChI=1S/C17H18/c1-3-5-7-9-11-13-15-17-16-14-12-10-8-6-4-2/h3,13,15-17H,1,5,7,9,11H2,2H3/b15-13+,17-16+

>  <PUBCHEM_IUPAC_INCHIKEY>
LEQCZKIMKYGCIQ-TZSXFDEBSA-N

>  <PUBCHEM_XLOGP3_AA>
5.6

>  <PUBCHEM_EXACT_MASS>
222.141

>  <PUBCHEM_MOLECULAR_FORMULA>
C17H18

>  <PUBCHEM_MOLECULAR_WEIGHT>
222.331

>  <PUBCHEM_OPENEYE_CAN_SMILES>
CC#CC#CC#CC=CC=CCCCCC=C

>  <PUBCHEM_OPENEYE_ISO_SMILES>
CC#CC#CC#C/C=C/C=C/CCCCC=C

>  <PUBCHEM_CACTVS_TPSA>
0

>  <PUBCHEM_MONOISOTOPIC_WEIGHT>
222.141

>  <PUBCHEM_TOTAL_CHARGE>
0

>  <PUBCHEM_HEAVY_ATOM_COUNT>
17

>  <PUBCHEM_ATOM_DEF_STEREO_COUNT>
0

>  <PUBCHEM_ATOM_UDEF_STEREO_COUNT>
0

>  <PUBCHEM_BOND_DEF_STEREO_COUNT>
2

>  <PUBCHEM_BOND_UDEF_STEREO_COUNT>
0

>  <PUBCHEM_ISOTOPIC_ATOM_COUNT>
0

>  <PUBCHEM_COMPONENT_COUNT>
1

>  <PUBCHEM_CACTVS_TAUTO_COUNT>
1

>  <PUBCHEM_COORDINATE_TYPE>
1
5
255

$$$$
