14427830
 OpenBabel06101807152D

 56 56  0  0  0  0  0  0  0  0999 V2000
    2.5369   -4.2500    0.0000 O   0  0  0  0  0  0  0  0  0  0  0  0
    6.0010   -6.2500    0.0000 O   0  0  0  0  0  0  0  0  0  0  0  0
    6.0010   -4.2500    0.0000 O   0  0  0  0  0  0  0  0  0  0  0  0
    2.5369   -6.2500    0.0000 O   0  0  0  0  0  0  0  0  0  0  0  0
    6.0010   -1.2500    0.0000 C   0  0  0  0  0  0  0  0  0  0  0  0
    5.1350   -1.7500    0.0000 C   0  0  0  0  0  0  0  0  0  0  0  0
    6.0010   -0.2500    0.0000 C   0  0  0  0  0  0  0  0  0  0  0  0
    5.1350   -2.7500    0.0000 C   0  0  0  0  0  0  0  0  0  0  0  0
    6.8671    0.2500    0.0000 C   0  0  0  0  0  0  0  0  0  0  0  0
    4.2690   -3.2500    0.0000 C   0  0  0  0  0  0  0  0  0  0  0  0
    6.8671    1.2500    0.0000 C   0  0  0  0  0  0  0  0  0  0  0  0
    4.2690   -4.2500    0.0000 C   0  0  0  0  0  0  0  0  0  0  0  0
    3.4030   -4.7500    0.0000 C   0  0  0  0  0  0  0  0  0  0  0  0
    7.7331    1.7500    0.0000 C   0  0  0  0  0  0  0  0  0  0  0  0
    5.1350   -4.7500    0.0000 C   0  0  0  0  0  0  0  0  0  0  0  0
    5.1350   -5.7500    0.0000 C   0  0  0  0  0  0  0  0  0  0  0  0
    3.4030   -5.7500    0.0000 C   0  0  0  0  0  0  0  0  0  0  0  0
    7.7331    2.7500    0.0000 C   0  0  0  0  0  0  0  0  0  0  0  0
    4.2690   -6.2500    0.0000 C   0  0  0  0  0  0  0  0  0  0  0  0
    8.5991    3.2500    0.0000 C   0  0  0  0  0  0  0  0  0  0  0  0
    8.5991    4.2500    0.0000 C   0  0  0  0  0  0  0  0  0  0  0  0
    6.0010   -7.2500    0.0000 C   0  0  0  0  0  0  0  0  0  0  0  0
    9.4651    4.7500    0.0000 C   0  0  0  0  0  0  0  0  0  0  0  0
    9.4651    5.7500    0.0000 C   0  0  0  0  0  0  0  0  0  0  0  0
   10.3312    6.2500    0.0000 C   0  0  0  0  0  0  0  0  0  0  0  0
   10.3312    7.2500    0.0000 C   0  0  0  0  0  0  0  0  0  0  0  0
    6.2131   -1.8326    0.0000 H   0  0  0  0  0  0  0  0  0  0  0  0
    6.6116   -1.1423    0.0000 H   0  0  0  0  0  0  0  0  0  0  0  0
    4.9230   -1.1674    0.0000 H   0  0  0  0  0  0  0  0  0  0  0  0
    4.5244   -1.8577    0.0000 H   0  0  0  0  0  0  0  0  0  0  0  0
    5.7890    0.3326    0.0000 H   0  0  0  0  0  0  0  0  0  0  0  0
    5.3905   -0.3577    0.0000 H   0  0  0  0  0  0  0  0  0  0  0  0
    5.3471   -3.3326    0.0000 H   0  0  0  0  0  0  0  0  0  0  0  0
    5.7456   -2.6423    0.0000 H   0  0  0  0  0  0  0  0  0  0  0  0
    7.0791   -0.3326    0.0000 H   0  0  0  0  0  0  0  0  0  0  0  0
    7.4776    0.3577    0.0000 H   0  0  0  0  0  0  0  0  0  0  0  0
    4.0569   -2.6674    0.0000 H   0  0  0  0  0  0  0  0  0  0  0  0
    3.6584   -3.3577    0.0000 H   0  0  0  0  0  0  0  0  0  0  0  0
    6.6550    1.8326    0.0000 H   0  0  0  0  0  0  0  0  0  0  0  0
    6.2565    1.1423    0.0000 H   0  0  0  0  0  0  0  0  0  0  0  0
    8.2700    1.4400    0.0000 H   0  0  0  0  0  0  0  0  0  0  0  0
    7.1962    3.0600    0.0000 H   0  0  0  0  0  0  0  0  0  0  0  0
    4.2690   -6.8700    0.0000 H   0  0  0  0  0  0  0  0  0  0  0  0
    8.8112    2.6674    0.0000 H   0  0  0  0  0  0  0  0  0  0  0  0
    9.2097    3.3577    0.0000 H   0  0  0  0  0  0  0  0  0  0  0  0
    2.0000   -4.5600    0.0000 H   0  0  0  0  0  0  0  0  0  0  0  0
    8.0622    4.5600    0.0000 H   0  0  0  0  0  0  0  0  0  0  0  0
    5.3810   -7.2500    0.0000 H   0  0  0  0  0  0  0  0  0  0  0  0
    6.0010   -7.8700    0.0000 H   0  0  0  0  0  0  0  0  0  0  0  0
    6.6210   -7.2500    0.0000 H   0  0  0  0  0  0  0  0  0  0  0  0
   10.0021    4.4400    0.0000 H   0  0  0  0  0  0  0  0  0  0  0  0
    9.2531    6.3326    0.0000 H   0  0  0  0  0  0  0  0  0  0  0  0
    8.8546    5.6423    0.0000 H   0  0  0  0  0  0  0  0  0  0  0  0
   10.8681    5.9400    0.0000 H   0  0  0  0  0  0  0  0  0  0  0  0
   10.8681    7.5600    0.0000 H   0  0  0  0  0  0  0  0  0  0  0  0
    9.7942    7.5600    0.0000 H   0  0  0  0  0  0  0  0  0  0  0  0
  1 13  1  0  0  0  0
  1 46  1  0  0  0  0
  2 16  1  0  0  0  0
  2 22  1  0  0  0  0
  3 15  2  0  0  0  0
  4 17  2  0  0  0  0
  5  6  1  0  0  0  0
  5  7  1  0  0  0  0
  5 27  1  0  0  0  0
  5 28  1  0  0  0  0
  6  8  1  0  0  0  0
  6 29  1  0  0  0  0
  6 30  1  0  0  0  0
  7  9  1  0  0  0  0
  7 31  1  0  0  0  0
  7 32  1  0  0  0  0
  8 10  1  0  0  0  0
  8 33  1  0  0  0  0
  8 34  1  0  0  0  0
  9 11  1  0  0  0  0
  9 35  1  0  0  0  0
  9 36  1  0  0  0  0
 10 12  1  0  0  0  0
 10 37  1  0  0  0  0
 10 38  1  0  0  0  0
 11 14  1  0  0  0  0
 11 39  1  0  0  0  0
 11 40  1  0  0  0  0
 12 13  2  0  0  0  0
 12 15  1  0  0  0  0
 13 17  1  0  0  0  0
 14 18  2  0  0  0  0
 14 41  1  0  0  0  0
 15 16  1  0  0  0  0
 16 19  2  0  0  0  0
 17 19  1  0  0  0  0
 18 20  1  0  0  0  0
 18 42  1  0  0  0  0
 19 43  1  0  0  0  0
 20 21  1  0  0  0  0
 20 44  1  0  0  0  0
 20 45  1  0  0  0  0
 21 23  2  0  0  0  0
 21 47  1  0  0  0  0
 22 48  1  0  0  0  0
 22 49  1  0  0  0  0
 22 50  1  0  0  0  0
 23 24  1  0  0  0  0
 23 51  1  0  0  0  0
 24 25  1  0  0  0  0
 24 52  1  0  0  0  0
 24 53  1  0  0  0  0
 25 26  2  0  0  0  0
 25 54  1  0  0  0  0
 26 55  1  0  0  0  0
 26 56  1  0  0  0  0
M  END
>  <PUBCHEM_COMPOUND_CID>
14427830

>  <PUBCHEM_COMPOUND_CANONICALIZED>
1

>  <PUBCHEM_CACTVS_COMPLEXITY>
606

>  <PUBCHEM_CACTVS_HBOND_ACCEPTOR>
4

>  <PUBCHEM_CACTVS_HBOND_DONOR>
1

>  <PUBCHEM_CACTVS_ROTATABLE_BOND>
13

>  <PUBCHEM_CACTVS_SUBSKEYS>
AAADceB4OAAAAAAAAAAAAAAAAAAAAAAAAAAgAAAAAAAAAAAAAAAAGgAACAAADASAgAICAAAABgCIAqBSAAIACAAgIAAICAFAAEgAABIAAQQAQAAEwAAIAYOIyKCAAAAAAAAAAAAAAAAAAAAAAAAAAAAAAA==

>  <PUBCHEM_IUPAC_OPENEYE_NAME>
2-hydroxy-5-methoxy-3-[(8E,11E)-pentadeca-8,11,14-trienyl]-1,4-benzoquinone

>  <PUBCHEM_IUPAC_CAS_NAME>
2-hydroxy-5-methoxy-3-[(8E,11E)-pentadeca-8,11,14-trienyl]cyclohexa-2,5-diene-1,4-dione

>  <PUBCHEM_IUPAC_NAME>
2-hydroxy-5-methoxy-3-[(8E,11E)-pentadeca-8,11,14-trienyl]cyclohexa-2,5-diene-1,4-dione

>  <PUBCHEM_IUPAC_SYSTEMATIC_NAME>
5-methoxy-2-oxidanyl-3-[(8E,11E)-pentadeca-8,11,14-trienyl]cyclohexa-2,5-diene-1,4-dione

>  <PUBCHEM_IUPAC_TRADITIONAL_NAME>
2-hydroxy-5-methoxy-3-[(8E,11E)-pentadeca-8,11,14-trienyl]-p-benzoquinone

>  <PUBCHEM_IUPAC_INCHI>
InChI=1S/C22H30O4/c1-3-4-5-6-7-8-9-10-11-12-13-14-15-16-18-21(24)19(23)17-20(26-2)22(18)25/h3,5-6,8-9,17,24H,1,4,7,10-16H2,2H3/b6-5+,9-8+

>  <PUBCHEM_IUPAC_INCHIKEY>
FGWRUVXUQWGLOX-HHWLVVFRSA-N

>  <PUBCHEM_XLOGP3_AA>
6

>  <PUBCHEM_EXACT_MASS>
358.214

>  <PUBCHEM_MOLECULAR_FORMULA>
C22H30O4

>  <PUBCHEM_MOLECULAR_WEIGHT>
358.478

>  <PUBCHEM_OPENEYE_CAN_SMILES>
COC1=CC(=O)C(=C(C1=O)CCCCCCCC=CCC=CCC=C)O

>  <PUBCHEM_OPENEYE_ISO_SMILES>
COC1=CC(=O)C(=C(C1=O)CCCCCCC/C=C/C/C=C/CC=C)O

>  <PUBCHEM_CACTVS_TPSA>
63.6

>  <PUBCHEM_MONOISOTOPIC_WEIGHT>
358.214

>  <PUBCHEM_TOTAL_CHARGE>
0

>  <PUBCHEM_HEAVY_ATOM_COUNT>
26

>  <PUBCHEM_ATOM_DEF_STEREO_COUNT>
0

>  <PUBCHEM_ATOM_UDEF_STEREO_COUNT>
0

>  <PUBCHEM_BOND_DEF_STEREO_COUNT>
2

>  <PUBCHEM_BOND_UDEF_STEREO_COUNT>
0

>  <PUBCHEM_ISOTOPIC_ATOM_COUNT>
0

>  <PUBCHEM_COMPONENT_COUNT>
1

>  <PUBCHEM_CACTVS_TAUTO_COUNT>
88

>  <PUBCHEM_COORDINATE_TYPE>
1
5
255

$$$$
