14428075
 OpenBabel06101807152D

110119  0  0  1  0  0  0  0  0999 V2000
    6.5230   -0.6082    0.0000 O   0  0  0  0  0  0  0  0  0  0  0  0
    4.3454   -0.9612    0.0000 O   0  0  0  0  0  0  0  0  0  0  0  0
    5.7793   -2.3911    0.0000 O   0  0  0  0  0  0  0  0  0  0  0  0
    6.2035   -1.6245    0.0000 O   0  0  0  0  0  0  0  0  0  0  0  0
    7.2230   -3.2092    0.0000 O   0  0  0  0  0  0  0  0  0  0  0  0
    9.0978   -1.9627    0.0000 O   0  0  0  0  0  0  0  0  0  0  0  0
    6.4106    0.9839    0.0000 O   0  0  0  0  0  0  0  0  0  0  0  0
    9.1646   -0.4582    0.0000 O   0  0  0  0  0  0  0  0  0  0  0  0
    8.1353   -1.1069    0.0000 O   0  0  0  0  0  0  0  0  0  0  0  0
    3.6707   -1.0800    0.0000 O   0  0  0  0  0  0  0  0  0  0  0  0
    2.9224   -1.7130    0.0000 O   0  0  0  0  0  0  0  0  0  0  0  0
    2.3913   -2.5585    0.0000 O   0  0  0  0  0  0  0  0  0  0  0  0
    3.2843   -4.4651    0.0000 O   0  0  0  0  0  0  0  0  0  0  0  0
    7.8765    1.2733    0.0000 O   0  0  0  0  0  0  0  0  0  0  0  0
    7.8169   -2.7542    0.0000 O   0  0  0  0  0  0  0  0  0  0  0  0
    4.5869   -5.0088    0.0000 O   0  0  0  0  0  0  0  0  0  0  0  0
    8.0080   -5.6165    0.0000 O   0  0  0  0  0  0  0  0  0  0  0  0
    6.1164   -6.3321    0.0000 O   0  0  0  0  0  0  0  0  0  0  0  0
    7.9068    1.7628    0.0000 O   0  0  0  0  0  0  0  0  0  0  0  0
    7.1694   -1.3656    0.0000 O   0  0  0  0  0  0  0  0  0  0  0  0
    8.7799   -5.4565    0.0000 O   0  0  0  0  0  0  0  0  0  0  0  0
    6.9832    2.9587    0.0000 O   0  0  0  0  0  0  0  0  0  0  0  0
   10.7624   -4.9416    0.0000 O   0  0  0  0  0  0  0  0  0  0  0  0
   11.2926   -2.9631    0.0000 O   0  0  0  0  0  0  0  0  0  0  0  0
    5.1622    4.8845    0.0000 O   0  0  0  0  0  0  0  0  0  0  0  0
    3.3804    1.8258    0.0000 O   0  0  0  0  0  0  0  0  0  0  0  0
    6.0228    5.3814    0.0000 O   0  0  0  0  0  0  0  0  0  0  0  0
    3.3804    3.8741    0.0000 O   0  0  0  0  0  0  0  0  0  0  0  0
    7.7887    6.4192    0.0000 O   0  0  0  0  0  0  0  0  0  0  0  0
    9.5626    5.3950    0.0000 O   0  0  0  0  0  0  0  0  0  0  0  0
    5.3989   -1.4663    0.0000 C   0  0  3  0  0  0  0  0  0  0  0  0
    6.3900   -1.5993    0.0000 C   0  0  3  0  0  0  0  0  0  0  0  0
    5.2154   -0.4802    0.0000 C   0  0  3  0  0  0  0  0  0  0  0  0
    7.1818   -2.2101    0.0000 C   0  0  3  0  0  0  0  0  0  0  0  0
    6.2035   -0.5892    0.0000 C   0  0  3  0  0  0  0  0  0  0  0  0
    4.9618   -2.3691    0.0000 C   0  0  0  0  0  0  0  0  0  0  0  0
    8.1067   -1.8297    0.0000 C   0  0  3  0  0  0  0  0  0  0  0  0
    8.2397   -0.8386    0.0000 C   0  0  3  0  0  0  0  0  0  0  0  0
    6.9106    0.1179    0.0000 C   0  0  3  0  0  0  0  0  0  0  0  0
    4.0745   -2.8367    0.0000 C   0  0  0  0  0  0  0  0  0  0  0  0
    7.4479   -0.2278    0.0000 C   0  0  0  0  0  0  0  0  0  0  0  0
    4.0518   -2.0045    0.0000 C   0  0  0  0  0  0  0  0  0  0  0  0
    3.9122   -1.8559    0.0000 C   0  0  0  0  0  0  0  0  0  0  0  0
    7.8765   -0.1410    0.0000 C   0  0  3  0  0  0  0  0  0  0  0  0
    4.7729   -3.5442    0.0000 C   0  0  0  0  0  0  0  0  0  0  0  0
    5.7515   -3.7191    0.0000 C   0  0  0  0  0  0  0  0  0  0  0  0
    3.3786   -2.7172    0.0000 C   0  0  0  0  0  0  0  0  0  0  0  0
    3.7944   -3.6050    0.0000 C   0  0  0  0  0  0  0  0  0  0  0  0
    6.6518   -3.2976    0.0000 C   0  0  0  0  0  0  0  0  0  0  0  0
    6.9106   -2.3316    0.0000 C   0  0  0  0  0  0  0  0  0  0  0  0
    8.5836    0.5662    0.0000 C   0  0  0  0  0  0  0  0  0  0  0  0
    7.3589   -4.0047    0.0000 C   0  0  0  0  0  0  0  0  0  0  0  0
    5.5361   -4.6942    0.0000 C   0  0  0  0  0  0  0  0  0  0  0  0
    6.9106    1.8499    0.0000 C   0  0  0  0  0  0  0  0  0  0  0  0
    8.3248   -3.7458    0.0000 C   0  0  0  0  0  0  0  0  0  0  0  0
    7.2252   -4.9942    0.0000 C   0  0  0  0  0  0  0  0  0  0  0  0
    6.2913   -5.3475    0.0000 C   0  0  0  0  0  0  0  0  0  0  0  0
    7.8765   -2.0728    0.0000 C   0  0  0  0  0  0  0  0  0  0  0  0
    8.5836   -2.7799    0.0000 C   0  0  0  0  0  0  0  0  0  0  0  0
    6.0445    2.3499    0.0000 C   0  0  0  0  0  0  0  0  0  0  0  0
    9.0499   -4.4936    0.0000 C   0  0  0  0  0  0  0  0  0  0  0  0
    7.7766    2.3499    0.0000 C   0  0  0  0  0  0  0  0  0  0  0  0
    9.5855   -2.4948    0.0000 C   0  0  0  0  0  0  0  0  0  0  0  0
    6.0445    3.3499    0.0000 C   0  0  0  0  0  0  0  0  0  0  0  0
    7.7766    3.3499    0.0000 C   0  0  0  0  0  0  0  0  0  0  0  0
    6.9106    3.8499    0.0000 C   0  0  0  0  0  0  0  0  0  0  0  0
   10.0581   -4.2318    0.0000 C   0  0  0  0  0  0  0  0  0  0  0  0
    5.1506    1.8153    0.0000 C   0  0  0  0  0  0  0  0  0  0  0  0
   10.3277   -3.2257    0.0000 C   0  0  0  0  0  0  0  0  0  0  0  0
    5.1506    3.8846    0.0000 C   0  0  0  0  0  0  0  0  0  0  0  0
    4.2445    2.3291    0.0000 C   0  0  0  0  0  0  0  0  0  0  0  0
    6.8945    4.8914    0.0000 C   0  0  0  0  0  0  0  0  0  0  0  0
    8.6866    3.8568    0.0000 C   0  0  0  0  0  0  0  0  0  0  0  0
    4.2445    3.3707    0.0000 C   0  0  0  0  0  0  0  0  0  0  0  0
    7.7926    5.4192    0.0000 C   0  0  0  0  0  0  0  0  0  0  0  0
    8.6946    4.8984    0.0000 C   0  0  0  0  0  0  0  0  0  0  0  0
    5.8261   -1.0169    0.0000 H   0  0  0  0  0  0  0  0  0  0  0  0
    5.0937    0.1277    0.0000 H   0  0  0  0  0  0  0  0  0  0  0  0
    6.6312   -2.4950    0.0000 H   0  0  0  0  0  0  0  0  0  0  0  0
    6.7763   -0.8265    0.0000 H   0  0  0  0  0  0  0  0  0  0  0  0
    8.1861   -2.4446    0.0000 H   0  0  0  0  0  0  0  0  0  0  0  0
    8.3222   -0.2241    0.0000 H   0  0  0  0  0  0  0  0  0  0  0  0
    7.2880    0.6097    0.0000 H   0  0  0  0  0  0  0  0  0  0  0  0
    7.9060    0.1899    0.0000 H   0  0  0  0  0  0  0  0  0  0  0  0
    7.1161    0.2959    0.0000 H   0  0  0  0  0  0  0  0  0  0  0  0
    6.0151   -2.9645    0.0000 H   0  0  0  0  0  0  0  0  0  0  0  0
    8.4754   -0.3014    0.0000 H   0  0  0  0  0  0  0  0  0  0  0  0
    7.7722   -3.4969    0.0000 H   0  0  0  0  0  0  0  0  0  0  0  0
    9.4765   -1.4718    0.0000 H   0  0  0  0  0  0  0  0  0  0  0  0
    9.0220    0.1277    0.0000 H   0  0  0  0  0  0  0  0  0  0  0  0
    9.0220    1.0046    0.0000 H   0  0  0  0  0  0  0  0  0  0  0  0
    9.6555   -0.8369    0.0000 H   0  0  0  0  0  0  0  0  0  0  0  0
    3.0561   -0.9980    0.0000 H   0  0  0  0  0  0  0  0  0  0  0  0
    2.0000   -3.0394    0.0000 H   0  0  0  0  0  0  0  0  0  0  0  0
    2.6644   -4.4579    0.0000 H   0  0  0  0  0  0  0  0  0  0  0  0
    4.4616   -5.6160    0.0000 H   0  0  0  0  0  0  0  0  0  0  0  0
    9.7390   -1.8942    0.0000 H   0  0  0  0  0  0  0  0  0  0  0  0
    7.9165   -6.2297    0.0000 H   0  0  0  0  0  0  0  0  0  0  0  0
    6.5908   -6.7312    0.0000 H   0  0  0  0  0  0  0  0  0  0  0  0
    5.1578    1.1953    0.0000 H   0  0  0  0  0  0  0  0  0  0  0  0
    9.2132   -5.9000    0.0000 H   0  0  0  0  0  0  0  0  0  0  0  0
    9.2199    3.5406    0.0000 H   0  0  0  0  0  0  0  0  0  0  0  0
   11.3619   -4.7835    0.0000 H   0  0  0  0  0  0  0  0  0  0  0  0
   11.4507   -2.3636    0.0000 H   0  0  0  0  0  0  0  0  0  0  0  0
    4.6288    5.2007    0.0000 H   0  0  0  0  0  0  0  0  0  0  0  0
    2.8423    2.1337    0.0000 H   0  0  0  0  0  0  0  0  0  0  0  0
    6.0156    6.0013    0.0000 H   0  0  0  0  0  0  0  0  0  0  0  0
    2.8423    3.5661    0.0000 H   0  0  0  0  0  0  0  0  0  0  0  0
    8.3244    6.7312    0.0000 H   0  0  0  0  0  0  0  0  0  0  0  0
   10.0983    5.0830    0.0000 H   0  0  0  0  0  0  0  0  0  0  0  0
  1 32  1  0  0  0  0
  1 41  1  0  0  0  0
  2 33  1  0  0  0  0
  2 43  1  0  0  0  0
  3 32  1  0  0  0  0
  3 86  1  0  0  0  0
  4 35  1  0  0  0  0
  4 50  1  0  0  0  0
  5 34  1  0  0  0  0
  5 88  1  0  0  0  0
  6 37  1  0  0  0  0
  6 89  1  0  0  0  0
  7 39  1  0  0  0  0
  7 54  1  0  0  0  0
  8 38  1  0  0  0  0
  8 92  1  0  0  0  0
  9 44  1  0  0  0  0
  9 58  1  0  0  0  0
 10 42  1  0  0  0  0
 10 93  1  0  0  0  0
 11 43  2  0  0  0  0
 12 47  1  0  0  0  0
 12 94  1  0  0  0  0
 13 48  1  0  0  0  0
 13 95  1  0  0  0  0
 14 51  1  0  0  0  0
 14 62  1  0  0  0  0
 15 50  2  0  0  0  0
 16 53  1  0  0  0  0
 16 96  1  0  0  0  0
 17 56  1  0  0  0  0
 17 98  1  0  0  0  0
 18 57  1  0  0  0  0
 18 99  1  0  0  0  0
 19 54  2  0  0  0  0
 20 58  2  0  0  0  0
 21 61  1  0  0  0  0
 21101  1  0  0  0  0
 22 62  2  0  0  0  0
 23 67  1  0  0  0  0
 23103  1  0  0  0  0
 24 69  1  0  0  0  0
 24104  1  0  0  0  0
 25 70  1  0  0  0  0
 25105  1  0  0  0  0
 26 71  1  0  0  0  0
 26106  1  0  0  0  0
 27 72  1  0  0  0  0
 27107  1  0  0  0  0
 28 74  1  0  0  0  0
 28108  1  0  0  0  0
 29 75  1  0  0  0  0
 29109  1  0  0  0  0
 30 76  1  0  0  0  0
 30110  1  0  0  0  0
 31 32  1  0  0  0  0
 31 33  1  0  0  0  0
 31 36  1  0  0  0  0
 31 77  1  0  0  0  0
 32 34  1  0  0  0  0
 33 35  1  0  0  0  0
 33 78  1  0  0  0  0
 34 37  1  0  0  0  0
 34 79  1  0  0  0  0
 35 39  1  0  0  0  0
 35 80  1  0  0  0  0
 36 40  1  0  0  0  0
 36 42  2  0  0  0  0
 37 38  1  0  0  0  0
 37 81  1  0  0  0  0
 38 41  1  0  0  0  0
 38 82  1  0  0  0  0
 39 44  1  0  0  0  0
 39 83  1  0  0  0  0
 40 43  1  0  0  0  0
 40 45  2  0  0  0  0
 41 84  1  0  0  0  0
 41 85  1  0  0  0  0
 42 47  1  0  0  0  0
 44 51  1  0  0  0  0
 44 87  1  0  0  0  0
 45 46  1  0  0  0  0
 45 48  1  0  0  0  0
 46 49  1  0  0  0  0
 46 53  2  0  0  0  0
 47 48  2  0  0  0  0
 49 50  1  0  0  0  0
 49 52  2  0  0  0  0
 51 90  1  0  0  0  0
 51 91  1  0  0  0  0
 52 55  1  0  0  0  0
 52 56  1  0  0  0  0
 53 57  1  0  0  0  0
 54 60  1  0  0  0  0
 55 59  1  0  0  0  0
 55 61  2  0  0  0  0
 56 57  2  0  0  0  0
 58 59  1  0  0  0  0
 59 63  2  0  0  0  0
 60 64  1  0  0  0  0
 60 68  2  0  0  0  0
 61 67  1  0  0  0  0
 62 65  1  0  0  0  0
 63 69  1  0  0  0  0
 63 97  1  0  0  0  0
 64 66  1  0  0  0  0
 64 70  2  0  0  0  0
 65 66  1  0  0  0  0
 65 73  2  0  0  0  0
 66 72  2  0  0  0  0
 67 69  2  0  0  0  0
 68 71  1  0  0  0  0
 68100  1  0  0  0  0
 70 74  1  0  0  0  0
 71 74  2  0  0  0  0
 72 75  1  0  0  0  0
 73 76  1  0  0  0  0
 73102  1  0  0  0  0
 75 76  2  0  0  0  0
M  END
>  <PUBCHEM_COMPOUND_CID>
14428075

>  <PUBCHEM_COMPOUND_CANONICALIZED>
1

>  <PUBCHEM_CACTVS_COMPLEXITY>
2260

>  <PUBCHEM_CACTVS_HBOND_ACCEPTOR>
30

>  <PUBCHEM_CACTVS_HBOND_DONOR>
19

>  <PUBCHEM_CACTVS_ROTATABLE_BOND>
1

>  <PUBCHEM_CACTVS_SUBSKEYS>
AAADcfB8PgAAAAAAAAAAAAAAAAAAAAAAAAA0aMGDAAAAAACRVAAAGgAACAAADRSgmAIwDoAABgCIAiDSCAACAAAkIAAAiAEGiMgZNzKCNBqCcQElwBUPuYfK7PzOoAADCAAYQABAAAYQADCAAAAAAAAAAA==

>  <PUBCHEM_IUPAC_INCHI>
InChI=1S/C46H34O30/c47-9-1-6-14(28(55)24(9)51)15-7(2-10(48)25(52)29(15)56)43(67)74-37-13(5-71-41(6)65)73-42(66)8-3-11(49)26(53)30(57)16(8)17-20-18(32(59)35(62)31(17)58)19-21-22(34(61)36(63)33(19)60)23(38(75-45(21)69)39(37)76-44(20)68)46(70)40(64)27(54)12(50)4-72-46/h1-3,12-13,23,27,37-40,47-64,70H,4-5H2

>  <PUBCHEM_IUPAC_INCHIKEY>
ZVFDKYBWZMATCT-UHFFFAOYSA-N

>  <PUBCHEM_XLOGP3_AA>
-1.1

>  <PUBCHEM_EXACT_MASS>
1066.113

>  <PUBCHEM_MOLECULAR_FORMULA>
C46H34O30

>  <PUBCHEM_MOLECULAR_WEIGHT>
1066.748

>  <PUBCHEM_OPENEYE_CAN_SMILES>
C1C(C(C(C(O1)(C2C3C4C5C(COC(=O)C6=CC(=C(C(=C6C7=C(C(=C(C=C7C(=O)O5)O)O)O)O)O)O)OC(=O)C8=CC(=C(C(=C8C9=C(C(=C(C(=C9O)O)O)C1=C(C2=C(C(=C1O)O)O)C(=O)O3)C(=O)O4)O)O)O)O)O)O)O

>  <PUBCHEM_OPENEYE_ISO_SMILES>
C1C(C(C(C(O1)(C2C3C4C5C(COC(=O)C6=CC(=C(C(=C6C7=C(C(=C(C=C7C(=O)O5)O)O)O)O)O)O)OC(=O)C8=CC(=C(C(=C8C9=C(C(=C(C(=C9O)O)O)C1=C(C2=C(C(=C1O)O)O)C(=O)O3)C(=O)O4)O)O)O)O)O)O)O

>  <PUBCHEM_CACTVS_TPSA>
525

>  <PUBCHEM_MONOISOTOPIC_WEIGHT>
1066.113

>  <PUBCHEM_TOTAL_CHARGE>
0

>  <PUBCHEM_HEAVY_ATOM_COUNT>
76

>  <PUBCHEM_ATOM_DEF_STEREO_COUNT>
0

>  <PUBCHEM_ATOM_UDEF_STEREO_COUNT>
9

>  <PUBCHEM_BOND_DEF_STEREO_COUNT>
0

>  <PUBCHEM_BOND_UDEF_STEREO_COUNT>
0

>  <PUBCHEM_ISOTOPIC_ATOM_COUNT>
0

>  <PUBCHEM_COMPONENT_COUNT>
1

>  <PUBCHEM_CACTVS_TAUTO_COUNT>
970

>  <PUBCHEM_COORDINATE_TYPE>
1
5
255

>  <PUBCHEM_BONDANNOTATIONS>
33  2  3
32  3  3
31  36  3
36  40  8
36  42  8
35  4  3
40  45  8
42  47  8
44  51  3
45  48  8
46  49  8
46  53  8
47  48  8
49  52  8
34  5  3
52  56  8
53  57  8
55  59  8
55  61  8
56  57  8
59  63  8
37  6  3
60  64  8
60  68  8
61  67  8
63  69  8
64  70  8
65  66  8
65  73  8
66  72  8
67  69  8
68  71  8
39  7  3
70  74  8
71  74  8
72  75  8
73  76  8
75  76  8
38  8  3

$$$$
