14464350
 OpenBabel06101807152D

 84 88  0  0  1  0  0  0  0  0999 V2000
    8.5991   -0.5000    0.0000 O   0  0  0  0  0  0  0  0  0  0  0  0
    6.8671   -2.5000    0.0000 O   0  0  0  0  0  0  0  0  0  0  0  0
   10.3312   -2.5000    0.0000 O   0  0  0  0  0  0  0  0  0  0  0  0
    8.5991   -3.5000    0.0000 O   0  0  0  0  0  0  0  0  0  0  0  0
   10.3312   -0.5000    0.0000 O   0  0  0  0  0  0  0  0  0  0  0  0
    6.8671    0.5000    0.0000 O   0  0  0  0  0  0  0  0  0  0  0  0
    6.0010   -1.0000    0.0000 O   0  0  0  0  0  0  0  0  0  0  0  0
   11.1972   -1.0000    0.0000 O   0  0  0  0  0  0  0  0  0  0  0  0
    9.4651    1.0000    0.0000 O   0  0  0  0  0  0  0  0  0  0  0  0
    5.1350    0.5000    0.0000 O   0  0  0  0  0  0  0  0  0  0  0  0
    4.2690   -5.0000    0.0000 O   0  0  0  0  0  0  0  0  0  0  0  0
    2.5369   -2.0000    0.0000 O   0  0  0  0  0  0  0  0  0  0  0  0
   14.6613   -2.0000    0.0000 O   0  0  0  0  0  0  0  0  0  0  0  0
   12.9292   -5.0000    0.0000 O   0  0  0  0  0  0  0  0  0  0  0  0
    2.5369   -4.0000    0.0000 O   0  0  0  0  0  0  0  0  0  0  0  0
   12.0632    3.5000    0.0000 O   0  0  0  0  0  0  0  0  0  0  0  0
   13.7953    0.5000    0.0000 O   0  0  0  0  0  0  0  0  0  0  0  0
   14.6613   -4.0000    0.0000 O   0  0  0  0  0  0  0  0  0  0  0  0
   13.7953    2.5000    0.0000 O   0  0  0  0  0  0  0  0  0  0  0  0
    4.2690    4.0000    0.0000 O   0  0  0  0  0  0  0  0  0  0  0  0
    7.7331    4.0000    0.0000 O   0  0  0  0  0  0  0  0  0  0  0  0
    6.0010    5.0000    0.0000 O   0  0  0  0  0  0  0  0  0  0  0  0
    7.7331   -2.0000    0.0000 C   0  0  3  0  0  0  0  0  0  0  0  0
    8.5991   -2.5000    0.0000 C   0  0  3  0  0  0  0  0  0  0  0  0
    7.7331   -1.0000    0.0000 C   0  0  3  0  0  0  0  0  0  0  0  0
    9.4651   -2.0000    0.0000 C   0  0  3  0  0  0  0  0  0  0  0  0
    9.4651   -1.0000    0.0000 C   0  0  3  0  0  0  0  0  0  0  0  0
    6.8671   -0.5000    0.0000 C   0  0  0  0  0  0  0  0  0  0  0  0
    6.0010   -2.0000    0.0000 C   0  0  0  0  0  0  0  0  0  0  0  0
   11.1972   -2.0000    0.0000 C   0  0  0  0  0  0  0  0  0  0  0  0
   10.3312    0.5000    0.0000 C   0  0  0  0  0  0  0  0  0  0  0  0
    5.1350   -2.5000    0.0000 C   0  0  0  0  0  0  0  0  0  0  0  0
    6.0010    1.0000    0.0000 C   0  0  0  0  0  0  0  0  0  0  0  0
   12.0632   -2.5000    0.0000 C   0  0  0  0  0  0  0  0  0  0  0  0
   11.1972    1.0000    0.0000 C   0  0  0  0  0  0  0  0  0  0  0  0
    6.0010    2.0000    0.0000 C   0  0  0  0  0  0  0  0  0  0  0  0
    4.2690   -2.0000    0.0000 C   0  0  0  0  0  0  0  0  0  0  0  0
    5.1350   -3.5000    0.0000 C   0  0  0  0  0  0  0  0  0  0  0  0
   12.0632   -3.5000    0.0000 C   0  0  0  0  0  0  0  0  0  0  0  0
   12.9292   -2.0000    0.0000 C   0  0  0  0  0  0  0  0  0  0  0  0
   12.0632    0.5000    0.0000 C   0  0  0  0  0  0  0  0  0  0  0  0
   11.1972    2.0000    0.0000 C   0  0  0  0  0  0  0  0  0  0  0  0
    4.2690   -4.0000    0.0000 C   0  0  0  0  0  0  0  0  0  0  0  0
    3.4030   -2.5000    0.0000 C   0  0  0  0  0  0  0  0  0  0  0  0
   13.7953   -2.5000    0.0000 C   0  0  0  0  0  0  0  0  0  0  0  0
   12.9292   -4.0000    0.0000 C   0  0  0  0  0  0  0  0  0  0  0  0
    6.8671    2.5000    0.0000 C   0  0  0  0  0  0  0  0  0  0  0  0
    5.1350    2.5000    0.0000 C   0  0  0  0  0  0  0  0  0  0  0  0
    3.4030   -3.5000    0.0000 C   0  0  0  0  0  0  0  0  0  0  0  0
   12.0632    2.5000    0.0000 C   0  0  0  0  0  0  0  0  0  0  0  0
   12.9292    1.0000    0.0000 C   0  0  0  0  0  0  0  0  0  0  0  0
   13.7953   -3.5000    0.0000 C   0  0  0  0  0  0  0  0  0  0  0  0
   12.9292    2.0000    0.0000 C   0  0  0  0  0  0  0  0  0  0  0  0
    5.1350    3.5000    0.0000 C   0  0  0  0  0  0  0  0  0  0  0  0
    6.8671    3.5000    0.0000 C   0  0  0  0  0  0  0  0  0  0  0  0
    6.0010    4.0000    0.0000 C   0  0  0  0  0  0  0  0  0  0  0  0
    7.7331   -2.6200    0.0000 H   0  0  0  0  0  0  0  0  0  0  0  0
    9.1360   -2.8100    0.0000 H   0  0  0  0  0  0  0  0  0  0  0  0
    7.7331   -0.3800    0.0000 H   0  0  0  0  0  0  0  0  0  0  0  0
   10.0021   -1.6900    0.0000 H   0  0  0  0  0  0  0  0  0  0  0  0
    9.4651   -0.3800    0.0000 H   0  0  0  0  0  0  0  0  0  0  0  0
    6.2565   -0.3923    0.0000 H   0  0  0  0  0  0  0  0  0  0  0  0
    6.6550   -1.0826    0.0000 H   0  0  0  0  0  0  0  0  0  0  0  0
    8.0622   -3.8100    0.0000 H   0  0  0  0  0  0  0  0  0  0  0  0
    4.2690   -1.3800    0.0000 H   0  0  0  0  0  0  0  0  0  0  0  0
    5.6720   -3.8100    0.0000 H   0  0  0  0  0  0  0  0  0  0  0  0
   11.5263   -3.8100    0.0000 H   0  0  0  0  0  0  0  0  0  0  0  0
   12.9292   -1.3800    0.0000 H   0  0  0  0  0  0  0  0  0  0  0  0
   12.0632   -0.1200    0.0000 H   0  0  0  0  0  0  0  0  0  0  0  0
   10.6603    2.3100    0.0000 H   0  0  0  0  0  0  0  0  0  0  0  0
    7.4040    2.1900    0.0000 H   0  0  0  0  0  0  0  0  0  0  0  0
    4.5981    2.1900    0.0000 H   0  0  0  0  0  0  0  0  0  0  0  0
    4.8059   -5.3100    0.0000 H   0  0  0  0  0  0  0  0  0  0  0  0
    2.0000   -2.3100    0.0000 H   0  0  0  0  0  0  0  0  0  0  0  0
   15.1982   -2.3100    0.0000 H   0  0  0  0  0  0  0  0  0  0  0  0
   12.3923   -5.3100    0.0000 H   0  0  0  0  0  0  0  0  0  0  0  0
    2.5369   -4.6200    0.0000 H   0  0  0  0  0  0  0  0  0  0  0  0
   11.5263    3.8100    0.0000 H   0  0  0  0  0  0  0  0  0  0  0  0
   14.3322    0.8100    0.0000 H   0  0  0  0  0  0  0  0  0  0  0  0
   14.6613   -4.6200    0.0000 H   0  0  0  0  0  0  0  0  0  0  0  0
   13.7953    3.1200    0.0000 H   0  0  0  0  0  0  0  0  0  0  0  0
    3.7320    3.6900    0.0000 H   0  0  0  0  0  0  0  0  0  0  0  0
    7.7331    4.6200    0.0000 H   0  0  0  0  0  0  0  0  0  0  0  0
    5.4641    5.3100    0.0000 H   0  0  0  0  0  0  0  0  0  0  0  0
  1 25  1  0  0  0  0
  1 27  1  0  0  0  0
  2 23  1  0  0  0  0
  2 29  1  0  0  0  0
  3 26  1  0  0  0  0
  3 30  1  0  0  0  0
  4 24  1  0  0  0  0
  4 64  1  0  0  0  0
  5 27  1  0  0  0  0
  5 31  1  0  0  0  0
  6 28  1  0  0  0  0
  6 33  1  0  0  0  0
  7 29  2  0  0  0  0
  8 30  2  0  0  0  0
  9 31  2  0  0  0  0
 10 33  2  0  0  0  0
 11 43  1  0  0  0  0
 11 73  1  0  0  0  0
 12 44  1  0  0  0  0
 12 74  1  0  0  0  0
 13 45  1  0  0  0  0
 13 75  1  0  0  0  0
 14 46  1  0  0  0  0
 14 76  1  0  0  0  0
 15 49  1  0  0  0  0
 15 77  1  0  0  0  0
 16 50  1  0  0  0  0
 16 78  1  0  0  0  0
 17 51  1  0  0  0  0
 17 79  1  0  0  0  0
 18 52  1  0  0  0  0
 18 80  1  0  0  0  0
 19 53  1  0  0  0  0
 19 81  1  0  0  0  0
 20 54  1  0  0  0  0
 20 82  1  0  0  0  0
 21 55  1  0  0  0  0
 21 83  1  0  0  0  0
 22 56  1  0  0  0  0
 22 84  1  0  0  0  0
 23 24  1  0  0  0  0
 23 25  1  0  0  0  0
 23 57  1  0  0  0  0
 24 26  1  0  0  0  0
 24 58  1  0  0  0  0
 25 28  1  0  0  0  0
 25 59  1  0  0  0  0
 26 27  1  0  0  0  0
 26 60  1  0  0  0  0
 27 61  1  0  0  0  0
 28 62  1  0  0  0  0
 28 63  1  0  0  0  0
 29 32  1  0  0  0  0
 30 34  1  0  0  0  0
 31 35  1  0  0  0  0
 32 37  2  0  0  0  0
 32 38  1  0  0  0  0
 33 36  1  0  0  0  0
 34 39  2  0  0  0  0
 34 40  1  0  0  0  0
 35 41  2  0  0  0  0
 35 42  1  0  0  0  0
 36 47  2  0  0  0  0
 36 48  1  0  0  0  0
 37 44  1  0  0  0  0
 37 65  1  0  0  0  0
 38 43  2  0  0  0  0
 38 66  1  0  0  0  0
 39 46  1  0  0  0  0
 39 67  1  0  0  0  0
 40 45  2  0  0  0  0
 40 68  1  0  0  0  0
 41 51  1  0  0  0  0
 41 69  1  0  0  0  0
 42 50  2  0  0  0  0
 42 70  1  0  0  0  0
 43 49  1  0  0  0  0
 44 49  2  0  0  0  0
 45 52  1  0  0  0  0
 46 52  2  0  0  0  0
 47 55  1  0  0  0  0
 47 71  1  0  0  0  0
 48 54  2  0  0  0  0
 48 72  1  0  0  0  0
 50 53  1  0  0  0  0
 51 53  2  0  0  0  0
 54 56  1  0  0  0  0
 55 56  2  0  0  0  0
M  END
>  <PUBCHEM_COMPOUND_CID>
14464350

>  <PUBCHEM_COMPOUND_CANONICALIZED>
1

>  <PUBCHEM_CACTVS_COMPLEXITY>
1340

>  <PUBCHEM_CACTVS_HBOND_ACCEPTOR>
22

>  <PUBCHEM_CACTVS_HBOND_DONOR>
13

>  <PUBCHEM_CACTVS_ROTATABLE_BOND>
13

>  <PUBCHEM_CACTVS_SUBSKEYS>
AAADceB8PgAAAAAAAAAAAAAAAAAAAAAAAAA0YMGCAAAAAAABVAAAGgAACAAADBSwmAMwDoAABgCIAiDSCAACAAAkIAAAiAEGiMgZNzKCNRqicQElwBUPuYfK7DzOIAABCAAAQABAAAIQAACAAAAAAAAAAA==

>  <PUBCHEM_IUPAC_OPENEYE_NAME>
[4-hydroxy-3,5,6-tris[(3,4,5-trihydroxybenzoyl)oxy]tetrahydropyran-2-yl]methyl 3,4,5-trihydroxybenzoate

>  <PUBCHEM_IUPAC_CAS_NAME>
3,4,5-trihydroxybenzoic acid [4-hydroxy-3,5,6-tris[oxo-(3,4,5-trihydroxyphenyl)methoxy]-2-oxanyl]methyl ester

>  <PUBCHEM_IUPAC_NAME>
[4-hydroxy-3,5,6-tris[(3,4,5-trihydroxybenzoyl)oxy]oxan-2-yl]methyl 3,4,5-trihydroxybenzoate

>  <PUBCHEM_IUPAC_SYSTEMATIC_NAME>
[4-oxidanyl-3,5,6-tris[[3,4,5-tris(oxidanyl)phenyl]carbonyloxy]oxan-2-yl]methyl 3,4,5-tris(oxidanyl)benzoate

>  <PUBCHEM_IUPAC_TRADITIONAL_NAME>
3,4,5-trihydroxybenzoic acid (3,5,6-trigalloyloxy-4-hydroxy-tetrahydropyran-2-yl)methyl ester

>  <PUBCHEM_IUPAC_INCHI>
InChI=1S/C34H28O22/c35-14-1-10(2-15(36)23(14)43)30(48)52-9-22-28(54-31(49)11-3-16(37)24(44)17(38)4-11)27(47)29(55-32(50)12-5-18(39)25(45)19(40)6-12)34(53-22)56-33(51)13-7-20(41)26(46)21(42)8-13/h1-8,22,27-29,34-47H,9H2

>  <PUBCHEM_IUPAC_INCHIKEY>
YXZYFHXWEOAXLF-UHFFFAOYSA-N

>  <PUBCHEM_XLOGP3_AA>
1.5

>  <PUBCHEM_EXACT_MASS>
788.107

>  <PUBCHEM_MOLECULAR_FORMULA>
C34H28O22

>  <PUBCHEM_MOLECULAR_WEIGHT>
788.576

>  <PUBCHEM_OPENEYE_CAN_SMILES>
C1=C(C=C(C(=C1O)O)O)C(=O)OCC2C(C(C(C(O2)OC(=O)C3=CC(=C(C(=C3)O)O)O)OC(=O)C4=CC(=C(C(=C4)O)O)O)O)OC(=O)C5=CC(=C(C(=C5)O)O)O

>  <PUBCHEM_OPENEYE_ISO_SMILES>
C1=C(C=C(C(=C1O)O)O)C(=O)OCC2C(C(C(C(O2)OC(=O)C3=CC(=C(C(=C3)O)O)O)OC(=O)C4=CC(=C(C(=C4)O)O)O)O)OC(=O)C5=CC(=C(C(=C5)O)O)O

>  <PUBCHEM_CACTVS_TPSA>
377

>  <PUBCHEM_MONOISOTOPIC_WEIGHT>
788.107

>  <PUBCHEM_TOTAL_CHARGE>
0

>  <PUBCHEM_HEAVY_ATOM_COUNT>
56

>  <PUBCHEM_ATOM_DEF_STEREO_COUNT>
0

>  <PUBCHEM_ATOM_UDEF_STEREO_COUNT>
5

>  <PUBCHEM_BOND_DEF_STEREO_COUNT>
0

>  <PUBCHEM_BOND_UDEF_STEREO_COUNT>
0

>  <PUBCHEM_ISOTOPIC_ATOM_COUNT>
0

>  <PUBCHEM_COMPONENT_COUNT>
1

>  <PUBCHEM_CACTVS_TAUTO_COUNT>
1001

>  <PUBCHEM_COORDINATE_TYPE>
1
5
255

>  <PUBCHEM_BONDANNOTATIONS>
23  2  3
25  28  3
26  3  3
32  37  8
32  38  8
34  39  8
34  40  8
35  41  8
35  42  8
36  47  8
36  48  8
37  44  8
38  43  8
39  46  8
24  4  3
40  45  8
41  51  8
42  50  8
43  49  8
44  49  8
45  52  8
46  52  8
47  55  8
48  54  8
27  5  3
50  53  8
51  53  8
54  56  8
55  56  8

$$$$
