14464355
 OpenBabel06101807152D

 52 55  0  0  1  0  0  0  0  0999 V2000
    2.2943    1.6053    0.0000 O   0  0  0  0  0  0  0  0  0  0  0  0
    6.9005   -0.4158    0.0000 O   0  0  0  0  0  0  0  0  0  0  0  0
    3.3229    2.5758    0.0000 O   0  0  0  0  0  0  0  0  0  0  0  0
    5.7014   -1.6657    0.0000 O   0  0  0  0  0  0  0  0  0  0  0  0
    2.8183   -2.5532    0.0000 O   0  0  0  0  0  0  0  0  0  0  0  0
    4.5500   -2.5835    0.0000 O   0  0  0  0  0  0  0  0  0  0  0  0
    5.3546    0.9824    0.0000 C   0  0  3  0  0  0  0  0  0  0  0  0
    4.4536    1.4163    0.0000 C   0  0  3  0  0  0  0  0  0  0  0  0
    3.7685    0.6960    0.0000 C   0  0  3  0  0  0  0  0  0  0  0  0
    4.2403   -0.1790    0.0000 C   0  0  3  0  0  0  0  0  0  0  0  0
    5.2186   -0.0023    0.0000 C   0  0  3  0  0  0  0  0  0  0  0  0
    5.2477    2.1592    0.0000 C   0  0  0  0  0  0  0  0  0  0  0  0
    6.2555    1.4163    0.0000 C   0  0  0  0  0  0  0  0  0  0  0  0
    5.8546    3.1731    0.0000 C   0  0  3  0  0  0  0  0  0  0  0  0
    3.7104   -1.0686    0.0000 C   0  0  3  0  0  0  0  0  0  0  0  0
    4.2311    2.3912    0.0000 C   0  0  0  0  0  0  0  0  0  0  0  0
    2.7340    0.7421    0.0000 C   0  0  0  0  0  0  0  0  0  0  0  0
    4.8546    3.1731    0.0000 C   0  0  0  0  0  0  0  0  0  0  0  0
    6.4780    2.3912    0.0000 C   0  0  0  0  0  0  0  0  0  0  0  0
    2.6752   -1.0465    0.0000 C   0  0  0  0  0  0  0  0  0  0  0  0
    2.1837   -0.1350    0.0000 C   0  0  0  0  0  0  0  0  0  0  0  0
    3.2938    1.5762    0.0000 C   0  0  0  0  0  0  0  0  0  0  0  0
    5.9402   -0.6946    0.0000 C   0  0  0  0  0  0  0  0  0  0  0  0
    4.5675   -1.5836    0.0000 C   0  0  0  0  0  0  0  0  0  0  0  0
    3.6929   -2.0684    0.0000 C   0  0  0  0  0  0  0  0  0  0  0  0
    7.4530    2.6138    0.0000 C   0  0  0  0  0  0  0  0  0  0  0  0
    3.8557    1.5805    0.0000 H   0  0  0  0  0  0  0  0  0  0  0  0
    4.5935   -0.6885    0.0000 H   0  0  0  0  0  0  0  0  0  0  0  0
    5.8042    0.2012    0.0000 H   0  0  0  0  0  0  0  0  0  0  0  0
    4.8399    2.6262    0.0000 H   0  0  0  0  0  0  0  0  0  0  0  0
    4.6777    1.9154    0.0000 H   0  0  0  0  0  0  0  0  0  0  0  0
    6.3935    0.8119    0.0000 H   0  0  0  0  0  0  0  0  0  0  0  0
    6.8755    1.4163    0.0000 H   0  0  0  0  0  0  0  0  0  0  0  0
    6.1236    3.7317    0.0000 H   0  0  0  0  0  0  0  0  0  0  0  0
    3.8445    2.8760    0.0000 H   0  0  0  0  0  0  0  0  0  0  0  0
    3.6725    2.1222    0.0000 H   0  0  0  0  0  0  0  0  0  0  0  0
    2.8672    1.3476    0.0000 H   0  0  0  0  0  0  0  0  0  0  0  0
    2.1602    0.9769    0.0000 H   0  0  0  0  0  0  0  0  0  0  0  0
    4.9925    3.7775    0.0000 H   0  0  0  0  0  0  0  0  0  0  0  0
    4.2960    3.4421    0.0000 H   0  0  0  0  0  0  0  0  0  0  0  0
    2.0871   -1.2430    0.0000 H   0  0  0  0  0  0  0  0  0  0  0  0
    2.7682   -1.6594    0.0000 H   0  0  0  0  0  0  0  0  0  0  0  0
    1.7226    0.2795    0.0000 H   0  0  0  0  0  0  0  0  0  0  0  0
    1.6964   -0.5184    0.0000 H   0  0  0  0  0  0  0  0  0  0  0  0
    4.2482   -2.1150    0.0000 H   0  0  0  0  0  0  0  0  0  0  0  0
    5.0990   -1.9030    0.0000 H   0  0  0  0  0  0  0  0  0  0  0  0
    4.8869   -1.0522    0.0000 H   0  0  0  0  0  0  0  0  0  0  0  0
    7.8747    2.1593    0.0000 H   0  0  0  0  0  0  0  0  0  0  0  0
    7.6357    3.2062    0.0000 H   0  0  0  0  0  0  0  0  0  0  0  0
    2.0000    2.1510    0.0000 H   0  0  0  0  0  0  0  0  0  0  0  0
    7.3479   -0.8451    0.0000 H   0  0  0  0  0  0  0  0  0  0  0  0
    2.8074   -3.1731    0.0000 H   0  0  0  0  0  0  0  0  0  0  0  0
  1 22  1  0  0  0  0
  1 50  1  0  0  0  0
  2 23  1  0  0  0  0
  2 51  1  0  0  0  0
  3 22  2  0  0  0  0
  4 23  2  0  0  0  0
  5 25  1  0  0  0  0
  5 52  1  0  0  0  0
  6 25  2  0  0  0  0
  7  8  1  0  0  0  0
  7 11  1  0  0  0  0
  7 12  1  0  0  0  0
  7 13  1  0  0  0  0
  8  9  1  0  0  0  0
  8 16  1  0  0  0  0
  8 27  1  0  0  0  0
  9 10  1  0  0  0  0
  9 17  1  0  0  0  0
  9 22  1  0  0  0  0
 10 11  1  0  0  0  0
 10 15  1  0  0  0  0
 10 28  1  0  0  0  0
 11 23  1  0  0  0  0
 11 29  1  0  0  0  0
 12 14  1  0  0  0  0
 12 30  1  0  0  0  0
 12 31  1  0  0  0  0
 13 19  1  0  0  0  0
 13 32  1  0  0  0  0
 13 33  1  0  0  0  0
 14 18  1  0  0  0  0
 14 19  1  0  0  0  0
 14 34  1  0  0  0  0
 15 20  1  0  0  0  0
 15 24  1  0  0  0  0
 15 25  1  0  0  0  0
 16 18  1  0  0  0  0
 16 35  1  0  0  0  0
 16 36  1  0  0  0  0
 17 21  1  0  0  0  0
 17 37  1  0  0  0  0
 17 38  1  0  0  0  0
 18 39  1  0  0  0  0
 18 40  1  0  0  0  0
 19 26  2  0  0  0  0
 20 21  1  0  0  0  0
 20 41  1  0  0  0  0
 20 42  1  0  0  0  0
 21 43  1  0  0  0  0
 21 44  1  0  0  0  0
 24 45  1  0  0  0  0
 24 46  1  0  0  0  0
 24 47  1  0  0  0  0
 26 48  1  0  0  0  0
 26 49  1  0  0  0  0
M  END
>  <PUBCHEM_COMPOUND_CID>
14464355

>  <PUBCHEM_COMPOUND_CANONICALIZED>
1

>  <PUBCHEM_CACTVS_COMPLEXITY>
728

>  <PUBCHEM_CACTVS_HBOND_ACCEPTOR>
6

>  <PUBCHEM_CACTVS_HBOND_DONOR>
3

>  <PUBCHEM_CACTVS_ROTATABLE_BOND>
3

>  <PUBCHEM_CACTVS_SUBSKEYS>
AAADceB4OAAAAAAAAAAAAAAAAAAAAYMAAAAwYAAABgAAAGDAAAAAGgAACAAADwCAgAACCAAAAgCIAgDSCAAAAAAgAAAAAAEAAAgAABIAAQAAQAAEgAAAAAGI7vCPgAAAAAAAAACAAAQAACAAAQAACAAAAA==

>  <PUBCHEM_IUPAC_INCHI>
InChI=1S/C20H26O6/c1-10-8-19-9-11(10)4-5-12(19)20(17(25)26)7-3-6-18(2,16(23)24)14(20)13(19)15(21)22/h11-14H,1,3-9H2,2H3,(H,21,22)(H,23,24)(H,25,26)

>  <PUBCHEM_IUPAC_INCHIKEY>
XOUJCIPAKFLTCI-UHFFFAOYSA-N

>  <PUBCHEM_XLOGP3_AA>
2.4

>  <PUBCHEM_EXACT_MASS>
362.173

>  <PUBCHEM_MOLECULAR_FORMULA>
C20H26O6

>  <PUBCHEM_MOLECULAR_WEIGHT>
362.422

>  <PUBCHEM_OPENEYE_CAN_SMILES>
CC1(CCCC2(C1C(C34C2CCC(C3)C(=C)C4)C(=O)O)C(=O)O)C(=O)O

>  <PUBCHEM_OPENEYE_ISO_SMILES>
CC1(CCCC2(C1C(C34C2CCC(C3)C(=C)C4)C(=O)O)C(=O)O)C(=O)O

>  <PUBCHEM_CACTVS_TPSA>
112

>  <PUBCHEM_MONOISOTOPIC_WEIGHT>
362.173

>  <PUBCHEM_TOTAL_CHARGE>
0

>  <PUBCHEM_HEAVY_ATOM_COUNT>
26

>  <PUBCHEM_ATOM_DEF_STEREO_COUNT>
0

>  <PUBCHEM_ATOM_UDEF_STEREO_COUNT>
7

>  <PUBCHEM_BOND_DEF_STEREO_COUNT>
0

>  <PUBCHEM_BOND_UDEF_STEREO_COUNT>
0

>  <PUBCHEM_ISOTOPIC_ATOM_COUNT>
0

>  <PUBCHEM_COMPONENT_COUNT>
1

>  <PUBCHEM_CACTVS_TAUTO_COUNT>
1

>  <PUBCHEM_COORDINATE_TYPE>
1
5
255

>  <PUBCHEM_BONDANNOTATIONS>
10  15  3
11  23  3
14  12  3
15  24  3
7  12  3
8  16  3
9  22  3

$$$$
