14484691
 OpenBabel06101807152D

 36 38  0  0  0  0  0  0  0  0999 V2000
    6.3981   -0.4254    0.0000 O   0  0  0  0  0  0  0  0  0  0  0  0
    2.8680    1.5988    0.0000 O   0  0  0  0  0  0  0  0  0  0  0  0
    4.6497    2.6092    0.0000 O   0  0  0  0  0  0  0  0  0  0  0  0
    7.2641   -1.9254    0.0000 O   0  0  0  0  0  0  0  0  0  0  0  0
    6.3981    2.5746    0.0000 O   0  0  0  0  0  0  0  0  0  0  0  0
    5.5320    1.0746    0.0000 C   0  0  0  0  0  0  0  0  0  0  0  0
    5.5320    0.0746    0.0000 C   0  0  0  0  0  0  0  0  0  0  0  0
    7.2641    0.0746    0.0000 C   0  0  0  0  0  0  0  0  0  0  0  0
    8.1301   -0.4254    0.0000 C   0  0  0  0  0  0  0  0  0  0  0  0
    6.3981    1.5746    0.0000 C   0  0  0  0  0  0  0  0  0  0  0  0
    4.6381    1.6093    0.0000 C   0  0  0  0  0  0  0  0  0  0  0  0
    7.2641    1.0746    0.0000 C   0  0  0  0  0  0  0  0  0  0  0  0
    4.6381   -0.4601    0.0000 C   0  0  0  0  0  0  0  0  0  0  0  0
    3.7320    1.0954    0.0000 C   0  0  0  0  0  0  0  0  0  0  0  0
    8.1301   -1.4254    0.0000 C   0  0  0  0  0  0  0  0  0  0  0  0
    3.7320    0.0538    0.0000 C   0  0  0  0  0  0  0  0  0  0  0  0
    8.9962    0.0746    0.0000 C   0  0  0  0  0  0  0  0  0  0  0  0
    8.9962   -1.9254    0.0000 C   0  0  0  0  0  0  0  0  0  0  0  0
    9.8622   -0.4254    0.0000 C   0  0  0  0  0  0  0  0  0  0  0  0
    9.8622   -1.4254    0.0000 C   0  0  0  0  0  0  0  0  0  0  0  0
    2.0000    1.1021    0.0000 C   0  0  0  0  0  0  0  0  0  0  0  0
    7.2641   -2.9254    0.0000 C   0  0  0  0  0  0  0  0  0  0  0  0
    7.8010    1.3846    0.0000 H   0  0  0  0  0  0  0  0  0  0  0  0
    4.6453   -1.0800    0.0000 H   0  0  0  0  0  0  0  0  0  0  0  0
    3.1963   -0.2583    0.0000 H   0  0  0  0  0  0  0  0  0  0  0  0
    8.9962    0.6946    0.0000 H   0  0  0  0  0  0  0  0  0  0  0  0
    8.9962   -2.5454    0.0000 H   0  0  0  0  0  0  0  0  0  0  0  0
   10.3991   -0.1154    0.0000 H   0  0  0  0  0  0  0  0  0  0  0  0
   10.3991   -1.7354    0.0000 H   0  0  0  0  0  0  0  0  0  0  0  0
    4.1164    2.9254    0.0000 H   0  0  0  0  0  0  0  0  0  0  0  0
    1.6921    1.6402    0.0000 H   0  0  0  0  0  0  0  0  0  0  0  0
    1.4619    0.7942    0.0000 H   0  0  0  0  0  0  0  0  0  0  0  0
    2.3079    0.5640    0.0000 H   0  0  0  0  0  0  0  0  0  0  0  0
    6.6441   -2.9254    0.0000 H   0  0  0  0  0  0  0  0  0  0  0  0
    7.2641   -3.5454    0.0000 H   0  0  0  0  0  0  0  0  0  0  0  0
    7.8841   -2.9254    0.0000 H   0  0  0  0  0  0  0  0  0  0  0  0
  1  7  1  0  0  0  0
  1  8  1  0  0  0  0
  2 14  1  0  0  0  0
  2 21  1  0  0  0  0
  3 11  1  0  0  0  0
  3 30  1  0  0  0  0
  4 15  1  0  0  0  0
  4 22  1  0  0  0  0
  5 10  2  0  0  0  0
  6  7  2  0  0  0  0
  6 10  1  0  0  0  0
  6 11  1  0  0  0  0
  7 13  1  0  0  0  0
  8  9  1  0  0  0  0
  8 12  2  0  0  0  0
  9 15  1  0  0  0  0
  9 17  2  0  0  0  0
 10 12  1  0  0  0  0
 11 14  2  0  0  0  0
 12 23  1  0  0  0  0
 13 16  2  0  0  0  0
 13 24  1  0  0  0  0
 14 16  1  0  0  0  0
 15 18  2  0  0  0  0
 16 25  1  0  0  0  0
 17 19  1  0  0  0  0
 17 26  1  0  0  0  0
 18 20  1  0  0  0  0
 18 27  1  0  0  0  0
 19 20  2  0  0  0  0
 19 28  1  0  0  0  0
 20 29  1  0  0  0  0
 21 31  1  0  0  0  0
 21 32  1  0  0  0  0
 21 33  1  0  0  0  0
 22 34  1  0  0  0  0
 22 35  1  0  0  0  0
 22 36  1  0  0  0  0
M  END
>  <PUBCHEM_COMPOUND_CID>
14484691

>  <PUBCHEM_COMPOUND_CANONICALIZED>
1

>  <PUBCHEM_CACTVS_COMPLEXITY>
446

>  <PUBCHEM_CACTVS_HBOND_ACCEPTOR>
5

>  <PUBCHEM_CACTVS_HBOND_DONOR>
1

>  <PUBCHEM_CACTVS_ROTATABLE_BOND>
3

>  <PUBCHEM_CACTVS_SUBSKEYS>
AAADccB4OAAAAAAAAAAAAAAAAAAAAAAAAAAwYIAAAAAAAACBQAAAGgAACAAADASAmAIyBoAABgCIAqBSAAACCAAkIAAIiAEGiMgNJzaGNRqCeWOl4BULuQfK6LyOAQABCAAIQAACAAIQABCAAAAAAAAAAA==

>  <PUBCHEM_IUPAC_OPENEYE_NAME>
5-hydroxy-6-methoxy-2-(2-methoxyphenyl)chromen-4-one

>  <PUBCHEM_IUPAC_CAS_NAME>
5-hydroxy-6-methoxy-2-(2-methoxyphenyl)-1-benzopyran-4-one

>  <PUBCHEM_IUPAC_NAME>
5-hydroxy-6-methoxy-2-(2-methoxyphenyl)chromen-4-one

>  <PUBCHEM_IUPAC_SYSTEMATIC_NAME>
6-methoxy-2-(2-methoxyphenyl)-5-oxidanyl-chromen-4-one

>  <PUBCHEM_IUPAC_TRADITIONAL_NAME>
5-hydroxy-6-methoxy-2-(2-methoxyphenyl)chromone

>  <PUBCHEM_IUPAC_INCHI>
InChI=1S/C17H14O5/c1-20-12-6-4-3-5-10(12)15-9-11(18)16-13(22-15)7-8-14(21-2)17(16)19/h3-9,19H,1-2H3

>  <PUBCHEM_IUPAC_INCHIKEY>
KTMCMVHTHBYQQS-UHFFFAOYSA-N

>  <PUBCHEM_XLOGP3_AA>
3.3

>  <PUBCHEM_EXACT_MASS>
298.084

>  <PUBCHEM_MOLECULAR_FORMULA>
C17H14O5

>  <PUBCHEM_MOLECULAR_WEIGHT>
298.294

>  <PUBCHEM_OPENEYE_CAN_SMILES>
COC1=C(C2=C(C=C1)OC(=CC2=O)C3=CC=CC=C3OC)O

>  <PUBCHEM_OPENEYE_ISO_SMILES>
COC1=C(C2=C(C=C1)OC(=CC2=O)C3=CC=CC=C3OC)O

>  <PUBCHEM_CACTVS_TPSA>
65

>  <PUBCHEM_MONOISOTOPIC_WEIGHT>
298.084

>  <PUBCHEM_TOTAL_CHARGE>
0

>  <PUBCHEM_HEAVY_ATOM_COUNT>
22

>  <PUBCHEM_ATOM_DEF_STEREO_COUNT>
0

>  <PUBCHEM_ATOM_UDEF_STEREO_COUNT>
0

>  <PUBCHEM_BOND_DEF_STEREO_COUNT>
0

>  <PUBCHEM_BOND_UDEF_STEREO_COUNT>
0

>  <PUBCHEM_ISOTOPIC_ATOM_COUNT>
0

>  <PUBCHEM_COMPONENT_COUNT>
1

>  <PUBCHEM_CACTVS_TAUTO_COUNT>
5

>  <PUBCHEM_COORDINATE_TYPE>
1
5
255

>  <PUBCHEM_BONDANNOTATIONS>
1  7  8
1  8  8
10  12  8
11  14  8
13  16  8
14  16  8
15  18  8
17  19  8
18  20  8
19  20  8
6  10  8
6  11  8
6  7  8
7  13  8
8  12  8
9  15  8
9  17  8

$$$$
