14528828
 OpenBabel06101807152D

 39 41  0  0  0  0  0  0  0  0999 V2000
    6.3981   -1.2602    0.0000 O   0  0  0  0  0  0  0  0  0  0  0  0
    8.1465    1.7744    0.0000 O   0  0  0  0  0  0  0  0  0  0  0  0
    9.9282    0.7639    0.0000 O   0  0  0  0  0  0  0  0  0  0  0  0
    9.9282   -1.2844    0.0000 O   0  0  0  0  0  0  0  0  0  0  0  0
    6.3981    1.7398    0.0000 O   0  0  0  0  0  0  0  0  0  0  0  0
    2.8680    0.7639    0.0000 O   0  0  0  0  0  0  0  0  0  0  0  0
    7.2641    0.2398    0.0000 C   0  0  0  0  0  0  0  0  0  0  0  0
    7.2641   -0.7602    0.0000 C   0  0  0  0  0  0  0  0  0  0  0  0
    5.5320    0.2398    0.0000 C   0  0  0  0  0  0  0  0  0  0  0  0
    6.3981    0.7398    0.0000 C   0  0  0  0  0  0  0  0  0  0  0  0
    8.1580    0.7744    0.0000 C   0  0  0  0  0  0  0  0  0  0  0  0
    5.5320   -0.7602    0.0000 C   0  0  0  0  0  0  0  0  0  0  0  0
    9.0641    0.2606    0.0000 C   0  0  0  0  0  0  0  0  0  0  0  0
    8.1580   -1.2949    0.0000 C   0  0  0  0  0  0  0  0  0  0  0  0
    9.0641   -0.7810    0.0000 C   0  0  0  0  0  0  0  0  0  0  0  0
    4.6381    0.7744    0.0000 C   0  0  0  0  0  0  0  0  0  0  0  0
    4.6381   -1.2949    0.0000 C   0  0  0  0  0  0  0  0  0  0  0  0
    3.7320    0.2606    0.0000 C   0  0  0  0  0  0  0  0  0  0  0  0
    3.7320   -0.7810    0.0000 C   0  0  0  0  0  0  0  0  0  0  0  0
    9.0067    2.2844    0.0000 C   0  0  0  0  0  0  0  0  0  0  0  0
   10.7961    0.2673    0.0000 C   0  0  0  0  0  0  0  0  0  0  0  0
    9.9243   -2.2844    0.0000 C   0  0  0  0  0  0  0  0  0  0  0  0
    2.0000    0.2673    0.0000 C   0  0  0  0  0  0  0  0  0  0  0  0
    8.1509   -1.9148    0.0000 H   0  0  0  0  0  0  0  0  0  0  0  0
    4.6453    1.3944    0.0000 H   0  0  0  0  0  0  0  0  0  0  0  0
    4.6453   -1.9148    0.0000 H   0  0  0  0  0  0  0  0  0  0  0  0
    3.1963   -1.0931    0.0000 H   0  0  0  0  0  0  0  0  0  0  0  0
    9.3229    1.7510    0.0000 H   0  0  0  0  0  0  0  0  0  0  0  0
    9.5400    2.6006    0.0000 H   0  0  0  0  0  0  0  0  0  0  0  0
    8.6905    2.8177    0.0000 H   0  0  0  0  0  0  0  0  0  0  0  0
   10.4882   -0.2709    0.0000 H   0  0  0  0  0  0  0  0  0  0  0  0
   11.3343   -0.0407    0.0000 H   0  0  0  0  0  0  0  0  0  0  0  0
   11.1041    0.8054    0.0000 H   0  0  0  0  0  0  0  0  0  0  0  0
    9.3044   -2.2820    0.0000 H   0  0  0  0  0  0  0  0  0  0  0  0
    9.9220   -2.9044    0.0000 H   0  0  0  0  0  0  0  0  0  0  0  0
   10.5443   -2.2868    0.0000 H   0  0  0  0  0  0  0  0  0  0  0  0
    1.6921    0.8054    0.0000 H   0  0  0  0  0  0  0  0  0  0  0  0
    1.4619   -0.0407    0.0000 H   0  0  0  0  0  0  0  0  0  0  0  0
    2.3079   -0.2709    0.0000 H   0  0  0  0  0  0  0  0  0  0  0  0
  1  8  1  0  0  0  0
  1 12  1  0  0  0  0
  2 11  1  0  0  0  0
  2 20  1  0  0  0  0
  3 13  1  0  0  0  0
  3 21  1  0  0  0  0
  4 15  1  0  0  0  0
  4 22  1  0  0  0  0
  5 10  2  0  0  0  0
  6 18  1  0  0  0  0
  6 23  1  0  0  0  0
  7  8  1  0  0  0  0
  7 10  1  0  0  0  0
  7 11  2  0  0  0  0
  8 14  2  0  0  0  0
  9 10  1  0  0  0  0
  9 12  2  0  0  0  0
  9 16  1  0  0  0  0
 11 13  1  0  0  0  0
 12 17  1  0  0  0  0
 13 15  2  0  0  0  0
 14 15  1  0  0  0  0
 14 24  1  0  0  0  0
 16 18  2  0  0  0  0
 16 25  1  0  0  0  0
 17 19  2  0  0  0  0
 17 26  1  0  0  0  0
 18 19  1  0  0  0  0
 19 27  1  0  0  0  0
 20 28  1  0  0  0  0
 20 29  1  0  0  0  0
 20 30  1  0  0  0  0
 21 31  1  0  0  0  0
 21 32  1  0  0  0  0
 21 33  1  0  0  0  0
 22 34  1  0  0  0  0
 22 35  1  0  0  0  0
 22 36  1  0  0  0  0
 23 37  1  0  0  0  0
 23 38  1  0  0  0  0
 23 39  1  0  0  0  0
M  END
>  <PUBCHEM_COMPOUND_CID>
14528828

>  <PUBCHEM_COMPOUND_CANONICALIZED>
1

>  <PUBCHEM_CACTVS_COMPLEXITY>
427

>  <PUBCHEM_CACTVS_HBOND_ACCEPTOR>
6

>  <PUBCHEM_CACTVS_HBOND_DONOR>
0

>  <PUBCHEM_CACTVS_ROTATABLE_BOND>
4

>  <PUBCHEM_CACTVS_SUBSKEYS>
AAADceB4OAAAAAAAAAAAAAAAAAAAAAAAAAA0YIAAAAAAAACRQAAAGgAAAAAADASAmAIyBoAABACIAqBSAAACCAAkIAAIiAEGiMgNJzaENRqCOWKl4BUKqYfK7PzOIQABCAAIQABCAAIQABCAAAAAAAAAAA==

>  <PUBCHEM_IUPAC_OPENEYE_NAME>
1,2,3,7-tetramethoxyxanthen-9-one

>  <PUBCHEM_IUPAC_CAS_NAME>
1,2,3,7-tetramethoxy-9-xanthenone

>  <PUBCHEM_IUPAC_NAME>
1,2,3,7-tetramethoxyxanthen-9-one

>  <PUBCHEM_IUPAC_SYSTEMATIC_NAME>
1,2,3,7-tetramethoxyxanthen-9-one

>  <PUBCHEM_IUPAC_TRADITIONAL_NAME>
1,2,3,7-tetramethoxyxanthone

>  <PUBCHEM_IUPAC_INCHI>
InChI=1S/C17H16O6/c1-19-9-5-6-11-10(7-9)15(18)14-12(23-11)8-13(20-2)16(21-3)17(14)22-4/h5-8H,1-4H3

>  <PUBCHEM_IUPAC_INCHIKEY>
FYLQNKRJVPRLKX-UHFFFAOYSA-N

>  <PUBCHEM_XLOGP3_AA>
2.8

>  <PUBCHEM_EXACT_MASS>
316.095

>  <PUBCHEM_MOLECULAR_FORMULA>
C17H16O6

>  <PUBCHEM_MOLECULAR_WEIGHT>
316.309

>  <PUBCHEM_OPENEYE_CAN_SMILES>
COC1=CC2=C(C=C1)OC3=CC(=C(C(=C3C2=O)OC)OC)OC

>  <PUBCHEM_OPENEYE_ISO_SMILES>
COC1=CC2=C(C=C1)OC3=CC(=C(C(=C3C2=O)OC)OC)OC

>  <PUBCHEM_CACTVS_TPSA>
63.2

>  <PUBCHEM_MONOISOTOPIC_WEIGHT>
316.095

>  <PUBCHEM_TOTAL_CHARGE>
0

>  <PUBCHEM_HEAVY_ATOM_COUNT>
23

>  <PUBCHEM_ATOM_DEF_STEREO_COUNT>
0

>  <PUBCHEM_ATOM_UDEF_STEREO_COUNT>
0

>  <PUBCHEM_BOND_DEF_STEREO_COUNT>
0

>  <PUBCHEM_BOND_UDEF_STEREO_COUNT>
0

>  <PUBCHEM_ISOTOPIC_ATOM_COUNT>
0

>  <PUBCHEM_COMPONENT_COUNT>
1

>  <PUBCHEM_CACTVS_TAUTO_COUNT>
1

>  <PUBCHEM_COORDINATE_TYPE>
1
5
255

>  <PUBCHEM_BONDANNOTATIONS>
1  12  8
1  8  8
11  13  8
12  17  8
13  15  8
14  15  8
16  18  8
17  19  8
18  19  8
7  10  8
7  11  8
7  8  8
8  14  8
9  10  8
9  12  8
9  16  8

$$$$
