14539329
 OpenBabel06101807152D

 38 41  0  0  0  0  0  0  0  0999 V2000
    7.2304   -1.7844    0.0000 O   0  0  0  0  0  0  0  0  0  0  0  0
   10.8026    0.0550    0.0000 O   0  0  0  0  0  0  0  0  0  0  0  0
   10.8026   -1.5545    0.0000 O   0  0  0  0  0  0  0  0  0  0  0  0
    8.9904    1.2502    0.0000 O   0  0  0  0  0  0  0  0  0  0  0  0
    7.2419    1.2848    0.0000 O   0  0  0  0  0  0  0  0  0  0  0  0
    2.8680    1.7844    0.0000 O   0  0  0  0  0  0  0  0  0  0  0  0
    8.1243   -0.2497    0.0000 C   0  0  0  0  0  0  0  0  0  0  0  0
    8.1243   -1.2498    0.0000 C   0  0  0  0  0  0  0  0  0  0  0  0
    8.9904    0.2503    0.0000 C   0  0  0  0  0  0  0  0  0  0  0  0
    9.8564   -0.2497    0.0000 C   0  0  0  0  0  0  0  0  0  0  0  0
    9.8564   -1.2498    0.0000 C   0  0  0  0  0  0  0  0  0  0  0  0
    7.2304    0.2849    0.0000 C   0  0  0  0  0  0  0  0  0  0  0  0
    6.3243   -0.2289    0.0000 C   0  0  0  0  0  0  0  0  0  0  0  0
    8.9904   -1.7498    0.0000 C   0  0  0  0  0  0  0  0  0  0  0  0
    5.4602    0.2744    0.0000 C   0  0  0  0  0  0  0  0  0  0  0  0
    6.3243   -1.2706    0.0000 C   0  0  0  0  0  0  0  0  0  0  0  0
   11.3862   -0.7497    0.0000 C   0  0  0  0  0  0  0  0  0  0  0  0
    5.4641    1.2744    0.0000 C   0  0  0  0  0  0  0  0  0  0  0  0
    4.5923   -0.2223    0.0000 C   0  0  0  0  0  0  0  0  0  0  0  0
    4.6000    1.7777    0.0000 C   0  0  0  0  0  0  0  0  0  0  0  0
    3.7282    0.2811    0.0000 C   0  0  0  0  0  0  0  0  0  0  0  0
    3.7320    1.2811    0.0000 C   0  0  0  0  0  0  0  0  0  0  0  0
    9.8564    1.7502    0.0000 C   0  0  0  0  0  0  0  0  0  0  0  0
    2.0000    1.2878    0.0000 C   0  0  0  0  0  0  0  0  0  0  0  0
    8.9904   -2.3697    0.0000 H   0  0  0  0  0  0  0  0  0  0  0  0
    5.7886   -1.5826    0.0000 H   0  0  0  0  0  0  0  0  0  0  0  0
   11.8471   -1.1645    0.0000 H   0  0  0  0  0  0  0  0  0  0  0  0
   11.8471   -0.3350    0.0000 H   0  0  0  0  0  0  0  0  0  0  0  0
    6.0022    1.5823    0.0000 H   0  0  0  0  0  0  0  0  0  0  0  0
    4.5899   -0.8422    0.0000 H   0  0  0  0  0  0  0  0  0  0  0  0
    4.6024    2.3977    0.0000 H   0  0  0  0  0  0  0  0  0  0  0  0
    3.1901   -0.0268    0.0000 H   0  0  0  0  0  0  0  0  0  0  0  0
   10.1664    1.2133    0.0000 H   0  0  0  0  0  0  0  0  0  0  0  0
   10.3933    2.0602    0.0000 H   0  0  0  0  0  0  0  0  0  0  0  0
    9.5464    2.2872    0.0000 H   0  0  0  0  0  0  0  0  0  0  0  0
    1.6921    1.8259    0.0000 H   0  0  0  0  0  0  0  0  0  0  0  0
    1.4619    0.9798    0.0000 H   0  0  0  0  0  0  0  0  0  0  0  0
    2.3079    0.7496    0.0000 H   0  0  0  0  0  0  0  0  0  0  0  0
  1  8  1  0  0  0  0
  1 16  1  0  0  0  0
  2 10  1  0  0  0  0
  2 17  1  0  0  0  0
  3 11  1  0  0  0  0
  3 17  1  0  0  0  0
  4  9  1  0  0  0  0
  4 23  1  0  0  0  0
  5 12  2  0  0  0  0
  6 22  1  0  0  0  0
  6 24  1  0  0  0  0
  7  8  1  0  0  0  0
  7  9  2  0  0  0  0
  7 12  1  0  0  0  0
  8 14  2  0  0  0  0
  9 10  1  0  0  0  0
 10 11  2  0  0  0  0
 11 14  1  0  0  0  0
 12 13  1  0  0  0  0
 13 15  1  0  0  0  0
 13 16  2  0  0  0  0
 14 25  1  0  0  0  0
 15 18  2  0  0  0  0
 15 19  1  0  0  0  0
 16 26  1  0  0  0  0
 17 27  1  0  0  0  0
 17 28  1  0  0  0  0
 18 20  1  0  0  0  0
 18 29  1  0  0  0  0
 19 21  2  0  0  0  0
 19 30  1  0  0  0  0
 20 22  2  0  0  0  0
 20 31  1  0  0  0  0
 21 22  1  0  0  0  0
 21 32  1  0  0  0  0
 23 33  1  0  0  0  0
 23 34  1  0  0  0  0
 23 35  1  0  0  0  0
 24 36  1  0  0  0  0
 24 37  1  0  0  0  0
 24 38  1  0  0  0  0
M  END
>  <PUBCHEM_COMPOUND_CID>
14539329

>  <PUBCHEM_COMPOUND_CANONICALIZED>
1

>  <PUBCHEM_CACTVS_COMPLEXITY>
510

>  <PUBCHEM_CACTVS_HBOND_ACCEPTOR>
6

>  <PUBCHEM_CACTVS_HBOND_DONOR>
0

>  <PUBCHEM_CACTVS_ROTATABLE_BOND>
3

>  <PUBCHEM_CACTVS_SUBSKEYS>
AAADccB4OAAAAAAAAAAAAAAAAAAAASAAAAAwYIAAAAAAAEiBQAAAGgAAAAAADASgmAMyDoAABACIAqBSAAACCAAkIAAIiAEGiMgdJzaENRqgMWIl4BUOqYfK7PzOIQABCAAIQABCAAIQABCAAAAAAAAAAA==

>  <PUBCHEM_IUPAC_OPENEYE_NAME>
9-methoxy-7-(4-methoxyphenyl)-[1,3]dioxolo[4,5-g]chromen-8-one

>  <PUBCHEM_IUPAC_CAS_NAME>
9-methoxy-7-(4-methoxyphenyl)-[1,3]dioxolo[4,5-g][1]benzopyran-8-one

>  <PUBCHEM_IUPAC_NAME>
9-methoxy-7-(4-methoxyphenyl)-[1,3]dioxolo[4,5-g]chromen-8-one

>  <PUBCHEM_IUPAC_SYSTEMATIC_NAME>
9-methoxy-7-(4-methoxyphenyl)-[1,3]dioxolo[4,5-g]chromen-8-one

>  <PUBCHEM_IUPAC_TRADITIONAL_NAME>
9-methoxy-7-(4-methoxyphenyl)-[1,3]dioxolo[4,5-g]chromen-8-one

>  <PUBCHEM_IUPAC_INCHI>
InChI=1S/C18H14O6/c1-20-11-5-3-10(4-6-11)12-8-22-13-7-14-17(24-9-23-14)18(21-2)15(13)16(12)19/h3-8H,9H2,1-2H3

>  <PUBCHEM_IUPAC_INCHIKEY>
LCIXCHCKTZRXMH-UHFFFAOYSA-N

>  <PUBCHEM_XLOGP3_AA>
2.9

>  <PUBCHEM_EXACT_MASS>
326.079

>  <PUBCHEM_MOLECULAR_FORMULA>
C18H14O6

>  <PUBCHEM_MOLECULAR_WEIGHT>
326.304

>  <PUBCHEM_OPENEYE_CAN_SMILES>
COC1=CC=C(C=C1)C2=COC3=CC4=C(C(=C3C2=O)OC)OCO4

>  <PUBCHEM_OPENEYE_ISO_SMILES>
COC1=CC=C(C=C1)C2=COC3=CC4=C(C(=C3C2=O)OC)OCO4

>  <PUBCHEM_CACTVS_TPSA>
63.2

>  <PUBCHEM_MONOISOTOPIC_WEIGHT>
326.079

>  <PUBCHEM_TOTAL_CHARGE>
0

>  <PUBCHEM_HEAVY_ATOM_COUNT>
24

>  <PUBCHEM_ATOM_DEF_STEREO_COUNT>
0

>  <PUBCHEM_ATOM_UDEF_STEREO_COUNT>
0

>  <PUBCHEM_BOND_DEF_STEREO_COUNT>
0

>  <PUBCHEM_BOND_UDEF_STEREO_COUNT>
0

>  <PUBCHEM_ISOTOPIC_ATOM_COUNT>
0

>  <PUBCHEM_COMPONENT_COUNT>
1

>  <PUBCHEM_CACTVS_TAUTO_COUNT>
1

>  <PUBCHEM_COORDINATE_TYPE>
1
5
255

>  <PUBCHEM_BONDANNOTATIONS>
1  16  8
1  8  8
10  11  8
11  14  8
12  13  8
13  16  8
15  18  8
15  19  8
18  20  8
19  21  8
20  22  8
21  22  8
7  12  8
7  8  8
7  9  8
8  14  8
9  10  8

$$$$
