14542258
 OpenBabel06101807152D

 46 48  0  0  0  0  0  0  0  0999 V2000
    8.0901    0.7753    0.0000 O   0  0  0  0  0  0  0  0  0  0  0  0
    6.3301    3.8100    0.0000 O   0  0  0  0  0  0  0  0  0  0  0  0
    4.5981    0.8100    0.0000 O   0  0  0  0  0  0  0  0  0  0  0  0
    7.1962   -0.6900    0.0000 O   0  0  0  0  0  0  0  0  0  0  0  0
    2.0000   -3.6900    0.0000 O   0  0  0  0  0  0  0  0  0  0  0  0
    8.9962    1.2892    0.0000 C   0  0  0  0  0  0  0  0  0  0  0  0
    7.1962    1.3100    0.0000 C   0  0  0  0  0  0  0  0  0  0  0  0
    7.1962    2.3100    0.0000 C   0  0  0  0  0  0  0  0  0  0  0  0
    8.9962    2.3308    0.0000 C   0  0  0  0  0  0  0  0  0  0  0  0
    9.9962    1.2853    0.0000 C   0  0  0  0  0  0  0  0  0  0  0  0
    9.4928    0.4212    0.0000 C   0  0  0  0  0  0  0  0  0  0  0  0
    8.0901    2.8447    0.0000 C   0  0  0  0  0  0  0  0  0  0  0  0
    6.3301    0.8100    0.0000 C   0  0  0  0  0  0  0  0  0  0  0  0
    6.3301    2.8100    0.0000 C   0  0  0  0  0  0  0  0  0  0  0  0
    5.4641    1.3100    0.0000 C   0  0  0  0  0  0  0  0  0  0  0  0
    5.4641    2.3100    0.0000 C   0  0  0  0  0  0  0  0  0  0  0  0
    6.3301   -0.1900    0.0000 C   0  0  0  0  0  0  0  0  0  0  0  0
    5.4641   -0.6900    0.0000 C   0  0  0  0  0  0  0  0  0  0  0  0
    5.4641   -1.6900    0.0000 C   0  0  0  0  0  0  0  0  0  0  0  0
    5.4641    4.3100    0.0000 C   0  0  0  0  0  0  0  0  0  0  0  0
    4.5981   -2.1900    0.0000 C   0  0  0  0  0  0  0  0  0  0  0  0
    3.7320   -1.6900    0.0000 C   0  0  0  0  0  0  0  0  0  0  0  0
    4.5981   -3.1900    0.0000 C   0  0  0  0  0  0  0  0  0  0  0  0
    2.8660   -2.1900    0.0000 C   0  0  0  0  0  0  0  0  0  0  0  0
    3.7320   -3.6900    0.0000 C   0  0  0  0  0  0  0  0  0  0  0  0
    2.8660   -3.1900    0.0000 C   0  0  0  0  0  0  0  0  0  0  0  0
    9.5319    2.6429    0.0000 H   0  0  0  0  0  0  0  0  0  0  0  0
    9.9938    0.6653    0.0000 H   0  0  0  0  0  0  0  0  0  0  0  0
    8.9547    0.1133    0.0000 H   0  0  0  0  0  0  0  0  0  0  0  0
    9.8008   -0.1169    0.0000 H   0  0  0  0  0  0  0  0  0  0  0  0
   10.0309    0.7292    0.0000 H   0  0  0  0  0  0  0  0  0  0  0  0
   10.6161    1.2829    0.0000 H   0  0  0  0  0  0  0  0  0  0  0  0
    9.9985    1.9053    0.0000 H   0  0  0  0  0  0  0  0  0  0  0  0
    8.0829    3.4646    0.0000 H   0  0  0  0  0  0  0  0  0  0  0  0
    4.9272    2.6200    0.0000 H   0  0  0  0  0  0  0  0  0  0  0  0
    4.9272   -0.3800    0.0000 H   0  0  0  0  0  0  0  0  0  0  0  0
    4.0611    1.1200    0.0000 H   0  0  0  0  0  0  0  0  0  0  0  0
    6.0010   -2.0000    0.0000 H   0  0  0  0  0  0  0  0  0  0  0  0
    5.7741    4.8469    0.0000 H   0  0  0  0  0  0  0  0  0  0  0  0
    4.9272    4.6200    0.0000 H   0  0  0  0  0  0  0  0  0  0  0  0
    5.1541    3.7731    0.0000 H   0  0  0  0  0  0  0  0  0  0  0  0
    3.7320   -1.0700    0.0000 H   0  0  0  0  0  0  0  0  0  0  0  0
    5.1350   -3.5000    0.0000 H   0  0  0  0  0  0  0  0  0  0  0  0
    2.3291   -1.8800    0.0000 H   0  0  0  0  0  0  0  0  0  0  0  0
    3.7320   -4.3100    0.0000 H   0  0  0  0  0  0  0  0  0  0  0  0
    2.0000   -4.3100    0.0000 H   0  0  0  0  0  0  0  0  0  0  0  0
  1  6  1  0  0  0  0
  1  7  1  0  0  0  0
  2 14  1  0  0  0  0
  2 20  1  0  0  0  0
  3 15  1  0  0  0  0
  3 37  1  0  0  0  0
  4 17  2  0  0  0  0
  5 26  1  0  0  0  0
  5 46  1  0  0  0  0
  6  9  1  0  0  0  0
  6 10  1  0  0  0  0
  6 11  1  0  0  0  0
  7  8  1  0  0  0  0
  7 13  2  0  0  0  0
  8 12  1  0  0  0  0
  8 14  2  0  0  0  0
  9 12  2  0  0  0  0
  9 27  1  0  0  0  0
 10 28  1  0  0  0  0
 10 32  1  0  0  0  0
 10 33  1  0  0  0  0
 11 29  1  0  0  0  0
 11 30  1  0  0  0  0
 11 31  1  0  0  0  0
 12 34  1  0  0  0  0
 13 15  1  0  0  0  0
 13 17  1  0  0  0  0
 14 16  1  0  0  0  0
 15 16  2  0  0  0  0
 16 35  1  0  0  0  0
 17 18  1  0  0  0  0
 18 19  2  0  0  0  0
 18 36  1  0  0  0  0
 19 21  1  0  0  0  0
 19 38  1  0  0  0  0
 20 39  1  0  0  0  0
 20 40  1  0  0  0  0
 20 41  1  0  0  0  0
 21 22  2  0  0  0  0
 21 23  1  0  0  0  0
 22 24  1  0  0  0  0
 22 42  1  0  0  0  0
 23 25  2  0  0  0  0
 23 43  1  0  0  0  0
 24 26  2  0  0  0  0
 24 44  1  0  0  0  0
 25 26  1  0  0  0  0
 25 45  1  0  0  0  0
M  END
>  <PUBCHEM_COMPOUND_CID>
14542258

>  <PUBCHEM_COMPOUND_CANONICALIZED>
1

>  <PUBCHEM_CACTVS_COMPLEXITY>
559

>  <PUBCHEM_CACTVS_HBOND_ACCEPTOR>
5

>  <PUBCHEM_CACTVS_HBOND_DONOR>
2

>  <PUBCHEM_CACTVS_ROTATABLE_BOND>
4

>  <PUBCHEM_CACTVS_SUBSKEYS>
AAADceB4OAAAAAAAAAAAAAAAAAAAAAAAAAAwYIAAAAAAAACBQAAAGgAACAAADESAmAIyBoAABgCIAqBSAAACCAAkIAAIiAEGCMgMJzaGNRqCeWCl4BUIuYeI7OzOIAACCAAIAABAAAQQABAAAAAAAAAAAA==

>  <PUBCHEM_IUPAC_OPENEYE_NAME>
(E)-1-(7-hydroxy-5-methoxy-2,2-dimethyl-chromen-8-yl)-3-(4-hydroxyphenyl)prop-2-en-1-one

>  <PUBCHEM_IUPAC_CAS_NAME>
(E)-1-(7-hydroxy-5-methoxy-2,2-dimethyl-1-benzopyran-8-yl)-3-(4-hydroxyphenyl)-2-propen-1-one

>  <PUBCHEM_IUPAC_NAME>
(E)-1-(7-hydroxy-5-methoxy-2,2-dimethylchromen-8-yl)-3-(4-hydroxyphenyl)prop-2-en-1-one

>  <PUBCHEM_IUPAC_SYSTEMATIC_NAME>
(E)-3-(4-hydroxyphenyl)-1-(5-methoxy-2,2-dimethyl-7-oxidanyl-chromen-8-yl)prop-2-en-1-one

>  <PUBCHEM_IUPAC_TRADITIONAL_NAME>
(E)-1-(7-hydroxy-5-methoxy-2,2-dimethyl-chromen-8-yl)-3-(4-hydroxyphenyl)prop-2-en-1-one

>  <PUBCHEM_IUPAC_INCHI>
InChI=1S/C21H20O5/c1-21(2)11-10-15-18(25-3)12-17(24)19(20(15)26-21)16(23)9-6-13-4-7-14(22)8-5-13/h4-12,22,24H,1-3H3/b9-6+

>  <PUBCHEM_IUPAC_INCHIKEY>
RPGWAGOTDRYEAD-RMKNXTFCSA-N

>  <PUBCHEM_XLOGP3_AA>
4.4

>  <PUBCHEM_EXACT_MASS>
352.131

>  <PUBCHEM_MOLECULAR_FORMULA>
C21H20O5

>  <PUBCHEM_MOLECULAR_WEIGHT>
352.386

>  <PUBCHEM_OPENEYE_CAN_SMILES>
CC1(C=CC2=C(O1)C(=C(C=C2OC)O)C(=O)C=CC3=CC=C(C=C3)O)C

>  <PUBCHEM_OPENEYE_ISO_SMILES>
CC1(C=CC2=C(O1)C(=C(C=C2OC)O)C(=O)/C=C/C3=CC=C(C=C3)O)C

>  <PUBCHEM_CACTVS_TPSA>
76

>  <PUBCHEM_MONOISOTOPIC_WEIGHT>
352.131

>  <PUBCHEM_TOTAL_CHARGE>
0

>  <PUBCHEM_HEAVY_ATOM_COUNT>
26

>  <PUBCHEM_ATOM_DEF_STEREO_COUNT>
0

>  <PUBCHEM_ATOM_UDEF_STEREO_COUNT>
0

>  <PUBCHEM_BOND_DEF_STEREO_COUNT>
1

>  <PUBCHEM_BOND_UDEF_STEREO_COUNT>
0

>  <PUBCHEM_ISOTOPIC_ATOM_COUNT>
0

>  <PUBCHEM_COMPONENT_COUNT>
1

>  <PUBCHEM_CACTVS_TAUTO_COUNT>
29

>  <PUBCHEM_COORDINATE_TYPE>
1
5
255

>  <PUBCHEM_BONDANNOTATIONS>
13  15  8
14  16  8
15  16  8
21  22  8
21  23  8
22  24  8
23  25  8
24  26  8
25  26  8
7  13  8
7  8  8
8  14  8

$$$$
