14558488
 OpenBabel06101807152D

 99102  0  0  1  0  0  0  0  0999 V2000
    5.4646   -4.6362    0.0000 O   0  0  0  0  0  0  0  0  0  0  0  0
   18.0976    5.3904    0.0000 O   0  0  0  0  0  0  0  0  0  0  0  0
    2.0000   -5.6362    0.0000 O   0  0  0  0  0  0  0  0  0  0  0  0
    4.5981   -4.1362    0.0000 C   0  0  3  0  0  0  0  0  0  0  0  0
    4.5981   -5.1362    0.0000 C   0  0  3  0  0  0  0  0  0  0  0  0
   18.5981    4.5241    0.0000 C   0  0  3  0  0  0  0  0  0  0  0  0
   19.0981    5.3901    0.0000 C   0  0  3  0  0  0  0  0  0  0  0  0
    3.7320   -3.6362    0.0000 C   0  0  0  0  0  0  0  0  0  0  0  0
   19.0981    3.6581    0.0000 C   0  0  0  0  0  0  0  0  0  0  0  0
    3.7320   -5.6362    0.0000 C   0  0  0  0  0  0  0  0  0  0  0  0
    2.8660   -4.1362    0.0000 C   0  0  0  0  0  0  0  0  0  0  0  0
   20.0981    5.3901    0.0000 C   0  0  0  0  0  0  0  0  0  0  0  0
    2.8660   -5.1362    0.0000 C   0  0  3  0  0  0  0  0  0  0  0  0
   20.0981    3.6581    0.0000 C   0  0  0  0  0  0  0  0  0  0  0  0
   20.5981    4.5241    0.0000 C   0  0  0  0  0  0  0  0  0  0  0  0
    4.5981   -6.1362    0.0000 C   0  0  0  0  0  0  0  0  0  0  0  0
    5.0981   -3.2701    0.0000 C   0  0  0  0  0  0  0  0  0  0  0  0
   19.5981    6.2562    0.0000 C   0  0  0  0  0  0  0  0  0  0  0  0
    2.8660   -3.1362    0.0000 C   0  0  0  0  0  0  0  0  0  0  0  0
    3.7320   -2.6362    0.0000 C   0  0  0  0  0  0  0  0  0  0  0  0
   18.0981    3.6581    0.0000 C   0  0  0  0  0  0  0  0  0  0  0  0
   19.5982    2.7921    0.0000 C   0  0  0  0  0  0  0  0  0  0  0  0
   18.9244    2.6733    0.0000 C   0  0  0  0  0  0  0  0  0  0  0  0
    6.0981   -3.2701    0.0000 C   0  0  0  0  0  0  0  0  0  0  0  0
   17.0981    3.6581    0.0000 C   0  0  0  0  0  0  0  0  0  0  0  0
    6.5981   -2.4041    0.0000 C   0  0  0  0  0  0  0  0  0  0  0  0
   16.5981    2.7920    0.0000 C   0  0  0  0  0  0  0  0  0  0  0  0
    6.0981   -1.5381    0.0000 C   0  0  0  0  0  0  0  0  0  0  0  0
   17.0981    1.9260    0.0000 C   0  0  0  0  0  0  0  0  0  0  0  0
    7.5981   -2.4041    0.0000 C   0  0  0  0  0  0  0  0  0  0  0  0
   15.5981    2.7920    0.0000 C   0  0  0  0  0  0  0  0  0  0  0  0
    8.0981   -1.5381    0.0000 C   0  0  0  0  0  0  0  0  0  0  0  0
   15.0981    1.9260    0.0000 C   0  0  0  0  0  0  0  0  0  0  0  0
    9.0981   -1.5381    0.0000 C   0  0  0  0  0  0  0  0  0  0  0  0
   14.0981    1.9260    0.0000 C   0  0  0  0  0  0  0  0  0  0  0  0
    9.5981   -0.6721    0.0000 C   0  0  0  0  0  0  0  0  0  0  0  0
   13.5981    1.0600    0.0000 C   0  0  0  0  0  0  0  0  0  0  0  0
    9.0981    0.1940    0.0000 C   0  0  0  0  0  0  0  0  0  0  0  0
   10.5981   -0.6721    0.0000 C   0  0  0  0  0  0  0  0  0  0  0  0
   14.0981    0.1940    0.0000 C   0  0  0  0  0  0  0  0  0  0  0  0
   12.5981    1.0600    0.0000 C   0  0  0  0  0  0  0  0  0  0  0  0
   11.0981    0.1940    0.0000 C   0  0  0  0  0  0  0  0  0  0  0  0
   12.0981    0.1940    0.0000 C   0  0  0  0  0  0  0  0  0  0  0  0
    3.3335   -6.1111    0.0000 H   0  0  0  0  0  0  0  0  0  0  0  0
    4.1306   -6.1111    0.0000 H   0  0  0  0  0  0  0  0  0  0  0  0
    2.6540   -3.5535    0.0000 H   0  0  0  0  0  0  0  0  0  0  0  0
    2.2554   -4.2438    0.0000 H   0  0  0  0  0  0  0  0  0  0  0  0
   20.6807    5.6022    0.0000 H   0  0  0  0  0  0  0  0  0  0  0  0
   19.9904    6.0007    0.0000 H   0  0  0  0  0  0  0  0  0  0  0  0
    2.8660   -5.7562    0.0000 H   0  0  0  0  0  0  0  0  0  0  0  0
   19.9904    3.0475    0.0000 H   0  0  0  0  0  0  0  0  0  0  0  0
   20.6807    3.4460    0.0000 H   0  0  0  0  0  0  0  0  0  0  0  0
   21.0730    4.1256    0.0000 H   0  0  0  0  0  0  0  0  0  0  0  0
   21.0730    4.9226    0.0000 H   0  0  0  0  0  0  0  0  0  0  0  0
    3.9781   -6.1362    0.0000 H   0  0  0  0  0  0  0  0  0  0  0  0
    4.5981   -6.7562    0.0000 H   0  0  0  0  0  0  0  0  0  0  0  0
    5.2181   -6.1362    0.0000 H   0  0  0  0  0  0  0  0  0  0  0  0
    4.7881   -2.7332    0.0000 H   0  0  0  0  0  0  0  0  0  0  0  0
   20.1350    5.9462    0.0000 H   0  0  0  0  0  0  0  0  0  0  0  0
   19.9081    6.7931    0.0000 H   0  0  0  0  0  0  0  0  0  0  0  0
   19.0611    6.5662    0.0000 H   0  0  0  0  0  0  0  0  0  0  0  0
    3.1760   -2.5992    0.0000 H   0  0  0  0  0  0  0  0  0  0  0  0
    2.3291   -2.8262    0.0000 H   0  0  0  0  0  0  0  0  0  0  0  0
    2.5560   -3.6731    0.0000 H   0  0  0  0  0  0  0  0  0  0  0  0
    4.3520   -2.6362    0.0000 H   0  0  0  0  0  0  0  0  0  0  0  0
    3.7320   -2.0162    0.0000 H   0  0  0  0  0  0  0  0  0  0  0  0
    3.1120   -2.6362    0.0000 H   0  0  0  0  0  0  0  0  0  0  0  0
   18.2057    3.0475    0.0000 H   0  0  0  0  0  0  0  0  0  0  0  0
   19.0613    2.4820    0.0000 H   0  0  0  0  0  0  0  0  0  0  0  0
   19.9082    2.2552    0.0000 H   0  0  0  0  0  0  0  0  0  0  0  0
   20.1351    3.1022    0.0000 H   0  0  0  0  0  0  0  0  0  0  0  0
   18.3138    2.7809    0.0000 H   0  0  0  0  0  0  0  0  0  0  0  0
   18.8168    2.0627    0.0000 H   0  0  0  0  0  0  0  0  0  0  0  0
   19.5350    2.5656    0.0000 H   0  0  0  0  0  0  0  0  0  0  0  0
    2.0000   -6.2562    0.0000 H   0  0  0  0  0  0  0  0  0  0  0  0
    6.4081   -3.8071    0.0000 H   0  0  0  0  0  0  0  0  0  0  0  0
   16.7881    4.1950    0.0000 H   0  0  0  0  0  0  0  0  0  0  0  0
    6.6350   -1.2281    0.0000 H   0  0  0  0  0  0  0  0  0  0  0  0
    5.7881   -1.0011    0.0000 H   0  0  0  0  0  0  0  0  0  0  0  0
    5.5611   -1.8481    0.0000 H   0  0  0  0  0  0  0  0  0  0  0  0
   16.5611    1.6160    0.0000 H   0  0  0  0  0  0  0  0  0  0  0  0
   17.4081    1.3891    0.0000 H   0  0  0  0  0  0  0  0  0  0  0  0
   17.6350    2.2360    0.0000 H   0  0  0  0  0  0  0  0  0  0  0  0
    7.9081   -2.9410    0.0000 H   0  0  0  0  0  0  0  0  0  0  0  0
   15.2881    3.3290    0.0000 H   0  0  0  0  0  0  0  0  0  0  0  0
    7.7881   -1.0011    0.0000 H   0  0  0  0  0  0  0  0  0  0  0  0
   15.4081    1.3891    0.0000 H   0  0  0  0  0  0  0  0  0  0  0  0
    9.4081   -2.0750    0.0000 H   0  0  0  0  0  0  0  0  0  0  0  0
   13.7881    2.4630    0.0000 H   0  0  0  0  0  0  0  0  0  0  0  0
    9.6350    0.5040    0.0000 H   0  0  0  0  0  0  0  0  0  0  0  0
    8.7881    0.7309    0.0000 H   0  0  0  0  0  0  0  0  0  0  0  0
    8.5611   -0.1160    0.0000 H   0  0  0  0  0  0  0  0  0  0  0  0
   10.9081   -1.2090    0.0000 H   0  0  0  0  0  0  0  0  0  0  0  0
   13.5611   -0.1160    0.0000 H   0  0  0  0  0  0  0  0  0  0  0  0
   14.4081   -0.3430    0.0000 H   0  0  0  0  0  0  0  0  0  0  0  0
   14.6350    0.5040    0.0000 H   0  0  0  0  0  0  0  0  0  0  0  0
   12.2881    1.5969    0.0000 H   0  0  0  0  0  0  0  0  0  0  0  0
   10.7881    0.7309    0.0000 H   0  0  0  0  0  0  0  0  0  0  0  0
   12.4081   -0.3430    0.0000 H   0  0  0  0  0  0  0  0  0  0  0  0
  1  4  1  0  0  0  0
  1  5  1  0  0  0  0
  2  6  1  0  0  0  0
  2  7  1  0  0  0  0
  3 13  1  0  0  0  0
  3 75  1  0  0  0  0
  4  5  1  0  0  0  0
  4  8  1  0  0  0  0
  4 17  1  0  0  0  0
  5 10  1  0  0  0  0
  5 16  1  0  0  0  0
  6  7  1  0  0  0  0
  6  9  1  0  0  0  0
  6 21  1  0  0  0  0
  7 12  1  0  0  0  0
  7 18  1  0  0  0  0
  8 11  1  0  0  0  0
  8 19  1  0  0  0  0
  8 20  1  0  0  0  0
  9 14  1  0  0  0  0
  9 22  1  0  0  0  0
  9 23  1  0  0  0  0
 10 13  1  0  0  0  0
 10 44  1  0  0  0  0
 10 45  1  0  0  0  0
 11 13  1  0  0  0  0
 11 46  1  0  0  0  0
 11 47  1  0  0  0  0
 12 15  1  0  0  0  0
 12 48  1  0  0  0  0
 12 49  1  0  0  0  0
 13 50  1  0  0  0  0
 14 15  1  0  0  0  0
 14 51  1  0  0  0  0
 14 52  1  0  0  0  0
 15 53  1  0  0  0  0
 15 54  1  0  0  0  0
 16 55  1  0  0  0  0
 16 56  1  0  0  0  0
 16 57  1  0  0  0  0
 17 24  2  0  0  0  0
 17 58  1  0  0  0  0
 18 59  1  0  0  0  0
 18 60  1  0  0  0  0
 18 61  1  0  0  0  0
 19 62  1  0  0  0  0
 19 63  1  0  0  0  0
 19 64  1  0  0  0  0
 20 65  1  0  0  0  0
 20 66  1  0  0  0  0
 20 67  1  0  0  0  0
 21 25  2  0  0  0  0
 21 68  1  0  0  0  0
 22 69  1  0  0  0  0
 22 70  1  0  0  0  0
 22 71  1  0  0  0  0
 23 72  1  0  0  0  0
 23 73  1  0  0  0  0
 23 74  1  0  0  0  0
 24 26  1  0  0  0  0
 24 76  1  0  0  0  0
 25 27  1  0  0  0  0
 25 77  1  0  0  0  0
 26 28  1  0  0  0  0
 26 30  2  0  0  0  0
 27 29  1  0  0  0  0
 27 31  2  0  0  0  0
 28 78  1  0  0  0  0
 28 79  1  0  0  0  0
 28 80  1  0  0  0  0
 29 81  1  0  0  0  0
 29 82  1  0  0  0  0
 29 83  1  0  0  0  0
 30 32  1  0  0  0  0
 30 84  1  0  0  0  0
 31 33  1  0  0  0  0
 31 85  1  0  0  0  0
 32 34  2  0  0  0  0
 32 86  1  0  0  0  0
 33 35  2  0  0  0  0
 33 87  1  0  0  0  0
 34 36  1  0  0  0  0
 34 88  1  0  0  0  0
 35 37  1  0  0  0  0
 35 89  1  0  0  0  0
 36 38  1  0  0  0  0
 36 39  2  0  0  0  0
 37 40  1  0  0  0  0
 37 41  2  0  0  0  0
 38 90  1  0  0  0  0
 38 91  1  0  0  0  0
 38 92  1  0  0  0  0
 39 42  1  0  0  0  0
 39 93  1  0  0  0  0
 40 94  1  0  0  0  0
 40 95  1  0  0  0  0
 40 96  1  0  0  0  0
 41 43  1  0  0  0  0
 41 97  1  0  0  0  0
 42 43  2  0  0  0  0
 42 98  1  0  0  0  0
 43 99  1  0  0  0  0
M  END
>  <PUBCHEM_COMPOUND_CID>
14558488

>  <PUBCHEM_COMPOUND_CANONICALIZED>
1

>  <PUBCHEM_CACTVS_COMPLEXITY>
1340

>  <PUBCHEM_CACTVS_HBOND_ACCEPTOR>
3

>  <PUBCHEM_CACTVS_HBOND_DONOR>
1

>  <PUBCHEM_CACTVS_ROTATABLE_BOND>
10

>  <PUBCHEM_CACTVS_SUBSKEYS>
AAADcfB8MAAAAAAAAAAAAAAAEiQAAAAAAAAwYAAABIkAAAAAAAAAGgAACAAADlSggAICAAAABgCAAiBCAAAAAAAgAAAICAAAAAgIFAIAIQACUAAFwAAIoAPA4PQPgAAAAAAAAABCAAYQADAAAAAAAAAAAA==

>  <PUBCHEM_IUPAC_OPENEYE_NAME>
1,5,5-trimethyl-6-[(1E,3E,5E,7E,9E,11E,13E,15E,17E)-3,7,12,16-tetramethyl-18-(1,5,5-trimethyl-7-oxabicyclo[4.1.0]heptan-6-yl)octadeca-1,3,5,7,9,11,13,15,17-nonaenyl]-7-oxabicyclo[4.1.0]heptan-3-ol

>  <PUBCHEM_IUPAC_CAS_NAME>
1,5,5-trimethyl-6-[(1E,3E,5E,7E,9E,11E,13E,15E,17E)-3,7,12,16-tetramethyl-18-(1,5,5-trimethyl-7-oxabicyclo[4.1.0]heptan-6-yl)octadeca-1,3,5,7,9,11,13,15,17-nonaenyl]-7-oxabicyclo[4.1.0]heptan-3-ol

>  <PUBCHEM_IUPAC_NAME>
1,5,5-trimethyl-6-[(1E,3E,5E,7E,9E,11E,13E,15E,17E)-3,7,12,16-tetramethyl-18-(1,5,5-trimethyl-7-oxabicyclo[4.1.0]heptan-6-yl)octadeca-1,3,5,7,9,11,13,15,17-nonaenyl]-7-oxabicyclo[4.1.0]heptan-3-ol

>  <PUBCHEM_IUPAC_SYSTEMATIC_NAME>
1,5,5-trimethyl-6-[(1E,3E,5E,7E,9E,11E,13E,15E,17E)-3,7,12,16-tetramethyl-18-(1,5,5-trimethyl-7-oxabicyclo[4.1.0]heptan-6-yl)octadeca-1,3,5,7,9,11,13,15,17-nonaenyl]-7-oxabicyclo[4.1.0]heptan-3-ol

>  <PUBCHEM_IUPAC_TRADITIONAL_NAME>
1,5,5-trimethyl-6-[(1E,3E,5E,7E,9E,11E,13E,15E,17E)-3,7,12,16-tetramethyl-18-(1,5,5-trimethyl-7-oxabicyclo[4.1.0]heptan-6-yl)octadeca-1,3,5,7,9,11,13,15,17-nonaenyl]-7-oxabicyclo[4.1.0]heptan-3-ol

>  <PUBCHEM_IUPAC_INCHI>
InChI=1S/C40H56O3/c1-30(18-13-20-32(3)22-26-39-35(5,6)24-15-25-37(39,9)42-39)16-11-12-17-31(2)19-14-21-33(4)23-27-40-36(7,8)28-34(41)29-38(40,10)43-40/h11-14,16-23,26-27,34,41H,15,24-25,28-29H2,1-10H3/b12-11+,18-13+,19-14+,26-22+,27-23+,30-16+,31-17+,32-20+,33-21+

>  <PUBCHEM_IUPAC_INCHIKEY>
ONQKWANDXQNLEJ-CGYYJCQDSA-N

>  <PUBCHEM_XLOGP3_AA>
10.7

>  <PUBCHEM_EXACT_MASS>
584.423

>  <PUBCHEM_MOLECULAR_FORMULA>
C40H56O3

>  <PUBCHEM_MOLECULAR_WEIGHT>
584.885

>  <PUBCHEM_OPENEYE_CAN_SMILES>
CC(=CC=CC=C(C)C=CC=C(C)C=CC12C(CC(CC1(O2)C)O)(C)C)C=CC=C(C)C=CC34C(CCCC3(O4)C)(C)C

>  <PUBCHEM_OPENEYE_ISO_SMILES>
C/C(=C\C=C\C=C(/C)\C=C\C=C(/C)\C=C\C12C(CC(CC1(O2)C)O)(C)C)/C=C/C=C(\C)/C=C/C34C(CCCC3(O4)C)(C)C

>  <PUBCHEM_CACTVS_TPSA>
45.3

>  <PUBCHEM_MONOISOTOPIC_WEIGHT>
584.423

>  <PUBCHEM_TOTAL_CHARGE>
0

>  <PUBCHEM_HEAVY_ATOM_COUNT>
43

>  <PUBCHEM_ATOM_DEF_STEREO_COUNT>
0

>  <PUBCHEM_ATOM_UDEF_STEREO_COUNT>
5

>  <PUBCHEM_BOND_DEF_STEREO_COUNT>
9

>  <PUBCHEM_BOND_UDEF_STEREO_COUNT>
0

>  <PUBCHEM_ISOTOPIC_ATOM_COUNT>
0

>  <PUBCHEM_COMPONENT_COUNT>
1

>  <PUBCHEM_CACTVS_TAUTO_COUNT>
1

>  <PUBCHEM_COORDINATE_TYPE>
1
5
255

>  <PUBCHEM_BONDANNOTATIONS>
13  3  3
4  17  3
5  16  3
6  21  3
7  18  3

$$$$
