14605556
 OpenBabel06101807152D

 47 51  0  0  1  0  0  0  0  0999 V2000
    5.5162    0.3935    0.0000 O   0  0  0  0  0  0  0  0  0  0  0  0
    3.5453    0.8093    0.0000 O   0  0  0  0  0  0  0  0  0  0  0  0
    8.4608   -0.7071    0.0000 O   0  0  0  0  0  0  0  0  0  0  0  0
    7.9380    0.9501    0.0000 O   0  0  0  0  0  0  0  0  0  0  0  0
    4.4394    1.6219    0.0000 O   0  0  0  0  0  0  0  0  0  0  0  0
    6.1653    1.4764    0.0000 O   0  0  0  0  0  0  0  0  0  0  0  0
    4.4481   -0.4947    0.0000 C   0  0  3  0  0  0  0  0  0  0  0  0
    4.7500   -1.3619    0.0000 C   0  0  3  0  0  0  0  0  0  0  0  0
    5.9251   -0.4664    0.0000 C   0  0  3  0  0  0  0  0  0  0  0  0
    5.6621   -1.3404    0.0000 C   0  0  3  0  0  0  0  0  0  0  0  0
    5.1763    0.0545    0.0000 C   0  0  3  0  0  0  0  0  0  0  0  0
    3.7521   -1.3272    0.0000 C   0  0  0  0  0  0  0  0  0  0  0  0
    6.8424   -0.2503    0.0000 C   0  0  3  0  0  0  0  0  0  0  0  0
    3.5812   -0.1901    0.0000 C   0  0  3  0  0  0  0  0  0  0  0  0
    2.6992   -1.5897    0.0000 C   0  0  3  0  0  0  0  0  0  0  0  0
    4.2598   -2.1385    0.0000 C   0  0  0  0  0  0  0  0  0  0  0  0
    3.3475   -2.2397    0.0000 C   0  0  0  0  0  0  0  0  0  0  0  0
    2.8036   -0.6771    0.0000 C   0  0  0  0  0  0  0  0  0  0  0  0
    6.2999   -2.0549    0.0000 C   0  0  0  0  0  0  0  0  0  0  0  0
    7.4875   -0.9365    0.0000 C   0  0  3  0  0  0  0  0  0  0  0  0
    7.1072    0.3935    0.0000 C   0  0  0  0  0  0  0  0  0  0  0  0
    5.2603    1.0509    0.0000 C   0  0  0  0  0  0  0  0  0  0  0  0
    7.8258   -0.0692    0.0000 C   0  0  0  0  0  0  0  0  0  0  0  0
    7.2160   -1.8392    0.0000 C   0  0  0  0  0  0  0  0  0  0  0  0
    2.0000   -0.0820    0.0000 C   0  0  0  0  0  0  0  0  0  0  0  0
    5.0558   -1.9013    0.0000 H   0  0  0  0  0  0  0  0  0  0  0  0
    6.0411    0.1427    0.0000 H   0  0  0  0  0  0  0  0  0  0  0  0
    4.6335    0.3541    0.0000 H   0  0  0  0  0  0  0  0  0  0  0  0
    3.7092   -1.9457    0.0000 H   0  0  0  0  0  0  0  0  0  0  0  0
    4.3272   -1.5587    0.0000 H   0  0  0  0  0  0  0  0  0  0  0  0
    3.0335    0.1004    0.0000 H   0  0  0  0  0  0  0  0  0  0  0  0
    2.1137   -1.7936    0.0000 H   0  0  0  0  0  0  0  0  0  0  0  0
    4.1892   -2.7544    0.0000 H   0  0  0  0  0  0  0  0  0  0  0  0
    4.8446   -2.3444    0.0000 H   0  0  0  0  0  0  0  0  0  0  0  0
    2.8220   -2.5688    0.0000 H   0  0  0  0  0  0  0  0  0  0  0  0
    3.5514   -2.8253    0.0000 H   0  0  0  0  0  0  0  0  0  0  0  0
    6.1135   -2.6462    0.0000 H   0  0  0  0  0  0  0  0  0  0  0  0
    7.9124   -1.3880    0.0000 H   0  0  0  0  0  0  0  0  0  0  0  0
    7.9382   -0.6789    0.0000 H   0  0  0  0  0  0  0  0  0  0  0  0
    8.4356    0.0432    0.0000 H   0  0  0  0  0  0  0  0  0  0  0  0
    7.7135    0.5406    0.0000 H   0  0  0  0  0  0  0  0  0  0  0  0
    7.6409   -2.2907    0.0000 H   0  0  0  0  0  0  0  0  0  0  0  0
    2.9975    1.0998    0.0000 H   0  0  0  0  0  0  0  0  0  0  0  0
    2.0704    0.5340    0.0000 H   0  0  0  0  0  0  0  0  0  0  0  0
    1.4313   -0.3290    0.0000 H   0  0  0  0  0  0  0  0  0  0  0  0
    8.8858   -1.1586    0.0000 H   0  0  0  0  0  0  0  0  0  0  0  0
    4.4915    2.2397    0.0000 H   0  0  0  0  0  0  0  0  0  0  0  0
  1 10  1  0  0  0  0
  1 21  1  0  0  0  0
  2 14  1  0  0  0  0
  2 43  1  0  0  0  0
  3 20  1  0  0  0  0
  3 46  1  0  0  0  0
  4 21  2  0  0  0  0
  5 22  1  0  0  0  0
  5 47  1  0  0  0  0
  6 22  2  0  0  0  0
  7  8  1  0  0  0  0
  7 11  1  0  0  0  0
  7 12  1  0  0  0  0
  7 14  1  0  0  0  0
  8 10  1  0  0  0  0
  8 16  1  0  0  0  0
  8 26  1  0  0  0  0
  9 10  1  0  0  0  0
  9 11  1  0  0  0  0
  9 13  1  0  0  0  0
  9 27  1  0  0  0  0
 10 19  1  0  0  0  0
 11 22  1  0  0  0  0
 11 28  1  0  0  0  0
 12 15  1  0  0  0  0
 12 29  1  0  0  0  0
 12 30  1  0  0  0  0
 13 20  1  0  0  0  0
 13 21  1  0  0  0  0
 13 23  1  0  0  0  0
 14 18  1  0  0  0  0
 14 31  1  0  0  0  0
 15 17  1  0  0  0  0
 15 18  1  0  0  0  0
 15 32  1  0  0  0  0
 16 17  1  0  0  0  0
 16 33  1  0  0  0  0
 16 34  1  0  0  0  0
 17 35  1  0  0  0  0
 17 36  1  0  0  0  0
 18 25  2  0  0  0  0
 19 24  2  0  0  0  0
 19 37  1  0  0  0  0
 20 24  1  0  0  0  0
 20 38  1  0  0  0  0
 23 39  1  0  0  0  0
 23 40  1  0  0  0  0
 23 41  1  0  0  0  0
 24 42  1  0  0  0  0
 25 44  1  0  0  0  0
 25 45  1  0  0  0  0
M  END
>  <PUBCHEM_COMPOUND_CID>
14605556

>  <PUBCHEM_COMPOUND_CANONICALIZED>
1

>  <PUBCHEM_CACTVS_COMPLEXITY>
757

>  <PUBCHEM_CACTVS_HBOND_ACCEPTOR>
6

>  <PUBCHEM_CACTVS_HBOND_DONOR>
3

>  <PUBCHEM_CACTVS_ROTATABLE_BOND>
1

>  <PUBCHEM_CACTVS_SUBSKEYS>
AAADceB4OAAAAAAAAAAAAAAAAAAAAaMEAAAwQAAABggSAGDAAAAAGgAACAAAD1SggAICCAAABgCIAiDSCAAAAAAgAAAICAEAAAgAFBYAIQACUAAFoAAIMAPK7vzPgAAAAAAAAACAAAQAACAAAYAADAAAAA==

>  <PUBCHEM_IUPAC_INCHI>
InChI=1S/C19H22O6/c1-8-9-3-4-10-18(7-9,14(8)21)12(15(22)23)13-17(2)11(20)5-6-19(10,13)25-16(17)24/h5-6,9-14,20-21H,1,3-4,7H2,2H3,(H,22,23)

>  <PUBCHEM_IUPAC_INCHIKEY>
ZKSDYVWXHSIQFM-UHFFFAOYSA-N

>  <PUBCHEM_XLOGP3>
0.4

>  <PUBCHEM_EXACT_MASS>
346.142

>  <PUBCHEM_MOLECULAR_FORMULA>
C19H22O6

>  <PUBCHEM_MOLECULAR_WEIGHT>
346.379

>  <PUBCHEM_OPENEYE_CAN_SMILES>
CC12C(C=CC3(C1C(C45C3CCC(C4)C(=C)C5O)C(=O)O)OC2=O)O

>  <PUBCHEM_OPENEYE_ISO_SMILES>
CC12C(C=CC3(C1C(C45C3CCC(C4)C(=C)C5O)C(=O)O)OC2=O)O

>  <PUBCHEM_CACTVS_TPSA>
104

>  <PUBCHEM_MONOISOTOPIC_WEIGHT>
346.142

>  <PUBCHEM_TOTAL_CHARGE>
0

>  <PUBCHEM_HEAVY_ATOM_COUNT>
25

>  <PUBCHEM_ATOM_DEF_STEREO_COUNT>
0

>  <PUBCHEM_ATOM_UDEF_STEREO_COUNT>
9

>  <PUBCHEM_BOND_DEF_STEREO_COUNT>
0

>  <PUBCHEM_BOND_UDEF_STEREO_COUNT>
0

>  <PUBCHEM_ISOTOPIC_ATOM_COUNT>
0

>  <PUBCHEM_COMPONENT_COUNT>
1

>  <PUBCHEM_CACTVS_TAUTO_COUNT>
1

>  <PUBCHEM_COORDINATE_TYPE>
1
5
255

>  <PUBCHEM_BONDANNOTATIONS>
10  19  3
11  22  3
15  12  3
13  23  3
14  2  3
20  3  3
7  12  3
8  16  3
9  11  3

$$$$
