14605567
 OpenBabel06101807152D

 51 55  0  0  1  0  0  0  0  0999 V2000
    5.6914   -0.7862    0.0000 O   0  0  0  0  0  0  0  0  0  0  0  0
    2.6198   -2.4506    0.0000 O   0  0  0  0  0  0  0  0  0  0  0  0
    7.4068   -0.3666    0.0000 O   0  0  0  0  0  0  0  0  0  0  0  0
    5.3245   -2.6221    0.0000 O   0  0  0  0  0  0  0  0  0  0  0  0
    6.7075   -1.9512    0.0000 O   0  0  0  0  0  0  0  0  0  0  0  0
    5.8209    0.4315    0.0000 C   0  0  3  0  0  0  0  0  0  0  0  0
    4.2348    0.1450    0.0000 C   0  0  3  0  0  0  0  0  0  0  0  0
    4.9199    0.8653    0.0000 C   0  0  3  0  0  0  0  0  0  0  0  0
    4.7066   -0.7299    0.0000 C   0  0  3  0  0  0  0  0  0  0  0  0
    5.6849   -0.5533    0.0000 C   0  0  3  0  0  0  0  0  0  0  0  0
    4.1767   -1.6195    0.0000 C   0  0  3  0  0  0  0  0  0  0  0  0
    5.7140    1.6082    0.0000 C   0  0  0  0  0  0  0  0  0  0  0  0
    6.7218    0.8653    0.0000 C   0  0  0  0  0  0  0  0  0  0  0  0
    4.6974    1.8403    0.0000 C   0  0  0  0  0  0  0  0  0  0  0  0
    3.2003    0.1911    0.0000 C   0  0  0  0  0  0  0  0  0  0  0  0
    6.3209    2.6221    0.0000 C   0  0  3  0  0  0  0  0  0  0  0  0
    5.2281    0.0940    0.0000 C   0  0  0  0  0  0  0  0  0  0  0  0
    5.3209    2.6221    0.0000 C   0  0  0  0  0  0  0  0  0  0  0  0
    3.1415   -1.5974    0.0000 C   0  0  3  0  0  0  0  0  0  0  0  0
    6.9444    1.8403    0.0000 C   0  0  0  0  0  0  0  0  0  0  0  0
    2.6500   -0.6860    0.0000 C   0  0  0  0  0  0  0  0  0  0  0  0
    5.1712   -1.6339    0.0000 C   0  0  0  0  0  0  0  0  0  0  0  0
    6.5997   -0.9570    0.0000 C   0  0  0  0  0  0  0  0  0  0  0  0
    4.1588   -2.6194    0.0000 C   0  0  0  0  0  0  0  0  0  0  0  0
    7.9193    2.0628    0.0000 C   0  0  0  0  0  0  0  0  0  0  0  0
    5.4046    1.2519    0.0000 H   0  0  0  0  0  0  0  0  0  0  0  0
    5.0598   -1.2395    0.0000 H   0  0  0  0  0  0  0  0  0  0  0  0
    5.6116   -1.1689    0.0000 H   0  0  0  0  0  0  0  0  0  0  0  0
    5.3062    2.0752    0.0000 H   0  0  0  0  0  0  0  0  0  0  0  0
    5.1440    1.3644    0.0000 H   0  0  0  0  0  0  0  0  0  0  0  0
    6.8598    0.2609    0.0000 H   0  0  0  0  0  0  0  0  0  0  0  0
    7.3418    0.8653    0.0000 H   0  0  0  0  0  0  0  0  0  0  0  0
    4.3108    2.3250    0.0000 H   0  0  0  0  0  0  0  0  0  0  0  0
    4.1388    1.5713    0.0000 H   0  0  0  0  0  0  0  0  0  0  0  0
    3.3335    0.7966    0.0000 H   0  0  0  0  0  0  0  0  0  0  0  0
    2.6265    0.4259    0.0000 H   0  0  0  0  0  0  0  0  0  0  0  0
    6.5899    3.1807    0.0000 H   0  0  0  0  0  0  0  0  0  0  0  0
    5.8193    0.2807    0.0000 H   0  0  0  0  0  0  0  0  0  0  0  0
    5.1494    0.7090    0.0000 H   0  0  0  0  0  0  0  0  0  0  0  0
    5.4588    3.2266    0.0000 H   0  0  0  0  0  0  0  0  0  0  0  0
    4.7623    2.8911    0.0000 H   0  0  0  0  0  0  0  0  0  0  0  0
    3.4389   -2.1414    0.0000 H   0  0  0  0  0  0  0  0  0  0  0  0
    2.1890   -0.2715    0.0000 H   0  0  0  0  0  0  0  0  0  0  0  0
    2.1627   -1.0693    0.0000 H   0  0  0  0  0  0  0  0  0  0  0  0
    3.5389   -2.6083    0.0000 H   0  0  0  0  0  0  0  0  0  0  0  0
    4.1477   -3.2393    0.0000 H   0  0  0  0  0  0  0  0  0  0  0  0
    4.7787   -2.6305    0.0000 H   0  0  0  0  0  0  0  0  0  0  0  0
    8.3410    1.6083    0.0000 H   0  0  0  0  0  0  0  0  0  0  0  0
    8.1020    2.6552    0.0000 H   0  0  0  0  0  0  0  0  0  0  0  0
    2.0000   -2.4350    0.0000 H   0  0  0  0  0  0  0  0  0  0  0  0
    7.9740   -0.6170    0.0000 H   0  0  0  0  0  0  0  0  0  0  0  0
  1 17  1  0  0  0  0
  1 22  1  0  0  0  0
  2 19  1  0  0  0  0
  2 50  1  0  0  0  0
  3 23  1  0  0  0  0
  3 51  1  0  0  0  0
  4 22  2  0  0  0  0
  5 23  2  0  0  0  0
  6  8  1  0  0  0  0
  6 10  1  0  0  0  0
  6 12  1  0  0  0  0
  6 13  1  0  0  0  0
  7  8  1  0  0  0  0
  7  9  1  0  0  0  0
  7 15  1  0  0  0  0
  7 17  1  0  0  0  0
  8 14  1  0  0  0  0
  8 26  1  0  0  0  0
  9 10  1  0  0  0  0
  9 11  1  0  0  0  0
  9 27  1  0  0  0  0
 10 23  1  0  0  0  0
 10 28  1  0  0  0  0
 11 19  1  0  0  0  0
 11 22  1  0  0  0  0
 11 24  1  0  0  0  0
 12 16  1  0  0  0  0
 12 29  1  0  0  0  0
 12 30  1  0  0  0  0
 13 20  1  0  0  0  0
 13 31  1  0  0  0  0
 13 32  1  0  0  0  0
 14 18  1  0  0  0  0
 14 33  1  0  0  0  0
 14 34  1  0  0  0  0
 15 21  1  0  0  0  0
 15 35  1  0  0  0  0
 15 36  1  0  0  0  0
 16 18  1  0  0  0  0
 16 20  1  0  0  0  0
 16 37  1  0  0  0  0
 17 38  1  0  0  0  0
 17 39  1  0  0  0  0
 18 40  1  0  0  0  0
 18 41  1  0  0  0  0
 19 21  1  0  0  0  0
 19 42  1  0  0  0  0
 20 25  2  0  0  0  0
 21 43  1  0  0  0  0
 21 44  1  0  0  0  0
 24 45  1  0  0  0  0
 24 46  1  0  0  0  0
 24 47  1  0  0  0  0
 25 48  1  0  0  0  0
 25 49  1  0  0  0  0
M  END
>  <PUBCHEM_COMPOUND_CID>
14605567

>  <PUBCHEM_COMPOUND_CANONICALIZED>
1

>  <PUBCHEM_CACTVS_COMPLEXITY>
700

>  <PUBCHEM_CACTVS_HBOND_ACCEPTOR>
5

>  <PUBCHEM_CACTVS_HBOND_DONOR>
2

>  <PUBCHEM_CACTVS_ROTATABLE_BOND>
1

>  <PUBCHEM_CACTVS_SUBSKEYS>
AAADceB4OAAAAAAAAAAAAAAAAAAAAYMAAAA0YIAABgASAGjAAAAAGgAACAAADxSggAICCAAABgCIAgDSCAAAAAAgAAAAAAEAAAgAEBYAAQACQAAFoAAAAAGI7vzPgAAAAAAAAADAAAYAADAAAQAACAAAAA==

>  <PUBCHEM_IUPAC_INCHI>
InChI=1S/C20H26O5/c1-10-7-20-8-11(10)3-4-12(20)19-6-5-13(21)18(2,17(24)25-9-19)15(19)14(20)16(22)23/h11-15,21H,1,3-9H2,2H3,(H,22,23)

>  <PUBCHEM_IUPAC_INCHIKEY>
QYXZQZMPZUEEML-UHFFFAOYSA-N

>  <PUBCHEM_XLOGP3_AA>
2.1

>  <PUBCHEM_EXACT_MASS>
346.178

>  <PUBCHEM_MOLECULAR_FORMULA>
C20H26O5

>  <PUBCHEM_MOLECULAR_WEIGHT>
346.423

>  <PUBCHEM_OPENEYE_CAN_SMILES>
CC12C(CCC3(C1C(C45C3CCC(C4)C(=C)C5)C(=O)O)COC2=O)O

>  <PUBCHEM_OPENEYE_ISO_SMILES>
CC12C(CCC3(C1C(C45C3CCC(C4)C(=C)C5)C(=O)O)COC2=O)O

>  <PUBCHEM_CACTVS_TPSA>
83.8

>  <PUBCHEM_MONOISOTOPIC_WEIGHT>
346.178

>  <PUBCHEM_TOTAL_CHARGE>
0

>  <PUBCHEM_HEAVY_ATOM_COUNT>
25

>  <PUBCHEM_ATOM_DEF_STEREO_COUNT>
0

>  <PUBCHEM_ATOM_UDEF_STEREO_COUNT>
8

>  <PUBCHEM_BOND_DEF_STEREO_COUNT>
0

>  <PUBCHEM_BOND_UDEF_STEREO_COUNT>
0

>  <PUBCHEM_ISOTOPIC_ATOM_COUNT>
0

>  <PUBCHEM_COMPONENT_COUNT>
1

>  <PUBCHEM_CACTVS_TAUTO_COUNT>
1

>  <PUBCHEM_COORDINATE_TYPE>
1
5
255

>  <PUBCHEM_BONDANNOTATIONS>
10  23  3
11  24  3
16  12  3
19  2  3
6  12  3
7  17  3
8  14  3
9  10  3

$$$$
