14605551
 OpenBabel06101807152D

 48 52  0  0  1  0  0  0  0  0999 V2000
    5.5162    1.0057    0.0000 O   0  0  0  0  0  0  0  0  0  0  0  0
    6.0117   -2.4003    0.0000 O   0  0  0  0  0  0  0  0  0  0  0  0
    7.9380    1.5623    0.0000 O   0  0  0  0  0  0  0  0  0  0  0  0
    4.4394    2.2341    0.0000 O   0  0  0  0  0  0  0  0  0  0  0  0
    6.1653    2.0886    0.0000 O   0  0  0  0  0  0  0  0  0  0  0  0
    4.4481    0.1174    0.0000 C   0  0  3  0  0  0  0  0  0  0  0  0
    5.6621   -0.7282    0.0000 C   0  0  3  0  0  0  0  0  0  0  0  0
    4.7500   -0.7498    0.0000 C   0  0  3  0  0  0  0  0  0  0  0  0
    5.9251    0.1458    0.0000 C   0  0  3  0  0  0  0  0  0  0  0  0
    5.1763    0.6666    0.0000 C   0  0  3  0  0  0  0  0  0  0  0  0
    6.8424    0.3618    0.0000 C   0  0  3  0  0  0  0  0  0  0  0  0
    3.7521   -0.7150    0.0000 C   0  0  0  0  0  0  0  0  0  0  0  0
    3.5812    0.4221    0.0000 C   0  0  0  0  0  0  0  0  0  0  0  0
    4.2598   -1.5263    0.0000 C   0  0  0  0  0  0  0  0  0  0  0  0
    6.2999   -1.4428    0.0000 C   0  0  3  0  0  0  0  0  0  0  0  0
    2.6992   -0.9776    0.0000 C   0  0  3  0  0  0  0  0  0  0  0  0
    3.3475   -1.6276    0.0000 C   0  0  0  0  0  0  0  0  0  0  0  0
    7.4875   -0.3243    0.0000 C   0  0  0  0  0  0  0  0  0  0  0  0
    2.8036   -0.0650    0.0000 C   0  0  0  0  0  0  0  0  0  0  0  0
    7.2160   -1.2270    0.0000 C   0  0  0  0  0  0  0  0  0  0  0  0
    7.1072    1.0057    0.0000 C   0  0  0  0  0  0  0  0  0  0  0  0
    5.2603    1.6631    0.0000 C   0  0  0  0  0  0  0  0  0  0  0  0
    7.8258    0.5430    0.0000 C   0  0  0  0  0  0  0  0  0  0  0  0
    2.0000    0.5302    0.0000 C   0  0  0  0  0  0  0  0  0  0  0  0
    5.0558   -1.2892    0.0000 H   0  0  0  0  0  0  0  0  0  0  0  0
    6.0411    0.7549    0.0000 H   0  0  0  0  0  0  0  0  0  0  0  0
    4.6335    0.9663    0.0000 H   0  0  0  0  0  0  0  0  0  0  0  0
    3.7092   -1.3335    0.0000 H   0  0  0  0  0  0  0  0  0  0  0  0
    4.3272   -0.9466    0.0000 H   0  0  0  0  0  0  0  0  0  0  0  0
    3.9118    0.9466    0.0000 H   0  0  0  0  0  0  0  0  0  0  0  0
    3.1434    0.8611    0.0000 H   0  0  0  0  0  0  0  0  0  0  0  0
    4.1892   -2.1423    0.0000 H   0  0  0  0  0  0  0  0  0  0  0  0
    4.8446   -1.7322    0.0000 H   0  0  0  0  0  0  0  0  0  0  0  0
    5.6946   -1.5770    0.0000 H   0  0  0  0  0  0  0  0  0  0  0  0
    2.1137   -1.1814    0.0000 H   0  0  0  0  0  0  0  0  0  0  0  0
    2.8220   -1.9567    0.0000 H   0  0  0  0  0  0  0  0  0  0  0  0
    3.5514   -2.2131    0.0000 H   0  0  0  0  0  0  0  0  0  0  0  0
    8.0412   -0.6034    0.0000 H   0  0  0  0  0  0  0  0  0  0  0  0
    7.8585    0.1724    0.0000 H   0  0  0  0  0  0  0  0  0  0  0  0
    7.2512   -1.8460    0.0000 H   0  0  0  0  0  0  0  0  0  0  0  0
    7.8318   -1.2998    0.0000 H   0  0  0  0  0  0  0  0  0  0  0  0
    7.9382   -0.0667    0.0000 H   0  0  0  0  0  0  0  0  0  0  0  0
    8.4356    0.6554    0.0000 H   0  0  0  0  0  0  0  0  0  0  0  0
    7.7135    1.1528    0.0000 H   0  0  0  0  0  0  0  0  0  0  0  0
    6.4365   -2.8519    0.0000 H   0  0  0  0  0  0  0  0  0  0  0  0
    2.0704    1.1462    0.0000 H   0  0  0  0  0  0  0  0  0  0  0  0
    1.4313    0.2832    0.0000 H   0  0  0  0  0  0  0  0  0  0  0  0
    4.4915    2.8519    0.0000 H   0  0  0  0  0  0  0  0  0  0  0  0
  1  7  1  0  0  0  0
  1 21  1  0  0  0  0
  2 15  1  0  0  0  0
  2 45  1  0  0  0  0
  3 21  2  0  0  0  0
  4 22  1  0  0  0  0
  4 48  1  0  0  0  0
  5 22  2  0  0  0  0
  6  8  1  0  0  0  0
  6 10  1  0  0  0  0
  6 12  1  0  0  0  0
  6 13  1  0  0  0  0
  7  8  1  0  0  0  0
  7  9  1  0  0  0  0
  7 15  1  0  0  0  0
  8 14  1  0  0  0  0
  8 25  1  0  0  0  0
  9 10  1  0  0  0  0
  9 11  1  0  0  0  0
  9 26  1  0  0  0  0
 10 22  1  0  0  0  0
 10 27  1  0  0  0  0
 11 18  1  0  0  0  0
 11 21  1  0  0  0  0
 11 23  1  0  0  0  0
 12 16  1  0  0  0  0
 12 28  1  0  0  0  0
 12 29  1  0  0  0  0
 13 19  1  0  0  0  0
 13 30  1  0  0  0  0
 13 31  1  0  0  0  0
 14 17  1  0  0  0  0
 14 32  1  0  0  0  0
 14 33  1  0  0  0  0
 15 20  1  0  0  0  0
 15 34  1  0  0  0  0
 16 17  1  0  0  0  0
 16 19  1  0  0  0  0
 16 35  1  0  0  0  0
 17 36  1  0  0  0  0
 17 37  1  0  0  0  0
 18 20  1  0  0  0  0
 18 38  1  0  0  0  0
 18 39  1  0  0  0  0
 19 24  2  0  0  0  0
 20 40  1  0  0  0  0
 20 41  1  0  0  0  0
 23 42  1  0  0  0  0
 23 43  1  0  0  0  0
 23 44  1  0  0  0  0
 24 46  1  0  0  0  0
 24 47  1  0  0  0  0
M  END
>  <PUBCHEM_COMPOUND_CID>
14605551

>  <PUBCHEM_COMPOUND_CANONICALIZED>
1

>  <PUBCHEM_CACTVS_COMPLEXITY>
685

>  <PUBCHEM_CACTVS_HBOND_ACCEPTOR>
5

>  <PUBCHEM_CACTVS_HBOND_DONOR>
2

>  <PUBCHEM_CACTVS_ROTATABLE_BOND>
1

>  <PUBCHEM_CACTVS_SUBSKEYS>
AAADceB4OAAAAAAAAAAAAAAAAAAAAaMEAAAwYAAABogSAGDAAAAAGgAACAAAD1SggAICCAAABgCIAgDSCAAAAAAgAAAAAAEAAAgBEBIAAQACQAAEgAADAAHK7vzPgAAAAAAAAADAAAYAADCAAYAADAAAAA==

>  <PUBCHEM_IUPAC_INCHI>
InChI=1S/C19H24O5/c1-9-7-18-8-10(9)3-4-11(18)19-12(20)5-6-17(2,16(23)24-19)14(19)13(18)15(21)22/h10-14,20H,1,3-8H2,2H3,(H,21,22)

>  <PUBCHEM_IUPAC_INCHIKEY>
JKQCGVABHHQYKQ-UHFFFAOYSA-N

>  <PUBCHEM_XLOGP3_AA>
1.7

>  <PUBCHEM_EXACT_MASS>
332.162

>  <PUBCHEM_MOLECULAR_FORMULA>
C19H24O5

>  <PUBCHEM_MOLECULAR_WEIGHT>
332.396

>  <PUBCHEM_OPENEYE_CAN_SMILES>
CC12CCC(C3(C1C(C45C3CCC(C4)C(=C)C5)C(=O)O)OC2=O)O

>  <PUBCHEM_OPENEYE_ISO_SMILES>
CC12CCC(C3(C1C(C45C3CCC(C4)C(=C)C5)C(=O)O)OC2=O)O

>  <PUBCHEM_CACTVS_TPSA>
83.8

>  <PUBCHEM_MONOISOTOPIC_WEIGHT>
332.162

>  <PUBCHEM_TOTAL_CHARGE>
0

>  <PUBCHEM_HEAVY_ATOM_COUNT>
24

>  <PUBCHEM_ATOM_DEF_STEREO_COUNT>
0

>  <PUBCHEM_ATOM_UDEF_STEREO_COUNT>
8

>  <PUBCHEM_BOND_DEF_STEREO_COUNT>
0

>  <PUBCHEM_BOND_UDEF_STEREO_COUNT>
0

>  <PUBCHEM_ISOTOPIC_ATOM_COUNT>
0

>  <PUBCHEM_COMPONENT_COUNT>
1

>  <PUBCHEM_CACTVS_TAUTO_COUNT>
1

>  <PUBCHEM_COORDINATE_TYPE>
1
5
255

>  <PUBCHEM_BONDANNOTATIONS>
7  1  3
10  22  3
11  23  3
16  12  3
15  2  3
6  12  3
8  14  3
9  10  3

$$$$
