14604080
 OpenBabel06101807152D

 47 49  0  0  0  0  0  0  0  0999 V2000
    8.0901   -1.9917    0.0000 O   0  0  0  0  0  0  0  0  0  0  0  0
    6.3301    1.0429    0.0000 O   0  0  0  0  0  0  0  0  0  0  0  0
    4.5981   -1.9571    0.0000 O   0  0  0  0  0  0  0  0  0  0  0  0
    8.0785    1.0775    0.0000 O   0  0  0  0  0  0  0  0  0  0  0  0
   10.7321   -1.4296    0.0000 O   0  0  0  0  0  0  0  0  0  0  0  0
   12.4525    1.5771    0.0000 O   0  0  0  0  0  0  0  0  0  0  0  0
    7.1962   -0.4571    0.0000 C   0  0  0  0  0  0  0  0  0  0  0  0
    5.4641   -0.4571    0.0000 C   0  0  0  0  0  0  0  0  0  0  0  0
    6.3301    0.0429    0.0000 C   0  0  0  0  0  0  0  0  0  0  0  0
    7.1962   -1.4571    0.0000 C   0  0  0  0  0  0  0  0  0  0  0  0
    4.5981    0.0429    0.0000 C   0  0  0  0  0  0  0  0  0  0  0  0
    8.9962   -0.4363    0.0000 C   0  0  0  0  0  0  0  0  0  0  0  0
    8.0901    0.0776    0.0000 C   0  0  0  0  0  0  0  0  0  0  0  0
    5.4641   -1.4571    0.0000 C   0  0  0  0  0  0  0  0  0  0  0  0
    6.3301   -1.9571    0.0000 C   0  0  0  0  0  0  0  0  0  0  0  0
    9.8602    0.0671    0.0000 C   0  0  0  0  0  0  0  0  0  0  0  0
    8.9962   -1.4779    0.0000 C   0  0  0  0  0  0  0  0  0  0  0  0
    3.7320   -0.4571    0.0000 C   0  0  0  0  0  0  0  0  0  0  0  0
   10.7282   -0.4296    0.0000 C   0  0  0  0  0  0  0  0  0  0  0  0
    2.8660    0.0429    0.0000 C   0  0  0  0  0  0  0  0  0  0  0  0
    9.8564    1.0671    0.0000 C   0  0  0  0  0  0  0  0  0  0  0  0
   11.5923    0.0738    0.0000 C   0  0  0  0  0  0  0  0  0  0  0  0
   10.7205    1.5704    0.0000 C   0  0  0  0  0  0  0  0  0  0  0  0
   11.5884    1.0738    0.0000 C   0  0  0  0  0  0  0  0  0  0  0  0
    2.0000   -0.4571    0.0000 C   0  0  0  0  0  0  0  0  0  0  0  0
    2.8660    1.0429    0.0000 C   0  0  0  0  0  0  0  0  0  0  0  0
   12.4487    2.5771    0.0000 C   0  0  0  0  0  0  0  0  0  0  0  0
    4.9966    0.5179    0.0000 H   0  0  0  0  0  0  0  0  0  0  0  0
    4.1996    0.5179    0.0000 H   0  0  0  0  0  0  0  0  0  0  0  0
    6.3301   -2.5771    0.0000 H   0  0  0  0  0  0  0  0  0  0  0  0
    9.5319   -1.7900    0.0000 H   0  0  0  0  0  0  0  0  0  0  0  0
    3.7320   -1.0771    0.0000 H   0  0  0  0  0  0  0  0  0  0  0  0
    9.3183    1.3750    0.0000 H   0  0  0  0  0  0  0  0  0  0  0  0
    5.7932    1.3529    0.0000 H   0  0  0  0  0  0  0  0  0  0  0  0
   12.1304   -0.2342    0.0000 H   0  0  0  0  0  0  0  0  0  0  0  0
   10.7181    2.1904    0.0000 H   0  0  0  0  0  0  0  0  0  0  0  0
    4.5981   -2.5771    0.0000 H   0  0  0  0  0  0  0  0  0  0  0  0
    1.6900    0.0799    0.0000 H   0  0  0  0  0  0  0  0  0  0  0  0
    3.4860    1.0429    0.0000 H   0  0  0  0  0  0  0  0  0  0  0  0
    2.8660    1.6629    0.0000 H   0  0  0  0  0  0  0  0  0  0  0  0
    2.2460    1.0429    0.0000 H   0  0  0  0  0  0  0  0  0  0  0  0
    1.4631   -0.7671    0.0000 H   0  0  0  0  0  0  0  0  0  0  0  0
    2.3100   -0.9940    0.0000 H   0  0  0  0  0  0  0  0  0  0  0  0
   11.2702   -1.7375    0.0000 H   0  0  0  0  0  0  0  0  0  0  0  0
   13.0687    2.5795    0.0000 H   0  0  0  0  0  0  0  0  0  0  0  0
   12.4463    3.1971    0.0000 H   0  0  0  0  0  0  0  0  0  0  0  0
   11.8287    2.5747    0.0000 H   0  0  0  0  0  0  0  0  0  0  0  0
  1 10  1  0  0  0  0
  1 17  1  0  0  0  0
  2  9  1  0  0  0  0
  2 34  1  0  0  0  0
  3 14  1  0  0  0  0
  3 37  1  0  0  0  0
  4 13  2  0  0  0  0
  5 19  1  0  0  0  0
  5 44  1  0  0  0  0
  6 24  1  0  0  0  0
  6 27  1  0  0  0  0
  7  9  1  0  0  0  0
  7 10  2  0  0  0  0
  7 13  1  0  0  0  0
  8  9  2  0  0  0  0
  8 11  1  0  0  0  0
  8 14  1  0  0  0  0
 10 15  1  0  0  0  0
 11 18  1  0  0  0  0
 11 28  1  0  0  0  0
 11 29  1  0  0  0  0
 12 13  1  0  0  0  0
 12 16  1  0  0  0  0
 12 17  2  0  0  0  0
 14 15  2  0  0  0  0
 15 30  1  0  0  0  0
 16 19  2  0  0  0  0
 16 21  1  0  0  0  0
 17 31  1  0  0  0  0
 18 20  2  0  0  0  0
 18 32  1  0  0  0  0
 19 22  1  0  0  0  0
 20 25  1  0  0  0  0
 20 26  1  0  0  0  0
 21 23  2  0  0  0  0
 21 33  1  0  0  0  0
 22 24  2  0  0  0  0
 22 35  1  0  0  0  0
 23 24  1  0  0  0  0
 23 36  1  0  0  0  0
 25 38  1  0  0  0  0
 25 42  1  0  0  0  0
 25 43  1  0  0  0  0
 26 39  1  0  0  0  0
 26 40  1  0  0  0  0
 26 41  1  0  0  0  0
 27 45  1  0  0  0  0
 27 46  1  0  0  0  0
 27 47  1  0  0  0  0
M  END
>  <PUBCHEM_COMPOUND_CID>
14604080

>  <PUBCHEM_COMPOUND_CANONICALIZED>
1

>  <PUBCHEM_CACTVS_COMPLEXITY>
608

>  <PUBCHEM_CACTVS_HBOND_ACCEPTOR>
6

>  <PUBCHEM_CACTVS_HBOND_DONOR>
3

>  <PUBCHEM_CACTVS_ROTATABLE_BOND>
4

>  <PUBCHEM_CACTVS_SUBSKEYS>
AAADceB4OAAAAAAAAAAAAAAAAAAAAAAAAAAwYIAAAAAAAACBQAAAGgAACAAADASgmAIyBoAABgCIAqBSAAACCAAkIAAIiAEGCMgMJzaGNRqAcWAl4BUIuYeK7PzOIAACCAAIAABAAAQQABAAAAAAAAAAAA==

>  <PUBCHEM_IUPAC_OPENEYE_NAME>
5,7-dihydroxy-3-(2-hydroxy-4-methoxy-phenyl)-6-(3-methylbut-2-enyl)chromen-4-one

>  <PUBCHEM_IUPAC_CAS_NAME>
5,7-dihydroxy-3-(2-hydroxy-4-methoxyphenyl)-6-(3-methylbut-2-enyl)-1-benzopyran-4-one

>  <PUBCHEM_IUPAC_NAME>
5,7-dihydroxy-3-(2-hydroxy-4-methoxyphenyl)-6-(3-methylbut-2-enyl)chromen-4-one

>  <PUBCHEM_IUPAC_SYSTEMATIC_NAME>
3-(4-methoxy-2-oxidanyl-phenyl)-6-(3-methylbut-2-enyl)-5,7-bis(oxidanyl)chromen-4-one

>  <PUBCHEM_IUPAC_TRADITIONAL_NAME>
5,7-dihydroxy-3-(2-hydroxy-4-methoxy-phenyl)-6-(3-methylbut-2-enyl)chromone

>  <PUBCHEM_IUPAC_INCHI>
InChI=1S/C21H20O6/c1-11(2)4-6-14-17(23)9-18-19(20(14)24)21(25)15(10-27-18)13-7-5-12(26-3)8-16(13)22/h4-5,7-10,22-24H,6H2,1-3H3

>  <PUBCHEM_IUPAC_INCHIKEY>
STFVTZQCNYBLNE-UHFFFAOYSA-N

>  <PUBCHEM_XLOGP3_AA>
4.6

>  <PUBCHEM_EXACT_MASS>
368.126

>  <PUBCHEM_MOLECULAR_FORMULA>
C21H20O6

>  <PUBCHEM_MOLECULAR_WEIGHT>
368.385

>  <PUBCHEM_OPENEYE_CAN_SMILES>
CC(=CCC1=C(C=C2C(=C1O)C(=O)C(=CO2)C3=C(C=C(C=C3)OC)O)O)C

>  <PUBCHEM_OPENEYE_ISO_SMILES>
CC(=CCC1=C(C=C2C(=C1O)C(=O)C(=CO2)C3=C(C=C(C=C3)OC)O)O)C

>  <PUBCHEM_CACTVS_TPSA>
96.2

>  <PUBCHEM_MONOISOTOPIC_WEIGHT>
368.126

>  <PUBCHEM_TOTAL_CHARGE>
0

>  <PUBCHEM_HEAVY_ATOM_COUNT>
27

>  <PUBCHEM_ATOM_DEF_STEREO_COUNT>
0

>  <PUBCHEM_ATOM_UDEF_STEREO_COUNT>
0

>  <PUBCHEM_BOND_DEF_STEREO_COUNT>
0

>  <PUBCHEM_BOND_UDEF_STEREO_COUNT>
0

>  <PUBCHEM_ISOTOPIC_ATOM_COUNT>
0

>  <PUBCHEM_COMPONENT_COUNT>
1

>  <PUBCHEM_CACTVS_TAUTO_COUNT>
36

>  <PUBCHEM_COORDINATE_TYPE>
1
5
255

>  <PUBCHEM_BONDANNOTATIONS>
1  10  8
1  17  8
10  15  8
12  13  8
12  17  8
14  15  8
16  19  8
16  21  8
19  22  8
21  23  8
22  24  8
23  24  8
7  10  8
7  13  8
7  9  8
8  14  8
8  9  8

$$$$
