14604078
 OpenBabel06101807152D

 46 48  0  0  0  0  0  0  0  0999 V2000
    6.0290   -0.3017    0.0000 O   0  0  0  0  0  0  0  0  0  0  0  0
    2.5369   -0.2671    0.0000 O   0  0  0  0  0  0  0  0  0  0  0  0
    4.2690    2.7329    0.0000 O   0  0  0  0  0  0  0  0  0  0  0  0
    6.0174    2.7675    0.0000 O   0  0  0  0  0  0  0  0  0  0  0  0
   10.3914    3.2671    0.0000 O   0  0  0  0  0  0  0  0  0  0  0  0
    4.2690   -0.2671    0.0000 C   0  0  0  0  0  0  0  0  0  0  0  0
    5.1350    0.2329    0.0000 C   0  0  0  0  0  0  0  0  0  0  0  0
    5.1350    1.2329    0.0000 C   0  0  0  0  0  0  0  0  0  0  0  0
    4.2690   -1.2671    0.0000 C   0  0  0  0  0  0  0  0  0  0  0  0
    6.9350    1.2537    0.0000 C   0  0  0  0  0  0  0  0  0  0  0  0
    6.0290    1.7676    0.0000 C   0  0  0  0  0  0  0  0  0  0  0  0
    3.4030    0.2329    0.0000 C   0  0  0  0  0  0  0  0  0  0  0  0
    4.2690    1.7329    0.0000 C   0  0  0  0  0  0  0  0  0  0  0  0
    3.4030    1.2329    0.0000 C   0  0  0  0  0  0  0  0  0  0  0  0
    7.7991    1.7571    0.0000 C   0  0  0  0  0  0  0  0  0  0  0  0
    6.9350    0.2121    0.0000 C   0  0  0  0  0  0  0  0  0  0  0  0
    3.4030   -1.7671    0.0000 C   0  0  0  0  0  0  0  0  0  0  0  0
    3.4030   -2.7671    0.0000 C   0  0  0  0  0  0  0  0  0  0  0  0
    8.6671    1.2604    0.0000 C   0  0  0  0  0  0  0  0  0  0  0  0
    7.7953    2.7571    0.0000 C   0  0  0  0  0  0  0  0  0  0  0  0
    9.5312    1.7638    0.0000 C   0  0  0  0  0  0  0  0  0  0  0  0
    8.6594    3.2604    0.0000 C   0  0  0  0  0  0  0  0  0  0  0  0
    9.5273    2.7637    0.0000 C   0  0  0  0  0  0  0  0  0  0  0  0
    2.5369   -3.2671    0.0000 C   0  0  0  0  0  0  0  0  0  0  0  0
    4.2690   -3.2671    0.0000 C   0  0  0  0  0  0  0  0  0  0  0  0
   11.2593    2.7704    0.0000 C   0  0  0  0  0  0  0  0  0  0  0  0
    4.4810   -1.8497    0.0000 H   0  0  0  0  0  0  0  0  0  0  0  0
    4.8796   -1.1594    0.0000 H   0  0  0  0  0  0  0  0  0  0  0  0
    2.8660    1.5429    0.0000 H   0  0  0  0  0  0  0  0  0  0  0  0
    7.4708   -0.1000    0.0000 H   0  0  0  0  0  0  0  0  0  0  0  0
    2.8660   -1.4571    0.0000 H   0  0  0  0  0  0  0  0  0  0  0  0
    8.6694    0.6404    0.0000 H   0  0  0  0  0  0  0  0  0  0  0  0
    7.2571    3.0650    0.0000 H   0  0  0  0  0  0  0  0  0  0  0  0
   10.0693    1.4558    0.0000 H   0  0  0  0  0  0  0  0  0  0  0  0
    8.6570    3.8804    0.0000 H   0  0  0  0  0  0  0  0  0  0  0  0
    2.0000    0.0429    0.0000 H   0  0  0  0  0  0  0  0  0  0  0  0
    2.2269   -2.7301    0.0000 H   0  0  0  0  0  0  0  0  0  0  0  0
    2.0000   -3.5771    0.0000 H   0  0  0  0  0  0  0  0  0  0  0  0
    3.9590   -3.8040    0.0000 H   0  0  0  0  0  0  0  0  0  0  0  0
    4.8059   -3.5771    0.0000 H   0  0  0  0  0  0  0  0  0  0  0  0
    4.5790   -2.7301    0.0000 H   0  0  0  0  0  0  0  0  0  0  0  0
    2.8469   -3.8040    0.0000 H   0  0  0  0  0  0  0  0  0  0  0  0
    3.7320    3.0429    0.0000 H   0  0  0  0  0  0  0  0  0  0  0  0
   10.9514    2.2323    0.0000 H   0  0  0  0  0  0  0  0  0  0  0  0
   11.7975    2.4625    0.0000 H   0  0  0  0  0  0  0  0  0  0  0  0
   11.5673    3.3086    0.0000 H   0  0  0  0  0  0  0  0  0  0  0  0
  1  7  1  0  0  0  0
  1 16  1  0  0  0  0
  2 12  1  0  0  0  0
  2 36  1  0  0  0  0
  3 13  1  0  0  0  0
  3 43  1  0  0  0  0
  4 11  2  0  0  0  0
  5 23  1  0  0  0  0
  5 26  1  0  0  0  0
  6  7  2  0  0  0  0
  6  9  1  0  0  0  0
  6 12  1  0  0  0  0
  7  8  1  0  0  0  0
  8 11  1  0  0  0  0
  8 13  2  0  0  0  0
  9 17  1  0  0  0  0
  9 27  1  0  0  0  0
  9 28  1  0  0  0  0
 10 11  1  0  0  0  0
 10 15  1  0  0  0  0
 10 16  2  0  0  0  0
 12 14  2  0  0  0  0
 13 14  1  0  0  0  0
 14 29  1  0  0  0  0
 15 19  2  0  0  0  0
 15 20  1  0  0  0  0
 16 30  1  0  0  0  0
 17 18  2  0  0  0  0
 17 31  1  0  0  0  0
 18 24  1  0  0  0  0
 18 25  1  0  0  0  0
 19 21  1  0  0  0  0
 19 32  1  0  0  0  0
 20 22  2  0  0  0  0
 20 33  1  0  0  0  0
 21 23  2  0  0  0  0
 21 34  1  0  0  0  0
 22 23  1  0  0  0  0
 22 35  1  0  0  0  0
 24 37  1  0  0  0  0
 24 38  1  0  0  0  0
 24 42  1  0  0  0  0
 25 39  1  0  0  0  0
 25 40  1  0  0  0  0
 25 41  1  0  0  0  0
 26 44  1  0  0  0  0
 26 45  1  0  0  0  0
 26 46  1  0  0  0  0
M  END
>  <PUBCHEM_COMPOUND_CID>
14604078

>  <PUBCHEM_COMPOUND_CANONICALIZED>
1

>  <PUBCHEM_CACTVS_COMPLEXITY>
569

>  <PUBCHEM_CACTVS_HBOND_ACCEPTOR>
5

>  <PUBCHEM_CACTVS_HBOND_DONOR>
2

>  <PUBCHEM_CACTVS_ROTATABLE_BOND>
4

>  <PUBCHEM_CACTVS_SUBSKEYS>
AAADceB4OAAAAAAAAAAAAAAAAAAAAAAAAAAwYIAAAAAAAACBQAAAGgAACAAADASgmAIyBoAABgCIAqBSAAACCAAkIAAIiAEGCMgMJzaGNRqAcWAl4BUIuYeI7PzOIAACCAAIAABAAAQQABAAAAAAAAAAAA==

>  <PUBCHEM_IUPAC_OPENEYE_NAME>
5,7-dihydroxy-3-(4-methoxyphenyl)-8-(3-methylbut-2-enyl)chromen-4-one

>  <PUBCHEM_IUPAC_CAS_NAME>
5,7-dihydroxy-3-(4-methoxyphenyl)-8-(3-methylbut-2-enyl)-1-benzopyran-4-one

>  <PUBCHEM_IUPAC_NAME>
5,7-dihydroxy-3-(4-methoxyphenyl)-8-(3-methylbut-2-enyl)chromen-4-one

>  <PUBCHEM_IUPAC_SYSTEMATIC_NAME>
3-(4-methoxyphenyl)-8-(3-methylbut-2-enyl)-5,7-bis(oxidanyl)chromen-4-one

>  <PUBCHEM_IUPAC_TRADITIONAL_NAME>
5,7-dihydroxy-3-(4-methoxyphenyl)-8-(3-methylbut-2-enyl)chromone

>  <PUBCHEM_IUPAC_INCHI>
InChI=1S/C21H20O5/c1-12(2)4-9-15-17(22)10-18(23)19-20(24)16(11-26-21(15)19)13-5-7-14(25-3)8-6-13/h4-8,10-11,22-23H,9H2,1-3H3

>  <PUBCHEM_IUPAC_INCHIKEY>
DDLPIQXHEKZHQX-UHFFFAOYSA-N

>  <PUBCHEM_XLOGP3_AA>
4.9

>  <PUBCHEM_EXACT_MASS>
352.131

>  <PUBCHEM_MOLECULAR_FORMULA>
C21H20O5

>  <PUBCHEM_MOLECULAR_WEIGHT>
352.386

>  <PUBCHEM_OPENEYE_CAN_SMILES>
CC(=CCC1=C(C=C(C2=C1OC=C(C2=O)C3=CC=C(C=C3)OC)O)O)C

>  <PUBCHEM_OPENEYE_ISO_SMILES>
CC(=CCC1=C(C=C(C2=C1OC=C(C2=O)C3=CC=C(C=C3)OC)O)O)C

>  <PUBCHEM_CACTVS_TPSA>
76

>  <PUBCHEM_MONOISOTOPIC_WEIGHT>
352.131

>  <PUBCHEM_TOTAL_CHARGE>
0

>  <PUBCHEM_HEAVY_ATOM_COUNT>
26

>  <PUBCHEM_ATOM_DEF_STEREO_COUNT>
0

>  <PUBCHEM_ATOM_UDEF_STEREO_COUNT>
0

>  <PUBCHEM_BOND_DEF_STEREO_COUNT>
0

>  <PUBCHEM_BOND_UDEF_STEREO_COUNT>
0

>  <PUBCHEM_ISOTOPIC_ATOM_COUNT>
0

>  <PUBCHEM_COMPONENT_COUNT>
1

>  <PUBCHEM_CACTVS_TAUTO_COUNT>
12

>  <PUBCHEM_COORDINATE_TYPE>
1
5
255

>  <PUBCHEM_BONDANNOTATIONS>
1  16  8
1  7  8
10  11  8
10  16  8
12  14  8
13  14  8
15  19  8
15  20  8
19  21  8
20  22  8
21  23  8
22  23  8
6  12  8
6  7  8
7  8  8
8  11  8
8  13  8

$$$$
