14610540
 OpenBabel06101807152D

253259  0  0  1  0  0  0  0  0999 V2000
   29.3837   -6.9050    0.0000 O   0  0  0  0  0  0  0  0  0  0  0  0
   27.6517   -6.9050    0.0000 O   0  0  0  0  0  0  0  0  0  0  0  0
   24.1876    8.0950    0.0000 O   0  0  0  0  0  0  0  0  0  0  0  0
    6.8671   -8.9050    0.0000 O   0  0  0  0  0  0  0  0  0  0  0  0
   26.7856    8.5950    0.0000 O   0  0  0  0  0  0  0  0  0  0  0  0
    7.7331   -6.4050    0.0000 O   0  0  0  0  0  0  0  0  0  0  0  0
   29.3837   -3.9050    0.0000 O   0  0  0  0  0  0  0  0  0  0  0  0
   23.3215    9.5950    0.0000 O   0  0  0  0  0  0  0  0  0  0  0  0
    5.1350   -8.9050    0.0000 O   0  0  0  0  0  0  0  0  0  0  0  0
   25.9196    7.0950    0.0000 O   0  0  0  0  0  0  0  0  0  0  0  0
    8.5991   -7.9050    0.0000 O   0  0  0  0  0  0  0  0  0  0  0  0
   25.0536   -7.4050    0.0000 O   0  0  0  0  0  0  0  0  0  0  0  0
   24.1876   10.0950    0.0000 O   0  0  0  0  0  0  0  0  0  0  0  0
    5.1350   -7.9050    0.0000 O   0  0  0  0  0  0  0  0  0  0  0  0
   29.3837   -8.9050    0.0000 O   0  0  0  0  0  0  0  0  0  0  0  0
   25.9196   -8.9050    0.0000 O   0  0  0  0  0  0  0  0  0  0  0  0
   27.6517   -9.9050    0.0000 O   0  0  0  0  0  0  0  0  0  0  0  0
   27.6517   -5.9050    0.0000 O   0  0  0  0  0  0  0  0  0  0  0  0
   25.9196   11.0950    0.0000 O   0  0  0  0  0  0  0  0  0  0  0  0
    5.1350   -5.9050    0.0000 O   0  0  0  0  0  0  0  0  0  0  0  0
   24.1876   -5.9050    0.0000 O   0  0  0  0  0  0  0  0  0  0  0  0
   31.1158   -5.9050    0.0000 O   0  0  0  0  0  0  0  0  0  0  0  0
   31.1158   -3.9050    0.0000 O   0  0  0  0  0  0  0  0  0  0  0  0
   22.4555    7.0950    0.0000 O   0  0  0  0  0  0  0  0  0  0  0  0
    6.8671  -10.9050    0.0000 O   0  0  0  0  0  0  0  0  0  0  0  0
   20.7235    8.0950    0.0000 O   0  0  0  0  0  0  0  0  0  0  0  0
    5.1350  -11.9050    0.0000 O   0  0  0  0  0  0  0  0  0  0  0  0
   20.7235   10.0950    0.0000 O   0  0  0  0  0  0  0  0  0  0  0  0
    3.4030  -10.9050    0.0000 O   0  0  0  0  0  0  0  0  0  0  0  0
   21.5895   -7.4050    0.0000 O   0  0  0  0  0  0  0  0  0  0  0  0
   23.3215   -8.4050    0.0000 O   0  0  0  0  0  0  0  0  0  0  0  0
   27.6517   11.0950    0.0000 O   0  0  0  0  0  0  0  0  0  0  0  0
    6.0010   -4.4050    0.0000 O   0  0  0  0  0  0  0  0  0  0  0  0
   21.5895   -5.4050    0.0000 O   0  0  0  0  0  0  0  0  0  0  0  0
   21.5895   11.5950    0.0000 O   0  0  0  0  0  0  0  0  0  0  0  0
    2.5369   -9.4050    0.0000 O   0  0  0  0  0  0  0  0  0  0  0  0
   20.7235   -5.9050    0.0000 O   0  0  0  0  0  0  0  0  0  0  0  0
   25.0536    8.5950    0.0000 C   0  0  2  0  0  0  0  0  0  0  0  0
    6.8671   -7.9050    0.0000 C   0  0  2  0  0  0  0  0  0  0  0  0
   29.3837   -5.9050    0.0000 C   0  0  2  0  0  0  0  0  0  0  0  0
   28.5177   -7.4050    0.0000 C   0  0  2  0  0  0  0  0  0  0  0  0
   25.0536    9.5950    0.0000 C   0  0  2  0  0  0  0  0  0  0  0  0
    6.0010   -7.4050    0.0000 C   0  0  2  0  0  0  0  0  0  0  0  0
   28.5177   -8.4050    0.0000 C   0  0  1  0  0  0  0  0  0  0  0  0
   26.7856   -7.4050    0.0000 C   0  0  1  0  0  0  0  0  0  0  0  0
   27.6517   -8.9050    0.0000 C   0  0  2  0  0  0  0  0  0  0  0  0
   26.7856   -8.4050    0.0000 C   0  0  2  0  0  0  0  0  0  0  0  0
   25.9196    8.0950    0.0000 C   0  0  1  0  0  0  0  0  0  0  0  0
    7.7331   -7.4050    0.0000 C   0  0  1  0  0  0  0  0  0  0  0  0
   28.5177   -5.4050    0.0000 C   0  0  2  0  0  0  0  0  0  0  0  0
   25.9196   10.0950    0.0000 C   0  0  1  0  0  0  0  0  0  0  0  0
    6.0010   -6.4050    0.0000 C   0  0  1  0  0  0  0  0  0  0  0  0
   30.2497   -5.4050    0.0000 C   0  0  2  0  0  0  0  0  0  0  0  0
   26.7856    9.5950    0.0000 C   0  0  1  0  0  0  0  0  0  0  0  0
    6.8671   -5.9050    0.0000 C   0  0  1  0  0  0  0  0  0  0  0  0
   23.3215    8.5950    0.0000 C   0  0  2  0  0  0  0  0  0  0  0  0
    6.0010   -9.4050    0.0000 C   0  0  2  0  0  0  0  0  0  0  0  0
   28.5177   -4.4050    0.0000 C   0  0  2  0  0  0  0  0  0  0  0  0
   22.4555    8.0950    0.0000 C   0  0  1  0  0  0  0  0  0  0  0  0
    6.0010  -10.4050    0.0000 C   0  0  1  0  0  0  0  0  0  0  0  0
   21.5895    8.5950    0.0000 C   0  0  2  0  0  0  0  0  0  0  0  0
    5.1350  -10.9050    0.0000 C   0  0  2  0  0  0  0  0  0  0  0  0
   30.2497   -4.4050    0.0000 C   0  0  1  0  0  0  0  0  0  0  0  0
   21.5895    9.5950    0.0000 C   0  0  1  0  0  0  0  0  0  0  0  0
    4.2690  -10.4050    0.0000 C   0  0  1  0  0  0  0  0  0  0  0  0
   22.4555   10.0950    0.0000 C   0  0  1  0  0  0  0  0  0  0  0  0
    4.2690   -9.4050    0.0000 C   0  0  1  0  0  0  0  0  0  0  0  0
   25.9196   -6.9050    0.0000 C   0  0  0  0  0  0  0  0  0  0  0  0
   24.1876   -6.9050    0.0000 C   0  0  2  0  0  0  0  0  0  0  0  0
   26.7856    6.5950    0.0000 C   0  0  2  0  0  0  0  0  0  0  0  0
    9.4651   -7.4050    0.0000 C   0  0  2  0  0  0  0  0  0  0  0  0
   23.3215   -7.4050    0.0000 C   0  0  1  0  0  0  0  0  0  0  0  0
   22.4555   -6.9050    0.0000 C   0  0  1  0  0  0  0  0  0  0  0  0
   27.6517   10.0950    0.0000 C   0  0  0  0  0  0  0  0  0  0  0  0
    6.8671   -4.9050    0.0000 C   0  0  0  0  0  0  0  0  0  0  0  0
   22.4555   -5.9050    0.0000 C   0  0  2  0  0  0  0  0  0  0  0  0
   23.3215   -5.4050    0.0000 C   0  0  2  0  0  0  0  0  0  0  0  0
   27.6517   -3.9050    0.0000 C   0  0  0  0  0  0  0  0  0  0  0  0
   22.4555   11.0950    0.0000 C   0  0  0  0  0  0  0  0  0  0  0  0
    3.4030   -8.9050    0.0000 C   0  0  0  0  0  0  0  0  0  0  0  0
   27.6517    6.0950    0.0000 C   0  0  0  0  0  0  0  0  0  0  0  0
   10.3312   -6.9050    0.0000 C   0  0  0  0  0  0  0  0  0  0  0  0
   26.2856    5.7290    0.0000 C   0  0  0  0  0  0  0  0  0  0  0  0
    9.9651   -8.2710    0.0000 C   0  0  0  0  0  0  0  0  0  0  0  0
   27.2856    7.4610    0.0000 C   0  0  0  0  0  0  0  0  0  0  0  0
    8.9651   -6.5390    0.0000 C   0  0  0  0  0  0  0  0  0  0  0  0
   23.3215   -4.4050    0.0000 C   0  0  0  0  0  0  0  0  0  0  0  0
   27.6517    5.0950    0.0000 C   0  0  0  0  0  0  0  0  0  0  0  0
   11.1972   -7.4050    0.0000 C   0  0  0  0  0  0  0  0  0  0  0  0
   31.1158   -2.9050    0.0000 C   0  0  0  0  0  0  0  0  0  0  0  0
   31.9818   -2.4050    0.0000 C   0  0  0  0  0  0  0  0  0  0  0  0
   28.5177    4.5950    0.0000 C   0  0  0  0  0  0  0  0  0  0  0  0
   12.0632   -6.9050    0.0000 C   0  0  0  0  0  0  0  0  0  0  0  0
   28.2856    7.4610    0.0000 C   0  0  0  0  0  0  0  0  0  0  0  0
    9.4651   -5.6730    0.0000 C   0  0  0  0  0  0  0  0  0  0  0  0
   20.7235   -6.9050    0.0000 C   0  0  0  0  0  0  0  0  0  0  0  0
   28.5177    3.5950    0.0000 C   0  0  0  0  0  0  0  0  0  0  0  0
   12.9292   -7.4050    0.0000 C   0  0  0  0  0  0  0  0  0  0  0  0
   31.9818   -1.4050    0.0000 C   0  0  0  0  0  0  0  0  0  0  0  0
   32.8478   -2.9050    0.0000 C   0  0  0  0  0  0  0  0  0  0  0  0
   19.8574   -7.4050    0.0000 C   0  0  0  0  0  0  0  0  0  0  0  0
   29.3837    3.0950    0.0000 C   0  0  0  0  0  0  0  0  0  0  0  0
   13.7953   -6.9050    0.0000 C   0  0  0  0  0  0  0  0  0  0  0  0
   31.1158   -0.9050    0.0000 C   0  0  0  0  0  0  0  0  0  0  0  0
   27.6517    3.0950    0.0000 C   0  0  0  0  0  0  0  0  0  0  0  0
   12.9292   -8.4050    0.0000 C   0  0  0  0  0  0  0  0  0  0  0  0
   29.3837    2.0950    0.0000 C   0  0  0  0  0  0  0  0  0  0  0  0
   31.1158    0.0950    0.0000 C   0  0  0  0  0  0  0  0  0  0  0  0
   14.6613   -7.4050    0.0000 C   0  0  0  0  0  0  0  0  0  0  0  0
   18.9914   -6.9050    0.0000 C   0  0  0  0  0  0  0  0  0  0  0  0
   19.8574   -8.4050    0.0000 C   0  0  0  0  0  0  0  0  0  0  0  0
   30.2497    0.5950    0.0000 C   0  0  0  0  0  0  0  0  0  0  0  0
   30.2497    1.5950    0.0000 C   0  0  0  0  0  0  0  0  0  0  0  0
   18.1254   -7.4050    0.0000 C   0  0  0  0  0  0  0  0  0  0  0  0
   17.2594   -6.9050    0.0000 C   0  0  0  0  0  0  0  0  0  0  0  0
   15.5273   -6.9050    0.0000 C   0  0  0  0  0  0  0  0  0  0  0  0
   16.3933   -7.4050    0.0000 C   0  0  0  0  0  0  0  0  0  0  0  0
   29.3837    0.0950    0.0000 C   0  0  0  0  0  0  0  0  0  0  0  0
   16.3933   -8.4050    0.0000 C   0  0  0  0  0  0  0  0  0  0  0  0
   25.0536    7.9750    0.0000 H   0  0  0  0  0  0  0  0  0  0  0  0
    6.3301   -8.2150    0.0000 H   0  0  0  0  0  0  0  0  0  0  0  0
   29.9207   -6.2150    0.0000 H   0  0  0  0  0  0  0  0  0  0  0  0
   28.5177   -6.7850    0.0000 H   0  0  0  0  0  0  0  0  0  0  0  0
   25.0536   10.2150    0.0000 H   0  0  0  0  0  0  0  0  0  0  0  0
    5.4641   -7.0950    0.0000 H   0  0  0  0  0  0  0  0  0  0  0  0
   28.5177   -9.0250    0.0000 H   0  0  0  0  0  0  0  0  0  0  0  0
   26.7856   -6.7850    0.0000 H   0  0  0  0  0  0  0  0  0  0  0  0
   26.2487   -8.0950    0.0000 H   0  0  0  0  0  0  0  0  0  0  0  0
   27.1147   -9.2150    0.0000 H   0  0  0  0  0  0  0  0  0  0  0  0
   26.4566    7.7850    0.0000 H   0  0  0  0  0  0  0  0  0  0  0  0
    7.7331   -8.0250    0.0000 H   0  0  0  0  0  0  0  0  0  0  0  0
   28.5177   -6.0250    0.0000 H   0  0  0  0  0  0  0  0  0  0  0  0
   26.4566   10.4050    0.0000 H   0  0  0  0  0  0  0  0  0  0  0  0
    6.0010   -5.7850    0.0000 H   0  0  0  0  0  0  0  0  0  0  0  0
   30.7867   -5.0950    0.0000 H   0  0  0  0  0  0  0  0  0  0  0  0
   27.3226    9.2850    0.0000 H   0  0  0  0  0  0  0  0  0  0  0  0
    7.4040   -5.5950    0.0000 H   0  0  0  0  0  0  0  0  0  0  0  0
   23.3215    7.9750    0.0000 H   0  0  0  0  0  0  0  0  0  0  0  0
    6.5380   -9.7150    0.0000 H   0  0  0  0  0  0  0  0  0  0  0  0
   28.5177   -3.7850    0.0000 H   0  0  0  0  0  0  0  0  0  0  0  0
   21.9186    7.7850    0.0000 H   0  0  0  0  0  0  0  0  0  0  0  0
    6.0010  -11.0250    0.0000 H   0  0  0  0  0  0  0  0  0  0  0  0
   21.0526    8.9050    0.0000 H   0  0  0  0  0  0  0  0  0  0  0  0
    4.5981  -11.2150    0.0000 H   0  0  0  0  0  0  0  0  0  0  0  0
   30.2497   -3.7850    0.0000 H   0  0  0  0  0  0  0  0  0  0  0  0
   21.5895   10.2150    0.0000 H   0  0  0  0  0  0  0  0  0  0  0  0
    3.7320  -10.0950    0.0000 H   0  0  0  0  0  0  0  0  0  0  0  0
   22.9925   10.4050    0.0000 H   0  0  0  0  0  0  0  0  0  0  0  0
    4.2690   -8.7850    0.0000 H   0  0  0  0  0  0  0  0  0  0  0  0
   26.3182   -6.4300    0.0000 H   0  0  0  0  0  0  0  0  0  0  0  0
   25.5211   -6.4300    0.0000 H   0  0  0  0  0  0  0  0  0  0  0  0
   24.1876   -7.5250    0.0000 H   0  0  0  0  0  0  0  0  0  0  0  0
   22.7846   -7.7150    0.0000 H   0  0  0  0  0  0  0  0  0  0  0  0
   21.9186   -6.5950    0.0000 H   0  0  0  0  0  0  0  0  0  0  0  0
   27.8637    9.5124    0.0000 H   0  0  0  0  0  0  0  0  0  0  0  0
   28.2623   10.2027    0.0000 H   0  0  0  0  0  0  0  0  0  0  0  0
    7.4776   -5.0127    0.0000 H   0  0  0  0  0  0  0  0  0  0  0  0
    7.0791   -4.3224    0.0000 H   0  0  0  0  0  0  0  0  0  0  0  0
   22.4555   -5.2850    0.0000 H   0  0  0  0  0  0  0  0  0  0  0  0
   23.8585   -5.0950    0.0000 H   0  0  0  0  0  0  0  0  0  0  0  0
   27.9617   -3.3681    0.0000 H   0  0  0  0  0  0  0  0  0  0  0  0
   27.1147   -3.5950    0.0000 H   0  0  0  0  0  0  0  0  0  0  0  0
   27.3417   -4.4419    0.0000 H   0  0  0  0  0  0  0  0  0  0  0  0
   23.0661   10.9873    0.0000 H   0  0  0  0  0  0  0  0  0  0  0  0
   22.6676   11.6776    0.0000 H   0  0  0  0  0  0  0  0  0  0  0  0
    3.8015   -8.4300    0.0000 H   0  0  0  0  0  0  0  0  0  0  0  0
    3.0044   -8.4300    0.0000 H   0  0  0  0  0  0  0  0  0  0  0  0
   24.1876   10.7150    0.0000 H   0  0  0  0  0  0  0  0  0  0  0  0
    4.5981   -7.5950    0.0000 H   0  0  0  0  0  0  0  0  0  0  0  0
   29.9207   -8.5950    0.0000 H   0  0  0  0  0  0  0  0  0  0  0  0
   25.9196   -9.5250    0.0000 H   0  0  0  0  0  0  0  0  0  0  0  0
   28.1886  -10.2150    0.0000 H   0  0  0  0  0  0  0  0  0  0  0  0
   28.2623    5.9873    0.0000 H   0  0  0  0  0  0  0  0  0  0  0  0
   27.8637    6.6776    0.0000 H   0  0  0  0  0  0  0  0  0  0  0  0
   10.7297   -6.4300    0.0000 H   0  0  0  0  0  0  0  0  0  0  0  0
    9.9326   -6.4300    0.0000 H   0  0  0  0  0  0  0  0  0  0  0  0
   27.1147   -5.5950    0.0000 H   0  0  0  0  0  0  0  0  0  0  0  0
   25.3827   11.4050    0.0000 H   0  0  0  0  0  0  0  0  0  0  0  0
    4.5981   -6.2150    0.0000 H   0  0  0  0  0  0  0  0  0  0  0  0
   31.6527   -5.5950    0.0000 H   0  0  0  0  0  0  0  0  0  0  0  0
   21.9186    6.7850    0.0000 H   0  0  0  0  0  0  0  0  0  0  0  0
    6.8671  -11.5250    0.0000 H   0  0  0  0  0  0  0  0  0  0  0  0
   25.7487    6.0390    0.0000 H   0  0  0  0  0  0  0  0  0  0  0  0
   25.9756    5.1920    0.0000 H   0  0  0  0  0  0  0  0  0  0  0  0
   26.8226    5.4190    0.0000 H   0  0  0  0  0  0  0  0  0  0  0  0
    9.4282   -8.5810    0.0000 H   0  0  0  0  0  0  0  0  0  0  0  0
   10.2751   -8.8080    0.0000 H   0  0  0  0  0  0  0  0  0  0  0  0
   10.5021   -7.9610    0.0000 H   0  0  0  0  0  0  0  0  0  0  0  0
   20.1865    8.4050    0.0000 H   0  0  0  0  0  0  0  0  0  0  0  0
    4.5981  -12.2150    0.0000 H   0  0  0  0  0  0  0  0  0  0  0  0
   20.1865    9.7850    0.0000 H   0  0  0  0  0  0  0  0  0  0  0  0
    3.4030  -11.5250    0.0000 H   0  0  0  0  0  0  0  0  0  0  0  0
   26.9756    7.9980    0.0000 H   0  0  0  0  0  0  0  0  0  0  0  0
    8.3451   -6.5390    0.0000 H   0  0  0  0  0  0  0  0  0  0  0  0
   23.9415   -4.4050    0.0000 H   0  0  0  0  0  0  0  0  0  0  0  0
   23.3215   -3.7850    0.0000 H   0  0  0  0  0  0  0  0  0  0  0  0
   22.7015   -4.4050    0.0000 H   0  0  0  0  0  0  0  0  0  0  0  0
   27.0411    5.2027    0.0000 H   0  0  0  0  0  0  0  0  0  0  0  0
   27.4396    4.5124    0.0000 H   0  0  0  0  0  0  0  0  0  0  0  0
   10.7987   -7.8800    0.0000 H   0  0  0  0  0  0  0  0  0  0  0  0
   11.5957   -7.8800    0.0000 H   0  0  0  0  0  0  0  0  0  0  0  0
   30.9037   -2.3224    0.0000 H   0  0  0  0  0  0  0  0  0  0  0  0
   30.5052   -3.0127    0.0000 H   0  0  0  0  0  0  0  0  0  0  0  0
   22.7846   -8.7150    0.0000 H   0  0  0  0  0  0  0  0  0  0  0  0
   28.1886   11.4050    0.0000 H   0  0  0  0  0  0  0  0  0  0  0  0
    6.0010   -3.7850    0.0000 H   0  0  0  0  0  0  0  0  0  0  0  0
   21.5895   -4.7850    0.0000 H   0  0  0  0  0  0  0  0  0  0  0  0
   21.5895   12.2150    0.0000 H   0  0  0  0  0  0  0  0  0  0  0  0
    2.0000   -9.0950    0.0000 H   0  0  0  0  0  0  0  0  0  0  0  0
   29.0546    4.9050    0.0000 H   0  0  0  0  0  0  0  0  0  0  0  0
   12.0632   -6.2850    0.0000 H   0  0  0  0  0  0  0  0  0  0  0  0
   28.5956    6.9241    0.0000 H   0  0  0  0  0  0  0  0  0  0  0  0
   28.5956    7.9980    0.0000 H   0  0  0  0  0  0  0  0  0  0  0  0
   10.0851   -5.6730    0.0000 H   0  0  0  0  0  0  0  0  0  0  0  0
    9.1551   -5.1360    0.0000 H   0  0  0  0  0  0  0  0  0  0  0  0
   32.5187   -1.0950    0.0000 H   0  0  0  0  0  0  0  0  0  0  0  0
   32.5378   -3.4419    0.0000 H   0  0  0  0  0  0  0  0  0  0  0  0
   33.3848   -3.2150    0.0000 H   0  0  0  0  0  0  0  0  0  0  0  0
   33.1578   -2.3681    0.0000 H   0  0  0  0  0  0  0  0  0  0  0  0
   29.9943    2.9873    0.0000 H   0  0  0  0  0  0  0  0  0  0  0  0
   29.5958    3.6776    0.0000 H   0  0  0  0  0  0  0  0  0  0  0  0
   14.1938   -6.4300    0.0000 H   0  0  0  0  0  0  0  0  0  0  0  0
   13.3967   -6.4300    0.0000 H   0  0  0  0  0  0  0  0  0  0  0  0
   30.5052   -0.7973    0.0000 H   0  0  0  0  0  0  0  0  0  0  0  0
   30.9037   -1.4876    0.0000 H   0  0  0  0  0  0  0  0  0  0  0  0
   27.3417    3.6319    0.0000 H   0  0  0  0  0  0  0  0  0  0  0  0
   27.1147    2.7850    0.0000 H   0  0  0  0  0  0  0  0  0  0  0  0
   27.9617    2.5581    0.0000 H   0  0  0  0  0  0  0  0  0  0  0  0
   12.3092   -8.4050    0.0000 H   0  0  0  0  0  0  0  0  0  0  0  0
   12.9292   -9.0250    0.0000 H   0  0  0  0  0  0  0  0  0  0  0  0
   13.5492   -8.4050    0.0000 H   0  0  0  0  0  0  0  0  0  0  0  0
   28.7731    2.2027    0.0000 H   0  0  0  0  0  0  0  0  0  0  0  0
   29.1717    1.5124    0.0000 H   0  0  0  0  0  0  0  0  0  0  0  0
   31.7264   -0.0127    0.0000 H   0  0  0  0  0  0  0  0  0  0  0  0
   31.3278    0.6776    0.0000 H   0  0  0  0  0  0  0  0  0  0  0  0
   14.2628   -7.8800    0.0000 H   0  0  0  0  0  0  0  0  0  0  0  0
   15.0598   -7.8800    0.0000 H   0  0  0  0  0  0  0  0  0  0  0  0
   18.9914   -6.2850    0.0000 H   0  0  0  0  0  0  0  0  0  0  0  0
   19.2374   -8.4050    0.0000 H   0  0  0  0  0  0  0  0  0  0  0  0
   19.8574   -9.0250    0.0000 H   0  0  0  0  0  0  0  0  0  0  0  0
   20.4774   -8.4050    0.0000 H   0  0  0  0  0  0  0  0  0  0  0  0
   30.7867    1.9050    0.0000 H   0  0  0  0  0  0  0  0  0  0  0  0
   17.7269   -7.8800    0.0000 H   0  0  0  0  0  0  0  0  0  0  0  0
   18.5239   -7.8800    0.0000 H   0  0  0  0  0  0  0  0  0  0  0  0
   17.6579   -6.4300    0.0000 H   0  0  0  0  0  0  0  0  0  0  0  0
   16.8608   -6.4300    0.0000 H   0  0  0  0  0  0  0  0  0  0  0  0
   15.5273   -6.2850    0.0000 H   0  0  0  0  0  0  0  0  0  0  0  0
   29.0737    0.6319    0.0000 H   0  0  0  0  0  0  0  0  0  0  0  0
   28.8468   -0.2150    0.0000 H   0  0  0  0  0  0  0  0  0  0  0  0
   29.6937   -0.4419    0.0000 H   0  0  0  0  0  0  0  0  0  0  0  0
   15.7733   -8.4050    0.0000 H   0  0  0  0  0  0  0  0  0  0  0  0
   16.3933   -9.0250    0.0000 H   0  0  0  0  0  0  0  0  0  0  0  0
   17.0133   -8.4050    0.0000 H   0  0  0  0  0  0  0  0  0  0  0  0
  2 41  1  0  0  0  0
  2 45  1  0  0  0  0
  5 48  1  0  0  0  0
  5 54  1  0  0  0  0
  6 49  1  0  0  0  0
  6 55  1  0  0  0  0
  7 58  1  0  0  0  0
  7 63  1  0  0  0  0
  8 56  1  0  0  0  0
  8 66  1  0  0  0  0
  9 57  1  0  0  0  0
  9 67  1  0  0  0  0
 12 68  1  0  0  0  0
 13168  1  0  0  0  0
 14169  1  0  0  0  0
 15170  1  0  0  0  0
 16171  1  0  0  0  0
 17172  1  0  0  0  0
 18177  1  0  0  0  0
 19178  1  0  0  0  0
 20179  1  0  0  0  0
 21 69  1  0  0  0  0
 21 77  1  0  0  0  0
 22180  1  0  0  0  0
 23 90  1  0  0  0  0
 24181  1  0  0  0  0
 25182  1  0  0  0  0
 26189  1  0  0  0  0
 27190  1  0  0  0  0
 28191  1  0  0  0  0
 29192  1  0  0  0  0
 30 96  1  0  0  0  0
 31204  1  0  0  0  0
 32 74  1  0  0  0  0
 32205  1  0  0  0  0
 33 75  1  0  0  0  0
 33206  1  0  0  0  0
 34207  1  0  0  0  0
 35 79  1  0  0  0  0
 35208  1  0  0  0  0
 36 80  1  0  0  0  0
 36209  1  0  0  0  0
 37 96  2  0  0  0  0
 38  3  1  0  0  0  0
 38 42  1  1  0  0  0
 38120  1  0  0  0  0
 39  4  1  0  0  0  0
 39 43  1  6  0  0  0
 39121  1  0  0  0  0
 40  1  1  0  0  0  0
 40 50  1  1  0  0  0
 40122  1  0  0  0  0
 41  1  1  0  0  0  0
 41 44  1  6  0  0  0
 41123  1  0  0  0  0
 42 13  1  0  0  0  0
 42 51  1  1  0  0  0
 42124  1  0  0  0  0
 43 14  1  0  0  0  0
 43 52  1  1  0  0  0
 43125  1  0  0  0  0
 44 15  1  0  0  0  0
 44 46  1  6  0  0  0
 44126  1  0  0  0  0
 45 47  1  6  0  0  0
 45 68  1  0  0  0  0
 45127  1  0  0  0  0
 46 17  1  0  0  0  0
 46 47  1  1  0  0  0
 46129  1  0  0  0  0
 47 16  1  0  0  0  0
 47128  1  1  0  0  0
 48 10  1  0  0  0  0
 48 38  1  6  0  0  0
 48130  1  0  0  0  0
 49 11  1  0  0  0  0
 49 39  1  1  0  0  0
 49131  1  0  0  0  0
 50 18  1  0  0  0  0
 50 58  1  6  0  0  0
 50132  1  0  0  0  0
 51 19  1  0  0  0  0
 51 54  1  6  0  0  0
 51133  1  0  0  0  0
 52 20  1  0  0  0  0
 52 55  1  6  0  0  0
 52134  1  0  0  0  0
 53 22  1  0  0  0  0
 53 40  1  1  0  0  0
 53135  1  0  0  0  0
 54 74  1  0  0  0  0
 54136  1  6  0  0  0
 55 75  1  0  0  0  0
 55137  1  6  0  0  0
 56  3  1  0  0  0  0
 56 59  1  1  0  0  0
 56138  1  0  0  0  0
 57  4  1  0  0  0  0
 57 60  1  1  0  0  0
 57139  1  0  0  0  0
 58 78  1  0  0  0  0
 58140  1  1  0  0  0
 59 24  1  0  0  0  0
 59 61  1  6  0  0  0
 59141  1  0  0  0  0
 60 25  1  0  0  0  0
 60 62  1  6  0  0  0
 60142  1  0  0  0  0
 61 26  1  0  0  0  0
 61 64  1  1  0  0  0
 61143  1  0  0  0  0
 62 27  1  0  0  0  0
 62 65  1  1  0  0  0
 62144  1  0  0  0  0
 63 23  1  0  0  0  0
 63 53  1  6  0  0  0
 63145  1  0  0  0  0
 64 28  1  0  0  0  0
 64 66  1  6  0  0  0
 64146  1  0  0  0  0
 65 29  1  0  0  0  0
 65 67  1  6  0  0  0
 65147  1  0  0  0  0
 66 79  1  0  0  0  0
 66148  1  6  0  0  0
 67 80  1  0  0  0  0
 67149  1  6  0  0  0
 68150  1  0  0  0  0
 68151  1  0  0  0  0
 69 12  1  0  0  0  0
 69 72  1  1  0  0  0
 69152  1  0  0  0  0
 70 10  1  6  0  0  0
 70 81  1  0  0  0  0
 70 83  1  0  0  0  0
 70 85  1  0  0  0  0
 71 11  1  6  0  0  0
 71 82  1  0  0  0  0
 71 84  1  0  0  0  0
 71 86  1  0  0  0  0
 72 31  1  0  0  0  0
 72 73  1  6  0  0  0
 72153  1  0  0  0  0
 73 30  1  0  0  0  0
 73 76  1  6  0  0  0
 73154  1  0  0  0  0
 74155  1  0  0  0  0
 74156  1  0  0  0  0
 75157  1  0  0  0  0
 75158  1  0  0  0  0
 76 34  1  0  0  0  0
 76 77  1  1  0  0  0
 76159  1  0  0  0  0
 77 87  1  0  0  0  0
 77160  1  1  0  0  0
 78161  1  0  0  0  0
 78162  1  0  0  0  0
 78163  1  0  0  0  0
 79164  1  0  0  0  0
 79165  1  0  0  0  0
 80166  1  0  0  0  0
 80167  1  0  0  0  0
 81 88  1  0  0  0  0
 81173  1  0  0  0  0
 81174  1  0  0  0  0
 82 89  1  0  0  0  0
 82175  1  0  0  0  0
 82176  1  0  0  0  0
 83183  1  0  0  0  0
 83184  1  0  0  0  0
 83185  1  0  0  0  0
 84186  1  0  0  0  0
 84187  1  0  0  0  0
 84188  1  0  0  0  0
 85 94  2  0  0  0  0
 85193  1  0  0  0  0
 86 95  2  0  0  0  0
 86194  1  0  0  0  0
 87195  1  0  0  0  0
 87196  1  0  0  0  0
 87197  1  0  0  0  0
 88 92  1  0  0  0  0
 88198  1  0  0  0  0
 88199  1  0  0  0  0
 89 93  1  0  0  0  0
 89200  1  0  0  0  0
 89201  1  0  0  0  0
 90 91  1  0  0  0  0
 90202  1  0  0  0  0
 90203  1  0  0  0  0
 91 99  2  0  0  0  0
 91100  1  0  0  0  0
 92 97  2  0  0  0  0
 92210  1  0  0  0  0
 93 98  2  0  0  0  0
 93211  1  0  0  0  0
 94212  1  0  0  0  0
 94213  1  0  0  0  0
 95214  1  0  0  0  0
 95215  1  0  0  0  0
 96101  1  0  0  0  0
 97102  1  0  0  0  0
 97105  1  0  0  0  0
 98103  1  0  0  0  0
 98106  1  0  0  0  0
 99104  1  0  0  0  0
 99216  1  0  0  0  0
100217  1  0  0  0  0
100218  1  0  0  0  0
100219  1  0  0  0  0
101110  2  0  0  0  0
101111  1  0  0  0  0
102107  1  0  0  0  0
102220  1  0  0  0  0
102221  1  0  0  0  0
103109  1  0  0  0  0
103222  1  0  0  0  0
103223  1  0  0  0  0
104108  1  0  0  0  0
104224  1  0  0  0  0
104225  1  0  0  0  0
105226  1  0  0  0  0
105227  1  0  0  0  0
105228  1  0  0  0  0
106229  1  0  0  0  0
106230  1  0  0  0  0
106231  1  0  0  0  0
107113  1  0  0  0  0
107232  1  0  0  0  0
107233  1  0  0  0  0
108112  1  0  0  0  0
108234  1  0  0  0  0
108235  1  0  0  0  0
109116  1  0  0  0  0
109236  1  0  0  0  0
109237  1  0  0  0  0
110114  1  0  0  0  0
110238  1  0  0  0  0
111239  1  0  0  0  0
111240  1  0  0  0  0
111241  1  0  0  0  0
112113  2  0  0  0  0
112118  1  0  0  0  0
113242  1  0  0  0  0
114115  1  0  0  0  0
114243  1  0  0  0  0
114244  1  0  0  0  0
115117  1  0  0  0  0
115245  1  0  0  0  0
115246  1  0  0  0  0
116117  2  0  0  0  0
116247  1  0  0  0  0
117119  1  0  0  0  0
118248  1  0  0  0  0
118249  1  0  0  0  0
118250  1  0  0  0  0
119251  1  0  0  0  0
119252  1  0  0  0  0
119253  1  0  0  0  0
M  END
>  <PUBCHEM_COMPOUND_CID>
14610540

>  <PUBCHEM_COMPOUND_CANONICALIZED>
1

>  <PUBCHEM_CACTVS_COMPLEXITY>
3300

>  <PUBCHEM_CACTVS_HBOND_ACCEPTOR>
37

>  <PUBCHEM_CACTVS_HBOND_DONOR>
21

>  <PUBCHEM_CACTVS_ROTATABLE_BOND>
43

>  <PUBCHEM_CACTVS_SUBSKEYS>
AAADcfB8PgAAAAAAAAAAAAAAAAAAAAAAAAAkSJEiQAAAAAAAAAAAGgAACAAADFSwgAMCCAAABgCIAiDSCAAAAAAgAAAICAEAAEgRFAIAIQAiUAAFgAAPIYPAYAwMAAAAAAAAAAAAAAAAAAAAAAAAAAAAAA==

>  <PUBCHEM_IUPAC_OPENEYE_NAME>
[(2R,3R,4R,5S,6S)-2-[[(2R,3S,4S,5R,6S)-6-[(2R,3R,4R,5S,6S)-2-[(2Z,6E,10E,14S)-14-[(2S,3R,4S,5S,6R)-4,5-dihydroxy-6-(hydroxymethyl)-3-[(2S,3R,4S,5S,6R)-3,4,5-trihydroxy-6-(hydroxymethyl)tetrahydropyran-2-yl]oxy-tetrahydropyran-2-yl]oxy-2,6,10,14-tetramethyl-hexadeca-2,6,10,15-tetraenoxy]-3,5-dihydroxy-6-methyl-tetrahydropyran-4-yl]oxy-3,4,5-trihydroxy-tetrahydropyran-2-yl]methoxy]-3,5-dihydroxy-6-methyl-tetrahydropyran-4-yl] (2E,6E,10E,14S)-14-[(2S,3R,4S,5S,6R)-4,5-dihydroxy-6-(hydroxymethyl)-3-[(2S,3R,4S,5S,6R)-3,4,5-trihydroxy-6-(hydroxymethyl)tetrahydropyran-2-yl]oxy-tetrahydropyran-2-yl]oxy-2,6,10,14-tetramethyl-hexadeca-2,6,10,15-tetraenoate

>  <PUBCHEM_IUPAC_CAS_NAME>
(2E,6E,10E,14S)-14-[[(2S,3R,4S,5S,6R)-4,5-dihydroxy-6-(hydroxymethyl)-3-[[(2S,3R,4S,5S,6R)-3,4,5-trihydroxy-6-(hydroxymethyl)-2-oxanyl]oxy]-2-oxanyl]oxy]-2,6,10,14-tetramethylhexadeca-2,6,10,15-tetraenoic acid [(2R,3R,4R,5S,6S)-2-[[(2R,3S,4S,5R,6S)-6-[[(2R,3R,4R,5S,6S)-2-[(2Z,6E,10E,14S)-14-[[(2S,3R,4S,5S,6R)-4,5-dihydroxy-6-(hydroxymethyl)-3-[[(2S,3R,4S,5S,6R)-3,4,5-trihydroxy-6-(hydroxymethyl)-2-oxanyl]oxy]-2-oxanyl]oxy]-2,6,10,14-tetramethylhexadeca-2,6,10,15-tetraenoxy]-3,5-dihydroxy-6-methyl-4-oxanyl]oxy]-3,4,5-trihydroxy-2-oxanyl]methoxy]-3,5-dihydroxy-6-methyl-4-oxanyl] ester

>  <PUBCHEM_IUPAC_NAME>
[(2R,3R,4R,5S,6S)-2-[[(2R,3S,4S,5R,6S)-6-[(2R,3R,4R,5S,6S)-2-[(2Z,6E,10E,14S)-14-[(2S,3R,4S,5S,6R)-4,5-dihydroxy-6-(hydroxymethyl)-3-[(2S,3R,4S,5S,6R)-3,4,5-trihydroxy-6-(hydroxymethyl)oxan-2-yl]oxyoxan-2-yl]oxy-2,6,10,14-tetramethylhexadeca-2,6,10,15-tetraenoxy]-3,5-dihydroxy-6-methyloxan-4-yl]oxy-3,4,5-trihydroxyoxan-2-yl]methoxy]-3,5-dihydroxy-6-methyloxan-4-yl] (2E,6E,10E,14S)-14-[(2S,3R,4S,5S,6R)-4,5-dihydroxy-6-(hydroxymethyl)-3-[(2S,3R,4S,5S,6R)-3,4,5-trihydroxy-6-(hydroxymethyl)oxan-2-yl]oxyoxan-2-yl]oxy-2,6,10,14-tetramethylhexadeca-2,6,10,15-tetraenoate

>  <PUBCHEM_IUPAC_SYSTEMATIC_NAME>
[(2R,3R,4R,5S,6S)-2-[[(2R,3S,4S,5R,6S)-6-[(2R,3R,4R,5S,6S)-2-[(2Z,6E,10E,14S)-14-[(2S,3R,4S,5S,6R)-6-(hydroxymethyl)-3-[(2S,3R,4S,5S,6R)-6-(hydroxymethyl)-3,4,5-tris(oxidanyl)oxan-2-yl]oxy-4,5-bis(oxidanyl)oxan-2-yl]oxy-2,6,10,14-tetramethyl-hexadeca-2,6,10,15-tetraenoxy]-6-methyl-3,5-bis(oxidanyl)oxan-4-yl]oxy-3,4,5-tris(oxidanyl)oxan-2-yl]methoxy]-6-methyl-3,5-bis(oxidanyl)oxan-4-yl] (2E,6E,10E,14S)-14-[(2S,3R,4S,5S,6R)-6-(hydroxymethyl)-3-[(2S,3R,4S,5S,6R)-6-(hydroxymethyl)-3,4,5-tris(oxidanyl)oxan-2-yl]oxy-4,5-bis(oxidanyl)oxan-2-yl]oxy-2,6,10,14-tetramethyl-hexadeca-2,6,10,15-tetraenoate

>  <PUBCHEM_IUPAC_TRADITIONAL_NAME>
(2E,6E,10E,14S)-14-[(2S,3R,4S,5S,6R)-4,5-dihydroxy-6-methylol-3-[(2S,3R,4S,5S,6R)-3,4,5-trihydroxy-6-methylol-tetrahydropyran-2-yl]oxy-tetrahydropyran-2-yl]oxy-2,6,10,14-tetramethyl-hexadeca-2,6,10,15-tetraenoic acid [(2R,3R,4R,5S,6S)-2-[[(2R,3S,4S,5R,6S)-6-[(2R,3R,4R,5S,6S)-2-[(2Z,6E,10E,14S)-14-[(2S,3R,4S,5S,6R)-4,5-dihydroxy-6-methylol-3-[(2S,3R,4S,5S,6R)-3,4,5-trihydroxy-6-methylol-tetrahydropyran-2-yl]oxy-tetrahydropyran-2-yl]oxy-2,6,10,14-tetramethyl-hexadeca-2,6,10,15-tetraenoxy]-3,5-dihydroxy-6-methyl-tetrahydropyran-4-yl]oxy-3,4,5-trihydroxy-tetrahydropyran-2-yl]methoxy]-3,5-dihydroxy-6-methyl-tetrahydropyran-4-yl] ester

>  <PUBCHEM_IUPAC_INCHI>
InChI=1S/C82H134O37/c1-13-81(11,118-79-71(62(97)56(91)49(35-85)111-79)116-76-64(99)59(94)54(89)47(33-83)109-76)31-19-28-41(5)23-15-21-39(3)25-17-27-43(7)37-105-74-68(103)70(53(88)46(10)107-74)115-78-66(101)61(96)58(93)51(113-78)38-106-75-67(102)69(52(87)45(9)108-75)114-73(104)44(8)30-18-26-40(4)22-16-24-42(6)29-20-32-82(12,14-2)119-80-72(63(98)57(92)50(36-86)112-80)117-77-65(100)60(95)55(90)48(34-84)110-77/h13-14,21-22,27-30,45-72,74-80,83-103H,1-2,15-20,23-26,31-38H2,3-12H3/b39-21+,40-22+,41-28+,42-29+,43-27-,44-30+/t45-,46-,47+,48+,49+,50+,51+,52-,53-,54+,55+,56+,57+,58+,59-,60-,61-,62-,63-,64+,65+,66+,67+,68+,69+,70+,71+,72+,74+,75+,76-,77-,78-,79-,80-,81+,82+/m0/s1

>  <PUBCHEM_IUPAC_INCHIKEY>
XIQPUQZGYSYODK-BEVCFCNGSA-N

>  <PUBCHEM_XLOGP3_AA>
0.4

>  <PUBCHEM_EXACT_MASS>
1710.86

>  <PUBCHEM_MOLECULAR_FORMULA>
C82H134O37

>  <PUBCHEM_MOLECULAR_WEIGHT>
1711.937

>  <PUBCHEM_OPENEYE_CAN_SMILES>
CC1C(C(C(C(O1)OCC2C(C(C(C(O2)OC3C(C(OC(C3O)OCC(=CCCC(=CCCC(=CCCC(C)(C=C)OC4C(C(C(C(O4)CO)O)O)OC5C(C(C(C(O5)CO)O)O)O)C)C)C)C)O)O)O)O)O)OC(=O)C(=CCCC(=CCCC(=CCCC(C)(C=C)OC6C(C(C(C(O6)CO)O)O)OC7C(C(C(C(O7)CO)O)O)O)C)C)C)O

>  <PUBCHEM_OPENEYE_ISO_SMILES>
C[C@H]1[C@@H]([C@H]([C@H]([C@@H](O1)OC[C@@H]2[C@H]([C@@H]([C@H]([C@@H](O2)O[C@@H]3[C@H]([C@@H](O[C@H]([C@@H]3O)OC/C(=C\CC/C(=C/CC/C(=C/CC[C@@](C)(C=C)O[C@H]4[C@@H]([C@H]([C@@H]([C@H](O4)CO)O)O)O[C@H]5[C@@H]([C@H]([C@@H]([C@H](O5)CO)O)O)O)/C)/C)/C)C)O)O)O)O)O)OC(=O)/C(=C/CC/C(=C/CC/C(=C/CC[C@@](C)(C=C)O[C@H]6[C@@H]([C@H]([C@@H]([C@H](O6)CO)O)O)O[C@H]7[C@@H]([C@H]([C@@H]([C@H](O7)CO)O)O)O)/C)/C)/C)O

>  <PUBCHEM_CACTVS_TPSA>
580

>  <PUBCHEM_MONOISOTOPIC_WEIGHT>
1710.86

>  <PUBCHEM_TOTAL_CHARGE>
0

>  <PUBCHEM_HEAVY_ATOM_COUNT>
119

>  <PUBCHEM_ATOM_DEF_STEREO_COUNT>
37

>  <PUBCHEM_ATOM_UDEF_STEREO_COUNT>
0

>  <PUBCHEM_BOND_DEF_STEREO_COUNT>
6

>  <PUBCHEM_BOND_UDEF_STEREO_COUNT>
0

>  <PUBCHEM_ISOTOPIC_ATOM_COUNT>
0

>  <PUBCHEM_COMPONENT_COUNT>
1

>  <PUBCHEM_CACTVS_TAUTO_COUNT>
1

>  <PUBCHEM_COORDINATE_TYPE>
1
5
255

>  <PUBCHEM_BONDANNOTATIONS>
40  1  6
41  1  5
48  10  5
70  10  6
49  11  5
71  11  6
69  12  5
42  13  5
43  14  5
44  15  6
47  16  6
46  17  5
50  18  5
51  19  6
52  20  6
53  22  6
63  23  5
59  24  6
60  25  6
61  26  5
62  27  5
64  28  6
65  29  6
38  3  6
56  3  5
73  30  6
72  31  6
76  34  5
39  4  6
57  4  5
45  68  5
54  74  5
55  75  5
58  78  6
66  79  5
67  80  5
77  87  6

$$$$
