14633008
 OpenBabel06101807152D

 45 45  0  0  1  0  0  0  0  0999 V2000
    4.7690    3.6830    0.0000 O   0  0  0  0  0  0  0  0  0  0  0  0
    2.5369    2.8170    0.0000 O   0  0  0  0  0  0  0  0  0  0  0  0
    4.2690   -2.1830    0.0000 O   0  0  0  0  0  0  0  0  0  0  0  0
    4.2690    0.8170    0.0000 C   0  0  2  0  0  0  0  0  0  0  0  0
    3.4030    1.3170    0.0000 C   0  0  0  0  0  0  0  0  0  0  0  0
    3.4030    2.3170    0.0000 C   0  0  1  0  0  0  0  0  0  0  0  0
    4.2690    2.8170    0.0000 C   0  0  2  0  0  0  0  0  0  0  0  0
    4.2690   -0.1830    0.0000 C   0  0  2  0  0  0  0  0  0  0  0  0
    5.1350    1.3170    0.0000 C   0  0  0  0  0  0  0  0  0  0  0  0
    5.1350    2.3170    0.0000 C   0  0  0  0  0  0  0  0  0  0  0  0
    5.1350   -0.6830    0.0000 C   0  0  0  0  0  0  0  0  0  0  0  0
    3.7690    3.6830    0.0000 C   0  0  0  0  0  0  0  0  0  0  0  0
    3.4030   -0.6830    0.0000 C   0  0  0  0  0  0  0  0  0  0  0  0
    5.1350   -1.6830    0.0000 C   0  0  0  0  0  0  0  0  0  0  0  0
    5.7690    3.6830    0.0000 C   0  0  0  0  0  0  0  0  0  0  0  0
    6.0010   -2.1830    0.0000 C   0  0  0  0  0  0  0  0  0  0  0  0
    6.0010   -3.1830    0.0000 C   0  0  0  0  0  0  0  0  0  0  0  0
    6.8671   -3.6830    0.0000 C   0  0  0  0  0  0  0  0  0  0  0  0
    5.1350   -3.6830    0.0000 C   0  0  0  0  0  0  0  0  0  0  0  0
    5.0051    0.3920    0.0000 H   0  0  0  0  0  0  0  0  0  0  0  0
    2.7924    1.4246    0.0000 H   0  0  0  0  0  0  0  0  0  0  0  0
    3.1909    0.7344    0.0000 H   0  0  0  0  0  0  0  0  0  0  0  0
    3.4030    2.9370    0.0000 H   0  0  0  0  0  0  0  0  0  0  0  0
    4.2690   -0.8030    0.0000 H   0  0  0  0  0  0  0  0  0  0  0  0
    5.6720    1.0070    0.0000 H   0  0  0  0  0  0  0  0  0  0  0  0
    5.6720    2.6270    0.0000 H   0  0  0  0  0  0  0  0  0  0  0  0
    5.7456   -0.7907    0.0000 H   0  0  0  0  0  0  0  0  0  0  0  0
    5.3471   -0.1004    0.0000 H   0  0  0  0  0  0  0  0  0  0  0  0
    4.3059    3.9930    0.0000 H   0  0  0  0  0  0  0  0  0  0  0  0
    3.4590    4.2200    0.0000 H   0  0  0  0  0  0  0  0  0  0  0  0
    3.2320    3.3730    0.0000 H   0  0  0  0  0  0  0  0  0  0  0  0
    3.0930   -0.1461    0.0000 H   0  0  0  0  0  0  0  0  0  0  0  0
    2.8660   -0.9930    0.0000 H   0  0  0  0  0  0  0  0  0  0  0  0
    3.7130   -1.2200    0.0000 H   0  0  0  0  0  0  0  0  0  0  0  0
    2.0000    2.5070    0.0000 H   0  0  0  0  0  0  0  0  0  0  0  0
    5.7690    3.0630    0.0000 H   0  0  0  0  0  0  0  0  0  0  0  0
    6.3890    3.6830    0.0000 H   0  0  0  0  0  0  0  0  0  0  0  0
    5.7690    4.3030    0.0000 H   0  0  0  0  0  0  0  0  0  0  0  0
    6.5380   -1.8730    0.0000 H   0  0  0  0  0  0  0  0  0  0  0  0
    6.5571   -4.2200    0.0000 H   0  0  0  0  0  0  0  0  0  0  0  0
    7.4040   -3.9930    0.0000 H   0  0  0  0  0  0  0  0  0  0  0  0
    7.1771   -3.1461    0.0000 H   0  0  0  0  0  0  0  0  0  0  0  0
    4.8250   -3.1461    0.0000 H   0  0  0  0  0  0  0  0  0  0  0  0
    4.5981   -3.9930    0.0000 H   0  0  0  0  0  0  0  0  0  0  0  0
    5.4450   -4.2200    0.0000 H   0  0  0  0  0  0  0  0  0  0  0  0
  1 15  1  0  0  0  0
  2 35  1  0  0  0  0
  3 14  2  0  0  0  0
  4  5  1  0  0  0  0
  4  8  1  0  0  0  0
  4  9  1  0  0  0  0
  4 20  1  6  0  0  0
  5  6  1  0  0  0  0
  5 21  1  0  0  0  0
  5 22  1  0  0  0  0
  6  2  1  0  0  0  0
  6  7  1  6  0  0  0
  6 23  1  0  0  0  0
  7  1  1  1  0  0  0
  7 10  1  0  0  0  0
  7 12  1  0  0  0  0
  8 11  1  0  0  0  0
  8 13  1  0  0  0  0
  8 24  1  1  0  0  0
  9 10  2  0  0  0  0
  9 25  1  0  0  0  0
 10 26  1  0  0  0  0
 11 14  1  0  0  0  0
 11 27  1  0  0  0  0
 11 28  1  0  0  0  0
 12 29  1  0  0  0  0
 12 30  1  0  0  0  0
 12 31  1  0  0  0  0
 13 32  1  0  0  0  0
 13 33  1  0  0  0  0
 13 34  1  0  0  0  0
 14 16  1  0  0  0  0
 15 36  1  0  0  0  0
 15 37  1  0  0  0  0
 15 38  1  0  0  0  0
 16 17  2  0  0  0  0
 16 39  1  0  0  0  0
 17 18  1  0  0  0  0
 17 19  1  0  0  0  0
 18 40  1  0  0  0  0
 18 41  1  0  0  0  0
 18 42  1  0  0  0  0
 19 43  1  0  0  0  0
 19 44  1  0  0  0  0
 19 45  1  0  0  0  0
M  END
>  <PUBCHEM_COMPOUND_CID>
14633008

>  <PUBCHEM_COMPOUND_CANONICALIZED>
1

>  <PUBCHEM_CACTVS_COMPLEXITY>
380

>  <PUBCHEM_CACTVS_HBOND_ACCEPTOR>
3

>  <PUBCHEM_CACTVS_HBOND_DONOR>
1

>  <PUBCHEM_CACTVS_ROTATABLE_BOND>
5

>  <PUBCHEM_CACTVS_SUBSKEYS>
AAADceB4MAAAAAAAAAAAAAAAAAAAAAAAAAAgAAAAAAAAAAAAAAAAGgAACAAADVSggAICAAAABgCIAqBSAAAAAAAgAAAICAEAAEgBFBIAIQAAUAAEwAALIQOIyPCOgAAAAAAAAAAAAAAAAAAAAAAAAAAAAA==

>  <PUBCHEM_IUPAC_OPENEYE_NAME>
(6S)-6-[(1R,4S,5S)-5-hydroxy-4-methoxy-4-methyl-cyclohex-2-en-1-yl]-2-methyl-hept-2-en-4-one

>  <PUBCHEM_IUPAC_CAS_NAME>
(6S)-6-[(1R,4S,5S)-5-hydroxy-4-methoxy-4-methyl-1-cyclohex-2-enyl]-2-methyl-2-hepten-4-one

>  <PUBCHEM_IUPAC_NAME>
(6S)-6-[(1R,4S,5S)-5-hydroxy-4-methoxy-4-methylcyclohex-2-en-1-yl]-2-methylhept-2-en-4-one

>  <PUBCHEM_IUPAC_SYSTEMATIC_NAME>
(6S)-6-[(1R,4S,5S)-4-methoxy-4-methyl-5-oxidanyl-cyclohex-2-en-1-yl]-2-methyl-hept-2-en-4-one

>  <PUBCHEM_IUPAC_TRADITIONAL_NAME>
(6S)-6-[(1R,4S,5S)-5-hydroxy-4-methoxy-4-methyl-cyclohex-2-en-1-yl]-2-methyl-hept-2-en-4-one

>  <PUBCHEM_IUPAC_INCHI>
InChI=1S/C16H26O3/c1-11(2)8-14(17)9-12(3)13-6-7-16(4,19-5)15(18)10-13/h6-8,12-13,15,18H,9-10H2,1-5H3/t12-,13+,15-,16-/m0/s1

>  <PUBCHEM_IUPAC_INCHIKEY>
XQXANAYBQDKOBU-XRGAULLZSA-N

>  <PUBCHEM_XLOGP3_AA>
2.4

>  <PUBCHEM_EXACT_MASS>
266.188

>  <PUBCHEM_MOLECULAR_FORMULA>
C16H26O3

>  <PUBCHEM_MOLECULAR_WEIGHT>
266.381

>  <PUBCHEM_OPENEYE_CAN_SMILES>
CC(CC(=O)C=C(C)C)C1CC(C(C=C1)(C)OC)O

>  <PUBCHEM_OPENEYE_ISO_SMILES>
C[C@@H](CC(=O)C=C(C)C)[C@H]1C[C@@H]([C@@](C=C1)(C)OC)O

>  <PUBCHEM_CACTVS_TPSA>
46.5

>  <PUBCHEM_MONOISOTOPIC_WEIGHT>
266.188

>  <PUBCHEM_TOTAL_CHARGE>
0

>  <PUBCHEM_HEAVY_ATOM_COUNT>
19

>  <PUBCHEM_ATOM_DEF_STEREO_COUNT>
4

>  <PUBCHEM_ATOM_UDEF_STEREO_COUNT>
0

>  <PUBCHEM_BOND_DEF_STEREO_COUNT>
0

>  <PUBCHEM_BOND_UDEF_STEREO_COUNT>
0

>  <PUBCHEM_ISOTOPIC_ATOM_COUNT>
0

>  <PUBCHEM_COMPONENT_COUNT>
1

>  <PUBCHEM_CACTVS_TAUTO_COUNT>
5

>  <PUBCHEM_COORDINATE_TYPE>
1
5
255

>  <PUBCHEM_BONDANNOTATIONS>
7  1  5
6  2  6
4  20  6
8  13  6

$$$$
