14632997
 OpenBabel06101807152D

 42 43  0  0  1  0  0  0  0  0999 V2000
    7.1260    1.2426    0.0000 O   0  0  0  0  0  0  0  0  0  0  0  0
    4.3828   -2.2606    0.0000 O   0  0  0  0  0  0  0  0  0  0  0  0
    2.1861   -0.1732    0.0000 O   0  0  0  0  0  0  0  0  0  0  0  0
    5.3792   -0.6572    0.0000 C   0  0  3  0  0  0  0  0  0  0  0  0
    5.3742    0.3427    0.0000 C   0  0  3  0  0  0  0  0  0  0  0  0
    6.3189    0.6522    0.0000 C   0  0  3  0  0  0  0  0  0  0  0  0
    6.3269   -0.9573    0.0000 C   0  0  0  0  0  0  0  0  0  0  0  0
    4.6005   -1.2846    0.0000 C   0  0  3  0  0  0  0  0  0  0  0  0
    6.9065   -0.1496    0.0000 C   0  0  0  0  0  0  0  0  0  0  0  0
    4.5893    0.9623    0.0000 C   0  0  0  0  0  0  0  0  0  0  0  0
    3.6244   -1.0670    0.0000 C   0  0  0  0  0  0  0  0  0  0  0  0
    6.0068    1.6022    0.0000 C   0  0  0  0  0  0  0  0  0  0  0  0
    3.6155    0.7350    0.0000 C   0  0  0  0  0  0  0  0  0  0  0  0
    5.2278   -2.0633    0.0000 C   0  0  0  0  0  0  0  0  0  0  0  0
    3.1861   -0.1682    0.0000 C   0  0  0  0  0  0  0  0  0  0  0  0
    2.9881    1.5137    0.0000 C   0  0  0  0  0  0  0  0  0  0  0  0
    3.3488    2.4463    0.0000 C   0  0  0  0  0  0  0  0  0  0  0  0
    2.0000    1.3597    0.0000 C   0  0  0  0  0  0  0  0  0  0  0  0
    5.4937   -1.2666    0.0000 H   0  0  0  0  0  0  0  0  0  0  0  0
    5.4826    0.9532    0.0000 H   0  0  0  0  0  0  0  0  0  0  0  0
    6.0787   -1.5254    0.0000 H   0  0  0  0  0  0  0  0  0  0  0  0
    6.8658   -1.2638    0.0000 H   0  0  0  0  0  0  0  0  0  0  0  0
    7.3694   -0.5620    0.0000 H   0  0  0  0  0  0  0  0  0  0  0  0
    7.3653    0.2674    0.0000 H   0  0  0  0  0  0  0  0  0  0  0  0
    5.0721    1.3513    0.0000 H   0  0  0  0  0  0  0  0  0  0  0  0
    4.3175    1.5196    0.0000 H   0  0  0  0  0  0  0  0  0  0  0  0
    3.0207   -1.2079    0.0000 H   0  0  0  0  0  0  0  0  0  0  0  0
    3.6275   -1.6870    0.0000 H   0  0  0  0  0  0  0  0  0  0  0  0
    6.5958    1.7958    0.0000 H   0  0  0  0  0  0  0  0  0  0  0  0
    5.8133    2.1913    0.0000 H   0  0  0  0  0  0  0  0  0  0  0  0
    5.4177    1.4087    0.0000 H   0  0  0  0  0  0  0  0  0  0  0  0
    4.7450   -2.4523    0.0000 H   0  0  0  0  0  0  0  0  0  0  0  0
    5.6168   -2.5461    0.0000 H   0  0  0  0  0  0  0  0  0  0  0  0
    5.7106   -1.6744    0.0000 H   0  0  0  0  0  0  0  0  0  0  0  0
    7.6932    0.9923    0.0000 H   0  0  0  0  0  0  0  0  0  0  0  0
    3.7913   -2.4463    0.0000 H   0  0  0  0  0  0  0  0  0  0  0  0
    3.9270    2.2227    0.0000 H   0  0  0  0  0  0  0  0  0  0  0  0
    3.5724    3.0246    0.0000 H   0  0  0  0  0  0  0  0  0  0  0  0
    2.7705    2.6700    0.0000 H   0  0  0  0  0  0  0  0  0  0  0  0
    1.9045    1.9723    0.0000 H   0  0  0  0  0  0  0  0  0  0  0  0
    1.3874    1.2642    0.0000 H   0  0  0  0  0  0  0  0  0  0  0  0
    2.0955    0.7471    0.0000 H   0  0  0  0  0  0  0  0  0  0  0  0
  1  6  1  0  0  0  0
  1 35  1  0  0  0  0
  2  8  1  0  0  0  0
  2 36  1  0  0  0  0
  3 15  2  0  0  0  0
  4  5  1  0  0  0  0
  4  7  1  0  0  0  0
  4  8  1  0  0  0  0
  4 19  1  0  0  0  0
  5  6  1  0  0  0  0
  5 10  1  0  0  0  0
  5 20  1  0  0  0  0
  6  9  1  0  0  0  0
  6 12  1  0  0  0  0
  7  9  1  0  0  0  0
  7 21  1  0  0  0  0
  7 22  1  0  0  0  0
  8 11  1  0  0  0  0
  8 14  1  0  0  0  0
  9 23  1  0  0  0  0
  9 24  1  0  0  0  0
 10 13  1  0  0  0  0
 10 25  1  0  0  0  0
 10 26  1  0  0  0  0
 11 15  1  0  0  0  0
 11 27  1  0  0  0  0
 11 28  1  0  0  0  0
 12 29  1  0  0  0  0
 12 30  1  0  0  0  0
 12 31  1  0  0  0  0
 13 15  1  0  0  0  0
 13 16  2  0  0  0  0
 14 32  1  0  0  0  0
 14 33  1  0  0  0  0
 14 34  1  0  0  0  0
 16 17  1  0  0  0  0
 16 18  1  0  0  0  0
 17 37  1  0  0  0  0
 17 38  1  0  0  0  0
 17 39  1  0  0  0  0
 18 40  1  0  0  0  0
 18 41  1  0  0  0  0
 18 42  1  0  0  0  0
M  END
>  <PUBCHEM_COMPOUND_CID>
14632997

>  <PUBCHEM_COMPOUND_CANONICALIZED>
1

>  <PUBCHEM_CACTVS_COMPLEXITY>
408

>  <PUBCHEM_CACTVS_HBOND_ACCEPTOR>
3

>  <PUBCHEM_CACTVS_HBOND_DONOR>
2

>  <PUBCHEM_CACTVS_ROTATABLE_BOND>
0

>  <PUBCHEM_CACTVS_SUBSKEYS>
AAADceBwMAAAAAAAAAAAAAAAAAAAAYAAAAAAAAAABgAAAADAAAAAGgAACAAADUSAgAACAAAAAgCIAoBQAAAAAAAgAAAACAEAAEgAABYAAAAAQAAEoAAIAQPI7PTOgAAAAAAAAAAAAAAAAAAAAYAADAAAAA==

>  <PUBCHEM_IUPAC_OPENEYE_NAME>
3,8-dihydroxy-5-isopropylidene-3,8-dimethyl-1,2,3a,4,7,8a-hexahydroazulen-6-one

>  <PUBCHEM_IUPAC_CAS_NAME>
3,8-dihydroxy-3,8-dimethyl-5-propan-2-ylidene-1,2,3a,4,7,8a-hexahydroazulen-6-one

>  <PUBCHEM_IUPAC_NAME>
3,8-dihydroxy-3,8-dimethyl-5-propan-2-ylidene-1,2,3a,4,7,8a-hexahydroazulen-6-one

>  <PUBCHEM_IUPAC_SYSTEMATIC_NAME>
3,8-dimethyl-3,8-bis(oxidanyl)-5-propan-2-ylidene-1,2,3a,4,7,8a-hexahydroazulen-6-one

>  <PUBCHEM_IUPAC_TRADITIONAL_NAME>
3,8-dihydroxy-5-isopropylidene-3,8-dimethyl-1,2,3a,4,7,8a-hexahydroazulen-6-one

>  <PUBCHEM_IUPAC_INCHI>
InChI=1S/C15H24O3/c1-9(2)10-7-12-11(5-6-14(12,3)17)15(4,18)8-13(10)16/h11-12,17-18H,5-8H2,1-4H3

>  <PUBCHEM_IUPAC_INCHIKEY>
TXIKNNOOLCGADE-UHFFFAOYSA-N

>  <PUBCHEM_XLOGP3_AA>
1.6

>  <PUBCHEM_EXACT_MASS>
252.173

>  <PUBCHEM_MOLECULAR_FORMULA>
C15H24O3

>  <PUBCHEM_MOLECULAR_WEIGHT>
252.354

>  <PUBCHEM_OPENEYE_CAN_SMILES>
CC(=C1CC2C(CCC2(C)O)C(CC1=O)(C)O)C

>  <PUBCHEM_OPENEYE_ISO_SMILES>
CC(=C1CC2C(CCC2(C)O)C(CC1=O)(C)O)C

>  <PUBCHEM_CACTVS_TPSA>
57.5

>  <PUBCHEM_MONOISOTOPIC_WEIGHT>
252.173

>  <PUBCHEM_TOTAL_CHARGE>
0

>  <PUBCHEM_HEAVY_ATOM_COUNT>
18

>  <PUBCHEM_ATOM_DEF_STEREO_COUNT>
0

>  <PUBCHEM_ATOM_UDEF_STEREO_COUNT>
4

>  <PUBCHEM_BOND_DEF_STEREO_COUNT>
0

>  <PUBCHEM_BOND_UDEF_STEREO_COUNT>
0

>  <PUBCHEM_ISOTOPIC_ATOM_COUNT>
0

>  <PUBCHEM_COMPONENT_COUNT>
1

>  <PUBCHEM_CACTVS_TAUTO_COUNT>
5

>  <PUBCHEM_COORDINATE_TYPE>
1
5
255

>  <PUBCHEM_BONDANNOTATIONS>
6  1  3
8  2  3
4  7  3
5  10  3

$$$$
