14633001
 OpenBabel06101807152D

 37 37  0  0  0  0  0  0  0  0999 V2000
    5.1350    1.8100    0.0000 O   0  0  0  0  0  0  0  0  0  0  0  0
    8.5991    0.8100    0.0000 O   0  0  0  0  0  0  0  0  0  0  0  0
    3.4030   -1.1900    0.0000 C   0  0  0  0  0  0  0  0  0  0  0  0
    2.5369   -0.6900    0.0000 C   0  0  0  0  0  0  0  0  0  0  0  0
    4.2690   -0.6900    0.0000 C   0  0  0  0  0  0  0  0  0  0  0  0
    6.0010   -0.6900    0.0000 C   0  0  0  0  0  0  0  0  0  0  0  0
    4.2690    0.3100    0.0000 C   0  0  0  0  0  0  0  0  0  0  0  0
    6.0010    0.3100    0.0000 C   0  0  0  0  0  0  0  0  0  0  0  0
    3.4030    0.8100    0.0000 C   0  0  0  0  0  0  0  0  0  0  0  0
    2.5369    0.3100    0.0000 C   0  0  0  0  0  0  0  0  0  0  0  0
    5.1350   -1.1900    0.0000 C   0  0  0  0  0  0  0  0  0  0  0  0
    5.1350    0.8100    0.0000 C   0  0  0  0  0  0  0  0  0  0  0  0
    3.8833   -0.2304    0.0000 C   0  0  0  0  0  0  0  0  0  0  0  0
    6.8671    0.8100    0.0000 C   0  0  0  0  0  0  0  0  0  0  0  0
    3.4030    1.8100    0.0000 C   0  0  0  0  0  0  0  0  0  0  0  0
    6.8671    1.8100    0.0000 C   0  0  0  0  0  0  0  0  0  0  0  0
    7.7331    0.3100    0.0000 C   0  0  0  0  0  0  0  0  0  0  0  0
    3.0044   -1.6650    0.0000 H   0  0  0  0  0  0  0  0  0  0  0  0
    3.8015   -1.6650    0.0000 H   0  0  0  0  0  0  0  0  0  0  0  0
    1.9264   -0.5823    0.0000 H   0  0  0  0  0  0  0  0  0  0  0  0
    2.3249   -1.2726    0.0000 H   0  0  0  0  0  0  0  0  0  0  0  0
    6.2131   -1.2726    0.0000 H   0  0  0  0  0  0  0  0  0  0  0  0
    6.6116   -0.5823    0.0000 H   0  0  0  0  0  0  0  0  0  0  0  0
    3.8705   -0.1649    0.0000 H   0  0  0  0  0  0  0  0  0  0  0  0
    4.6675   -0.1649    0.0000 H   0  0  0  0  0  0  0  0  0  0  0  0
    2.0000    0.6200    0.0000 H   0  0  0  0  0  0  0  0  0  0  0  0
    5.1350   -1.8100    0.0000 H   0  0  0  0  0  0  0  0  0  0  0  0
    4.3583    0.1682    0.0000 H   0  0  0  0  0  0  0  0  0  0  0  0
    3.4848    0.2446    0.0000 H   0  0  0  0  0  0  0  0  0  0  0  0
    3.4084   -0.6289    0.0000 H   0  0  0  0  0  0  0  0  0  0  0  0
    4.0230    1.8100    0.0000 H   0  0  0  0  0  0  0  0  0  0  0  0
    3.4030    2.4300    0.0000 H   0  0  0  0  0  0  0  0  0  0  0  0
    2.7830    1.8100    0.0000 H   0  0  0  0  0  0  0  0  0  0  0  0
    7.4871    1.8100    0.0000 H   0  0  0  0  0  0  0  0  0  0  0  0
    6.8671    2.4300    0.0000 H   0  0  0  0  0  0  0  0  0  0  0  0
    6.2471    1.8100    0.0000 H   0  0  0  0  0  0  0  0  0  0  0  0
    7.7331   -0.3100    0.0000 H   0  0  0  0  0  0  0  0  0  0  0  0
  1 12  2  0  0  0  0
  2 17  2  0  0  0  0
  3  4  1  0  0  0  0
  3  5  1  0  0  0  0
  3 18  1  0  0  0  0
  3 19  1  0  0  0  0
  4 10  1  0  0  0  0
  4 20  1  0  0  0  0
  4 21  1  0  0  0  0
  5 11  2  0  0  0  0
  5 13  1  0  0  0  0
  6  8  1  0  0  0  0
  6 11  1  0  0  0  0
  6 22  1  0  0  0  0
  6 23  1  0  0  0  0
  7  9  1  0  0  0  0
  7 12  1  0  0  0  0
  7 24  1  0  0  0  0
  7 25  1  0  0  0  0
  8 12  1  0  0  0  0
  8 14  2  0  0  0  0
  9 10  2  0  0  0  0
  9 15  1  0  0  0  0
 10 26  1  0  0  0  0
 11 27  1  0  0  0  0
 13 28  1  0  0  0  0
 13 29  1  0  0  0  0
 13 30  1  0  0  0  0
 14 16  1  0  0  0  0
 14 17  1  0  0  0  0
 15 31  1  0  0  0  0
 15 32  1  0  0  0  0
 15 33  1  0  0  0  0
 16 34  1  0  0  0  0
 16 35  1  0  0  0  0
 16 36  1  0  0  0  0
 17 37  1  0  0  0  0
M  END
>  <PUBCHEM_COMPOUND_CID>
14633001

>  <PUBCHEM_COMPOUND_CANONICALIZED>
1

>  <PUBCHEM_CACTVS_COMPLEXITY>
409

>  <PUBCHEM_CACTVS_HBOND_ACCEPTOR>
2

>  <PUBCHEM_CACTVS_HBOND_DONOR>
0

>  <PUBCHEM_CACTVS_ROTATABLE_BOND>
1

>  <PUBCHEM_CACTVS_SUBSKEYS>
AAADceBwMAAAAAAAAAAAAAAAAAAAAAAAAAAAAAAAAAAAAACAAAAAGgAAAAAADASggAICAAAAAACIAqhSgAAAAAAgAAAACAEAAEgAABIAAQAAAAAAgAAIAQMAgAAAAAAAAAAAAAAAAAAAAAAAAAAAAAAAAA==

>  <PUBCHEM_IUPAC_OPENEYE_NAME>
(2E)-2-[(3E,7Z)-4,8-dimethyl-10-oxo-cyclodeca-3,7-dien-1-ylidene]propanal

>  <PUBCHEM_IUPAC_CAS_NAME>
(2E)-2-[(3E,7Z)-4,8-dimethyl-10-oxo-1-cyclodeca-3,7-dienylidene]propanal

>  <PUBCHEM_IUPAC_NAME>
(2E)-2-[(3E,7Z)-4,8-dimethyl-10-oxocyclodeca-3,7-dien-1-ylidene]propanal

>  <PUBCHEM_IUPAC_SYSTEMATIC_NAME>
(2E)-2-[(3E,7Z)-4,8-dimethyl-10-oxidanylidene-cyclodeca-3,7-dien-1-ylidene]propanal

>  <PUBCHEM_IUPAC_TRADITIONAL_NAME>
(2E)-2-[(3E,7Z)-10-keto-4,8-dimethyl-cyclodeca-3,7-dien-1-ylidene]propionaldehyde

>  <PUBCHEM_IUPAC_INCHI>
InChI=1S/C15H20O2/c1-11-5-4-6-12(2)9-15(17)14(8-7-11)13(3)10-16/h6-7,10H,4-5,8-9H2,1-3H3/b11-7+,12-6-,14-13+

>  <PUBCHEM_IUPAC_INCHIKEY>
QYFIJPMUVNMVMC-IJHCSQTGSA-N

>  <PUBCHEM_XLOGP3_AA>
2.1

>  <PUBCHEM_EXACT_MASS>
232.146

>  <PUBCHEM_MOLECULAR_FORMULA>
C15H20O2

>  <PUBCHEM_MOLECULAR_WEIGHT>
232.323

>  <PUBCHEM_OPENEYE_CAN_SMILES>
CC1=CCC(=C(C)C=O)C(=O)CC(=CCC1)C

>  <PUBCHEM_OPENEYE_ISO_SMILES>
C/C/1=C\C/C(=C(/C)\C=O)/C(=O)C/C(=C\CC1)/C

>  <PUBCHEM_CACTVS_TPSA>
34.1

>  <PUBCHEM_MONOISOTOPIC_WEIGHT>
232.146

>  <PUBCHEM_TOTAL_CHARGE>
0

>  <PUBCHEM_HEAVY_ATOM_COUNT>
17

>  <PUBCHEM_ATOM_DEF_STEREO_COUNT>
0

>  <PUBCHEM_ATOM_UDEF_STEREO_COUNT>
0

>  <PUBCHEM_BOND_DEF_STEREO_COUNT>
3

>  <PUBCHEM_BOND_UDEF_STEREO_COUNT>
0

>  <PUBCHEM_ISOTOPIC_ATOM_COUNT>
0

>  <PUBCHEM_COMPONENT_COUNT>
1

>  <PUBCHEM_CACTVS_TAUTO_COUNT>
13

>  <PUBCHEM_COORDINATE_TYPE>
1
5
255

$$$$
