14681456
 OpenBabel06101807152D

 62 65  0  0  1  0  0  0  0  0999 V2000
    6.3301   -0.4050    0.0000 O   0  0  0  0  0  0  0  0  0  0  0  0
    3.7320    0.0950    0.0000 O   0  0  0  0  0  0  0  0  0  0  0  0
    3.7320   -1.9050    0.0000 O   0  0  0  0  0  0  0  0  0  0  0  0
    5.4641   -2.9050    0.0000 O   0  0  0  0  0  0  0  0  0  0  0  0
    7.1962   -2.9050    0.0000 O   0  0  0  0  0  0  0  0  0  0  0  0
    7.2241    1.0603    0.0000 O   0  0  0  0  0  0  0  0  0  0  0  0
    3.7320    1.0950    0.0000 O   0  0  0  0  0  0  0  0  0  0  0  0
    5.4641    4.0950    0.0000 O   0  0  0  0  0  0  0  0  0  0  0  0
    2.8660   -1.4050    0.0000 O   0  0  0  0  0  0  0  0  0  0  0  0
    7.2125    4.1296    0.0000 O   0  0  0  0  0  0  0  0  0  0  0  0
    8.9282   -2.9050    0.0000 O   0  0  0  0  0  0  0  0  0  0  0  0
    9.8506   -1.4325    0.0000 O   0  0  0  0  0  0  0  0  0  0  0  0
   11.5865   -0.4392    0.0000 O   0  0  0  0  0  0  0  0  0  0  0  0
    4.5981   -0.4050    0.0000 C   0  0  3  0  0  0  0  0  0  0  0  0
    4.5981   -1.4050    0.0000 C   0  0  3  0  0  0  0  0  0  0  0  0
    5.4641    0.0950    0.0000 C   0  0  3  0  0  0  0  0  0  0  0  0
    5.4641   -1.9050    0.0000 C   0  0  3  0  0  0  0  0  0  0  0  0
    6.3301   -1.4050    0.0000 C   0  0  3  0  0  0  0  0  0  0  0  0
    5.4641    1.0950    0.0000 C   0  0  0  0  0  0  0  0  0  0  0  0
    7.1962   -1.9050    0.0000 C   0  0  0  0  0  0  0  0  0  0  0  0
    6.3301    1.5950    0.0000 C   0  0  0  0  0  0  0  0  0  0  0  0
    4.5981    1.5950    0.0000 C   0  0  0  0  0  0  0  0  0  0  0  0
    6.3301    2.5950    0.0000 C   0  0  0  0  0  0  0  0  0  0  0  0
    4.5981    2.5950    0.0000 C   0  0  0  0  0  0  0  0  0  0  0  0
    5.4641    3.0950    0.0000 C   0  0  0  0  0  0  0  0  0  0  0  0
    2.8660   -0.4050    0.0000 C   0  0  0  0  0  0  0  0  0  0  0  0
    7.2241    3.1297    0.0000 C   0  0  0  0  0  0  0  0  0  0  0  0
    8.1301    1.5742    0.0000 C   0  0  0  0  0  0  0  0  0  0  0  0
    8.1301    2.6158    0.0000 C   0  0  0  0  0  0  0  0  0  0  0  0
    2.0000    0.0950    0.0000 C   0  0  0  0  0  0  0  0  0  0  0  0
    8.0622   -3.4050    0.0000 C   0  0  0  0  0  0  0  0  0  0  0  0
    8.9942    1.0708    0.0000 C   0  0  0  0  0  0  0  0  0  0  0  0
    8.0622   -4.4050    0.0000 C   0  0  0  0  0  0  0  0  0  0  0  0
    8.9904    0.0709    0.0000 C   0  0  0  0  0  0  0  0  0  0  0  0
    9.8622    1.5675    0.0000 C   0  0  0  0  0  0  0  0  0  0  0  0
    9.8545   -0.4325    0.0000 C   0  0  0  0  0  0  0  0  0  0  0  0
   10.7263    1.0642    0.0000 C   0  0  0  0  0  0  0  0  0  0  0  0
   10.7224    0.0642    0.0000 C   0  0  0  0  0  0  0  0  0  0  0  0
    4.5981    0.2150    0.0000 H   0  0  0  0  0  0  0  0  0  0  0  0
    4.5981   -2.0250    0.0000 H   0  0  0  0  0  0  0  0  0  0  0  0
    6.0010    0.4050    0.0000 H   0  0  0  0  0  0  0  0  0  0  0  0
    6.0010   -2.2150    0.0000 H   0  0  0  0  0  0  0  0  0  0  0  0
    6.8671   -1.0950    0.0000 H   0  0  0  0  0  0  0  0  0  0  0  0
    7.8067   -2.0127    0.0000 H   0  0  0  0  0  0  0  0  0  0  0  0
    7.4082   -1.3224    0.0000 H   0  0  0  0  0  0  0  0  0  0  0  0
    3.7320   -2.5250    0.0000 H   0  0  0  0  0  0  0  0  0  0  0  0
    4.9272   -3.2150    0.0000 H   0  0  0  0  0  0  0  0  0  0  0  0
    4.0611    2.9050    0.0000 H   0  0  0  0  0  0  0  0  0  0  0  0
    3.1951    1.4050    0.0000 H   0  0  0  0  0  0  0  0  0  0  0  0
    8.6659    2.9279    0.0000 H   0  0  0  0  0  0  0  0  0  0  0  0
    2.3100    0.6319    0.0000 H   0  0  0  0  0  0  0  0  0  0  0  0
    1.4631    0.4050    0.0000 H   0  0  0  0  0  0  0  0  0  0  0  0
    1.6900   -0.4419    0.0000 H   0  0  0  0  0  0  0  0  0  0  0  0
    4.9272    4.4050    0.0000 H   0  0  0  0  0  0  0  0  0  0  0  0
    7.4422   -4.4050    0.0000 H   0  0  0  0  0  0  0  0  0  0  0  0
    8.0622   -5.0250    0.0000 H   0  0  0  0  0  0  0  0  0  0  0  0
    8.6822   -4.4050    0.0000 H   0  0  0  0  0  0  0  0  0  0  0  0
    8.4522   -0.2371    0.0000 H   0  0  0  0  0  0  0  0  0  0  0  0
    9.8646    2.1875    0.0000 H   0  0  0  0  0  0  0  0  0  0  0  0
   11.2644    1.3721    0.0000 H   0  0  0  0  0  0  0  0  0  0  0  0
   10.3863   -1.7445    0.0000 H   0  0  0  0  0  0  0  0  0  0  0  0
   12.1246   -0.1312    0.0000 H   0  0  0  0  0  0  0  0  0  0  0  0
  1 16  1  0  0  0  0
  1 18  1  0  0  0  0
  2 14  1  0  0  0  0
  2 26  1  0  0  0  0
  3 15  1  0  0  0  0
  3 46  1  0  0  0  0
  4 17  1  0  0  0  0
  4 47  1  0  0  0  0
  5 20  1  0  0  0  0
  5 31  1  0  0  0  0
  6 21  1  0  0  0  0
  6 28  1  0  0  0  0
  7 22  1  0  0  0  0
  7 49  1  0  0  0  0
  8 25  1  0  0  0  0
  8 54  1  0  0  0  0
  9 26  2  0  0  0  0
 10 27  2  0  0  0  0
 11 31  2  0  0  0  0
 12 36  1  0  0  0  0
 12 61  1  0  0  0  0
 13 38  1  0  0  0  0
 13 62  1  0  0  0  0
 14 15  1  0  0  0  0
 14 16  1  0  0  0  0
 14 39  1  0  0  0  0
 15 17  1  0  0  0  0
 15 40  1  0  0  0  0
 16 19  1  0  0  0  0
 16 41  1  0  0  0  0
 17 18  1  0  0  0  0
 17 42  1  0  0  0  0
 18 20  1  0  0  0  0
 18 43  1  0  0  0  0
 19 21  1  0  0  0  0
 19 22  2  0  0  0  0
 20 44  1  0  0  0  0
 20 45  1  0  0  0  0
 21 23  2  0  0  0  0
 22 24  1  0  0  0  0
 23 25  1  0  0  0  0
 23 27  1  0  0  0  0
 24 25  2  0  0  0  0
 24 48  1  0  0  0  0
 26 30  1  0  0  0  0
 27 29  1  0  0  0  0
 28 29  2  0  0  0  0
 28 32  1  0  0  0  0
 29 50  1  0  0  0  0
 30 51  1  0  0  0  0
 30 52  1  0  0  0  0
 30 53  1  0  0  0  0
 31 33  1  0  0  0  0
 32 34  2  0  0  0  0
 32 35  1  0  0  0  0
 33 55  1  0  0  0  0
 33 56  1  0  0  0  0
 33 57  1  0  0  0  0
 34 36  1  0  0  0  0
 34 58  1  0  0  0  0
 35 37  2  0  0  0  0
 35 59  1  0  0  0  0
 36 38  2  0  0  0  0
 37 38  1  0  0  0  0
 37 60  1  0  0  0  0
M  END
>  <PUBCHEM_COMPOUND_CID>
14681456

>  <PUBCHEM_COMPOUND_CANONICALIZED>
1

>  <PUBCHEM_CACTVS_COMPLEXITY>
936

>  <PUBCHEM_CACTVS_HBOND_ACCEPTOR>
13

>  <PUBCHEM_CACTVS_HBOND_DONOR>
6

>  <PUBCHEM_CACTVS_ROTATABLE_BOND>
7

>  <PUBCHEM_CACTVS_SUBSKEYS>
AAADceB4PAAAAAAAAAAAAAAAAAAAAAAAAAA0YIEAAAAAAACBQAAAGgAACAAADBSgmAIyDoAABgCIAqDSCAACCAAkIAAIiAEGiMgNNzaGNRqCeWGl4BULuQfI7PzOIAADCAAIQABAAAYQABCAAAAAAAAAAA==

>  <PUBCHEM_IUPAC_OPENEYE_NAME>
[5-acetoxy-6-[2-(3,4-dihydroxyphenyl)-5,7-dihydroxy-4-oxo-chromen-8-yl]-3,4-dihydroxy-tetrahydropyran-2-yl]methyl acetate

>  <PUBCHEM_IUPAC_CAS_NAME>
acetic acid [5-acetyloxy-6-[2-(3,4-dihydroxyphenyl)-5,7-dihydroxy-4-oxo-1-benzopyran-8-yl]-3,4-dihydroxy-2-oxanyl]methyl ester

>  <PUBCHEM_IUPAC_NAME>
[5-acetyloxy-6-[2-(3,4-dihydroxyphenyl)-5,7-dihydroxy-4-oxochromen-8-yl]-3,4-dihydroxyoxan-2-yl]methyl acetate

>  <PUBCHEM_IUPAC_SYSTEMATIC_NAME>
[5-acetyloxy-6-[2-[3,4-bis(oxidanyl)phenyl]-5,7-bis(oxidanyl)-4-oxidanylidene-chromen-8-yl]-3,4-bis(oxidanyl)oxan-2-yl]methyl ethanoate

>  <PUBCHEM_IUPAC_TRADITIONAL_NAME>
acetic acid [5-acetoxy-6-[2-(3,4-dihydroxyphenyl)-5,7-dihydroxy-4-keto-chromen-8-yl]-3,4-dihydroxy-tetrahydropyran-2-yl]methyl ester

>  <PUBCHEM_IUPAC_INCHI>
InChI=1S/C25H24O13/c1-9(26)35-8-18-21(33)22(34)25(36-10(2)27)24(38-18)20-15(31)6-14(30)19-16(32)7-17(37-23(19)20)11-3-4-12(28)13(29)5-11/h3-7,18,21-22,24-25,28-31,33-34H,8H2,1-2H3

>  <PUBCHEM_IUPAC_INCHIKEY>
IOPSQVHEVILLRN-UHFFFAOYSA-N

>  <PUBCHEM_XLOGP3_AA>
0.4

>  <PUBCHEM_EXACT_MASS>
532.122

>  <PUBCHEM_MOLECULAR_FORMULA>
C25H24O13

>  <PUBCHEM_MOLECULAR_WEIGHT>
532.454

>  <PUBCHEM_OPENEYE_CAN_SMILES>
CC(=O)OCC1C(C(C(C(O1)C2=C(C=C(C3=C2OC(=CC3=O)C4=CC(=C(C=C4)O)O)O)O)OC(=O)C)O)O

>  <PUBCHEM_OPENEYE_ISO_SMILES>
CC(=O)OCC1C(C(C(C(O1)C2=C(C=C(C3=C2OC(=CC3=O)C4=CC(=C(C=C4)O)O)O)O)OC(=O)C)O)O

>  <PUBCHEM_CACTVS_TPSA>
210

>  <PUBCHEM_MONOISOTOPIC_WEIGHT>
532.122

>  <PUBCHEM_TOTAL_CHARGE>
0

>  <PUBCHEM_HEAVY_ATOM_COUNT>
38

>  <PUBCHEM_ATOM_DEF_STEREO_COUNT>
0

>  <PUBCHEM_ATOM_UDEF_STEREO_COUNT>
5

>  <PUBCHEM_BOND_DEF_STEREO_COUNT>
0

>  <PUBCHEM_BOND_UDEF_STEREO_COUNT>
0

>  <PUBCHEM_ISOTOPIC_ATOM_COUNT>
0

>  <PUBCHEM_COMPONENT_COUNT>
1

>  <PUBCHEM_CACTVS_TAUTO_COUNT>
162

>  <PUBCHEM_COORDINATE_TYPE>
1
5
255

>  <PUBCHEM_BONDANNOTATIONS>
16  19  3
18  20  3
19  21  8
19  22  8
14  2  3
21  23  8
22  24  8
23  25  8
23  27  8
24  25  8
27  29  8
28  29  8
15  3  3
32  34  8
32  35  8
34  36  8
35  37  8
36  38  8
37  38  8
17  4  3
6  21  8
6  28  8

$$$$
