14681573
 OpenBabel06101807152D

 86 91  0  0  1  0  0  0  0  0999 V2000
    6.2140   -1.4080    0.0000 O   0  0  0  0  0  0  0  0  0  0  0  0
    4.2032   -5.4007    0.0000 O   0  0  0  0  0  0  0  0  0  0  0  0
    3.3008   -0.2835    0.0000 O   0  0  0  0  0  0  0  0  0  0  0  0
    6.7793   -1.2022    0.0000 O   0  0  0  0  0  0  0  0  0  0  0  0
    9.7060   -4.4426    0.0000 O   0  0  0  0  0  0  0  0  0  0  0  0
    7.9460   -1.4080    0.0000 O   0  0  0  0  0  0  0  0  0  0  0  0
    7.4583   -6.5855    0.0000 O   0  0  0  0  0  0  0  0  0  0  0  0
    3.0001    1.4223    0.0000 O   0  0  0  0  0  0  0  0  0  0  0  0
    2.3985    4.8337    0.0000 O   0  0  0  0  0  0  0  0  0  0  0  0
    5.0522    7.0604    0.0000 O   0  0  0  0  0  0  0  0  0  0  0  0
    5.2292   -2.5816    0.0000 C   0  0  3  0  0  0  0  0  0  0  0  0
    4.8872   -3.5213    0.0000 C   0  0  3  0  0  0  0  0  0  0  0  0
    4.5864   -1.8155    0.0000 C   0  0  3  0  0  0  0  0  0  0  0  0
    3.9024   -3.6950    0.0000 C   0  0  0  0  0  0  0  0  0  0  0  0
    3.2596   -2.9289    0.0000 C   0  0  0  0  0  0  0  0  0  0  0  0
    3.6016   -1.9891    0.0000 C   0  0  0  0  0  0  0  0  0  0  0  0
    5.5301   -4.2874    0.0000 C   0  0  0  0  0  0  0  0  0  0  0  0
    6.2140   -2.4080    0.0000 C   0  0  0  0  0  0  0  0  0  0  0  0
    4.9284   -0.8759    0.0000 C   0  0  0  0  0  0  0  0  0  0  0  0
    2.2748   -3.1025    0.0000 C   0  0  0  0  0  0  0  0  0  0  0  0
    7.0800   -2.9080    0.0000 C   0  0  0  0  0  0  0  0  0  0  0  0
    5.1880   -5.2271    0.0000 C   0  0  0  0  0  0  0  0  0  0  0  0
    4.2856   -0.1098    0.0000 C   0  0  0  0  0  0  0  0  0  0  0  0
    6.5148   -4.1137    0.0000 C   0  0  0  0  0  0  0  0  0  0  0  0
    5.9132   -0.7022    0.0000 C   0  0  0  0  0  0  0  0  0  0  0  0
    7.9460   -2.4080    0.0000 C   0  0  0  0  0  0  0  0  0  0  0  0
    4.6277    0.8299    0.0000 C   0  0  0  0  0  0  0  0  0  0  0  0
    7.0800   -3.9080    0.0000 C   0  0  0  0  0  0  0  0  0  0  0  0
    5.8307   -5.9931    0.0000 C   0  0  0  0  0  0  0  0  0  0  0  0
    7.1576   -4.8797    0.0000 C   0  0  0  0  0  0  0  0  0  0  0  0
    6.2552    0.2375    0.0000 C   0  0  0  0  0  0  0  0  0  0  0  0
    8.8121   -2.9080    0.0000 C   0  0  0  0  0  0  0  0  0  0  0  0
    5.6125    1.0035    0.0000 C   0  0  0  0  0  0  0  0  0  0  0  0
    6.8155   -5.8194    0.0000 C   0  0  0  0  0  0  0  0  0  0  0  0
    8.8121   -3.9080    0.0000 C   0  0  0  0  0  0  0  0  0  0  0  0
    7.9460   -4.4080    0.0000 C   0  0  0  0  0  0  0  0  0  0  0  0
   10.6121   -3.9288    0.0000 C   0  0  0  0  0  0  0  0  0  0  0  0
    9.7060   -2.3733    0.0000 C   0  0  0  0  0  0  0  0  0  0  0  0
    3.9849    1.5959    0.0000 C   0  0  0  0  0  0  0  0  0  0  0  0
   10.6121   -2.8871    0.0000 C   0  0  0  0  0  0  0  0  0  0  0  0
   11.6121   -3.9326    0.0000 C   0  0  0  0  0  0  0  0  0  0  0  0
   11.1087   -4.7967    0.0000 C   0  0  0  0  0  0  0  0  0  0  0  0
    4.3269    2.5356    0.0000 C   0  0  0  0  0  0  0  0  0  0  0  0
    3.6841    3.3016    0.0000 C   0  0  0  0  0  0  0  0  0  0  0  0
    4.0261    4.2413    0.0000 C   0  0  0  0  0  0  0  0  0  0  0  0
    3.3833    5.0074    0.0000 C   0  0  0  0  0  0  0  0  0  0  0  0
    5.0109    4.4150    0.0000 C   0  0  0  0  0  0  0  0  0  0  0  0
    3.7254    5.9471    0.0000 C   0  0  0  0  0  0  0  0  0  0  0  0
    5.3530    5.3547    0.0000 C   0  0  0  0  0  0  0  0  0  0  0  0
    4.7102    6.1207    0.0000 C   0  0  0  0  0  0  0  0  0  0  0  0
    5.4413   -1.9990    0.0000 H   0  0  0  0  0  0  0  0  0  0  0  0
    4.6752   -4.1039    0.0000 H   0  0  0  0  0  0  0  0  0  0  0  0
    4.1879   -1.3405    0.0000 H   0  0  0  0  0  0  0  0  0  0  0  0
    3.3654   -4.0049    0.0000 H   0  0  0  0  0  0  0  0  0  0  0  0
    4.1144   -4.2776    0.0000 H   0  0  0  0  0  0  0  0  0  0  0  0
    3.2031   -1.5142    0.0000 H   0  0  0  0  0  0  0  0  0  0  0  0
    2.1671   -2.4919    0.0000 H   0  0  0  0  0  0  0  0  0  0  0  0
    1.6642   -3.2102    0.0000 H   0  0  0  0  0  0  0  0  0  0  0  0
    2.3824   -3.7131    0.0000 H   0  0  0  0  0  0  0  0  0  0  0  0
    6.7268   -3.5311    0.0000 H   0  0  0  0  0  0  0  0  0  0  0  0
    6.5431   -4.2180    0.0000 H   0  0  0  0  0  0  0  0  0  0  0  0
    5.6187   -6.5757    0.0000 H   0  0  0  0  0  0  0  0  0  0  0  0
    7.7681   -4.7721    0.0000 H   0  0  0  0  0  0  0  0  0  0  0  0
    6.8658    0.3451    0.0000 H   0  0  0  0  0  0  0  0  0  0  0  0
    5.8245    1.5861    0.0000 H   0  0  0  0  0  0  0  0  0  0  0  0
    7.9460   -5.0280    0.0000 H   0  0  0  0  0  0  0  0  0  0  0  0
    3.9912   -5.9833    0.0000 H   0  0  0  0  0  0  0  0  0  0  0  0
    2.9023    0.1915    0.0000 H   0  0  0  0  0  0  0  0  0  0  0  0
    7.3162   -0.8922    0.0000 H   0  0  0  0  0  0  0  0  0  0  0  0
    9.6988   -1.7533    0.0000 H   0  0  0  0  0  0  0  0  0  0  0  0
   11.1478   -2.5751    0.0000 H   0  0  0  0  0  0  0  0  0  0  0  0
    8.4830   -1.0980    0.0000 H   0  0  0  0  0  0  0  0  0  0  0  0
   11.6097   -4.5526    0.0000 H   0  0  0  0  0  0  0  0  0  0  0  0
   12.2321   -3.9350    0.0000 H   0  0  0  0  0  0  0  0  0  0  0  0
   11.6145   -3.3126    0.0000 H   0  0  0  0  0  0  0  0  0  0  0  0
   10.5706   -5.1046    0.0000 H   0  0  0  0  0  0  0  0  0  0  0  0
   11.4167   -5.3348    0.0000 H   0  0  0  0  0  0  0  0  0  0  0  0
   11.6469   -4.4888    0.0000 H   0  0  0  0  0  0  0  0  0  0  0  0
    7.2463   -7.1681    0.0000 H   0  0  0  0  0  0  0  0  0  0  0  0
    4.9375    2.6433    0.0000 H   0  0  0  0  0  0  0  0  0  0  0  0
    3.0735    3.1940    0.0000 H   0  0  0  0  0  0  0  0  0  0  0  0
    5.4095    3.9400    0.0000 H   0  0  0  0  0  0  0  0  0  0  0  0
    3.3268    6.4220    0.0000 H   0  0  0  0  0  0  0  0  0  0  0  0
    5.9635    5.4624    0.0000 H   0  0  0  0  0  0  0  0  0  0  0  0
    2.0000    5.3087    0.0000 H   0  0  0  0  0  0  0  0  0  0  0  0
    5.6628    7.1681    0.0000 H   0  0  0  0  0  0  0  0  0  0  0  0
  1 18  2  0  0  0  0
  2 22  1  0  0  0  0
  2 67  1  0  0  0  0
  3 23  1  0  0  0  0
  3 68  1  0  0  0  0
  4 25  1  0  0  0  0
  4 69  1  0  0  0  0
  5 35  1  0  0  0  0
  5 37  1  0  0  0  0
  6 26  1  0  0  0  0
  6 72  1  0  0  0  0
  7 34  1  0  0  0  0
  7 79  1  0  0  0  0
  8 39  2  0  0  0  0
  9 46  1  0  0  0  0
  9 85  1  0  0  0  0
 10 50  1  0  0  0  0
 10 86  1  0  0  0  0
 11 12  1  0  0  0  0
 11 13  1  0  0  0  0
 11 18  1  0  0  0  0
 11 51  1  0  0  0  0
 12 14  1  0  0  0  0
 12 17  1  0  0  0  0
 12 52  1  0  0  0  0
 13 16  1  0  0  0  0
 13 19  1  0  0  0  0
 13 53  1  0  0  0  0
 14 15  1  0  0  0  0
 14 54  1  0  0  0  0
 14 55  1  0  0  0  0
 15 16  2  0  0  0  0
 15 20  1  0  0  0  0
 16 56  1  0  0  0  0
 17 22  2  0  0  0  0
 17 24  1  0  0  0  0
 18 21  1  0  0  0  0
 19 23  1  0  0  0  0
 19 25  2  0  0  0  0
 20 57  1  0  0  0  0
 20 58  1  0  0  0  0
 20 59  1  0  0  0  0
 21 26  2  0  0  0  0
 21 28  1  0  0  0  0
 22 29  1  0  0  0  0
 23 27  2  0  0  0  0
 24 30  2  0  0  0  0
 24 60  1  0  0  0  0
 25 31  1  0  0  0  0
 26 32  1  0  0  0  0
 27 33  1  0  0  0  0
 27 39  1  0  0  0  0
 28 36  2  0  0  0  0
 28 61  1  0  0  0  0
 29 34  2  0  0  0  0
 29 62  1  0  0  0  0
 30 34  1  0  0  0  0
 30 63  1  0  0  0  0
 31 33  2  0  0  0  0
 31 64  1  0  0  0  0
 32 35  2  0  0  0  0
 32 38  1  0  0  0  0
 33 65  1  0  0  0  0
 35 36  1  0  0  0  0
 36 66  1  0  0  0  0
 37 40  1  0  0  0  0
 37 41  1  0  0  0  0
 37 42  1  0  0  0  0
 38 40  2  0  0  0  0
 38 70  1  0  0  0  0
 39 43  1  0  0  0  0
 40 71  1  0  0  0  0
 41 73  1  0  0  0  0
 41 74  1  0  0  0  0
 41 75  1  0  0  0  0
 42 76  1  0  0  0  0
 42 77  1  0  0  0  0
 42 78  1  0  0  0  0
 43 44  2  0  0  0  0
 43 80  1  0  0  0  0
 44 45  1  0  0  0  0
 44 81  1  0  0  0  0
 45 46  2  0  0  0  0
 45 47  1  0  0  0  0
 46 48  1  0  0  0  0
 47 49  2  0  0  0  0
 47 82  1  0  0  0  0
 48 50  2  0  0  0  0
 48 83  1  0  0  0  0
 49 50  1  0  0  0  0
 49 84  1  0  0  0  0
M  END
>  <PUBCHEM_COMPOUND_CID>
14681573

>  <PUBCHEM_COMPOUND_CANONICALIZED>
1

>  <PUBCHEM_CACTVS_COMPLEXITY>
1320

>  <PUBCHEM_CACTVS_HBOND_ACCEPTOR>
10

>  <PUBCHEM_CACTVS_HBOND_DONOR>
7

>  <PUBCHEM_CACTVS_ROTATABLE_BOND>
7

>  <PUBCHEM_CACTVS_SUBSKEYS>
AAADcfB8PAAAAAAAAAAAAAAAAAAAAAAAAAAwYMGCAAAAAACBVAAAGgAACAAADUSAmAAyBoAABgCIAqBSAAACCAAkIAAIiAEGCMgMJzaGNRqCeWCl4BUIuYeI7PzOoAACCAAIAABAAAQQABAAAAAAAAAAAA==

>  <PUBCHEM_IUPAC_OPENEYE_NAME>
(E)-3-(2,4-dihydroxyphenyl)-1-[3-[5-(2,4-dihydroxyphenyl)-6-(5-hydroxy-2,2-dimethyl-chromene-6-carbonyl)-3-methyl-cyclohex-2-en-1-yl]-2,4-dihydroxy-phenyl]prop-2-en-1-one

>  <PUBCHEM_IUPAC_CAS_NAME>
(E)-3-(2,4-dihydroxyphenyl)-1-[3-[5-(2,4-dihydroxyphenyl)-6-[(5-hydroxy-2,2-dimethyl-1-benzopyran-6-yl)-oxomethyl]-3-methyl-1-cyclohex-2-enyl]-2,4-dihydroxyphenyl]-2-propen-1-one

>  <PUBCHEM_IUPAC_NAME>
(E)-3-(2,4-dihydroxyphenyl)-1-[3-[5-(2,4-dihydroxyphenyl)-6-(5-hydroxy-2,2-dimethylchromene-6-carbonyl)-3-methylcyclohex-2-en-1-yl]-2,4-dihydroxyphenyl]prop-2-en-1-one

>  <PUBCHEM_IUPAC_SYSTEMATIC_NAME>
(E)-3-[2,4-bis(oxidanyl)phenyl]-1-[3-[5-[2,4-bis(oxidanyl)phenyl]-6-(2,2-dimethyl-5-oxidanyl-chromen-6-yl)carbonyl-3-methyl-cyclohex-2-en-1-yl]-2,4-bis(oxidanyl)phenyl]prop-2-en-1-one

>  <PUBCHEM_IUPAC_TRADITIONAL_NAME>
(E)-3-(2,4-dihydroxyphenyl)-1-[3-[5-(2,4-dihydroxyphenyl)-6-(5-hydroxy-2,2-dimethyl-chromene-6-carbonyl)-3-methyl-cyclohex-2-en-1-yl]-2,4-dihydroxy-phenyl]prop-2-en-1-one

>  <PUBCHEM_IUPAC_INCHI>
InChI=1S/C40H36O10/c1-20-16-28(24-8-7-23(42)19-33(24)46)35(39(49)27-10-13-34-26(37(27)47)14-15-40(2,3)50-34)29(17-20)36-31(44)12-9-25(38(36)48)30(43)11-5-21-4-6-22(41)18-32(21)45/h4-15,17-19,28-29,35,41-42,44-48H,16H2,1-3H3/b11-5+

>  <PUBCHEM_IUPAC_INCHIKEY>
JIQSDJNLGMFGDV-VZUCSPMQSA-N

>  <PUBCHEM_XLOGP3_AA>
7.2

>  <PUBCHEM_EXACT_MASS>
676.231

>  <PUBCHEM_MOLECULAR_FORMULA>
C40H36O10

>  <PUBCHEM_MOLECULAR_WEIGHT>
676.718

>  <PUBCHEM_OPENEYE_CAN_SMILES>
CC1=CC(C(C(C1)C2=C(C=C(C=C2)O)O)C(=O)C3=C(C4=C(C=C3)OC(C=C4)(C)C)O)C5=C(C=CC(=C5O)C(=O)C=CC6=C(C=C(C=C6)O)O)O

>  <PUBCHEM_OPENEYE_ISO_SMILES>
CC1=CC(C(C(C1)C2=C(C=C(C=C2)O)O)C(=O)C3=C(C4=C(C=C3)OC(C=C4)(C)C)O)C5=C(C=CC(=C5O)C(=O)/C=C/C6=C(C=C(C=C6)O)O)O

>  <PUBCHEM_CACTVS_TPSA>
185

>  <PUBCHEM_MONOISOTOPIC_WEIGHT>
676.231

>  <PUBCHEM_TOTAL_CHARGE>
0

>  <PUBCHEM_HEAVY_ATOM_COUNT>
50

>  <PUBCHEM_ATOM_DEF_STEREO_COUNT>
0

>  <PUBCHEM_ATOM_UDEF_STEREO_COUNT>
3

>  <PUBCHEM_BOND_DEF_STEREO_COUNT>
1

>  <PUBCHEM_BOND_UDEF_STEREO_COUNT>
0

>  <PUBCHEM_ISOTOPIC_ATOM_COUNT>
0

>  <PUBCHEM_COMPONENT_COUNT>
1

>  <PUBCHEM_CACTVS_TAUTO_COUNT>
986

>  <PUBCHEM_COORDINATE_TYPE>
1
5
255

>  <PUBCHEM_BONDANNOTATIONS>
11  18  3
12  17  3
13  19  3
17  22  8
17  24  8
19  23  8
19  25  8
21  26  8
21  28  8
22  29  8
23  27  8
24  30  8
25  31  8
26  32  8
27  33  8
28  36  8
29  34  8
30  34  8
31  33  8
32  35  8
35  36  8
45  46  8
45  47  8
46  48  8
47  49  8
48  50  8
49  50  8

$$$$
