14681458
 OpenBabel06101807152D

 57 60  0  0  1  0  0  0  0  0999 V2000
    5.1350    0.4198    0.0000 O   0  0  0  0  0  0  0  0  0  0  0  0
    6.8671    2.4198    0.0000 O   0  0  0  0  0  0  0  0  0  0  0  0
    5.1350    3.4198    0.0000 O   0  0  0  0  0  0  0  0  0  0  0  0
    3.4030    2.4198    0.0000 O   0  0  0  0  0  0  0  0  0  0  0  0
    2.5369    0.9198    0.0000 O   0  0  0  0  0  0  0  0  0  0  0  0
    7.7331    1.9198    0.0000 O   0  0  0  0  0  0  0  0  0  0  0  0
    6.0010   -1.0802    0.0000 O   0  0  0  0  0  0  0  0  0  0  0  0
    9.4931   -1.1149    0.0000 O   0  0  0  0  0  0  0  0  0  0  0  0
    6.0010    3.9198    0.0000 O   0  0  0  0  0  0  0  0  0  0  0  0
    9.4815    1.9544    0.0000 O   0  0  0  0  0  0  0  0  0  0  0  0
   12.1196   -3.6077    0.0000 O   0  0  0  0  0  0  0  0  0  0  0  0
   13.8555   -2.6144    0.0000 O   0  0  0  0  0  0  0  0  0  0  0  0
    6.0010    1.9198    0.0000 C   0  0  3  0  0  0  0  0  0  0  0  0
    5.1350    2.4198    0.0000 C   0  0  3  0  0  0  0  0  0  0  0  0
    6.0010    0.9198    0.0000 C   0  0  3  0  0  0  0  0  0  0  0  0
    4.2690    1.9198    0.0000 C   0  0  3  0  0  0  0  0  0  0  0  0
    4.2690    0.9198    0.0000 C   0  0  3  0  0  0  0  0  0  0  0  0
    6.8671    0.4198    0.0000 C   0  0  0  0  0  0  0  0  0  0  0  0
    3.4030    0.4198    0.0000 C   0  0  0  0  0  0  0  0  0  0  0  0
    7.7331    0.9198    0.0000 C   0  0  0  0  0  0  0  0  0  0  0  0
    6.8671   -0.5802    0.0000 C   0  0  0  0  0  0  0  0  0  0  0  0
    8.5991    0.4198    0.0000 C   0  0  0  0  0  0  0  0  0  0  0  0
    7.7331   -1.0802    0.0000 C   0  0  0  0  0  0  0  0  0  0  0  0
    8.5991   -0.5802    0.0000 C   0  0  0  0  0  0  0  0  0  0  0  0
    6.8671    3.4198    0.0000 C   0  0  0  0  0  0  0  0  0  0  0  0
    9.4931    0.9544    0.0000 C   0  0  0  0  0  0  0  0  0  0  0  0
    7.7331    3.9198    0.0000 C   0  0  0  0  0  0  0  0  0  0  0  0
   10.3991   -0.6010    0.0000 C   0  0  0  0  0  0  0  0  0  0  0  0
   10.3991    0.4406    0.0000 C   0  0  0  0  0  0  0  0  0  0  0  0
   11.2632   -1.1044    0.0000 C   0  0  0  0  0  0  0  0  0  0  0  0
   11.2594   -2.1044    0.0000 C   0  0  0  0  0  0  0  0  0  0  0  0
   12.1312   -0.6077    0.0000 C   0  0  0  0  0  0  0  0  0  0  0  0
   12.1235   -2.6077    0.0000 C   0  0  0  0  0  0  0  0  0  0  0  0
   12.9953   -1.1111    0.0000 C   0  0  0  0  0  0  0  0  0  0  0  0
   12.9914   -2.1110    0.0000 C   0  0  0  0  0  0  0  0  0  0  0  0
    6.5380    1.6098    0.0000 H   0  0  0  0  0  0  0  0  0  0  0  0
    5.6720    2.7298    0.0000 H   0  0  0  0  0  0  0  0  0  0  0  0
    6.0010    0.2998    0.0000 H   0  0  0  0  0  0  0  0  0  0  0  0
    4.2690    2.5398    0.0000 H   0  0  0  0  0  0  0  0  0  0  0  0
    4.2690    0.2998    0.0000 H   0  0  0  0  0  0  0  0  0  0  0  0
    3.0044   -0.0552    0.0000 H   0  0  0  0  0  0  0  0  0  0  0  0
    3.8015   -0.0552    0.0000 H   0  0  0  0  0  0  0  0  0  0  0  0
    4.5981    3.7298    0.0000 H   0  0  0  0  0  0  0  0  0  0  0  0
    3.4030    3.0398    0.0000 H   0  0  0  0  0  0  0  0  0  0  0  0
    7.7331   -1.7002    0.0000 H   0  0  0  0  0  0  0  0  0  0  0  0
    2.0000    0.6098    0.0000 H   0  0  0  0  0  0  0  0  0  0  0  0
    8.2700    2.2298    0.0000 H   0  0  0  0  0  0  0  0  0  0  0  0
    6.0010   -1.7002    0.0000 H   0  0  0  0  0  0  0  0  0  0  0  0
    8.0431    3.3828    0.0000 H   0  0  0  0  0  0  0  0  0  0  0  0
    8.2700    4.2298    0.0000 H   0  0  0  0  0  0  0  0  0  0  0  0
    7.4231    4.4567    0.0000 H   0  0  0  0  0  0  0  0  0  0  0  0
   10.9349    0.7527    0.0000 H   0  0  0  0  0  0  0  0  0  0  0  0
   10.7212   -2.4123    0.0000 H   0  0  0  0  0  0  0  0  0  0  0  0
   12.1336    0.0123    0.0000 H   0  0  0  0  0  0  0  0  0  0  0  0
   13.5334   -0.8031    0.0000 H   0  0  0  0  0  0  0  0  0  0  0  0
   12.6553   -3.9198    0.0000 H   0  0  0  0  0  0  0  0  0  0  0  0
   14.3936   -2.3065    0.0000 H   0  0  0  0  0  0  0  0  0  0  0  0
  1 15  1  0  0  0  0
  1 17  1  0  0  0  0
  2 13  1  0  0  0  0
  2 25  1  0  0  0  0
  3 14  1  0  0  0  0
  3 43  1  0  0  0  0
  4 16  1  0  0  0  0
  4 44  1  0  0  0  0
  5 19  1  0  0  0  0
  5 46  1  0  0  0  0
  6 20  1  0  0  0  0
  6 47  1  0  0  0  0
  7 21  1  0  0  0  0
  7 48  1  0  0  0  0
  8 24  1  0  0  0  0
  8 28  1  0  0  0  0
  9 25  2  0  0  0  0
 10 26  2  0  0  0  0
 11 33  1  0  0  0  0
 11 56  1  0  0  0  0
 12 35  1  0  0  0  0
 12 57  1  0  0  0  0
 13 14  1  0  0  0  0
 13 15  1  0  0  0  0
 13 36  1  0  0  0  0
 14 16  1  0  0  0  0
 14 37  1  0  0  0  0
 15 18  1  0  0  0  0
 15 38  1  0  0  0  0
 16 17  1  0  0  0  0
 16 39  1  0  0  0  0
 17 19  1  0  0  0  0
 17 40  1  0  0  0  0
 18 20  2  0  0  0  0
 18 21  1  0  0  0  0
 19 41  1  0  0  0  0
 19 42  1  0  0  0  0
 20 22  1  0  0  0  0
 21 23  2  0  0  0  0
 22 24  2  0  0  0  0
 22 26  1  0  0  0  0
 23 24  1  0  0  0  0
 23 45  1  0  0  0  0
 25 27  1  0  0  0  0
 26 29  1  0  0  0  0
 27 49  1  0  0  0  0
 27 50  1  0  0  0  0
 27 51  1  0  0  0  0
 28 29  2  0  0  0  0
 28 30  1  0  0  0  0
 29 52  1  0  0  0  0
 30 31  2  0  0  0  0
 30 32  1  0  0  0  0
 31 33  1  0  0  0  0
 31 53  1  0  0  0  0
 32 34  2  0  0  0  0
 32 54  1  0  0  0  0
 33 35  2  0  0  0  0
 34 35  1  0  0  0  0
 34 55  1  0  0  0  0
M  END
>  <PUBCHEM_COMPOUND_CID>
14681458

>  <PUBCHEM_COMPOUND_CANONICALIZED>
1

>  <PUBCHEM_CACTVS_COMPLEXITY>
831

>  <PUBCHEM_CACTVS_HBOND_ACCEPTOR>
12

>  <PUBCHEM_CACTVS_HBOND_DONOR>
7

>  <PUBCHEM_CACTVS_ROTATABLE_BOND>
5

>  <PUBCHEM_CACTVS_SUBSKEYS>
AAADceB4PAAAAAAAAAAAAAAAAAAAAAAAAAA0YIEAAAAAAACBQAAAGgAACAAADBSgmAIyDoAABgCIAqDSCAACCAAkIAAIiAEGiMgNNzaGNRqCeWGl4BULuQfI7PzOIAADCAAIQABAAAYQABCAAAAAAAAAAA==

>  <PUBCHEM_IUPAC_OPENEYE_NAME>
[2-[2-(3,4-dihydroxyphenyl)-5,7-dihydroxy-4-oxo-chromen-6-yl]-4,5-dihydroxy-6-(hydroxymethyl)tetrahydropyran-3-yl] acetate

>  <PUBCHEM_IUPAC_CAS_NAME>
acetic acid [2-[2-(3,4-dihydroxyphenyl)-5,7-dihydroxy-4-oxo-1-benzopyran-6-yl]-4,5-dihydroxy-6-(hydroxymethyl)-3-oxanyl] ester

>  <PUBCHEM_IUPAC_NAME>
[2-[2-(3,4-dihydroxyphenyl)-5,7-dihydroxy-4-oxochromen-6-yl]-4,5-dihydroxy-6-(hydroxymethyl)oxan-3-yl] acetate

>  <PUBCHEM_IUPAC_SYSTEMATIC_NAME>
[2-[2-[3,4-bis(oxidanyl)phenyl]-5,7-bis(oxidanyl)-4-oxidanylidene-chromen-6-yl]-6-(hydroxymethyl)-4,5-bis(oxidanyl)oxan-3-yl] ethanoate

>  <PUBCHEM_IUPAC_TRADITIONAL_NAME>
acetic acid [2-[2-(3,4-dihydroxyphenyl)-5,7-dihydroxy-4-keto-chromen-6-yl]-4,5-dihydroxy-6-methylol-tetrahydropyran-3-yl] ester

>  <PUBCHEM_IUPAC_INCHI>
InChI=1S/C23H22O12/c1-8(25)33-23-21(32)19(30)16(7-24)35-22(23)18-13(29)6-15-17(20(18)31)12(28)5-14(34-15)9-2-3-10(26)11(27)4-9/h2-6,16,19,21-24,26-27,29-32H,7H2,1H3

>  <PUBCHEM_IUPAC_INCHIKEY>
LZCYTIIPENLJKB-UHFFFAOYSA-N

>  <PUBCHEM_XLOGP3_AA>
0.4

>  <PUBCHEM_EXACT_MASS>
490.111

>  <PUBCHEM_MOLECULAR_FORMULA>
C23H22O12

>  <PUBCHEM_MOLECULAR_WEIGHT>
490.417

>  <PUBCHEM_OPENEYE_CAN_SMILES>
CC(=O)OC1C(C(C(OC1C2=C(C=C3C(=C2O)C(=O)C=C(O3)C4=CC(=C(C=C4)O)O)O)CO)O)O

>  <PUBCHEM_OPENEYE_ISO_SMILES>
CC(=O)OC1C(C(C(OC1C2=C(C=C3C(=C2O)C(=O)C=C(O3)C4=CC(=C(C=C4)O)O)O)CO)O)O

>  <PUBCHEM_CACTVS_TPSA>
203

>  <PUBCHEM_MONOISOTOPIC_WEIGHT>
490.111

>  <PUBCHEM_TOTAL_CHARGE>
0

>  <PUBCHEM_HEAVY_ATOM_COUNT>
35

>  <PUBCHEM_ATOM_DEF_STEREO_COUNT>
0

>  <PUBCHEM_ATOM_UDEF_STEREO_COUNT>
5

>  <PUBCHEM_BOND_DEF_STEREO_COUNT>
0

>  <PUBCHEM_BOND_UDEF_STEREO_COUNT>
0

>  <PUBCHEM_ISOTOPIC_ATOM_COUNT>
0

>  <PUBCHEM_COMPONENT_COUNT>
1

>  <PUBCHEM_CACTVS_TAUTO_COUNT>
162

>  <PUBCHEM_COORDINATE_TYPE>
1
5
255

>  <PUBCHEM_BONDANNOTATIONS>
15  18  3
17  19  3
18  20  8
18  21  8
13  2  3
20  22  8
21  23  8
22  24  8
22  26  8
23  24  8
26  29  8
28  29  8
14  3  3
30  31  8
30  32  8
31  33  8
32  34  8
33  35  8
34  35  8
16  4  3
8  24  8
8  28  8

$$$$
