14681460
 OpenBabel06101807152D

 57 60  0  0  1  0  0  0  0  0999 V2000
    6.3301   -1.0000    0.0000 O   0  0  0  0  0  0  0  0  0  0  0  0
    3.7320   -0.5000    0.0000 O   0  0  0  0  0  0  0  0  0  0  0  0
    3.7320   -2.5000    0.0000 O   0  0  0  0  0  0  0  0  0  0  0  0
    5.4641   -3.5000    0.0000 O   0  0  0  0  0  0  0  0  0  0  0  0
    7.1962   -3.5000    0.0000 O   0  0  0  0  0  0  0  0  0  0  0  0
    7.2241    0.4653    0.0000 O   0  0  0  0  0  0  0  0  0  0  0  0
    3.7320    0.5000    0.0000 O   0  0  0  0  0  0  0  0  0  0  0  0
    5.4641    3.5000    0.0000 O   0  0  0  0  0  0  0  0  0  0  0  0
    2.8660   -2.0000    0.0000 O   0  0  0  0  0  0  0  0  0  0  0  0
    7.2125    3.5346    0.0000 O   0  0  0  0  0  0  0  0  0  0  0  0
    9.8506   -2.0275    0.0000 O   0  0  0  0  0  0  0  0  0  0  0  0
   11.5865   -1.0341    0.0000 O   0  0  0  0  0  0  0  0  0  0  0  0
    4.5981   -1.0000    0.0000 C   0  0  3  0  0  0  0  0  0  0  0  0
    4.5981   -2.0000    0.0000 C   0  0  3  0  0  0  0  0  0  0  0  0
    5.4641   -0.5000    0.0000 C   0  0  3  0  0  0  0  0  0  0  0  0
    5.4641   -2.5000    0.0000 C   0  0  3  0  0  0  0  0  0  0  0  0
    6.3301   -2.0000    0.0000 C   0  0  3  0  0  0  0  0  0  0  0  0
    5.4641    0.5000    0.0000 C   0  0  0  0  0  0  0  0  0  0  0  0
    7.1962   -2.5000    0.0000 C   0  0  0  0  0  0  0  0  0  0  0  0
    6.3301    1.0000    0.0000 C   0  0  0  0  0  0  0  0  0  0  0  0
    4.5981    1.0000    0.0000 C   0  0  0  0  0  0  0  0  0  0  0  0
    6.3301    2.0000    0.0000 C   0  0  0  0  0  0  0  0  0  0  0  0
    4.5981    2.0000    0.0000 C   0  0  0  0  0  0  0  0  0  0  0  0
    5.4641    2.5000    0.0000 C   0  0  0  0  0  0  0  0  0  0  0  0
    2.8660   -1.0000    0.0000 C   0  0  0  0  0  0  0  0  0  0  0  0
    7.2241    2.5347    0.0000 C   0  0  0  0  0  0  0  0  0  0  0  0
    8.1301    0.9792    0.0000 C   0  0  0  0  0  0  0  0  0  0  0  0
    8.1301    2.0208    0.0000 C   0  0  0  0  0  0  0  0  0  0  0  0
    2.0000   -0.5000    0.0000 C   0  0  0  0  0  0  0  0  0  0  0  0
    8.9942    0.4758    0.0000 C   0  0  0  0  0  0  0  0  0  0  0  0
    8.9904   -0.5241    0.0000 C   0  0  0  0  0  0  0  0  0  0  0  0
    9.8622    0.9725    0.0000 C   0  0  0  0  0  0  0  0  0  0  0  0
    9.8545   -1.0275    0.0000 C   0  0  0  0  0  0  0  0  0  0  0  0
   10.7263    0.4692    0.0000 C   0  0  0  0  0  0  0  0  0  0  0  0
   10.7224   -0.5308    0.0000 C   0  0  0  0  0  0  0  0  0  0  0  0
    4.5981   -0.3800    0.0000 H   0  0  0  0  0  0  0  0  0  0  0  0
    4.5981   -2.6200    0.0000 H   0  0  0  0  0  0  0  0  0  0  0  0
    6.0010   -0.1900    0.0000 H   0  0  0  0  0  0  0  0  0  0  0  0
    6.0010   -2.8100    0.0000 H   0  0  0  0  0  0  0  0  0  0  0  0
    6.8671   -1.6900    0.0000 H   0  0  0  0  0  0  0  0  0  0  0  0
    7.8067   -2.6077    0.0000 H   0  0  0  0  0  0  0  0  0  0  0  0
    7.4082   -1.9174    0.0000 H   0  0  0  0  0  0  0  0  0  0  0  0
    3.7320   -3.1200    0.0000 H   0  0  0  0  0  0  0  0  0  0  0  0
    4.9272   -3.8100    0.0000 H   0  0  0  0  0  0  0  0  0  0  0  0
    4.0611    2.3100    0.0000 H   0  0  0  0  0  0  0  0  0  0  0  0
    7.7331   -3.8100    0.0000 H   0  0  0  0  0  0  0  0  0  0  0  0
    8.6659    2.3329    0.0000 H   0  0  0  0  0  0  0  0  0  0  0  0
    3.1951    0.8100    0.0000 H   0  0  0  0  0  0  0  0  0  0  0  0
    2.3100    0.0369    0.0000 H   0  0  0  0  0  0  0  0  0  0  0  0
    1.4631   -0.1900    0.0000 H   0  0  0  0  0  0  0  0  0  0  0  0
    1.6900   -1.0369    0.0000 H   0  0  0  0  0  0  0  0  0  0  0  0
    4.9272    3.8100    0.0000 H   0  0  0  0  0  0  0  0  0  0  0  0
    8.4522   -0.8321    0.0000 H   0  0  0  0  0  0  0  0  0  0  0  0
    9.8646    1.5925    0.0000 H   0  0  0  0  0  0  0  0  0  0  0  0
   11.2644    0.7771    0.0000 H   0  0  0  0  0  0  0  0  0  0  0  0
   10.3863   -2.3395    0.0000 H   0  0  0  0  0  0  0  0  0  0  0  0
   12.1246   -0.7262    0.0000 H   0  0  0  0  0  0  0  0  0  0  0  0
  1 15  1  0  0  0  0
  1 17  1  0  0  0  0
  2 13  1  0  0  0  0
  2 25  1  0  0  0  0
  3 14  1  0  0  0  0
  3 43  1  0  0  0  0
  4 16  1  0  0  0  0
  4 44  1  0  0  0  0
  5 19  1  0  0  0  0
  5 46  1  0  0  0  0
  6 20  1  0  0  0  0
  6 27  1  0  0  0  0
  7 21  1  0  0  0  0
  7 48  1  0  0  0  0
  8 24  1  0  0  0  0
  8 52  1  0  0  0  0
  9 25  2  0  0  0  0
 10 26  2  0  0  0  0
 11 33  1  0  0  0  0
 11 56  1  0  0  0  0
 12 35  1  0  0  0  0
 12 57  1  0  0  0  0
 13 14  1  0  0  0  0
 13 15  1  0  0  0  0
 13 36  1  0  0  0  0
 14 16  1  0  0  0  0
 14 37  1  0  0  0  0
 15 18  1  0  0  0  0
 15 38  1  0  0  0  0
 16 17  1  0  0  0  0
 16 39  1  0  0  0  0
 17 19  1  0  0  0  0
 17 40  1  0  0  0  0
 18 20  1  0  0  0  0
 18 21  2  0  0  0  0
 19 41  1  0  0  0  0
 19 42  1  0  0  0  0
 20 22  2  0  0  0  0
 21 23  1  0  0  0  0
 22 24  1  0  0  0  0
 22 26  1  0  0  0  0
 23 24  2  0  0  0  0
 23 45  1  0  0  0  0
 25 29  1  0  0  0  0
 26 28  1  0  0  0  0
 27 28  2  0  0  0  0
 27 30  1  0  0  0  0
 28 47  1  0  0  0  0
 29 49  1  0  0  0  0
 29 50  1  0  0  0  0
 29 51  1  0  0  0  0
 30 31  2  0  0  0  0
 30 32  1  0  0  0  0
 31 33  1  0  0  0  0
 31 53  1  0  0  0  0
 32 34  2  0  0  0  0
 32 54  1  0  0  0  0
 33 35  2  0  0  0  0
 34 35  1  0  0  0  0
 34 55  1  0  0  0  0
M  END
>  <PUBCHEM_COMPOUND_CID>
14681460

>  <PUBCHEM_COMPOUND_CANONICALIZED>
1

>  <PUBCHEM_CACTVS_COMPLEXITY>
831

>  <PUBCHEM_CACTVS_HBOND_ACCEPTOR>
12

>  <PUBCHEM_CACTVS_HBOND_DONOR>
7

>  <PUBCHEM_CACTVS_ROTATABLE_BOND>
5

>  <PUBCHEM_CACTVS_SUBSKEYS>
AAADceB4PAAAAAAAAAAAAAAAAAAAAAAAAAA0YIEAAAAAAACBQAAAGgAACAAADBSgmAIyDoAABgCIAqDSCAACCAAkIAAIiAEGiMgNNzaGNRqCeWGl4BULuQfI7PzOIAADCAAIQABAAAYQABCAAAAAAAAAAA==

>  <PUBCHEM_IUPAC_OPENEYE_NAME>
[2-[2-(3,4-dihydroxyphenyl)-5,7-dihydroxy-4-oxo-chromen-8-yl]-4,5-dihydroxy-6-(hydroxymethyl)tetrahydropyran-3-yl] acetate

>  <PUBCHEM_IUPAC_CAS_NAME>
acetic acid [2-[2-(3,4-dihydroxyphenyl)-5,7-dihydroxy-4-oxo-1-benzopyran-8-yl]-4,5-dihydroxy-6-(hydroxymethyl)-3-oxanyl] ester

>  <PUBCHEM_IUPAC_NAME>
[2-[2-(3,4-dihydroxyphenyl)-5,7-dihydroxy-4-oxochromen-8-yl]-4,5-dihydroxy-6-(hydroxymethyl)oxan-3-yl] acetate

>  <PUBCHEM_IUPAC_SYSTEMATIC_NAME>
[2-[2-[3,4-bis(oxidanyl)phenyl]-5,7-bis(oxidanyl)-4-oxidanylidene-chromen-8-yl]-6-(hydroxymethyl)-4,5-bis(oxidanyl)oxan-3-yl] ethanoate

>  <PUBCHEM_IUPAC_TRADITIONAL_NAME>
acetic acid [2-[2-(3,4-dihydroxyphenyl)-5,7-dihydroxy-4-keto-chromen-8-yl]-4,5-dihydroxy-6-methylol-tetrahydropyran-3-yl] ester

>  <PUBCHEM_IUPAC_INCHI>
InChI=1S/C23H22O12/c1-8(25)33-23-20(32)19(31)16(7-24)35-22(23)18-13(29)5-12(28)17-14(30)6-15(34-21(17)18)9-2-3-10(26)11(27)4-9/h2-6,16,19-20,22-24,26-29,31-32H,7H2,1H3

>  <PUBCHEM_IUPAC_INCHIKEY>
BUWALTSLLYTARL-UHFFFAOYSA-N

>  <PUBCHEM_XLOGP3_AA>
0.4

>  <PUBCHEM_EXACT_MASS>
490.111

>  <PUBCHEM_MOLECULAR_FORMULA>
C23H22O12

>  <PUBCHEM_MOLECULAR_WEIGHT>
490.417

>  <PUBCHEM_OPENEYE_CAN_SMILES>
CC(=O)OC1C(C(C(OC1C2=C(C=C(C3=C2OC(=CC3=O)C4=CC(=C(C=C4)O)O)O)O)CO)O)O

>  <PUBCHEM_OPENEYE_ISO_SMILES>
CC(=O)OC1C(C(C(OC1C2=C(C=C(C3=C2OC(=CC3=O)C4=CC(=C(C=C4)O)O)O)O)CO)O)O

>  <PUBCHEM_CACTVS_TPSA>
203

>  <PUBCHEM_MONOISOTOPIC_WEIGHT>
490.111

>  <PUBCHEM_TOTAL_CHARGE>
0

>  <PUBCHEM_HEAVY_ATOM_COUNT>
35

>  <PUBCHEM_ATOM_DEF_STEREO_COUNT>
0

>  <PUBCHEM_ATOM_UDEF_STEREO_COUNT>
5

>  <PUBCHEM_BOND_DEF_STEREO_COUNT>
0

>  <PUBCHEM_BOND_UDEF_STEREO_COUNT>
0

>  <PUBCHEM_ISOTOPIC_ATOM_COUNT>
0

>  <PUBCHEM_COMPONENT_COUNT>
1

>  <PUBCHEM_CACTVS_TAUTO_COUNT>
162

>  <PUBCHEM_COORDINATE_TYPE>
1
5
255

>  <PUBCHEM_BONDANNOTATIONS>
15  18  3
17  19  3
18  20  8
18  21  8
13  2  3
20  22  8
21  23  8
22  24  8
22  26  8
23  24  8
26  28  8
27  28  8
14  3  3
30  31  8
30  32  8
31  33  8
32  34  8
33  35  8
34  35  8
16  4  3
6  20  8
6  27  8

$$$$
