14681454
 OpenBabel06101807152D

 62 65  0  0  1  0  0  0  0  0999 V2000
    6.3301    0.4198    0.0000 O   0  0  0  0  0  0  0  0  0  0  0  0
    8.0622    2.4198    0.0000 O   0  0  0  0  0  0  0  0  0  0  0  0
    6.3301    3.4198    0.0000 O   0  0  0  0  0  0  0  0  0  0  0  0
    4.5981    2.4198    0.0000 O   0  0  0  0  0  0  0  0  0  0  0  0
    3.7320    0.9198    0.0000 O   0  0  0  0  0  0  0  0  0  0  0  0
    8.9282    1.9198    0.0000 O   0  0  0  0  0  0  0  0  0  0  0  0
    7.1962   -1.0802    0.0000 O   0  0  0  0  0  0  0  0  0  0  0  0
   10.6882   -1.1149    0.0000 O   0  0  0  0  0  0  0  0  0  0  0  0
    7.1962    3.9198    0.0000 O   0  0  0  0  0  0  0  0  0  0  0  0
   10.6766    1.9544    0.0000 O   0  0  0  0  0  0  0  0  0  0  0  0
    2.8660   -0.5802    0.0000 O   0  0  0  0  0  0  0  0  0  0  0  0
   13.3147   -3.6077    0.0000 O   0  0  0  0  0  0  0  0  0  0  0  0
   15.0506   -2.6144    0.0000 O   0  0  0  0  0  0  0  0  0  0  0  0
    7.1962    1.9198    0.0000 C   0  0  3  0  0  0  0  0  0  0  0  0
    6.3301    2.4198    0.0000 C   0  0  3  0  0  0  0  0  0  0  0  0
    7.1962    0.9198    0.0000 C   0  0  3  0  0  0  0  0  0  0  0  0
    5.4641    1.9198    0.0000 C   0  0  3  0  0  0  0  0  0  0  0  0
    5.4641    0.9198    0.0000 C   0  0  3  0  0  0  0  0  0  0  0  0
    8.0622    0.4198    0.0000 C   0  0  0  0  0  0  0  0  0  0  0  0
    4.5981    0.4198    0.0000 C   0  0  0  0  0  0  0  0  0  0  0  0
    8.9282    0.9198    0.0000 C   0  0  0  0  0  0  0  0  0  0  0  0
    8.0622   -0.5802    0.0000 C   0  0  0  0  0  0  0  0  0  0  0  0
    9.7942    0.4198    0.0000 C   0  0  0  0  0  0  0  0  0  0  0  0
    8.9282   -1.0802    0.0000 C   0  0  0  0  0  0  0  0  0  0  0  0
    9.7942   -0.5802    0.0000 C   0  0  0  0  0  0  0  0  0  0  0  0
    8.0622    3.4198    0.0000 C   0  0  0  0  0  0  0  0  0  0  0  0
   10.6882    0.9544    0.0000 C   0  0  0  0  0  0  0  0  0  0  0  0
    8.9282    3.9198    0.0000 C   0  0  0  0  0  0  0  0  0  0  0  0
    2.8660    0.4198    0.0000 C   0  0  0  0  0  0  0  0  0  0  0  0
   11.5942    0.4406    0.0000 C   0  0  0  0  0  0  0  0  0  0  0  0
   11.5942   -0.6010    0.0000 C   0  0  0  0  0  0  0  0  0  0  0  0
   12.4583   -1.1044    0.0000 C   0  0  0  0  0  0  0  0  0  0  0  0
    2.0000    0.9198    0.0000 C   0  0  0  0  0  0  0  0  0  0  0  0
   12.4545   -2.1044    0.0000 C   0  0  0  0  0  0  0  0  0  0  0  0
   13.3263   -0.6077    0.0000 C   0  0  0  0  0  0  0  0  0  0  0  0
   13.3186   -2.6077    0.0000 C   0  0  0  0  0  0  0  0  0  0  0  0
   14.1904   -1.1111    0.0000 C   0  0  0  0  0  0  0  0  0  0  0  0
   14.1865   -2.1110    0.0000 C   0  0  0  0  0  0  0  0  0  0  0  0
    7.7331    1.6098    0.0000 H   0  0  0  0  0  0  0  0  0  0  0  0
    6.8671    2.7298    0.0000 H   0  0  0  0  0  0  0  0  0  0  0  0
    7.1962    0.2998    0.0000 H   0  0  0  0  0  0  0  0  0  0  0  0
    5.4641    2.5398    0.0000 H   0  0  0  0  0  0  0  0  0  0  0  0
    5.4641    0.2998    0.0000 H   0  0  0  0  0  0  0  0  0  0  0  0
    4.1996   -0.0552    0.0000 H   0  0  0  0  0  0  0  0  0  0  0  0
    4.9966   -0.0552    0.0000 H   0  0  0  0  0  0  0  0  0  0  0  0
    5.7932    3.7298    0.0000 H   0  0  0  0  0  0  0  0  0  0  0  0
    4.5981    3.0398    0.0000 H   0  0  0  0  0  0  0  0  0  0  0  0
    8.9282   -1.7002    0.0000 H   0  0  0  0  0  0  0  0  0  0  0  0
    9.4651    2.2298    0.0000 H   0  0  0  0  0  0  0  0  0  0  0  0
    7.1962   -1.7002    0.0000 H   0  0  0  0  0  0  0  0  0  0  0  0
    9.2382    3.3828    0.0000 H   0  0  0  0  0  0  0  0  0  0  0  0
    9.4651    4.2298    0.0000 H   0  0  0  0  0  0  0  0  0  0  0  0
    8.6182    4.4567    0.0000 H   0  0  0  0  0  0  0  0  0  0  0  0
   12.1300    0.7527    0.0000 H   0  0  0  0  0  0  0  0  0  0  0  0
    2.3100    1.4567    0.0000 H   0  0  0  0  0  0  0  0  0  0  0  0
    1.4631    1.2298    0.0000 H   0  0  0  0  0  0  0  0  0  0  0  0
    1.6900    0.3828    0.0000 H   0  0  0  0  0  0  0  0  0  0  0  0
   11.9163   -2.4123    0.0000 H   0  0  0  0  0  0  0  0  0  0  0  0
   13.3287    0.0123    0.0000 H   0  0  0  0  0  0  0  0  0  0  0  0
   14.7285   -0.8031    0.0000 H   0  0  0  0  0  0  0  0  0  0  0  0
   13.8504   -3.9198    0.0000 H   0  0  0  0  0  0  0  0  0  0  0  0
   15.5887   -2.3065    0.0000 H   0  0  0  0  0  0  0  0  0  0  0  0
  1 16  1  0  0  0  0
  1 18  1  0  0  0  0
  2 14  1  0  0  0  0
  2 26  1  0  0  0  0
  3 15  1  0  0  0  0
  3 46  1  0  0  0  0
  4 17  1  0  0  0  0
  4 47  1  0  0  0  0
  5 20  1  0  0  0  0
  5 29  1  0  0  0  0
  6 21  1  0  0  0  0
  6 49  1  0  0  0  0
  7 22  1  0  0  0  0
  7 50  1  0  0  0  0
  8 25  1  0  0  0  0
  8 31  1  0  0  0  0
  9 26  2  0  0  0  0
 10 27  2  0  0  0  0
 11 29  2  0  0  0  0
 12 36  1  0  0  0  0
 12 61  1  0  0  0  0
 13 38  1  0  0  0  0
 13 62  1  0  0  0  0
 14 15  1  0  0  0  0
 14 16  1  0  0  0  0
 14 39  1  0  0  0  0
 15 17  1  0  0  0  0
 15 40  1  0  0  0  0
 16 19  1  0  0  0  0
 16 41  1  0  0  0  0
 17 18  1  0  0  0  0
 17 42  1  0  0  0  0
 18 20  1  0  0  0  0
 18 43  1  0  0  0  0
 19 21  2  0  0  0  0
 19 22  1  0  0  0  0
 20 44  1  0  0  0  0
 20 45  1  0  0  0  0
 21 23  1  0  0  0  0
 22 24  2  0  0  0  0
 23 25  2  0  0  0  0
 23 27  1  0  0  0  0
 24 25  1  0  0  0  0
 24 48  1  0  0  0  0
 26 28  1  0  0  0  0
 27 30  1  0  0  0  0
 28 51  1  0  0  0  0
 28 52  1  0  0  0  0
 28 53  1  0  0  0  0
 29 33  1  0  0  0  0
 30 31  2  0  0  0  0
 30 54  1  0  0  0  0
 31 32  1  0  0  0  0
 32 34  2  0  0  0  0
 32 35  1  0  0  0  0
 33 55  1  0  0  0  0
 33 56  1  0  0  0  0
 33 57  1  0  0  0  0
 34 36  1  0  0  0  0
 34 58  1  0  0  0  0
 35 37  2  0  0  0  0
 35 59  1  0  0  0  0
 36 38  2  0  0  0  0
 37 38  1  0  0  0  0
 37 60  1  0  0  0  0
M  END
>  <PUBCHEM_COMPOUND_CID>
14681454

>  <PUBCHEM_COMPOUND_CANONICALIZED>
1

>  <PUBCHEM_CACTVS_COMPLEXITY>
936

>  <PUBCHEM_CACTVS_HBOND_ACCEPTOR>
13

>  <PUBCHEM_CACTVS_HBOND_DONOR>
6

>  <PUBCHEM_CACTVS_ROTATABLE_BOND>
7

>  <PUBCHEM_CACTVS_SUBSKEYS>
AAADceB4PAAAAAAAAAAAAAAAAAAAAAAAAAA0YIEAAAAAAACBQAAAGgAACAAADBSgmAIyDoAABgCIAqDSCAACCAAkIAAIiAEGiMgNNzaGNRqCeWGl4BULuQfI7PzOIAADCAAIQABAAAYQABCAAAAAAAAAAA==

>  <PUBCHEM_IUPAC_OPENEYE_NAME>
[5-acetoxy-6-[2-(3,4-dihydroxyphenyl)-5,7-dihydroxy-4-oxo-chromen-6-yl]-3,4-dihydroxy-tetrahydropyran-2-yl]methyl acetate

>  <PUBCHEM_IUPAC_CAS_NAME>
acetic acid [5-acetyloxy-6-[2-(3,4-dihydroxyphenyl)-5,7-dihydroxy-4-oxo-1-benzopyran-6-yl]-3,4-dihydroxy-2-oxanyl]methyl ester

>  <PUBCHEM_IUPAC_NAME>
[5-acetyloxy-6-[2-(3,4-dihydroxyphenyl)-5,7-dihydroxy-4-oxochromen-6-yl]-3,4-dihydroxyoxan-2-yl]methyl acetate

>  <PUBCHEM_IUPAC_SYSTEMATIC_NAME>
[5-acetyloxy-6-[2-[3,4-bis(oxidanyl)phenyl]-5,7-bis(oxidanyl)-4-oxidanylidene-chromen-6-yl]-3,4-bis(oxidanyl)oxan-2-yl]methyl ethanoate

>  <PUBCHEM_IUPAC_TRADITIONAL_NAME>
acetic acid [5-acetoxy-6-[2-(3,4-dihydroxyphenyl)-5,7-dihydroxy-4-keto-chromen-6-yl]-3,4-dihydroxy-tetrahydropyran-2-yl]methyl ester

>  <PUBCHEM_IUPAC_INCHI>
InChI=1S/C25H24O13/c1-9(26)35-8-18-21(32)23(34)25(36-10(2)27)24(38-18)20-15(31)7-17-19(22(20)33)14(30)6-16(37-17)11-3-4-12(28)13(29)5-11/h3-7,18,21,23-25,28-29,31-34H,8H2,1-2H3

>  <PUBCHEM_IUPAC_INCHIKEY>
JBEPAVBUODEETF-UHFFFAOYSA-N

>  <PUBCHEM_XLOGP3_AA>
0.4

>  <PUBCHEM_EXACT_MASS>
532.122

>  <PUBCHEM_MOLECULAR_FORMULA>
C25H24O13

>  <PUBCHEM_MOLECULAR_WEIGHT>
532.454

>  <PUBCHEM_OPENEYE_CAN_SMILES>
CC(=O)OCC1C(C(C(C(O1)C2=C(C=C3C(=C2O)C(=O)C=C(O3)C4=CC(=C(C=C4)O)O)O)OC(=O)C)O)O

>  <PUBCHEM_OPENEYE_ISO_SMILES>
CC(=O)OCC1C(C(C(C(O1)C2=C(C=C3C(=C2O)C(=O)C=C(O3)C4=CC(=C(C=C4)O)O)O)OC(=O)C)O)O

>  <PUBCHEM_CACTVS_TPSA>
210

>  <PUBCHEM_MONOISOTOPIC_WEIGHT>
532.122

>  <PUBCHEM_TOTAL_CHARGE>
0

>  <PUBCHEM_HEAVY_ATOM_COUNT>
38

>  <PUBCHEM_ATOM_DEF_STEREO_COUNT>
0

>  <PUBCHEM_ATOM_UDEF_STEREO_COUNT>
5

>  <PUBCHEM_BOND_DEF_STEREO_COUNT>
0

>  <PUBCHEM_BOND_UDEF_STEREO_COUNT>
0

>  <PUBCHEM_ISOTOPIC_ATOM_COUNT>
0

>  <PUBCHEM_COMPONENT_COUNT>
1

>  <PUBCHEM_CACTVS_TAUTO_COUNT>
162

>  <PUBCHEM_COORDINATE_TYPE>
1
5
255

>  <PUBCHEM_BONDANNOTATIONS>
16  19  3
18  20  3
19  21  8
19  22  8
14  2  3
21  23  8
22  24  8
23  25  8
23  27  8
24  25  8
27  30  8
15  3  3
30  31  8
32  34  8
32  35  8
34  36  8
35  37  8
36  38  8
37  38  8
17  4  3
8  25  8
8  31  8

$$$$
