14681584
 OpenBabel06101807152D

 48 50  0  0  1  0  0  0  0  0999 V2000
    7.2622    2.6671    0.0000 O   0  0  0  0  0  0  0  0  0  0  0  0
    7.2622    0.6188    0.0000 O   0  0  0  0  0  0  0  0  0  0  0  0
    2.0000   -2.3571    0.0000 O   0  0  0  0  0  0  0  0  0  0  0  0
    3.7320   -3.3571    0.0000 O   0  0  0  0  0  0  0  0  0  0  0  0
    2.8660    1.1429    0.0000 C   0  0  3  0  0  0  0  0  0  0  0  0
    2.8660    2.1429    0.0000 C   0  0  3  0  0  0  0  0  0  0  0  0
    3.7320    0.6429    0.0000 C   0  0  3  0  0  0  0  0  0  0  0  0
    3.7320    2.6429    0.0000 C   0  0  0  0  0  0  0  0  0  0  0  0
    4.5981    1.1429    0.0000 C   0  0  0  0  0  0  0  0  0  0  0  0
    4.5981    2.1429    0.0000 C   0  0  0  0  0  0  0  0  0  0  0  0
    2.0000    0.6429    0.0000 C   0  0  0  0  0  0  0  0  0  0  0  0
    3.7320   -0.3571    0.0000 C   0  0  0  0  0  0  0  0  0  0  0  0
    2.0000    2.6429    0.0000 C   0  0  0  0  0  0  0  0  0  0  0  0
    5.4920    0.6083    0.0000 C   0  0  0  0  0  0  0  0  0  0  0  0
    5.4920    2.6776    0.0000 C   0  0  0  0  0  0  0  0  0  0  0  0
    2.8660   -0.8571    0.0000 C   0  0  0  0  0  0  0  0  0  0  0  0
    4.5981   -0.8571    0.0000 C   0  0  0  0  0  0  0  0  0  0  0  0
    6.3981    1.1221    0.0000 C   0  0  0  0  0  0  0  0  0  0  0  0
    6.3981    2.1637    0.0000 C   0  0  0  0  0  0  0  0  0  0  0  0
    2.8660   -1.8571    0.0000 C   0  0  0  0  0  0  0  0  0  0  0  0
    4.5981   -1.8571    0.0000 C   0  0  0  0  0  0  0  0  0  0  0  0
    3.7320   -2.3571    0.0000 C   0  0  0  0  0  0  0  0  0  0  0  0
    7.2583    3.6671    0.0000 C   0  0  0  0  0  0  0  0  0  0  0  0
    2.0000   -3.3571    0.0000 C   0  0  0  0  0  0  0  0  0  0  0  0
    2.8660    0.5229    0.0000 H   0  0  0  0  0  0  0  0  0  0  0  0
    2.8660    2.7629    0.0000 H   0  0  0  0  0  0  0  0  0  0  0  0
    4.2690    0.3329    0.0000 H   0  0  0  0  0  0  0  0  0  0  0  0
    4.1306    3.1179    0.0000 H   0  0  0  0  0  0  0  0  0  0  0  0
    3.3335    3.1179    0.0000 H   0  0  0  0  0  0  0  0  0  0  0  0
    1.6900    1.1799    0.0000 H   0  0  0  0  0  0  0  0  0  0  0  0
    1.4631    0.3329    0.0000 H   0  0  0  0  0  0  0  0  0  0  0  0
    2.3100    0.1060    0.0000 H   0  0  0  0  0  0  0  0  0  0  0  0
    2.3100    3.1799    0.0000 H   0  0  0  0  0  0  0  0  0  0  0  0
    1.4631    2.9529    0.0000 H   0  0  0  0  0  0  0  0  0  0  0  0
    1.6900    2.1060    0.0000 H   0  0  0  0  0  0  0  0  0  0  0  0
    5.4848   -0.0117    0.0000 H   0  0  0  0  0  0  0  0  0  0  0  0
    5.4848    3.2976    0.0000 H   0  0  0  0  0  0  0  0  0  0  0  0
    2.3291   -0.5471    0.0000 H   0  0  0  0  0  0  0  0  0  0  0  0
    5.1350   -0.5471    0.0000 H   0  0  0  0  0  0  0  0  0  0  0  0
    5.1350   -2.1671    0.0000 H   0  0  0  0  0  0  0  0  0  0  0  0
    7.8003    0.9267    0.0000 H   0  0  0  0  0  0  0  0  0  0  0  0
    7.8783    3.6695    0.0000 H   0  0  0  0  0  0  0  0  0  0  0  0
    7.2559    4.2871    0.0000 H   0  0  0  0  0  0  0  0  0  0  0  0
    6.6383    3.6647    0.0000 H   0  0  0  0  0  0  0  0  0  0  0  0
    4.2690   -3.6671    0.0000 H   0  0  0  0  0  0  0  0  0  0  0  0
    1.3800   -3.3571    0.0000 H   0  0  0  0  0  0  0  0  0  0  0  0
    2.0000   -3.9771    0.0000 H   0  0  0  0  0  0  0  0  0  0  0  0
    2.6200   -3.3571    0.0000 H   0  0  0  0  0  0  0  0  0  0  0  0
  1 19  1  0  0  0  0
  1 23  1  0  0  0  0
  2 18  1  0  0  0  0
  2 41  1  0  0  0  0
  3 20  1  0  0  0  0
  3 24  1  0  0  0  0
  4 22  1  0  0  0  0
  4 45  1  0  0  0  0
  5  6  1  0  0  0  0
  5  7  1  0  0  0  0
  5 11  1  0  0  0  0
  5 25  1  0  0  0  0
  6  8  1  0  0  0  0
  6 13  1  0  0  0  0
  6 26  1  0  0  0  0
  7  9  1  0  0  0  0
  7 12  1  0  0  0  0
  7 27  1  0  0  0  0
  8 10  1  0  0  0  0
  8 28  1  0  0  0  0
  8 29  1  0  0  0  0
  9 10  1  0  0  0  0
  9 14  2  0  0  0  0
 10 15  2  0  0  0  0
 11 30  1  0  0  0  0
 11 31  1  0  0  0  0
 11 32  1  0  0  0  0
 12 16  2  0  0  0  0
 12 17  1  0  0  0  0
 13 33  1  0  0  0  0
 13 34  1  0  0  0  0
 13 35  1  0  0  0  0
 14 18  1  0  0  0  0
 14 36  1  0  0  0  0
 15 19  1  0  0  0  0
 15 37  1  0  0  0  0
 16 20  1  0  0  0  0
 16 38  1  0  0  0  0
 17 21  2  0  0  0  0
 17 39  1  0  0  0  0
 18 19  2  0  0  0  0
 20 22  2  0  0  0  0
 21 22  1  0  0  0  0
 21 40  1  0  0  0  0
 23 42  1  0  0  0  0
 23 43  1  0  0  0  0
 23 44  1  0  0  0  0
 24 46  1  0  0  0  0
 24 47  1  0  0  0  0
 24 48  1  0  0  0  0
M  END
>  <PUBCHEM_COMPOUND_CID>
14681584

>  <PUBCHEM_COMPOUND_CANONICALIZED>
1

>  <PUBCHEM_CACTVS_COMPLEXITY>
414

>  <PUBCHEM_CACTVS_HBOND_ACCEPTOR>
4

>  <PUBCHEM_CACTVS_HBOND_DONOR>
2

>  <PUBCHEM_CACTVS_ROTATABLE_BOND>
3

>  <PUBCHEM_CACTVS_SUBSKEYS>
AAADceB4OAAAAAAAAAAAAAAAAAAAAAAAAAAwYMAAAAAAAADBQAAAGgAACAAADQSAmAIyBoAABgCAAiBCAAACCAAgIAAIiAAGiIgNJiKGMRqAcCMkwBELuAeAwPAOoAABAAAQQADAAAYAACCAAAAAAAAAAA==

>  <PUBCHEM_IUPAC_OPENEYE_NAME>
4-(4-hydroxy-3-methoxy-phenyl)-7-methoxy-2,3-dimethyl-tetralin-6-ol

>  <PUBCHEM_IUPAC_CAS_NAME>
8-(4-hydroxy-3-methoxyphenyl)-3-methoxy-6,7-dimethyl-5,6,7,8-tetrahydronaphthalen-2-ol

>  <PUBCHEM_IUPAC_NAME>
8-(4-hydroxy-3-methoxyphenyl)-3-methoxy-6,7-dimethyl-5,6,7,8-tetrahydronaphthalen-2-ol

>  <PUBCHEM_IUPAC_SYSTEMATIC_NAME>
3-methoxy-8-(3-methoxy-4-oxidanyl-phenyl)-6,7-dimethyl-5,6,7,8-tetrahydronaphthalen-2-ol

>  <PUBCHEM_IUPAC_TRADITIONAL_NAME>
4-(4-hydroxy-3-methoxy-phenyl)-7-methoxy-2,3-dimethyl-tetralin-6-ol

>  <PUBCHEM_IUPAC_INCHI>
InChI=1S/C20H24O4/c1-11-7-14-9-19(24-4)17(22)10-15(14)20(12(11)2)13-5-6-16(21)18(8-13)23-3/h5-6,8-12,20-22H,7H2,1-4H3

>  <PUBCHEM_IUPAC_INCHIKEY>
TZAAYUCUPIYQBR-UHFFFAOYSA-N

>  <PUBCHEM_XLOGP3_AA>
4.5

>  <PUBCHEM_EXACT_MASS>
328.167

>  <PUBCHEM_MOLECULAR_FORMULA>
C20H24O4

>  <PUBCHEM_MOLECULAR_WEIGHT>
328.408

>  <PUBCHEM_OPENEYE_CAN_SMILES>
CC1CC2=CC(=C(C=C2C(C1C)C3=CC(=C(C=C3)O)OC)O)OC

>  <PUBCHEM_OPENEYE_ISO_SMILES>
CC1CC2=CC(=C(C=C2C(C1C)C3=CC(=C(C=C3)O)OC)O)OC

>  <PUBCHEM_CACTVS_TPSA>
58.9

>  <PUBCHEM_MONOISOTOPIC_WEIGHT>
328.167

>  <PUBCHEM_TOTAL_CHARGE>
0

>  <PUBCHEM_HEAVY_ATOM_COUNT>
24

>  <PUBCHEM_ATOM_DEF_STEREO_COUNT>
0

>  <PUBCHEM_ATOM_UDEF_STEREO_COUNT>
3

>  <PUBCHEM_BOND_DEF_STEREO_COUNT>
0

>  <PUBCHEM_BOND_UDEF_STEREO_COUNT>
0

>  <PUBCHEM_ISOTOPIC_ATOM_COUNT>
0

>  <PUBCHEM_COMPONENT_COUNT>
1

>  <PUBCHEM_CACTVS_TAUTO_COUNT>
322

>  <PUBCHEM_COORDINATE_TYPE>
1
5
255

>  <PUBCHEM_BONDANNOTATIONS>
10  15  8
12  16  8
12  17  8
14  18  8
15  19  8
16  20  8
17  21  8
18  19  8
20  22  8
21  22  8
5  11  3
6  13  3
7  12  3
9  10  8
9  14  8

$$$$
