14730805
 OpenBabel06101807152D

 51 54  0  0  1  0  0  0  0  0999 V2000
    5.1350   -0.5870    0.0000 O   0  0  0  0  0  0  0  0  0  0  0  0
    6.8671   -0.5870    0.0000 O   0  0  0  0  0  0  0  0  0  0  0  0
    5.1350   -3.5870    0.0000 O   0  0  0  0  0  0  0  0  0  0  0  0
    3.4030   -2.5870    0.0000 O   0  0  0  0  0  0  0  0  0  0  0  0
    6.8671   -2.5870    0.0000 O   0  0  0  0  0  0  0  0  0  0  0  0
    2.5369   -1.0870    0.0000 O   0  0  0  0  0  0  0  0  0  0  0  0
    8.6504    2.4272    0.0000 O   0  0  0  0  0  0  0  0  0  0  0  0
    5.1208    2.4921    0.0000 O   0  0  0  0  0  0  0  0  0  0  0  0
    8.6158   -0.5726    0.0000 O   0  0  0  0  0  0  0  0  0  0  0  0
   12.9976    3.8770    0.0000 O   0  0  0  0  0  0  0  0  0  0  0  0
    5.1350   -2.5870    0.0000 C   0  0  3  0  0  0  0  0  0  0  0  0
    4.2690   -2.0870    0.0000 C   0  0  3  0  0  0  0  0  0  0  0  0
    6.0010   -2.0870    0.0000 C   0  0  3  0  0  0  0  0  0  0  0  0
    4.2690   -1.0870    0.0000 C   0  0  3  0  0  0  0  0  0  0  0  0
    6.0010   -1.0870    0.0000 C   0  0  3  0  0  0  0  0  0  0  0  0
    3.4030   -0.5870    0.0000 C   0  0  0  0  0  0  0  0  0  0  0  0
    6.8671    0.4130    0.0000 C   0  0  0  0  0  0  0  0  0  0  0  0
    7.7671    0.9373    0.0000 C   0  0  0  0  0  0  0  0  0  0  0  0
    5.9670    0.9373    0.0000 C   0  0  0  0  0  0  0  0  0  0  0  0
    7.7787    1.9372    0.0000 C   0  0  0  0  0  0  0  0  0  0  0  0
    8.6273    0.4273    0.0000 C   0  0  0  0  0  0  0  0  0  0  0  0
    5.9790    1.9788    0.0000 C   0  0  0  0  0  0  0  0  0  0  0  0
    6.8910    2.4822    0.0000 C   0  0  0  0  0  0  0  0  0  0  0  0
    9.5106    1.9172    0.0000 C   0  0  0  0  0  0  0  0  0  0  0  0
    9.4991    0.9172    0.0000 C   0  0  0  0  0  0  0  0  0  0  0  0
   10.3824    2.4071    0.0000 C   0  0  0  0  0  0  0  0  0  0  0  0
   11.2426    1.8972    0.0000 C   0  0  0  0  0  0  0  0  0  0  0  0
   10.3939    3.4071    0.0000 C   0  0  0  0  0  0  0  0  0  0  0  0
   12.1143    2.3871    0.0000 C   0  0  0  0  0  0  0  0  0  0  0  0
   11.2657    3.8970    0.0000 C   0  0  0  0  0  0  0  0  0  0  0  0
   12.1259    3.3870    0.0000 C   0  0  0  0  0  0  0  0  0  0  0  0
    5.6720   -2.8970    0.0000 H   0  0  0  0  0  0  0  0  0  0  0  0
    4.2690   -2.7070    0.0000 H   0  0  0  0  0  0  0  0  0  0  0  0
    6.5380   -1.7770    0.0000 H   0  0  0  0  0  0  0  0  0  0  0  0
    4.2690   -0.4670    0.0000 H   0  0  0  0  0  0  0  0  0  0  0  0
    6.0010   -0.4670    0.0000 H   0  0  0  0  0  0  0  0  0  0  0  0
    3.8015   -0.1121    0.0000 H   0  0  0  0  0  0  0  0  0  0  0  0
    3.0044   -0.1121    0.0000 H   0  0  0  0  0  0  0  0  0  0  0  0
    4.5981   -3.8970    0.0000 H   0  0  0  0  0  0  0  0  0  0  0  0
    3.4030   -3.2070    0.0000 H   0  0  0  0  0  0  0  0  0  0  0  0
    6.8671   -3.2070    0.0000 H   0  0  0  0  0  0  0  0  0  0  0  0
    2.0000   -0.7770    0.0000 H   0  0  0  0  0  0  0  0  0  0  0  0
    5.4277    0.6314    0.0000 H   0  0  0  0  0  0  0  0  0  0  0  0
    6.9053    3.1020    0.0000 H   0  0  0  0  0  0  0  0  0  0  0  0
   10.0324    0.6011    0.0000 H   0  0  0  0  0  0  0  0  0  0  0  0
    5.1304    3.1120    0.0000 H   0  0  0  0  0  0  0  0  0  0  0  0
   11.2354    1.2772    0.0000 H   0  0  0  0  0  0  0  0  0  0  0  0
    9.8606    3.7232    0.0000 H   0  0  0  0  0  0  0  0  0  0  0  0
   12.6476    2.0709    0.0000 H   0  0  0  0  0  0  0  0  0  0  0  0
   11.2729    4.5170    0.0000 H   0  0  0  0  0  0  0  0  0  0  0  0
   13.5309    3.5608    0.0000 H   0  0  0  0  0  0  0  0  0  0  0  0
  1 14  1  0  0  0  0
  1 15  1  0  0  0  0
  2 15  1  0  0  0  0
  2 17  1  0  0  0  0
  3 11  1  0  0  0  0
  3 39  1  0  0  0  0
  4 12  1  0  0  0  0
  4 40  1  0  0  0  0
  5 13  1  0  0  0  0
  5 41  1  0  0  0  0
  6 16  1  0  0  0  0
  6 42  1  0  0  0  0
  7 20  1  0  0  0  0
  7 24  1  0  0  0  0
  8 22  1  0  0  0  0
  8 46  1  0  0  0  0
  9 21  2  0  0  0  0
 10 31  1  0  0  0  0
 10 51  1  0  0  0  0
 11 12  1  0  0  0  0
 11 13  1  0  0  0  0
 11 32  1  0  0  0  0
 12 14  1  0  0  0  0
 12 33  1  0  0  0  0
 13 15  1  0  0  0  0
 13 34  1  0  0  0  0
 14 16  1  0  0  0  0
 14 35  1  0  0  0  0
 15 36  1  0  0  0  0
 16 37  1  0  0  0  0
 16 38  1  0  0  0  0
 17 18  1  0  0  0  0
 17 19  2  0  0  0  0
 18 20  2  0  0  0  0
 18 21  1  0  0  0  0
 19 22  1  0  0  0  0
 19 43  1  0  0  0  0
 20 23  1  0  0  0  0
 21 25  1  0  0  0  0
 22 23  2  0  0  0  0
 23 44  1  0  0  0  0
 24 25  2  0  0  0  0
 24 26  1  0  0  0  0
 25 45  1  0  0  0  0
 26 27  2  0  0  0  0
 26 28  1  0  0  0  0
 27 29  1  0  0  0  0
 27 47  1  0  0  0  0
 28 30  2  0  0  0  0
 28 48  1  0  0  0  0
 29 31  2  0  0  0  0
 29 49  1  0  0  0  0
 30 31  1  0  0  0  0
 30 50  1  0  0  0  0
M  END
>  <PUBCHEM_COMPOUND_CID>
14730805

>  <PUBCHEM_COMPOUND_CANONICALIZED>
1

>  <PUBCHEM_CACTVS_COMPLEXITY>
675

>  <PUBCHEM_CACTVS_HBOND_ACCEPTOR>
10

>  <PUBCHEM_CACTVS_HBOND_DONOR>
6

>  <PUBCHEM_CACTVS_ROTATABLE_BOND>
4

>  <PUBCHEM_CACTVS_SUBSKEYS>
AAADceB4PAAAAAAAAAAAAAAAAAAAAAAAAAA0YIEAAAAAAACBQAAAGgAACAAADBSwmAMwDoAABgCIAqBSAAACCAAkIAAIiAEGCMgdNzaGNRqieWCl4BUPuQfI7KzOIAAACAAIAABAAAAQABAAAAAAAAAAAA==

>  <PUBCHEM_IUPAC_OPENEYE_NAME>
7-hydroxy-2-(4-hydroxyphenyl)-5-[3,4,5-trihydroxy-6-(hydroxymethyl)tetrahydropyran-2-yl]oxy-chromen-4-one

>  <PUBCHEM_IUPAC_CAS_NAME>
7-hydroxy-2-(4-hydroxyphenyl)-5-[[3,4,5-trihydroxy-6-(hydroxymethyl)-2-oxanyl]oxy]-1-benzopyran-4-one

>  <PUBCHEM_IUPAC_NAME>
7-hydroxy-2-(4-hydroxyphenyl)-5-[3,4,5-trihydroxy-6-(hydroxymethyl)oxan-2-yl]oxychromen-4-one

>  <PUBCHEM_IUPAC_SYSTEMATIC_NAME>
5-[6-(hydroxymethyl)-3,4,5-tris(oxidanyl)oxan-2-yl]oxy-2-(4-hydroxyphenyl)-7-oxidanyl-chromen-4-one

>  <PUBCHEM_IUPAC_TRADITIONAL_NAME>
7-hydroxy-2-(4-hydroxyphenyl)-5-(3,4,5-trihydroxy-6-methylol-tetrahydropyran-2-yl)oxy-chromone

>  <PUBCHEM_IUPAC_INCHI>
InChI=1S/C21H20O10/c22-8-16-18(26)19(27)20(28)21(31-16)30-15-6-11(24)5-14-17(15)12(25)7-13(29-14)9-1-3-10(23)4-2-9/h1-7,16,18-24,26-28H,8H2

>  <PUBCHEM_IUPAC_INCHIKEY>
ZFPMFULXUJZHFG-UHFFFAOYSA-N

>  <PUBCHEM_XLOGP3>
-0.6

>  <PUBCHEM_EXACT_MASS>
432.106

>  <PUBCHEM_MOLECULAR_FORMULA>
C21H20O10

>  <PUBCHEM_MOLECULAR_WEIGHT>
432.381

>  <PUBCHEM_OPENEYE_CAN_SMILES>
C1=CC(=CC=C1C2=CC(=O)C3=C(C=C(C=C3O2)O)OC4C(C(C(C(O4)CO)O)O)O)O

>  <PUBCHEM_OPENEYE_ISO_SMILES>
C1=CC(=CC=C1C2=CC(=O)C3=C(C=C(C=C3O2)O)OC4C(C(C(C(O4)CO)O)O)O)O

>  <PUBCHEM_CACTVS_TPSA>
166

>  <PUBCHEM_MONOISOTOPIC_WEIGHT>
432.106

>  <PUBCHEM_TOTAL_CHARGE>
0

>  <PUBCHEM_HEAVY_ATOM_COUNT>
31

>  <PUBCHEM_ATOM_DEF_STEREO_COUNT>
0

>  <PUBCHEM_ATOM_UDEF_STEREO_COUNT>
5

>  <PUBCHEM_BOND_DEF_STEREO_COUNT>
0

>  <PUBCHEM_BOND_UDEF_STEREO_COUNT>
0

>  <PUBCHEM_ISOTOPIC_ATOM_COUNT>
0

>  <PUBCHEM_COMPONENT_COUNT>
1

>  <PUBCHEM_CACTVS_TAUTO_COUNT>
24

>  <PUBCHEM_COORDINATE_TYPE>
1
5
255

>  <PUBCHEM_BONDANNOTATIONS>
14  16  3
17  18  8
17  19  8
18  20  8
18  21  8
19  22  8
15  2  3
20  23  8
21  25  8
22  23  8
24  25  8
26  27  8
26  28  8
27  29  8
28  30  8
29  31  8
11  3  3
30  31  8
12  4  3
13  5  3
7  20  8
7  24  8

$$$$
