14731325
 OpenBabel06101807152D

112120  0  0  1  0  0  0  0  0999 V2000
    9.0886    2.8634    0.0000 O   0  0  0  0  0  0  0  0  0  0  0  0
    9.2723   -0.2872    0.0000 O   0  0  0  0  0  0  0  0  0  0  0  0
    9.1956    1.4532    0.0000 O   0  0  0  0  0  0  0  0  0  0  0  0
    8.8566   -1.1271    0.0000 O   0  0  0  0  0  0  0  0  0  0  0  0
   11.7735    2.3579    0.0000 O   0  0  0  0  0  0  0  0  0  0  0  0
   11.9194    3.8568    0.0000 O   0  0  0  0  0  0  0  0  0  0  0  0
    7.5058   -1.2154    0.0000 O   0  0  0  0  0  0  0  0  0  0  0  0
   10.4023    5.1600    0.0000 O   0  0  0  0  0  0  0  0  0  0  0  0
    7.7627    1.4827    0.0000 O   0  0  0  0  0  0  0  0  0  0  0  0
   12.5811    1.9996    0.0000 O   0  0  0  0  0  0  0  0  0  0  0  0
   11.1219   -1.1322    0.0000 O   0  0  0  0  0  0  0  0  0  0  0  0
   13.6703    1.2336    0.0000 O   0  0  0  0  0  0  0  0  0  0  0  0
   13.6703   -0.7664    0.0000 O   0  0  0  0  0  0  0  0  0  0  0  0
    6.2641   -0.3844    0.0000 O   0  0  0  0  0  0  0  0  0  0  0  0
    9.0411   -2.7480    0.0000 O   0  0  0  0  0  0  0  0  0  0  0  0
   13.1309   -1.8192    0.0000 O   0  0  0  0  0  0  0  0  0  0  0  0
    5.8968   -0.7093    0.0000 O   0  0  0  0  0  0  0  0  0  0  0  0
   12.9333   -3.7515    0.0000 O   0  0  0  0  0  0  0  0  0  0  0  0
   11.1710   -4.5682    0.0000 O   0  0  0  0  0  0  0  0  0  0  0  0
    8.0622    3.1887    0.0000 O   0  0  0  0  0  0  0  0  0  0  0  0
    5.7053   -2.2082    0.0000 O   0  0  0  0  0  0  0  0  0  0  0  0
    5.6332   -4.8578    0.0000 O   0  0  0  0  0  0  0  0  0  0  0  0
    9.0554   -3.9522    0.0000 O   0  0  0  0  0  0  0  0  0  0  0  0
    4.6731   -4.6012    0.0000 O   0  0  0  0  0  0  0  0  0  0  0  0
    7.6081   -5.4017    0.0000 O   0  0  0  0  0  0  0  0  0  0  0  0
    2.6902   -4.0878    0.0000 O   0  0  0  0  0  0  0  0  0  0  0  0
    2.1586   -2.1097    0.0000 O   0  0  0  0  0  0  0  0  0  0  0  0
    4.1657    1.2350    0.0000 O   0  0  0  0  0  0  0  0  0  0  0  0
    4.7647    4.6468    0.0000 O   0  0  0  0  0  0  0  0  0  0  0  0
    3.4802    3.1138    0.0000 O   0  0  0  0  0  0  0  0  0  0  0  0
   10.1783    1.2682    0.0000 C   0  0  3  0  0  0  0  0  0  0  0  0
    9.8472    2.2118    0.0000 C   0  0  3  0  0  0  0  0  0  0  0  0
    9.2723    0.7544    0.0000 C   0  0  3  0  0  0  0  0  0  0  0  0
   10.7908    2.5430    0.0000 C   0  0  3  0  0  0  0  0  0  0  0  0
    8.7553   -0.1181    0.0000 C   0  0  3  0  0  0  0  0  0  0  0  0
   11.0723    0.7336    0.0000 C   0  0  0  0  0  0  0  0  0  0  0  0
   10.9758    3.5257    0.0000 C   0  0  3  0  0  0  0  0  0  0  0  0
   10.2172    4.1773    0.0000 C   0  0  3  0  0  0  0  0  0  0  0  0
    7.7640   -0.2493    0.0000 C   0  0  3  0  0  0  0  0  0  0  0  0
    9.2737    3.8462    0.0000 C   0  0  0  0  0  0  0  0  0  0  0  0
   11.0723   -0.2664    0.0000 C   0  0  0  0  0  0  0  0  0  0  0  0
   11.9383    1.2336    0.0000 C   0  0  0  0  0  0  0  0  0  0  0  0
   10.1783   -0.8011    0.0000 C   0  0  0  0  0  0  0  0  0  0  0  0
    7.2634    0.6163    0.0000 C   0  0  3  0  0  0  0  0  0  0  0  0
   11.9383   -0.7664    0.0000 C   0  0  0  0  0  0  0  0  0  0  0  0
   12.8043    0.7336    0.0000 C   0  0  0  0  0  0  0  0  0  0  0  0
   12.8043   -0.2664    0.0000 C   0  0  0  0  0  0  0  0  0  0  0  0
   11.4504   -1.6554    0.0000 C   0  0  0  0  0  0  0  0  0  0  0  0
    6.2634    0.6156    0.0000 C   0  0  0  0  0  0  0  0  0  0  0  0
    9.5366   -1.8794    0.0000 C   0  0  0  0  0  0  0  0  0  0  0  0
   10.5303   -2.0818    0.0000 C   0  0  0  0  0  0  0  0  0  0  0  0
   12.2160   -2.2229    0.0000 C   0  0  0  0  0  0  0  0  0  0  0  0
    6.5401   -1.4749    0.0000 C   0  0  0  0  0  0  0  0  0  0  0  0
   10.4683   -3.0328    0.0000 C   0  0  0  0  0  0  0  0  0  0  0  0
   12.1191   -3.1710    0.0000 C   0  0  0  0  0  0  0  0  0  0  0  0
   11.2544   -3.5717    0.0000 C   0  0  0  0  0  0  0  0  0  0  0  0
    7.4200    2.4221    0.0000 C   0  0  0  0  0  0  0  0  0  0  0  0
    6.7997   -2.4407    0.0000 C   0  0  0  0  0  0  0  0  0  0  0  0
    5.5740   -1.2168    0.0000 C   0  0  0  0  0  0  0  0  0  0  0  0
    6.0931   -3.1483    0.0000 C   0  0  0  0  0  0  0  0  0  0  0  0
    6.4350    2.5951    0.0000 C   0  0  0  0  0  0  0  0  0  0  0  0
    4.8674   -1.9244    0.0000 C   0  0  0  0  0  0  0  0  0  0  0  0
    5.1270   -2.8902    0.0000 C   0  0  0  0  0  0  0  0  0  0  0  0
    7.8101   -2.6940    0.0000 C   0  0  0  0  0  0  0  0  0  0  0  0
    6.3479   -4.1584    0.0000 C   0  0  0  0  0  0  0  0  0  0  0  0
    8.0883   -3.6979    0.0000 C   0  0  0  0  0  0  0  0  0  0  0  0
    4.4024   -3.6386    0.0000 C   0  0  0  0  0  0  0  0  0  0  0  0
    3.8654   -1.6401    0.0000 C   0  0  0  0  0  0  0  0  0  0  0  0
    7.3522   -4.4350    0.0000 C   0  0  0  0  0  0  0  0  0  0  0  0
    6.0923    3.5345    0.0000 C   0  0  0  0  0  0  0  0  0  0  0  0
    5.7928    1.8285    0.0000 C   0  0  0  0  0  0  0  0  0  0  0  0
    3.3940   -3.3774    0.0000 C   0  0  0  0  0  0  0  0  0  0  0  0
    3.1237   -2.3714    0.0000 C   0  0  0  0  0  0  0  0  0  0  0  0
    4.8079    2.0014    0.0000 C   0  0  0  0  0  0  0  0  0  0  0  0
    5.1074    3.7074    0.0000 C   0  0  0  0  0  0  0  0  0  0  0  0
    4.4652    2.9409    0.0000 C   0  0  0  0  0  0  0  0  0  0  0  0
   10.6586    1.6603    0.0000 H   0  0  0  0  0  0  0  0  0  0  0  0
    8.8380    1.1969    0.0000 H   0  0  0  0  0  0  0  0  0  0  0  0
   10.8377    1.9247    0.0000 H   0  0  0  0  0  0  0  0  0  0  0  0
    8.4136    0.3992    0.0000 H   0  0  0  0  0  0  0  0  0  0  0  0
   11.0905    4.1350    0.0000 H   0  0  0  0  0  0  0  0  0  0  0  0
    9.7469    4.5813    0.0000 H   0  0  0  0  0  0  0  0  0  0  0  0
    8.1731   -0.7152    0.0000 H   0  0  0  0  0  0  0  0  0  0  0  0
    9.1731    4.4579    0.0000 H   0  0  0  0  0  0  0  0  0  0  0  0
    8.6537    3.8533    0.0000 H   0  0  0  0  0  0  0  0  0  0  0  0
    8.5863    1.5680    0.0000 H   0  0  0  0  0  0  0  0  0  0  0  0
    7.8834    0.6168    0.0000 H   0  0  0  0  0  0  0  0  0  0  0  0
   12.1775    2.8282    0.0000 H   0  0  0  0  0  0  0  0  0  0  0  0
   12.0341    4.4661    0.0000 H   0  0  0  0  0  0  0  0  0  0  0  0
    9.9320    5.5640    0.0000 H   0  0  0  0  0  0  0  0  0  0  0  0
    6.2629    1.2356    0.0000 H   0  0  0  0  0  0  0  0  0  0  0  0
    5.6434    0.6151    0.0000 H   0  0  0  0  0  0  0  0  0  0  0  0
   13.1917    1.8920    0.0000 H   0  0  0  0  0  0  0  0  0  0  0  0
    9.9107   -3.3038    0.0000 H   0  0  0  0  0  0  0  0  0  0  0  0
   14.2073    0.9236    0.0000 H   0  0  0  0  0  0  0  0  0  0  0  0
   14.2073   -0.4564    0.0000 H   0  0  0  0  0  0  0  0  0  0  0  0
   13.6313   -2.1854    0.0000 H   0  0  0  0  0  0  0  0  0  0  0  0
    8.2431   -2.2503    0.0000 H   0  0  0  0  0  0  0  0  0  0  0  0
   12.8740   -4.3687    0.0000 H   0  0  0  0  0  0  0  0  0  0  0  0
   10.6101   -4.8324    0.0000 H   0  0  0  0  0  0  0  0  0  0  0  0
    3.7114   -1.0396    0.0000 H   0  0  0  0  0  0  0  0  0  0  0  0
    6.4905    4.0097    0.0000 H   0  0  0  0  0  0  0  0  0  0  0  0
    6.0053    1.2461    0.0000 H   0  0  0  0  0  0  0  0  0  0  0  0
    5.7872   -5.4584    0.0000 H   0  0  0  0  0  0  0  0  0  0  0  0
    9.2187   -4.5503    0.0000 H   0  0  0  0  0  0  0  0  0  0  0  0
    4.2401   -5.0450    0.0000 H   0  0  0  0  0  0  0  0  0  0  0  0
    8.2065   -5.5640    0.0000 H   0  0  0  0  0  0  0  0  0  0  0  0
    2.0906   -3.9301    0.0000 H   0  0  0  0  0  0  0  0  0  0  0  0
    2.0000   -1.5103    0.0000 H   0  0  0  0  0  0  0  0  0  0  0  0
    3.5550    1.3422    0.0000 H   0  0  0  0  0  0  0  0  0  0  0  0
    5.1628    5.1221    0.0000 H   0  0  0  0  0  0  0  0  0  0  0  0
    3.2677    3.6962    0.0000 H   0  0  0  0  0  0  0  0  0  0  0  0
  1 32  1  0  0  0  0
  1 40  1  0  0  0  0
  2 33  1  0  0  0  0
  2 43  1  0  0  0  0
  3 32  1  0  0  0  0
  3 86  1  0  0  0  0
  4 35  1  0  0  0  0
  4 50  1  0  0  0  0
  5 34  1  0  0  0  0
  5 88  1  0  0  0  0
  6 37  1  0  0  0  0
  6 89  1  0  0  0  0
  7 39  1  0  0  0  0
  7 53  1  0  0  0  0
  8 38  1  0  0  0  0
  8 90  1  0  0  0  0
  9 44  1  0  0  0  0
  9 57  1  0  0  0  0
 10 42  1  0  0  0  0
 10 93  1  0  0  0  0
 11 43  2  0  0  0  0
 12 46  1  0  0  0  0
 12 95  1  0  0  0  0
 13 47  1  0  0  0  0
 13 96  1  0  0  0  0
 14 49  1  0  0  0  0
 14 59  1  0  0  0  0
 15 50  2  0  0  0  0
 16 52  1  0  0  0  0
 16 97  1  0  0  0  0
 17 53  2  0  0  0  0
 18 55  1  0  0  0  0
 18 99  1  0  0  0  0
 19 56  1  0  0  0  0
 19100  1  0  0  0  0
 20 57  2  0  0  0  0
 21 59  2  0  0  0  0
 22 65  1  0  0  0  0
 22104  1  0  0  0  0
 23 66  1  0  0  0  0
 23105  1  0  0  0  0
 24 67  1  0  0  0  0
 24106  1  0  0  0  0
 25 69  1  0  0  0  0
 25107  1  0  0  0  0
 26 72  1  0  0  0  0
 26108  1  0  0  0  0
 27 73  1  0  0  0  0
 27109  1  0  0  0  0
 28 74  1  0  0  0  0
 28110  1  0  0  0  0
 29 75  1  0  0  0  0
 29111  1  0  0  0  0
 30 76  1  0  0  0  0
 30112  1  0  0  0  0
 31 32  1  0  0  0  0
 31 33  1  0  0  0  0
 31 36  1  0  0  0  0
 31 77  1  0  0  0  0
 32 34  1  0  0  0  0
 33 35  1  0  0  0  0
 33 78  1  0  0  0  0
 34 37  1  0  0  0  0
 34 79  1  0  0  0  0
 35 39  1  0  0  0  0
 35 80  1  0  0  0  0
 36 41  1  0  0  0  0
 36 42  2  0  0  0  0
 37 38  1  0  0  0  0
 37 81  1  0  0  0  0
 38 40  1  0  0  0  0
 38 82  1  0  0  0  0
 39 44  1  0  0  0  0
 39 83  1  0  0  0  0
 40 84  1  0  0  0  0
 40 85  1  0  0  0  0
 41 43  1  0  0  0  0
 41 45  2  0  0  0  0
 42 46  1  0  0  0  0
 44 49  1  0  0  0  0
 44 87  1  0  0  0  0
 45 47  1  0  0  0  0
 45 48  1  0  0  0  0
 46 47  2  0  0  0  0
 48 51  1  0  0  0  0
 48 52  2  0  0  0  0
 49 91  1  0  0  0  0
 49 92  1  0  0  0  0
 50 51  1  0  0  0  0
 51 54  2  0  0  0  0
 52 55  1  0  0  0  0
 53 58  1  0  0  0  0
 54 56  1  0  0  0  0
 54 94  1  0  0  0  0
 55 56  2  0  0  0  0
 57 61  1  0  0  0  0
 58 60  1  0  0  0  0
 58 64  2  0  0  0  0
 59 62  1  0  0  0  0
 60 63  1  0  0  0  0
 60 65  2  0  0  0  0
 61 70  2  0  0  0  0
 61 71  1  0  0  0  0
 62 63  1  0  0  0  0
 62 68  2  0  0  0  0
 63 67  2  0  0  0  0
 64 66  1  0  0  0  0
 64 98  1  0  0  0  0
 65 69  1  0  0  0  0
 66 69  2  0  0  0  0
 67 72  1  0  0  0  0
 68 73  1  0  0  0  0
 68101  1  0  0  0  0
 70 75  1  0  0  0  0
 70102  1  0  0  0  0
 71 74  2  0  0  0  0
 71103  1  0  0  0  0
 72 73  2  0  0  0  0
 74 76  1  0  0  0  0
 75 76  2  0  0  0  0
M  END
>  <PUBCHEM_COMPOUND_CID>
14731325

>  <PUBCHEM_COMPOUND_CANONICALIZED>
1

>  <PUBCHEM_CACTVS_COMPLEXITY>
2180

>  <PUBCHEM_CACTVS_HBOND_ACCEPTOR>
30

>  <PUBCHEM_CACTVS_HBOND_DONOR>
19

>  <PUBCHEM_CACTVS_ROTATABLE_BOND>
5

>  <PUBCHEM_CACTVS_SUBSKEYS>
AAADcfB8PgAAAAAAAAAAAAAAAAAAAAAAAAA0aMGDAAAAAACRVAAAGgAACAAADRSgmAIwDoAABgCIAiDSCAACAAAkIAAAiAEGiMgZNzKCNRqCcQElwBUPuYfK7PzOoAADCAAYQABAAAYQADCAAAAAAAAAAA==

>  <PUBCHEM_IUPAC_INCHI>
InChI=1S/C46H36O30/c47-12-1-8(2-13(48)26(12)53)41(65)73-18-7-71-42(66)9-3-14(49)27(54)31(58)19(9)20-10(4-15(50)28(55)32(20)59)43(67)74-37(18)39-38-25(46(70)40(64)30(57)17(52)6-72-46)24-23(45(69)75-38)22(34(61)36(63)35(24)62)21-11(44(68)76-39)5-16(51)29(56)33(21)60/h1-5,17-18,25,30,37-40,47-64,70H,6-7H2

>  <PUBCHEM_IUPAC_INCHIKEY>
LXOYSAZBVCZIGP-UHFFFAOYSA-N

>  <PUBCHEM_XLOGP3_AA>
-0.8

>  <PUBCHEM_EXACT_MASS>
1068.129

>  <PUBCHEM_MOLECULAR_FORMULA>
C46H36O30

>  <PUBCHEM_MOLECULAR_WEIGHT>
1068.764

>  <PUBCHEM_OPENEYE_CAN_SMILES>
C1C(C(C(C(O1)(C2C3C(OC(=O)C4=CC(=C(C(=C4C5=C(C2=C(C(=C5O)O)O)C(=O)O3)O)O)O)C6C(COC(=O)C7=CC(=C(C(=C7C8=C(C(=C(C=C8C(=O)O6)O)O)O)O)O)O)OC(=O)C9=CC(=C(C(=C9)O)O)O)O)O)O)O

>  <PUBCHEM_OPENEYE_ISO_SMILES>
C1C(C(C(C(O1)(C2C3C(OC(=O)C4=CC(=C(C(=C4C5=C(C2=C(C(=C5O)O)O)C(=O)O3)O)O)O)C6C(COC(=O)C7=CC(=C(C(=C7C8=C(C(=C(C=C8C(=O)O6)O)O)O)O)O)O)OC(=O)C9=CC(=C(C(=C9)O)O)O)O)O)O)O

>  <PUBCHEM_CACTVS_TPSA>
525

>  <PUBCHEM_MONOISOTOPIC_WEIGHT>
1068.129

>  <PUBCHEM_TOTAL_CHARGE>
0

>  <PUBCHEM_HEAVY_ATOM_COUNT>
76

>  <PUBCHEM_ATOM_DEF_STEREO_COUNT>
0

>  <PUBCHEM_ATOM_UDEF_STEREO_COUNT>
9

>  <PUBCHEM_BOND_DEF_STEREO_COUNT>
0

>  <PUBCHEM_BOND_UDEF_STEREO_COUNT>
0

>  <PUBCHEM_ISOTOPIC_ATOM_COUNT>
0

>  <PUBCHEM_COMPONENT_COUNT>
1

>  <PUBCHEM_CACTVS_TAUTO_COUNT>
986

>  <PUBCHEM_COORDINATE_TYPE>
1
5
255

>  <PUBCHEM_BONDANNOTATIONS>
33  2  3
32  3  3
31  36  3
36  41  8
36  42  8
35  4  3
41  45  8
42  46  8
45  47  8
46  47  8
48  51  8
48  52  8
34  5  3
51  54  8
52  55  8
54  56  8
55  56  8
58  60  8
58  64  8
37  6  3
60  65  8
61  70  8
61  71  8
62  63  8
62  68  8
63  67  8
64  66  8
65  69  8
66  69  8
67  72  8
68  73  8
39  7  3
70  75  8
71  74  8
72  73  8
74  76  8
75  76  8
38  8  3
44  9  3

$$$$
