14757909
 OpenBabel06101807152D

 37 40  0  0  0  0  0  0  0  0999 V2000
    4.2974   -3.0626    0.0000 O   0  0  0  0  0  0  0  0  0  0  0  0
    4.3217    1.0917    0.0000 O   0  0  0  0  0  0  0  0  0  0  0  0
    2.5357   -1.9534    0.0000 O   0  0  0  0  0  0  0  0  0  0  0  0
    6.9198   -0.4083    0.0000 O   0  0  0  0  0  0  0  0  0  0  0  0
    6.0659    4.1609    0.0000 O   0  0  0  0  0  0  0  0  0  0  0  0
    5.2370   -3.6050    0.0000 C   0  0  0  0  0  0  0  0  0  0  0  0
    5.2038   -1.4498    0.0000 C   0  0  0  0  0  0  0  0  0  0  0  0
    4.3058   -1.9776    0.0000 C   0  0  0  0  0  0  0  0  0  0  0  0
    5.1877   -0.4083    0.0000 C   0  0  0  0  0  0  0  0  0  0  0  0
    6.1725   -3.0553    0.0000 C   0  0  0  0  0  0  0  0  0  0  0  0
    6.1557   -1.9705    0.0000 C   0  0  0  0  0  0  0  0  0  0  0  0
    4.3217    0.0917    0.0000 C   0  0  0  0  0  0  0  0  0  0  0  0
    5.7404   -4.4691    0.0000 C   0  0  0  0  0  0  0  0  0  0  0  0
    4.7404   -4.4730    0.0000 C   0  0  0  0  0  0  0  0  0  0  0  0
    3.4037   -1.4568    0.0000 C   0  0  0  0  0  0  0  0  0  0  0  0
    6.0538    0.0917    0.0000 C   0  0  0  0  0  0  0  0  0  0  0  0
    3.4117   -0.4152    0.0000 C   0  0  0  0  0  0  0  0  0  0  0  0
    6.0538    1.0917    0.0000 C   0  0  0  0  0  0  0  0  0  0  0  0
    5.1877    1.5917    0.0000 C   0  0  0  0  0  0  0  0  0  0  0  0
    6.9638    1.5985    0.0000 C   0  0  0  0  0  0  0  0  0  0  0  0
    5.1717    2.6332    0.0000 C   0  0  0  0  0  0  0  0  0  0  0  0
    6.9718    2.6401    0.0000 C   0  0  0  0  0  0  0  0  0  0  0  0
    6.0697    3.1609    0.0000 C   0  0  0  0  0  0  0  0  0  0  0  0
    6.7129   -3.3591    0.0000 H   0  0  0  0  0  0  0  0  0  0  0  0
    6.6866   -1.6502    0.0000 H   0  0  0  0  0  0  0  0  0  0  0  0
    5.2046   -4.7812    0.0000 H   0  0  0  0  0  0  0  0  0  0  0  0
    6.0524   -5.0049    0.0000 H   0  0  0  0  0  0  0  0  0  0  0  0
    4.2022   -4.1651    0.0000 H   0  0  0  0  0  0  0  0  0  0  0  0
    4.4324   -5.0111    0.0000 H   0  0  0  0  0  0  0  0  0  0  0  0
    5.2785   -4.7809    0.0000 H   0  0  0  0  0  0  0  0  0  0  0  0
    6.2761   -4.1571    0.0000 H   0  0  0  0  0  0  0  0  0  0  0  0
    2.8784   -0.0990    0.0000 H   0  0  0  0  0  0  0  0  0  0  0  0
    7.4971    1.2823    0.0000 H   0  0  0  0  0  0  0  0  0  0  0  0
    4.6312    2.9370    0.0000 H   0  0  0  0  0  0  0  0  0  0  0  0
    7.5099    2.9480    0.0000 H   0  0  0  0  0  0  0  0  0  0  0  0
    2.0000   -1.6414    0.0000 H   0  0  0  0  0  0  0  0  0  0  0  0
    6.6016    4.4730    0.0000 H   0  0  0  0  0  0  0  0  0  0  0  0
  1  6  1  0  0  0  0
  1  8  1  0  0  0  0
  2 12  1  0  0  0  0
  2 19  1  0  0  0  0
  3 15  1  0  0  0  0
  3 36  1  0  0  0  0
  4 16  2  0  0  0  0
  5 23  1  0  0  0  0
  5 37  1  0  0  0  0
  6 10  1  0  0  0  0
  6 13  1  0  0  0  0
  6 14  1  0  0  0  0
  7  8  2  0  0  0  0
  7  9  1  0  0  0  0
  7 11  1  0  0  0  0
  8 15  1  0  0  0  0
  9 12  2  0  0  0  0
  9 16  1  0  0  0  0
 10 11  2  0  0  0  0
 10 24  1  0  0  0  0
 11 25  1  0  0  0  0
 12 17  1  0  0  0  0
 13 26  1  0  0  0  0
 13 27  1  0  0  0  0
 13 31  1  0  0  0  0
 14 28  1  0  0  0  0
 14 29  1  0  0  0  0
 14 30  1  0  0  0  0
 15 17  2  0  0  0  0
 16 18  1  0  0  0  0
 17 32  1  0  0  0  0
 18 19  2  0  0  0  0
 18 20  1  0  0  0  0
 19 21  1  0  0  0  0
 20 22  2  0  0  0  0
 20 33  1  0  0  0  0
 21 23  2  0  0  0  0
 21 34  1  0  0  0  0
 22 23  1  0  0  0  0
 22 35  1  0  0  0  0
M  END
>  <PUBCHEM_COMPOUND_CID>
14757909

>  <PUBCHEM_COMPOUND_CANONICALIZED>
1

>  <PUBCHEM_CACTVS_COMPLEXITY>
528

>  <PUBCHEM_CACTVS_HBOND_ACCEPTOR>
5

>  <PUBCHEM_CACTVS_HBOND_DONOR>
2

>  <PUBCHEM_CACTVS_ROTATABLE_BOND>
0

>  <PUBCHEM_CACTVS_SUBSKEYS>
AAADccB4OAAAAAAAAAAAAAAAAAAAAAAAAAA0YIEAAAAAAACRQAAAGgAACAAADESAmAAyBoAABgCIAqBSAAACCAAkIAAIiAEGiMgNJzaGNRqCeWOl4BULuYfK7PzOoQABCAAYQABCAAIQADCAAAAAAAAAAA==

>  <PUBCHEM_IUPAC_OPENEYE_NAME>
5,9-dihydroxy-3,3-dimethyl-pyrano[3,2-a]xanthen-12-one

>  <PUBCHEM_IUPAC_CAS_NAME>
5,9-dihydroxy-3,3-dimethyl-12-pyrano[3,2-a]xanthenone

>  <PUBCHEM_IUPAC_NAME>
5,9-dihydroxy-3,3-dimethylpyrano[3,2-a]xanthen-12-one

>  <PUBCHEM_IUPAC_SYSTEMATIC_NAME>
3,3-dimethyl-5,9-bis(oxidanyl)pyrano[3,2-a]xanthen-12-one

>  <PUBCHEM_IUPAC_TRADITIONAL_NAME>
5,9-dihydroxy-3,3-dimethyl-pyrano[3,2-a]xanthen-12-one

>  <PUBCHEM_IUPAC_INCHI>
InChI=1S/C18H14O5/c1-18(2)6-5-11-15-14(8-12(20)17(11)23-18)22-13-7-9(19)3-4-10(13)16(15)21/h3-8,19-20H,1-2H3

>  <PUBCHEM_IUPAC_INCHIKEY>
GQAYMLKLFVVQQH-UHFFFAOYSA-N

>  <PUBCHEM_XLOGP3_AA>
3.2

>  <PUBCHEM_EXACT_MASS>
310.084

>  <PUBCHEM_MOLECULAR_FORMULA>
C18H14O5

>  <PUBCHEM_MOLECULAR_WEIGHT>
310.305

>  <PUBCHEM_OPENEYE_CAN_SMILES>
CC1(C=CC2=C3C(=CC(=C2O1)O)OC4=C(C3=O)C=CC(=C4)O)C

>  <PUBCHEM_OPENEYE_ISO_SMILES>
CC1(C=CC2=C3C(=CC(=C2O1)O)OC4=C(C3=O)C=CC(=C4)O)C

>  <PUBCHEM_CACTVS_TPSA>
76

>  <PUBCHEM_MONOISOTOPIC_WEIGHT>
310.084

>  <PUBCHEM_TOTAL_CHARGE>
0

>  <PUBCHEM_HEAVY_ATOM_COUNT>
23

>  <PUBCHEM_ATOM_DEF_STEREO_COUNT>
0

>  <PUBCHEM_ATOM_UDEF_STEREO_COUNT>
0

>  <PUBCHEM_BOND_DEF_STEREO_COUNT>
0

>  <PUBCHEM_BOND_UDEF_STEREO_COUNT>
0

>  <PUBCHEM_ISOTOPIC_ATOM_COUNT>
0

>  <PUBCHEM_COMPONENT_COUNT>
1

>  <PUBCHEM_CACTVS_TAUTO_COUNT>
19

>  <PUBCHEM_COORDINATE_TYPE>
1
5
255

>  <PUBCHEM_BONDANNOTATIONS>
12  17  8
15  17  8
16  18  8
18  19  8
18  20  8
19  21  8
2  12  8
2  19  8
20  22  8
21  23  8
22  23  8
7  8  8
7  9  8
8  15  8
9  12  8
9  16  8

$$$$
