14769209
 OpenBabel06101807152D

 72 76  0  0  1  0  0  0  0  0999 V2000
    5.1350   -4.2736    0.0000 O   0  0  0  0  0  0  0  0  0  0  0  0
   10.3909    4.7682    0.0000 O   0  0  0  0  0  0  0  0  0  0  0  0
    3.4030   -6.2736    0.0000 O   0  0  0  0  0  0  0  0  0  0  0  0
    5.1350   -7.2736    0.0000 O   0  0  0  0  0  0  0  0  0  0  0  0
    6.8671   -4.2736    0.0000 O   0  0  0  0  0  0  0  0  0  0  0  0
    6.8671   -6.2736    0.0000 O   0  0  0  0  0  0  0  0  0  0  0  0
    9.5191    3.2715    0.0000 O   0  0  0  0  0  0  0  0  0  0  0  0
    7.7986    6.2782    0.0000 O   0  0  0  0  0  0  0  0  0  0  0  0
    9.5345    7.2715    0.0000 O   0  0  0  0  0  0  0  0  0  0  0  0
    7.7909    4.2782    0.0000 O   0  0  0  0  0  0  0  0  0  0  0  0
    2.5369   -4.7736    0.0000 O   0  0  0  0  0  0  0  0  0  0  0  0
   12.1268    5.7615    0.0000 O   0  0  0  0  0  0  0  0  0  0  0  0
   11.2665    7.2648    0.0000 O   0  0  0  0  0  0  0  0  0  0  0  0
    7.7331    0.2264    0.0000 O   0  0  0  0  0  0  0  0  0  0  0  0
    5.1350   -3.2736    0.0000 O   0  0  0  0  0  0  0  0  0  0  0  0
    5.9793    3.2579    0.0000 O   0  0  0  0  0  0  0  0  0  0  0  0
    5.1350    1.7264    0.0000 O   0  0  0  0  0  0  0  0  0  0  0  0
    4.2690   -5.7736    0.0000 C   0  0  3  0  0  0  0  0  0  0  0  0
    5.1350   -6.2736    0.0000 C   0  0  3  0  0  0  0  0  0  0  0  0
    4.2690   -4.7736    0.0000 C   0  0  3  0  0  0  0  0  0  0  0  0
    6.0010   -5.7736    0.0000 C   0  0  3  0  0  0  0  0  0  0  0  0
    6.0010   -4.7736    0.0000 C   0  0  3  0  0  0  0  0  0  0  0  0
    8.6627    5.7748    0.0000 C   0  0  3  0  0  0  0  0  0  0  0  0
    9.5306    6.2715    0.0000 C   0  0  3  0  0  0  0  0  0  0  0  0
    8.6588    4.7749    0.0000 C   0  0  3  0  0  0  0  0  0  0  0  0
   10.3947    5.7682    0.0000 C   0  0  3  0  0  0  0  0  0  0  0  0
    9.5229    4.2715    0.0000 C   0  0  3  0  0  0  0  0  0  0  0  0
    3.4030   -4.2736    0.0000 C   0  0  0  0  0  0  0  0  0  0  0  0
   11.2627    6.2648    0.0000 C   0  0  0  0  0  0  0  0  0  0  0  0
    6.8671   -3.2736    0.0000 C   0  0  0  0  0  0  0  0  0  0  0  0
    8.6511    2.7749    0.0000 C   0  0  0  0  0  0  0  0  0  0  0  0
    6.0010   -2.7736    0.0000 C   0  0  0  0  0  0  0  0  0  0  0  0
    7.7331   -2.7736    0.0000 C   0  0  0  0  0  0  0  0  0  0  0  0
    8.6431    1.7333    0.0000 C   0  0  0  0  0  0  0  0  0  0  0  0
    7.7490    3.2957    0.0000 C   0  0  0  0  0  0  0  0  0  0  0  0
    7.7331    1.2264    0.0000 C   0  0  0  0  0  0  0  0  0  0  0  0
    6.8671   -1.2736    0.0000 C   0  0  0  0  0  0  0  0  0  0  0  0
    6.8671    1.7264    0.0000 C   0  0  0  0  0  0  0  0  0  0  0  0
    6.0010   -1.7736    0.0000 C   0  0  0  0  0  0  0  0  0  0  0  0
    7.7331   -1.7736    0.0000 C   0  0  0  0  0  0  0  0  0  0  0  0
    6.8510    2.7679    0.0000 C   0  0  0  0  0  0  0  0  0  0  0  0
    6.8671   -0.2736    0.0000 C   0  0  0  0  0  0  0  0  0  0  0  0
    6.0010    1.2264    0.0000 C   0  0  0  0  0  0  0  0  0  0  0  0
    6.0010    0.2264    0.0000 C   0  0  0  0  0  0  0  0  0  0  0  0
    4.2690   -6.3936    0.0000 H   0  0  0  0  0  0  0  0  0  0  0  0
    5.6720   -6.5836    0.0000 H   0  0  0  0  0  0  0  0  0  0  0  0
    4.2690   -4.1536    0.0000 H   0  0  0  0  0  0  0  0  0  0  0  0
    6.5380   -5.4636    0.0000 H   0  0  0  0  0  0  0  0  0  0  0  0
    6.0010   -4.1536    0.0000 H   0  0  0  0  0  0  0  0  0  0  0  0
    8.6651    6.3948    0.0000 H   0  0  0  0  0  0  0  0  0  0  0  0
   10.0688    6.5794    0.0000 H   0  0  0  0  0  0  0  0  0  0  0  0
    8.6564    4.1549    0.0000 H   0  0  0  0  0  0  0  0  0  0  0  0
   10.9305    5.4561    0.0000 H   0  0  0  0  0  0  0  0  0  0  0  0
   10.0587    3.9595    0.0000 H   0  0  0  0  0  0  0  0  0  0  0  0
    3.8015   -3.7986    0.0000 H   0  0  0  0  0  0  0  0  0  0  0  0
    3.0044   -3.7986    0.0000 H   0  0  0  0  0  0  0  0  0  0  0  0
    3.4030   -6.8936    0.0000 H   0  0  0  0  0  0  0  0  0  0  0  0
    5.6720   -7.5836    0.0000 H   0  0  0  0  0  0  0  0  0  0  0  0
    7.4040   -5.9636    0.0000 H   0  0  0  0  0  0  0  0  0  0  0  0
    7.8010    6.8982    0.0000 H   0  0  0  0  0  0  0  0  0  0  0  0
    8.9988    7.5836    0.0000 H   0  0  0  0  0  0  0  0  0  0  0  0
    7.2552    4.5903    0.0000 H   0  0  0  0  0  0  0  0  0  0  0  0
    2.0000   -4.4636    0.0000 H   0  0  0  0  0  0  0  0  0  0  0  0
    8.2700   -3.0836    0.0000 H   0  0  0  0  0  0  0  0  0  0  0  0
    9.1764    1.4171    0.0000 H   0  0  0  0  0  0  0  0  0  0  0  0
    7.7466    3.9157    0.0000 H   0  0  0  0  0  0  0  0  0  0  0  0
   12.6649    6.0694    0.0000 H   0  0  0  0  0  0  0  0  0  0  0  0
    5.4641   -1.4636    0.0000 H   0  0  0  0  0  0  0  0  0  0  0  0
    8.2700   -1.4636    0.0000 H   0  0  0  0  0  0  0  0  0  0  0  0
    5.4641   -0.0836    0.0000 H   0  0  0  0  0  0  0  0  0  0  0  0
    4.5981   -2.9636    0.0000 H   0  0  0  0  0  0  0  0  0  0  0  0
    5.9721    3.8778    0.0000 H   0  0  0  0  0  0  0  0  0  0  0  0
  1 20  1  0  0  0  0
  1 22  1  0  0  0  0
  2 26  1  0  0  0  0
  2 27  1  0  0  0  0
  3 18  1  0  0  0  0
  3 57  1  0  0  0  0
  4 19  1  0  0  0  0
  4 58  1  0  0  0  0
  5 22  1  0  0  0  0
  5 30  1  0  0  0  0
  6 21  1  0  0  0  0
  6 59  1  0  0  0  0
  7 27  1  0  0  0  0
  7 31  1  0  0  0  0
  8 23  1  0  0  0  0
  8 60  1  0  0  0  0
  9 24  1  0  0  0  0
  9 61  1  0  0  0  0
 10 25  1  0  0  0  0
 10 62  1  0  0  0  0
 11 28  1  0  0  0  0
 11 63  1  0  0  0  0
 12 29  1  0  0  0  0
 12 67  1  0  0  0  0
 13 29  2  0  0  0  0
 14 36  1  0  0  0  0
 14 42  1  0  0  0  0
 15 32  1  0  0  0  0
 15 71  1  0  0  0  0
 16 41  1  0  0  0  0
 16 72  1  0  0  0  0
 17 43  2  0  0  0  0
 18 19  1  0  0  0  0
 18 20  1  0  0  0  0
 18 45  1  0  0  0  0
 19 21  1  0  0  0  0
 19 46  1  0  0  0  0
 20 28  1  0  0  0  0
 20 47  1  0  0  0  0
 21 22  1  0  0  0  0
 21 48  1  0  0  0  0
 22 49  1  0  0  0  0
 23 24  1  0  0  0  0
 23 25  1  0  0  0  0
 23 50  1  0  0  0  0
 24 26  1  0  0  0  0
 24 51  1  0  0  0  0
 25 27  1  0  0  0  0
 25 52  1  0  0  0  0
 26 29  1  0  0  0  0
 26 53  1  0  0  0  0
 27 54  1  0  0  0  0
 28 55  1  0  0  0  0
 28 56  1  0  0  0  0
 30 32  2  0  0  0  0
 30 33  1  0  0  0  0
 31 34  1  0  0  0  0
 31 35  2  0  0  0  0
 32 39  1  0  0  0  0
 33 40  2  0  0  0  0
 33 64  1  0  0  0  0
 34 36  2  0  0  0  0
 34 65  1  0  0  0  0
 35 41  1  0  0  0  0
 35 66  1  0  0  0  0
 36 38  1  0  0  0  0
 37 39  2  0  0  0  0
 37 40  1  0  0  0  0
 37 42  1  0  0  0  0
 38 41  2  0  0  0  0
 38 43  1  0  0  0  0
 39 68  1  0  0  0  0
 40 69  1  0  0  0  0
 42 44  2  0  0  0  0
 43 44  1  0  0  0  0
 44 70  1  0  0  0  0
M  END
>  <PUBCHEM_COMPOUND_CID>
14769209

>  <PUBCHEM_COMPOUND_CANONICALIZED>
1

>  <PUBCHEM_CACTVS_COMPLEXITY>
1070

>  <PUBCHEM_CACTVS_HBOND_ACCEPTOR>
17

>  <PUBCHEM_CACTVS_HBOND_DONOR>
10

>  <PUBCHEM_CACTVS_ROTATABLE_BOND>
7

>  <PUBCHEM_CACTVS_SUBSKEYS>
AAADceB4PgAAAAAAAAAAAAAAAAAAAAAAAAA0aIECAAAAAACBQAAAGgAACAAADBSwmAMwDoAABgCIAqDSCAICCAAkIAAIiAFGiMgdNzaGNR6ieWOl4BUPuQfK7LzOIAABCAAIQABAAAIQABCAAAAAAAAAAA==

>  <PUBCHEM_IUPAC_OPENEYE_NAME>
3,4,5-trihydroxy-6-[5-hydroxy-2-[3-hydroxy-4-[3,4,5-trihydroxy-6-(hydroxymethyl)tetrahydropyran-2-yl]oxy-phenyl]-4-oxo-chromen-7-yl]oxy-tetrahydropyran-2-carboxylic acid

>  <PUBCHEM_IUPAC_CAS_NAME>
3,4,5-trihydroxy-6-[[5-hydroxy-2-[3-hydroxy-4-[[3,4,5-trihydroxy-6-(hydroxymethyl)-2-oxanyl]oxy]phenyl]-4-oxo-1-benzopyran-7-yl]oxy]-2-oxanecarboxylic acid

>  <PUBCHEM_IUPAC_NAME>
3,4,5-trihydroxy-6-[5-hydroxy-2-[3-hydroxy-4-[3,4,5-trihydroxy-6-(hydroxymethyl)oxan-2-yl]oxyphenyl]-4-oxochromen-7-yl]oxyoxane-2-carboxylic acid

>  <PUBCHEM_IUPAC_SYSTEMATIC_NAME>
6-[2-[4-[6-(hydroxymethyl)-3,4,5-tris(oxidanyl)oxan-2-yl]oxy-3-oxidanyl-phenyl]-5-oxidanyl-4-oxidanylidene-chromen-7-yl]oxy-3,4,5-tris(oxidanyl)oxane-2-carboxylic acid

>  <PUBCHEM_IUPAC_TRADITIONAL_NAME>
3,4,5-trihydroxy-6-[5-hydroxy-2-[3-hydroxy-4-(3,4,5-trihydroxy-6-methylol-tetrahydropyran-2-yl)oxy-phenyl]-4-keto-chromen-7-yl]oxy-tetrahydropyran-2-carboxylic acid

>  <PUBCHEM_IUPAC_INCHI>
InChI=1S/C27H28O17/c28-7-16-18(32)19(33)22(36)27(43-16)42-13-2-1-8(3-10(13)29)14-6-12(31)17-11(30)4-9(5-15(17)41-14)40-26-23(37)20(34)21(35)24(44-26)25(38)39/h1-6,16,18-24,26-30,32-37H,7H2,(H,38,39)

>  <PUBCHEM_IUPAC_INCHIKEY>
DUNZXXOAZWJFBE-UHFFFAOYSA-N

>  <PUBCHEM_XLOGP3_AA>
-1.1

>  <PUBCHEM_EXACT_MASS>
624.133

>  <PUBCHEM_MOLECULAR_FORMULA>
C27H28O17

>  <PUBCHEM_MOLECULAR_WEIGHT>
624.504

>  <PUBCHEM_OPENEYE_CAN_SMILES>
C1=CC(=C(C=C1C2=CC(=O)C3=C(C=C(C=C3O2)OC4C(C(C(C(O4)C(=O)O)O)O)O)O)O)OC5C(C(C(C(O5)CO)O)O)O

>  <PUBCHEM_OPENEYE_ISO_SMILES>
C1=CC(=C(C=C1C2=CC(=O)C3=C(C=C(C=C3O2)OC4C(C(C(C(O4)C(=O)O)O)O)O)O)O)OC5C(C(C(C(O5)CO)O)O)O

>  <PUBCHEM_CACTVS_TPSA>
283

>  <PUBCHEM_MONOISOTOPIC_WEIGHT>
624.133

>  <PUBCHEM_TOTAL_CHARGE>
0

>  <PUBCHEM_HEAVY_ATOM_COUNT>
44

>  <PUBCHEM_ATOM_DEF_STEREO_COUNT>
0

>  <PUBCHEM_ATOM_UDEF_STEREO_COUNT>
10

>  <PUBCHEM_BOND_DEF_STEREO_COUNT>
0

>  <PUBCHEM_BOND_UDEF_STEREO_COUNT>
0

>  <PUBCHEM_ISOTOPIC_ATOM_COUNT>
0

>  <PUBCHEM_COMPONENT_COUNT>
1

>  <PUBCHEM_CACTVS_TAUTO_COUNT>
15

>  <PUBCHEM_COORDINATE_TYPE>
1
5
255

>  <PUBCHEM_BONDANNOTATIONS>
25  10  3
14  36  8
14  42  8
20  28  3
26  29  3
18  3  3
30  32  8
30  33  8
31  34  8
31  35  8
32  39  8
33  40  8
34  36  8
35  41  8
36  38  8
37  39  8
37  40  8
38  41  8
38  43  8
19  4  3
42  44  8
43  44  8
22  5  3
21  6  3
27  7  3
23  8  3
24  9  3

$$$$
