14779601
 OpenBabel06101807152D

 39 41  0  0  1  0  0  0  0  0999 V2000
    3.5836   -0.2583    0.0000 O   0  0  0  0  0  0  0  0  0  0  0  0
    8.0321   -0.5662    0.0000 O   0  0  0  0  0  0  0  0  0  0  0  0
    6.2740    2.5062    0.0000 O   0  0  0  0  0  0  0  0  0  0  0  0
    2.0000   -1.0630    0.0000 O   0  0  0  0  0  0  0  0  0  0  0  0
    6.2619   -0.5630    0.0000 C   0  0  3  0  0  0  0  0  0  0  0  0
    5.3958   -0.0630    0.0000 C   0  0  3  0  0  0  0  0  0  0  0  0
    4.5298   -0.5630    0.0000 C   0  0  3  0  0  0  0  0  0  0  0  0
    6.2619   -1.5630    0.0000 C   0  0  0  0  0  0  0  0  0  0  0  0
    4.5298   -1.5630    0.0000 C   0  0  3  0  0  0  0  0  0  0  0  0
    7.1719   -0.0562    0.0000 C   0  0  3  0  0  0  0  0  0  0  0  0
    5.3958   -2.0630    0.0000 C   0  0  0  0  0  0  0  0  0  0  0  0
    5.3798    0.9785    0.0000 C   0  0  0  0  0  0  0  0  0  0  0  0
    7.1799    0.9854    0.0000 C   0  0  0  0  0  0  0  0  0  0  0  0
    7.1279   -1.0630    0.0000 C   0  0  0  0  0  0  0  0  0  0  0  0
    6.2778    1.5062    0.0000 C   0  0  3  0  0  0  0  0  0  0  0  0
    3.5836   -1.8678    0.0000 C   0  0  0  0  0  0  0  0  0  0  0  0
    3.0000   -1.0630    0.0000 C   0  0  0  0  0  0  0  0  0  0  0  0
    4.5080    1.4684    0.0000 C   0  0  0  0  0  0  0  0  0  0  0  0
    3.2729   -2.8183    0.0000 C   0  0  0  0  0  0  0  0  0  0  0  0
    5.9304    0.2511    0.0000 H   0  0  0  0  0  0  0  0  0  0  0  0
    4.4642    0.0535    0.0000 H   0  0  0  0  0  0  0  0  0  0  0  0
    6.4739   -2.1456    0.0000 H   0  0  0  0  0  0  0  0  0  0  0  0
    6.8725   -1.4554    0.0000 H   0  0  0  0  0  0  0  0  0  0  0  0
    4.4642   -2.1796    0.0000 H   0  0  0  0  0  0  0  0  0  0  0  0
    7.7118    0.2486    0.0000 H   0  0  0  0  0  0  0  0  0  0  0  0
    4.9973   -2.5380    0.0000 H   0  0  0  0  0  0  0  0  0  0  0  0
    5.7944   -2.5380    0.0000 H   0  0  0  0  0  0  0  0  0  0  0  0
    7.7899    0.8746    0.0000 H   0  0  0  0  0  0  0  0  0  0  0  0
    7.3935    1.5675    0.0000 H   0  0  0  0  0  0  0  0  0  0  0  0
    6.8179   -1.6000    0.0000 H   0  0  0  0  0  0  0  0  0  0  0  0
    7.6648   -1.3730    0.0000 H   0  0  0  0  0  0  0  0  0  0  0  0
    7.4379   -0.5261    0.0000 H   0  0  0  0  0  0  0  0  0  0  0  0
    6.8142    1.8173    0.0000 H   0  0  0  0  0  0  0  0  0  0  0  0
    8.5726   -0.2624    0.0000 H   0  0  0  0  0  0  0  0  0  0  0  0
    4.5009    2.0884    0.0000 H   0  0  0  0  0  0  0  0  0  0  0  0
    3.9747    1.1522    0.0000 H   0  0  0  0  0  0  0  0  0  0  0  0
    6.8097    2.8183    0.0000 H   0  0  0  0  0  0  0  0  0  0  0  0
    2.6663   -2.9461    0.0000 H   0  0  0  0  0  0  0  0  0  0  0  0
    3.6870   -3.2798    0.0000 H   0  0  0  0  0  0  0  0  0  0  0  0
  1  7  1  0  0  0  0
  1 17  1  0  0  0  0
  2 10  1  0  0  0  0
  2 34  1  0  0  0  0
  3 15  1  0  0  0  0
  3 37  1  0  0  0  0
  4 17  2  0  0  0  0
  5  6  1  0  0  0  0
  5  8  1  0  0  0  0
  5 10  1  0  0  0  0
  5 14  1  0  0  0  0
  6  7  1  0  0  0  0
  6 12  1  0  0  0  0
  6 20  1  0  0  0  0
  7  9  1  0  0  0  0
  7 21  1  0  0  0  0
  8 11  1  0  0  0  0
  8 22  1  0  0  0  0
  8 23  1  0  0  0  0
  9 11  1  0  0  0  0
  9 16  1  0  0  0  0
  9 24  1  0  0  0  0
 10 13  1  0  0  0  0
 10 25  1  0  0  0  0
 11 26  1  0  0  0  0
 11 27  1  0  0  0  0
 12 15  1  0  0  0  0
 12 18  2  0  0  0  0
 13 15  1  0  0  0  0
 13 28  1  0  0  0  0
 13 29  1  0  0  0  0
 14 30  1  0  0  0  0
 14 31  1  0  0  0  0
 14 32  1  0  0  0  0
 15 33  1  0  0  0  0
 16 17  1  0  0  0  0
 16 19  2  0  0  0  0
 18 35  1  0  0  0  0
 18 36  1  0  0  0  0
 19 38  1  0  0  0  0
 19 39  1  0  0  0  0
M  END
>  <PUBCHEM_COMPOUND_CID>
14779601

>  <PUBCHEM_COMPOUND_CANONICALIZED>
1

>  <PUBCHEM_CACTVS_COMPLEXITY>
469

>  <PUBCHEM_CACTVS_HBOND_ACCEPTOR>
4

>  <PUBCHEM_CACTVS_HBOND_DONOR>
2

>  <PUBCHEM_CACTVS_ROTATABLE_BOND>
0

>  <PUBCHEM_CACTVS_SUBSKEYS>
AAADceBwOAAAAAAAAAAAAAAAAAAAASAAAAAwYAAAAAAAAEjAAAAAGgAACAAADxSggAICCAAABgCIAgDSCAAAAAAgAAAAAAEAAEgAFBIAIQACQAAFwAAAMIHK6PSPgAAAAAAAAADAAAYQADAAAAAAAAAAAA==

>  <PUBCHEM_IUPAC_OPENEYE_NAME>
6,8-dihydroxy-5a-methyl-3,9-dimethylene-3a,4,5,6,7,8,9a,9b-octahydrobenzo[g]benzofuran-2-one

>  <PUBCHEM_IUPAC_CAS_NAME>
6,8-dihydroxy-5a-methyl-3,9-dimethylene-3a,4,5,6,7,8,9a,9b-octahydrobenzo[g]benzofuran-2-one

>  <PUBCHEM_IUPAC_NAME>
6,8-dihydroxy-5a-methyl-3,9-dimethylidene-3a,4,5,6,7,8,9a,9b-octahydrobenzo[g][1]benzofuran-2-one

>  <PUBCHEM_IUPAC_SYSTEMATIC_NAME>
5a-methyl-3,9-dimethylidene-6,8-bis(oxidanyl)-3a,4,5,6,7,8,9a,9b-octahydrobenzo[g][1]benzofuran-2-one

>  <PUBCHEM_IUPAC_TRADITIONAL_NAME>
6,8-dihydroxy-5a-methyl-3,9-dimethylene-3a,4,5,6,7,8,9a,9b-octahydrobenzo[g]benzofuran-2-one

>  <PUBCHEM_IUPAC_INCHI>
InChI=1S/C15H20O4/c1-7-9-4-5-15(3)11(17)6-10(16)8(2)12(15)13(9)19-14(7)18/h9-13,16-17H,1-2,4-6H2,3H3

>  <PUBCHEM_IUPAC_INCHIKEY>
CXFAEUSGWYVIJU-UHFFFAOYSA-N

>  <PUBCHEM_XLOGP3_AA>
0.9

>  <PUBCHEM_EXACT_MASS>
264.136

>  <PUBCHEM_MOLECULAR_FORMULA>
C15H20O4

>  <PUBCHEM_MOLECULAR_WEIGHT>
264.321

>  <PUBCHEM_OPENEYE_CAN_SMILES>
CC12CCC3C(C1C(=C)C(CC2O)O)OC(=O)C3=C

>  <PUBCHEM_OPENEYE_ISO_SMILES>
CC12CCC3C(C1C(=C)C(CC2O)O)OC(=O)C3=C

>  <PUBCHEM_CACTVS_TPSA>
66.8

>  <PUBCHEM_MONOISOTOPIC_WEIGHT>
264.136

>  <PUBCHEM_TOTAL_CHARGE>
0

>  <PUBCHEM_HEAVY_ATOM_COUNT>
19

>  <PUBCHEM_ATOM_DEF_STEREO_COUNT>
0

>  <PUBCHEM_ATOM_UDEF_STEREO_COUNT>
6

>  <PUBCHEM_BOND_DEF_STEREO_COUNT>
0

>  <PUBCHEM_BOND_UDEF_STEREO_COUNT>
0

>  <PUBCHEM_ISOTOPIC_ATOM_COUNT>
0

>  <PUBCHEM_COMPONENT_COUNT>
1

>  <PUBCHEM_CACTVS_TAUTO_COUNT>
1

>  <PUBCHEM_COORDINATE_TYPE>
1
5
255

>  <PUBCHEM_BONDANNOTATIONS>
7  1  3
10  2  3
15  3  3
5  14  3
6  12  3
9  16  3

$$$$
