14825797
 OpenBabel06101807152D

 75 78  0  0  1  0  0  0  0  0999 V2000
    5.6489   -4.1911    0.0000 O   0  0  0  0  0  0  0  0  0  0  0  0
    2.0000   -3.1742    0.0000 O   0  0  0  0  0  0  0  0  0  0  0  0
    7.3931   -0.1219    0.0000 C   0  0  3  0  0  0  0  0  0  0  0  0
    7.3931   -1.1219    0.0000 C   0  0  3  0  0  0  0  0  0  0  0  0
    6.5271   -1.6219    0.0000 C   0  0  3  0  0  0  0  0  0  0  0  0
    5.6610   -1.1219    0.0000 C   0  0  3  0  0  0  0  0  0  0  0  0
    8.3393    0.1828    0.0000 C   0  0  3  0  0  0  0  0  0  0  0  0
    6.5271    0.3781    0.0000 C   0  0  0  0  0  0  0  0  0  0  0  0
    8.3393   -1.4266    0.0000 C   0  0  0  0  0  0  0  0  0  0  0  0
    5.6610   -0.1219    0.0000 C   0  0  0  0  0  0  0  0  0  0  0  0
    4.7510   -1.6287    0.0000 C   0  0  3  0  0  0  0  0  0  0  0  0
    8.9229   -0.6219    0.0000 C   0  0  0  0  0  0  0  0  0  0  0  0
    6.5431   -2.6634    0.0000 C   0  0  0  0  0  0  0  0  0  0  0  0
    7.3931    0.8781    0.0000 C   0  0  0  0  0  0  0  0  0  0  0  0
    8.6500    1.1334    0.0000 C   0  0  3  0  0  0  0  0  0  0  0  0
    4.7430   -2.6703    0.0000 C   0  0  0  0  0  0  0  0  0  0  0  0
    3.8242   -1.0647    0.0000 C   0  0  0  0  0  0  0  0  0  0  0  0
    5.6451   -3.1912    0.0000 C   0  0  0  0  0  0  0  0  0  0  0  0
    4.7587   -0.6288    0.0000 C   0  0  0  0  0  0  0  0  0  0  0  0
    2.8763   -1.5926    0.0000 C   0  0  0  0  0  0  0  0  0  0  0  0
    7.9821    1.8777    0.0000 C   0  0  0  0  0  0  0  0  0  0  0  0
    3.8076   -3.2201    0.0000 C   0  0  0  0  0  0  0  0  0  0  0  0
    9.6285    1.3396    0.0000 C   0  0  0  0  0  0  0  0  0  0  0  0
    2.8680   -2.6776    0.0000 C   0  0  0  0  0  0  0  0  0  0  0  0
    9.9391    2.2901    0.0000 C   0  0  0  0  0  0  0  0  0  0  0  0
   10.9176    2.4963    0.0000 C   0  0  3  0  0  0  0  0  0  0  0  0
   11.2283    3.4468    0.0000 C   0  0  0  0  0  0  0  0  0  0  0  0
   11.5855    1.7520    0.0000 C   0  0  0  0  0  0  0  0  0  0  0  0
   12.2068    3.6531    0.0000 C   0  0  0  0  0  0  0  0  0  0  0  0
   10.5605    4.1911    0.0000 C   0  0  0  0  0  0  0  0  0  0  0  0
   12.5640    1.9582    0.0000 C   0  0  0  0  0  0  0  0  0  0  0  0
    7.4587   -1.7384    0.0000 H   0  0  0  0  0  0  0  0  0  0  0  0
    7.0664   -1.9277    0.0000 H   0  0  0  0  0  0  0  0  0  0  0  0
    6.1980   -0.8119    0.0000 H   0  0  0  0  0  0  0  0  0  0  0  0
    8.9518    0.2790    0.0000 H   0  0  0  0  0  0  0  0  0  0  0  0
    6.9256    0.8531    0.0000 H   0  0  0  0  0  0  0  0  0  0  0  0
    6.1285    0.8531    0.0000 H   0  0  0  0  0  0  0  0  0  0  0  0
    8.0883   -1.9935    0.0000 H   0  0  0  0  0  0  0  0  0  0  0  0
    8.8767   -1.7358    0.0000 H   0  0  0  0  0  0  0  0  0  0  0  0
    5.4490    0.4607    0.0000 H   0  0  0  0  0  0  0  0  0  0  0  0
    5.0504   -0.2296    0.0000 H   0  0  0  0  0  0  0  0  0  0  0  0
    9.3838   -1.0366    0.0000 H   0  0  0  0  0  0  0  0  0  0  0  0
    9.3838   -0.2072    0.0000 H   0  0  0  0  0  0  0  0  0  0  0  0
    6.7612   -3.2438    0.0000 H   0  0  0  0  0  0  0  0  0  0  0  0
    7.1523   -2.5479    0.0000 H   0  0  0  0  0  0  0  0  0  0  0  0
    8.0131    0.8781    0.0000 H   0  0  0  0  0  0  0  0  0  0  0  0
    7.3931    1.4981    0.0000 H   0  0  0  0  0  0  0  0  0  0  0  0
    6.7731    0.8781    0.0000 H   0  0  0  0  0  0  0  0  0  0  0  0
    8.0433    1.0055    0.0000 H   0  0  0  0  0  0  0  0  0  0  0  0
    4.2324   -0.5980    0.0000 H   0  0  0  0  0  0  0  0  0  0  0  0
    3.4343   -0.5826    0.0000 H   0  0  0  0  0  0  0  0  0  0  0  0
    5.3787   -0.6335    0.0000 H   0  0  0  0  0  0  0  0  0  0  0  0
    4.7635   -0.0088    0.0000 H   0  0  0  0  0  0  0  0  0  0  0  0
    4.1388   -0.6240    0.0000 H   0  0  0  0  0  0  0  0  0  0  0  0
    2.6718   -1.0073    0.0000 H   0  0  0  0  0  0  0  0  0  0  0  0
    2.2647   -1.6940    0.0000 H   0  0  0  0  0  0  0  0  0  0  0  0
    8.4436    2.2917    0.0000 H   0  0  0  0  0  0  0  0  0  0  0  0
    7.5681    2.3391    0.0000 H   0  0  0  0  0  0  0  0  0  0  0  0
    7.5207    1.4636    0.0000 H   0  0  0  0  0  0  0  0  0  0  0  0
    3.8100   -3.8401    0.0000 H   0  0  0  0  0  0  0  0  0  0  0  0
   10.0425    0.8781    0.0000 H   0  0  0  0  0  0  0  0  0  0  0  0
    9.5251    2.7516    0.0000 H   0  0  0  0  0  0  0  0  0  0  0  0
   10.7250    1.9070    0.0000 H   0  0  0  0  0  0  0  0  0  0  0  0
   11.4209    4.0362    0.0000 H   0  0  0  0  0  0  0  0  0  0  0  0
   11.0591    1.4244    0.0000 H   0  0  0  0  0  0  0  0  0  0  0  0
   11.8167    1.1768    0.0000 H   0  0  0  0  0  0  0  0  0  0  0  0
   12.3347    3.0464    0.0000 H   0  0  0  0  0  0  0  0  0  0  0  0
   12.8135    3.7809    0.0000 H   0  0  0  0  0  0  0  0  0  0  0  0
   12.0790    4.2597    0.0000 H   0  0  0  0  0  0  0  0  0  0  0  0
   11.0219    4.6052    0.0000 H   0  0  0  0  0  0  0  0  0  0  0  0
   10.1464    4.6526    0.0000 H   0  0  0  0  0  0  0  0  0  0  0  0
   10.0990    3.7771    0.0000 H   0  0  0  0  0  0  0  0  0  0  0  0
   12.6918    1.3516    0.0000 H   0  0  0  0  0  0  0  0  0  0  0  0
   13.1707    2.0861    0.0000 H   0  0  0  0  0  0  0  0  0  0  0  0
   12.4361    2.5649    0.0000 H   0  0  0  0  0  0  0  0  0  0  0  0
  1 18  2  0  0  0  0
  2 24  2  0  0  0  0
  3  4  1  0  0  0  0
  3  7  1  0  0  0  0
  3  8  1  0  0  0  0
  3 14  1  0  0  0  0
  4  5  1  0  0  0  0
  4  9  1  0  0  0  0
  4 32  1  0  0  0  0
  5  6  1  0  0  0  0
  5 13  1  0  0  0  0
  5 33  1  0  0  0  0
  6 10  1  0  0  0  0
  6 11  1  0  0  0  0
  6 34  1  0  0  0  0
  7 12  1  0  0  0  0
  7 15  1  0  0  0  0
  7 35  1  0  0  0  0
  8 10  1  0  0  0  0
  8 36  1  0  0  0  0
  8 37  1  0  0  0  0
  9 12  1  0  0  0  0
  9 38  1  0  0  0  0
  9 39  1  0  0  0  0
 10 40  1  0  0  0  0
 10 41  1  0  0  0  0
 11 16  1  0  0  0  0
 11 17  1  0  0  0  0
 11 19  1  0  0  0  0
 12 42  1  0  0  0  0
 12 43  1  0  0  0  0
 13 18  1  0  0  0  0
 13 44  1  0  0  0  0
 13 45  1  0  0  0  0
 14 46  1  0  0  0  0
 14 47  1  0  0  0  0
 14 48  1  0  0  0  0
 15 21  1  0  0  0  0
 15 23  1  0  0  0  0
 15 49  1  0  0  0  0
 16 18  1  0  0  0  0
 16 22  2  0  0  0  0
 17 20  1  0  0  0  0
 17 50  1  0  0  0  0
 17 51  1  0  0  0  0
 19 52  1  0  0  0  0
 19 53  1  0  0  0  0
 19 54  1  0  0  0  0
 20 24  1  0  0  0  0
 20 55  1  0  0  0  0
 20 56  1  0  0  0  0
 21 57  1  0  0  0  0
 21 58  1  0  0  0  0
 21 59  1  0  0  0  0
 22 24  1  0  0  0  0
 22 60  1  0  0  0  0
 23 25  2  0  0  0  0
 23 61  1  0  0  0  0
 25 26  1  0  0  0  0
 25 62  1  0  0  0  0
 26 27  1  0  0  0  0
 26 28  1  0  0  0  0
 26 63  1  0  0  0  0
 27 29  1  0  0  0  0
 27 30  1  0  0  0  0
 27 64  1  0  0  0  0
 28 31  1  0  0  0  0
 28 65  1  0  0  0  0
 28 66  1  0  0  0  0
 29 67  1  0  0  0  0
 29 68  1  0  0  0  0
 29 69  1  0  0  0  0
 30 70  1  0  0  0  0
 30 71  1  0  0  0  0
 30 72  1  0  0  0  0
 31 73  1  0  0  0  0
 31 74  1  0  0  0  0
 31 75  1  0  0  0  0
M  END
>  <PUBCHEM_COMPOUND_CID>
14825797

>  <PUBCHEM_COMPOUND_CANONICALIZED>
1

>  <PUBCHEM_CACTVS_COMPLEXITY>
789

>  <PUBCHEM_CACTVS_HBOND_ACCEPTOR>
2

>  <PUBCHEM_CACTVS_HBOND_DONOR>
0

>  <PUBCHEM_CACTVS_ROTATABLE_BOND>
5

>  <PUBCHEM_CACTVS_SUBSKEYS>
AAADcfB4MAAAAAAAAAAAAAAAAAAAAYAAAAAwYIAAAAAAAGDAAAAAGgAAAAAADwSAgAACAAAAAACIAqBSAAAAAAAgAAAICAEAAEgAABIAAQAAAAAAgAAIAYMIiMCPgAAAAAAAAACAAAQAACAAAQAACAAAAA==

>  <PUBCHEM_IUPAC_OPENEYE_NAME>
17-[(E)-4-ethyl-1,5-dimethyl-hex-2-enyl]-10,13-dimethyl-2,7,8,9,11,12,14,15,16,17-decahydro-1H-cyclopenta[a]phenanthrene-3,6-dione

>  <PUBCHEM_IUPAC_CAS_NAME>
17-[(E)-5-ethyl-6-methylhept-3-en-2-yl]-10,13-dimethyl-2,7,8,9,11,12,14,15,16,17-decahydro-1H-cyclopenta[a]phenanthrene-3,6-dione

>  <PUBCHEM_IUPAC_NAME>
17-[(E)-5-ethyl-6-methylhept-3-en-2-yl]-10,13-dimethyl-2,7,8,9,11,12,14,15,16,17-decahydro-1H-cyclopenta[a]phenanthrene-3,6-dione

>  <PUBCHEM_IUPAC_SYSTEMATIC_NAME>
17-[(E)-5-ethyl-6-methyl-hept-3-en-2-yl]-10,13-dimethyl-2,7,8,9,11,12,14,15,16,17-decahydro-1H-cyclopenta[a]phenanthrene-3,6-dione

>  <PUBCHEM_IUPAC_TRADITIONAL_NAME>
17-[(E)-4-ethyl-1,5-dimethyl-hex-2-enyl]-10,13-dimethyl-2,7,8,9,11,12,14,15,16,17-decahydro-1H-cyclopenta[a]phenanthrene-3,6-quinone

>  <PUBCHEM_IUPAC_INCHI>
InChI=1S/C29H44O2/c1-7-20(18(2)3)9-8-19(4)23-10-11-24-22-17-27(31)26-16-21(30)12-14-29(26,6)25(22)13-15-28(23,24)5/h8-9,16,18-20,22-25H,7,10-15,17H2,1-6H3/b9-8+

>  <PUBCHEM_IUPAC_INCHIKEY>
XWHBTBBUPBKDBB-CMDGGOBGSA-N

>  <PUBCHEM_XLOGP3_AA>
7.6

>  <PUBCHEM_EXACT_MASS>
424.334

>  <PUBCHEM_MOLECULAR_FORMULA>
C29H44O2

>  <PUBCHEM_MOLECULAR_WEIGHT>
424.669

>  <PUBCHEM_OPENEYE_CAN_SMILES>
CCC(C=CC(C)C1CCC2C1(CCC3C2CC(=O)C4=CC(=O)CCC34C)C)C(C)C

>  <PUBCHEM_OPENEYE_ISO_SMILES>
CCC(/C=C/C(C)C1CCC2C1(CCC3C2CC(=O)C4=CC(=O)CCC34C)C)C(C)C

>  <PUBCHEM_CACTVS_TPSA>
34.1

>  <PUBCHEM_MONOISOTOPIC_WEIGHT>
424.334

>  <PUBCHEM_TOTAL_CHARGE>
0

>  <PUBCHEM_HEAVY_ATOM_COUNT>
31

>  <PUBCHEM_ATOM_DEF_STEREO_COUNT>
0

>  <PUBCHEM_ATOM_UDEF_STEREO_COUNT>
8

>  <PUBCHEM_BOND_DEF_STEREO_COUNT>
1

>  <PUBCHEM_BOND_UDEF_STEREO_COUNT>
0

>  <PUBCHEM_ISOTOPIC_ATOM_COUNT>
0

>  <PUBCHEM_COMPONENT_COUNT>
1

>  <PUBCHEM_CACTVS_TAUTO_COUNT>
34

>  <PUBCHEM_COORDINATE_TYPE>
1
5
255

>  <PUBCHEM_BONDANNOTATIONS>
11  19  3
15  21  3
26  25  3
3  14  3
4  9  3
5  13  3
6  10  3
7  12  3

$$$$
