14833709
 OpenBabel06101807152D

 47 51  0  0  1  0  0  0  0  0999 V2000
    5.5162    0.8857    0.0000 O   0  0  0  0  0  0  0  0  0  0  0  0
    2.9461   -2.6635    0.0000 O   0  0  0  0  0  0  0  0  0  0  0  0
    8.4608   -0.2149    0.0000 O   0  0  0  0  0  0  0  0  0  0  0  0
    7.9380    1.4422    0.0000 O   0  0  0  0  0  0  0  0  0  0  0  0
    4.4394    2.1141    0.0000 O   0  0  0  0  0  0  0  0  0  0  0  0
    6.1653    1.9686    0.0000 O   0  0  0  0  0  0  0  0  0  0  0  0
    4.4481   -0.0026    0.0000 C   0  0  3  0  0  0  0  0  0  0  0  0
    4.7500   -0.8698    0.0000 C   0  0  3  0  0  0  0  0  0  0  0  0
    5.6621   -0.8482    0.0000 C   0  0  3  0  0  0  0  0  0  0  0  0
    5.9251    0.0258    0.0000 C   0  0  3  0  0  0  0  0  0  0  0  0
    5.1763    0.5466    0.0000 C   0  0  3  0  0  0  0  0  0  0  0  0
    3.7521   -0.8350    0.0000 C   0  0  0  0  0  0  0  0  0  0  0  0
    6.8424    0.2418    0.0000 C   0  0  3  0  0  0  0  0  0  0  0  0
    2.6992   -1.0976    0.0000 C   0  0  3  0  0  0  0  0  0  0  0  0
    3.5812    0.3020    0.0000 C   0  0  0  0  0  0  0  0  0  0  0  0
    4.2598   -1.6463    0.0000 C   0  0  0  0  0  0  0  0  0  0  0  0
    3.3475   -1.7476    0.0000 C   0  0  3  0  0  0  0  0  0  0  0  0
    2.8036   -0.1850    0.0000 C   0  0  0  0  0  0  0  0  0  0  0  0
    6.2999   -1.5628    0.0000 C   0  0  0  0  0  0  0  0  0  0  0  0
    7.4875   -0.4444    0.0000 C   0  0  3  0  0  0  0  0  0  0  0  0
    7.1072    0.8857    0.0000 C   0  0  0  0  0  0  0  0  0  0  0  0
    5.2603    1.5431    0.0000 C   0  0  0  0  0  0  0  0  0  0  0  0
    7.8258    0.4230    0.0000 C   0  0  0  0  0  0  0  0  0  0  0  0
    7.2160   -1.3470    0.0000 C   0  0  0  0  0  0  0  0  0  0  0  0
    2.0000    0.4102    0.0000 C   0  0  0  0  0  0  0  0  0  0  0  0
    5.0558   -1.4092    0.0000 H   0  0  0  0  0  0  0  0  0  0  0  0
    6.0411    0.6348    0.0000 H   0  0  0  0  0  0  0  0  0  0  0  0
    4.6335    0.8462    0.0000 H   0  0  0  0  0  0  0  0  0  0  0  0
    3.7092   -1.4535    0.0000 H   0  0  0  0  0  0  0  0  0  0  0  0
    4.3272   -1.0666    0.0000 H   0  0  0  0  0  0  0  0  0  0  0  0
    2.1137   -1.3015    0.0000 H   0  0  0  0  0  0  0  0  0  0  0  0
    3.9118    0.8266    0.0000 H   0  0  0  0  0  0  0  0  0  0  0  0
    3.1434    0.7411    0.0000 H   0  0  0  0  0  0  0  0  0  0  0  0
    4.1892   -2.2623    0.0000 H   0  0  0  0  0  0  0  0  0  0  0  0
    4.8446   -1.8523    0.0000 H   0  0  0  0  0  0  0  0  0  0  0  0
    3.7148   -2.2471    0.0000 H   0  0  0  0  0  0  0  0  0  0  0  0
    6.1135   -2.1541    0.0000 H   0  0  0  0  0  0  0  0  0  0  0  0
    7.9124   -0.8959    0.0000 H   0  0  0  0  0  0  0  0  0  0  0  0
    7.9382   -0.1867    0.0000 H   0  0  0  0  0  0  0  0  0  0  0  0
    8.4356    0.5353    0.0000 H   0  0  0  0  0  0  0  0  0  0  0  0
    7.7135    1.0327    0.0000 H   0  0  0  0  0  0  0  0  0  0  0  0
    7.6409   -1.7986    0.0000 H   0  0  0  0  0  0  0  0  0  0  0  0
    2.0704    1.0261    0.0000 H   0  0  0  0  0  0  0  0  0  0  0  0
    1.4313    0.1632    0.0000 H   0  0  0  0  0  0  0  0  0  0  0  0
    2.3298   -2.7319    0.0000 H   0  0  0  0  0  0  0  0  0  0  0  0
    8.8858   -0.6664    0.0000 H   0  0  0  0  0  0  0  0  0  0  0  0
    4.4915    2.7319    0.0000 H   0  0  0  0  0  0  0  0  0  0  0  0
  1  9  1  0  0  0  0
  1 21  1  0  0  0  0
  2 17  1  0  0  0  0
  2 45  1  0  0  0  0
  3 20  1  0  0  0  0
  3 46  1  0  0  0  0
  4 21  2  0  0  0  0
  5 22  1  0  0  0  0
  5 47  1  0  0  0  0
  6 22  2  0  0  0  0
  7  8  1  0  0  0  0
  7 11  1  0  0  0  0
  7 12  1  0  0  0  0
  7 15  1  0  0  0  0
  8  9  1  0  0  0  0
  8 16  1  0  0  0  0
  8 26  1  0  0  0  0
  9 10  1  0  0  0  0
  9 19  1  0  0  0  0
 10 11  1  0  0  0  0
 10 13  1  0  0  0  0
 10 27  1  0  0  0  0
 11 22  1  0  0  0  0
 11 28  1  0  0  0  0
 12 14  1  0  0  0  0
 12 29  1  0  0  0  0
 12 30  1  0  0  0  0
 13 20  1  0  0  0  0
 13 21  1  0  0  0  0
 13 23  1  0  0  0  0
 14 17  1  0  0  0  0
 14 18  1  0  0  0  0
 14 31  1  0  0  0  0
 15 18  1  0  0  0  0
 15 32  1  0  0  0  0
 15 33  1  0  0  0  0
 16 17  1  0  0  0  0
 16 34  1  0  0  0  0
 16 35  1  0  0  0  0
 17 36  1  0  0  0  0
 18 25  2  0  0  0  0
 19 24  2  0  0  0  0
 19 37  1  0  0  0  0
 20 24  1  0  0  0  0
 20 38  1  0  0  0  0
 23 39  1  0  0  0  0
 23 40  1  0  0  0  0
 23 41  1  0  0  0  0
 24 42  1  0  0  0  0
 25 43  1  0  0  0  0
 25 44  1  0  0  0  0
M  END
>  <PUBCHEM_COMPOUND_CID>
14833709

>  <PUBCHEM_COMPOUND_CANONICALIZED>
1

>  <PUBCHEM_CACTVS_COMPLEXITY>
757

>  <PUBCHEM_CACTVS_HBOND_ACCEPTOR>
6

>  <PUBCHEM_CACTVS_HBOND_DONOR>
3

>  <PUBCHEM_CACTVS_ROTATABLE_BOND>
1

>  <PUBCHEM_CACTVS_SUBSKEYS>
AAADceB4OAAAAAAAAAAAAAAAAAAAAaMEAAAwQAAABggSAGDAAAAAGgAACAAAD1SggAICCAAABgCIAiDSCAAAAAAgAAAICAEAAAgAFBYAIQACUAAF4AAIMAPK7vzPgAAAAAAAAADAAAYAADAAAYAADAAAAA==

>  <PUBCHEM_IUPAC_INCHI>
InChI=1S/C19H22O6/c1-8-6-18-7-9(8)10(20)5-11(18)19-4-3-12(21)17(2,16(24)25-19)14(19)13(18)15(22)23/h3-4,9-14,20-21H,1,5-7H2,2H3,(H,22,23)

>  <PUBCHEM_IUPAC_INCHIKEY>
XRIRDTGIFOWQDB-UHFFFAOYSA-N

>  <PUBCHEM_XLOGP3>
0.3

>  <PUBCHEM_EXACT_MASS>
346.142

>  <PUBCHEM_MOLECULAR_FORMULA>
C19H22O6

>  <PUBCHEM_MOLECULAR_WEIGHT>
346.379

>  <PUBCHEM_OPENEYE_CAN_SMILES>
CC12C(C=CC3(C1C(C45C3CC(C(C4)C(=C)C5)O)C(=O)O)OC2=O)O

>  <PUBCHEM_OPENEYE_ISO_SMILES>
CC12C(C=CC3(C1C(C45C3CC(C(C4)C(=C)C5)O)C(=O)O)OC2=O)O

>  <PUBCHEM_CACTVS_TPSA>
104

>  <PUBCHEM_MONOISOTOPIC_WEIGHT>
346.142

>  <PUBCHEM_TOTAL_CHARGE>
0

>  <PUBCHEM_HEAVY_ATOM_COUNT>
25

>  <PUBCHEM_ATOM_DEF_STEREO_COUNT>
0

>  <PUBCHEM_ATOM_UDEF_STEREO_COUNT>
9

>  <PUBCHEM_BOND_DEF_STEREO_COUNT>
0

>  <PUBCHEM_BOND_UDEF_STEREO_COUNT>
0

>  <PUBCHEM_ISOTOPIC_ATOM_COUNT>
0

>  <PUBCHEM_COMPONENT_COUNT>
1

>  <PUBCHEM_CACTVS_TAUTO_COUNT>
1

>  <PUBCHEM_COORDINATE_TYPE>
1
5
255

>  <PUBCHEM_BONDANNOTATIONS>
10  11  3
11  22  3
14  12  3
13  23  3
17  2  3
20  3  3
7  12  3
8  16  3
9  19  3

$$$$
