14833707
 OpenBabel06101807152D

 54 57  0  0  1  0  0  0  0  0999 V2000
    6.5434    3.5843    0.0000 O   0  0  0  0  0  0  0  0  0  0  0  0
    2.6198   -2.4633    0.0000 O   0  0  0  0  0  0  0  0  0  0  0  0
    2.7606    1.0416    0.0000 O   0  0  0  0  0  0  0  0  0  0  0  0
    7.3668   -0.9795    0.0000 O   0  0  0  0  0  0  0  0  0  0  0  0
    3.7892    2.0121    0.0000 O   0  0  0  0  0  0  0  0  0  0  0  0
    6.1677   -2.2294    0.0000 O   0  0  0  0  0  0  0  0  0  0  0  0
    5.0164   -3.1472    0.0000 O   0  0  0  0  0  0  0  0  0  0  0  0
    3.2846   -3.1169    0.0000 O   0  0  0  0  0  0  0  0  0  0  0  0
    5.8209    0.4187    0.0000 C   0  0  3  0  0  0  0  0  0  0  0  0
    4.9199    0.8526    0.0000 C   0  0  3  0  0  0  0  0  0  0  0  0
    4.2348    0.1323    0.0000 C   0  0  3  0  0  0  0  0  0  0  0  0
    4.7066   -0.7426    0.0000 C   0  0  3  0  0  0  0  0  0  0  0  0
    5.6849   -0.5660    0.0000 C   0  0  3  0  0  0  0  0  0  0  0  0
    5.7140    1.5955    0.0000 C   0  0  0  0  0  0  0  0  0  0  0  0
    6.3209    2.6094    0.0000 C   0  0  3  0  0  0  0  0  0  0  0  0
    6.7218    0.8526    0.0000 C   0  0  0  0  0  0  0  0  0  0  0  0
    4.1767   -1.6322    0.0000 C   0  0  3  0  0  0  0  0  0  0  0  0
    4.6974    1.8276    0.0000 C   0  0  0  0  0  0  0  0  0  0  0  0
    3.2003    0.1784    0.0000 C   0  0  0  0  0  0  0  0  0  0  0  0
    5.3209    2.6094    0.0000 C   0  0  0  0  0  0  0  0  0  0  0  0
    6.9444    1.8276    0.0000 C   0  0  0  0  0  0  0  0  0  0  0  0
    3.1415   -1.6101    0.0000 C   0  0  3  0  0  0  0  0  0  0  0  0
    2.6500   -0.6987    0.0000 C   0  0  0  0  0  0  0  0  0  0  0  0
    3.7602    1.0125    0.0000 C   0  0  0  0  0  0  0  0  0  0  0  0
    6.4065   -1.2583    0.0000 C   0  0  0  0  0  0  0  0  0  0  0  0
    5.0338   -2.1473    0.0000 C   0  0  0  0  0  0  0  0  0  0  0  0
    4.1592   -2.6321    0.0000 C   0  0  0  0  0  0  0  0  0  0  0  0
    7.9193    2.0501    0.0000 C   0  0  0  0  0  0  0  0  0  0  0  0
    4.3220    1.0168    0.0000 H   0  0  0  0  0  0  0  0  0  0  0  0
    5.0598   -1.2522    0.0000 H   0  0  0  0  0  0  0  0  0  0  0  0
    6.2705   -0.3625    0.0000 H   0  0  0  0  0  0  0  0  0  0  0  0
    5.3062    2.0625    0.0000 H   0  0  0  0  0  0  0  0  0  0  0  0
    5.1440    1.3517    0.0000 H   0  0  0  0  0  0  0  0  0  0  0  0
    6.8598    0.2482    0.0000 H   0  0  0  0  0  0  0  0  0  0  0  0
    7.3418    0.8526    0.0000 H   0  0  0  0  0  0  0  0  0  0  0  0
    4.3108    2.3123    0.0000 H   0  0  0  0  0  0  0  0  0  0  0  0
    4.1388    1.5586    0.0000 H   0  0  0  0  0  0  0  0  0  0  0  0
    3.3335    0.7839    0.0000 H   0  0  0  0  0  0  0  0  0  0  0  0
    2.6265    0.4132    0.0000 H   0  0  0  0  0  0  0  0  0  0  0  0
    5.4588    3.2138    0.0000 H   0  0  0  0  0  0  0  0  0  0  0  0
    4.7623    2.8784    0.0000 H   0  0  0  0  0  0  0  0  0  0  0  0
    3.4389   -2.1541    0.0000 H   0  0  0  0  0  0  0  0  0  0  0  0
    2.1890   -0.2842    0.0000 H   0  0  0  0  0  0  0  0  0  0  0  0
    2.1627   -1.0820    0.0000 H   0  0  0  0  0  0  0  0  0  0  0  0
    4.7145   -2.6787    0.0000 H   0  0  0  0  0  0  0  0  0  0  0  0
    5.5653   -2.4666    0.0000 H   0  0  0  0  0  0  0  0  0  0  0  0
    5.3532   -1.6159    0.0000 H   0  0  0  0  0  0  0  0  0  0  0  0
    7.1358    3.7671    0.0000 H   0  0  0  0  0  0  0  0  0  0  0  0
    8.3410    1.5956    0.0000 H   0  0  0  0  0  0  0  0  0  0  0  0
    8.1020    2.6425    0.0000 H   0  0  0  0  0  0  0  0  0  0  0  0
    2.0000   -2.4477    0.0000 H   0  0  0  0  0  0  0  0  0  0  0  0
    2.4663    1.5873    0.0000 H   0  0  0  0  0  0  0  0  0  0  0  0
    7.8142   -1.4088    0.0000 H   0  0  0  0  0  0  0  0  0  0  0  0
    5.0055   -3.7671    0.0000 H   0  0  0  0  0  0  0  0  0  0  0  0
  1 15  1  0  0  0  0
  1 48  1  0  0  0  0
  2 22  1  0  0  0  0
  2 51  1  0  0  0  0
  3 24  1  0  0  0  0
  3 52  1  0  0  0  0
  4 25  1  0  0  0  0
  4 53  1  0  0  0  0
  5 24  2  0  0  0  0
  6 25  2  0  0  0  0
  7 27  1  0  0  0  0
  7 54  1  0  0  0  0
  8 27  2  0  0  0  0
  9 10  1  0  0  0  0
  9 13  1  0  0  0  0
  9 14  1  0  0  0  0
  9 16  1  0  0  0  0
 10 11  1  0  0  0  0
 10 18  1  0  0  0  0
 10 29  1  0  0  0  0
 11 12  1  0  0  0  0
 11 19  1  0  0  0  0
 11 24  1  0  0  0  0
 12 13  1  0  0  0  0
 12 17  1  0  0  0  0
 12 30  1  0  0  0  0
 13 25  1  0  0  0  0
 13 31  1  0  0  0  0
 14 15  1  0  0  0  0
 14 32  1  0  0  0  0
 14 33  1  0  0  0  0
 15 20  1  0  0  0  0
 15 21  1  0  0  0  0
 16 21  1  0  0  0  0
 16 34  1  0  0  0  0
 16 35  1  0  0  0  0
 17 22  1  0  0  0  0
 17 26  1  0  0  0  0
 17 27  1  0  0  0  0
 18 20  1  0  0  0  0
 18 36  1  0  0  0  0
 18 37  1  0  0  0  0
 19 23  1  0  0  0  0
 19 38  1  0  0  0  0
 19 39  1  0  0  0  0
 20 40  1  0  0  0  0
 20 41  1  0  0  0  0
 21 28  2  0  0  0  0
 22 23  1  0  0  0  0
 22 42  1  0  0  0  0
 23 43  1  0  0  0  0
 23 44  1  0  0  0  0
 26 45  1  0  0  0  0
 26 46  1  0  0  0  0
 26 47  1  0  0  0  0
 28 49  1  0  0  0  0
 28 50  1  0  0  0  0
M  END
>  <PUBCHEM_COMPOUND_CID>
14833707

>  <PUBCHEM_COMPOUND_CANONICALIZED>
1

>  <PUBCHEM_CACTVS_COMPLEXITY>
806

>  <PUBCHEM_CACTVS_HBOND_ACCEPTOR>
8

>  <PUBCHEM_CACTVS_HBOND_DONOR>
5

>  <PUBCHEM_CACTVS_ROTATABLE_BOND>
3

>  <PUBCHEM_CACTVS_SUBSKEYS>
AAADceB4PAAAAAAAAAAAAAAAAAAAAYMAAAAwYAAABgAAAGDAAAAAGgAACAAAD1SggAICCAAAAgCIAgDSCAAAAAAgAAAAAAEAAAgAFBYAAQAAQAAFoAAAEAGI7vTPgAAAAAAAAADAAAYAADAAAYAACAAAAA==

>  <PUBCHEM_IUPAC_INCHI>
InChI=1S/C20H26O8/c1-9-7-18-8-19(9,28)5-3-10(18)20(16(26)27)6-4-11(21)17(2,15(24)25)13(20)12(18)14(22)23/h10-13,21,28H,1,3-8H2,2H3,(H,22,23)(H,24,25)(H,26,27)

>  <PUBCHEM_IUPAC_INCHIKEY>
YPZCOEDTKIYBEB-UHFFFAOYSA-N

>  <PUBCHEM_XLOGP3_AA>
0.1

>  <PUBCHEM_EXACT_MASS>
394.163

>  <PUBCHEM_MOLECULAR_FORMULA>
C20H26O8

>  <PUBCHEM_MOLECULAR_WEIGHT>
394.42

>  <PUBCHEM_OPENEYE_CAN_SMILES>
CC1(C(CCC2(C1C(C34C2CCC(C3)(C(=C)C4)O)C(=O)O)C(=O)O)O)C(=O)O

>  <PUBCHEM_OPENEYE_ISO_SMILES>
CC1(C(CCC2(C1C(C34C2CCC(C3)(C(=C)C4)O)C(=O)O)C(=O)O)O)C(=O)O

>  <PUBCHEM_CACTVS_TPSA>
152

>  <PUBCHEM_MONOISOTOPIC_WEIGHT>
394.163

>  <PUBCHEM_TOTAL_CHARGE>
0

>  <PUBCHEM_HEAVY_ATOM_COUNT>
28

>  <PUBCHEM_ATOM_DEF_STEREO_COUNT>
0

>  <PUBCHEM_ATOM_UDEF_STEREO_COUNT>
8

>  <PUBCHEM_BOND_DEF_STEREO_COUNT>
0

>  <PUBCHEM_BOND_UDEF_STEREO_COUNT>
0

>  <PUBCHEM_ISOTOPIC_ATOM_COUNT>
0

>  <PUBCHEM_COMPONENT_COUNT>
1

>  <PUBCHEM_CACTVS_TAUTO_COUNT>
1

>  <PUBCHEM_COORDINATE_TYPE>
1
5
255

>  <PUBCHEM_BONDANNOTATIONS>
15  1  3
10  18  3
11  24  3
12  17  3
13  25  3
17  26  3
22  2  3
9  14  3

$$$$
