14833730
 OpenBabel06101807152D

 54 57  0  0  1  0  0  0  0  0999 V2000
    3.2614   -1.8844    0.0000 O   0  0  0  0  0  0  0  0  0  0  0  0
    2.2922   -0.0870    0.0000 O   0  0  0  0  0  0  0  0  0  0  0  0
    3.4022    1.6204    0.0000 O   0  0  0  0  0  0  0  0  0  0  0  0
    8.0084   -0.4007    0.0000 O   0  0  0  0  0  0  0  0  0  0  0  0
    4.4308    2.5909    0.0000 O   0  0  0  0  0  0  0  0  0  0  0  0
    6.8093   -1.6505    0.0000 O   0  0  0  0  0  0  0  0  0  0  0  0
    5.6580   -2.5683    0.0000 O   0  0  0  0  0  0  0  0  0  0  0  0
    3.9262   -2.5380    0.0000 O   0  0  0  0  0  0  0  0  0  0  0  0
    6.4625    0.9976    0.0000 C   0  0  3  0  0  0  0  0  0  0  0  0
    5.5615    1.4315    0.0000 C   0  0  3  0  0  0  0  0  0  0  0  0
    4.8764    0.7112    0.0000 C   0  0  3  0  0  0  0  0  0  0  0  0
    5.3482   -0.1638    0.0000 C   0  0  3  0  0  0  0  0  0  0  0  0
    6.3265    0.0128    0.0000 C   0  0  3  0  0  0  0  0  0  0  0  0
    6.3556    2.1744    0.0000 C   0  0  0  0  0  0  0  0  0  0  0  0
    4.8183   -1.0534    0.0000 C   0  0  3  0  0  0  0  0  0  0  0  0
    7.3634    1.4315    0.0000 C   0  0  0  0  0  0  0  0  0  0  0  0
    6.9625    3.1882    0.0000 C   0  0  3  0  0  0  0  0  0  0  0  0
    5.3390    2.4064    0.0000 C   0  0  0  0  0  0  0  0  0  0  0  0
    3.8420    0.7572    0.0000 C   0  0  0  0  0  0  0  0  0  0  0  0
    5.9625    3.1882    0.0000 C   0  0  0  0  0  0  0  0  0  0  0  0
    7.5860    2.4064    0.0000 C   0  0  0  0  0  0  0  0  0  0  0  0
    3.7831   -1.0313    0.0000 C   0  0  3  0  0  0  0  0  0  0  0  0
    3.2916   -0.1199    0.0000 C   0  0  3  0  0  0  0  0  0  0  0  0
    4.4018    1.5914    0.0000 C   0  0  0  0  0  0  0  0  0  0  0  0
    7.0481   -0.6795    0.0000 C   0  0  0  0  0  0  0  0  0  0  0  0
    5.6755   -1.5685    0.0000 C   0  0  0  0  0  0  0  0  0  0  0  0
    4.8008   -2.0532    0.0000 C   0  0  0  0  0  0  0  0  0  0  0  0
    8.5609    2.6289    0.0000 C   0  0  0  0  0  0  0  0  0  0  0  0
    4.9636    1.5956    0.0000 H   0  0  0  0  0  0  0  0  0  0  0  0
    5.7014   -0.6734    0.0000 H   0  0  0  0  0  0  0  0  0  0  0  0
    6.9121    0.2164    0.0000 H   0  0  0  0  0  0  0  0  0  0  0  0
    5.9478    2.6414    0.0000 H   0  0  0  0  0  0  0  0  0  0  0  0
    5.7856    1.9305    0.0000 H   0  0  0  0  0  0  0  0  0  0  0  0
    7.5014    0.8270    0.0000 H   0  0  0  0  0  0  0  0  0  0  0  0
    7.9834    1.4315    0.0000 H   0  0  0  0  0  0  0  0  0  0  0  0
    7.2315    3.7468    0.0000 H   0  0  0  0  0  0  0  0  0  0  0  0
    4.9524    2.8911    0.0000 H   0  0  0  0  0  0  0  0  0  0  0  0
    4.7804    2.1374    0.0000 H   0  0  0  0  0  0  0  0  0  0  0  0
    3.9751    1.3627    0.0000 H   0  0  0  0  0  0  0  0  0  0  0  0
    3.2682    0.9920    0.0000 H   0  0  0  0  0  0  0  0  0  0  0  0
    6.1004    3.7927    0.0000 H   0  0  0  0  0  0  0  0  0  0  0  0
    5.4039    3.4572    0.0000 H   0  0  0  0  0  0  0  0  0  0  0  0
    3.1633   -1.0145    0.0000 H   0  0  0  0  0  0  0  0  0  0  0  0
    2.9651   -0.6470    0.0000 H   0  0  0  0  0  0  0  0  0  0  0  0
    5.3561   -2.0999    0.0000 H   0  0  0  0  0  0  0  0  0  0  0  0
    6.2069   -1.8878    0.0000 H   0  0  0  0  0  0  0  0  0  0  0  0
    5.9948   -1.0370    0.0000 H   0  0  0  0  0  0  0  0  0  0  0  0
    8.9826    2.1744    0.0000 H   0  0  0  0  0  0  0  0  0  0  0  0
    8.7436    3.2214    0.0000 H   0  0  0  0  0  0  0  0  0  0  0  0
    2.6416   -1.8688    0.0000 H   0  0  0  0  0  0  0  0  0  0  0  0
    2.0000    0.4598    0.0000 H   0  0  0  0  0  0  0  0  0  0  0  0
    3.1079    2.1661    0.0000 H   0  0  0  0  0  0  0  0  0  0  0  0
    8.4558   -0.8299    0.0000 H   0  0  0  0  0  0  0  0  0  0  0  0
    5.6471   -3.1882    0.0000 H   0  0  0  0  0  0  0  0  0  0  0  0
  1 22  1  0  0  0  0
  1 50  1  0  0  0  0
  2 23  1  0  0  0  0
  2 51  1  0  0  0  0
  3 24  1  0  0  0  0
  3 52  1  0  0  0  0
  4 25  1  0  0  0  0
  4 53  1  0  0  0  0
  5 24  2  0  0  0  0
  6 25  2  0  0  0  0
  7 27  1  0  0  0  0
  7 54  1  0  0  0  0
  8 27  2  0  0  0  0
  9 10  1  0  0  0  0
  9 13  1  0  0  0  0
  9 14  1  0  0  0  0
  9 16  1  0  0  0  0
 10 11  1  0  0  0  0
 10 18  1  0  0  0  0
 10 29  1  0  0  0  0
 11 12  1  0  0  0  0
 11 19  1  0  0  0  0
 11 24  1  0  0  0  0
 12 13  1  0  0  0  0
 12 15  1  0  0  0  0
 12 30  1  0  0  0  0
 13 25  1  0  0  0  0
 13 31  1  0  0  0  0
 14 17  1  0  0  0  0
 14 32  1  0  0  0  0
 14 33  1  0  0  0  0
 15 22  1  0  0  0  0
 15 26  1  0  0  0  0
 15 27  1  0  0  0  0
 16 21  1  0  0  0  0
 16 34  1  0  0  0  0
 16 35  1  0  0  0  0
 17 20  1  0  0  0  0
 17 21  1  0  0  0  0
 17 36  1  0  0  0  0
 18 20  1  0  0  0  0
 18 37  1  0  0  0  0
 18 38  1  0  0  0  0
 19 23  1  0  0  0  0
 19 39  1  0  0  0  0
 19 40  1  0  0  0  0
 20 41  1  0  0  0  0
 20 42  1  0  0  0  0
 21 28  2  0  0  0  0
 22 23  1  0  0  0  0
 22 43  1  0  0  0  0
 23 44  1  0  0  0  0
 26 45  1  0  0  0  0
 26 46  1  0  0  0  0
 26 47  1  0  0  0  0
 28 48  1  0  0  0  0
 28 49  1  0  0  0  0
M  END
>  <PUBCHEM_COMPOUND_CID>
14833730

>  <PUBCHEM_COMPOUND_CANONICALIZED>
1

>  <PUBCHEM_CACTVS_COMPLEXITY>
791

>  <PUBCHEM_CACTVS_HBOND_ACCEPTOR>
8

>  <PUBCHEM_CACTVS_HBOND_DONOR>
5

>  <PUBCHEM_CACTVS_ROTATABLE_BOND>
3

>  <PUBCHEM_CACTVS_SUBSKEYS>
AAADceB4PAAAAAAAAAAAAAAAAAAAAYMAAAAwYAAABgAAAGDAAAAAGgAACAAADxSggAICCAAAAgCIAgDSCAAAAAAgAAAAAAEAAAgBEBYAAQAAQAAFoAABAAHK7vTPgAAAAAAAAADAAAYAADCAAQAACAAAAA==

>  <PUBCHEM_IUPAC_INCHI>
InChI=1S/C20H26O8/c1-8-5-19-6-9(8)3-4-11(19)20(17(27)28)7-10(21)14(22)18(2,16(25)26)13(20)12(19)15(23)24/h9-14,21-22H,1,3-7H2,2H3,(H,23,24)(H,25,26)(H,27,28)

>  <PUBCHEM_IUPAC_INCHIKEY>
FQTLNSKVFLETSS-UHFFFAOYSA-N

>  <PUBCHEM_XLOGP3_AA>
0.8

>  <PUBCHEM_EXACT_MASS>
394.163

>  <PUBCHEM_MOLECULAR_FORMULA>
C20H26O8

>  <PUBCHEM_MOLECULAR_WEIGHT>
394.42

>  <PUBCHEM_OPENEYE_CAN_SMILES>
CC1(C2C(C34CC(CCC3C2(CC(C1O)O)C(=O)O)C(=C)C4)C(=O)O)C(=O)O

>  <PUBCHEM_OPENEYE_ISO_SMILES>
CC1(C2C(C34CC(CCC3C2(CC(C1O)O)C(=O)O)C(=C)C4)C(=O)O)C(=O)O

>  <PUBCHEM_CACTVS_TPSA>
152

>  <PUBCHEM_MONOISOTOPIC_WEIGHT>
394.163

>  <PUBCHEM_TOTAL_CHARGE>
0

>  <PUBCHEM_HEAVY_ATOM_COUNT>
28

>  <PUBCHEM_ATOM_DEF_STEREO_COUNT>
0

>  <PUBCHEM_ATOM_UDEF_STEREO_COUNT>
9

>  <PUBCHEM_BOND_DEF_STEREO_COUNT>
0

>  <PUBCHEM_BOND_UDEF_STEREO_COUNT>
0

>  <PUBCHEM_ISOTOPIC_ATOM_COUNT>
0

>  <PUBCHEM_COMPONENT_COUNT>
1

>  <PUBCHEM_CACTVS_TAUTO_COUNT>
1

>  <PUBCHEM_COORDINATE_TYPE>
1
5
255

>  <PUBCHEM_BONDANNOTATIONS>
22  1  3
10  18  3
11  24  3
12  15  3
13  25  3
17  14  3
15  26  3
23  2  3
9  14  3

$$$$
