14833721
 OpenBabel06101807152D

 49 53  0  0  1  0  0  0  0  0999 V2000
    5.5162    0.8543    0.0000 O   0  0  0  0  0  0  0  0  0  0  0  0
    8.4608   -0.2463    0.0000 O   0  0  0  0  0  0  0  0  0  0  0  0
    7.9012   -2.1068    0.0000 O   0  0  0  0  0  0  0  0  0  0  0  0
    7.9380    1.4108    0.0000 O   0  0  0  0  0  0  0  0  0  0  0  0
    4.4394    2.0827    0.0000 O   0  0  0  0  0  0  0  0  0  0  0  0
    6.1653    1.9372    0.0000 O   0  0  0  0  0  0  0  0  0  0  0  0
    4.4481   -0.0340    0.0000 C   0  0  3  0  0  0  0  0  0  0  0  0
    5.6621   -0.8796    0.0000 C   0  0  3  0  0  0  0  0  0  0  0  0
    4.7500   -0.9012    0.0000 C   0  0  3  0  0  0  0  0  0  0  0  0
    5.9251   -0.0056    0.0000 C   0  0  3  0  0  0  0  0  0  0  0  0
    5.1763    0.5152    0.0000 C   0  0  3  0  0  0  0  0  0  0  0  0
    6.8424    0.2104    0.0000 C   0  0  3  0  0  0  0  0  0  0  0  0
    3.7521   -0.8664    0.0000 C   0  0  0  0  0  0  0  0  0  0  0  0
    3.5812    0.2707    0.0000 C   0  0  0  0  0  0  0  0  0  0  0  0
    4.2598   -1.6777    0.0000 C   0  0  0  0  0  0  0  0  0  0  0  0
    6.2999   -1.5942    0.0000 C   0  0  0  0  0  0  0  0  0  0  0  0
    2.6992   -1.1290    0.0000 C   0  0  3  0  0  0  0  0  0  0  0  0
    7.4875   -0.4758    0.0000 C   0  0  3  0  0  0  0  0  0  0  0  0
    3.3475   -1.7790    0.0000 C   0  0  0  0  0  0  0  0  0  0  0  0
    7.2160   -1.3784    0.0000 C   0  0  3  0  0  0  0  0  0  0  0  0
    2.8036   -0.2164    0.0000 C   0  0  0  0  0  0  0  0  0  0  0  0
    7.1072    0.8543    0.0000 C   0  0  0  0  0  0  0  0  0  0  0  0
    5.2603    1.5117    0.0000 C   0  0  0  0  0  0  0  0  0  0  0  0
    7.8258    0.3916    0.0000 C   0  0  0  0  0  0  0  0  0  0  0  0
    2.0000    0.3788    0.0000 C   0  0  0  0  0  0  0  0  0  0  0  0
    5.0558   -1.4406    0.0000 H   0  0  0  0  0  0  0  0  0  0  0  0
    6.0411    0.6034    0.0000 H   0  0  0  0  0  0  0  0  0  0  0  0
    4.6335    0.8148    0.0000 H   0  0  0  0  0  0  0  0  0  0  0  0
    3.7092   -1.4849    0.0000 H   0  0  0  0  0  0  0  0  0  0  0  0
    4.3272   -1.0980    0.0000 H   0  0  0  0  0  0  0  0  0  0  0  0
    3.9118    0.7952    0.0000 H   0  0  0  0  0  0  0  0  0  0  0  0
    3.1434    0.7097    0.0000 H   0  0  0  0  0  0  0  0  0  0  0  0
    4.1892   -2.2937    0.0000 H   0  0  0  0  0  0  0  0  0  0  0  0
    4.8446   -1.8836    0.0000 H   0  0  0  0  0  0  0  0  0  0  0  0
    5.7755   -1.9250    0.0000 H   0  0  0  0  0  0  0  0  0  0  0  0
    6.5396   -2.1659    0.0000 H   0  0  0  0  0  0  0  0  0  0  0  0
    2.1137   -1.3329    0.0000 H   0  0  0  0  0  0  0  0  0  0  0  0
    7.9124   -0.9273    0.0000 H   0  0  0  0  0  0  0  0  0  0  0  0
    2.8220   -2.1081    0.0000 H   0  0  0  0  0  0  0  0  0  0  0  0
    3.5514   -2.3645    0.0000 H   0  0  0  0  0  0  0  0  0  0  0  0
    7.0374   -1.9721    0.0000 H   0  0  0  0  0  0  0  0  0  0  0  0
    7.9382   -0.2181    0.0000 H   0  0  0  0  0  0  0  0  0  0  0  0
    8.4356    0.5039    0.0000 H   0  0  0  0  0  0  0  0  0  0  0  0
    7.7135    1.0013    0.0000 H   0  0  0  0  0  0  0  0  0  0  0  0
    2.0704    0.9947    0.0000 H   0  0  0  0  0  0  0  0  0  0  0  0
    1.4313    0.1318    0.0000 H   0  0  0  0  0  0  0  0  0  0  0  0
    8.8858   -0.6978    0.0000 H   0  0  0  0  0  0  0  0  0  0  0  0
    7.7226   -2.7005    0.0000 H   0  0  0  0  0  0  0  0  0  0  0  0
    4.4915    2.7005    0.0000 H   0  0  0  0  0  0  0  0  0  0  0  0
  1  8  1  0  0  0  0
  1 22  1  0  0  0  0
  2 18  1  0  0  0  0
  2 47  1  0  0  0  0
  3 20  1  0  0  0  0
  3 48  1  0  0  0  0
  4 22  2  0  0  0  0
  5 23  1  0  0  0  0
  5 49  1  0  0  0  0
  6 23  2  0  0  0  0
  7  9  1  0  0  0  0
  7 11  1  0  0  0  0
  7 13  1  0  0  0  0
  7 14  1  0  0  0  0
  8  9  1  0  0  0  0
  8 10  1  0  0  0  0
  8 16  1  0  0  0  0
  9 15  1  0  0  0  0
  9 26  1  0  0  0  0
 10 11  1  0  0  0  0
 10 12  1  0  0  0  0
 10 27  1  0  0  0  0
 11 23  1  0  0  0  0
 11 28  1  0  0  0  0
 12 18  1  0  0  0  0
 12 22  1  0  0  0  0
 12 24  1  0  0  0  0
 13 17  1  0  0  0  0
 13 29  1  0  0  0  0
 13 30  1  0  0  0  0
 14 21  1  0  0  0  0
 14 31  1  0  0  0  0
 14 32  1  0  0  0  0
 15 19  1  0  0  0  0
 15 33  1  0  0  0  0
 15 34  1  0  0  0  0
 16 20  1  0  0  0  0
 16 35  1  0  0  0  0
 16 36  1  0  0  0  0
 17 19  1  0  0  0  0
 17 21  1  0  0  0  0
 17 37  1  0  0  0  0
 18 20  1  0  0  0  0
 18 38  1  0  0  0  0
 19 39  1  0  0  0  0
 19 40  1  0  0  0  0
 20 41  1  0  0  0  0
 21 25  2  0  0  0  0
 24 42  1  0  0  0  0
 24 43  1  0  0  0  0
 24 44  1  0  0  0  0
 25 45  1  0  0  0  0
 25 46  1  0  0  0  0
M  END
>  <PUBCHEM_COMPOUND_CID>
14833721

>  <PUBCHEM_COMPOUND_CANONICALIZED>
1

>  <PUBCHEM_CACTVS_COMPLEXITY>
717

>  <PUBCHEM_CACTVS_HBOND_ACCEPTOR>
6

>  <PUBCHEM_CACTVS_HBOND_DONOR>
3

>  <PUBCHEM_CACTVS_ROTATABLE_BOND>
1

>  <PUBCHEM_CACTVS_SUBSKEYS>
AAADceB4OAAAAAAAAAAAAAAAAAAAAaMEAAAwYAAABogSAGDAAAAAGgAACAAAD1SggAICCAAABgCIAgDSCAAAAAAgAAAAAAEAAAgBEBYAAQACQAAFoAABAAHK7vzPgAAAAAAAAADCAAYQADCAAYAADAAAAA==

>  <PUBCHEM_IUPAC_INCHI>
InChI=1S/C19H24O6/c1-8-5-18-6-9(8)3-4-11(18)19-7-10(20)14(21)17(2,16(24)25-19)13(19)12(18)15(22)23/h9-14,20-21H,1,3-7H2,2H3,(H,22,23)

>  <PUBCHEM_IUPAC_INCHIKEY>
IGZIQAJJXGRAJF-UHFFFAOYSA-N

>  <PUBCHEM_XLOGP3_AA>
0.7

>  <PUBCHEM_EXACT_MASS>
348.157

>  <PUBCHEM_MOLECULAR_FORMULA>
C19H24O6

>  <PUBCHEM_MOLECULAR_WEIGHT>
348.395

>  <PUBCHEM_OPENEYE_CAN_SMILES>
CC12C3C(C45CC(CCC4C3(CC(C1O)O)OC2=O)C(=C)C5)C(=O)O

>  <PUBCHEM_OPENEYE_ISO_SMILES>
CC12C3C(C45CC(CCC4C3(CC(C1O)O)OC2=O)C(=C)C5)C(=O)O

>  <PUBCHEM_CACTVS_TPSA>
104

>  <PUBCHEM_MONOISOTOPIC_WEIGHT>
348.157

>  <PUBCHEM_TOTAL_CHARGE>
0

>  <PUBCHEM_HEAVY_ATOM_COUNT>
25

>  <PUBCHEM_ATOM_DEF_STEREO_COUNT>
0

>  <PUBCHEM_ATOM_UDEF_STEREO_COUNT>
9

>  <PUBCHEM_BOND_DEF_STEREO_COUNT>
0

>  <PUBCHEM_BOND_UDEF_STEREO_COUNT>
0

>  <PUBCHEM_ISOTOPIC_ATOM_COUNT>
0

>  <PUBCHEM_COMPONENT_COUNT>
1

>  <PUBCHEM_CACTVS_TAUTO_COUNT>
1

>  <PUBCHEM_COORDINATE_TYPE>
1
5
255

>  <PUBCHEM_BONDANNOTATIONS>
10  11  3
11  23  3
12  24  3
17  13  3
18  2  3
20  3  3
7  13  3
8  16  3
9  15  3

$$$$
