14841185
 OpenBabel06101807152D

 57 62  0  0  1  0  0  0  0  0999 V2000
    8.6975   -2.4944    0.0000 O   0  0  0  0  0  0  0  0  0  0  0  0
    5.9174    0.6611    0.0000 O   0  0  0  0  0  0  0  0  0  0  0  0
    6.8153   -3.9150    0.0000 O   0  0  0  0  0  0  0  0  0  0  0  0
    5.0572   -0.8426    0.0000 O   0  0  0  0  0  0  0  0  0  0  0  0
    8.5812    2.1857    0.0000 O   0  0  0  0  0  0  0  0  0  0  0  0
    3.9787    3.8882    0.0000 O   0  0  0  0  0  0  0  0  0  0  0  0
    7.6999    3.7984    0.0000 O   0  0  0  0  0  0  0  0  0  0  0  0
    8.5594   -0.8457    0.0000 C   0  0  3  0  0  0  0  0  0  0  0  0
    9.1774   -1.6241    0.0000 C   0  0  0  0  0  0  0  0  0  0  0  0
    7.6934   -1.3457    0.0000 C   0  0  0  0  0  0  0  0  0  0  0  0
    8.5594    0.1543    0.0000 C   0  0  0  0  0  0  0  0  0  0  0  0
    7.7095   -2.3872    0.0000 C   0  0  0  0  0  0  0  0  0  0  0  0
    6.8274   -0.8457    0.0000 C   0  0  0  0  0  0  0  0  0  0  0  0
    7.6934    0.6543    0.0000 C   0  0  0  0  0  0  0  0  0  0  0  0
   10.0326   -2.1423    0.0000 C   0  0  0  0  0  0  0  0  0  0  0  0
    9.9345   -0.9708    0.0000 C   0  0  0  0  0  0  0  0  0  0  0  0
    6.8274    0.1543    0.0000 C   0  0  0  0  0  0  0  0  0  0  0  0
    6.8114   -2.9150    0.0000 C   0  0  0  0  0  0  0  0  0  0  0  0
    5.9174   -1.3526    0.0000 C   0  0  0  0  0  0  0  0  0  0  0  0
    7.7095    1.6958    0.0000 C   0  0  0  0  0  0  0  0  0  0  0  0
    5.9094   -2.3942    0.0000 C   0  0  0  0  0  0  0  0  0  0  0  0
    6.8114    2.2235    0.0000 C   0  0  0  0  0  0  0  0  0  0  0  0
    5.9094    1.7027    0.0000 C   0  0  0  0  0  0  0  0  0  0  0  0
    4.9615    2.2307    0.0000 C   0  0  0  0  0  0  0  0  0  0  0  0
    6.8282    3.3084    0.0000 C   0  0  0  0  0  0  0  0  0  0  0  0
    4.9531    3.3156    0.0000 C   0  0  0  0  0  0  0  0  0  0  0  0
    3.0000    3.3232    0.0000 C   0  0  0  0  0  0  0  0  0  0  0  0
    5.8927    3.8581    0.0000 C   0  0  0  0  0  0  0  0  0  0  0  0
    3.9960    1.6431    0.0000 C   0  0  0  0  0  0  0  0  0  0  0  0
    3.0087    2.1930    0.0000 C   0  0  0  0  0  0  0  0  0  0  0  0
    5.9512   -4.4183    0.0000 C   0  0  0  0  0  0  0  0  0  0  0  0
    2.0000    3.3193    0.0000 C   0  0  0  0  0  0  0  0  0  0  0  0
    2.4967    4.1872    0.0000 C   0  0  0  0  0  0  0  0  0  0  0  0
    9.1449   -0.6416    0.0000 H   0  0  0  0  0  0  0  0  0  0  0  0
    9.1700    0.0466    0.0000 H   0  0  0  0  0  0  0  0  0  0  0  0
    8.7715    0.7369    0.0000 H   0  0  0  0  0  0  0  0  0  0  0  0
    9.7113   -2.6726    0.0000 H   0  0  0  0  0  0  0  0  0  0  0  0
   10.5629   -2.4636    0.0000 H   0  0  0  0  0  0  0  0  0  0  0  0
   10.3539   -1.6120    0.0000 H   0  0  0  0  0  0  0  0  0  0  0  0
   10.3395   -1.4403    0.0000 H   0  0  0  0  0  0  0  0  0  0  0  0
   10.4039   -0.5658    0.0000 H   0  0  0  0  0  0  0  0  0  0  0  0
    9.5295   -0.5014    0.0000 H   0  0  0  0  0  0  0  0  0  0  0  0
    5.3712   -2.7021    0.0000 H   0  0  0  0  0  0  0  0  0  0  0  0
    4.5167   -1.1464    0.0000 H   0  0  0  0  0  0  0  0  0  0  0  0
    5.8951    4.4781    0.0000 H   0  0  0  0  0  0  0  0  0  0  0  0
    4.0080    1.0232    0.0000 H   0  0  0  0  0  0  0  0  0  0  0  0
    2.4754    1.8768    0.0000 H   0  0  0  0  0  0  0  0  0  0  0  0
    5.6391   -3.8826    0.0000 H   0  0  0  0  0  0  0  0  0  0  0  0
    5.4155   -4.7304    0.0000 H   0  0  0  0  0  0  0  0  0  0  0  0
    6.2633   -4.9540    0.0000 H   0  0  0  0  0  0  0  0  0  0  0  0
    1.9976    3.9393    0.0000 H   0  0  0  0  0  0  0  0  0  0  0  0
    3.0324    4.4993    0.0000 H   0  0  0  0  0  0  0  0  0  0  0  0
    2.1846    4.7230    0.0000 H   0  0  0  0  0  0  0  0  0  0  0  0
    1.9609    3.8752    0.0000 H   0  0  0  0  0  0  0  0  0  0  0  0
    1.3800    3.3169    0.0000 H   0  0  0  0  0  0  0  0  0  0  0  0
    2.0024    2.6993    0.0000 H   0  0  0  0  0  0  0  0  0  0  0  0
    7.7071    4.4183    0.0000 H   0  0  0  0  0  0  0  0  0  0  0  0
  1  9  1  0  0  0  0
  1 12  1  0  0  0  0
  2 17  1  0  0  0  0
  2 23  1  0  0  0  0
  3 18  1  0  0  0  0
  3 31  1  0  0  0  0
  4 19  1  0  0  0  0
  4 44  1  0  0  0  0
  5 20  2  0  0  0  0
  6 26  1  0  0  0  0
  6 27  1  0  0  0  0
  7 25  1  0  0  0  0
  7 57  1  0  0  0  0
  8  9  1  0  0  0  0
  8 10  1  0  0  0  0
  8 11  1  0  0  0  0
  8 34  1  0  0  0  0
  9 15  1  0  0  0  0
  9 16  1  0  0  0  0
 10 12  1  0  0  0  0
 10 13  2  0  0  0  0
 11 14  1  0  0  0  0
 11 35  1  0  0  0  0
 11 36  1  0  0  0  0
 12 18  2  0  0  0  0
 13 17  1  0  0  0  0
 13 19  1  0  0  0  0
 14 17  2  0  0  0  0
 14 20  1  0  0  0  0
 15 37  1  0  0  0  0
 15 38  1  0  0  0  0
 15 39  1  0  0  0  0
 16 40  1  0  0  0  0
 16 41  1  0  0  0  0
 16 42  1  0  0  0  0
 18 21  1  0  0  0  0
 19 21  2  0  0  0  0
 20 22  1  0  0  0  0
 21 43  1  0  0  0  0
 22 23  2  0  0  0  0
 22 25  1  0  0  0  0
 23 24  1  0  0  0  0
 24 26  2  0  0  0  0
 24 29  1  0  0  0  0
 25 28  2  0  0  0  0
 26 28  1  0  0  0  0
 27 30  1  0  0  0  0
 27 32  1  0  0  0  0
 27 33  1  0  0  0  0
 28 45  1  0  0  0  0
 29 30  2  0  0  0  0
 29 46  1  0  0  0  0
 30 47  1  0  0  0  0
 31 48  1  0  0  0  0
 31 49  1  0  0  0  0
 31 50  1  0  0  0  0
 32 51  1  0  0  0  0
 32 55  1  0  0  0  0
 32 56  1  0  0  0  0
 33 52  1  0  0  0  0
 33 53  1  0  0  0  0
 33 54  1  0  0  0  0
M  END
>  <PUBCHEM_COMPOUND_CID>
14841185

>  <PUBCHEM_COMPOUND_CANONICALIZED>
1

>  <PUBCHEM_CACTVS_COMPLEXITY>
920

>  <PUBCHEM_CACTVS_HBOND_ACCEPTOR>
7

>  <PUBCHEM_CACTVS_HBOND_DONOR>
2

>  <PUBCHEM_CACTVS_ROTATABLE_BOND>
1

>  <PUBCHEM_CACTVS_SUBSKEYS>
AAADceB4OAAAAAAAAAAAAAAAAAAAASAAAAAwYIECAAAAAEiRQAAAGgAACAAADUSAmAIyBoAABgCIAqBSAAACCAAkIAAIiAEGiMgNJzaGNBqCeWKl4BUKuQfI7PzOoQADCAAYQABCAAYQADCAAAAAAAAAAA==

>  <PUBCHEM_IUPAC_INCHI>
InChI=1S/C26H24O7/c1-25(2)7-6-11-16(32-25)9-15(28)20-21(29)12-8-13-18-19(23(12)31-22(11)20)14(27)10-17(30-5)24(18)33-26(13,3)4/h6-7,9-10,13,27-28H,8H2,1-5H3

>  <PUBCHEM_IUPAC_INCHIKEY>
HKEMUQOOVFTSNA-UHFFFAOYSA-N

>  <PUBCHEM_XLOGP3_AA>
4.4

>  <PUBCHEM_EXACT_MASS>
448.152

>  <PUBCHEM_MOLECULAR_FORMULA>
C26H24O7

>  <PUBCHEM_MOLECULAR_WEIGHT>
448.471

>  <PUBCHEM_OPENEYE_CAN_SMILES>
CC1(C=CC2=C3C(=C(C=C2O1)O)C(=O)C4=C(O3)C5=C6C(C4)C(OC6=C(C=C5O)OC)(C)C)C

>  <PUBCHEM_OPENEYE_ISO_SMILES>
CC1(C=CC2=C3C(=C(C=C2O1)O)C(=O)C4=C(O3)C5=C6C(C4)C(OC6=C(C=C5O)OC)(C)C)C

>  <PUBCHEM_CACTVS_TPSA>
94.4

>  <PUBCHEM_MONOISOTOPIC_WEIGHT>
448.152

>  <PUBCHEM_TOTAL_CHARGE>
0

>  <PUBCHEM_HEAVY_ATOM_COUNT>
33

>  <PUBCHEM_ATOM_DEF_STEREO_COUNT>
0

>  <PUBCHEM_ATOM_UDEF_STEREO_COUNT>
1

>  <PUBCHEM_BOND_DEF_STEREO_COUNT>
0

>  <PUBCHEM_BOND_UDEF_STEREO_COUNT>
0

>  <PUBCHEM_ISOTOPIC_ATOM_COUNT>
0

>  <PUBCHEM_COMPONENT_COUNT>
1

>  <PUBCHEM_CACTVS_TAUTO_COUNT>
69

>  <PUBCHEM_COORDINATE_TYPE>
1
5
255

>  <PUBCHEM_BONDANNOTATIONS>
10  12  8
10  13  8
12  18  8
13  19  8
14  17  8
14  20  8
18  21  8
19  21  8
2  17  8
2  23  8
20  22  8
22  23  8
22  25  8
23  24  8
24  26  8
25  28  8
26  28  8
8  11  3

$$$$
