14841175
 OpenBabel06101807152D

 83 90  0  0  1  0  0  0  0  0999 V2000
    8.4934    1.5265    0.0000 O   0  0  0  0  0  0  0  0  0  0  0  0
    7.6968    3.6862    0.0000 O   0  0  0  0  0  0  0  0  0  0  0  0
    5.0286    1.6399    0.0000 O   0  0  0  0  0  0  0  0  0  0  0  0
    7.0834   -1.6198    0.0000 O   0  0  0  0  0  0  0  0  0  0  0  0
    9.1968    2.8202    0.0000 O   0  0  0  0  0  0  0  0  0  0  0  0
    8.6968    5.4183    0.0000 O   0  0  0  0  0  0  0  0  0  0  0  0
    8.1798   -4.1842    0.0000 O   0  0  0  0  0  0  0  0  0  0  0  0
    6.0846   -1.5745    0.0000 O   0  0  0  0  0  0  0  0  0  0  0  0
   10.6968    5.4183    0.0000 O   0  0  0  0  0  0  0  0  0  0  0  0
   10.6934   -1.3503    0.0000 O   0  0  0  0  0  0  0  0  0  0  0  0
   11.6968    3.6862    0.0000 O   0  0  0  0  0  0  0  0  0  0  0  0
    2.5863   -1.0342    0.0000 O   0  0  0  0  0  0  0  0  0  0  0  0
    4.0107    4.2871    0.0000 O   0  0  0  0  0  0  0  0  0  0  0  0
    5.4249    5.7013    0.0000 O   0  0  0  0  0  0  0  0  0  0  0  0
    5.5879   -5.7990    0.0000 O   0  0  0  0  0  0  0  0  0  0  0  0
    3.8006   -4.9015    0.0000 O   0  0  0  0  0  0  0  0  0  0  0  0
    7.1968    2.8202    0.0000 C   0  0  1  0  0  0  0  0  0  0  0  0
    6.7190    0.8717    0.0000 C   0  0  2  0  0  0  0  0  0  0  0  0
    6.4602    1.8376    0.0000 C   0  0  1  0  0  0  0  0  0  0  0  0
    7.9400    0.0060    0.0000 C   0  0  0  0  0  0  0  0  0  0  0  0
    5.4473    0.0770    0.0000 C   0  0  0  0  0  0  0  0  0  0  0  0
    8.7691    0.5652    0.0000 C   0  0  0  0  0  0  0  0  0  0  0  0
    7.9967   -1.0341    0.0000 C   0  0  0  0  0  0  0  0  0  0  0  0
    4.6702    0.7064    0.0000 C   0  0  0  0  0  0  0  0  0  0  0  0
    6.2014    2.8035    0.0000 C   0  0  0  0  0  0  0  0  0  0  0  0
    8.6968    3.6862    0.0000 C   0  0  2  0  0  0  0  0  0  0  0  0
    8.9293   -1.4979    0.0000 C   0  0  0  0  0  0  0  0  0  0  0  0
    9.1968    4.5523    0.0000 C   0  0  1  0  0  0  0  0  0  0  0  0
    9.0134   -2.5796    0.0000 C   0  0  0  0  0  0  0  0  0  0  0  0
    9.7122    0.1231    0.0000 C   0  0  0  0  0  0  0  0  0  0  0  0
    8.1139   -3.1864    0.0000 C   0  0  2  0  0  0  0  0  0  0  0  0
    5.3003   -0.9542    0.0000 C   0  0  0  0  0  0  0  0  0  0  0  0
    7.1424   -2.7032    0.0000 C   0  0  1  0  0  0  0  0  0  0  0  0
   10.1968    4.5523    0.0000 C   0  0  2  0  0  0  0  0  0  0  0  0
    9.7929   -0.9154    0.0000 C   0  0  0  0  0  0  0  0  0  0  0  0
   10.6968    3.6862    0.0000 C   0  0  2  0  0  0  0  0  0  0  0  0
    3.6921    0.3481    0.0000 C   0  0  0  0  0  0  0  0  0  0  0  0
    5.2355    3.0623    0.0000 C   0  0  0  0  0  0  0  0  0  0  0  0
    6.9085    3.5106    0.0000 C   0  0  0  0  0  0  0  0  0  0  0  0
   10.1968    2.8202    0.0000 C   0  0  0  0  0  0  0  0  0  0  0  0
    4.3307   -1.3349    0.0000 C   0  0  0  0  0  0  0  0  0  0  0  0
    3.5212   -0.6794    0.0000 C   0  0  0  0  0  0  0  0  0  0  0  0
    6.3069   -3.2528    0.0000 C   0  0  0  0  0  0  0  0  0  0  0  0
    4.9766    4.0283    0.0000 C   0  0  0  0  0  0  0  0  0  0  0  0
    6.6497    4.4766    0.0000 C   0  0  0  0  0  0  0  0  0  0  0  0
    5.6838    4.7354    0.0000 C   0  0  0  0  0  0  0  0  0  0  0  0
    6.3651   -4.2511    0.0000 C   0  0  0  0  0  0  0  0  0  0  0  0
    5.4133   -2.8041    0.0000 C   0  0  0  0  0  0  0  0  0  0  0  0
    5.5297   -4.8007    0.0000 C   0  0  0  0  0  0  0  0  0  0  0  0
    4.5778   -3.3536    0.0000 C   0  0  0  0  0  0  0  0  0  0  0  0
    4.6360   -4.3519    0.0000 C   0  0  0  0  0  0  0  0  0  0  0  0
    6.6794    3.1618    0.0000 H   0  0  0  0  0  0  0  0  0  0  0  0
    6.9390    0.0506    0.0000 H   0  0  0  0  0  0  0  0  0  0  0  0
    8.3868    4.2232    0.0000 H   0  0  0  0  0  0  0  0  0  0  0  0
    9.5068    5.0892    0.0000 H   0  0  0  0  0  0  0  0  0  0  0  0
    9.6142   -2.4266    0.0000 H   0  0  0  0  0  0  0  0  0  0  0  0
    9.2670   -3.1454    0.0000 H   0  0  0  0  0  0  0  0  0  0  0  0
   10.2222    0.4757    0.0000 H   0  0  0  0  0  0  0  0  0  0  0  0
    8.6706   -3.4592    0.0000 H   0  0  0  0  0  0  0  0  0  0  0  0
    7.1797   -3.3221    0.0000 H   0  0  0  0  0  0  0  0  0  0  0  0
   10.8168    4.5523    0.0000 H   0  0  0  0  0  0  0  0  0  0  0  0
   11.0068    3.1493    0.0000 H   0  0  0  0  0  0  0  0  0  0  0  0
    3.2148    0.7438    0.0000 H   0  0  0  0  0  0  0  0  0  0  0  0
    4.7970    2.6239    0.0000 H   0  0  0  0  0  0  0  0  0  0  0  0
    7.5074    3.3502    0.0000 H   0  0  0  0  0  0  0  0  0  0  0  0
   10.7794    2.6082    0.0000 H   0  0  0  0  0  0  0  0  0  0  0  0
   10.0892    2.2096    0.0000 H   0  0  0  0  0  0  0  0  0  0  0  0
    4.2361   -1.9477    0.0000 H   0  0  0  0  0  0  0  0  0  0  0  0
    7.0881    4.9150    0.0000 H   0  0  0  0  0  0  0  0  0  0  0  0
    9.0068    5.9552    0.0000 H   0  0  0  0  0  0  0  0  0  0  0  0
    8.7360   -4.4581    0.0000 H   0  0  0  0  0  0  0  0  0  0  0  0
    5.9947   -2.1879    0.0000 H   0  0  0  0  0  0  0  0  0  0  0  0
   11.3168    5.4183    0.0000 H   0  0  0  0  0  0  0  0  0  0  0  0
   11.2060   -1.0017    0.0000 H   0  0  0  0  0  0  0  0  0  0  0  0
   12.0068    3.1493    0.0000 H   0  0  0  0  0  0  0  0  0  0  0  0
    6.9192   -4.5293    0.0000 H   0  0  0  0  0  0  0  0  0  0  0  0
    5.3772   -2.1851    0.0000 H   0  0  0  0  0  0  0  0  0  0  0  0
    2.1060   -0.6422    0.0000 H   0  0  0  0  0  0  0  0  0  0  0  0
    4.0237   -3.0754    0.0000 H   0  0  0  0  0  0  0  0  0  0  0  0
    3.8502    4.8860    0.0000 H   0  0  0  0  0  0  0  0  0  0  0  0
    5.8633    6.1397    0.0000 H   0  0  0  0  0  0  0  0  0  0  0  0
    5.0699   -6.1397    0.0000 H   0  0  0  0  0  0  0  0  0  0  0  0
    3.2465   -4.6233    0.0000 H   0  0  0  0  0  0  0  0  0  0  0  0
  1 19  1  0  0  0  0
  1 22  1  0  0  0  0
  3 19  1  0  0  0  0
  3 24  1  0  0  0  0
  4 23  1  0  0  0  0
  4 33  1  0  0  0  0
  5 26  1  0  0  0  0
  5 40  1  0  0  0  0
  6 70  1  0  0  0  0
  7 71  1  0  0  0  0
  8 32  1  0  0  0  0
  8 72  1  0  0  0  0
  9 73  1  0  0  0  0
 10 35  1  0  0  0  0
 10 74  1  0  0  0  0
 11 75  1  0  0  0  0
 12 42  1  0  0  0  0
 12 78  1  0  0  0  0
 13 44  1  0  0  0  0
 13 80  1  0  0  0  0
 14 46  1  0  0  0  0
 14 81  1  0  0  0  0
 15 49  1  0  0  0  0
 15 82  1  0  0  0  0
 16 51  1  0  0  0  0
 16 83  1  0  0  0  0
 17  2  1  0  0  0  0
 17 18  1  6  0  0  0
 17 52  1  0  0  0  0
 18 20  1  0  0  0  0
 18 21  1  0  0  0  0
 18 53  1  1  0  0  0
 19 17  1  1  0  0  0
 19 25  1  0  0  0  0
 20 22  2  0  0  0  0
 20 23  1  0  0  0  0
 21 24  1  0  0  0  0
 21 32  2  0  0  0  0
 22 30  1  0  0  0  0
 23 27  2  0  0  0  0
 24 37  2  0  0  0  0
 25 38  2  0  0  0  0
 25 39  1  0  0  0  0
 26  2  1  0  0  0  0
 26 28  1  1  0  0  0
 26 54  1  0  0  0  0
 27 29  1  0  0  0  0
 27 35  1  0  0  0  0
 28  6  1  0  0  0  0
 28 34  1  6  0  0  0
 28 55  1  0  0  0  0
 29 31  1  0  0  0  0
 29 56  1  0  0  0  0
 29 57  1  0  0  0  0
 30 35  2  0  0  0  0
 30 58  1  0  0  0  0
 31  7  1  0  0  0  0
 31 33  1  6  0  0  0
 31 59  1  0  0  0  0
 32 41  1  0  0  0  0
 33 43  1  0  0  0  0
 33 60  1  6  0  0  0
 34  9  1  0  0  0  0
 34 36  1  1  0  0  0
 34 61  1  0  0  0  0
 36 11  1  0  0  0  0
 36 40  1  0  0  0  0
 36 62  1  6  0  0  0
 37 42  1  0  0  0  0
 37 63  1  0  0  0  0
 38 44  1  0  0  0  0
 38 64  1  0  0  0  0
 39 45  2  0  0  0  0
 39 65  1  0  0  0  0
 40 66  1  0  0  0  0
 40 67  1  0  0  0  0
 41 42  2  0  0  0  0
 41 68  1  0  0  0  0
 43 47  2  0  0  0  0
 43 48  1  0  0  0  0
 44 46  2  0  0  0  0
 45 46  1  0  0  0  0
 45 69  1  0  0  0  0
 47 49  1  0  0  0  0
 47 76  1  0  0  0  0
 48 50  2  0  0  0  0
 48 77  1  0  0  0  0
 49 51  2  0  0  0  0
 50 51  1  0  0  0  0
 50 79  1  0  0  0  0
M  END
>  <PUBCHEM_COMPOUND_CID>
14841175

>  <PUBCHEM_COMPOUND_CANONICALIZED>
1

>  <PUBCHEM_CACTVS_COMPLEXITY>
1230

>  <PUBCHEM_CACTVS_HBOND_ACCEPTOR>
16

>  <PUBCHEM_CACTVS_HBOND_DONOR>
11

>  <PUBCHEM_CACTVS_ROTATABLE_BOND>
4

>  <PUBCHEM_CACTVS_SUBSKEYS>
AAADcfB8PgAAAAAAAAAAAAAAAAAAAAAAAAA0aNGiAAASAACRVAAAGgAACAAADRSwmAMwDoAABgCAAiBCAAACCAAgIAAIiAAGiIgdNyKGMRqieCGlwBUPuAfA4PwOoAADCAAIQABAAAYQABCAAAAAAAAAAA==

>  <PUBCHEM_IUPAC_INCHI>
InChI=1S/C35H32O16/c36-14-7-21(42)26-24(8-14)50-35(13-2-4-17(38)20(41)6-13)33(49-34-30(46)29(45)23(44)11-47-34)28(26)27-25(51-35)10-18(39)15-9-22(43)31(48-32(15)27)12-1-3-16(37)19(40)5-12/h1-8,10,22-23,28-31,33-34,36-46H,9,11H2/t22-,23+,28+,29+,30-,31-,33+,34+,35-/m1/s1

>  <PUBCHEM_IUPAC_INCHIKEY>
SFVJFSIQKBXNPZ-MIWZTYSMSA-N

>  <PUBCHEM_XLOGP3_AA>
0.9

>  <PUBCHEM_EXACT_MASS>
708.169

>  <PUBCHEM_MOLECULAR_FORMULA>
C35H32O16

>  <PUBCHEM_MOLECULAR_WEIGHT>
708.625

>  <PUBCHEM_OPENEYE_CAN_SMILES>
C1C(C(OC2=C3C4C(C(OC5=CC(=CC(=C45)O)O)(OC3=CC(=C21)O)C6=CC(=C(C=C6)O)O)OC7C(C(C(CO7)O)O)O)C8=CC(=C(C=C8)O)O)O

>  <PUBCHEM_OPENEYE_ISO_SMILES>
C1[C@H]([C@H](OC2=C3[C@H]4[C@@H]([C@](OC5=CC(=CC(=C45)O)O)(OC3=CC(=C21)O)C6=CC(=C(C=C6)O)O)O[C@H]7[C@@H]([C@H]([C@H](CO7)O)O)O)C8=CC(=C(C=C8)O)O)O

>  <PUBCHEM_CACTVS_TPSA>
269

>  <PUBCHEM_MONOISOTOPIC_WEIGHT>
708.169

>  <PUBCHEM_TOTAL_CHARGE>
0

>  <PUBCHEM_HEAVY_ATOM_COUNT>
51

>  <PUBCHEM_ATOM_DEF_STEREO_COUNT>
9

>  <PUBCHEM_ATOM_UDEF_STEREO_COUNT>
0

>  <PUBCHEM_BOND_DEF_STEREO_COUNT>
0

>  <PUBCHEM_BOND_UDEF_STEREO_COUNT>
0

>  <PUBCHEM_ISOTOPIC_ATOM_COUNT>
0

>  <PUBCHEM_COMPONENT_COUNT>
1

>  <PUBCHEM_CACTVS_TAUTO_COUNT>
918

>  <PUBCHEM_COORDINATE_TYPE>
1
5
255

>  <PUBCHEM_BONDANNOTATIONS>
36  11  5
18  53  5
19  25  6
17  2  5
26  2  5
20  22  8
20  23  8
21  24  8
21  32  8
22  30  8
23  27  8
24  37  8
25  38  8
25  39  8
27  35  8
30  35  8
32  41  8
33  43  5
37  42  8
38  44  8
39  45  8
41  42  8
43  47  8
43  48  8
44  46  8
45  46  8
47  49  8
48  50  8
49  51  8
50  51  8
28  6  6
31  7  5
34  9  5

$$$$
