14861214
 OpenBabel06101807152D

 98103  0  0  1  0  0  0  0  0999 V2000
    6.8671   -2.7787    0.0000 O   0  0  0  0  0  0  0  0  0  0  0  0
    7.7331   -0.2787    0.0000 O   0  0  0  0  0  0  0  0  0  0  0  0
    5.1350   -2.7787    0.0000 O   0  0  0  0  0  0  0  0  0  0  0  0
    8.5991   -1.7787    0.0000 O   0  0  0  0  0  0  0  0  0  0  0  0
    5.1350   -1.7787    0.0000 O   0  0  0  0  0  0  0  0  0  0  0  0
    5.1350    0.2213    0.0000 O   0  0  0  0  0  0  0  0  0  0  0  0
    6.8671   -4.7787    0.0000 O   0  0  0  0  0  0  0  0  0  0  0  0
    5.1350   -5.7787    0.0000 O   0  0  0  0  0  0  0  0  0  0  0  0
    3.4030   -4.7787    0.0000 O   0  0  0  0  0  0  0  0  0  0  0  0
   10.2920    3.2627    0.0000 O   0  0  0  0  0  0  0  0  0  0  0  0
    6.0010    1.7213    0.0000 O   0  0  0  0  0  0  0  0  0  0  0  0
    9.4434    1.7528    0.0000 O   0  0  0  0  0  0  0  0  0  0  0  0
    2.5369   -3.2787    0.0000 O   0  0  0  0  0  0  0  0  0  0  0  0
    7.6767    4.7325    0.0000 O   0  0  0  0  0  0  0  0  0  0  0  0
    9.3971    5.7525    0.0000 O   0  0  0  0  0  0  0  0  0  0  0  0
    7.6999    2.7327    0.0000 O   0  0  0  0  0  0  0  0  0  0  0  0
   11.1972   -1.2787    0.0000 O   0  3  0  0  0  0  0  0  0  0  0  0
   11.1290    5.7725    0.0000 O   0  0  0  0  0  0  0  0  0  0  0  0
   12.9832    1.7664    0.0000 O   0  0  0  0  0  0  0  0  0  0  0  0
   12.0632   -4.7787    0.0000 O   0  0  0  0  0  0  0  0  0  0  0  0
   10.3312   -5.7787    0.0000 O   0  0  0  0  0  0  0  0  0  0  0  0
    6.8671   -1.7787    0.0000 C   0  0  2  0  0  0  0  0  0  0  0  0
    6.0010   -1.2787    0.0000 C   0  0  2  0  0  0  0  0  0  0  0  0
    6.0010   -0.2787    0.0000 C   0  0  1  0  0  0  0  0  0  0  0  0
    6.0010   -3.2787    0.0000 C   0  0  2  0  0  0  0  0  0  0  0  0
    7.7331   -1.2787    0.0000 C   0  0  1  0  0  0  0  0  0  0  0  0
    6.0010   -4.2787    0.0000 C   0  0  1  0  0  0  0  0  0  0  0  0
    6.8671    0.2213    0.0000 C   0  0  1  0  0  0  0  0  0  0  0  0
    5.1350   -4.7787    0.0000 C   0  0  2  0  0  0  0  0  0  0  0  0
    4.2690   -4.2787    0.0000 C   0  0  1  0  0  0  0  0  0  0  0  0
    4.2690   -3.2787    0.0000 C   0  0  1  0  0  0  0  0  0  0  0  0
    6.8671    1.2213    0.0000 C   0  0  0  0  0  0  0  0  0  0  0  0
    3.4030   -2.7787    0.0000 C   0  0  0  0  0  0  0  0  0  0  0  0
    8.5485    4.2426    0.0000 C   0  0  1  0  0  0  0  0  0  0  0  0
    9.4087    4.7526    0.0000 C   0  0  1  0  0  0  0  0  0  0  0  0
    8.5600    3.2426    0.0000 C   0  0  1  0  0  0  0  0  0  0  0  0
   10.2804    4.2626    0.0000 C   0  0  1  0  0  0  0  0  0  0  0  0
    9.4318    2.7527    0.0000 C   0  0  1  0  0  0  0  0  0  0  0  0
    9.4651   -1.2787    0.0000 C   0  0  0  0  0  0  0  0  0  0  0  0
   11.1406    4.7726    0.0000 C   0  0  0  0  0  0  0  0  0  0  0  0
    9.4651   -0.2787    0.0000 C   0  0  0  0  0  0  0  0  0  0  0  0
   10.3312    0.2213    0.0000 C   0  0  0  0  0  0  0  0  0  0  0  0
   10.3312   -1.7787    0.0000 C   0  0  0  0  0  0  0  0  0  0  0  0
   10.3151    1.2628    0.0000 C   0  0  0  0  0  0  0  0  0  0  0  0
   11.1972   -0.2787    0.0000 C   0  0  0  0  0  0  0  0  0  0  0  0
   10.3312   -2.7787    0.0000 C   0  0  0  0  0  0  0  0  0  0  0  0
   11.2131    1.7906    0.0000 C   0  0  0  0  0  0  0  0  0  0  0  0
   12.1072    0.2281    0.0000 C   0  0  0  0  0  0  0  0  0  0  0  0
   12.1152    1.2697    0.0000 C   0  0  0  0  0  0  0  0  0  0  0  0
   11.1972   -3.2787    0.0000 C   0  0  0  0  0  0  0  0  0  0  0  0
    9.4651   -3.2787    0.0000 C   0  0  0  0  0  0  0  0  0  0  0  0
   11.1972   -4.2787    0.0000 C   0  0  0  0  0  0  0  0  0  0  0  0
    9.4651   -4.2787    0.0000 C   0  0  0  0  0  0  0  0  0  0  0  0
   10.3312   -4.7787    0.0000 C   0  0  0  0  0  0  0  0  0  0  0  0
   12.9292   -4.2787    0.0000 C   0  0  0  0  0  0  0  0  0  0  0  0
    7.4040   -2.0887    0.0000 H   0  0  0  0  0  0  0  0  0  0  0  0
    6.0010   -1.8987    0.0000 H   0  0  0  0  0  0  0  0  0  0  0  0
    6.0010    0.3413    0.0000 H   0  0  0  0  0  0  0  0  0  0  0  0
    6.0010   -2.6587    0.0000 H   0  0  0  0  0  0  0  0  0  0  0  0
    8.2700   -0.9687    0.0000 H   0  0  0  0  0  0  0  0  0  0  0  0
    6.0010   -4.8987    0.0000 H   0  0  0  0  0  0  0  0  0  0  0  0
    7.4040    0.5313    0.0000 H   0  0  0  0  0  0  0  0  0  0  0  0
    4.5981   -5.0887    0.0000 H   0  0  0  0  0  0  0  0  0  0  0  0
    3.7320   -3.9687    0.0000 H   0  0  0  0  0  0  0  0  0  0  0  0
    4.2690   -2.6587    0.0000 H   0  0  0  0  0  0  0  0  0  0  0  0
    7.4776    1.1136    0.0000 H   0  0  0  0  0  0  0  0  0  0  0  0
    7.0791    1.8039    0.0000 H   0  0  0  0  0  0  0  0  0  0  0  0
    3.8015   -2.3038    0.0000 H   0  0  0  0  0  0  0  0  0  0  0  0
    3.0044   -2.3038    0.0000 H   0  0  0  0  0  0  0  0  0  0  0  0
    4.5981   -1.4687    0.0000 H   0  0  0  0  0  0  0  0  0  0  0  0
    8.0152    3.9264    0.0000 H   0  0  0  0  0  0  0  0  0  0  0  0
    8.8682    5.0563    0.0000 H   0  0  0  0  0  0  0  0  0  0  0  0
    9.5101    2.9389    0.0000 H   0  0  0  0  0  0  0  0  0  0  0  0
   10.8209    3.9588    0.0000 H   0  0  0  0  0  0  0  0  0  0  0  0
    5.1350    0.8413    0.0000 H   0  0  0  0  0  0  0  0  0  0  0  0
    8.8985    2.4365    0.0000 H   0  0  0  0  0  0  0  0  0  0  0  0
    6.8671   -5.3987    0.0000 H   0  0  0  0  0  0  0  0  0  0  0  0
    4.5981   -6.0887    0.0000 H   0  0  0  0  0  0  0  0  0  0  0  0
    3.4030   -5.3987    0.0000 H   0  0  0  0  0  0  0  0  0  0  0  0
   11.3594    4.1925    0.0000 H   0  0  0  0  0  0  0  0  0  0  0  0
   11.7499    4.8873    0.0000 H   0  0  0  0  0  0  0  0  0  0  0  0
    6.0010    2.3413    0.0000 H   0  0  0  0  0  0  0  0  0  0  0  0
    8.9282    0.0313    0.0000 H   0  0  0  0  0  0  0  0  0  0  0  0
    2.0000   -2.9687    0.0000 H   0  0  0  0  0  0  0  0  0  0  0  0
    7.6696    5.3525    0.0000 H   0  0  0  0  0  0  0  0  0  0  0  0
    8.8566    6.0563    0.0000 H   0  0  0  0  0  0  0  0  0  0  0  0
    7.1594    3.0364    0.0000 H   0  0  0  0  0  0  0  0  0  0  0  0
   11.2108    2.4106    0.0000 H   0  0  0  0  0  0  0  0  0  0  0  0
   12.6405   -0.0880    0.0000 H   0  0  0  0  0  0  0  0  0  0  0  0
   11.6624    6.0887    0.0000 H   0  0  0  0  0  0  0  0  0  0  0  0
   11.7341   -2.9687    0.0000 H   0  0  0  0  0  0  0  0  0  0  0  0
    8.9282   -2.9687    0.0000 H   0  0  0  0  0  0  0  0  0  0  0  0
    8.9282   -4.5887    0.0000 H   0  0  0  0  0  0  0  0  0  0  0  0
   13.5189    1.4543    0.0000 H   0  0  0  0  0  0  0  0  0  0  0  0
   10.8681   -6.0887    0.0000 H   0  0  0  0  0  0  0  0  0  0  0  0
   13.2392   -4.8156    0.0000 H   0  0  0  0  0  0  0  0  0  0  0  0
   13.4662   -3.9687    0.0000 H   0  0  0  0  0  0  0  0  0  0  0  0
   12.6192   -3.7418    0.0000 H   0  0  0  0  0  0  0  0  0  0  0  0
  2 26  1  0  0  0  0
  2 28  1  0  0  0  0
  3 25  1  0  0  0  0
  3 31  1  0  0  0  0
  4 39  1  0  0  0  0
  5 70  1  0  0  0  0
  6 75  1  0  0  0  0
  7 77  1  0  0  0  0
  8 78  1  0  0  0  0
  9 79  1  0  0  0  0
 10 37  1  0  0  0  0
 10 38  1  0  0  0  0
 11 32  1  0  0  0  0
 11 82  1  0  0  0  0
 12 44  1  0  0  0  0
 13 33  1  0  0  0  0
 13 84  1  0  0  0  0
 14 85  1  0  0  0  0
 15 86  1  0  0  0  0
 16 87  1  0  0  0  0
 17 43  1  0  0  0  0
 17 45  2  0  0  0  0
 18 40  1  0  0  0  0
 18 90  1  0  0  0  0
 19 49  1  0  0  0  0
 19 94  1  0  0  0  0
 20 52  1  0  0  0  0
 20 55  1  0  0  0  0
 21 54  1  0  0  0  0
 21 95  1  0  0  0  0
 22  1  1  0  0  0  0
 22 23  1  1  0  0  0
 22 56  1  0  0  0  0
 23  5  1  0  0  0  0
 23 24  1  6  0  0  0
 23 57  1  0  0  0  0
 24  6  1  0  0  0  0
 24 28  1  6  0  0  0
 24 58  1  0  0  0  0
 25  1  1  0  0  0  0
 25 27  1  6  0  0  0
 25 59  1  0  0  0  0
 26  4  1  0  0  0  0
 26 22  1  6  0  0  0
 26 60  1  0  0  0  0
 27  7  1  0  0  0  0
 27 29  1  6  0  0  0
 27 61  1  0  0  0  0
 28 32  1  0  0  0  0
 28 62  1  6  0  0  0
 29  8  1  0  0  0  0
 29 30  1  1  0  0  0
 29 63  1  0  0  0  0
 30  9  1  0  0  0  0
 30 31  1  6  0  0  0
 30 64  1  0  0  0  0
 31 33  1  0  0  0  0
 31 65  1  6  0  0  0
 32 66  1  0  0  0  0
 32 67  1  0  0  0  0
 33 68  1  0  0  0  0
 33 69  1  0  0  0  0
 34 14  1  0  0  0  0
 34 35  1  6  0  0  0
 34 71  1  0  0  0  0
 35 15  1  0  0  0  0
 35 37  1  1  0  0  0
 35 72  1  0  0  0  0
 36 16  1  0  0  0  0
 36 34  1  1  0  0  0
 36 73  1  0  0  0  0
 37 40  1  0  0  0  0
 37 74  1  6  0  0  0
 38 12  1  0  0  0  0
 38 36  1  1  0  0  0
 38 76  1  0  0  0  0
 39 41  1  0  0  0  0
 39 43  2  0  0  0  0
 40 80  1  0  0  0  0
 40 81  1  0  0  0  0
 41 42  2  0  0  0  0
 41 83  1  0  0  0  0
 42 44  1  0  0  0  0
 42 45  1  0  0  0  0
 43 46  1  0  0  0  0
 44 47  2  0  0  0  0
 45 48  1  0  0  0  0
 46 50  2  0  0  0  0
 46 51  1  0  0  0  0
 47 49  1  0  0  0  0
 47 88  1  0  0  0  0
 48 49  2  0  0  0  0
 48 89  1  0  0  0  0
 50 52  1  0  0  0  0
 50 91  1  0  0  0  0
 51 53  2  0  0  0  0
 51 92  1  0  0  0  0
 52 54  2  0  0  0  0
 53 54  1  0  0  0  0
 53 93  1  0  0  0  0
 55 96  1  0  0  0  0
 55 97  1  0  0  0  0
 55 98  1  0  0  0  0
M  CHG  1  17   1
M  END
>  <PUBCHEM_COMPOUND_CID>
14861214

>  <PUBCHEM_COMPOUND_CANONICALIZED>
1

>  <PUBCHEM_CACTVS_COMPLEXITY>
1210

>  <PUBCHEM_CACTVS_HBOND_ACCEPTOR>
20

>  <PUBCHEM_CACTVS_HBOND_DONOR>
13

>  <PUBCHEM_CACTVS_ROTATABLE_BOND>
11

>  <PUBCHEM_CACTVS_SUBSKEYS>
AAADcfB8PgAAAAAAAAAAAAAAAAAAAAAAAAA0aJEiAAAAAACR9AAAGgAACAAADBSwmAMyDsAABkCIAqBSAAICCAAkIAAIiAFGiMgdNzaGNR6ieWOl4BUPuYfK7PzOIAABCAAIQABAAAIQABCAAAAAAAAAAA==

>  <PUBCHEM_IUPAC_OPENEYE_NAME>
(2S,3R,4S,5S,6R)-2-[(2S,3R,4S,5S,6R)-4,5-dihydroxy-2-[7-hydroxy-2-(4-hydroxy-3-methoxy-phenyl)-5-[(2S,3R,4S,5S,6R)-3,4,5-trihydroxy-6-(hydroxymethyl)tetrahydropyran-2-yl]oxy-chromenylium-3-yl]oxy-6-(hydroxymethyl)tetrahydropyran-3-yl]oxy-6-(hydroxymethyl)tetrahydropyran-3,4,5-triol

>  <PUBCHEM_IUPAC_CAS_NAME>
(2S,3R,4S,5S,6R)-2-[[(2S,3R,4S,5S,6R)-4,5-dihydroxy-2-[[7-hydroxy-2-(4-hydroxy-3-methoxyphenyl)-5-[[(2S,3R,4S,5S,6R)-3,4,5-trihydroxy-6-(hydroxymethyl)-2-oxanyl]oxy]-1-benzopyrylium-3-yl]oxy]-6-(hydroxymethyl)-3-oxanyl]oxy]-6-(hydroxymethyl)oxane-3,4,5-triol

>  <PUBCHEM_IUPAC_NAME>
(2S,3R,4S,5S,6R)-2-[(2S,3R,4S,5S,6R)-4,5-dihydroxy-2-[7-hydroxy-2-(4-hydroxy-3-methoxyphenyl)-5-[(2S,3R,4S,5S,6R)-3,4,5-trihydroxy-6-(hydroxymethyl)oxan-2-yl]oxychromenylium-3-yl]oxy-6-(hydroxymethyl)oxan-3-yl]oxy-6-(hydroxymethyl)oxane-3,4,5-triol

>  <PUBCHEM_IUPAC_SYSTEMATIC_NAME>
(2R,3S,4S,5R,6S)-2-(hydroxymethyl)-6-[(2S,3R,4S,5S,6R)-6-(hydroxymethyl)-2-[5-[(2S,3R,4S,5S,6R)-6-(hydroxymethyl)-3,4,5-tris(oxidanyl)oxan-2-yl]oxy-2-(3-methoxy-4-oxidanyl-phenyl)-7-oxidanyl-chromenylium-3-yl]oxy-4,5-bis(oxidanyl)oxan-3-yl]oxy-oxane-3,4,5-triol

>  <PUBCHEM_IUPAC_TRADITIONAL_NAME>
(2S,3R,4S,5S,6R)-2-[(2S,3R,4S,5S,6R)-4,5-dihydroxy-2-[[7-hydroxy-2-(4-hydroxy-3-methoxy-phenyl)-5-[(2S,3R,4S,5S,6R)-3,4,5-trihydroxy-6-methylol-tetrahydropyran-2-yl]oxy-1-benzopyrylium-3-yl]oxy]-6-methylol-tetrahydropyran-3-yl]oxy-6-methylol-tetrahydropyran-3,4,5-triol

>  <PUBCHEM_IUPAC_INCHI>
InChI=1S/C34H42O21/c1-48-17-4-11(2-3-14(17)39)30-18(7-13-15(49-30)5-12(38)6-16(13)50-32-28(46)25(43)22(40)19(8-35)52-32)51-34-31(27(45)24(42)21(10-37)54-34)55-33-29(47)26(44)23(41)20(9-36)53-33/h2-7,19-29,31-37,40-47H,8-10H2,1H3,(H-,38,39)/p+1/t19-,20-,21-,22-,23-,24-,25+,26+,27+,28-,29-,31-,32-,33+,34-/m1/s1

>  <PUBCHEM_IUPAC_INCHIKEY>
JRZVFIAPPQXNCE-HRTNZEMOSA-O

>  <PUBCHEM_EXACT_MASS>
787.23

>  <PUBCHEM_MOLECULAR_FORMULA>
C34H43O21+

>  <PUBCHEM_MOLECULAR_WEIGHT>
787.697

>  <PUBCHEM_OPENEYE_CAN_SMILES>
COC1=C(C=CC(=C1)C2=C(C=C3C(=CC(=CC3=[O+]2)O)OC4C(C(C(C(O4)CO)O)O)O)OC5C(C(C(C(O5)CO)O)O)OC6C(C(C(C(O6)CO)O)O)O)O

>  <PUBCHEM_OPENEYE_ISO_SMILES>
COC1=C(C=CC(=C1)C2=C(C=C3C(=CC(=CC3=[O+]2)O)O[C@H]4[C@@H]([C@H]([C@@H]([C@H](O4)CO)O)O)O)O[C@H]5[C@@H]([C@H]([C@@H]([C@H](O5)CO)O)O)O[C@H]6[C@@H]([C@H]([C@@H]([C@H](O6)CO)O)O)O)O

>  <PUBCHEM_CACTVS_TPSA>
329

>  <PUBCHEM_MONOISOTOPIC_WEIGHT>
787.23

>  <PUBCHEM_TOTAL_CHARGE>
1

>  <PUBCHEM_HEAVY_ATOM_COUNT>
55

>  <PUBCHEM_ATOM_DEF_STEREO_COUNT>
15

>  <PUBCHEM_ATOM_UDEF_STEREO_COUNT>
0

>  <PUBCHEM_BOND_DEF_STEREO_COUNT>
0

>  <PUBCHEM_BOND_UDEF_STEREO_COUNT>
0

>  <PUBCHEM_ISOTOPIC_ATOM_COUNT>
0

>  <PUBCHEM_COMPONENT_COUNT>
1

>  <PUBCHEM_CACTVS_TAUTO_COUNT>
23

>  <PUBCHEM_COORDINATE_TYPE>
1
5
255

>  <PUBCHEM_BONDANNOTATIONS>
22  1  6
25  1  5
38  12  5
34  14  5
35  15  6
36  16  6
17  43  8
17  45  8
28  32  5
31  33  5
37  40  5
39  41  8
39  43  8
26  4  5
41  42  8
42  44  8
42  45  8
44  47  8
45  48  8
46  50  8
46  51  8
47  49  8
48  49  8
23  5  5
50  52  8
51  53  8
52  54  8
53  54  8
24  6  6
27  7  6
29  8  5
30  9  6

$$$$
