14866157
 OpenBabel06101807152D

 40 42  0  0  1  0  0  0  0  0999 V2000
    6.4783   -1.4424    0.0000 O   0  0  0  0  0  0  0  0  0  0  0  0
    4.6660    1.3623    0.0000 O   0  0  0  0  0  0  0  0  0  0  0  0
    8.0619   -0.6377    0.0000 O   0  0  0  0  0  0  0  0  0  0  0  0
    3.8000   -0.1377    0.0000 C   0  0  1  0  0  0  0  0  0  0  0  0
    3.8000   -1.1377    0.0000 C   0  0  1  0  0  0  0  0  0  0  0  0
    2.9061    0.3970    0.0000 C   0  0  2  0  0  0  0  0  0  0  0  0
    4.6660    0.3623    0.0000 C   0  0  1  0  0  0  0  0  0  0  0  0
    4.6660   -1.6377    0.0000 C   0  0  0  0  0  0  0  0  0  0  0  0
    2.9061   -1.6723    0.0000 C   0  0  0  0  0  0  0  0  0  0  0  0
    2.0000   -0.1169    0.0000 C   0  0  0  0  0  0  0  0  0  0  0  0
    5.5321   -1.1377    0.0000 C   0  0  1  0  0  0  0  0  0  0  0  0
    5.5321   -0.1377    0.0000 C   0  0  0  0  0  0  0  0  0  0  0  0
    2.0000   -1.1585    0.0000 C   0  0  0  0  0  0  0  0  0  0  0  0
    3.8000    0.8623    0.0000 C   0  0  0  0  0  0  0  0  0  0  0  0
    2.9176    1.3969    0.0000 C   0  0  0  0  0  0  0  0  0  0  0  0
    6.4783    0.1671    0.0000 C   0  0  0  0  0  0  0  0  0  0  0  0
    7.0619   -0.6377    0.0000 C   0  0  0  0  0  0  0  0  0  0  0  0
    6.7889    1.1176    0.0000 C   0  0  0  0  0  0  0  0  0  0  0  0
    3.8066   -1.9876    0.0000 H   0  0  0  0  0  0  0  0  0  0  0  0
    2.3721    0.7122    0.0000 H   0  0  0  0  0  0  0  0  0  0  0  0
    5.2030    0.6723    0.0000 H   0  0  0  0  0  0  0  0  0  0  0  0
    4.2675   -2.1126    0.0000 H   0  0  0  0  0  0  0  0  0  0  0  0
    5.0646   -2.1126    0.0000 H   0  0  0  0  0  0  0  0  0  0  0  0
    2.5124   -2.1514    0.0000 H   0  0  0  0  0  0  0  0  0  0  0  0
    3.3107   -2.1421    0.0000 H   0  0  0  0  0  0  0  0  0  0  0  0
    1.7909    0.4668    0.0000 H   0  0  0  0  0  0  0  0  0  0  0  0
    1.3891   -0.2229    0.0000 H   0  0  0  0  0  0  0  0  0  0  0  0
    5.6220   -1.9829    0.0000 H   0  0  0  0  0  0  0  0  0  0  0  0
    1.3891   -1.0524    0.0000 H   0  0  0  0  0  0  0  0  0  0  0  0
    1.7909   -1.7422    0.0000 H   0  0  0  0  0  0  0  0  0  0  0  0
    4.4200    0.8623    0.0000 H   0  0  0  0  0  0  0  0  0  0  0  0
    3.8000    1.4823    0.0000 H   0  0  0  0  0  0  0  0  0  0  0  0
    3.1800    0.8623    0.0000 H   0  0  0  0  0  0  0  0  0  0  0  0
    3.5376    1.3898    0.0000 H   0  0  0  0  0  0  0  0  0  0  0  0
    2.9248    2.0169    0.0000 H   0  0  0  0  0  0  0  0  0  0  0  0
    2.2977    1.4041    0.0000 H   0  0  0  0  0  0  0  0  0  0  0  0
    5.2030    1.6723    0.0000 H   0  0  0  0  0  0  0  0  0  0  0  0
    7.3783    0.9250    0.0000 H   0  0  0  0  0  0  0  0  0  0  0  0
    6.9816    1.7069    0.0000 H   0  0  0  0  0  0  0  0  0  0  0  0
    6.1996    1.3102    0.0000 H   0  0  0  0  0  0  0  0  0  0  0  0
  1 11  1  0  0  0  0
  1 17  1  0  0  0  0
  2 37  1  0  0  0  0
  3 17  2  0  0  0  0
  4  5  1  6  0  0  0
  4 14  1  0  0  0  0
  5  8  1  0  0  0  0
  5  9  1  0  0  0  0
  5 19  1  6  0  0  0
  6  4  1  1  0  0  0
  6 10  1  0  0  0  0
  6 15  1  0  0  0  0
  6 20  1  0  0  0  0
  7  2  1  0  0  0  0
  7  4  1  1  0  0  0
  7 12  1  0  0  0  0
  7 21  1  0  0  0  0
  8 11  1  0  0  0  0
  8 22  1  0  0  0  0
  8 23  1  0  0  0  0
  9 13  1  0  0  0  0
  9 24  1  0  0  0  0
  9 25  1  0  0  0  0
 10 13  1  0  0  0  0
 10 26  1  0  0  0  0
 10 27  1  0  0  0  0
 11 12  1  0  0  0  0
 11 28  1  6  0  0  0
 12 16  2  0  0  0  0
 13 29  1  0  0  0  0
 13 30  1  0  0  0  0
 14 31  1  0  0  0  0
 14 32  1  0  0  0  0
 14 33  1  0  0  0  0
 15 34  1  0  0  0  0
 15 35  1  0  0  0  0
 15 36  1  0  0  0  0
 16 17  1  0  0  0  0
 16 18  1  0  0  0  0
 18 38  1  0  0  0  0
 18 39  1  0  0  0  0
 18 40  1  0  0  0  0
M  END
>  <PUBCHEM_COMPOUND_CID>
14866157

>  <PUBCHEM_COMPOUND_CANONICALIZED>
1

>  <PUBCHEM_CACTVS_COMPLEXITY>
426

>  <PUBCHEM_CACTVS_HBOND_ACCEPTOR>
3

>  <PUBCHEM_CACTVS_HBOND_DONOR>
1

>  <PUBCHEM_CACTVS_ROTATABLE_BOND>
0

>  <PUBCHEM_CACTVS_SUBSKEYS>
AAADceBwMAAAAAAAAAAAAAAAAAAAAQAAAAAwYAAAAAAAAEDAAAAAGgAACAAADxSggAICCAAABgCIAgDQCAAAAAAgAAAACAEAAEgAFAIAIAACUAAFgAAIMQOA4PwPgAAAAAAAAABAAAYQADAAAAAAAAAAAA==

>  <PUBCHEM_IUPAC_OPENEYE_NAME>
(4S,4aR,5S,8aR,9aS)-4-hydroxy-3,4a,5-trimethyl-4,5,6,7,8,8a,9,9a-octahydrobenzo[f]benzofuran-2-one

>  <PUBCHEM_IUPAC_CAS_NAME>
(4S,4aR,5S,8aR,9aS)-4-hydroxy-3,4a,5-trimethyl-4,5,6,7,8,8a,9,9a-octahydrobenzo[f]benzofuran-2-one

>  <PUBCHEM_IUPAC_NAME>
(4S,4aR,5S,8aR,9aS)-4-hydroxy-3,4a,5-trimethyl-4,5,6,7,8,8a,9,9a-octahydrobenzo[f][1]benzofuran-2-one

>  <PUBCHEM_IUPAC_SYSTEMATIC_NAME>
(4S,4aR,5S,8aR,9aS)-3,4a,5-trimethyl-4-oxidanyl-4,5,6,7,8,8a,9,9a-octahydrobenzo[f][1]benzofuran-2-one

>  <PUBCHEM_IUPAC_TRADITIONAL_NAME>
(4S,4aR,5S,8aR,9aS)-4-hydroxy-3,4a,5-trimethyl-4,5,6,7,8,8a,9,9a-octahydrobenzo[f]benzofuran-2-one

>  <PUBCHEM_IUPAC_INCHI>
InChI=1S/C15H22O3/c1-8-5-4-6-10-7-11-12(9(2)14(17)18-11)13(16)15(8,10)3/h8,10-11,13,16H,4-7H2,1-3H3/t8-,10+,11-,13+,15+/m0/s1

>  <PUBCHEM_IUPAC_INCHIKEY>
YDCNBSJHGGIZNP-WGGGYHPKSA-N

>  <PUBCHEM_XLOGP3_AA>
2.6

>  <PUBCHEM_EXACT_MASS>
250.157

>  <PUBCHEM_MOLECULAR_FORMULA>
C15H22O3

>  <PUBCHEM_MOLECULAR_WEIGHT>
250.338

>  <PUBCHEM_OPENEYE_CAN_SMILES>
CC1CCCC2C1(C(C3=C(C(=O)OC3C2)C)O)C

>  <PUBCHEM_OPENEYE_ISO_SMILES>
C[C@H]1CCC[C@H]2[C@@]1([C@@H](C3=C(C(=O)O[C@H]3C2)C)O)C

>  <PUBCHEM_CACTVS_TPSA>
46.5

>  <PUBCHEM_MONOISOTOPIC_WEIGHT>
250.157

>  <PUBCHEM_TOTAL_CHARGE>
0

>  <PUBCHEM_HEAVY_ATOM_COUNT>
18

>  <PUBCHEM_ATOM_DEF_STEREO_COUNT>
5

>  <PUBCHEM_ATOM_UDEF_STEREO_COUNT>
0

>  <PUBCHEM_BOND_DEF_STEREO_COUNT>
0

>  <PUBCHEM_BOND_UDEF_STEREO_COUNT>
0

>  <PUBCHEM_ISOTOPIC_ATOM_COUNT>
0

>  <PUBCHEM_COMPONENT_COUNT>
1

>  <PUBCHEM_CACTVS_TAUTO_COUNT>
1

>  <PUBCHEM_COORDINATE_TYPE>
1
5
255

>  <PUBCHEM_BONDANNOTATIONS>
11  28  6
7  2  6
4  14  6
5  19  6
6  15  6

$$$$
