14890508
 OpenBabel06101807152D

103111  0  0  1  0  0  0  0  0999 V2000
    9.5412   -0.8983    0.0000 O   0  0  0  0  0  0  0  0  0  0  0  0
    6.7878   -3.7637    0.0000 O   0  0  0  0  0  0  0  0  0  0  0  0
   11.2732    1.1017    0.0000 O   0  0  0  0  0  0  0  0  0  0  0  0
    8.2175    2.6108    0.0000 O   0  0  0  0  0  0  0  0  0  0  0  0
    5.8158   -1.3029    0.0000 O   0  0  0  0  0  0  0  0  0  0  0  0
    7.4501    2.0800    0.0000 O   0  0  0  0  0  0  0  0  0  0  0  0
    5.8752   -0.4229    0.0000 O   0  0  0  0  0  0  0  0  0  0  0  0
    7.2583    5.1509    0.0000 O   0  0  0  0  0  0  0  0  0  0  0  0
   11.8077    1.8731    0.0000 O   0  0  0  0  0  0  0  0  0  0  0  0
    9.8732   -1.7662    0.0000 O   0  0  0  0  0  0  0  0  0  0  0  0
   10.9093    4.8605    0.0000 O   0  0  0  0  0  0  0  0  0  0  0  0
   10.1108   -4.9554    0.0000 O   0  0  0  0  0  0  0  0  0  0  0  0
   13.8713   -0.3983    0.0000 O   0  0  0  0  0  0  0  0  0  0  0  0
   12.1393   -3.3983    0.0000 O   0  0  0  0  0  0  0  0  0  0  0  0
   13.8713   -2.3983    0.0000 O   0  0  0  0  0  0  0  0  0  0  0  0
    2.8676   -1.8580    0.0000 O   0  0  0  0  0  0  0  0  0  0  0  0
    3.5085   -5.2624    0.0000 O   0  0  0  0  0  0  0  0  0  0  0  0
    2.2053   -3.7452    0.0000 O   0  0  0  0  0  0  0  0  0  0  0  0
    4.2821    4.5758    0.0000 O   0  0  0  0  0  0  0  0  0  0  0  0
    3.6054    2.6939    0.0000 O   0  0  0  0  0  0  0  0  0  0  0  0
    9.5412    1.1017    0.0000 C   0  0  3  0  0  0  0  0  0  0  0  0
   10.4072    0.6017    0.0000 C   0  0  3  0  0  0  0  0  0  0  0  0
    7.4501   -1.8765    0.0000 C   0  0  3  0  0  0  0  0  0  0  0  0
    8.6752    0.6017    0.0000 C   0  0  0  0  0  0  0  0  0  0  0  0
   10.4072   -0.3983    0.0000 C   0  0  3  0  0  0  0  0  0  0  0  0
    8.6752   -0.3983    0.0000 C   0  0  0  0  0  0  0  0  0  0  0  0
    7.7812   -0.9329    0.0000 C   0  0  0  0  0  0  0  0  0  0  0  0
    6.4674   -2.0616    0.0000 C   0  0  3  0  0  0  0  0  0  0  0  0
    9.8832    2.0414    0.0000 C   0  0  0  0  0  0  0  0  0  0  0  0
    6.1363   -3.0052    0.0000 C   0  0  3  0  0  0  0  0  0  0  0  0
    8.1017   -2.6351    0.0000 C   0  0  0  0  0  0  0  0  0  0  0  0
    9.2404    2.8075    0.0000 C   0  0  0  0  0  0  0  0  0  0  0  0
    7.7812    1.1364    0.0000 C   0  0  0  0  0  0  0  0  0  0  0  0
    6.8752   -0.4191    0.0000 C   0  0  0  0  0  0  0  0  0  0  0  0
    9.5824    3.7472    0.0000 C   0  0  0  0  0  0  0  0  0  0  0  0
   11.2732   -0.8983    0.0000 C   0  0  0  0  0  0  0  0  0  0  0  0
    8.9253    4.5553    0.0000 C   0  0  0  0  0  0  0  0  0  0  0  0
    7.7706   -3.5786    0.0000 C   0  0  0  0  0  0  0  0  0  0  0  0
    7.8981    4.3824    0.0000 C   0  0  3  0  0  0  0  0  0  0  0  0
   10.8680    2.2151    0.0000 C   0  0  0  0  0  0  0  0  0  0  0  0
    7.5418    3.4036    0.0000 C   0  0  3  0  0  0  0  0  0  0  0  0
    6.8752    0.6226    0.0000 C   0  0  0  0  0  0  0  0  0  0  0  0
    5.1535   -3.1902    0.0000 C   0  0  0  0  0  0  0  0  0  0  0  0
    9.1222   -2.4266    0.0000 C   0  0  0  0  0  0  0  0  0  0  0  0
   10.5673    3.9208    0.0000 C   0  0  0  0  0  0  0  0  0  0  0  0
   11.2100    3.1548    0.0000 C   0  0  0  0  0  0  0  0  0  0  0  0
   11.2732   -1.8983    0.0000 C   0  0  0  0  0  0  0  0  0  0  0  0
   12.1393   -0.3983    0.0000 C   0  0  0  0  0  0  0  0  0  0  0  0
    8.4370   -4.3792    0.0000 C   0  0  0  0  0  0  0  0  0  0  0  0
    6.5577    3.2261    0.0000 C   0  0  0  0  0  0  0  0  0  0  0  0
    9.8070   -3.2115    0.0000 C   0  0  0  0  0  0  0  0  0  0  0  0
    9.4621   -4.1943    0.0000 C   0  0  0  0  0  0  0  0  0  0  0  0
    4.8224   -4.1338    0.0000 C   0  0  0  0  0  0  0  0  0  0  0  0
    4.5019   -2.4316    0.0000 C   0  0  0  0  0  0  0  0  0  0  0  0
   13.0053   -0.8983    0.0000 C   0  0  0  0  0  0  0  0  0  0  0  0
   12.1393   -2.3983    0.0000 C   0  0  0  0  0  0  0  0  0  0  0  0
    5.9120    3.9897    0.0000 C   0  0  0  0  0  0  0  0  0  0  0  0
   13.0053   -1.8983    0.0000 C   0  0  0  0  0  0  0  0  0  0  0  0
    6.2194    2.2852    0.0000 C   0  0  0  0  0  0  0  0  0  0  0  0
    3.5192   -2.6166    0.0000 C   0  0  0  0  0  0  0  0  0  0  0  0
    3.8397   -4.3188    0.0000 C   0  0  0  0  0  0  0  0  0  0  0  0
    3.1880   -3.5602    0.0000 C   0  0  0  0  0  0  0  0  0  0  0  0
    4.9279    3.8122    0.0000 C   0  0  0  0  0  0  0  0  0  0  0  0
    5.2352    2.1077    0.0000 C   0  0  0  0  0  0  0  0  0  0  0  0
    4.5895    2.8713    0.0000 C   0  0  0  0  0  0  0  0  0  0  0  0
   10.1238    1.3138    0.0000 H   0  0  0  0  0  0  0  0  0  0  0  0
   10.9442    0.2917    0.0000 H   0  0  0  0  0  0  0  0  0  0  0  0
    7.0461   -1.4062    0.0000 H   0  0  0  0  0  0  0  0  0  0  0  0
   10.4072   -1.0183    0.0000 H   0  0  0  0  0  0  0  0  0  0  0  0
    5.8581   -2.1763    0.0000 H   0  0  0  0  0  0  0  0  0  0  0  0
    5.9310   -3.5902    0.0000 H   0  0  0  0  0  0  0  0  0  0  0  0
    9.4662    4.8584    0.0000 H   0  0  0  0  0  0  0  0  0  0  0  0
    8.7192    5.1401    0.0000 H   0  0  0  0  0  0  0  0  0  0  0  0
    7.2873    4.2759    0.0000 H   0  0  0  0  0  0  0  0  0  0  0  0
    7.1424    3.8777    0.0000 H   0  0  0  0  0  0  0  0  0  0  0  0
    6.3394    0.9346    0.0000 H   0  0  0  0  0  0  0  0  0  0  0  0
   11.8102    0.7917    0.0000 H   0  0  0  0  0  0  0  0  0  0  0  0
   11.8206    3.2624    0.0000 H   0  0  0  0  0  0  0  0  0  0  0  0
    5.2065   -1.4176    0.0000 H   0  0  0  0  0  0  0  0  0  0  0  0
   10.7363   -2.2083    0.0000 H   0  0  0  0  0  0  0  0  0  0  0  0
   12.1393    0.2217    0.0000 H   0  0  0  0  0  0  0  0  0  0  0  0
    8.2250   -4.9618    0.0000 H   0  0  0  0  0  0  0  0  0  0  0  0
   10.4159   -3.0944    0.0000 H   0  0  0  0  0  0  0  0  0  0  0  0
    6.8408    2.1947    0.0000 H   0  0  0  0  0  0  0  0  0  0  0  0
    5.5631    0.1129    0.0000 H   0  0  0  0  0  0  0  0  0  0  0  0
    5.2264   -4.6041    0.0000 H   0  0  0  0  0  0  0  0  0  0  0  0
    4.7072   -1.8466    0.0000 H   0  0  0  0  0  0  0  0  0  0  0  0
    7.4726    5.7327    0.0000 H   0  0  0  0  0  0  0  0  0  0  0  0
   12.2827    2.2716    0.0000 H   0  0  0  0  0  0  0  0  0  0  0  0
    6.1218    4.5731    0.0000 H   0  0  0  0  0  0  0  0  0  0  0  0
    6.6197    1.8118    0.0000 H   0  0  0  0  0  0  0  0  0  0  0  0
   10.4606   -1.9648    0.0000 H   0  0  0  0  0  0  0  0  0  0  0  0
   11.5199    4.9682    0.0000 H   0  0  0  0  0  0  0  0  0  0  0  0
    5.0254    1.5243    0.0000 H   0  0  0  0  0  0  0  0  0  0  0  0
    9.9032   -5.5396    0.0000 H   0  0  0  0  0  0  0  0  0  0  0  0
   14.4083   -0.7083    0.0000 H   0  0  0  0  0  0  0  0  0  0  0  0
   12.6762   -3.7083    0.0000 H   0  0  0  0  0  0  0  0  0  0  0  0
   13.8713   -3.0183    0.0000 H   0  0  0  0  0  0  0  0  0  0  0  0
    2.2583   -1.9727    0.0000 H   0  0  0  0  0  0  0  0  0  0  0  0
    3.9125   -5.7327    0.0000 H   0  0  0  0  0  0  0  0  0  0  0  0
    2.0000   -4.3302    0.0000 H   0  0  0  0  0  0  0  0  0  0  0  0
    3.6720    4.4658    0.0000 H   0  0  0  0  0  0  0  0  0  0  0  0
    3.3955    2.1104    0.0000 H   0  0  0  0  0  0  0  0  0  0  0  0
  1 25  1  0  0  0  0
  1 26  1  0  0  0  0
  2 30  1  0  0  0  0
  2 38  1  0  0  0  0
  3 22  1  0  0  0  0
  3 77  1  0  0  0  0
  4 32  1  0  0  0  0
  4 41  1  0  0  0  0
  5 28  1  0  0  0  0
  5 79  1  0  0  0  0
  6 33  1  0  0  0  0
  6 84  1  0  0  0  0
  7 34  1  0  0  0  0
  7 85  1  0  0  0  0
  8 39  1  0  0  0  0
  8 88  1  0  0  0  0
  9 40  1  0  0  0  0
  9 89  1  0  0  0  0
 10 44  1  0  0  0  0
 10 92  1  0  0  0  0
 11 45  1  0  0  0  0
 11 93  1  0  0  0  0
 12 52  1  0  0  0  0
 12 95  1  0  0  0  0
 13 55  1  0  0  0  0
 13 96  1  0  0  0  0
 14 56  1  0  0  0  0
 14 97  1  0  0  0  0
 15 58  1  0  0  0  0
 15 98  1  0  0  0  0
 16 60  1  0  0  0  0
 16 99  1  0  0  0  0
 17 61  1  0  0  0  0
 17100  1  0  0  0  0
 18 62  1  0  0  0  0
 18101  1  0  0  0  0
 19 63  1  0  0  0  0
 19102  1  0  0  0  0
 20 65  1  0  0  0  0
 20103  1  0  0  0  0
 21 22  1  0  0  0  0
 21 24  1  0  0  0  0
 21 29  1  0  0  0  0
 21 66  1  0  0  0  0
 22 25  1  0  0  0  0
 22 67  1  0  0  0  0
 23 27  1  0  0  0  0
 23 28  1  0  0  0  0
 23 31  1  0  0  0  0
 23 68  1  0  0  0  0
 24 26  1  0  0  0  0
 24 33  2  0  0  0  0
 25 36  1  0  0  0  0
 25 69  1  0  0  0  0
 26 27  2  0  0  0  0
 27 34  1  0  0  0  0
 28 30  1  0  0  0  0
 28 70  1  0  0  0  0
 29 32  1  0  0  0  0
 29 40  2  0  0  0  0
 30 43  1  0  0  0  0
 30 71  1  0  0  0  0
 31 38  1  0  0  0  0
 31 44  2  0  0  0  0
 32 35  2  0  0  0  0
 33 42  1  0  0  0  0
 34 42  2  0  0  0  0
 35 37  1  0  0  0  0
 35 45  1  0  0  0  0
 36 47  2  0  0  0  0
 36 48  1  0  0  0  0
 37 39  1  0  0  0  0
 37 72  1  0  0  0  0
 37 73  1  0  0  0  0
 38 49  2  0  0  0  0
 39 41  1  0  0  0  0
 39 74  1  0  0  0  0
 40 46  1  0  0  0  0
 41 50  1  0  0  0  0
 41 75  1  0  0  0  0
 42 76  1  0  0  0  0
 43 53  2  0  0  0  0
 43 54  1  0  0  0  0
 44 51  1  0  0  0  0
 45 46  2  0  0  0  0
 46 78  1  0  0  0  0
 47 56  1  0  0  0  0
 47 80  1  0  0  0  0
 48 55  2  0  0  0  0
 48 81  1  0  0  0  0
 49 52  1  0  0  0  0
 49 82  1  0  0  0  0
 50 57  2  0  0  0  0
 50 59  1  0  0  0  0
 51 52  2  0  0  0  0
 51 83  1  0  0  0  0
 53 61  1  0  0  0  0
 53 86  1  0  0  0  0
 54 60  2  0  0  0  0
 54 87  1  0  0  0  0
 55 58  1  0  0  0  0
 56 58  2  0  0  0  0
 57 63  1  0  0  0  0
 57 90  1  0  0  0  0
 59 64  2  0  0  0  0
 59 91  1  0  0  0  0
 60 62  1  0  0  0  0
 61 62  2  0  0  0  0
 63 65  2  0  0  0  0
 64 65  1  0  0  0  0
 64 94  1  0  0  0  0
M  END
>  <PUBCHEM_COMPOUND_CID>
14890508

>  <PUBCHEM_COMPOUND_CANONICALIZED>
1

>  <PUBCHEM_CACTVS_COMPLEXITY>
1590

>  <PUBCHEM_CACTVS_HBOND_ACCEPTOR>
20

>  <PUBCHEM_CACTVS_HBOND_DONOR>
17

>  <PUBCHEM_CACTVS_ROTATABLE_BOND>
5

>  <PUBCHEM_CACTVS_SUBSKEYS>
AAADcfB8PgAAAAAAAAAAAAAAAAAAAAAAAAA0aNGDAAAAAACRVAAAGgAACAAADRSgmAIwBoAABgCAAiBCAAACCAAgIAAIiAAGiIgNNyKGMRqCeCGlwBULuAfA4PwOoAADCAAIQABAAAYQABCAAAAAAAAAAA==

>  <PUBCHEM_IUPAC_OPENEYE_NAME>
4-[2-(3,4-dihydroxyphenyl)-3,5,7-trihydroxy-chroman-8-yl]-2-(3,4,5-trihydroxyphenyl)-8-[3,5,7-trihydroxy-2-(3,4,5-trihydroxyphenyl)chroman-4-yl]chromane-3,5,7-triol

>  <PUBCHEM_IUPAC_CAS_NAME>
4-[2-(3,4-dihydroxyphenyl)-3,5,7-trihydroxy-3,4-dihydro-2H-1-benzopyran-8-yl]-2-(3,4,5-trihydroxyphenyl)-8-[3,5,7-trihydroxy-2-(3,4,5-trihydroxyphenyl)-3,4-dihydro-2H-1-benzopyran-4-yl]-3,4-dihydro-2H-1-benzopyran-3,5,7-triol

>  <PUBCHEM_IUPAC_NAME>
4-[2-(3,4-dihydroxyphenyl)-3,5,7-trihydroxy-3,4-dihydro-2H-chromen-8-yl]-2-(3,4,5-trihydroxyphenyl)-8-[3,5,7-trihydroxy-2-(3,4,5-trihydroxyphenyl)-3,4-dihydro-2H-chromen-4-yl]-3,4-dihydro-2H-chromene-3,5,7-triol

>  <PUBCHEM_IUPAC_SYSTEMATIC_NAME>
4-[2-[3,4-bis(oxidanyl)phenyl]-3,5,7-tris(oxidanyl)-3,4-dihydro-2H-chromen-8-yl]-2-[3,4,5-tris(oxidanyl)phenyl]-8-[3,5,7-tris(oxidanyl)-2-[3,4,5-tris(oxidanyl)phenyl]-3,4-dihydro-2H-chromen-4-yl]-3,4-dihydro-2H-chromene-3,5,7-triol

>  <PUBCHEM_IUPAC_TRADITIONAL_NAME>
4-[2-(3,4-dihydroxyphenyl)-3,5,7-trihydroxy-chroman-8-yl]-2-(3,4,5-trihydroxyphenyl)-8-[3,5,7-trihydroxy-2-(3,4,5-trihydroxyphenyl)chroman-4-yl]chroman-3,5,7-triol

>  <PUBCHEM_IUPAC_INCHI>
InChI=1S/C45H38O20/c46-16-8-21(50)31-30(9-16)63-42(14-4-25(54)37(59)26(55)5-14)39(61)35(31)33-23(52)12-24(53)34-36(40(62)43(65-45(33)34)15-6-27(56)38(60)28(57)7-15)32-22(51)11-19(48)17-10-29(58)41(64-44(17)32)13-1-2-18(47)20(49)3-13/h1-9,11-12,29,35-36,39-43,46-62H,10H2

>  <PUBCHEM_IUPAC_INCHIKEY>
RJFFPCHJOFXZQD-UHFFFAOYSA-N

>  <PUBCHEM_XLOGP3_AA>
2.6

>  <PUBCHEM_EXACT_MASS>
898.196

>  <PUBCHEM_MOLECULAR_FORMULA>
C45H38O20

>  <PUBCHEM_MOLECULAR_WEIGHT>
898.779

>  <PUBCHEM_OPENEYE_CAN_SMILES>
C1C(C(OC2=C1C(=CC(=C2C3C(C(OC4=C(C(=CC(=C34)O)O)C5C(C(OC6=CC(=CC(=C56)O)O)C7=CC(=C(C(=C7)O)O)O)O)C8=CC(=C(C(=C8)O)O)O)O)O)O)C9=CC(=C(C=C9)O)O)O

>  <PUBCHEM_OPENEYE_ISO_SMILES>
C1C(C(OC2=C1C(=CC(=C2C3C(C(OC4=C(C(=CC(=C34)O)O)C5C(C(OC6=CC(=CC(=C56)O)O)C7=CC(=C(C(=C7)O)O)O)O)C8=CC(=C(C(=C8)O)O)O)O)O)O)C9=CC(=C(C=C9)O)O)O

>  <PUBCHEM_CACTVS_TPSA>
372

>  <PUBCHEM_MONOISOTOPIC_WEIGHT>
898.196

>  <PUBCHEM_TOTAL_CHARGE>
0

>  <PUBCHEM_HEAVY_ATOM_COUNT>
65

>  <PUBCHEM_ATOM_DEF_STEREO_COUNT>
0

>  <PUBCHEM_ATOM_UDEF_STEREO_COUNT>
8

>  <PUBCHEM_BOND_DEF_STEREO_COUNT>
0

>  <PUBCHEM_BOND_UDEF_STEREO_COUNT>
0

>  <PUBCHEM_ISOTOPIC_ATOM_COUNT>
0

>  <PUBCHEM_COMPONENT_COUNT>
1

>  <PUBCHEM_CACTVS_TAUTO_COUNT>
986

>  <PUBCHEM_COORDINATE_TYPE>
1
5
255

>  <PUBCHEM_BONDANNOTATIONS>
21  29  3
23  27  3
24  26  8
24  33  8
25  36  3
26  27  8
27  34  8
29  32  8
29  40  8
22  3  3
30  43  3
31  38  8
31  44  8
32  35  8
33  42  8
34  42  8
35  45  8
36  47  8
36  48  8
38  49  8
40  46  8
41  50  3
43  53  8
43  54  8
44  51  8
45  46  8
47  56  8
48  55  8
49  52  8
28  5  3
50  57  8
50  59  8
51  52  8
53  61  8
54  60  8
55  58  8
56  58  8
57  63  8
59  64  8
60  62  8
61  62  8
63  65  8
64  65  8
39  8  3

$$$$
