14893473
 OpenBabel06101807152D

 28 29  0  0  1  0  0  0  0  0999 V2000
    5.5301    1.1429    0.0000 O   0  0  0  0  0  0  0  0  0  0  0  0
    2.0000   -0.8812    0.0000 O   0  0  0  0  0  0  0  0  0  0  0  0
    2.0000    1.1671    0.0000 O   0  0  0  0  0  0  0  0  0  0  0  0
    7.2622    1.1429    0.0000 O   0  0  0  0  0  0  0  0  0  0  0  0
    5.5301   -1.8571    0.0000 O   0  0  0  0  0  0  0  0  0  0  0  0
    7.2622   -0.8571    0.0000 O   0  0  0  0  0  0  0  0  0  0  0  0
    5.5301   -0.8571    0.0000 N   0  0  0  0  0  0  0  0  0  0  0  0
    4.6641   -0.3571    0.0000 C   0  0  0  0  0  0  0  0  0  0  0  0
    4.6641    0.6429    0.0000 C   0  0  0  0  0  0  0  0  0  0  0  0
    6.3961    0.6429    0.0000 C   0  0  3  0  0  0  0  0  0  0  0  0
    3.7702   -0.8917    0.0000 C   0  0  0  0  0  0  0  0  0  0  0  0
    3.7702    1.1776    0.0000 C   0  0  0  0  0  0  0  0  0  0  0  0
    2.8641   -0.3779    0.0000 C   0  0  0  0  0  0  0  0  0  0  0  0
    6.3961   -0.3571    0.0000 C   0  0  0  0  0  0  0  0  0  0  0  0
    2.8641    0.6637    0.0000 C   0  0  0  0  0  0  0  0  0  0  0  0
    2.0038   -1.8812    0.0000 C   0  0  0  0  0  0  0  0  0  0  0  0
    2.0038    2.1671    0.0000 C   0  0  0  0  0  0  0  0  0  0  0  0
    6.9331    0.3329    0.0000 H   0  0  0  0  0  0  0  0  0  0  0  0
    3.7773   -1.5117    0.0000 H   0  0  0  0  0  0  0  0  0  0  0  0
    3.7773    1.7976    0.0000 H   0  0  0  0  0  0  0  0  0  0  0  0
    7.2622    1.7629    0.0000 H   0  0  0  0  0  0  0  0  0  0  0  0
    6.0671   -2.1671    0.0000 H   0  0  0  0  0  0  0  0  0  0  0  0
    1.3839   -1.8836    0.0000 H   0  0  0  0  0  0  0  0  0  0  0  0
    2.0062   -2.5012    0.0000 H   0  0  0  0  0  0  0  0  0  0  0  0
    2.6238   -1.8788    0.0000 H   0  0  0  0  0  0  0  0  0  0  0  0
    2.6238    2.1647    0.0000 H   0  0  0  0  0  0  0  0  0  0  0  0
    2.0062    2.7871    0.0000 H   0  0  0  0  0  0  0  0  0  0  0  0
    1.3839    2.1695    0.0000 H   0  0  0  0  0  0  0  0  0  0  0  0
  1  9  1  0  0  0  0
  1 10  1  0  0  0  0
  2 13  1  0  0  0  0
  2 16  1  0  0  0  0
  3 15  1  0  0  0  0
  3 17  1  0  0  0  0
  4 10  1  0  0  0  0
  4 21  1  0  0  0  0
  5  7  1  0  0  0  0
  5 22  1  0  0  0  0
  6 14  2  0  0  0  0
  7  8  1  0  0  0  0
  7 14  1  0  0  0  0
  8  9  1  0  0  0  0
  8 11  2  0  0  0  0
  9 12  2  0  0  0  0
 10 14  1  0  0  0  0
 10 18  1  0  0  0  0
 11 13  1  0  0  0  0
 11 19  1  0  0  0  0
 12 15  1  0  0  0  0
 12 20  1  0  0  0  0
 13 15  2  0  0  0  0
 16 23  1  0  0  0  0
 16 24  1  0  0  0  0
 16 25  1  0  0  0  0
 17 26  1  0  0  0  0
 17 27  1  0  0  0  0
 17 28  1  0  0  0  0
M  END
>  <PUBCHEM_COMPOUND_CID>
14893473

>  <PUBCHEM_COMPOUND_CANONICALIZED>
1

>  <PUBCHEM_CACTVS_COMPLEXITY>
299

>  <PUBCHEM_CACTVS_HBOND_ACCEPTOR>
6

>  <PUBCHEM_CACTVS_HBOND_DONOR>
2

>  <PUBCHEM_CACTVS_ROTATABLE_BOND>
2

>  <PUBCHEM_CACTVS_SUBSKEYS>
AAADccByOAAAAAAAAAAAAAAAAAAAAAAAAAA8QAAAAAAAAACxAAAAHgAECAAACAyxkAMyzoIQBgCIACVSUAKCCAAhIgAgiABH7IgfNyLEsJ+HOCrnxB3e6AfwcA8AAUAACgAAUAACgAAUAACgAAAAAAAAAA==

>  <PUBCHEM_IUPAC_OPENEYE_NAME>
2,4-dihydroxy-6,7-dimethoxy-1,4-benzoxazin-3-one

>  <PUBCHEM_IUPAC_CAS_NAME>
2,4-dihydroxy-6,7-dimethoxy-1,4-benzoxazin-3-one

>  <PUBCHEM_IUPAC_NAME>
2,4-dihydroxy-6,7-dimethoxy-1,4-benzoxazin-3-one

>  <PUBCHEM_IUPAC_SYSTEMATIC_NAME>
6,7-dimethoxy-2,4-bis(oxidanyl)-1,4-benzoxazin-3-one

>  <PUBCHEM_IUPAC_TRADITIONAL_NAME>
2,4-dihydroxy-6,7-dimethoxy-1,4-benzoxazin-3-one

>  <PUBCHEM_IUPAC_INCHI>
InChI=1S/C10H11NO6/c1-15-7-3-5-6(4-8(7)16-2)17-10(13)9(12)11(5)14/h3-4,10,13-14H,1-2H3

>  <PUBCHEM_IUPAC_INCHIKEY>
VVCAIBZWJDJGJQ-UHFFFAOYSA-N

>  <PUBCHEM_XLOGP3_AA>
0

>  <PUBCHEM_EXACT_MASS>
241.059

>  <PUBCHEM_MOLECULAR_FORMULA>
C10H11NO6

>  <PUBCHEM_MOLECULAR_WEIGHT>
241.199

>  <PUBCHEM_OPENEYE_CAN_SMILES>
COC1=C(C=C2C(=C1)N(C(=O)C(O2)O)O)OC

>  <PUBCHEM_OPENEYE_ISO_SMILES>
COC1=C(C=C2C(=C1)N(C(=O)C(O2)O)O)OC

>  <PUBCHEM_CACTVS_TPSA>
88.5

>  <PUBCHEM_MONOISOTOPIC_WEIGHT>
241.059

>  <PUBCHEM_TOTAL_CHARGE>
0

>  <PUBCHEM_HEAVY_ATOM_COUNT>
17

>  <PUBCHEM_ATOM_DEF_STEREO_COUNT>
0

>  <PUBCHEM_ATOM_UDEF_STEREO_COUNT>
1

>  <PUBCHEM_BOND_DEF_STEREO_COUNT>
0

>  <PUBCHEM_BOND_UDEF_STEREO_COUNT>
0

>  <PUBCHEM_ISOTOPIC_ATOM_COUNT>
0

>  <PUBCHEM_COMPONENT_COUNT>
1

>  <PUBCHEM_CACTVS_TAUTO_COUNT>
3

>  <PUBCHEM_COORDINATE_TYPE>
1
5
255

>  <PUBCHEM_BONDANNOTATIONS>
11  13  8
12  15  8
13  15  8
10  4  3
8  11  8
8  9  8
9  12  8

$$$$
