149036
 OpenBabel06101807152D

 35 34  0  0  0  0  0  0  0  0999 V2000
    3.6009    0.0000    0.0000 Cl  0  0  0  0  0  0  0  0  0  0  0  0
    5.6648    3.0335    0.0000 O   0  0  0  0  0  0  0  0  0  0  0  0
    4.1009    8.3827    0.0000 O   0  0  0  0  0  0  0  0  0  0  0  0
    4.0812    5.5702    0.0000 N   0  0  0  0  0  0  0  0  0  0  0  0
    4.0812    3.9608    0.0000 N   0  0  0  0  0  0  0  0  0  0  0  0
    5.6648    4.7655    0.0000 N   0  0  0  0  0  0  0  0  0  0  0  0
    7.1648    3.8995    0.0000 N   0  0  0  0  0  0  0  0  0  0  0  0
    3.1350    5.2655    0.0000 C   0  0  0  0  0  0  0  0  0  0  0  0
    3.1350    4.2655    0.0000 C   0  0  0  0  0  0  0  0  0  0  0  0
    4.6648    4.7655    0.0000 C   0  0  0  0  0  0  0  0  0  0  0  0
    2.2690    5.7655    0.0000 C   0  0  0  0  0  0  0  0  0  0  0  0
    1.4030    5.2655    0.0000 C   0  0  0  0  0  0  0  0  0  0  0  0
    2.2690    3.7655    0.0000 C   0  0  0  0  0  0  0  0  0  0  0  0
    1.4030    4.2655    0.0000 C   0  0  0  0  0  0  0  0  0  0  0  0
    0.5369    5.7655    0.0000 C   0  0  0  0  0  0  0  0  0  0  0  0
    6.1648    3.8995    0.0000 C   0  0  0  0  0  0  0  0  0  0  0  0
    7.6648    3.0335    0.0000 C   0  0  0  0  0  0  0  0  0  0  0  0
    7.6648    4.7655    0.0000 C   0  0  0  0  0  0  0  0  0  0  0  0
    4.2738    6.1596    0.0000 H   0  0  0  0  0  0  0  0  0  0  0  0
    2.2690    6.3855    0.0000 H   0  0  0  0  0  0  0  0  0  0  0  0
    2.2690    3.1455    0.0000 H   0  0  0  0  0  0  0  0  0  0  0  0
    0.8660    3.9555    0.0000 H   0  0  0  0  0  0  0  0  0  0  0  0
    5.9748    5.3024    0.0000 H   0  0  0  0  0  0  0  0  0  0  0  0
    0.8469    6.3024    0.0000 H   0  0  0  0  0  0  0  0  0  0  0  0
    0.0000    6.0755    0.0000 H   0  0  0  0  0  0  0  0  0  0  0  0
    0.2269    5.2286    0.0000 H   0  0  0  0  0  0  0  0  0  0  0  0
    7.1279    2.7234    0.0000 H   0  0  0  0  0  0  0  0  0  0  0  0
    7.9748    2.4965    0.0000 H   0  0  0  0  0  0  0  0  0  0  0  0
    8.2018    3.3434    0.0000 H   0  0  0  0  0  0  0  0  0  0  0  0
    8.2018    4.4555    0.0000 H   0  0  0  0  0  0  0  0  0  0  0  0
    7.9748    5.3024    0.0000 H   0  0  0  0  0  0  0  0  0  0  0  0
    7.1279    5.0755    0.0000 H   0  0  0  0  0  0  0  0  0  0  0  0
    4.6378    8.6927    0.0000 H   0  0  0  0  0  0  0  0  0  0  0  0
    3.5640    8.6927    0.0000 H   0  0  0  0  0  0  0  0  0  0  0  0
    4.6009    0.0000    0.0000 H   0  0  0  0  0  0  0  0  0  0  0  0
  1 35  1  0  0  0  0
  2 16  2  0  0  0  0
  3 33  1  0  0  0  0
  3 34  1  0  0  0  0
  4  8  1  0  0  0  0
  4 10  1  0  0  0  0
  4 19  1  0  0  0  0
  5  9  1  0  0  0  0
  5 10  2  0  0  0  0
  6 10  1  0  0  0  0
  6 16  1  0  0  0  0
  6 23  1  0  0  0  0
  7 16  1  0  0  0  0
  7 17  1  0  0  0  0
  7 18  1  0  0  0  0
  8  9  2  0  0  0  0
  8 11  1  0  0  0  0
  9 13  1  0  0  0  0
 11 12  2  0  0  0  0
 11 20  1  0  0  0  0
 12 14  1  0  0  0  0
 12 15  1  0  0  0  0
 13 14  2  0  0  0  0
 13 21  1  0  0  0  0
 14 22  1  0  0  0  0
 15 24  1  0  0  0  0
 15 25  1  0  0  0  0
 15 26  1  0  0  0  0
 17 27  1  0  0  0  0
 17 28  1  0  0  0  0
 17 29  1  0  0  0  0
 18 30  1  0  0  0  0
 18 31  1  0  0  0  0
 18 32  1  0  0  0  0
M  END
>  <PUBCHEM_COMPOUND_CID>
149036

>  <PUBCHEM_COMPOUND_CANONICALIZED>
1

>  <PUBCHEM_CACTVS_COMPLEXITY>
269

>  <PUBCHEM_CACTVS_HBOND_ACCEPTOR>
3

>  <PUBCHEM_CACTVS_HBOND_DONOR>
4

>  <PUBCHEM_CACTVS_ROTATABLE_BOND>
1

>  <PUBCHEM_CACTVS_SUBSKEYS>
AAADceBzsAAEAAAAAAAAAAAAAAAAAWAAAAAwAAAAAAAAAFgB8AAAHgAQCAAADAiBHgQz0LfJkACoAyRidACCgC2hEqAJmSA4dJiIaKLAmZGUIAhokwJIyCcQgAAOCAAAQAAAACAQAACAAAAAQAAAAAAAAA==

>  <PUBCHEM_IUPAC_OPENEYE_NAME>
1,1-dimethyl-3-(6-methyl-1H-benzimidazol-2-yl)urea;hydrate;hydrochloride

>  <PUBCHEM_IUPAC_CAS_NAME>
1,1-dimethyl-3-(6-methyl-1H-benzimidazol-2-yl)urea;hydrate;hydrochloride

>  <PUBCHEM_IUPAC_NAME>
1,1-dimethyl-3-(6-methyl-1H-benzimidazol-2-yl)urea;hydrate;hydrochloride

>  <PUBCHEM_IUPAC_SYSTEMATIC_NAME>
1,1-dimethyl-3-(6-methyl-1H-benzimidazol-2-yl)urea;hydrate;hydrochloride

>  <PUBCHEM_IUPAC_TRADITIONAL_NAME>
1,1-dimethyl-3-(6-methyl-1H-benzimidazol-2-yl)urea;hydrate;hydrochloride

>  <PUBCHEM_IUPAC_INCHI>
InChI=1S/C11H14N4O.ClH.H2O/c1-7-4-5-8-9(6-7)13-10(12-8)14-11(16)15(2)3;;/h4-6H,1-3H3,(H2,12,13,14,16);1H;1H2

>  <PUBCHEM_IUPAC_INCHIKEY>
ACPCHKQKISUWCK-UHFFFAOYSA-N

>  <PUBCHEM_EXACT_MASS>
272.104

>  <PUBCHEM_MOLECULAR_FORMULA>
C11H17ClN4O2

>  <PUBCHEM_MOLECULAR_WEIGHT>
272.733

>  <PUBCHEM_OPENEYE_CAN_SMILES>
CC1=CC2=C(C=C1)N=C(N2)NC(=O)N(C)C.O.Cl

>  <PUBCHEM_OPENEYE_ISO_SMILES>
CC1=CC2=C(C=C1)N=C(N2)NC(=O)N(C)C.O.Cl

>  <PUBCHEM_CACTVS_TPSA>
62

>  <PUBCHEM_MONOISOTOPIC_WEIGHT>
272.104

>  <PUBCHEM_TOTAL_CHARGE>
0

>  <PUBCHEM_HEAVY_ATOM_COUNT>
18

>  <PUBCHEM_ATOM_DEF_STEREO_COUNT>
0

>  <PUBCHEM_ATOM_UDEF_STEREO_COUNT>
0

>  <PUBCHEM_BOND_DEF_STEREO_COUNT>
0

>  <PUBCHEM_BOND_UDEF_STEREO_COUNT>
0

>  <PUBCHEM_ISOTOPIC_ATOM_COUNT>
0

>  <PUBCHEM_COMPONENT_COUNT>
3

>  <PUBCHEM_CACTVS_TAUTO_COUNT>
5

>  <PUBCHEM_COORDINATE_TYPE>
1
5
255

>  <PUBCHEM_BONDANNOTATIONS>
11  12  8
12  14  8
13  14  8
4  10  8
4  8  8
5  10  8
5  9  8
8  11  8
8  9  8
9  13  8

$$$$
