14968868
 OpenBabel06101807152D

 57 56  0  0  1  0  0  0  0  0999 V2000
    9.7942    1.2500    0.0000 O   0  0  0  0  0  0  0  0  0  0  0  0
    8.9282   -1.2500    0.0000 O   0  0  0  0  0  0  0  0  0  0  0  0
    6.3301    1.2500    0.0000 O   0  0  0  0  0  0  0  0  0  0  0  0
   17.5885   -0.2500    0.0000 O   0  0  0  0  0  0  0  0  0  0  0  0
   16.7224    1.2500    0.0000 O   0  0  0  0  0  0  0  0  0  0  0  0
   11.5263    0.2500    0.0000 C   0  0  0  0  0  0  0  0  0  0  0  0
   10.6603   -0.2500    0.0000 C   0  0  0  0  0  0  0  0  0  0  0  0
   12.3923   -0.2500    0.0000 C   0  0  0  0  0  0  0  0  0  0  0  0
    9.7942    0.2500    0.0000 C   0  0  1  0  0  0  0  0  0  0  0  0
   13.2583    0.2500    0.0000 C   0  0  0  0  0  0  0  0  0  0  0  0
    8.9282   -0.2500    0.0000 C   0  0  1  0  0  0  0  0  0  0  0  0
   14.1244   -0.2500    0.0000 C   0  0  0  0  0  0  0  0  0  0  0  0
   14.9904    0.2500    0.0000 C   0  0  0  0  0  0  0  0  0  0  0  0
    5.4641   -0.2500    0.0000 C   0  0  0  0  0  0  0  0  0  0  0  0
    6.3301    0.2500    0.0000 C   0  0  1  0  0  0  0  0  0  0  0  0
    4.5981    0.2500    0.0000 C   0  0  0  0  0  0  0  0  0  0  0  0
    8.0622    0.2500    0.0000 C   0  0  0  0  0  0  0  0  0  0  0  0
    3.7320   -0.2500    0.0000 C   0  0  0  0  0  0  0  0  0  0  0  0
    7.1962   -0.2500    0.0000 C   0  0  0  0  0  0  0  0  0  0  0  0
   15.8564   -0.2500    0.0000 C   0  0  0  0  0  0  0  0  0  0  0  0
    2.8660    0.2500    0.0000 C   0  0  0  0  0  0  0  0  0  0  0  0
    2.0000   -0.2500    0.0000 C   0  0  0  0  0  0  0  0  0  0  0  0
   16.7224    0.2500    0.0000 C   0  0  0  0  0  0  0  0  0  0  0  0
   11.9248    0.7249    0.0000 H   0  0  0  0  0  0  0  0  0  0  0  0
   11.1278    0.7249    0.0000 H   0  0  0  0  0  0  0  0  0  0  0  0
   10.2617   -0.7249    0.0000 H   0  0  0  0  0  0  0  0  0  0  0  0
   11.0588   -0.7249    0.0000 H   0  0  0  0  0  0  0  0  0  0  0  0
   11.9938   -0.7249    0.0000 H   0  0  0  0  0  0  0  0  0  0  0  0
   12.7908   -0.7249    0.0000 H   0  0  0  0  0  0  0  0  0  0  0  0
    9.2573    0.5600    0.0000 H   0  0  0  0  0  0  0  0  0  0  0  0
   13.6569    0.7249    0.0000 H   0  0  0  0  0  0  0  0  0  0  0  0
   12.8598    0.7249    0.0000 H   0  0  0  0  0  0  0  0  0  0  0  0
    9.4651   -0.5600    0.0000 H   0  0  0  0  0  0  0  0  0  0  0  0
   13.7258   -0.7249    0.0000 H   0  0  0  0  0  0  0  0  0  0  0  0
   14.5229   -0.7249    0.0000 H   0  0  0  0  0  0  0  0  0  0  0  0
   15.3889    0.7249    0.0000 H   0  0  0  0  0  0  0  0  0  0  0  0
   14.5919    0.7249    0.0000 H   0  0  0  0  0  0  0  0  0  0  0  0
    5.0656   -0.7249    0.0000 H   0  0  0  0  0  0  0  0  0  0  0  0
    5.8626   -0.7249    0.0000 H   0  0  0  0  0  0  0  0  0  0  0  0
    6.8671    0.5600    0.0000 H   0  0  0  0  0  0  0  0  0  0  0  0
    4.9966    0.7249    0.0000 H   0  0  0  0  0  0  0  0  0  0  0  0
    4.1996    0.7249    0.0000 H   0  0  0  0  0  0  0  0  0  0  0  0
    8.0622    0.8700    0.0000 H   0  0  0  0  0  0  0  0  0  0  0  0
    3.3335   -0.7249    0.0000 H   0  0  0  0  0  0  0  0  0  0  0  0
    4.1306   -0.7249    0.0000 H   0  0  0  0  0  0  0  0  0  0  0  0
    7.1962   -0.8700    0.0000 H   0  0  0  0  0  0  0  0  0  0  0  0
   15.4579   -0.7249    0.0000 H   0  0  0  0  0  0  0  0  0  0  0  0
   16.2549   -0.7249    0.0000 H   0  0  0  0  0  0  0  0  0  0  0  0
   10.3312    1.5600    0.0000 H   0  0  0  0  0  0  0  0  0  0  0  0
    3.2646    0.7249    0.0000 H   0  0  0  0  0  0  0  0  0  0  0  0
    2.4675    0.7249    0.0000 H   0  0  0  0  0  0  0  0  0  0  0  0
    8.3913   -1.5600    0.0000 H   0  0  0  0  0  0  0  0  0  0  0  0
    1.6900    0.2869    0.0000 H   0  0  0  0  0  0  0  0  0  0  0  0
    1.4631   -0.5600    0.0000 H   0  0  0  0  0  0  0  0  0  0  0  0
    2.3100   -0.7869    0.0000 H   0  0  0  0  0  0  0  0  0  0  0  0
    5.7932    1.5600    0.0000 H   0  0  0  0  0  0  0  0  0  0  0  0
   18.1254    0.0600    0.0000 H   0  0  0  0  0  0  0  0  0  0  0  0
  1 49  1  0  0  0  0
  2 52  1  0  0  0  0
  3 56  1  0  0  0  0
  4 23  1  0  0  0  0
  4 57  1  0  0  0  0
  5 23  2  0  0  0  0
  6  7  1  0  0  0  0
  6  8  1  0  0  0  0
  6 24  1  0  0  0  0
  6 25  1  0  0  0  0
  7  9  1  0  0  0  0
  7 26  1  0  0  0  0
  7 27  1  0  0  0  0
  8 10  1  0  0  0  0
  8 28  1  0  0  0  0
  8 29  1  0  0  0  0
  9  1  1  0  0  0  0
  9 11  1  0  0  0  0
  9 30  1  6  0  0  0
 10 12  1  0  0  0  0
 10 31  1  0  0  0  0
 10 32  1  0  0  0  0
 11  2  1  0  0  0  0
 11 17  1  0  0  0  0
 11 33  1  1  0  0  0
 12 13  1  0  0  0  0
 12 34  1  0  0  0  0
 12 35  1  0  0  0  0
 13 20  1  0  0  0  0
 13 36  1  0  0  0  0
 13 37  1  0  0  0  0
 14 15  1  0  0  0  0
 14 16  1  0  0  0  0
 14 38  1  0  0  0  0
 14 39  1  0  0  0  0
 15  3  1  0  0  0  0
 15 19  1  0  0  0  0
 15 40  1  1  0  0  0
 16 18  1  0  0  0  0
 16 41  1  0  0  0  0
 16 42  1  0  0  0  0
 17 19  2  0  0  0  0
 17 43  1  0  0  0  0
 18 21  1  0  0  0  0
 18 44  1  0  0  0  0
 18 45  1  0  0  0  0
 19 46  1  0  0  0  0
 20 23  1  0  0  0  0
 20 47  1  0  0  0  0
 20 48  1  0  0  0  0
 21 22  1  0  0  0  0
 21 50  1  0  0  0  0
 21 51  1  0  0  0  0
 22 53  1  0  0  0  0
 22 54  1  0  0  0  0
 22 55  1  0  0  0  0
M  END
>  <PUBCHEM_COMPOUND_CID>
14968868

>  <PUBCHEM_COMPOUND_CANONICALIZED>
1

>  <PUBCHEM_CACTVS_COMPLEXITY>
317

>  <PUBCHEM_CACTVS_HBOND_ACCEPTOR>
5

>  <PUBCHEM_CACTVS_HBOND_DONOR>
4

>  <PUBCHEM_CACTVS_ROTATABLE_BOND>
15

>  <PUBCHEM_CACTVS_SUBSKEYS>
AAADcfB4OAAAAAAAAAAAAAAAAAAAAAAAAAAAAAAAAAAAAAAAAAAAGgAACAAACBSggAICCAAAAgCIACDSCAAAAAAgAAAICAEAAAgBFBIAAQAAUAAEwAAJEAOIyKCAAAAAAAAAAAAAAAAAAAAAAAAAAAAAAA==

>  <PUBCHEM_IUPAC_OPENEYE_NAME>
(E,9S,10R,13S)-9,10,13-trihydroxyoctadec-11-enoic acid

>  <PUBCHEM_IUPAC_CAS_NAME>
(E,9S,10R,13S)-9,10,13-trihydroxy-11-octadecenoic acid

>  <PUBCHEM_IUPAC_NAME>
(E,9S,10R,13S)-9,10,13-trihydroxyoctadec-11-enoic acid

>  <PUBCHEM_IUPAC_SYSTEMATIC_NAME>
(E,9S,10R,13S)-9,10,13-tris(oxidanyl)octadec-11-enoic acid

>  <PUBCHEM_IUPAC_TRADITIONAL_NAME>
(E,9S,10R,13S)-9,10,13-trihydroxyoctadec-11-enoic acid

>  <PUBCHEM_IUPAC_INCHI>
InChI=1S/C18H34O5/c1-2-3-7-10-15(19)13-14-17(21)16(20)11-8-5-4-6-9-12-18(22)23/h13-17,19-21H,2-12H2,1H3,(H,22,23)/b14-13+/t15-,16-,17+/m0/s1

>  <PUBCHEM_IUPAC_INCHIKEY>
NTVFQBIHLSPEGQ-SYMVGPSASA-N

>  <PUBCHEM_XLOGP3_AA>
3.1

>  <PUBCHEM_EXACT_MASS>
330.241

>  <PUBCHEM_MOLECULAR_FORMULA>
C18H34O5

>  <PUBCHEM_MOLECULAR_WEIGHT>
330.465

>  <PUBCHEM_OPENEYE_CAN_SMILES>
CCCCCC(C=CC(C(CCCCCCCC(=O)O)O)O)O

>  <PUBCHEM_OPENEYE_ISO_SMILES>
CCCCC[C@@H](/C=C/[C@H]([C@H](CCCCCCCC(=O)O)O)O)O

>  <PUBCHEM_CACTVS_TPSA>
98

>  <PUBCHEM_MONOISOTOPIC_WEIGHT>
330.241

>  <PUBCHEM_TOTAL_CHARGE>
0

>  <PUBCHEM_HEAVY_ATOM_COUNT>
23

>  <PUBCHEM_ATOM_DEF_STEREO_COUNT>
3

>  <PUBCHEM_ATOM_UDEF_STEREO_COUNT>
0

>  <PUBCHEM_BOND_DEF_STEREO_COUNT>
1

>  <PUBCHEM_BOND_UDEF_STEREO_COUNT>
0

>  <PUBCHEM_ISOTOPIC_ATOM_COUNT>
0

>  <PUBCHEM_COMPONENT_COUNT>
1

>  <PUBCHEM_CACTVS_TAUTO_COUNT>
1

>  <PUBCHEM_COORDINATE_TYPE>
1
5
255

>  <PUBCHEM_BONDANNOTATIONS>
9  1  5
11  2  6
15  3  6

$$$$
