14999388
 OpenBabel06101807152D

 55 55  0  0  0  0  0  0  0  0999 V2000
    5.4641    0.9050    0.0000 O   0  0  0  0  0  0  0  0  0  0  0  0
    4.5981   -0.5950    0.0000 O   0  0  0  0  0  0  0  0  0  0  0  0
    2.8660   -5.5950    0.0000 O   0  0  0  0  0  0  0  0  0  0  0  0
    4.5981   -6.5950    0.0000 O   0  0  0  0  0  0  0  0  0  0  0  0
    8.0622    3.4050    0.0000 C   0  0  0  0  0  0  0  0  0  0  0  0
    8.9282    3.9050    0.0000 C   0  0  0  0  0  0  0  0  0  0  0  0
    8.0622    2.4050    0.0000 C   0  0  0  0  0  0  0  0  0  0  0  0
    8.9282    4.9050    0.0000 C   0  0  0  0  0  0  0  0  0  0  0  0
    7.1962    1.9050    0.0000 C   0  0  0  0  0  0  0  0  0  0  0  0
    9.7942    5.4050    0.0000 C   0  0  0  0  0  0  0  0  0  0  0  0
    7.1962    0.9050    0.0000 C   0  0  0  0  0  0  0  0  0  0  0  0
    9.7942    6.4050    0.0000 C   0  0  0  0  0  0  0  0  0  0  0  0
    6.3301    0.4050    0.0000 C   0  0  0  0  0  0  0  0  0  0  0  0
   10.6603    6.9050    0.0000 C   0  0  0  0  0  0  0  0  0  0  0  0
    6.3301   -0.5950    0.0000 C   0  0  0  0  0  0  0  0  0  0  0  0
    5.4641   -1.0950    0.0000 C   0  0  0  0  0  0  0  0  0  0  0  0
    5.4641   -2.0950    0.0000 C   0  0  0  0  0  0  0  0  0  0  0  0
    4.5981   -2.5950    0.0000 C   0  0  0  0  0  0  0  0  0  0  0  0
    4.5981   -3.5950    0.0000 C   0  0  0  0  0  0  0  0  0  0  0  0
    3.7320   -4.0950    0.0000 C   0  0  0  0  0  0  0  0  0  0  0  0
    5.4641   -4.0950    0.0000 C   0  0  0  0  0  0  0  0  0  0  0  0
    3.7320   -5.0950    0.0000 C   0  0  0  0  0  0  0  0  0  0  0  0
    5.4641   -5.0950    0.0000 C   0  0  0  0  0  0  0  0  0  0  0  0
    4.5981   -5.5950    0.0000 C   0  0  0  0  0  0  0  0  0  0  0  0
    2.0000   -5.0950    0.0000 C   0  0  0  0  0  0  0  0  0  0  0  0
    7.8501    3.9876    0.0000 H   0  0  0  0  0  0  0  0  0  0  0  0
    7.4516    3.2973    0.0000 H   0  0  0  0  0  0  0  0  0  0  0  0
    9.1403    3.3224    0.0000 H   0  0  0  0  0  0  0  0  0  0  0  0
    9.5388    4.0127    0.0000 H   0  0  0  0  0  0  0  0  0  0  0  0
    8.2742    1.8224    0.0000 H   0  0  0  0  0  0  0  0  0  0  0  0
    8.6728    2.5127    0.0000 H   0  0  0  0  0  0  0  0  0  0  0  0
    8.7162    5.4876    0.0000 H   0  0  0  0  0  0  0  0  0  0  0  0
    8.3176    4.7973    0.0000 H   0  0  0  0  0  0  0  0  0  0  0  0
    6.9841    2.4876    0.0000 H   0  0  0  0  0  0  0  0  0  0  0  0
    6.5856    1.7973    0.0000 H   0  0  0  0  0  0  0  0  0  0  0  0
   10.0063    4.8224    0.0000 H   0  0  0  0  0  0  0  0  0  0  0  0
   10.4048    5.5127    0.0000 H   0  0  0  0  0  0  0  0  0  0  0  0
    7.4082    0.3224    0.0000 H   0  0  0  0  0  0  0  0  0  0  0  0
    7.8067    1.0127    0.0000 H   0  0  0  0  0  0  0  0  0  0  0  0
    9.5822    6.9876    0.0000 H   0  0  0  0  0  0  0  0  0  0  0  0
    9.1836    6.2973    0.0000 H   0  0  0  0  0  0  0  0  0  0  0  0
   10.9703    6.3681    0.0000 H   0  0  0  0  0  0  0  0  0  0  0  0
   11.1972    7.2150    0.0000 H   0  0  0  0  0  0  0  0  0  0  0  0
   10.3503    7.4419    0.0000 H   0  0  0  0  0  0  0  0  0  0  0  0
    6.5422   -1.1776    0.0000 H   0  0  0  0  0  0  0  0  0  0  0  0
    6.9407   -0.4873    0.0000 H   0  0  0  0  0  0  0  0  0  0  0  0
    6.0010   -2.4050    0.0000 H   0  0  0  0  0  0  0  0  0  0  0  0
    4.0611   -2.2850    0.0000 H   0  0  0  0  0  0  0  0  0  0  0  0
    3.1951   -3.7850    0.0000 H   0  0  0  0  0  0  0  0  0  0  0  0
    6.0010   -3.7850    0.0000 H   0  0  0  0  0  0  0  0  0  0  0  0
    6.0010   -5.4050    0.0000 H   0  0  0  0  0  0  0  0  0  0  0  0
    5.1350   -6.9050    0.0000 H   0  0  0  0  0  0  0  0  0  0  0  0
    2.3100   -4.5581    0.0000 H   0  0  0  0  0  0  0  0  0  0  0  0
    1.4631   -4.7850    0.0000 H   0  0  0  0  0  0  0  0  0  0  0  0
    1.6900   -5.6319    0.0000 H   0  0  0  0  0  0  0  0  0  0  0  0
  1 13  2  0  0  0  0
  2 16  2  0  0  0  0
  3 22  1  0  0  0  0
  3 25  1  0  0  0  0
  4 24  1  0  0  0  0
  4 52  1  0  0  0  0
  5  6  1  0  0  0  0
  5  7  1  0  0  0  0
  5 26  1  0  0  0  0
  5 27  1  0  0  0  0
  6  8  1  0  0  0  0
  6 28  1  0  0  0  0
  6 29  1  0  0  0  0
  7  9  1  0  0  0  0
  7 30  1  0  0  0  0
  7 31  1  0  0  0  0
  8 10  1  0  0  0  0
  8 32  1  0  0  0  0
  8 33  1  0  0  0  0
  9 11  1  0  0  0  0
  9 34  1  0  0  0  0
  9 35  1  0  0  0  0
 10 12  1  0  0  0  0
 10 36  1  0  0  0  0
 10 37  1  0  0  0  0
 11 13  1  0  0  0  0
 11 38  1  0  0  0  0
 11 39  1  0  0  0  0
 12 14  1  0  0  0  0
 12 40  1  0  0  0  0
 12 41  1  0  0  0  0
 13 15  1  0  0  0  0
 14 42  1  0  0  0  0
 14 43  1  0  0  0  0
 14 44  1  0  0  0  0
 15 16  1  0  0  0  0
 15 45  1  0  0  0  0
 15 46  1  0  0  0  0
 16 17  1  0  0  0  0
 17 18  2  0  0  0  0
 17 47  1  0  0  0  0
 18 19  1  0  0  0  0
 18 48  1  0  0  0  0
 19 20  2  0  0  0  0
 19 21  1  0  0  0  0
 20 22  1  0  0  0  0
 20 49  1  0  0  0  0
 21 23  2  0  0  0  0
 21 50  1  0  0  0  0
 22 24  2  0  0  0  0
 23 24  1  0  0  0  0
 23 51  1  0  0  0  0
 25 53  1  0  0  0  0
 25 54  1  0  0  0  0
 25 55  1  0  0  0  0
M  END
>  <PUBCHEM_COMPOUND_CID>
14999388

>  <PUBCHEM_COMPOUND_CANONICALIZED>
1

>  <PUBCHEM_CACTVS_COMPLEXITY>
416

>  <PUBCHEM_CACTVS_HBOND_ACCEPTOR>
4

>  <PUBCHEM_CACTVS_HBOND_DONOR>
1

>  <PUBCHEM_CACTVS_ROTATABLE_BOND>
13

>  <PUBCHEM_CACTVS_SUBSKEYS>
AAADceB4OAAAAAAAAAAAAAAAAAAAAAAAAAAwAAAAAAAAAAABAAAAGgAACAAADASAmAIyBoAABgCIAqBSAAACCAAgIAAIiAEGiMgNJjKOMRqAcCMkwBELuYeIyJCOIAABAAAAQABAAAIAAACAAAAAAAAAAA==

>  <PUBCHEM_IUPAC_OPENEYE_NAME>
(E)-1-(4-hydroxy-3-methoxy-phenyl)tetradec-1-ene-3,5-dione

>  <PUBCHEM_IUPAC_CAS_NAME>
(E)-1-(4-hydroxy-3-methoxyphenyl)-1-tetradecene-3,5-dione

>  <PUBCHEM_IUPAC_NAME>
(E)-1-(4-hydroxy-3-methoxyphenyl)tetradec-1-ene-3,5-dione

>  <PUBCHEM_IUPAC_SYSTEMATIC_NAME>
(E)-1-(3-methoxy-4-oxidanyl-phenyl)tetradec-1-ene-3,5-dione

>  <PUBCHEM_IUPAC_TRADITIONAL_NAME>
(E)-1-(4-hydroxy-3-methoxy-phenyl)tetradec-1-ene-3,5-dione

>  <PUBCHEM_IUPAC_INCHI>
InChI=1S/C21H30O4/c1-3-4-5-6-7-8-9-10-18(22)16-19(23)13-11-17-12-14-20(24)21(15-17)25-2/h11-15,24H,3-10,16H2,1-2H3/b13-11+

>  <PUBCHEM_IUPAC_INCHIKEY>
QJDGTTCAEQPSJA-ACCUITESSA-N

>  <PUBCHEM_XLOGP3>
5.7

>  <PUBCHEM_EXACT_MASS>
346.214

>  <PUBCHEM_MOLECULAR_FORMULA>
C21H30O4

>  <PUBCHEM_MOLECULAR_WEIGHT>
346.467

>  <PUBCHEM_OPENEYE_CAN_SMILES>
CCCCCCCCCC(=O)CC(=O)C=CC1=CC(=C(C=C1)O)OC

>  <PUBCHEM_OPENEYE_ISO_SMILES>
CCCCCCCCCC(=O)CC(=O)/C=C/C1=CC(=C(C=C1)O)OC

>  <PUBCHEM_CACTVS_TPSA>
63.6

>  <PUBCHEM_MONOISOTOPIC_WEIGHT>
346.214

>  <PUBCHEM_TOTAL_CHARGE>
0

>  <PUBCHEM_HEAVY_ATOM_COUNT>
25

>  <PUBCHEM_ATOM_DEF_STEREO_COUNT>
0

>  <PUBCHEM_ATOM_UDEF_STEREO_COUNT>
0

>  <PUBCHEM_BOND_DEF_STEREO_COUNT>
1

>  <PUBCHEM_BOND_UDEF_STEREO_COUNT>
0

>  <PUBCHEM_ISOTOPIC_ATOM_COUNT>
0

>  <PUBCHEM_COMPONENT_COUNT>
1

>  <PUBCHEM_CACTVS_TAUTO_COUNT>
28

>  <PUBCHEM_COORDINATE_TYPE>
1
5
255

>  <PUBCHEM_BONDANNOTATIONS>
19  20  8
19  21  8
20  22  8
21  23  8
22  24  8
23  24  8

$$$$
