15030923
 OpenBabel06101807152D

 23 24  0  0  0  0  0  0  0  0999 V2000
    8.2619    1.5630    0.0000 O   0  0  0  0  0  0  0  0  0  0  0  0
    8.2619   -0.1690    0.0000 O   0  0  0  0  0  0  0  0  0  0  0  0
    4.6783   -0.9737    0.0000 N   0  0  0  0  0  0  0  0  0  0  0  0
    3.7320   -0.6690    0.0000 C   0  0  0  0  0  0  0  0  0  0  0  0
    3.7320    0.3310    0.0000 C   0  0  0  0  0  0  0  0  0  0  0  0
    5.2619   -0.1690    0.0000 C   0  0  0  0  0  0  0  0  0  0  0  0
    4.6783    0.6357    0.0000 C   0  0  0  0  0  0  0  0  0  0  0  0
    2.8660   -1.1690    0.0000 C   0  0  0  0  0  0  0  0  0  0  0  0
    2.8660    0.8310    0.0000 C   0  0  0  0  0  0  0  0  0  0  0  0
    2.0000   -0.6690    0.0000 C   0  0  0  0  0  0  0  0  0  0  0  0
    2.0000    0.3310    0.0000 C   0  0  0  0  0  0  0  0  0  0  0  0
    6.2619   -0.1690    0.0000 C   0  0  0  0  0  0  0  0  0  0  0  0
    6.7619    0.6970    0.0000 C   0  0  0  0  0  0  0  0  0  0  0  0
    7.7619    0.6970    0.0000 C   0  0  0  0  0  0  0  0  0  0  0  0
    4.8709   -1.5630    0.0000 H   0  0  0  0  0  0  0  0  0  0  0  0
    4.8709    1.2251    0.0000 H   0  0  0  0  0  0  0  0  0  0  0  0
    2.8660   -1.7890    0.0000 H   0  0  0  0  0  0  0  0  0  0  0  0
    2.8660    1.4510    0.0000 H   0  0  0  0  0  0  0  0  0  0  0  0
    6.5719   -0.7059    0.0000 H   0  0  0  0  0  0  0  0  0  0  0  0
    1.4631   -0.9790    0.0000 H   0  0  0  0  0  0  0  0  0  0  0  0
    1.4631    0.6410    0.0000 H   0  0  0  0  0  0  0  0  0  0  0  0
    6.4519    1.2340    0.0000 H   0  0  0  0  0  0  0  0  0  0  0  0
    8.8819    1.5630    0.0000 H   0  0  0  0  0  0  0  0  0  0  0  0
  1 14  1  0  0  0  0
  1 23  1  0  0  0  0
  2 14  2  0  0  0  0
  3  4  1  0  0  0  0
  3  6  1  0  0  0  0
  3 15  1  0  0  0  0
  4  5  1  0  0  0  0
  4  8  2  0  0  0  0
  5  7  1  0  0  0  0
  5  9  2  0  0  0  0
  6  7  2  0  0  0  0
  6 12  1  0  0  0  0
  7 16  1  0  0  0  0
  8 10  1  0  0  0  0
  8 17  1  0  0  0  0
  9 11  1  0  0  0  0
  9 18  1  0  0  0  0
 10 11  2  0  0  0  0
 10 20  1  0  0  0  0
 11 21  1  0  0  0  0
 12 13  2  0  0  0  0
 12 19  1  0  0  0  0
 13 14  1  0  0  0  0
 13 22  1  0  0  0  0
M  END
>  <PUBCHEM_COMPOUND_CID>
15030923

>  <PUBCHEM_COMPOUND_CANONICALIZED>
1

>  <PUBCHEM_CACTVS_COMPLEXITY>
250

>  <PUBCHEM_CACTVS_HBOND_ACCEPTOR>
2

>  <PUBCHEM_CACTVS_HBOND_DONOR>
2

>  <PUBCHEM_CACTVS_ROTATABLE_BOND>
2

>  <PUBCHEM_CACTVS_SUBSKEYS>
AAADccByMAAAAAAAAAAAAAAAAAAAAWAAAAAwAAAAAAAAAFgB8AAAHgAQCAAADAiBngAwyPLJkgCoAyTyTACCgCAhAiAImSAwZNgIJOLAkZGEMAhgkADI2YcQgIAOAAAAAAACAAAAAAAAAAQAAAAAAAAAAA==

>  <PUBCHEM_IUPAC_OPENEYE_NAME>
(E)-3-(1H-indol-2-yl)prop-2-enoic acid

>  <PUBCHEM_IUPAC_CAS_NAME>
(E)-3-(1H-indol-2-yl)-2-propenoic acid

>  <PUBCHEM_IUPAC_NAME>
(E)-3-(1H-indol-2-yl)prop-2-enoic acid

>  <PUBCHEM_IUPAC_SYSTEMATIC_NAME>
(E)-3-(1H-indol-2-yl)prop-2-enoic acid

>  <PUBCHEM_IUPAC_TRADITIONAL_NAME>
(E)-3-(1H-indol-2-yl)acrylic acid

>  <PUBCHEM_IUPAC_INCHI>
InChI=1S/C11H9NO2/c13-11(14)6-5-9-7-8-3-1-2-4-10(8)12-9/h1-7,12H,(H,13,14)/b6-5+

>  <PUBCHEM_IUPAC_INCHIKEY>
SXOUIMVOMIGLHO-AATRIKPKSA-N

>  <PUBCHEM_XLOGP3>
2.1

>  <PUBCHEM_EXACT_MASS>
187.063

>  <PUBCHEM_MOLECULAR_FORMULA>
C11H9NO2

>  <PUBCHEM_MOLECULAR_WEIGHT>
187.198

>  <PUBCHEM_OPENEYE_CAN_SMILES>
C1=CC=C2C(=C1)C=C(N2)C=CC(=O)O

>  <PUBCHEM_OPENEYE_ISO_SMILES>
C1=CC=C2C(=C1)C=C(N2)/C=C/C(=O)O

>  <PUBCHEM_CACTVS_TPSA>
53.1

>  <PUBCHEM_MONOISOTOPIC_WEIGHT>
187.063

>  <PUBCHEM_TOTAL_CHARGE>
0

>  <PUBCHEM_HEAVY_ATOM_COUNT>
14

>  <PUBCHEM_ATOM_DEF_STEREO_COUNT>
0

>  <PUBCHEM_ATOM_UDEF_STEREO_COUNT>
0

>  <PUBCHEM_BOND_DEF_STEREO_COUNT>
1

>  <PUBCHEM_BOND_UDEF_STEREO_COUNT>
0

>  <PUBCHEM_ISOTOPIC_ATOM_COUNT>
0

>  <PUBCHEM_COMPONENT_COUNT>
1

>  <PUBCHEM_CACTVS_TAUTO_COUNT>
2

>  <PUBCHEM_COORDINATE_TYPE>
1
5
255

>  <PUBCHEM_BONDANNOTATIONS>
10  11  8
3  4  8
3  6  8
4  5  8
4  8  8
5  7  8
5  9  8
6  7  8
8  10  8
9  11  8

$$$$
