15060943
 OpenBabel06101807152D

 56 58  0  0  0  0  0  0  0  0999 V2000
    9.1987   -1.9101    0.0000 O   0  0  0  0  0  0  0  0  0  0  0  0
    2.1893   -1.9101    0.0000 O   0  0  0  0  0  0  0  0  0  0  0  0
    5.6940   -0.9976    0.0000 N   0  0  0  0  0  0  0  0  0  0  0  0
    6.5030   -1.5854    0.0000 C   0  0  0  0  0  0  0  0  0  0  0  0
    6.1940   -2.5364    0.0000 C   0  0  0  0  0  0  0  0  0  0  0  0
    5.1940   -2.5364    0.0000 C   0  0  0  0  0  0  0  0  0  0  0  0
    7.5184   -1.3531    0.0000 C   0  0  0  0  0  0  0  0  0  0  0  0
    4.8850   -1.5854    0.0000 C   0  0  0  0  0  0  0  0  0  0  0  0
    7.8164   -0.3985    0.0000 C   0  0  0  0  0  0  0  0  0  0  0  0
    8.2214   -2.1218    0.0000 C   0  0  0  0  0  0  0  0  0  0  0  0
    6.8790   -3.3211    0.0000 C   0  0  0  0  0  0  0  0  0  0  0  0
    4.5090   -3.3211    0.0000 C   0  0  0  0  0  0  0  0  0  0  0  0
    3.8696   -1.3531    0.0000 C   0  0  0  0  0  0  0  0  0  0  0  0
    7.8995   -3.1124    0.0000 C   0  0  0  0  0  0  0  0  0  0  0  0
    3.4885   -3.1124    0.0000 C   0  0  0  0  0  0  0  0  0  0  0  0
    8.7921   -0.1793    0.0000 C   0  0  0  0  0  0  0  0  0  0  0  0
    3.1667   -2.1218    0.0000 C   0  0  0  0  0  0  0  0  0  0  0  0
    9.0901    0.7752    0.0000 C   0  0  0  0  0  0  0  0  0  0  0  0
   10.0658    0.9945    0.0000 C   0  0  0  0  0  0  0  0  0  0  0  0
   10.3638    1.9490    0.0000 C   0  0  0  0  0  0  0  0  0  0  0  0
    2.8223   -3.8582    0.0000 C   0  0  0  0  0  0  0  0  0  0  0  0
    8.4124    1.5106    0.0000 C   0  0  0  0  0  0  0  0  0  0  0  0
   11.3395    2.1682    0.0000 C   0  0  0  0  0  0  0  0  0  0  0  0
    9.8707   -2.6507    0.0000 C   0  0  0  0  0  0  0  0  0  0  0  0
   11.6375    3.1228    0.0000 C   0  0  0  0  0  0  0  0  0  0  0  0
   12.6131    3.3420    0.0000 C   0  0  0  0  0  0  0  0  0  0  0  0
   10.9598    3.8582    0.0000 C   0  0  0  0  0  0  0  0  0  0  0  0
    5.6940   -0.3776    0.0000 H   0  0  0  0  0  0  0  0  0  0  0  0
    7.7876    0.2208    0.0000 H   0  0  0  0  0  0  0  0  0  0  0  0
    7.2015   -0.3193    0.0000 H   0  0  0  0  0  0  0  0  0  0  0  0
    6.6806   -3.9085    0.0000 H   0  0  0  0  0  0  0  0  0  0  0  0
    4.7074   -3.9085    0.0000 H   0  0  0  0  0  0  0  0  0  0  0  0
    3.6848   -0.7613    0.0000 H   0  0  0  0  0  0  0  0  0  0  0  0
    8.3126   -3.5748    0.0000 H   0  0  0  0  0  0  0  0  0  0  0  0
    9.2123   -0.6352    0.0000 H   0  0  0  0  0  0  0  0  0  0  0  0
   10.0946    0.3751    0.0000 H   0  0  0  0  0  0  0  0  0  0  0  0
   10.6807    0.9153    0.0000 H   0  0  0  0  0  0  0  0  0  0  0  0
   10.3350    2.5684    0.0000 H   0  0  0  0  0  0  0  0  0  0  0  0
    9.7489    2.0282    0.0000 H   0  0  0  0  0  0  0  0  0  0  0  0
    2.3599   -3.4451    0.0000 H   0  0  0  0  0  0  0  0  0  0  0  0
    2.4092   -4.3205    0.0000 H   0  0  0  0  0  0  0  0  0  0  0  0
    3.2846   -4.2712    0.0000 H   0  0  0  0  0  0  0  0  0  0  0  0
    8.8684    1.9308    0.0000 H   0  0  0  0  0  0  0  0  0  0  0  0
    7.9923    1.9665    0.0000 H   0  0  0  0  0  0  0  0  0  0  0  0
    7.9565    1.0904    0.0000 H   0  0  0  0  0  0  0  0  0  0  0  0
   11.7596    1.7123    0.0000 H   0  0  0  0  0  0  0  0  0  0  0  0
    2.0000   -1.3197    0.0000 H   0  0  0  0  0  0  0  0  0  0  0  0
    9.4116   -3.0673    0.0000 H   0  0  0  0  0  0  0  0  0  0  0  0
   10.2873   -3.1098    0.0000 H   0  0  0  0  0  0  0  0  0  0  0  0
   10.3299   -2.2340    0.0000 H   0  0  0  0  0  0  0  0  0  0  0  0
   12.7491    2.7371    0.0000 H   0  0  0  0  0  0  0  0  0  0  0  0
   13.2181    3.4779    0.0000 H   0  0  0  0  0  0  0  0  0  0  0  0
   12.4772    3.9469    0.0000 H   0  0  0  0  0  0  0  0  0  0  0  0
   11.4157    4.2783    0.0000 H   0  0  0  0  0  0  0  0  0  0  0  0
   10.5396    4.3141    0.0000 H   0  0  0  0  0  0  0  0  0  0  0  0
   10.5039    3.4380    0.0000 H   0  0  0  0  0  0  0  0  0  0  0  0
  1 10  1  0  0  0  0
  1 24  1  0  0  0  0
  2 17  1  0  0  0  0
  2 47  1  0  0  0  0
  3  4  1  0  0  0  0
  3  8  1  0  0  0  0
  3 28  1  0  0  0  0
  4  5  2  0  0  0  0
  4  7  1  0  0  0  0
  5  6  1  0  0  0  0
  5 11  1  0  0  0  0
  6  8  2  0  0  0  0
  6 12  1  0  0  0  0
  7  9  1  0  0  0  0
  7 10  2  0  0  0  0
  8 13  1  0  0  0  0
  9 16  1  0  0  0  0
  9 29  1  0  0  0  0
  9 30  1  0  0  0  0
 10 14  1  0  0  0  0
 11 14  2  0  0  0  0
 11 31  1  0  0  0  0
 12 15  2  0  0  0  0
 12 32  1  0  0  0  0
 13 17  2  0  0  0  0
 13 33  1  0  0  0  0
 14 34  1  0  0  0  0
 15 17  1  0  0  0  0
 15 21  1  0  0  0  0
 16 18  2  0  0  0  0
 16 35  1  0  0  0  0
 18 19  1  0  0  0  0
 18 22  1  0  0  0  0
 19 20  1  0  0  0  0
 19 36  1  0  0  0  0
 19 37  1  0  0  0  0
 20 23  1  0  0  0  0
 20 38  1  0  0  0  0
 20 39  1  0  0  0  0
 21 40  1  0  0  0  0
 21 41  1  0  0  0  0
 21 42  1  0  0  0  0
 22 43  1  0  0  0  0
 22 44  1  0  0  0  0
 22 45  1  0  0  0  0
 23 25  2  0  0  0  0
 23 46  1  0  0  0  0
 24 48  1  0  0  0  0
 24 49  1  0  0  0  0
 24 50  1  0  0  0  0
 25 26  1  0  0  0  0
 25 27  1  0  0  0  0
 26 51  1  0  0  0  0
 26 52  1  0  0  0  0
 26 53  1  0  0  0  0
 27 54  1  0  0  0  0
 27 55  1  0  0  0  0
 27 56  1  0  0  0  0
M  END
>  <PUBCHEM_COMPOUND_CID>
15060943

>  <PUBCHEM_COMPOUND_CANONICALIZED>
1

>  <PUBCHEM_CACTVS_COMPLEXITY>
551

>  <PUBCHEM_CACTVS_HBOND_ACCEPTOR>
2

>  <PUBCHEM_CACTVS_HBOND_DONOR>
2

>  <PUBCHEM_CACTVS_ROTATABLE_BOND>
6

>  <PUBCHEM_CACTVS_SUBSKEYS>
AAADceB6MAAAAAAAAAAAAAAAAAAAAWAAAAAwYAAAAAAAAFgB/AAAHgAQCAAADAyBngIyxvLJlgCgAyRiRACCiCAhIiAImSA2bJgMJuLGsZuEcChm0BnI+AeQ0PMOqAACAgAKAABQAAQEABQAAAAAAAAAAA==

>  <PUBCHEM_IUPAC_OPENEYE_NAME>
8-[(2E)-3,7-dimethylocta-2,6-dienyl]-7-methoxy-3-methyl-9H-carbazol-2-ol

>  <PUBCHEM_IUPAC_CAS_NAME>
8-[(2E)-3,7-dimethylocta-2,6-dienyl]-7-methoxy-3-methyl-9H-carbazol-2-ol

>  <PUBCHEM_IUPAC_NAME>
8-[(2E)-3,7-dimethylocta-2,6-dienyl]-7-methoxy-3-methyl-9H-carbazol-2-ol

>  <PUBCHEM_IUPAC_SYSTEMATIC_NAME>
8-[(2E)-3,7-dimethylocta-2,6-dienyl]-7-methoxy-3-methyl-9H-carbazol-2-ol

>  <PUBCHEM_IUPAC_TRADITIONAL_NAME>
8-[(2E)-3,7-dimethylocta-2,6-dienyl]-7-methoxy-3-methyl-9H-carbazol-2-ol

>  <PUBCHEM_IUPAC_INCHI>
InChI=1S/C24H29NO2/c1-15(2)7-6-8-16(3)9-10-19-23(27-5)12-11-18-20-13-17(4)22(26)14-21(20)25-24(18)19/h7,9,11-14,25-26H,6,8,10H2,1-5H3/b16-9+

>  <PUBCHEM_IUPAC_INCHIKEY>
OFHARTBNOLXMFZ-CXUHLZMHSA-N

>  <PUBCHEM_XLOGP3_AA>
7.2

>  <PUBCHEM_EXACT_MASS>
363.22

>  <PUBCHEM_MOLECULAR_FORMULA>
C24H29NO2

>  <PUBCHEM_MOLECULAR_WEIGHT>
363.501

>  <PUBCHEM_OPENEYE_CAN_SMILES>
CC1=C(C=C2C(=C1)C3=C(N2)C(=C(C=C3)OC)CC=C(C)CCC=C(C)C)O

>  <PUBCHEM_OPENEYE_ISO_SMILES>
CC1=C(C=C2C(=C1)C3=C(N2)C(=C(C=C3)OC)C/C=C(\C)/CCC=C(C)C)O

>  <PUBCHEM_CACTVS_TPSA>
45.2

>  <PUBCHEM_MONOISOTOPIC_WEIGHT>
363.22

>  <PUBCHEM_TOTAL_CHARGE>
0

>  <PUBCHEM_HEAVY_ATOM_COUNT>
27

>  <PUBCHEM_ATOM_DEF_STEREO_COUNT>
0

>  <PUBCHEM_ATOM_UDEF_STEREO_COUNT>
0

>  <PUBCHEM_BOND_DEF_STEREO_COUNT>
1

>  <PUBCHEM_BOND_UDEF_STEREO_COUNT>
0

>  <PUBCHEM_ISOTOPIC_ATOM_COUNT>
0

>  <PUBCHEM_COMPONENT_COUNT>
1

>  <PUBCHEM_CACTVS_TAUTO_COUNT>
9

>  <PUBCHEM_COORDINATE_TYPE>
1
5
255

>  <PUBCHEM_BONDANNOTATIONS>
10  14  8
11  14  8
12  15  8
13  17  8
15  17  8
3  4  8
3  8  8
4  5  8
4  7  8
5  11  8
5  6  8
6  12  8
6  8  8
7  10  8
8  13  8

$$$$
