15086398
 OpenBabel06101807152D

 74 78  0  0  0  0  0  0  0  0999 V2000
    7.7942   -3.1241    0.0000 O   0  0  0  0  0  0  0  0  0  0  0  0
   13.0564   -2.1483    0.0000 O   0  0  0  0  0  0  0  0  0  0  0  0
   13.0564   -0.1000    0.0000 O   0  0  0  0  0  0  0  0  0  0  0  0
    7.0326   -0.0316    0.0000 O   0  0  0  0  0  0  0  0  0  0  0  0
    7.7942   -5.1241    0.0000 O   0  0  0  0  0  0  0  0  0  0  0  0
    9.5262   -6.1241    0.0000 O   0  0  0  0  0  0  0  0  0  0  0  0
    2.6106   -5.6070    0.0000 O   0  0  0  0  0  0  0  0  0  0  0  0
    5.4875    5.8515    0.0000 O   0  0  0  0  0  0  0  0  0  0  0  0
    6.8094   -1.9505    0.0000 N   0  0  0  0  0  0  0  0  0  0  0  0
    8.3594    1.0816    0.0000 N   0  0  0  0  0  0  0  0  0  0  0  0
    9.5262   -2.1241    0.0000 C   0  0  0  0  0  0  0  0  0  0  0  0
   10.3923   -1.6241    0.0000 C   0  0  0  0  0  0  0  0  0  0  0  0
    8.6602   -1.6241    0.0000 C   0  0  0  0  0  0  0  0  0  0  0  0
   10.3923   -0.6241    0.0000 C   0  0  0  0  0  0  0  0  0  0  0  0
    8.6602   -0.6241    0.0000 C   0  0  0  0  0  0  0  0  0  0  0  0
    9.5262   -0.1241    0.0000 C   0  0  0  0  0  0  0  0  0  0  0  0
    9.5262   -3.1241    0.0000 C   0  0  0  0  0  0  0  0  0  0  0  0
   11.2862   -2.1588    0.0000 C   0  0  0  0  0  0  0  0  0  0  0  0
    7.7942   -2.1241    0.0000 C   0  0  0  0  0  0  0  0  0  0  0  0
   11.2862   -0.0895    0.0000 C   0  0  0  0  0  0  0  0  0  0  0  0
    8.0174    0.1419    0.0000 C   0  0  0  0  0  0  0  0  0  0  0  0
   12.1923   -1.6450    0.0000 C   0  0  0  0  0  0  0  0  0  0  0  0
    6.1666   -2.7164    0.0000 C   0  0  0  0  0  0  0  0  0  0  0  0
   12.1923   -0.6033    0.0000 C   0  0  0  0  0  0  0  0  0  0  0  0
    8.6602   -3.6241    0.0000 C   0  0  0  0  0  0  0  0  0  0  0  0
    7.7166    1.8476    0.0000 C   0  0  0  0  0  0  0  0  0  0  0  0
   10.3923   -3.6241    0.0000 C   0  0  0  0  0  0  0  0  0  0  0  0
    5.1818   -2.5429    0.0000 C   0  0  0  0  0  0  0  0  0  0  0  0
    8.0587    2.7873    0.0000 C   0  0  0  0  0  0  0  0  0  0  0  0
    8.6602   -4.6241    0.0000 C   0  0  0  0  0  0  0  0  0  0  0  0
   10.3923   -4.6241    0.0000 C   0  0  0  0  0  0  0  0  0  0  0  0
    4.5390   -3.3088    0.0000 C   0  0  0  0  0  0  0  0  0  0  0  0
    7.4159    3.5534    0.0000 C   0  0  0  0  0  0  0  0  0  0  0  0
    9.5262   -5.1241    0.0000 C   0  0  0  0  0  0  0  0  0  0  0  0
    3.5542   -3.1353    0.0000 C   0  0  0  0  0  0  0  0  0  0  0  0
    4.8810   -4.2486    0.0000 C   0  0  0  0  0  0  0  0  0  0  0  0
    7.7579    4.4931    0.0000 C   0  0  0  0  0  0  0  0  0  0  0  0
    6.4311    3.3797    0.0000 C   0  0  0  0  0  0  0  0  0  0  0  0
    2.9114   -3.9012    0.0000 C   0  0  0  0  0  0  0  0  0  0  0  0
    4.2382   -5.0146    0.0000 C   0  0  0  0  0  0  0  0  0  0  0  0
    7.1151    5.2591    0.0000 C   0  0  0  0  0  0  0  0  0  0  0  0
    5.7883    4.1458    0.0000 C   0  0  0  0  0  0  0  0  0  0  0  0
    3.2534   -4.8409    0.0000 C   0  0  0  0  0  0  0  0  0  0  0  0
    6.1303    5.0855    0.0000 C   0  0  0  0  0  0  0  0  0  0  0  0
    9.5262    0.4959    0.0000 H   0  0  0  0  0  0  0  0  0  0  0  0
   11.2790   -2.7788    0.0000 H   0  0  0  0  0  0  0  0  0  0  0  0
   11.2790    0.5305    0.0000 H   0  0  0  0  0  0  0  0  0  0  0  0
    5.9545   -3.2990    0.0000 H   0  0  0  0  0  0  0  0  0  0  0  0
    6.7035   -3.0264    0.0000 H   0  0  0  0  0  0  0  0  0  0  0  0
    6.5973   -1.3679    0.0000 H   0  0  0  0  0  0  0  0  0  0  0  0
    8.1233   -3.3141    0.0000 H   0  0  0  0  0  0  0  0  0  0  0  0
    7.1797    2.1576    0.0000 H   0  0  0  0  0  0  0  0  0  0  0  0
    7.3181    1.3727    0.0000 H   0  0  0  0  0  0  0  0  0  0  0  0
   10.9292   -3.3141    0.0000 H   0  0  0  0  0  0  0  0  0  0  0  0
    8.9700    1.1893    0.0000 H   0  0  0  0  0  0  0  0  0  0  0  0
    5.3938   -1.9603    0.0000 H   0  0  0  0  0  0  0  0  0  0  0  0
    4.6448   -2.2329    0.0000 H   0  0  0  0  0  0  0  0  0  0  0  0
    8.5956    2.4773    0.0000 H   0  0  0  0  0  0  0  0  0  0  0  0
    8.4572    3.2623    0.0000 H   0  0  0  0  0  0  0  0  0  0  0  0
   10.9292   -4.9341    0.0000 H   0  0  0  0  0  0  0  0  0  0  0  0
    3.3421   -2.5527    0.0000 H   0  0  0  0  0  0  0  0  0  0  0  0
    5.4915   -4.3562    0.0000 H   0  0  0  0  0  0  0  0  0  0  0  0
   13.5945   -1.8404    0.0000 H   0  0  0  0  0  0  0  0  0  0  0  0
   13.0540    0.5200    0.0000 H   0  0  0  0  0  0  0  0  0  0  0  0
    8.3685    4.6007    0.0000 H   0  0  0  0  0  0  0  0  0  0  0  0
    6.2190    2.7971    0.0000 H   0  0  0  0  0  0  0  0  0  0  0  0
    2.3008   -3.7935    0.0000 H   0  0  0  0  0  0  0  0  0  0  0  0
    4.4502   -5.5972    0.0000 H   0  0  0  0  0  0  0  0  0  0  0  0
    7.3272    5.8417    0.0000 H   0  0  0  0  0  0  0  0  0  0  0  0
    5.1777    4.0381    0.0000 H   0  0  0  0  0  0  0  0  0  0  0  0
    7.7942   -5.7441    0.0000 H   0  0  0  0  0  0  0  0  0  0  0  0
   10.0632   -6.4341    0.0000 H   0  0  0  0  0  0  0  0  0  0  0  0
    2.0000   -5.4993    0.0000 H   0  0  0  0  0  0  0  0  0  0  0  0
    5.6996    6.4341    0.0000 H   0  0  0  0  0  0  0  0  0  0  0  0
  1 19  2  0  0  0  0
  2 22  1  0  0  0  0
  2 63  1  0  0  0  0
  3 24  1  0  0  0  0
  3 64  1  0  0  0  0
  4 21  2  0  0  0  0
  5 30  1  0  0  0  0
  5 71  1  0  0  0  0
  6 34  1  0  0  0  0
  6 72  1  0  0  0  0
  7 43  1  0  0  0  0
  7 73  1  0  0  0  0
  8 44  1  0  0  0  0
  8 74  1  0  0  0  0
  9 19  1  0  0  0  0
  9 23  1  0  0  0  0
  9 50  1  0  0  0  0
 10 21  1  0  0  0  0
 10 26  1  0  0  0  0
 10 55  1  0  0  0  0
 11 12  2  0  0  0  0
 11 13  1  0  0  0  0
 11 17  1  0  0  0  0
 12 14  1  0  0  0  0
 12 18  1  0  0  0  0
 13 15  2  0  0  0  0
 13 19  1  0  0  0  0
 14 16  2  0  0  0  0
 14 20  1  0  0  0  0
 15 16  1  0  0  0  0
 15 21  1  0  0  0  0
 16 45  1  0  0  0  0
 17 25  2  0  0  0  0
 17 27  1  0  0  0  0
 18 22  2  0  0  0  0
 18 46  1  0  0  0  0
 20 24  2  0  0  0  0
 20 47  1  0  0  0  0
 22 24  1  0  0  0  0
 23 28  1  0  0  0  0
 23 48  1  0  0  0  0
 23 49  1  0  0  0  0
 25 30  1  0  0  0  0
 25 51  1  0  0  0  0
 26 29  1  0  0  0  0
 26 52  1  0  0  0  0
 26 53  1  0  0  0  0
 27 31  2  0  0  0  0
 27 54  1  0  0  0  0
 28 32  1  0  0  0  0
 28 56  1  0  0  0  0
 28 57  1  0  0  0  0
 29 33  1  0  0  0  0
 29 58  1  0  0  0  0
 29 59  1  0  0  0  0
 30 34  2  0  0  0  0
 31 34  1  0  0  0  0
 31 60  1  0  0  0  0
 32 35  2  0  0  0  0
 32 36  1  0  0  0  0
 33 37  2  0  0  0  0
 33 38  1  0  0  0  0
 35 39  1  0  0  0  0
 35 61  1  0  0  0  0
 36 40  2  0  0  0  0
 36 62  1  0  0  0  0
 37 41  1  0  0  0  0
 37 65  1  0  0  0  0
 38 42  2  0  0  0  0
 38 66  1  0  0  0  0
 39 43  2  0  0  0  0
 39 67  1  0  0  0  0
 40 43  1  0  0  0  0
 40 68  1  0  0  0  0
 41 44  2  0  0  0  0
 41 69  1  0  0  0  0
 42 44  1  0  0  0  0
 42 70  1  0  0  0  0
M  END
>  <PUBCHEM_COMPOUND_CID>
15086398

>  <PUBCHEM_COMPOUND_CANONICALIZED>
1

>  <PUBCHEM_CACTVS_COMPLEXITY>
936

>  <PUBCHEM_CACTVS_HBOND_ACCEPTOR>
8

>  <PUBCHEM_CACTVS_HBOND_DONOR>
8

>  <PUBCHEM_CACTVS_ROTATABLE_BOND>
9

>  <PUBCHEM_CACTVS_SUBSKEYS>
AAADceB/PAAAAAAAAAAAAAAAAAAAAAAAAAAwYMGDAAAAAADBVAAAHgAQCAAADATBmAQwBsLAAgCIAiFSEACCAAAkIAAIiIEOjMgJJjKClROEcQlk1hGJmYedyPCO4AADAAAQQADAAAYAACCAAAAAAAAAAA==

>  <PUBCHEM_IUPAC_OPENEYE_NAME>
1-(3,4-dihydroxyphenyl)-6,7-dihydroxy-N2,N3-bis[2-(4-hydroxyphenyl)ethyl]naphthalene-2,3-dicarboxamide

>  <PUBCHEM_IUPAC_CAS_NAME>
1-(3,4-dihydroxyphenyl)-6,7-dihydroxy-N2,N3-bis[2-(4-hydroxyphenyl)ethyl]naphthalene-2,3-dicarboxamide

>  <PUBCHEM_IUPAC_NAME>
1-(3,4-dihydroxyphenyl)-6,7-dihydroxy-2-N,3-N-bis[2-(4-hydroxyphenyl)ethyl]naphthalene-2,3-dicarboxamide

>  <PUBCHEM_IUPAC_SYSTEMATIC_NAME>
1-[3,4-bis(oxidanyl)phenyl]-N2,N3-bis[2-(4-hydroxyphenyl)ethyl]-6,7-bis(oxidanyl)naphthalene-2,3-dicarboxamide

>  <PUBCHEM_IUPAC_TRADITIONAL_NAME>
1-(3,4-dihydroxyphenyl)-6,7-dihydroxy-N,N'-bis[2-(4-hydroxyphenyl)ethyl]naphthalene-2,3-dicarboxamide

>  <PUBCHEM_IUPAC_INCHI>
InChI=1S/C34H30N2O8/c37-23-6-1-19(2-7-23)11-13-35-33(43)26-15-22-17-29(41)30(42)18-25(22)31(21-5-10-27(39)28(40)16-21)32(26)34(44)36-14-12-20-3-8-24(38)9-4-20/h1-10,15-18,37-42H,11-14H2,(H,35,43)(H,36,44)

>  <PUBCHEM_IUPAC_INCHIKEY>
CLNINZAIEQRASP-UHFFFAOYSA-N

>  <PUBCHEM_XLOGP3_AA>
5.1

>  <PUBCHEM_EXACT_MASS>
594.2

>  <PUBCHEM_MOLECULAR_FORMULA>
C34H30N2O8

>  <PUBCHEM_MOLECULAR_WEIGHT>
594.62

>  <PUBCHEM_OPENEYE_CAN_SMILES>
C1=CC(=CC=C1CCNC(=O)C2=C(C(=C3C=C(C(=CC3=C2)O)O)C4=CC(=C(C=C4)O)O)C(=O)NCCC5=CC=C(C=C5)O)O

>  <PUBCHEM_OPENEYE_ISO_SMILES>
C1=CC(=CC=C1CCNC(=O)C2=C(C(=C3C=C(C(=CC3=C2)O)O)C4=CC(=C(C=C4)O)O)C(=O)NCCC5=CC=C(C=C5)O)O

>  <PUBCHEM_CACTVS_TPSA>
180

>  <PUBCHEM_MONOISOTOPIC_WEIGHT>
594.2

>  <PUBCHEM_TOTAL_CHARGE>
0

>  <PUBCHEM_HEAVY_ATOM_COUNT>
44

>  <PUBCHEM_ATOM_DEF_STEREO_COUNT>
0

>  <PUBCHEM_ATOM_UDEF_STEREO_COUNT>
0

>  <PUBCHEM_BOND_DEF_STEREO_COUNT>
0

>  <PUBCHEM_BOND_UDEF_STEREO_COUNT>
0

>  <PUBCHEM_ISOTOPIC_ATOM_COUNT>
0

>  <PUBCHEM_COMPONENT_COUNT>
1

>  <PUBCHEM_CACTVS_TAUTO_COUNT>
996

>  <PUBCHEM_COORDINATE_TYPE>
1
5
255

>  <PUBCHEM_BONDANNOTATIONS>
11  12  8
11  13  8
12  14  8
12  18  8
13  15  8
14  16  8
14  20  8
15  16  8
17  25  8
17  27  8
18  22  8
20  24  8
22  24  8
25  30  8
27  31  8
30  34  8
31  34  8
32  35  8
32  36  8
33  37  8
33  38  8
35  39  8
36  40  8
37  41  8
38  42  8
39  43  8
40  43  8
41  44  8
42  44  8

$$$$
