15082186
 OpenBabel06101807152D

 45 48  0  0  0  0  0  0  0  0999 V2000
    9.8984    1.1276    0.0000 O   0  0  0  0  0  0  0  0  0  0  0  0
    6.3624    1.1555    0.0000 O   0  0  0  0  0  0  0  0  0  0  0  0
    8.1224   -1.8792    0.0000 O   0  0  0  0  0  0  0  0  0  0  0  0
    6.3740   -1.9138    0.0000 O   0  0  0  0  0  0  0  0  0  0  0  0
    3.7205    0.5933    0.0000 O   0  0  0  0  0  0  0  0  0  0  0  0
    2.0000   -2.4134    0.0000 O   0  0  0  0  0  0  0  0  0  0  0  0
    9.9065    2.1692    0.0000 C   0  0  0  0  0  0  0  0  0  0  0  0
    8.1224    1.1208    0.0000 C   0  0  0  0  0  0  0  0  0  0  0  0
    8.9884    0.6208    0.0000 C   0  0  0  0  0  0  0  0  0  0  0  0
    9.0044    2.6901    0.0000 C   0  0  0  0  0  0  0  0  0  0  0  0
    7.2564    0.6208    0.0000 C   0  0  0  0  0  0  0  0  0  0  0  0
    7.2564   -0.3792    0.0000 C   0  0  0  0  0  0  0  0  0  0  0  0
    8.1063    2.1623    0.0000 C   0  0  0  0  0  0  0  0  0  0  0  0
   10.4098    3.0333    0.0000 C   0  0  0  0  0  0  0  0  0  0  0  0
   10.9065    2.1654    0.0000 C   0  0  0  0  0  0  0  0  0  0  0  0
    8.9884   -0.3792    0.0000 C   0  0  0  0  0  0  0  0  0  0  0  0
    8.1224   -0.8792    0.0000 C   0  0  0  0  0  0  0  0  0  0  0  0
    6.3624   -0.9139    0.0000 C   0  0  0  0  0  0  0  0  0  0  0  0
    5.4564   -0.4000    0.0000 C   0  0  0  0  0  0  0  0  0  0  0  0
    5.4564    0.6416    0.0000 C   0  0  0  0  0  0  0  0  0  0  0  0
    4.5923   -0.9033    0.0000 C   0  0  0  0  0  0  0  0  0  0  0  0
    3.7243   -0.4067    0.0000 C   0  0  0  0  0  0  0  0  0  0  0  0
    4.5961   -1.9033    0.0000 C   0  0  0  0  0  0  0  0  0  0  0  0
    2.8602   -0.9100    0.0000 C   0  0  0  0  0  0  0  0  0  0  0  0
    8.9884   -2.3792    0.0000 C   0  0  0  0  0  0  0  0  0  0  0  0
    3.7320   -2.4067    0.0000 C   0  0  0  0  0  0  0  0  0  0  0  0
    2.8641   -1.9100    0.0000 C   0  0  0  0  0  0  0  0  0  0  0  0
    9.0020    3.3101    0.0000 H   0  0  0  0  0  0  0  0  0  0  0  0
    7.5659    2.4661    0.0000 H   0  0  0  0  0  0  0  0  0  0  0  0
   10.9455    2.7213    0.0000 H   0  0  0  0  0  0  0  0  0  0  0  0
   10.9041    1.5454    0.0000 H   0  0  0  0  0  0  0  0  0  0  0  0
   11.5264    2.1630    0.0000 H   0  0  0  0  0  0  0  0  0  0  0  0
   10.9088    2.7854    0.0000 H   0  0  0  0  0  0  0  0  0  0  0  0
   10.7219    3.5691    0.0000 H   0  0  0  0  0  0  0  0  0  0  0  0
    9.8740    3.3454    0.0000 H   0  0  0  0  0  0  0  0  0  0  0  0
    9.5254   -0.6892    0.0000 H   0  0  0  0  0  0  0  0  0  0  0  0
    4.9206    0.9537    0.0000 H   0  0  0  0  0  0  0  0  0  0  0  0
    5.1343   -2.2113    0.0000 H   0  0  0  0  0  0  0  0  0  0  0  0
    2.3221   -0.6021    0.0000 H   0  0  0  0  0  0  0  0  0  0  0  0
    8.6784   -2.9161    0.0000 H   0  0  0  0  0  0  0  0  0  0  0  0
    9.5254   -2.6892    0.0000 H   0  0  0  0  0  0  0  0  0  0  0  0
    9.2984   -1.8423    0.0000 H   0  0  0  0  0  0  0  0  0  0  0  0
    3.7344   -3.0267    0.0000 H   0  0  0  0  0  0  0  0  0  0  0  0
    3.1824    0.9012    0.0000 H   0  0  0  0  0  0  0  0  0  0  0  0
    2.0024   -3.0333    0.0000 H   0  0  0  0  0  0  0  0  0  0  0  0
  1  7  1  0  0  0  0
  1  9  1  0  0  0  0
  2 11  1  0  0  0  0
  2 20  1  0  0  0  0
  3 17  1  0  0  0  0
  3 25  1  0  0  0  0
  4 18  2  0  0  0  0
  5 22  1  0  0  0  0
  5 44  1  0  0  0  0
  6 27  1  0  0  0  0
  6 45  1  0  0  0  0
  7 10  1  0  0  0  0
  7 14  1  0  0  0  0
  7 15  1  0  0  0  0
  8  9  1  0  0  0  0
  8 11  2  0  0  0  0
  8 13  1  0  0  0  0
  9 16  2  0  0  0  0
 10 13  2  0  0  0  0
 10 28  1  0  0  0  0
 11 12  1  0  0  0  0
 12 17  2  0  0  0  0
 12 18  1  0  0  0  0
 13 29  1  0  0  0  0
 14 30  1  0  0  0  0
 14 34  1  0  0  0  0
 14 35  1  0  0  0  0
 15 31  1  0  0  0  0
 15 32  1  0  0  0  0
 15 33  1  0  0  0  0
 16 17  1  0  0  0  0
 16 36  1  0  0  0  0
 18 19  1  0  0  0  0
 19 20  2  0  0  0  0
 19 21  1  0  0  0  0
 20 37  1  0  0  0  0
 21 22  2  0  0  0  0
 21 23  1  0  0  0  0
 22 24  1  0  0  0  0
 23 26  2  0  0  0  0
 23 38  1  0  0  0  0
 24 27  2  0  0  0  0
 24 39  1  0  0  0  0
 25 40  1  0  0  0  0
 25 41  1  0  0  0  0
 25 42  1  0  0  0  0
 26 27  1  0  0  0  0
 26 43  1  0  0  0  0
M  END
>  <PUBCHEM_COMPOUND_CID>
15082186

>  <PUBCHEM_COMPOUND_CANONICALIZED>
1

>  <PUBCHEM_CACTVS_COMPLEXITY>
653

>  <PUBCHEM_CACTVS_HBOND_ACCEPTOR>
6

>  <PUBCHEM_CACTVS_HBOND_DONOR>
2

>  <PUBCHEM_CACTVS_ROTATABLE_BOND>
2

>  <PUBCHEM_CACTVS_SUBSKEYS>
AAADceB4OAAAAAAAAAAAAAAAAAAAAAAAAAAwYIEAAAAAAACBQAAAGgAACAAADESgmAIyBoAABgCIAqBSAAACCAAkIAAIiAEGCMgMJzaGNRqCeWCl4BUIuYeK7PzOIAACCAAIAABAAAQQABAAAAAAAAAAAA==

>  <PUBCHEM_IUPAC_OPENEYE_NAME>
3-(2,4-dihydroxyphenyl)-5-methoxy-8,8-dimethyl-pyrano[2,3-h]chromen-4-one

>  <PUBCHEM_IUPAC_CAS_NAME>
3-(2,4-dihydroxyphenyl)-5-methoxy-8,8-dimethyl-4-pyrano[2,3-h][1]benzopyranone

>  <PUBCHEM_IUPAC_NAME>
3-(2,4-dihydroxyphenyl)-5-methoxy-8,8-dimethylpyrano[2,3-h]chromen-4-one

>  <PUBCHEM_IUPAC_SYSTEMATIC_NAME>
3-[2,4-bis(oxidanyl)phenyl]-5-methoxy-8,8-dimethyl-pyrano[2,3-h]chromen-4-one

>  <PUBCHEM_IUPAC_TRADITIONAL_NAME>
3-(2,4-dihydroxyphenyl)-5-methoxy-8,8-dimethyl-pyrano[2,3-h]chromen-4-one

>  <PUBCHEM_IUPAC_INCHI>
InChI=1S/C21H18O6/c1-21(2)7-6-13-16(27-21)9-17(25-3)18-19(24)14(10-26-20(13)18)12-5-4-11(22)8-15(12)23/h4-10,22-23H,1-3H3

>  <PUBCHEM_IUPAC_INCHIKEY>
MBCXSBCMGKGGJW-UHFFFAOYSA-N

>  <PUBCHEM_XLOGP3_AA>
3.4

>  <PUBCHEM_EXACT_MASS>
366.11

>  <PUBCHEM_MOLECULAR_FORMULA>
C21H18O6

>  <PUBCHEM_MOLECULAR_WEIGHT>
366.369

>  <PUBCHEM_OPENEYE_CAN_SMILES>
CC1(C=CC2=C3C(=C(C=C2O1)OC)C(=O)C(=CO3)C4=C(C=C(C=C4)O)O)C

>  <PUBCHEM_OPENEYE_ISO_SMILES>
CC1(C=CC2=C3C(=C(C=C2O1)OC)C(=O)C(=CO3)C4=C(C=C(C=C4)O)O)C

>  <PUBCHEM_CACTVS_TPSA>
85.2

>  <PUBCHEM_MONOISOTOPIC_WEIGHT>
366.11

>  <PUBCHEM_TOTAL_CHARGE>
0

>  <PUBCHEM_HEAVY_ATOM_COUNT>
27

>  <PUBCHEM_ATOM_DEF_STEREO_COUNT>
0

>  <PUBCHEM_ATOM_UDEF_STEREO_COUNT>
0

>  <PUBCHEM_BOND_DEF_STEREO_COUNT>
0

>  <PUBCHEM_BOND_UDEF_STEREO_COUNT>
0

>  <PUBCHEM_ISOTOPIC_ATOM_COUNT>
0

>  <PUBCHEM_COMPONENT_COUNT>
1

>  <PUBCHEM_CACTVS_TAUTO_COUNT>
9

>  <PUBCHEM_COORDINATE_TYPE>
1
5
255

>  <PUBCHEM_BONDANNOTATIONS>
11  12  8
12  17  8
12  18  8
16  17  8
18  19  8
19  20  8
2  11  8
2  20  8
21  22  8
21  23  8
22  24  8
23  26  8
24  27  8
26  27  8
8  11  8
8  9  8
9  16  8

$$$$
