151922
 OpenBabel06101807152D

 48 48  0  0  0  0  0  0  0  0999 V2000
    8.0622    5.8450    0.0000 O   0  0  0  0  0  0  0  0  0  0  0  0
    8.9282    4.3450    0.0000 O   0  0  0  0  0  0  0  0  0  0  0  0
    5.4641    0.3450    0.0000 C   0  0  0  0  0  0  0  0  0  0  0  0
    4.5981   -0.1550    0.0000 C   0  0  0  0  0  0  0  0  0  0  0  0
    5.4641    1.3450    0.0000 C   0  0  0  0  0  0  0  0  0  0  0  0
    4.5981   -1.1550    0.0000 C   0  0  0  0  0  0  0  0  0  0  0  0
    6.3301    1.8450    0.0000 C   0  0  0  0  0  0  0  0  0  0  0  0
    3.7320   -1.6550    0.0000 C   0  0  0  0  0  0  0  0  0  0  0  0
    6.3301    2.8450    0.0000 C   0  0  0  0  0  0  0  0  0  0  0  0
    3.7320   -2.6550    0.0000 C   0  0  0  0  0  0  0  0  0  0  0  0
    7.1962    3.3450    0.0000 C   0  0  0  0  0  0  0  0  0  0  0  0
    2.8660   -3.1550    0.0000 C   0  0  0  0  0  0  0  0  0  0  0  0
    7.1962    4.3450    0.0000 C   0  0  0  0  0  0  0  0  0  0  0  0
    2.8660   -4.1550    0.0000 C   0  0  0  0  0  0  0  0  0  0  0  0
    2.0000   -4.6550    0.0000 C   0  0  0  0  0  0  0  0  0  0  0  0
    3.7320   -4.6550    0.0000 C   0  0  0  0  0  0  0  0  0  0  0  0
    8.0622    4.8450    0.0000 C   0  0  0  0  0  0  0  0  0  0  0  0
    2.0000   -5.6550    0.0000 C   0  0  0  0  0  0  0  0  0  0  0  0
    3.7320   -5.6550    0.0000 C   0  0  0  0  0  0  0  0  0  0  0  0
    2.8660   -6.1550    0.0000 C   0  0  0  0  0  0  0  0  0  0  0  0
    5.6762   -0.2376    0.0000 H   0  0  0  0  0  0  0  0  0  0  0  0
    6.0747    0.4527    0.0000 H   0  0  0  0  0  0  0  0  0  0  0  0
    4.3860    0.4276    0.0000 H   0  0  0  0  0  0  0  0  0  0  0  0
    3.9875   -0.2627    0.0000 H   0  0  0  0  0  0  0  0  0  0  0  0
    5.2520    1.9276    0.0000 H   0  0  0  0  0  0  0  0  0  0  0  0
    4.8535    1.2373    0.0000 H   0  0  0  0  0  0  0  0  0  0  0  0
    4.8101   -1.7376    0.0000 H   0  0  0  0  0  0  0  0  0  0  0  0
    5.2087   -1.0473    0.0000 H   0  0  0  0  0  0  0  0  0  0  0  0
    6.5422    1.2624    0.0000 H   0  0  0  0  0  0  0  0  0  0  0  0
    6.9407    1.9527    0.0000 H   0  0  0  0  0  0  0  0  0  0  0  0
    3.5200   -1.0724    0.0000 H   0  0  0  0  0  0  0  0  0  0  0  0
    3.1215   -1.7627    0.0000 H   0  0  0  0  0  0  0  0  0  0  0  0
    6.1181    3.4276    0.0000 H   0  0  0  0  0  0  0  0  0  0  0  0
    5.7196    2.7373    0.0000 H   0  0  0  0  0  0  0  0  0  0  0  0
    3.9441   -3.2376    0.0000 H   0  0  0  0  0  0  0  0  0  0  0  0
    4.3426   -2.5473    0.0000 H   0  0  0  0  0  0  0  0  0  0  0  0
    7.4082    2.7624    0.0000 H   0  0  0  0  0  0  0  0  0  0  0  0
    7.8067    3.4527    0.0000 H   0  0  0  0  0  0  0  0  0  0  0  0
    2.6540   -2.5724    0.0000 H   0  0  0  0  0  0  0  0  0  0  0  0
    2.2554   -3.2627    0.0000 H   0  0  0  0  0  0  0  0  0  0  0  0
    6.9841    4.9276    0.0000 H   0  0  0  0  0  0  0  0  0  0  0  0
    6.5856    4.2373    0.0000 H   0  0  0  0  0  0  0  0  0  0  0  0
    1.4631   -4.3450    0.0000 H   0  0  0  0  0  0  0  0  0  0  0  0
    4.2690   -4.3450    0.0000 H   0  0  0  0  0  0  0  0  0  0  0  0
    1.4631   -5.9650    0.0000 H   0  0  0  0  0  0  0  0  0  0  0  0
    4.2690   -5.9650    0.0000 H   0  0  0  0  0  0  0  0  0  0  0  0
    2.8660   -6.7750    0.0000 H   0  0  0  0  0  0  0  0  0  0  0  0
    8.5991    6.1550    0.0000 H   0  0  0  0  0  0  0  0  0  0  0  0
  1 17  1  0  0  0  0
  1 48  1  0  0  0  0
  2 17  2  0  0  0  0
  3  4  1  0  0  0  0
  3  5  1  0  0  0  0
  3 21  1  0  0  0  0
  3 22  1  0  0  0  0
  4  6  1  0  0  0  0
  4 23  1  0  0  0  0
  4 24  1  0  0  0  0
  5  7  1  0  0  0  0
  5 25  1  0  0  0  0
  5 26  1  0  0  0  0
  6  8  1  0  0  0  0
  6 27  1  0  0  0  0
  6 28  1  0  0  0  0
  7  9  1  0  0  0  0
  7 29  1  0  0  0  0
  7 30  1  0  0  0  0
  8 10  1  0  0  0  0
  8 31  1  0  0  0  0
  8 32  1  0  0  0  0
  9 11  1  0  0  0  0
  9 33  1  0  0  0  0
  9 34  1  0  0  0  0
 10 12  1  0  0  0  0
 10 35  1  0  0  0  0
 10 36  1  0  0  0  0
 11 13  1  0  0  0  0
 11 37  1  0  0  0  0
 11 38  1  0  0  0  0
 12 14  1  0  0  0  0
 12 39  1  0  0  0  0
 12 40  1  0  0  0  0
 13 17  1  0  0  0  0
 13 41  1  0  0  0  0
 13 42  1  0  0  0  0
 14 15  2  0  0  0  0
 14 16  1  0  0  0  0
 15 18  1  0  0  0  0
 15 43  1  0  0  0  0
 16 19  2  0  0  0  0
 16 44  1  0  0  0  0
 18 20  2  0  0  0  0
 18 45  1  0  0  0  0
 19 20  1  0  0  0  0
 19 46  1  0  0  0  0
 20 47  1  0  0  0  0
M  END
>  <PUBCHEM_COMPOUND_CID>
151922

>  <PUBCHEM_COMPOUND_CANONICALIZED>
1

>  <PUBCHEM_CACTVS_COMPLEXITY>
232

>  <PUBCHEM_CACTVS_HBOND_ACCEPTOR>
2

>  <PUBCHEM_CACTVS_HBOND_DONOR>
1

>  <PUBCHEM_CACTVS_ROTATABLE_BOND>
12

>  <PUBCHEM_CACTVS_SUBSKEYS>
AAADceB4MAAAAAAAAAAAAAAAAAAAAAAAAAAwAAAAAAAAAAABAAAAGgAACAAADACAmAAwCIAAAgCIAiDSCAACAAAgAAAIiAEAAIgIIDKAERCAYAAkgAAIiAeIyOCOAAAAAAAAAAAAAAAAAAAAAAAAAAAAAA==

>  <PUBCHEM_IUPAC_OPENEYE_NAME>
12-phenyldodecanoic acid

>  <PUBCHEM_IUPAC_CAS_NAME>
12-phenyldodecanoic acid

>  <PUBCHEM_IUPAC_NAME>
12-phenyldodecanoic acid

>  <PUBCHEM_IUPAC_SYSTEMATIC_NAME>
12-phenyldodecanoic acid

>  <PUBCHEM_IUPAC_TRADITIONAL_NAME>
12-phenyllauric acid

>  <PUBCHEM_IUPAC_INCHI>
InChI=1S/C18H28O2/c19-18(20)16-12-7-5-3-1-2-4-6-9-13-17-14-10-8-11-15-17/h8,10-11,14-15H,1-7,9,12-13,16H2,(H,19,20)

>  <PUBCHEM_IUPAC_INCHIKEY>
IXEHFJJSVBVZHI-UHFFFAOYSA-N

>  <PUBCHEM_XLOGP3>
6.3

>  <PUBCHEM_EXACT_MASS>
276.209

>  <PUBCHEM_MOLECULAR_FORMULA>
C18H28O2

>  <PUBCHEM_MOLECULAR_WEIGHT>
276.42

>  <PUBCHEM_OPENEYE_CAN_SMILES>
C1=CC=C(C=C1)CCCCCCCCCCCC(=O)O

>  <PUBCHEM_OPENEYE_ISO_SMILES>
C1=CC=C(C=C1)CCCCCCCCCCCC(=O)O

>  <PUBCHEM_CACTVS_TPSA>
37.3

>  <PUBCHEM_MONOISOTOPIC_WEIGHT>
276.209

>  <PUBCHEM_TOTAL_CHARGE>
0

>  <PUBCHEM_HEAVY_ATOM_COUNT>
20

>  <PUBCHEM_ATOM_DEF_STEREO_COUNT>
0

>  <PUBCHEM_ATOM_UDEF_STEREO_COUNT>
0

>  <PUBCHEM_BOND_DEF_STEREO_COUNT>
0

>  <PUBCHEM_BOND_UDEF_STEREO_COUNT>
0

>  <PUBCHEM_ISOTOPIC_ATOM_COUNT>
0

>  <PUBCHEM_COMPONENT_COUNT>
1

>  <PUBCHEM_CACTVS_TAUTO_COUNT>
24

>  <PUBCHEM_COORDINATE_TYPE>
1
5
255

>  <PUBCHEM_BONDANNOTATIONS>
14  15  8
14  16  8
15  18  8
16  19  8
18  20  8
19  20  8

$$$$
