15222911
 OpenBabel06101807152D

 41 43  0  0  0  0  0  0  0  0999 V2000
    6.3981   -0.1754    0.0000 O   0  0  0  0  0  0  0  0  0  0  0  0
   10.7282    0.3246    0.0000 O   0  0  0  0  0  0  0  0  0  0  0  0
    8.9962   -2.6754    0.0000 O   0  0  0  0  0  0  0  0  0  0  0  0
    2.8680   -0.1995    0.0000 O   0  0  0  0  0  0  0  0  0  0  0  0
    4.6497    2.8592    0.0000 O   0  0  0  0  0  0  0  0  0  0  0  0
    6.3981    2.8246    0.0000 O   0  0  0  0  0  0  0  0  0  0  0  0
   10.7282   -1.6754    0.0000 O   0  0  0  0  0  0  0  0  0  0  0  0
    5.5320    1.3246    0.0000 C   0  0  0  0  0  0  0  0  0  0  0  0
    7.2641    0.3246    0.0000 C   0  0  0  0  0  0  0  0  0  0  0  0
    8.1301   -0.1754    0.0000 C   0  0  0  0  0  0  0  0  0  0  0  0
    5.5320    0.3246    0.0000 C   0  0  0  0  0  0  0  0  0  0  0  0
    6.3981    1.8246    0.0000 C   0  0  0  0  0  0  0  0  0  0  0  0
    7.2641    1.3246    0.0000 C   0  0  0  0  0  0  0  0  0  0  0  0
    4.6381    1.8593    0.0000 C   0  0  0  0  0  0  0  0  0  0  0  0
    8.1301   -1.1754    0.0000 C   0  0  0  0  0  0  0  0  0  0  0  0
    8.9962    0.3246    0.0000 C   0  0  0  0  0  0  0  0  0  0  0  0
    4.6381   -0.2101    0.0000 C   0  0  0  0  0  0  0  0  0  0  0  0
    9.8622   -0.1754    0.0000 C   0  0  0  0  0  0  0  0  0  0  0  0
    8.9962   -1.6754    0.0000 C   0  0  0  0  0  0  0  0  0  0  0  0
    3.7320    0.3038    0.0000 C   0  0  0  0  0  0  0  0  0  0  0  0
    3.7320    1.3454    0.0000 C   0  0  0  0  0  0  0  0  0  0  0  0
    9.8622   -1.1754    0.0000 C   0  0  0  0  0  0  0  0  0  0  0  0
   10.7282    1.3246    0.0000 C   0  0  0  0  0  0  0  0  0  0  0  0
    8.1301   -3.1754    0.0000 C   0  0  0  0  0  0  0  0  0  0  0  0
    2.0000    0.2971    0.0000 C   0  0  0  0  0  0  0  0  0  0  0  0
    7.8010    1.6346    0.0000 H   0  0  0  0  0  0  0  0  0  0  0  0
    7.5932   -1.4854    0.0000 H   0  0  0  0  0  0  0  0  0  0  0  0
    8.9962    0.9446    0.0000 H   0  0  0  0  0  0  0  0  0  0  0  0
    4.6453   -0.8300    0.0000 H   0  0  0  0  0  0  0  0  0  0  0  0
    3.1963    1.6575    0.0000 H   0  0  0  0  0  0  0  0  0  0  0  0
    4.1164    3.1754    0.0000 H   0  0  0  0  0  0  0  0  0  0  0  0
   11.2651   -1.3654    0.0000 H   0  0  0  0  0  0  0  0  0  0  0  0
   11.3482    1.3246    0.0000 H   0  0  0  0  0  0  0  0  0  0  0  0
   10.7282    1.9446    0.0000 H   0  0  0  0  0  0  0  0  0  0  0  0
   10.1082    1.3246    0.0000 H   0  0  0  0  0  0  0  0  0  0  0  0
    7.8201   -2.6385    0.0000 H   0  0  0  0  0  0  0  0  0  0  0  0
    7.5932   -3.4854    0.0000 H   0  0  0  0  0  0  0  0  0  0  0  0
    8.4401   -3.7123    0.0000 H   0  0  0  0  0  0  0  0  0  0  0  0
    2.3079    0.8352    0.0000 H   0  0  0  0  0  0  0  0  0  0  0  0
    1.4619    0.6050    0.0000 H   0  0  0  0  0  0  0  0  0  0  0  0
    1.6921   -0.2410    0.0000 H   0  0  0  0  0  0  0  0  0  0  0  0
  1  9  1  0  0  0  0
  1 11  1  0  0  0  0
  2 18  1  0  0  0  0
  2 23  1  0  0  0  0
  3 19  1  0  0  0  0
  3 24  1  0  0  0  0
  4 20  1  0  0  0  0
  4 25  1  0  0  0  0
  5 14  1  0  0  0  0
  5 31  1  0  0  0  0
  6 12  2  0  0  0  0
  7 22  1  0  0  0  0
  7 32  1  0  0  0  0
  8 11  1  0  0  0  0
  8 12  1  0  0  0  0
  8 14  2  0  0  0  0
  9 10  1  0  0  0  0
  9 13  2  0  0  0  0
 10 15  2  0  0  0  0
 10 16  1  0  0  0  0
 11 17  2  0  0  0  0
 12 13  1  0  0  0  0
 13 26  1  0  0  0  0
 14 21  1  0  0  0  0
 15 19  1  0  0  0  0
 15 27  1  0  0  0  0
 16 18  2  0  0  0  0
 16 28  1  0  0  0  0
 17 20  1  0  0  0  0
 17 29  1  0  0  0  0
 18 22  1  0  0  0  0
 19 22  2  0  0  0  0
 20 21  2  0  0  0  0
 21 30  1  0  0  0  0
 23 33  1  0  0  0  0
 23 34  1  0  0  0  0
 23 35  1  0  0  0  0
 24 36  1  0  0  0  0
 24 37  1  0  0  0  0
 24 38  1  0  0  0  0
 25 39  1  0  0  0  0
 25 40  1  0  0  0  0
 25 41  1  0  0  0  0
M  END
>  <PUBCHEM_COMPOUND_CID>
15222911

>  <PUBCHEM_COMPOUND_CANONICALIZED>
1

>  <PUBCHEM_CACTVS_COMPLEXITY>
506

>  <PUBCHEM_CACTVS_HBOND_ACCEPTOR>
7

>  <PUBCHEM_CACTVS_HBOND_DONOR>
2

>  <PUBCHEM_CACTVS_ROTATABLE_BOND>
4

>  <PUBCHEM_CACTVS_SUBSKEYS>
AAADceB4OAAAAAAAAAAAAAAAAAAAAAAAAAAwYIAAAAAAAACBQAAAGgAACAAADASAmAIyBoAABgCIAqBSAAACCAAkIAAAiAEGiMgNJzaGNRqCeWOl4BULuQfI7LzOIAABCAAIQABAAAIQABCAAAAAAAAAAA==

>  <PUBCHEM_IUPAC_OPENEYE_NAME>
5-hydroxy-2-(4-hydroxy-3,5-dimethoxy-phenyl)-7-methoxy-chromen-4-one

>  <PUBCHEM_IUPAC_CAS_NAME>
5-hydroxy-2-(4-hydroxy-3,5-dimethoxyphenyl)-7-methoxy-1-benzopyran-4-one

>  <PUBCHEM_IUPAC_NAME>
5-hydroxy-2-(4-hydroxy-3,5-dimethoxyphenyl)-7-methoxychromen-4-one

>  <PUBCHEM_IUPAC_SYSTEMATIC_NAME>
2-(3,5-dimethoxy-4-oxidanyl-phenyl)-7-methoxy-5-oxidanyl-chromen-4-one

>  <PUBCHEM_IUPAC_TRADITIONAL_NAME>
5-hydroxy-2-(4-hydroxy-3,5-dimethoxy-phenyl)-7-methoxy-chromone

>  <PUBCHEM_IUPAC_INCHI>
InChI=1S/C18H16O7/c1-22-10-6-11(19)17-12(20)8-13(25-14(17)7-10)9-4-15(23-2)18(21)16(5-9)24-3/h4-8,19,21H,1-3H3

>  <PUBCHEM_IUPAC_INCHIKEY>
VIKKUMIXGIDYKY-UHFFFAOYSA-N

>  <PUBCHEM_XLOGP3>
2

>  <PUBCHEM_EXACT_MASS>
344.09

>  <PUBCHEM_MOLECULAR_FORMULA>
C18H16O7

>  <PUBCHEM_MOLECULAR_WEIGHT>
344.319

>  <PUBCHEM_OPENEYE_CAN_SMILES>
COC1=CC(=C2C(=C1)OC(=CC2=O)C3=CC(=C(C(=C3)OC)O)OC)O

>  <PUBCHEM_OPENEYE_ISO_SMILES>
COC1=CC(=C2C(=C1)OC(=CC2=O)C3=CC(=C(C(=C3)OC)O)OC)O

>  <PUBCHEM_CACTVS_TPSA>
94.4

>  <PUBCHEM_MONOISOTOPIC_WEIGHT>
344.09

>  <PUBCHEM_TOTAL_CHARGE>
0

>  <PUBCHEM_HEAVY_ATOM_COUNT>
25

>  <PUBCHEM_ATOM_DEF_STEREO_COUNT>
0

>  <PUBCHEM_ATOM_UDEF_STEREO_COUNT>
0

>  <PUBCHEM_BOND_DEF_STEREO_COUNT>
0

>  <PUBCHEM_BOND_UDEF_STEREO_COUNT>
0

>  <PUBCHEM_ISOTOPIC_ATOM_COUNT>
0

>  <PUBCHEM_COMPONENT_COUNT>
1

>  <PUBCHEM_CACTVS_TAUTO_COUNT>
24

>  <PUBCHEM_COORDINATE_TYPE>
1
5
255

>  <PUBCHEM_BONDANNOTATIONS>
1  11  8
1  9  8
10  15  8
10  16  8
11  17  8
12  13  8
14  21  8
15  19  8
16  18  8
17  20  8
18  22  8
19  22  8
20  21  8
8  11  8
8  12  8
8  14  8
9  13  8

$$$$
