15224752
 OpenBabel06101807152D

 39 41  0  0  0  0  0  0  0  0999 V2000
    6.3580   -0.2699    0.0000 O   0  0  0  0  0  0  0  0  0  0  0  0
    2.8660    1.7648    0.0000 O   0  0  0  0  0  0  0  0  0  0  0  0
    2.8660   -0.2352    0.0000 O   0  0  0  0  0  0  0  0  0  0  0  0
    4.5981    2.7648    0.0000 O   0  0  0  0  0  0  0  0  0  0  0  0
    4.5981   -1.2352    0.0000 O   0  0  0  0  0  0  0  0  0  0  0  0
    6.3465    2.7994    0.0000 O   0  0  0  0  0  0  0  0  0  0  0  0
    8.9846   -2.7627    0.0000 O   0  0  0  0  0  0  0  0  0  0  0  0
   10.7205   -1.7694    0.0000 O   0  0  0  0  0  0  0  0  0  0  0  0
    5.4641    1.2648    0.0000 C   0  0  0  0  0  0  0  0  0  0  0  0
    5.4641    0.2648    0.0000 C   0  0  0  0  0  0  0  0  0  0  0  0
    4.5981    1.7648    0.0000 C   0  0  0  0  0  0  0  0  0  0  0  0
    7.2641    0.2440    0.0000 C   0  0  0  0  0  0  0  0  0  0  0  0
    4.5981   -0.2352    0.0000 C   0  0  0  0  0  0  0  0  0  0  0  0
    6.3580    1.7994    0.0000 C   0  0  0  0  0  0  0  0  0  0  0  0
    3.7320    1.2648    0.0000 C   0  0  0  0  0  0  0  0  0  0  0  0
    3.7320    0.2648    0.0000 C   0  0  0  0  0  0  0  0  0  0  0  0
    7.2641    1.2856    0.0000 C   0  0  0  0  0  0  0  0  0  0  0  0
    8.1282   -0.2594    0.0000 C   0  0  0  0  0  0  0  0  0  0  0  0
    8.1244   -1.2594    0.0000 C   0  0  0  0  0  0  0  0  0  0  0  0
    8.9962    0.2373    0.0000 C   0  0  0  0  0  0  0  0  0  0  0  0
    8.9884   -1.7627    0.0000 C   0  0  0  0  0  0  0  0  0  0  0  0
    9.8602   -0.2661    0.0000 C   0  0  0  0  0  0  0  0  0  0  0  0
    9.8564   -1.2660    0.0000 C   0  0  0  0  0  0  0  0  0  0  0  0
    2.0000    1.2648    0.0000 C   0  0  0  0  0  0  0  0  0  0  0  0
    2.8660   -1.2352    0.0000 C   0  0  0  0  0  0  0  0  0  0  0  0
    7.7998    1.5976    0.0000 H   0  0  0  0  0  0  0  0  0  0  0  0
    7.5862   -1.5673    0.0000 H   0  0  0  0  0  0  0  0  0  0  0  0
    8.9985    0.8573    0.0000 H   0  0  0  0  0  0  0  0  0  0  0  0
   10.3984    0.0419    0.0000 H   0  0  0  0  0  0  0  0  0  0  0  0
    4.0611    3.0748    0.0000 H   0  0  0  0  0  0  0  0  0  0  0  0
    4.0611   -1.5452    0.0000 H   0  0  0  0  0  0  0  0  0  0  0  0
    1.6900    1.8017    0.0000 H   0  0  0  0  0  0  0  0  0  0  0  0
    1.4631    0.9548    0.0000 H   0  0  0  0  0  0  0  0  0  0  0  0
    2.3100    0.7278    0.0000 H   0  0  0  0  0  0  0  0  0  0  0  0
    2.2460   -1.2352    0.0000 H   0  0  0  0  0  0  0  0  0  0  0  0
    2.8660   -1.8552    0.0000 H   0  0  0  0  0  0  0  0  0  0  0  0
    3.4860   -1.2352    0.0000 H   0  0  0  0  0  0  0  0  0  0  0  0
    9.5203   -3.0748    0.0000 H   0  0  0  0  0  0  0  0  0  0  0  0
   11.2586   -1.4615    0.0000 H   0  0  0  0  0  0  0  0  0  0  0  0
  1 10  1  0  0  0  0
  1 12  1  0  0  0  0
  2 15  1  0  0  0  0
  2 24  1  0  0  0  0
  3 16  1  0  0  0  0
  3 25  1  0  0  0  0
  4 11  1  0  0  0  0
  4 30  1  0  0  0  0
  5 13  1  0  0  0  0
  5 31  1  0  0  0  0
  6 14  2  0  0  0  0
  7 21  1  0  0  0  0
  7 38  1  0  0  0  0
  8 23  1  0  0  0  0
  8 39  1  0  0  0  0
  9 10  1  0  0  0  0
  9 11  2  0  0  0  0
  9 14  1  0  0  0  0
 10 13  2  0  0  0  0
 11 15  1  0  0  0  0
 12 17  2  0  0  0  0
 12 18  1  0  0  0  0
 13 16  1  0  0  0  0
 14 17  1  0  0  0  0
 15 16  2  0  0  0  0
 17 26  1  0  0  0  0
 18 19  2  0  0  0  0
 18 20  1  0  0  0  0
 19 21  1  0  0  0  0
 19 27  1  0  0  0  0
 20 22  2  0  0  0  0
 20 28  1  0  0  0  0
 21 23  2  0  0  0  0
 22 23  1  0  0  0  0
 22 29  1  0  0  0  0
 24 32  1  0  0  0  0
 24 33  1  0  0  0  0
 24 34  1  0  0  0  0
 25 35  1  0  0  0  0
 25 36  1  0  0  0  0
 25 37  1  0  0  0  0
M  END
>  <PUBCHEM_COMPOUND_CID>
15224752

>  <PUBCHEM_COMPOUND_CANONICALIZED>
1

>  <PUBCHEM_CACTVS_COMPLEXITY>
535

>  <PUBCHEM_CACTVS_HBOND_ACCEPTOR>
8

>  <PUBCHEM_CACTVS_HBOND_DONOR>
4

>  <PUBCHEM_CACTVS_ROTATABLE_BOND>
3

>  <PUBCHEM_CACTVS_SUBSKEYS>
AAADccB4PAAAAAAAAAAAAAAAAAAAAAAAAAAwYIAAAAAAAACBQAAAGgAACAAADASAmAIyBoAABgCIAqBSAAACCAAkIAAIiAEGiMgNJzaGNRqCeWOl4BULuQfK7LzOIQABCAAIQABCAAIQABCAAAAAAAAAAA==

>  <PUBCHEM_IUPAC_OPENEYE_NAME>
2-(3,4-dihydroxyphenyl)-5,8-dihydroxy-6,7-dimethoxy-chromen-4-one

>  <PUBCHEM_IUPAC_CAS_NAME>
2-(3,4-dihydroxyphenyl)-5,8-dihydroxy-6,7-dimethoxy-1-benzopyran-4-one

>  <PUBCHEM_IUPAC_NAME>
2-(3,4-dihydroxyphenyl)-5,8-dihydroxy-6,7-dimethoxychromen-4-one

>  <PUBCHEM_IUPAC_SYSTEMATIC_NAME>
2-[3,4-bis(oxidanyl)phenyl]-6,7-dimethoxy-5,8-bis(oxidanyl)chromen-4-one

>  <PUBCHEM_IUPAC_TRADITIONAL_NAME>
2-(3,4-dihydroxyphenyl)-5,8-dihydroxy-6,7-dimethoxy-chromone

>  <PUBCHEM_IUPAC_INCHI>
InChI=1S/C17H14O8/c1-23-16-13(21)12-10(20)6-11(7-3-4-8(18)9(19)5-7)25-15(12)14(22)17(16)24-2/h3-6,18-19,21-22H,1-2H3

>  <PUBCHEM_IUPAC_INCHIKEY>
VZNIMRVJHRTTKA-UHFFFAOYSA-N

>  <PUBCHEM_XLOGP3_AA>
2.3

>  <PUBCHEM_EXACT_MASS>
346.069

>  <PUBCHEM_MOLECULAR_FORMULA>
C17H14O8

>  <PUBCHEM_MOLECULAR_WEIGHT>
346.291

>  <PUBCHEM_OPENEYE_CAN_SMILES>
COC1=C(C2=C(C(=C1OC)O)OC(=CC2=O)C3=CC(=C(C=C3)O)O)O

>  <PUBCHEM_OPENEYE_ISO_SMILES>
COC1=C(C2=C(C(=C1OC)O)OC(=CC2=O)C3=CC(=C(C=C3)O)O)O

>  <PUBCHEM_CACTVS_TPSA>
126

>  <PUBCHEM_MONOISOTOPIC_WEIGHT>
346.069

>  <PUBCHEM_TOTAL_CHARGE>
0

>  <PUBCHEM_HEAVY_ATOM_COUNT>
25

>  <PUBCHEM_ATOM_DEF_STEREO_COUNT>
0

>  <PUBCHEM_ATOM_UDEF_STEREO_COUNT>
0

>  <PUBCHEM_BOND_DEF_STEREO_COUNT>
0

>  <PUBCHEM_BOND_UDEF_STEREO_COUNT>
0

>  <PUBCHEM_ISOTOPIC_ATOM_COUNT>
0

>  <PUBCHEM_COMPONENT_COUNT>
1

>  <PUBCHEM_CACTVS_TAUTO_COUNT>
170

>  <PUBCHEM_COORDINATE_TYPE>
1
5
255

>  <PUBCHEM_BONDANNOTATIONS>
1  10  8
1  12  8
10  13  8
11  15  8
12  17  8
13  16  8
14  17  8
15  16  8
18  19  8
18  20  8
19  21  8
20  22  8
21  23  8
22  23  8
9  10  8
9  11  8
9  14  8

$$$$
