15233561
 OpenBabel06101807152D

 54 57  0  0  0  0  0  0  0  0999 V2000
   12.6221   -1.0347    0.0000 O   0  0  0  0  0  0  0  0  0  0  0  0
    3.9061   -1.0347    0.0000 O   0  0  0  0  0  0  0  0  0  0  0  0
   10.8622    2.0000    0.0000 O   0  0  0  0  0  0  0  0  0  0  0  0
    5.6660   -2.0000    0.0000 O   0  0  0  0  0  0  0  0  0  0  0  0
    9.1301    2.0000    0.0000 O   0  0  0  0  0  0  0  0  0  0  0  0
   13.5282   -0.5208    0.0000 C   0  0  0  0  0  0  0  0  0  0  0  0
    3.0000   -0.5208    0.0000 C   0  0  0  0  0  0  0  0  0  0  0  0
   13.5282    0.5208    0.0000 C   0  0  0  0  0  0  0  0  0  0  0  0
    3.0000    0.5208    0.0000 C   0  0  0  0  0  0  0  0  0  0  0  0
   11.7282    0.5000    0.0000 C   0  0  0  0  0  0  0  0  0  0  0  0
   11.7282   -0.5000    0.0000 C   0  0  0  0  0  0  0  0  0  0  0  0
    4.8000   -0.5000    0.0000 C   0  0  0  0  0  0  0  0  0  0  0  0
    4.8000    0.5000    0.0000 C   0  0  0  0  0  0  0  0  0  0  0  0
   14.5282   -0.5247    0.0000 C   0  0  0  0  0  0  0  0  0  0  0  0
   14.0249   -1.3888    0.0000 C   0  0  0  0  0  0  0  0  0  0  0  0
    2.0000   -0.5247    0.0000 C   0  0  0  0  0  0  0  0  0  0  0  0
    2.5033   -1.3888    0.0000 C   0  0  0  0  0  0  0  0  0  0  0  0
   12.6221    1.0347    0.0000 C   0  0  0  0  0  0  0  0  0  0  0  0
    3.9061    1.0347    0.0000 C   0  0  0  0  0  0  0  0  0  0  0  0
   10.8622    1.0000    0.0000 C   0  0  0  0  0  0  0  0  0  0  0  0
    5.6660    1.0000    0.0000 C   0  0  0  0  0  0  0  0  0  0  0  0
    5.6660   -1.0000    0.0000 C   0  0  0  0  0  0  0  0  0  0  0  0
    9.9962    0.5000    0.0000 C   0  0  0  0  0  0  0  0  0  0  0  0
    6.5320    0.5000    0.0000 C   0  0  0  0  0  0  0  0  0  0  0  0
   10.8622   -1.0000    0.0000 C   0  0  0  0  0  0  0  0  0  0  0  0
    6.5320   -0.5000    0.0000 C   0  0  0  0  0  0  0  0  0  0  0  0
    9.9962   -0.5000    0.0000 C   0  0  0  0  0  0  0  0  0  0  0  0
    9.1301    1.0000    0.0000 C   0  0  0  0  0  0  0  0  0  0  0  0
    7.3981    1.0000    0.0000 C   0  0  0  0  0  0  0  0  0  0  0  0
    8.2641    0.5000    0.0000 C   0  0  0  0  0  0  0  0  0  0  0  0
   14.0640    0.8329    0.0000 H   0  0  0  0  0  0  0  0  0  0  0  0
    2.4643    0.8329    0.0000 H   0  0  0  0  0  0  0  0  0  0  0  0
   13.4867   -1.6967    0.0000 H   0  0  0  0  0  0  0  0  0  0  0  0
   14.3328   -1.9269    0.0000 H   0  0  0  0  0  0  0  0  0  0  0  0
   14.5630   -1.0808    0.0000 H   0  0  0  0  0  0  0  0  0  0  0  0
   14.5258   -1.1447    0.0000 H   0  0  0  0  0  0  0  0  0  0  0  0
   15.1482   -0.5271    0.0000 H   0  0  0  0  0  0  0  0  0  0  0  0
   14.5306    0.0953    0.0000 H   0  0  0  0  0  0  0  0  0  0  0  0
    1.9652   -1.0808    0.0000 H   0  0  0  0  0  0  0  0  0  0  0  0
    1.9976    0.0953    0.0000 H   0  0  0  0  0  0  0  0  0  0  0  0
    1.3800   -0.5271    0.0000 H   0  0  0  0  0  0  0  0  0  0  0  0
    2.0024   -1.1447    0.0000 H   0  0  0  0  0  0  0  0  0  0  0  0
    2.1954   -1.9269    0.0000 H   0  0  0  0  0  0  0  0  0  0  0  0
    3.0415   -1.6967    0.0000 H   0  0  0  0  0  0  0  0  0  0  0  0
   12.6150    1.6546    0.0000 H   0  0  0  0  0  0  0  0  0  0  0  0
    3.9132    1.6546    0.0000 H   0  0  0  0  0  0  0  0  0  0  0  0
    5.6660    1.6200    0.0000 H   0  0  0  0  0  0  0  0  0  0  0  0
   10.8622   -1.6200    0.0000 H   0  0  0  0  0  0  0  0  0  0  0  0
    7.0690   -0.8100    0.0000 H   0  0  0  0  0  0  0  0  0  0  0  0
    9.4592   -0.8100    0.0000 H   0  0  0  0  0  0  0  0  0  0  0  0
    7.3981    1.6200    0.0000 H   0  0  0  0  0  0  0  0  0  0  0  0
    8.2641   -0.1200    0.0000 H   0  0  0  0  0  0  0  0  0  0  0  0
   11.3991    2.3100    0.0000 H   0  0  0  0  0  0  0  0  0  0  0  0
    6.2030   -2.3100    0.0000 H   0  0  0  0  0  0  0  0  0  0  0  0
  1  6  1  0  0  0  0
  1 11  1  0  0  0  0
  2  7  1  0  0  0  0
  2 12  1  0  0  0  0
  3 20  1  0  0  0  0
  3 53  1  0  0  0  0
  4 22  1  0  0  0  0
  4 54  1  0  0  0  0
  5 28  2  0  0  0  0
  6  8  1  0  0  0  0
  6 14  1  0  0  0  0
  6 15  1  0  0  0  0
  7  9  1  0  0  0  0
  7 16  1  0  0  0  0
  7 17  1  0  0  0  0
  8 18  2  0  0  0  0
  8 31  1  0  0  0  0
  9 19  2  0  0  0  0
  9 32  1  0  0  0  0
 10 11  2  0  0  0  0
 10 18  1  0  0  0  0
 10 20  1  0  0  0  0
 11 25  1  0  0  0  0
 12 13  2  0  0  0  0
 12 22  1  0  0  0  0
 13 19  1  0  0  0  0
 13 21  1  0  0  0  0
 14 36  1  0  0  0  0
 14 37  1  0  0  0  0
 14 38  1  0  0  0  0
 15 33  1  0  0  0  0
 15 34  1  0  0  0  0
 15 35  1  0  0  0  0
 16 40  1  0  0  0  0
 16 41  1  0  0  0  0
 16 42  1  0  0  0  0
 17 39  1  0  0  0  0
 17 43  1  0  0  0  0
 17 44  1  0  0  0  0
 18 45  1  0  0  0  0
 19 46  1  0  0  0  0
 20 23  2  0  0  0  0
 21 24  2  0  0  0  0
 21 47  1  0  0  0  0
 22 26  2  0  0  0  0
 23 27  1  0  0  0  0
 23 28  1  0  0  0  0
 24 26  1  0  0  0  0
 24 29  1  0  0  0  0
 25 27  2  0  0  0  0
 25 48  1  0  0  0  0
 26 49  1  0  0  0  0
 27 50  1  0  0  0  0
 28 30  1  0  0  0  0
 29 30  2  0  0  0  0
 29 51  1  0  0  0  0
 30 52  1  0  0  0  0
M  END
>  <PUBCHEM_COMPOUND_CID>
15233561

>  <PUBCHEM_COMPOUND_CANONICALIZED>
1

>  <PUBCHEM_CACTVS_COMPLEXITY>
749

>  <PUBCHEM_CACTVS_HBOND_ACCEPTOR>
5

>  <PUBCHEM_CACTVS_HBOND_DONOR>
2

>  <PUBCHEM_CACTVS_ROTATABLE_BOND>
3

>  <PUBCHEM_CACTVS_SUBSKEYS>
AAADceB4OAAAAAAAAAAAAAAAAAAAAAAAAAAwYIEAAAAAAACBQAAAGgAACAAADESAmAAyBoAABgCIAqBSAAACCAAkIAAIiAEGiMgNJzaGNRqCeWOl4BULuYeI7PzOIAADCAAIQABAAAYQABCAAAAAAAAAAA==

>  <PUBCHEM_IUPAC_OPENEYE_NAME>
(E)-1-(5-hydroxy-2,2-dimethyl-chromen-6-yl)-3-(8-hydroxy-2,2-dimethyl-chromen-6-yl)prop-2-en-1-one

>  <PUBCHEM_IUPAC_CAS_NAME>
(E)-1-(5-hydroxy-2,2-dimethyl-1-benzopyran-6-yl)-3-(8-hydroxy-2,2-dimethyl-1-benzopyran-6-yl)-2-propen-1-one

>  <PUBCHEM_IUPAC_NAME>
(E)-1-(5-hydroxy-2,2-dimethylchromen-6-yl)-3-(8-hydroxy-2,2-dimethylchromen-6-yl)prop-2-en-1-one

>  <PUBCHEM_IUPAC_SYSTEMATIC_NAME>
(E)-1-(2,2-dimethyl-5-oxidanyl-chromen-6-yl)-3-(2,2-dimethyl-8-oxidanyl-chromen-6-yl)prop-2-en-1-one

>  <PUBCHEM_IUPAC_TRADITIONAL_NAME>
(E)-1-(5-hydroxy-2,2-dimethyl-chromen-6-yl)-3-(8-hydroxy-2,2-dimethyl-chromen-6-yl)prop-2-en-1-one

>  <PUBCHEM_IUPAC_INCHI>
InChI=1S/C25H24O5/c1-24(2)12-10-18-21(29-24)8-6-17(22(18)28)19(26)7-5-15-13-16-9-11-25(3,4)30-23(16)20(27)14-15/h5-14,27-28H,1-4H3/b7-5+

>  <PUBCHEM_IUPAC_INCHIKEY>
JIQHAMDPLDKKBS-FNORWQNLSA-N

>  <PUBCHEM_XLOGP3_AA>
5.4

>  <PUBCHEM_EXACT_MASS>
404.162

>  <PUBCHEM_MOLECULAR_FORMULA>
C25H24O5

>  <PUBCHEM_MOLECULAR_WEIGHT>
404.462

>  <PUBCHEM_OPENEYE_CAN_SMILES>
CC1(C=CC2=CC(=CC(=C2O1)O)C=CC(=O)C3=C(C4=C(C=C3)OC(C=C4)(C)C)O)C

>  <PUBCHEM_OPENEYE_ISO_SMILES>
CC1(C=CC2=CC(=CC(=C2O1)O)/C=C/C(=O)C3=C(C4=C(C=C3)OC(C=C4)(C)C)O)C

>  <PUBCHEM_CACTVS_TPSA>
76

>  <PUBCHEM_MONOISOTOPIC_WEIGHT>
404.162

>  <PUBCHEM_TOTAL_CHARGE>
0

>  <PUBCHEM_HEAVY_ATOM_COUNT>
30

>  <PUBCHEM_ATOM_DEF_STEREO_COUNT>
0

>  <PUBCHEM_ATOM_UDEF_STEREO_COUNT>
0

>  <PUBCHEM_BOND_DEF_STEREO_COUNT>
1

>  <PUBCHEM_BOND_UDEF_STEREO_COUNT>
0

>  <PUBCHEM_ISOTOPIC_ATOM_COUNT>
0

>  <PUBCHEM_COMPONENT_COUNT>
1

>  <PUBCHEM_CACTVS_TAUTO_COUNT>
10

>  <PUBCHEM_COORDINATE_TYPE>
1
5
255

>  <PUBCHEM_BONDANNOTATIONS>
10  11  8
10  20  8
11  25  8
12  13  8
12  22  8
13  21  8
20  23  8
21  24  8
22  26  8
23  27  8
24  26  8
25  27  8

$$$$
