15233697
 OpenBabel06101807152D

 54 56  0  0  0  0  0  0  0  0999 V2000
    6.0812   -0.8047    0.0000 O   0  0  0  0  0  0  0  0  0  0  0  0
    9.6648    1.7320    0.0000 O   0  0  0  0  0  0  0  0  0  0  0  0
    9.6648   -1.7320    0.0000 O   0  0  0  0  0  0  0  0  0  0  0  0
    2.5369   -1.0000    0.0000 O   0  0  0  0  0  0  0  0  0  0  0  0
    7.6648   -0.0000    0.0000 C   0  0  0  0  0  0  0  0  0  0  0  0
    8.1648   -0.8660    0.0000 C   0  0  0  0  0  0  0  0  0  0  0  0
    8.1648    0.8660    0.0000 C   0  0  0  0  0  0  0  0  0  0  0  0
    6.6648   -0.0000    0.0000 C   0  0  0  0  0  0  0  0  0  0  0  0
    7.6648   -1.7320    0.0000 C   0  0  0  0  0  0  0  0  0  0  0  0
    7.6648    1.7320    0.0000 C   0  0  0  0  0  0  0  0  0  0  0  0
    9.1648    0.8660    0.0000 C   0  0  0  0  0  0  0  0  0  0  0  0
    9.1648   -0.8660    0.0000 C   0  0  0  0  0  0  0  0  0  0  0  0
    6.0812    0.8047    0.0000 C   0  0  0  0  0  0  0  0  0  0  0  0
    9.6648   -0.0000    0.0000 C   0  0  0  0  0  0  0  0  0  0  0  0
    5.1350    0.5000    0.0000 C   0  0  0  0  0  0  0  0  0  0  0  0
    5.1350   -0.5000    0.0000 C   0  0  0  0  0  0  0  0  0  0  0  0
    8.1648   -2.5981    0.0000 C   0  0  0  0  0  0  0  0  0  0  0  0
    8.1648    2.5981    0.0000 C   0  0  0  0  0  0  0  0  0  0  0  0
    4.2690    1.0000    0.0000 C   0  0  0  0  0  0  0  0  0  0  0  0
    4.2690   -1.0000    0.0000 C   0  0  0  0  0  0  0  0  0  0  0  0
    7.6648   -3.4641    0.0000 C   0  0  0  0  0  0  0  0  0  0  0  0
    7.6648    3.4641    0.0000 C   0  0  0  0  0  0  0  0  0  0  0  0
    3.4030   -0.5000    0.0000 C   0  0  0  0  0  0  0  0  0  0  0  0
    3.4030    0.5000    0.0000 C   0  0  0  0  0  0  0  0  0  0  0  0
    8.1648   -4.3301    0.0000 C   0  0  0  0  0  0  0  0  0  0  0  0
    6.6648   -3.4641    0.0000 C   0  0  0  0  0  0  0  0  0  0  0  0
    8.1648    4.3301    0.0000 C   0  0  0  0  0  0  0  0  0  0  0  0
    6.6648    3.4641    0.0000 C   0  0  0  0  0  0  0  0  0  0  0  0
    7.1899   -1.3335    0.0000 H   0  0  0  0  0  0  0  0  0  0  0  0
    7.1899   -2.1306    0.0000 H   0  0  0  0  0  0  0  0  0  0  0  0
    7.1899    2.1306    0.0000 H   0  0  0  0  0  0  0  0  0  0  0  0
    7.1899    1.3335    0.0000 H   0  0  0  0  0  0  0  0  0  0  0  0
    6.2738    1.3940    0.0000 H   0  0  0  0  0  0  0  0  0  0  0  0
   10.2848   -0.0000    0.0000 H   0  0  0  0  0  0  0  0  0  0  0  0
    8.7848   -2.5981    0.0000 H   0  0  0  0  0  0  0  0  0  0  0  0
    8.7848    2.5981    0.0000 H   0  0  0  0  0  0  0  0  0  0  0  0
    4.2690    1.6200    0.0000 H   0  0  0  0  0  0  0  0  0  0  0  0
    4.2690   -1.6200    0.0000 H   0  0  0  0  0  0  0  0  0  0  0  0
    2.8660    0.8100    0.0000 H   0  0  0  0  0  0  0  0  0  0  0  0
   10.2848    1.7320    0.0000 H   0  0  0  0  0  0  0  0  0  0  0  0
   10.2848   -1.7320    0.0000 H   0  0  0  0  0  0  0  0  0  0  0  0
    6.6648   -2.8441    0.0000 H   0  0  0  0  0  0  0  0  0  0  0  0
    6.0448   -3.4641    0.0000 H   0  0  0  0  0  0  0  0  0  0  0  0
    7.6279   -4.6401    0.0000 H   0  0  0  0  0  0  0  0  0  0  0  0
    8.4748   -4.8671    0.0000 H   0  0  0  0  0  0  0  0  0  0  0  0
    8.7018   -4.0201    0.0000 H   0  0  0  0  0  0  0  0  0  0  0  0
    6.6648   -4.0841    0.0000 H   0  0  0  0  0  0  0  0  0  0  0  0
    8.7018    4.0201    0.0000 H   0  0  0  0  0  0  0  0  0  0  0  0
    8.4748    4.8671    0.0000 H   0  0  0  0  0  0  0  0  0  0  0  0
    7.6279    4.6401    0.0000 H   0  0  0  0  0  0  0  0  0  0  0  0
    6.6648    4.0841    0.0000 H   0  0  0  0  0  0  0  0  0  0  0  0
    6.0448    3.4641    0.0000 H   0  0  0  0  0  0  0  0  0  0  0  0
    6.6648    2.8441    0.0000 H   0  0  0  0  0  0  0  0  0  0  0  0
    2.0000   -0.6900    0.0000 H   0  0  0  0  0  0  0  0  0  0  0  0
  1  8  1  0  0  0  0
  1 16  1  0  0  0  0
  2 11  1  0  0  0  0
  2 40  1  0  0  0  0
  3 12  1  0  0  0  0
  3 41  1  0  0  0  0
  4 23  1  0  0  0  0
  4 54  1  0  0  0  0
  5  6  2  0  0  0  0
  5  7  1  0  0  0  0
  5  8  1  0  0  0  0
  6  9  1  0  0  0  0
  6 12  1  0  0  0  0
  7 10  1  0  0  0  0
  7 11  2  0  0  0  0
  8 13  2  0  0  0  0
  9 17  1  0  0  0  0
  9 29  1  0  0  0  0
  9 30  1  0  0  0  0
 10 18  1  0  0  0  0
 10 31  1  0  0  0  0
 10 32  1  0  0  0  0
 11 14  1  0  0  0  0
 12 14  2  0  0  0  0
 13 15  1  0  0  0  0
 13 33  1  0  0  0  0
 14 34  1  0  0  0  0
 15 16  2  0  0  0  0
 15 19  1  0  0  0  0
 16 20  1  0  0  0  0
 17 21  2  0  0  0  0
 17 35  1  0  0  0  0
 18 22  2  0  0  0  0
 18 36  1  0  0  0  0
 19 24  2  0  0  0  0
 19 37  1  0  0  0  0
 20 23  2  0  0  0  0
 20 38  1  0  0  0  0
 21 25  1  0  0  0  0
 21 26  1  0  0  0  0
 22 27  1  0  0  0  0
 22 28  1  0  0  0  0
 23 24  1  0  0  0  0
 24 39  1  0  0  0  0
 25 44  1  0  0  0  0
 25 45  1  0  0  0  0
 25 46  1  0  0  0  0
 26 42  1  0  0  0  0
 26 43  1  0  0  0  0
 26 47  1  0  0  0  0
 27 48  1  0  0  0  0
 27 49  1  0  0  0  0
 27 50  1  0  0  0  0
 28 51  1  0  0  0  0
 28 52  1  0  0  0  0
 28 53  1  0  0  0  0
M  END
>  <PUBCHEM_COMPOUND_CID>
15233697

>  <PUBCHEM_COMPOUND_CANONICALIZED>
1

>  <PUBCHEM_CACTVS_COMPLEXITY>
543

>  <PUBCHEM_CACTVS_HBOND_ACCEPTOR>
4

>  <PUBCHEM_CACTVS_HBOND_DONOR>
3

>  <PUBCHEM_CACTVS_ROTATABLE_BOND>
5

>  <PUBCHEM_CACTVS_SUBSKEYS>
AAADceB4OAAAAAAAAAAAAAAAAAAAASAAAAAwYAAAAAAAAEgB9AAAGgAACAAADASAmAAyBsAABkCIAqBSAAACCAAkIAAIiAEGCMgMJzaGNRqCeWCl4BUIuYfK7PzOoAADCAAYAABAAAYQADAAAAAAAAAAAA==

>  <PUBCHEM_IUPAC_OPENEYE_NAME>
5-(6-hydroxybenzofuran-2-yl)-4,6-bis(3-methylbut-2-enyl)benzene-1,3-diol

>  <PUBCHEM_IUPAC_CAS_NAME>
5-(6-hydroxy-2-benzofuranyl)-4,6-bis(3-methylbut-2-enyl)benzene-1,3-diol

>  <PUBCHEM_IUPAC_NAME>
5-(6-hydroxy-1-benzofuran-2-yl)-4,6-bis(3-methylbut-2-enyl)benzene-1,3-diol

>  <PUBCHEM_IUPAC_SYSTEMATIC_NAME>
4,6-bis(3-methylbut-2-enyl)-5-(6-oxidanyl-1-benzofuran-2-yl)benzene-1,3-diol

>  <PUBCHEM_IUPAC_TRADITIONAL_NAME>
5-(6-hydroxybenzofuran-2-yl)-4,6-bis(3-methylbut-2-enyl)resorcinol

>  <PUBCHEM_IUPAC_INCHI>
InChI=1S/C24H26O4/c1-14(2)5-9-18-20(26)13-21(27)19(10-6-15(3)4)24(18)23-11-16-7-8-17(25)12-22(16)28-23/h5-8,11-13,25-27H,9-10H2,1-4H3

>  <PUBCHEM_IUPAC_INCHIKEY>
KDAQWQOQVSVFQO-UHFFFAOYSA-N

>  <PUBCHEM_XLOGP3_AA>
6.8

>  <PUBCHEM_EXACT_MASS>
378.183

>  <PUBCHEM_MOLECULAR_FORMULA>
C24H26O4

>  <PUBCHEM_MOLECULAR_WEIGHT>
378.468

>  <PUBCHEM_OPENEYE_CAN_SMILES>
CC(=CCC1=C(C(=C(C=C1O)O)CC=C(C)C)C2=CC3=C(O2)C=C(C=C3)O)C

>  <PUBCHEM_OPENEYE_ISO_SMILES>
CC(=CCC1=C(C(=C(C=C1O)O)CC=C(C)C)C2=CC3=C(O2)C=C(C=C3)O)C

>  <PUBCHEM_CACTVS_TPSA>
73.8

>  <PUBCHEM_MONOISOTOPIC_WEIGHT>
378.183

>  <PUBCHEM_TOTAL_CHARGE>
0

>  <PUBCHEM_HEAVY_ATOM_COUNT>
28

>  <PUBCHEM_ATOM_DEF_STEREO_COUNT>
0

>  <PUBCHEM_ATOM_UDEF_STEREO_COUNT>
0

>  <PUBCHEM_BOND_DEF_STEREO_COUNT>
0

>  <PUBCHEM_BOND_UDEF_STEREO_COUNT>
0

>  <PUBCHEM_ISOTOPIC_ATOM_COUNT>
0

>  <PUBCHEM_COMPONENT_COUNT>
1

>  <PUBCHEM_CACTVS_TAUTO_COUNT>
25

>  <PUBCHEM_COORDINATE_TYPE>
1
5
255

>  <PUBCHEM_BONDANNOTATIONS>
1  16  8
1  8  8
11  14  8
12  14  8
13  15  8
15  16  8
15  19  8
16  20  8
19  24  8
20  23  8
23  24  8
5  6  8
5  7  8
6  12  8
7  11  8
8  13  8

$$$$
