15233950
 OpenBabel06101807152D

 31 33  0  0  0  0  0  0  0  0999 V2000
    6.0682   -0.9254    0.0000 O   0  0  0  0  0  0  0  0  0  0  0  0
    4.3198    2.1092    0.0000 O   0  0  0  0  0  0  0  0  0  0  0  0
    7.8003    1.0746    0.0000 O   0  0  0  0  0  0  0  0  0  0  0  0
    2.5381    1.0988    0.0000 O   0  0  0  0  0  0  0  0  0  0  0  0
    6.0682    2.0746    0.0000 O   0  0  0  0  0  0  0  0  0  0  0  0
    2.5381   -0.9495    0.0000 O   0  0  0  0  0  0  0  0  0  0  0  0
    5.2022    0.5746    0.0000 C   0  0  0  0  0  0  0  0  0  0  0  0
    5.2022   -0.4254    0.0000 C   0  0  0  0  0  0  0  0  0  0  0  0
    6.9343   -0.4254    0.0000 C   0  0  0  0  0  0  0  0  0  0  0  0
    6.0682    1.0746    0.0000 C   0  0  0  0  0  0  0  0  0  0  0  0
    4.3083    1.1093    0.0000 C   0  0  0  0  0  0  0  0  0  0  0  0
    6.9343    0.5746    0.0000 C   0  0  0  0  0  0  0  0  0  0  0  0
    7.8003   -0.9254    0.0000 C   0  0  0  0  0  0  0  0  0  0  0  0
    4.3083   -0.9601    0.0000 C   0  0  0  0  0  0  0  0  0  0  0  0
    3.4022    0.5954    0.0000 C   0  0  0  0  0  0  0  0  0  0  0  0
    3.4022   -0.4462    0.0000 C   0  0  0  0  0  0  0  0  0  0  0  0
    7.8003   -1.9254    0.0000 C   0  0  0  0  0  0  0  0  0  0  0  0
    8.6663   -0.4254    0.0000 C   0  0  0  0  0  0  0  0  0  0  0  0
    8.6663   -2.4254    0.0000 C   0  0  0  0  0  0  0  0  0  0  0  0
    9.5323   -0.9254    0.0000 C   0  0  0  0  0  0  0  0  0  0  0  0
    9.5323   -1.9254    0.0000 C   0  0  0  0  0  0  0  0  0  0  0  0
    4.3154   -1.5800    0.0000 H   0  0  0  0  0  0  0  0  0  0  0  0
    7.2634   -2.2354    0.0000 H   0  0  0  0  0  0  0  0  0  0  0  0
    8.6663    0.1946    0.0000 H   0  0  0  0  0  0  0  0  0  0  0  0
    8.6663   -3.0454    0.0000 H   0  0  0  0  0  0  0  0  0  0  0  0
   10.0693   -0.6154    0.0000 H   0  0  0  0  0  0  0  0  0  0  0  0
   10.0693   -2.2354    0.0000 H   0  0  0  0  0  0  0  0  0  0  0  0
    3.7865    2.4254    0.0000 H   0  0  0  0  0  0  0  0  0  0  0  0
    7.8003    1.6946    0.0000 H   0  0  0  0  0  0  0  0  0  0  0  0
    2.0000    0.7908    0.0000 H   0  0  0  0  0  0  0  0  0  0  0  0
    2.5405   -1.5695    0.0000 H   0  0  0  0  0  0  0  0  0  0  0  0
  1  8  1  0  0  0  0
  1  9  1  0  0  0  0
  2 11  1  0  0  0  0
  2 28  1  0  0  0  0
  3 12  1  0  0  0  0
  3 29  1  0  0  0  0
  4 15  1  0  0  0  0
  4 30  1  0  0  0  0
  5 10  2  0  0  0  0
  6 16  1  0  0  0  0
  6 31  1  0  0  0  0
  7  8  2  0  0  0  0
  7 10  1  0  0  0  0
  7 11  1  0  0  0  0
  8 14  1  0  0  0  0
  9 12  2  0  0  0  0
  9 13  1  0  0  0  0
 10 12  1  0  0  0  0
 11 15  2  0  0  0  0
 13 17  2  0  0  0  0
 13 18  1  0  0  0  0
 14 16  2  0  0  0  0
 14 22  1  0  0  0  0
 15 16  1  0  0  0  0
 17 19  1  0  0  0  0
 17 23  1  0  0  0  0
 18 20  2  0  0  0  0
 18 24  1  0  0  0  0
 19 21  2  0  0  0  0
 19 25  1  0  0  0  0
 20 21  1  0  0  0  0
 20 26  1  0  0  0  0
 21 27  1  0  0  0  0
M  END
>  <PUBCHEM_COMPOUND_CID>
15233950

>  <PUBCHEM_COMPOUND_CANONICALIZED>
1

>  <PUBCHEM_CACTVS_COMPLEXITY>
453

>  <PUBCHEM_CACTVS_HBOND_ACCEPTOR>
6

>  <PUBCHEM_CACTVS_HBOND_DONOR>
4

>  <PUBCHEM_CACTVS_ROTATABLE_BOND>
1

>  <PUBCHEM_CACTVS_SUBSKEYS>
AAADccBwOAAAAAAAAAAAAAAAAAAAAAAAAAAwYIAAAAAAAACBQAAAGgAACAAADASAmAAwBoAABgCIAqBSAAICCAAkIAAIiAFGiMgNJzaGNRqCeWGl4BUJuQfK7LzOIQABCAAIQABCAAIQABCAAAAAAAAAAA==

>  <PUBCHEM_IUPAC_OPENEYE_NAME>
3,5,6,7-tetrahydroxy-2-phenyl-chromen-4-one

>  <PUBCHEM_IUPAC_CAS_NAME>
3,5,6,7-tetrahydroxy-2-phenyl-1-benzopyran-4-one

>  <PUBCHEM_IUPAC_NAME>
3,5,6,7-tetrahydroxy-2-phenylchromen-4-one

>  <PUBCHEM_IUPAC_SYSTEMATIC_NAME>
3,5,6,7-tetrakis(oxidanyl)-2-phenyl-chromen-4-one

>  <PUBCHEM_IUPAC_TRADITIONAL_NAME>
3,5,6,7-tetrahydroxy-2-phenyl-chromone

>  <PUBCHEM_IUPAC_INCHI>
InChI=1S/C15H10O6/c16-8-6-9-10(12(18)11(8)17)13(19)14(20)15(21-9)7-4-2-1-3-5-7/h1-6,16-18,20H

>  <PUBCHEM_IUPAC_INCHIKEY>
SDILYIBSLKZODH-UHFFFAOYSA-N

>  <PUBCHEM_XLOGP3_AA>
2.5

>  <PUBCHEM_EXACT_MASS>
286.048

>  <PUBCHEM_MOLECULAR_FORMULA>
C15H10O6

>  <PUBCHEM_MOLECULAR_WEIGHT>
286.239

>  <PUBCHEM_OPENEYE_CAN_SMILES>
C1=CC=C(C=C1)C2=C(C(=O)C3=C(C(=C(C=C3O2)O)O)O)O

>  <PUBCHEM_OPENEYE_ISO_SMILES>
C1=CC=C(C=C1)C2=C(C(=O)C3=C(C(=C(C=C3O2)O)O)O)O

>  <PUBCHEM_CACTVS_TPSA>
107

>  <PUBCHEM_MONOISOTOPIC_WEIGHT>
286.048

>  <PUBCHEM_TOTAL_CHARGE>
0

>  <PUBCHEM_HEAVY_ATOM_COUNT>
21

>  <PUBCHEM_ATOM_DEF_STEREO_COUNT>
0

>  <PUBCHEM_ATOM_UDEF_STEREO_COUNT>
0

>  <PUBCHEM_BOND_DEF_STEREO_COUNT>
0

>  <PUBCHEM_BOND_UDEF_STEREO_COUNT>
0

>  <PUBCHEM_ISOTOPIC_ATOM_COUNT>
0

>  <PUBCHEM_COMPONENT_COUNT>
1

>  <PUBCHEM_CACTVS_TAUTO_COUNT>
57

>  <PUBCHEM_COORDINATE_TYPE>
1
5
255

>  <PUBCHEM_BONDANNOTATIONS>
1  8  8
1  9  8
10  12  8
11  15  8
13  17  8
13  18  8
14  16  8
15  16  8
17  19  8
18  20  8
19  21  8
20  21  8
7  10  8
7  11  8
7  8  8
8  14  8
9  12  8

$$$$
