15231526
 OpenBabel06101807152D

 61 63  0  0  0  0  0  0  0  0999 V2000
    6.0682    0.0000    0.0000 O   0  0  0  0  0  0  0  0  0  0  0  0
    6.9343   -1.5000    0.0000 O   0  0  0  0  0  0  0  0  0  0  0  0
   10.3984   -1.5000    0.0000 O   0  0  0  0  0  0  0  0  0  0  0  0
    6.0682    3.0000    0.0000 O   0  0  0  0  0  0  0  0  0  0  0  0
   10.3984    0.5000    0.0000 O   0  0  0  0  0  0  0  0  0  0  0  0
    4.3198    3.0346    0.0000 O   0  0  0  0  0  0  0  0  0  0  0  0
    2.5381   -0.0241    0.0000 O   0  0  0  0  0  0  0  0  0  0  0  0
    6.9343    0.5000    0.0000 C   0  0  0  0  0  0  0  0  0  0  0  0
    6.9343    1.5000    0.0000 C   0  0  0  0  0  0  0  0  0  0  0  0
    7.8003    0.0000    0.0000 C   0  0  0  0  0  0  0  0  0  0  0  0
    8.6663   -1.5000    0.0000 C   0  0  0  0  0  0  0  0  0  0  0  0
    7.8003   -1.0000    0.0000 C   0  0  0  0  0  0  0  0  0  0  0  0
    7.8003    2.0000    0.0000 C   0  0  0  0  0  0  0  0  0  0  0  0
    5.2022    1.5000    0.0000 C   0  0  0  0  0  0  0  0  0  0  0  0
    6.0682    2.0000    0.0000 C   0  0  0  0  0  0  0  0  0  0  0  0
    5.2022    0.5000    0.0000 C   0  0  0  0  0  0  0  0  0  0  0  0
    8.6663   -2.5000    0.0000 C   0  0  0  0  0  0  0  0  0  0  0  0
    8.6663    0.5000    0.0000 C   0  0  0  0  0  0  0  0  0  0  0  0
    9.5323   -1.0000    0.0000 C   0  0  0  0  0  0  0  0  0  0  0  0
    9.5323    0.0000    0.0000 C   0  0  0  0  0  0  0  0  0  0  0  0
    4.3083    2.0347    0.0000 C   0  0  0  0  0  0  0  0  0  0  0  0
    7.8003    3.0000    0.0000 C   0  0  0  0  0  0  0  0  0  0  0  0
    4.3083   -0.0347    0.0000 C   0  0  0  0  0  0  0  0  0  0  0  0
    9.5323   -3.0000    0.0000 C   0  0  0  0  0  0  0  0  0  0  0  0
    3.4022    1.5208    0.0000 C   0  0  0  0  0  0  0  0  0  0  0  0
    3.4022    0.4792    0.0000 C   0  0  0  0  0  0  0  0  0  0  0  0
    8.6663    3.5000    0.0000 C   0  0  0  0  0  0  0  0  0  0  0  0
    9.5323   -4.0000    0.0000 C   0  0  0  0  0  0  0  0  0  0  0  0
    8.6663    4.5000    0.0000 C   0  0  0  0  0  0  0  0  0  0  0  0
    9.5323    3.0000    0.0000 C   0  0  0  0  0  0  0  0  0  0  0  0
   10.3984   -4.5000    0.0000 C   0  0  0  0  0  0  0  0  0  0  0  0
    8.6663   -4.5000    0.0000 C   0  0  0  0  0  0  0  0  0  0  0  0
   11.2644   -1.0000    0.0000 C   0  0  0  0  0  0  0  0  0  0  0  0
    8.0124    1.4174    0.0000 H   0  0  0  0  0  0  0  0  0  0  0  0
    8.4109    2.1077    0.0000 H   0  0  0  0  0  0  0  0  0  0  0  0
    8.0558   -2.3923    0.0000 H   0  0  0  0  0  0  0  0  0  0  0  0
    8.4543   -3.0826    0.0000 H   0  0  0  0  0  0  0  0  0  0  0  0
    8.6663    1.1200    0.0000 H   0  0  0  0  0  0  0  0  0  0  0  0
    7.2634    3.3100    0.0000 H   0  0  0  0  0  0  0  0  0  0  0  0
    4.3154   -0.6546    0.0000 H   0  0  0  0  0  0  0  0  0  0  0  0
   10.0693   -2.6900    0.0000 H   0  0  0  0  0  0  0  0  0  0  0  0
    2.8665    1.8329    0.0000 H   0  0  0  0  0  0  0  0  0  0  0  0
    6.9343   -2.1200    0.0000 H   0  0  0  0  0  0  0  0  0  0  0  0
   10.3984    1.1200    0.0000 H   0  0  0  0  0  0  0  0  0  0  0  0
    9.2224    2.4631    0.0000 H   0  0  0  0  0  0  0  0  0  0  0  0
   10.0693    2.6900    0.0000 H   0  0  0  0  0  0  0  0  0  0  0  0
    9.8424    3.5369    0.0000 H   0  0  0  0  0  0  0  0  0  0  0  0
    9.2863    4.5000    0.0000 H   0  0  0  0  0  0  0  0  0  0  0  0
    8.6663    5.1200    0.0000 H   0  0  0  0  0  0  0  0  0  0  0  0
    8.0463    4.5000    0.0000 H   0  0  0  0  0  0  0  0  0  0  0  0
   10.0884   -5.0369    0.0000 H   0  0  0  0  0  0  0  0  0  0  0  0
    8.3563   -3.9631    0.0000 H   0  0  0  0  0  0  0  0  0  0  0  0
    8.1294   -4.8100    0.0000 H   0  0  0  0  0  0  0  0  0  0  0  0
    8.9763   -5.0369    0.0000 H   0  0  0  0  0  0  0  0  0  0  0  0
   10.9353   -4.8100    0.0000 H   0  0  0  0  0  0  0  0  0  0  0  0
   10.7084   -3.9631    0.0000 H   0  0  0  0  0  0  0  0  0  0  0  0
    3.7865    3.3508    0.0000 H   0  0  0  0  0  0  0  0  0  0  0  0
   11.5744   -1.5369    0.0000 H   0  0  0  0  0  0  0  0  0  0  0  0
   11.8013   -0.6900    0.0000 H   0  0  0  0  0  0  0  0  0  0  0  0
   10.9544   -0.4631    0.0000 H   0  0  0  0  0  0  0  0  0  0  0  0
    2.0000    0.2838    0.0000 H   0  0  0  0  0  0  0  0  0  0  0  0
  1  8  1  0  0  0  0
  1 16  1  0  0  0  0
  2 12  1  0  0  0  0
  2 43  1  0  0  0  0
  3 19  1  0  0  0  0
  3 33  1  0  0  0  0
  4 15  2  0  0  0  0
  5 20  1  0  0  0  0
  5 44  1  0  0  0  0
  6 21  1  0  0  0  0
  6 57  1  0  0  0  0
  7 26  1  0  0  0  0
  7 61  1  0  0  0  0
  8  9  2  0  0  0  0
  8 10  1  0  0  0  0
  9 13  1  0  0  0  0
  9 15  1  0  0  0  0
 10 12  1  0  0  0  0
 10 18  2  0  0  0  0
 11 12  2  0  0  0  0
 11 17  1  0  0  0  0
 11 19  1  0  0  0  0
 13 22  1  0  0  0  0
 13 34  1  0  0  0  0
 13 35  1  0  0  0  0
 14 15  1  0  0  0  0
 14 16  1  0  0  0  0
 14 21  2  0  0  0  0
 16 23  2  0  0  0  0
 17 24  1  0  0  0  0
 17 36  1  0  0  0  0
 17 37  1  0  0  0  0
 18 20  1  0  0  0  0
 18 38  1  0  0  0  0
 19 20  2  0  0  0  0
 21 25  1  0  0  0  0
 22 27  2  0  0  0  0
 22 39  1  0  0  0  0
 23 26  1  0  0  0  0
 23 40  1  0  0  0  0
 24 28  2  0  0  0  0
 24 41  1  0  0  0  0
 25 26  2  0  0  0  0
 25 42  1  0  0  0  0
 27 29  1  0  0  0  0
 27 30  1  0  0  0  0
 28 31  1  0  0  0  0
 28 32  1  0  0  0  0
 29 48  1  0  0  0  0
 29 49  1  0  0  0  0
 29 50  1  0  0  0  0
 30 45  1  0  0  0  0
 30 46  1  0  0  0  0
 30 47  1  0  0  0  0
 31 51  1  0  0  0  0
 31 55  1  0  0  0  0
 31 56  1  0  0  0  0
 32 52  1  0  0  0  0
 32 53  1  0  0  0  0
 32 54  1  0  0  0  0
 33 58  1  0  0  0  0
 33 59  1  0  0  0  0
 33 60  1  0  0  0  0
M  END
>  <PUBCHEM_COMPOUND_CID>
15231526

>  <PUBCHEM_COMPOUND_CANONICALIZED>
1

>  <PUBCHEM_CACTVS_COMPLEXITY>
806

>  <PUBCHEM_CACTVS_HBOND_ACCEPTOR>
7

>  <PUBCHEM_CACTVS_HBOND_DONOR>
4

>  <PUBCHEM_CACTVS_ROTATABLE_BOND>
6

>  <PUBCHEM_CACTVS_SUBSKEYS>
AAADceB4OAAAAAAAAAAAAAAAAAAAAAAAAAAwYIAAAAAAAACBQAAAGgAACAAADASAmAIyBoAABgCIAqBSAAACCAAkIAAAiAEGiMgNJzaGNRqCeWOl4BULuQfI7PzOIQADCAAIQABCAAYQABCAAAAAAAAAAA==

>  <PUBCHEM_IUPAC_OPENEYE_NAME>
2-[2,5-dihydroxy-4-methoxy-3-(3-methylbut-2-enyl)phenyl]-5,7-dihydroxy-3-(3-methylbut-2-enyl)chromen-4-one

>  <PUBCHEM_IUPAC_CAS_NAME>
2-[2,5-dihydroxy-4-methoxy-3-(3-methylbut-2-enyl)phenyl]-5,7-dihydroxy-3-(3-methylbut-2-enyl)-1-benzopyran-4-one

>  <PUBCHEM_IUPAC_NAME>
2-[2,5-dihydroxy-4-methoxy-3-(3-methylbut-2-enyl)phenyl]-5,7-dihydroxy-3-(3-methylbut-2-enyl)chromen-4-one

>  <PUBCHEM_IUPAC_SYSTEMATIC_NAME>
2-[4-methoxy-3-(3-methylbut-2-enyl)-2,5-bis(oxidanyl)phenyl]-3-(3-methylbut-2-enyl)-5,7-bis(oxidanyl)chromen-4-one

>  <PUBCHEM_IUPAC_TRADITIONAL_NAME>
2-[2,5-dihydroxy-4-methoxy-3-(3-methylbut-2-enyl)phenyl]-5,7-dihydroxy-3-(3-methylbut-2-enyl)chromone

>  <PUBCHEM_IUPAC_INCHI>
InChI=1S/C26H28O7/c1-13(2)6-8-16-23(30)18(12-20(29)26(16)32-5)25-17(9-7-14(3)4)24(31)22-19(28)10-15(27)11-21(22)33-25/h6-7,10-12,27-30H,8-9H2,1-5H3

>  <PUBCHEM_IUPAC_INCHIKEY>
ONBLHZQNAGITBB-UHFFFAOYSA-N

>  <PUBCHEM_XLOGP3_AA>
6.1

>  <PUBCHEM_EXACT_MASS>
452.184

>  <PUBCHEM_MOLECULAR_FORMULA>
C26H28O7

>  <PUBCHEM_MOLECULAR_WEIGHT>
452.503

>  <PUBCHEM_OPENEYE_CAN_SMILES>
CC(=CCC1=C(C(=CC(=C1OC)O)C2=C(C(=O)C3=C(C=C(C=C3O2)O)O)CC=C(C)C)O)C

>  <PUBCHEM_OPENEYE_ISO_SMILES>
CC(=CCC1=C(C(=CC(=C1OC)O)C2=C(C(=O)C3=C(C=C(C=C3O2)O)O)CC=C(C)C)O)C

>  <PUBCHEM_CACTVS_TPSA>
116

>  <PUBCHEM_MONOISOTOPIC_WEIGHT>
452.184

>  <PUBCHEM_TOTAL_CHARGE>
0

>  <PUBCHEM_HEAVY_ATOM_COUNT>
33

>  <PUBCHEM_ATOM_DEF_STEREO_COUNT>
0

>  <PUBCHEM_ATOM_UDEF_STEREO_COUNT>
0

>  <PUBCHEM_BOND_DEF_STEREO_COUNT>
0

>  <PUBCHEM_BOND_UDEF_STEREO_COUNT>
0

>  <PUBCHEM_ISOTOPIC_ATOM_COUNT>
0

>  <PUBCHEM_COMPONENT_COUNT>
1

>  <PUBCHEM_CACTVS_TAUTO_COUNT>
998

>  <PUBCHEM_COORDINATE_TYPE>
1
5
255

>  <PUBCHEM_BONDANNOTATIONS>
1  16  8
1  8  8
10  12  8
10  18  8
11  12  8
11  19  8
14  15  8
14  16  8
14  21  8
16  23  8
18  20  8
19  20  8
21  25  8
23  26  8
25  26  8
8  9  8
9  15  8

$$$$
