15250873
 OpenBabel06101807152D

 84 87  0  0  1  0  0  0  0  0999 V2000
    2.5357   -3.2258    0.0000 O   0  0  0  0  0  0  0  0  0  0  0  0
    7.0628   -1.6735    0.0000 C   0  0  1  0  0  0  0  0  0  0  0  0
    7.9288   -1.1735    0.0000 C   0  0  1  0  0  0  0  0  0  0  0  0
    6.1968   -1.1735    0.0000 C   0  0  1  0  0  0  0  0  0  0  0  0
    5.2868   -1.6803    0.0000 C   0  0  2  0  0  0  0  0  0  0  0  0
    7.9288   -0.1735    0.0000 C   0  0  2  0  0  0  0  0  0  0  0  0
    5.2787   -2.7219    0.0000 C   0  0  1  0  0  0  0  0  0  0  0  0
    7.0789   -2.7150    0.0000 C   0  0  0  0  0  0  0  0  0  0  0  0
    6.1968   -0.1735    0.0000 C   0  0  0  0  0  0  0  0  0  0  0  0
    6.1808   -3.2427    0.0000 C   0  0  0  0  0  0  0  0  0  0  0  0
    8.8750   -1.4782    0.0000 C   0  0  0  0  0  0  0  0  0  0  0  0
    7.0628    0.3265    0.0000 C   0  0  0  0  0  0  0  0  0  0  0  0
    8.8750    0.1313    0.0000 C   0  0  2  0  0  0  0  0  0  0  0  0
    4.3433   -3.2716    0.0000 C   0  0  0  0  0  0  0  0  0  0  0  0
    4.3599   -1.1162    0.0000 C   0  0  0  0  0  0  0  0  0  0  0  0
    9.4586   -0.6735    0.0000 C   0  0  0  0  0  0  0  0  0  0  0  0
    7.7056   -2.4395    0.0000 C   0  0  0  0  0  0  0  0  0  0  0  0
    8.2709   -2.1131    0.0000 C   0  0  0  0  0  0  0  0  0  0  0  0
    5.2945   -0.6803    0.0000 C   0  0  0  0  0  0  0  0  0  0  0  0
    3.4037   -2.7291    0.0000 C   0  0  2  0  0  0  0  0  0  0  0  0
    3.4120   -1.6442    0.0000 C   0  0  0  0  0  0  0  0  0  0  0  0
    3.8467   -4.1396    0.0000 C   0  0  0  0  0  0  0  0  0  0  0  0
    4.8466   -4.1357    0.0000 C   0  0  0  0  0  0  0  0  0  0  0  0
    9.1857    1.0818    0.0000 C   0  0  0  0  0  0  0  0  0  0  0  0
   10.1642    1.2880    0.0000 C   0  0  0  0  0  0  0  0  0  0  0  0
    8.5179    1.8261    0.0000 C   0  0  0  0  0  0  0  0  0  0  0  0
   10.4749    2.2385    0.0000 C   0  0  0  0  0  0  0  0  0  0  0  0
   11.4534    2.4448    0.0000 C   0  0  0  0  0  0  0  0  0  0  0  0
   11.7640    3.3953    0.0000 C   0  0  0  0  0  0  0  0  0  0  0  0
   12.1212    1.7004    0.0000 C   0  0  0  0  0  0  0  0  0  0  0  0
   12.7425    3.6015    0.0000 C   0  0  0  0  0  0  0  0  0  0  0  0
   11.0962    4.1396    0.0000 C   0  0  0  0  0  0  0  0  0  0  0  0
    6.9329   -0.7485    0.0000 H   0  0  0  0  0  0  0  0  0  0  0  0
    8.0188    0.6718    0.0000 H   0  0  0  0  0  0  0  0  0  0  0  0
    5.2820   -3.5719    0.0000 H   0  0  0  0  0  0  0  0  0  0  0  0
    7.2969   -3.2954    0.0000 H   0  0  0  0  0  0  0  0  0  0  0  0
    7.6880   -2.5995    0.0000 H   0  0  0  0  0  0  0  0  0  0  0  0
    5.9847    0.4092    0.0000 H   0  0  0  0  0  0  0  0  0  0  0  0
    5.5862   -0.2811    0.0000 H   0  0  0  0  0  0  0  0  0  0  0  0
    5.7835   -3.7187    0.0000 H   0  0  0  0  0  0  0  0  0  0  0  0
    6.5818   -3.7156    0.0000 H   0  0  0  0  0  0  0  0  0  0  0  0
    8.6240   -2.0451    0.0000 H   0  0  0  0  0  0  0  0  0  0  0  0
    9.4124   -1.7874    0.0000 H   0  0  0  0  0  0  0  0  0  0  0  0
    7.4613    0.8015    0.0000 H   0  0  0  0  0  0  0  0  0  0  0  0
    6.6643    0.8015    0.0000 H   0  0  0  0  0  0  0  0  0  0  0  0
    9.4875    0.2275    0.0000 H   0  0  0  0  0  0  0  0  0  0  0  0
    4.7681   -0.6496    0.0000 H   0  0  0  0  0  0  0  0  0  0  0  0
    3.9700   -0.6342    0.0000 H   0  0  0  0  0  0  0  0  0  0  0  0
    9.9195   -1.0882    0.0000 H   0  0  0  0  0  0  0  0  0  0  0  0
    9.9195   -0.2587    0.0000 H   0  0  0  0  0  0  0  0  0  0  0  0
    7.2306   -2.8380    0.0000 H   0  0  0  0  0  0  0  0  0  0  0  0
    8.1041   -2.9144    0.0000 H   0  0  0  0  0  0  0  0  0  0  0  0
    8.1805   -2.0410    0.0000 H   0  0  0  0  0  0  0  0  0  0  0  0
    7.6884   -2.3252    0.0000 H   0  0  0  0  0  0  0  0  0  0  0  0
    8.4830   -2.6957    0.0000 H   0  0  0  0  0  0  0  0  0  0  0  0
    8.8535   -1.9010    0.0000 H   0  0  0  0  0  0  0  0  0  0  0  0
    5.9145   -0.6851    0.0000 H   0  0  0  0  0  0  0  0  0  0  0  0
    5.2993   -0.0604    0.0000 H   0  0  0  0  0  0  0  0  0  0  0  0
    4.6745   -0.6756    0.0000 H   0  0  0  0  0  0  0  0  0  0  0  0
    3.4025   -3.3491    0.0000 H   0  0  0  0  0  0  0  0  0  0  0  0
    3.2075   -1.0589    0.0000 H   0  0  0  0  0  0  0  0  0  0  0  0
    2.8004   -1.7456    0.0000 H   0  0  0  0  0  0  0  0  0  0  0  0
    4.3109   -4.4478    0.0000 H   0  0  0  0  0  0  0  0  0  0  0  0
    3.3085   -3.8316    0.0000 H   0  0  0  0  0  0  0  0  0  0  0  0
    3.5387   -4.6777    0.0000 H   0  0  0  0  0  0  0  0  0  0  0  0
    4.3848   -4.4475    0.0000 H   0  0  0  0  0  0  0  0  0  0  0  0
    5.1587   -4.6715    0.0000 H   0  0  0  0  0  0  0  0  0  0  0  0
    5.3824   -3.8236    0.0000 H   0  0  0  0  0  0  0  0  0  0  0  0
    2.0000   -2.9137    0.0000 H   0  0  0  0  0  0  0  0  0  0  0  0
   10.1848    0.6684    0.0000 H   0  0  0  0  0  0  0  0  0  0  0  0
   10.7780    1.2007    0.0000 H   0  0  0  0  0  0  0  0  0  0  0  0
    8.7105    2.4154    0.0000 H   0  0  0  0  0  0  0  0  0  0  0  0
    7.9112    1.6982    0.0000 H   0  0  0  0  0  0  0  0  0  0  0  0
   10.4543    2.8582    0.0000 H   0  0  0  0  0  0  0  0  0  0  0  0
    9.8611    2.3259    0.0000 H   0  0  0  0  0  0  0  0  0  0  0  0
   12.1781    2.9338    0.0000 H   0  0  0  0  0  0  0  0  0  0  0  0
   11.9286    1.1111    0.0000 H   0  0  0  0  0  0  0  0  0  0  0  0
   12.7279    1.8283    0.0000 H   0  0  0  0  0  0  0  0  0  0  0  0
   12.8704    2.9948    0.0000 H   0  0  0  0  0  0  0  0  0  0  0  0
   13.3492    3.7294    0.0000 H   0  0  0  0  0  0  0  0  0  0  0  0
   12.6147    4.2082    0.0000 H   0  0  0  0  0  0  0  0  0  0  0  0
   11.5577    4.5536    0.0000 H   0  0  0  0  0  0  0  0  0  0  0  0
   10.6821    4.6010    0.0000 H   0  0  0  0  0  0  0  0  0  0  0  0
   10.6347    3.7255    0.0000 H   0  0  0  0  0  0  0  0  0  0  0  0
  1 69  1  0  0  0  0
  2  3  1  6  0  0  0
  2  8  1  0  0  0  0
  2 17  1  0  0  0  0
  3  6  1  6  0  0  0
  3 11  1  0  0  0  0
  3 18  1  0  0  0  0
  4  2  1  1  0  0  0
  4  9  1  0  0  0  0
  4 33  1  0  0  0  0
  5  4  1  6  0  0  0
  5 15  1  0  0  0  0
  5 19  1  0  0  0  0
  6 12  1  0  0  0  0
  6 13  1  6  0  0  0
  6 34  1  0  0  0  0
  7  5  1  6  0  0  0
  7 10  1  0  0  0  0
  7 14  1  0  0  0  0
  7 35  1  0  0  0  0
  8 10  1  0  0  0  0
  8 36  1  0  0  0  0
  8 37  1  0  0  0  0
  9 12  1  0  0  0  0
  9 38  1  0  0  0  0
  9 39  1  0  0  0  0
 10 40  1  0  0  0  0
 10 41  1  0  0  0  0
 11 16  1  0  0  0  0
 11 42  1  0  0  0  0
 11 43  1  0  0  0  0
 12 44  1  0  0  0  0
 12 45  1  0  0  0  0
 13 16  1  0  0  0  0
 13 24  1  0  0  0  0
 13 46  1  6  0  0  0
 14 20  1  0  0  0  0
 14 22  1  0  0  0  0
 14 23  1  0  0  0  0
 15 21  1  0  0  0  0
 15 47  1  0  0  0  0
 15 48  1  0  0  0  0
 16 49  1  0  0  0  0
 16 50  1  0  0  0  0
 17 51  1  0  0  0  0
 17 52  1  0  0  0  0
 17 53  1  0  0  0  0
 18 54  1  0  0  0  0
 18 55  1  0  0  0  0
 18 56  1  0  0  0  0
 19 57  1  0  0  0  0
 19 58  1  0  0  0  0
 19 59  1  0  0  0  0
 20  1  1  0  0  0  0
 20 21  1  0  0  0  0
 20 60  1  6  0  0  0
 21 61  1  0  0  0  0
 21 62  1  0  0  0  0
 22 64  1  0  0  0  0
 22 65  1  0  0  0  0
 22 66  1  0  0  0  0
 23 63  1  0  0  0  0
 23 67  1  0  0  0  0
 23 68  1  0  0  0  0
 24 25  1  0  0  0  0
 24 26  2  0  0  0  0
 25 27  1  0  0  0  0
 25 70  1  0  0  0  0
 25 71  1  0  0  0  0
 26 72  1  0  0  0  0
 26 73  1  0  0  0  0
 27 28  1  0  0  0  0
 27 74  1  0  0  0  0
 27 75  1  0  0  0  0
 28 29  1  0  0  0  0
 28 30  2  0  0  0  0
 29 31  1  0  0  0  0
 29 32  1  0  0  0  0
 29 76  1  0  0  0  0
 30 77  1  0  0  0  0
 30 78  1  0  0  0  0
 31 79  1  0  0  0  0
 31 80  1  0  0  0  0
 31 81  1  0  0  0  0
 32 82  1  0  0  0  0
 32 83  1  0  0  0  0
 32 84  1  0  0  0  0
M  END
>  <PUBCHEM_COMPOUND_CID>
15250873

>  <PUBCHEM_COMPOUND_CANONICALIZED>
1

>  <PUBCHEM_CACTVS_COMPLEXITY>
760

>  <PUBCHEM_CACTVS_HBOND_ACCEPTOR>
1

>  <PUBCHEM_CACTVS_HBOND_DONOR>
1

>  <PUBCHEM_CACTVS_ROTATABLE_BOND>
5

>  <PUBCHEM_CACTVS_SUBSKEYS>
AAADcfB4IAAAAAAAAAAAAAAAAAAAAYAAAAAwYMAAAAAAAGDAAAAAGgAACAAADxSggAICAAAAAgCAAgBCAAAAAAAgAAAAAAAAAAgAEAIAAQAAQAAEgAAAAAGAwPAPgAAAAAAAAADAAAYAADAAAQAACAAAAA==

>  <PUBCHEM_IUPAC_OPENEYE_NAME>
(3S,5R,8R,9R,10R,13R,14R,17S)-4,4,8,10,14-pentamethyl-17-(5-methyl-1,4-dimethylene-hexyl)-2,3,5,6,7,9,11,12,13,15,16,17-dodecahydro-1H-cyclopenta[a]phenanthren-3-ol

>  <PUBCHEM_IUPAC_CAS_NAME>
(3S,5R,8R,9R,10R,13R,14R,17S)-4,4,8,10,14-pentamethyl-17-(6-methyl-5-methylenehept-1-en-2-yl)-2,3,5,6,7,9,11,12,13,15,16,17-dodecahydro-1H-cyclopenta[a]phenanthren-3-ol

>  <PUBCHEM_IUPAC_NAME>
(3S,5R,8R,9R,10R,13R,14R,17S)-4,4,8,10,14-pentamethyl-17-(6-methyl-5-methylidenehept-1-en-2-yl)-2,3,5,6,7,9,11,12,13,15,16,17-dodecahydro-1H-cyclopenta[a]phenanthren-3-ol

>  <PUBCHEM_IUPAC_SYSTEMATIC_NAME>
(3S,5R,8R,9R,10R,13R,14R,17S)-4,4,8,10,14-pentamethyl-17-(6-methyl-5-methylidene-hept-1-en-2-yl)-2,3,5,6,7,9,11,12,13,15,16,17-dodecahydro-1H-cyclopenta[a]phenanthren-3-ol

>  <PUBCHEM_IUPAC_TRADITIONAL_NAME>
(3S,5R,8R,9R,10R,13R,14R,17S)-17-(4-isopropyl-1-methylene-pent-4-enyl)-4,4,8,10,14-pentamethyl-2,3,5,6,7,9,11,12,13,15,16,17-dodecahydro-1H-cyclopenta[a]phenanthren-3-ol

>  <PUBCHEM_IUPAC_INCHI>
InChI=1S/C31H52O/c1-20(2)21(3)10-11-22(4)23-14-18-30(8)24(23)12-13-26-29(7)17-16-27(32)28(5,6)25(29)15-19-31(26,30)9/h20,23-27,32H,3-4,10-19H2,1-2,5-9H3/t23-,24-,25+,26-,27+,29+,30-,31-/m1/s1

>  <PUBCHEM_IUPAC_INCHIKEY>
RBDGMBLJLFFILO-HVCSHQRCSA-N

>  <PUBCHEM_XLOGP3_AA>
10.5

>  <PUBCHEM_EXACT_MASS>
440.402

>  <PUBCHEM_MOLECULAR_FORMULA>
C31H52O

>  <PUBCHEM_MOLECULAR_WEIGHT>
440.756

>  <PUBCHEM_OPENEYE_CAN_SMILES>
CC(C)C(=C)CCC(=C)C1CCC2(C1CCC3C2(CCC4C3(CCC(C4(C)C)O)C)C)C

>  <PUBCHEM_OPENEYE_ISO_SMILES>
CC(C)C(=C)CCC(=C)[C@H]1CC[C@@]2([C@@H]1CC[C@H]3[C@]2(CC[C@@H]4[C@@]3(CC[C@@H](C4(C)C)O)C)C)C

>  <PUBCHEM_CACTVS_TPSA>
20.2

>  <PUBCHEM_MONOISOTOPIC_WEIGHT>
440.402

>  <PUBCHEM_TOTAL_CHARGE>
0

>  <PUBCHEM_HEAVY_ATOM_COUNT>
32

>  <PUBCHEM_ATOM_DEF_STEREO_COUNT>
8

>  <PUBCHEM_ATOM_UDEF_STEREO_COUNT>
0

>  <PUBCHEM_BOND_DEF_STEREO_COUNT>
0

>  <PUBCHEM_BOND_UDEF_STEREO_COUNT>
0

>  <PUBCHEM_ISOTOPIC_ATOM_COUNT>
0

>  <PUBCHEM_COMPONENT_COUNT>
1

>  <PUBCHEM_CACTVS_TAUTO_COUNT>
1

>  <PUBCHEM_COORDINATE_TYPE>
1
5
255

>  <PUBCHEM_BONDANNOTATIONS>
20  1  5
13  24  5
2  17  5
3  18  6
4  33  6
5  19  5
6  34  5
7  35  6

$$$$
