15289673
 OpenBabel06101807152D

 49 51  0  0  0  0  0  0  0  0999 V2000
    6.3580   -2.2367    0.0000 O   0  0  0  0  0  0  0  0  0  0  0  0
    9.0000   -1.6746    0.0000 O   0  0  0  0  0  0  0  0  0  0  0  0
   10.7282   -0.6679    0.0000 O   0  0  0  0  0  0  0  0  0  0  0  0
    8.9846    2.3254    0.0000 O   0  0  0  0  0  0  0  0  0  0  0  0
   10.7205    1.3321    0.0000 O   0  0  0  0  0  0  0  0  0  0  0  0
    6.3465    0.8325    0.0000 O   0  0  0  0  0  0  0  0  0  0  0  0
    2.8660   -0.2021    0.0000 O   0  0  0  0  0  0  0  0  0  0  0  0
    4.5981    0.7979    0.0000 O   0  0  0  0  0  0  0  0  0  0  0  0
    2.8660   -2.2021    0.0000 O   0  0  0  0  0  0  0  0  0  0  0  0
    8.1282   -0.1779    0.0000 C   0  0  0  0  0  0  0  0  0  0  0  0
    7.2641   -0.6812    0.0000 C   0  0  0  0  0  0  0  0  0  0  0  0
    5.4641   -0.7021    0.0000 C   0  0  0  0  0  0  0  0  0  0  0  0
    6.3580   -0.1674    0.0000 C   0  0  0  0  0  0  0  0  0  0  0  0
    8.9962   -0.6746    0.0000 C   0  0  0  0  0  0  0  0  0  0  0  0
    5.4641   -1.7021    0.0000 C   0  0  0  0  0  0  0  0  0  0  0  0
    8.1244    0.8221    0.0000 C   0  0  0  0  0  0  0  0  0  0  0  0
    9.8602   -0.1712    0.0000 C   0  0  0  0  0  0  0  0  0  0  0  0
    4.5981   -0.2021    0.0000 C   0  0  0  0  0  0  0  0  0  0  0  0
    7.2641   -1.7229    0.0000 C   0  0  0  0  0  0  0  0  0  0  0  0
    8.9884    1.3254    0.0000 C   0  0  0  0  0  0  0  0  0  0  0  0
    9.8564    0.8288    0.0000 C   0  0  0  0  0  0  0  0  0  0  0  0
    4.5981   -2.2021    0.0000 C   0  0  0  0  0  0  0  0  0  0  0  0
    3.7320   -0.7021    0.0000 C   0  0  0  0  0  0  0  0  0  0  0  0
    3.7320   -1.7021    0.0000 C   0  0  0  0  0  0  0  0  0  0  0  0
    9.8680   -2.1712    0.0000 C   0  0  0  0  0  0  0  0  0  0  0  0
   11.5923   -0.1646    0.0000 C   0  0  0  0  0  0  0  0  0  0  0  0
    8.1166    2.8221    0.0000 C   0  0  0  0  0  0  0  0  0  0  0  0
   10.7166    2.3321    0.0000 C   0  0  0  0  0  0  0  0  0  0  0  0
    2.0000   -0.7021    0.0000 C   0  0  0  0  0  0  0  0  0  0  0  0
    7.5862    1.1300    0.0000 H   0  0  0  0  0  0  0  0  0  0  0  0
    7.7998   -2.0349    0.0000 H   0  0  0  0  0  0  0  0  0  0  0  0
    4.5981   -2.8221    0.0000 H   0  0  0  0  0  0  0  0  0  0  0  0
    4.0611    1.1079    0.0000 H   0  0  0  0  0  0  0  0  0  0  0  0
    9.5600   -2.7094    0.0000 H   0  0  0  0  0  0  0  0  0  0  0  0
   10.4061   -2.4792    0.0000 H   0  0  0  0  0  0  0  0  0  0  0  0
   10.1759   -1.6331    0.0000 H   0  0  0  0  0  0  0  0  0  0  0  0
   11.9043   -0.7003    0.0000 H   0  0  0  0  0  0  0  0  0  0  0  0
   12.1280    0.1475    0.0000 H   0  0  0  0  0  0  0  0  0  0  0  0
   11.2802    0.3712    0.0000 H   0  0  0  0  0  0  0  0  0  0  0  0
    2.8660   -2.8221    0.0000 H   0  0  0  0  0  0  0  0  0  0  0  0
    8.4246    3.3602    0.0000 H   0  0  0  0  0  0  0  0  0  0  0  0
    7.5785    3.1300    0.0000 H   0  0  0  0  0  0  0  0  0  0  0  0
    7.8087    2.2839    0.0000 H   0  0  0  0  0  0  0  0  0  0  0  0
   11.3366    2.3345    0.0000 H   0  0  0  0  0  0  0  0  0  0  0  0
   10.7142    2.9521    0.0000 H   0  0  0  0  0  0  0  0  0  0  0  0
   10.0966    2.3297    0.0000 H   0  0  0  0  0  0  0  0  0  0  0  0
    1.6900   -0.1651    0.0000 H   0  0  0  0  0  0  0  0  0  0  0  0
    1.4631   -1.0121    0.0000 H   0  0  0  0  0  0  0  0  0  0  0  0
    2.3100   -1.2390    0.0000 H   0  0  0  0  0  0  0  0  0  0  0  0
  1 15  1  0  0  0  0
  1 19  1  0  0  0  0
  2 14  1  0  0  0  0
  2 25  1  0  0  0  0
  3 17  1  0  0  0  0
  3 26  1  0  0  0  0
  4 20  1  0  0  0  0
  4 27  1  0  0  0  0
  5 21  1  0  0  0  0
  5 28  1  0  0  0  0
  6 13  2  0  0  0  0
  7 23  1  0  0  0  0
  7 29  1  0  0  0  0
  8 18  1  0  0  0  0
  8 33  1  0  0  0  0
  9 24  1  0  0  0  0
  9 40  1  0  0  0  0
 10 11  1  0  0  0  0
 10 14  1  0  0  0  0
 10 16  2  0  0  0  0
 11 13  1  0  0  0  0
 11 19  2  0  0  0  0
 12 13  1  0  0  0  0
 12 15  2  0  0  0  0
 12 18  1  0  0  0  0
 14 17  2  0  0  0  0
 15 22  1  0  0  0  0
 16 20  1  0  0  0  0
 16 30  1  0  0  0  0
 17 21  1  0  0  0  0
 18 23  2  0  0  0  0
 19 31  1  0  0  0  0
 20 21  2  0  0  0  0
 22 24  2  0  0  0  0
 22 32  1  0  0  0  0
 23 24  1  0  0  0  0
 25 34  1  0  0  0  0
 25 35  1  0  0  0  0
 25 36  1  0  0  0  0
 26 37  1  0  0  0  0
 26 38  1  0  0  0  0
 26 39  1  0  0  0  0
 27 41  1  0  0  0  0
 27 42  1  0  0  0  0
 27 43  1  0  0  0  0
 28 44  1  0  0  0  0
 28 45  1  0  0  0  0
 28 46  1  0  0  0  0
 29 47  1  0  0  0  0
 29 48  1  0  0  0  0
 29 49  1  0  0  0  0
M  END
>  <PUBCHEM_COMPOUND_CID>
15289673

>  <PUBCHEM_COMPOUND_CANONICALIZED>
1

>  <PUBCHEM_CACTVS_COMPLEXITY>
609

>  <PUBCHEM_CACTVS_HBOND_ACCEPTOR>
9

>  <PUBCHEM_CACTVS_HBOND_DONOR>
2

>  <PUBCHEM_CACTVS_ROTATABLE_BOND>
6

>  <PUBCHEM_CACTVS_SUBSKEYS>
AAADceB4PAAAAAAAAAAAAAAAAAAAAAAAAAAwYIAAAAAAAACBQAAAGgAACAAADASgmAIyBoAABgCIAqBSAAACCAAkIAAAiAEGiMgNJzaGNBqAcWMl4BULuYfK7PzOIQABCAAIQABCAAIQABCAAAAAAAAAAA==

>  <PUBCHEM_IUPAC_OPENEYE_NAME>
5,7-dihydroxy-6-methoxy-3-(2,3,4,5-tetramethoxyphenyl)chromen-4-one

>  <PUBCHEM_IUPAC_CAS_NAME>
5,7-dihydroxy-6-methoxy-3-(2,3,4,5-tetramethoxyphenyl)-1-benzopyran-4-one

>  <PUBCHEM_IUPAC_NAME>
5,7-dihydroxy-6-methoxy-3-(2,3,4,5-tetramethoxyphenyl)chromen-4-one

>  <PUBCHEM_IUPAC_SYSTEMATIC_NAME>
6-methoxy-5,7-bis(oxidanyl)-3-(2,3,4,5-tetramethoxyphenyl)chromen-4-one

>  <PUBCHEM_IUPAC_TRADITIONAL_NAME>
5,7-dihydroxy-6-methoxy-3-(2,3,4,5-tetramethoxyphenyl)chromone

>  <PUBCHEM_IUPAC_INCHI>
InChI=1S/C20H20O9/c1-24-13-6-9(17(25-2)20(28-5)19(13)27-4)10-8-29-12-7-11(21)18(26-3)16(23)14(12)15(10)22/h6-8,21,23H,1-5H3

>  <PUBCHEM_IUPAC_INCHIKEY>
OITYQALEAYIBHE-UHFFFAOYSA-N

>  <PUBCHEM_XLOGP3_AA>
2.9

>  <PUBCHEM_EXACT_MASS>
404.111

>  <PUBCHEM_MOLECULAR_FORMULA>
C20H20O9

>  <PUBCHEM_MOLECULAR_WEIGHT>
404.371

>  <PUBCHEM_OPENEYE_CAN_SMILES>
COC1=C(C(=C(C(=C1)C2=COC3=CC(=C(C(=C3C2=O)O)OC)O)OC)OC)OC

>  <PUBCHEM_OPENEYE_ISO_SMILES>
COC1=C(C(=C(C(=C1)C2=COC3=CC(=C(C(=C3C2=O)O)OC)O)OC)OC)OC

>  <PUBCHEM_CACTVS_TPSA>
113

>  <PUBCHEM_MONOISOTOPIC_WEIGHT>
404.111

>  <PUBCHEM_TOTAL_CHARGE>
0

>  <PUBCHEM_HEAVY_ATOM_COUNT>
29

>  <PUBCHEM_ATOM_DEF_STEREO_COUNT>
0

>  <PUBCHEM_ATOM_UDEF_STEREO_COUNT>
0

>  <PUBCHEM_BOND_DEF_STEREO_COUNT>
0

>  <PUBCHEM_BOND_UDEF_STEREO_COUNT>
0

>  <PUBCHEM_ISOTOPIC_ATOM_COUNT>
0

>  <PUBCHEM_COMPONENT_COUNT>
1

>  <PUBCHEM_CACTVS_TAUTO_COUNT>
12

>  <PUBCHEM_COORDINATE_TYPE>
1
5
255

>  <PUBCHEM_BONDANNOTATIONS>
1  15  8
1  19  8
10  14  8
10  16  8
11  13  8
11  19  8
12  13  8
12  15  8
12  18  8
14  17  8
15  22  8
16  20  8
17  21  8
18  23  8
20  21  8
22  24  8
23  24  8

$$$$
