15289675
 OpenBabel06101807152D

 45 47  0  0  0  0  0  0  0  0999 V2000
    6.3580   -1.9917    0.0000 O   0  0  0  0  0  0  0  0  0  0  0  0
    9.0000   -1.4296    0.0000 O   0  0  0  0  0  0  0  0  0  0  0  0
   10.7282   -0.4229    0.0000 O   0  0  0  0  0  0  0  0  0  0  0  0
    2.8660    0.0429    0.0000 O   0  0  0  0  0  0  0  0  0  0  0  0
    4.5981    1.0429    0.0000 O   0  0  0  0  0  0  0  0  0  0  0  0
    6.3465    1.0775    0.0000 O   0  0  0  0  0  0  0  0  0  0  0  0
   10.7205    1.5771    0.0000 O   0  0  0  0  0  0  0  0  0  0  0  0
    2.8660   -1.9571    0.0000 O   0  0  0  0  0  0  0  0  0  0  0  0
    7.2641   -0.4363    0.0000 C   0  0  0  0  0  0  0  0  0  0  0  0
    5.4641   -0.4571    0.0000 C   0  0  0  0  0  0  0  0  0  0  0  0
    8.1282    0.0671    0.0000 C   0  0  0  0  0  0  0  0  0  0  0  0
    6.3580    0.0776    0.0000 C   0  0  0  0  0  0  0  0  0  0  0  0
    5.4641   -1.4571    0.0000 C   0  0  0  0  0  0  0  0  0  0  0  0
    8.9962   -0.4296    0.0000 C   0  0  0  0  0  0  0  0  0  0  0  0
    4.5981    0.0429    0.0000 C   0  0  0  0  0  0  0  0  0  0  0  0
    7.2641   -1.4779    0.0000 C   0  0  0  0  0  0  0  0  0  0  0  0
    8.1244    1.0671    0.0000 C   0  0  0  0  0  0  0  0  0  0  0  0
    9.8602    0.0738    0.0000 C   0  0  0  0  0  0  0  0  0  0  0  0
    4.5981   -1.9571    0.0000 C   0  0  0  0  0  0  0  0  0  0  0  0
    3.7320   -0.4571    0.0000 C   0  0  0  0  0  0  0  0  0  0  0  0
    9.8564    1.0738    0.0000 C   0  0  0  0  0  0  0  0  0  0  0  0
    3.7320   -1.4571    0.0000 C   0  0  0  0  0  0  0  0  0  0  0  0
    8.9884    1.5704    0.0000 C   0  0  0  0  0  0  0  0  0  0  0  0
    9.8680   -1.9262    0.0000 C   0  0  0  0  0  0  0  0  0  0  0  0
   11.5923    0.0804    0.0000 C   0  0  0  0  0  0  0  0  0  0  0  0
    2.0000   -0.4571    0.0000 C   0  0  0  0  0  0  0  0  0  0  0  0
   10.7166    2.5771    0.0000 C   0  0  0  0  0  0  0  0  0  0  0  0
    7.7998   -1.7900    0.0000 H   0  0  0  0  0  0  0  0  0  0  0  0
    7.5862    1.3750    0.0000 H   0  0  0  0  0  0  0  0  0  0  0  0
    4.5981   -2.5771    0.0000 H   0  0  0  0  0  0  0  0  0  0  0  0
    8.9860    2.1904    0.0000 H   0  0  0  0  0  0  0  0  0  0  0  0
    4.0611    1.3529    0.0000 H   0  0  0  0  0  0  0  0  0  0  0  0
    9.5600   -2.4644    0.0000 H   0  0  0  0  0  0  0  0  0  0  0  0
   10.4061   -2.2342    0.0000 H   0  0  0  0  0  0  0  0  0  0  0  0
   10.1759   -1.3881    0.0000 H   0  0  0  0  0  0  0  0  0  0  0  0
    2.8660   -2.5771    0.0000 H   0  0  0  0  0  0  0  0  0  0  0  0
   11.9043   -0.4553    0.0000 H   0  0  0  0  0  0  0  0  0  0  0  0
   12.1280    0.3925    0.0000 H   0  0  0  0  0  0  0  0  0  0  0  0
   11.2802    0.6162    0.0000 H   0  0  0  0  0  0  0  0  0  0  0  0
    1.6900    0.0799    0.0000 H   0  0  0  0  0  0  0  0  0  0  0  0
    1.4631   -0.7671    0.0000 H   0  0  0  0  0  0  0  0  0  0  0  0
    2.3100   -0.9940    0.0000 H   0  0  0  0  0  0  0  0  0  0  0  0
   11.3366    2.5795    0.0000 H   0  0  0  0  0  0  0  0  0  0  0  0
   10.7142    3.1971    0.0000 H   0  0  0  0  0  0  0  0  0  0  0  0
   10.0966    2.5747    0.0000 H   0  0  0  0  0  0  0  0  0  0  0  0
  1 13  1  0  0  0  0
  1 16  1  0  0  0  0
  2 14  1  0  0  0  0
  2 24  1  0  0  0  0
  3 18  1  0  0  0  0
  3 25  1  0  0  0  0
  4 20  1  0  0  0  0
  4 26  1  0  0  0  0
  5 15  1  0  0  0  0
  5 32  1  0  0  0  0
  6 12  2  0  0  0  0
  7 21  1  0  0  0  0
  7 27  1  0  0  0  0
  8 22  1  0  0  0  0
  8 36  1  0  0  0  0
  9 11  1  0  0  0  0
  9 12  1  0  0  0  0
  9 16  2  0  0  0  0
 10 12  1  0  0  0  0
 10 13  2  0  0  0  0
 10 15  1  0  0  0  0
 11 14  2  0  0  0  0
 11 17  1  0  0  0  0
 13 19  1  0  0  0  0
 14 18  1  0  0  0  0
 15 20  2  0  0  0  0
 16 28  1  0  0  0  0
 17 23  2  0  0  0  0
 17 29  1  0  0  0  0
 18 21  2  0  0  0  0
 19 22  2  0  0  0  0
 19 30  1  0  0  0  0
 20 22  1  0  0  0  0
 21 23  1  0  0  0  0
 23 31  1  0  0  0  0
 24 33  1  0  0  0  0
 24 34  1  0  0  0  0
 24 35  1  0  0  0  0
 25 37  1  0  0  0  0
 25 38  1  0  0  0  0
 25 39  1  0  0  0  0
 26 40  1  0  0  0  0
 26 41  1  0  0  0  0
 26 42  1  0  0  0  0
 27 43  1  0  0  0  0
 27 44  1  0  0  0  0
 27 45  1  0  0  0  0
M  END
>  <PUBCHEM_COMPOUND_CID>
15289675

>  <PUBCHEM_COMPOUND_CANONICALIZED>
1

>  <PUBCHEM_CACTVS_COMPLEXITY>
564

>  <PUBCHEM_CACTVS_HBOND_ACCEPTOR>
8

>  <PUBCHEM_CACTVS_HBOND_DONOR>
2

>  <PUBCHEM_CACTVS_ROTATABLE_BOND>
5

>  <PUBCHEM_CACTVS_SUBSKEYS>
AAADceB4PAAAAAAAAAAAAAAAAAAAAAAAAAAwYIAAAAAAAACBQAAAGgAACAAADASgmAIyBoAABgCIAqBSAAACCAAkIAAIiAEGiMgNJzaGNBqAcWMl4BULuYfK7PzOIQABCAAIQABCAAIQABCAAAAAAAAAAA==

>  <PUBCHEM_IUPAC_OPENEYE_NAME>
5,7-dihydroxy-6-methoxy-3-(2,3,4-trimethoxyphenyl)chromen-4-one

>  <PUBCHEM_IUPAC_CAS_NAME>
5,7-dihydroxy-6-methoxy-3-(2,3,4-trimethoxyphenyl)-1-benzopyran-4-one

>  <PUBCHEM_IUPAC_NAME>
5,7-dihydroxy-6-methoxy-3-(2,3,4-trimethoxyphenyl)chromen-4-one

>  <PUBCHEM_IUPAC_SYSTEMATIC_NAME>
6-methoxy-5,7-bis(oxidanyl)-3-(2,3,4-trimethoxyphenyl)chromen-4-one

>  <PUBCHEM_IUPAC_TRADITIONAL_NAME>
5,7-dihydroxy-6-methoxy-3-(2,3,4-trimethoxyphenyl)chromone

>  <PUBCHEM_IUPAC_INCHI>
InChI=1S/C19H18O8/c1-23-12-6-5-9(17(24-2)19(12)26-4)10-8-27-13-7-11(20)18(25-3)16(22)14(13)15(10)21/h5-8,20,22H,1-4H3

>  <PUBCHEM_IUPAC_INCHIKEY>
RSWPCULQTUMNPL-UHFFFAOYSA-N

>  <PUBCHEM_XLOGP3_AA>
2.9

>  <PUBCHEM_EXACT_MASS>
374.1

>  <PUBCHEM_MOLECULAR_FORMULA>
C19H18O8

>  <PUBCHEM_MOLECULAR_WEIGHT>
374.345

>  <PUBCHEM_OPENEYE_CAN_SMILES>
COC1=C(C(=C(C=C1)C2=COC3=CC(=C(C(=C3C2=O)O)OC)O)OC)OC

>  <PUBCHEM_OPENEYE_ISO_SMILES>
COC1=C(C(=C(C=C1)C2=COC3=CC(=C(C(=C3C2=O)O)OC)O)OC)OC

>  <PUBCHEM_CACTVS_TPSA>
104

>  <PUBCHEM_MONOISOTOPIC_WEIGHT>
374.1

>  <PUBCHEM_TOTAL_CHARGE>
0

>  <PUBCHEM_HEAVY_ATOM_COUNT>
27

>  <PUBCHEM_ATOM_DEF_STEREO_COUNT>
0

>  <PUBCHEM_ATOM_UDEF_STEREO_COUNT>
0

>  <PUBCHEM_BOND_DEF_STEREO_COUNT>
0

>  <PUBCHEM_BOND_UDEF_STEREO_COUNT>
0

>  <PUBCHEM_ISOTOPIC_ATOM_COUNT>
0

>  <PUBCHEM_COMPONENT_COUNT>
1

>  <PUBCHEM_CACTVS_TAUTO_COUNT>
12

>  <PUBCHEM_COORDINATE_TYPE>
1
5
255

>  <PUBCHEM_BONDANNOTATIONS>
1  13  8
1  16  8
10  12  8
10  13  8
10  15  8
11  14  8
11  17  8
13  19  8
14  18  8
15  20  8
17  23  8
18  21  8
19  22  8
20  22  8
21  23  8
9  12  8
9  16  8

$$$$
