15291690
 OpenBabel06101807152D

 45 46  0  0  0  0  0  0  0  0999 V2000
    8.0901   -0.1897    0.0000 O   0  0  0  0  0  0  0  0  0  0  0  0
    4.5981   -0.1550    0.0000 O   0  0  0  0  0  0  0  0  0  0  0  0
    6.3301    2.8450    0.0000 O   0  0  0  0  0  0  0  0  0  0  0  0
    8.0785    2.8796    0.0000 O   0  0  0  0  0  0  0  0  0  0  0  0
    6.3301   -0.1550    0.0000 C   0  0  0  0  0  0  0  0  0  0  0  0
    5.4641    1.3450    0.0000 C   0  0  0  0  0  0  0  0  0  0  0  0
    7.1962    0.3450    0.0000 C   0  0  0  0  0  0  0  0  0  0  0  0
    5.4641    0.3450    0.0000 C   0  0  0  0  0  0  0  0  0  0  0  0
    7.1962    1.3450    0.0000 C   0  0  0  0  0  0  0  0  0  0  0  0
    6.3301    1.8450    0.0000 C   0  0  0  0  0  0  0  0  0  0  0  0
    6.3301   -1.1550    0.0000 C   0  0  0  0  0  0  0  0  0  0  0  0
    4.5981    1.8450    0.0000 C   0  0  0  0  0  0  0  0  0  0  0  0
    8.0901    1.8797    0.0000 C   0  0  0  0  0  0  0  0  0  0  0  0
    5.4641   -1.6550    0.0000 C   0  0  0  0  0  0  0  0  0  0  0  0
    3.7320    1.3450    0.0000 C   0  0  0  0  0  0  0  0  0  0  0  0
    8.9962    1.3658    0.0000 C   0  0  0  0  0  0  0  0  0  0  0  0
    5.4641   -2.6550    0.0000 C   0  0  0  0  0  0  0  0  0  0  0  0
    2.8660    1.8450    0.0000 C   0  0  0  0  0  0  0  0  0  0  0  0
    8.9962    0.3242    0.0000 C   0  0  0  0  0  0  0  0  0  0  0  0
    4.5981   -3.1550    0.0000 C   0  0  0  0  0  0  0  0  0  0  0  0
    6.3301   -3.1550    0.0000 C   0  0  0  0  0  0  0  0  0  0  0  0
    2.0000    1.3450    0.0000 C   0  0  0  0  0  0  0  0  0  0  0  0
    2.8660    2.8450    0.0000 C   0  0  0  0  0  0  0  0  0  0  0  0
    6.5422   -1.7376    0.0000 H   0  0  0  0  0  0  0  0  0  0  0  0
    6.9407   -1.0473    0.0000 H   0  0  0  0  0  0  0  0  0  0  0  0
    4.9966    2.3200    0.0000 H   0  0  0  0  0  0  0  0  0  0  0  0
    4.1996    2.3200    0.0000 H   0  0  0  0  0  0  0  0  0  0  0  0
    4.9272   -1.3450    0.0000 H   0  0  0  0  0  0  0  0  0  0  0  0
    3.7320    0.7250    0.0000 H   0  0  0  0  0  0  0  0  0  0  0  0
    9.5319    1.6779    0.0000 H   0  0  0  0  0  0  0  0  0  0  0  0
    9.5319    0.0121    0.0000 H   0  0  0  0  0  0  0  0  0  0  0  0
    4.5981   -0.7750    0.0000 H   0  0  0  0  0  0  0  0  0  0  0  0
    5.7932    3.1550    0.0000 H   0  0  0  0  0  0  0  0  0  0  0  0
    6.0201   -3.6919    0.0000 H   0  0  0  0  0  0  0  0  0  0  0  0
    4.2881   -2.6181    0.0000 H   0  0  0  0  0  0  0  0  0  0  0  0
    4.0611   -3.4650    0.0000 H   0  0  0  0  0  0  0  0  0  0  0  0
    4.9081   -3.6919    0.0000 H   0  0  0  0  0  0  0  0  0  0  0  0
    6.8671   -3.4650    0.0000 H   0  0  0  0  0  0  0  0  0  0  0  0
    6.6401   -2.6181    0.0000 H   0  0  0  0  0  0  0  0  0  0  0  0
    1.6900    1.8819    0.0000 H   0  0  0  0  0  0  0  0  0  0  0  0
    1.4631    1.0350    0.0000 H   0  0  0  0  0  0  0  0  0  0  0  0
    3.4860    2.8450    0.0000 H   0  0  0  0  0  0  0  0  0  0  0  0
    2.8660    3.4650    0.0000 H   0  0  0  0  0  0  0  0  0  0  0  0
    2.2460    2.8450    0.0000 H   0  0  0  0  0  0  0  0  0  0  0  0
    2.3100    0.8081    0.0000 H   0  0  0  0  0  0  0  0  0  0  0  0
  1  7  1  0  0  0  0
  1 19  1  0  0  0  0
  2  8  1  0  0  0  0
  2 32  1  0  0  0  0
  3 10  1  0  0  0  0
  3 33  1  0  0  0  0
  4 13  2  0  0  0  0
  5  7  2  0  0  0  0
  5  8  1  0  0  0  0
  5 11  1  0  0  0  0
  6  8  2  0  0  0  0
  6 10  1  0  0  0  0
  6 12  1  0  0  0  0
  7  9  1  0  0  0  0
  9 10  2  0  0  0  0
  9 13  1  0  0  0  0
 11 14  1  0  0  0  0
 11 24  1  0  0  0  0
 11 25  1  0  0  0  0
 12 15  1  0  0  0  0
 12 26  1  0  0  0  0
 12 27  1  0  0  0  0
 13 16  1  0  0  0  0
 14 17  2  0  0  0  0
 14 28  1  0  0  0  0
 15 18  2  0  0  0  0
 15 29  1  0  0  0  0
 16 19  2  0  0  0  0
 16 30  1  0  0  0  0
 17 20  1  0  0  0  0
 17 21  1  0  0  0  0
 18 22  1  0  0  0  0
 18 23  1  0  0  0  0
 19 31  1  0  0  0  0
 20 35  1  0  0  0  0
 20 36  1  0  0  0  0
 20 37  1  0  0  0  0
 21 34  1  0  0  0  0
 21 38  1  0  0  0  0
 21 39  1  0  0  0  0
 22 40  1  0  0  0  0
 22 41  1  0  0  0  0
 22 45  1  0  0  0  0
 23 42  1  0  0  0  0
 23 43  1  0  0  0  0
 23 44  1  0  0  0  0
M  END
>  <PUBCHEM_COMPOUND_CID>
15291690

>  <PUBCHEM_COMPOUND_CANONICALIZED>
1

>  <PUBCHEM_CACTVS_COMPLEXITY>
524

>  <PUBCHEM_CACTVS_HBOND_ACCEPTOR>
4

>  <PUBCHEM_CACTVS_HBOND_DONOR>
2

>  <PUBCHEM_CACTVS_ROTATABLE_BOND>
4

>  <PUBCHEM_CACTVS_SUBSKEYS>
AAADceB4OAAAAAAAAAAAAAAAAAAAAAAAAAAwQAAAAAAAAACBAAAAGgAACAAADASgmAICBoAABgCIAqBSAAACCAAkIAAIiAEECMgMJzaGNRqAcWAl4BUIuYeI7OzOIAACCAAIAABAAAQQABAAAAAAAAAAAA==

>  <PUBCHEM_IUPAC_OPENEYE_NAME>
5,7-dihydroxy-6,8-bis(3-methylbut-2-enyl)chromen-4-one

>  <PUBCHEM_IUPAC_CAS_NAME>
5,7-dihydroxy-6,8-bis(3-methylbut-2-enyl)-1-benzopyran-4-one

>  <PUBCHEM_IUPAC_NAME>
5,7-dihydroxy-6,8-bis(3-methylbut-2-enyl)chromen-4-one

>  <PUBCHEM_IUPAC_SYSTEMATIC_NAME>
6,8-bis(3-methylbut-2-enyl)-5,7-bis(oxidanyl)chromen-4-one

>  <PUBCHEM_IUPAC_TRADITIONAL_NAME>
5,7-dihydroxy-6,8-bis(3-methylbut-2-enyl)chromone

>  <PUBCHEM_IUPAC_INCHI>
InChI=1S/C19H22O4/c1-11(2)5-7-13-17(21)14(8-6-12(3)4)19-16(18(13)22)15(20)9-10-23-19/h5-6,9-10,21-22H,7-8H2,1-4H3

>  <PUBCHEM_IUPAC_INCHIKEY>
DNZGQFQVMYCNOP-UHFFFAOYSA-N

>  <PUBCHEM_XLOGP3_AA>
5.2

>  <PUBCHEM_EXACT_MASS>
314.152

>  <PUBCHEM_MOLECULAR_FORMULA>
C19H22O4

>  <PUBCHEM_MOLECULAR_WEIGHT>
314.381

>  <PUBCHEM_OPENEYE_CAN_SMILES>
CC(=CCC1=C(C2=C(C(=C1O)CC=C(C)C)OC=CC2=O)O)C

>  <PUBCHEM_OPENEYE_ISO_SMILES>
CC(=CCC1=C(C2=C(C(=C1O)CC=C(C)C)OC=CC2=O)O)C

>  <PUBCHEM_CACTVS_TPSA>
66.8

>  <PUBCHEM_MONOISOTOPIC_WEIGHT>
314.152

>  <PUBCHEM_TOTAL_CHARGE>
0

>  <PUBCHEM_HEAVY_ATOM_COUNT>
23

>  <PUBCHEM_ATOM_DEF_STEREO_COUNT>
0

>  <PUBCHEM_ATOM_UDEF_STEREO_COUNT>
0

>  <PUBCHEM_BOND_DEF_STEREO_COUNT>
0

>  <PUBCHEM_BOND_UDEF_STEREO_COUNT>
0

>  <PUBCHEM_ISOTOPIC_ATOM_COUNT>
0

>  <PUBCHEM_COMPONENT_COUNT>
1

>  <PUBCHEM_CACTVS_TAUTO_COUNT>
12

>  <PUBCHEM_COORDINATE_TYPE>
1
5
255

>  <PUBCHEM_BONDANNOTATIONS>
1  19  8
1  7  8
13  16  8
16  19  8
5  7  8
5  8  8
6  10  8
6  8  8
7  9  8
9  10  8
9  13  8

$$$$
