153016
 OpenBabel06101807152D

 29 25  0  0  1  0  0  0  0  0999 V2000
    5.0230    0.0000    0.0000 Pt  0  2  0  0  0 15  0  0  0  0  0  0
    5.8890    0.5000    0.0000 Cl  0  5  0  0  0  0  0  0  0  0  0  0
    4.1569    0.5000    0.0000 Cl  0  5  0  0  0  0  0  0  0  0  0  0
    5.8890    6.6200    0.0000 N   0  0  0  0  0  0  0  0  0  0  0  0
    5.0230    6.1200    0.0000 C   0  0  3  0  0  0  0  0  0  0  0  0
    5.0230    5.1200    0.0000 C   0  0  0  0  0  0  0  0  0  0  0  0
    4.1569    6.6200    0.0000 C   0  0  0  0  0  0  0  0  0  0  0  0
    4.1569    4.6200    0.0000 C   0  0  0  0  0  0  0  0  0  0  0  0
    5.8890    4.6200    0.0000 C   0  0  0  0  0  0  0  0  0  0  0  0
    4.1569    3.6200    0.0000 C   0  0  0  0  0  0  0  0  0  0  0  0
    5.8890    3.6200    0.0000 C   0  0  0  0  0  0  0  0  0  0  0  0
    5.0230    3.1200    0.0000 C   0  0  0  0  0  0  0  0  0  0  0  0
    0.3100    3.6200    0.0000 C   0  0  0  0  0  0  0  0  0  0  0  0
    1.3100    3.6200    0.0000 C   0  0  0  0  0  0  0  0  0  0  0  0
    5.7591    5.6950    0.0000 H   0  0  0  0  0  0  0  0  0  0  0  0
    4.4669    7.1569    0.0000 H   0  0  0  0  0  0  0  0  0  0  0  0
    3.6200    6.9300    0.0000 H   0  0  0  0  0  0  0  0  0  0  0  0
    3.8469    6.0831    0.0000 H   0  0  0  0  0  0  0  0  0  0  0  0
    3.6200    4.9300    0.0000 H   0  0  0  0  0  0  0  0  0  0  0  0
    6.4259    4.9300    0.0000 H   0  0  0  0  0  0  0  0  0  0  0  0
    5.8890    7.2400    0.0000 H   0  0  0  0  0  0  0  0  0  0  0  0
    6.4259    6.3100    0.0000 H   0  0  0  0  0  0  0  0  0  0  0  0
    3.6200    3.3100    0.0000 H   0  0  0  0  0  0  0  0  0  0  0  0
    6.4259    3.3100    0.0000 H   0  0  0  0  0  0  0  0  0  0  0  0
    5.0230    2.5000    0.0000 H   0  0  0  0  0  0  0  0  0  0  0  0
    0.0000    4.1569    0.0000 H   0  0  0  0  0  0  0  0  0  0  0  0
    0.0000    3.0831    0.0000 H   0  0  0  0  0  0  0  0  0  0  0  0
    1.6200    3.0831    0.0000 H   0  0  0  0  0  0  0  0  0  0  0  0
    1.6200    4.1569    0.0000 H   0  0  0  0  0  0  0  0  0  0  0  0
  4  5  1  0  0  0  0
  4 21  1  0  0  0  0
  4 22  1  0  0  0  0
  5  6  1  0  0  0  0
  5  7  1  0  0  0  0
  5 15  1  0  0  0  0
  6  8  2  0  0  0  0
  6  9  1  0  0  0  0
  7 16  1  0  0  0  0
  7 17  1  0  0  0  0
  7 18  1  0  0  0  0
  8 10  1  0  0  0  0
  8 19  1  0  0  0  0
  9 11  2  0  0  0  0
  9 20  1  0  0  0  0
 10 12  2  0  0  0  0
 10 23  1  0  0  0  0
 11 12  1  0  0  0  0
 11 24  1  0  0  0  0
 12 25  1  0  0  0  0
 13 14  2  0  0  0  0
 13 26  1  0  0  0  0
 13 27  1  0  0  0  0
 14 28  1  0  0  0  0
 14 29  1  0  0  0  0
M  CHG  3   1   2   2  -1   3  -1
M  END
>  <PUBCHEM_COMPOUND_CID>
153016

>  <PUBCHEM_COMPOUND_CANONICALIZED>
1

>  <PUBCHEM_CACTVS_COMPLEXITY>
74.6

>  <PUBCHEM_CACTVS_HBOND_ACCEPTOR>
3

>  <PUBCHEM_CACTVS_HBOND_DONOR>
1

>  <PUBCHEM_CACTVS_ROTATABLE_BOND>
1

>  <PUBCHEM_CACTVS_SUBSKEYS>
AAADccByAAAGAAAAAAAABAAAAAAAAAAAAAAwAAAAAAAAAAABAAAAHAAQAAAADCjBGAQyAIBAAACAAiBCAACCAAAgAAAIiIAABIgIICKAkRGAIABgkAAIiAcQgIAOAAAAAAAAAAAAAAAAAAAAAAAAAAAAAA==

>  <PUBCHEM_IUPAC_OPENEYE_NAME>
ethylene;1-phenylethanamine;platinum(2+);dichloride

>  <PUBCHEM_IUPAC_CAS_NAME>
ethene;1-phenylethanamine;platinum(2+);dichloride

>  <PUBCHEM_IUPAC_NAME>
ethene;1-phenylethanamine;platinum(2+);dichloride

>  <PUBCHEM_IUPAC_SYSTEMATIC_NAME>
ethene;1-phenylethanamine;platinum(2+);dichloride

>  <PUBCHEM_IUPAC_TRADITIONAL_NAME>
ethylene;1-phenylethylamine;platinum(2+);dichloride

>  <PUBCHEM_IUPAC_INCHI>
InChI=1S/C8H11N.C2H4.2ClH.Pt/c1-7(9)8-5-3-2-4-6-8;1-2;;;/h2-7H,9H2,1H3;1-2H2;2*1H;/q;;;;+2/p-2

>  <PUBCHEM_IUPAC_INCHIKEY>
UZALWMBGSHPKOY-UHFFFAOYSA-L

>  <PUBCHEM_EXACT_MASS>
414.023

>  <PUBCHEM_MOLECULAR_FORMULA>
C10H15Cl2NPt

>  <PUBCHEM_MOLECULAR_WEIGHT>
415.221

>  <PUBCHEM_OPENEYE_CAN_SMILES>
CC(C1=CC=CC=C1)N.C=C.[Cl-].[Cl-].[Pt+2]

>  <PUBCHEM_OPENEYE_ISO_SMILES>
CC(C1=CC=CC=C1)N.C=C.[Cl-].[Cl-].[Pt+2]

>  <PUBCHEM_CACTVS_TPSA>
26

>  <PUBCHEM_MONOISOTOPIC_WEIGHT>
414.023

>  <PUBCHEM_TOTAL_CHARGE>
0

>  <PUBCHEM_HEAVY_ATOM_COUNT>
14

>  <PUBCHEM_ATOM_DEF_STEREO_COUNT>
0

>  <PUBCHEM_ATOM_UDEF_STEREO_COUNT>
1

>  <PUBCHEM_BOND_DEF_STEREO_COUNT>
0

>  <PUBCHEM_BOND_UDEF_STEREO_COUNT>
0

>  <PUBCHEM_ISOTOPIC_ATOM_COUNT>
0

>  <PUBCHEM_COMPONENT_COUNT>
5

>  <PUBCHEM_CACTVS_TAUTO_COUNT>
1

>  <PUBCHEM_COORDINATE_TYPE>
1
5
255

>  <PUBCHEM_BONDANNOTATIONS>
10  12  8
11  12  8
5  15  3
6  8  8
6  9  8
8  10  8
9  11  8

$$$$
