15340661
 OpenBabel06101807152D

 46 50  0  0  1  0  0  0  0  0999 V2000
    6.6162   -2.7870    0.0000 O   0  0  0  0  0  0  0  0  0  0  0  0
    3.8361    0.3685    0.0000 O   0  0  0  0  0  0  0  0  0  0  0  0
    4.7340   -4.2076    0.0000 O   0  0  0  0  0  0  0  0  0  0  0  0
    2.9759   -1.1352    0.0000 O   0  0  0  0  0  0  0  0  0  0  0  0
    6.4999    1.8931    0.0000 O   0  0  0  0  0  0  0  0  0  0  0  0
    5.6186    3.5057    0.0000 O   0  0  0  0  0  0  0  0  0  0  0  0
    2.0038    3.5197    0.0000 O   0  0  0  0  0  0  0  0  0  0  0  0
    6.4781   -1.1383    0.0000 C   0  0  3  0  0  0  0  0  0  0  0  0
    7.0961   -1.9167    0.0000 C   0  0  0  0  0  0  0  0  0  0  0  0
    5.6121   -1.6383    0.0000 C   0  0  0  0  0  0  0  0  0  0  0  0
    6.4781   -0.1383    0.0000 C   0  0  0  0  0  0  0  0  0  0  0  0
    5.6282   -2.6798    0.0000 C   0  0  0  0  0  0  0  0  0  0  0  0
    4.7461   -1.1383    0.0000 C   0  0  0  0  0  0  0  0  0  0  0  0
    5.6121    0.3617    0.0000 C   0  0  0  0  0  0  0  0  0  0  0  0
    7.9513   -2.4349    0.0000 C   0  0  0  0  0  0  0  0  0  0  0  0
    7.8532   -1.2634    0.0000 C   0  0  0  0  0  0  0  0  0  0  0  0
    4.7461   -0.1383    0.0000 C   0  0  0  0  0  0  0  0  0  0  0  0
    4.7301   -3.2076    0.0000 C   0  0  0  0  0  0  0  0  0  0  0  0
    3.8361   -1.6452    0.0000 C   0  0  0  0  0  0  0  0  0  0  0  0
    5.6282    1.4032    0.0000 C   0  0  0  0  0  0  0  0  0  0  0  0
    3.8280   -2.6868    0.0000 C   0  0  0  0  0  0  0  0  0  0  0  0
    4.7301    1.9309    0.0000 C   0  0  0  0  0  0  0  0  0  0  0  0
    3.8280    1.4101    0.0000 C   0  0  0  0  0  0  0  0  0  0  0  0
    4.7469    3.0158    0.0000 C   0  0  0  0  0  0  0  0  0  0  0  0
    2.8802    1.9380    0.0000 C   0  0  0  0  0  0  0  0  0  0  0  0
    3.8114    3.5655    0.0000 C   0  0  0  0  0  0  0  0  0  0  0  0
    2.8718    3.0230    0.0000 C   0  0  0  0  0  0  0  0  0  0  0  0
    2.0000    4.5197    0.0000 C   0  0  0  0  0  0  0  0  0  0  0  0
    7.0636   -0.9342    0.0000 H   0  0  0  0  0  0  0  0  0  0  0  0
    7.0887   -0.2460    0.0000 H   0  0  0  0  0  0  0  0  0  0  0  0
    6.6902    0.4443    0.0000 H   0  0  0  0  0  0  0  0  0  0  0  0
    7.6300   -2.9652    0.0000 H   0  0  0  0  0  0  0  0  0  0  0  0
    8.2582   -1.7329    0.0000 H   0  0  0  0  0  0  0  0  0  0  0  0
    8.3226   -0.8584    0.0000 H   0  0  0  0  0  0  0  0  0  0  0  0
    7.4482   -0.7940    0.0000 H   0  0  0  0  0  0  0  0  0  0  0  0
    8.4816   -2.7562    0.0000 H   0  0  0  0  0  0  0  0  0  0  0  0
    8.2726   -1.9047    0.0000 H   0  0  0  0  0  0  0  0  0  0  0  0
    3.2899   -2.9947    0.0000 H   0  0  0  0  0  0  0  0  0  0  0  0
    4.1982   -4.5197    0.0000 H   0  0  0  0  0  0  0  0  0  0  0  0
    2.4354   -1.4390    0.0000 H   0  0  0  0  0  0  0  0  0  0  0  0
    2.3468    1.6219    0.0000 H   0  0  0  0  0  0  0  0  0  0  0  0
    3.8138    4.1855    0.0000 H   0  0  0  0  0  0  0  0  0  0  0  0
    5.6258    4.1257    0.0000 H   0  0  0  0  0  0  0  0  0  0  0  0
    2.6200    4.5220    0.0000 H   0  0  0  0  0  0  0  0  0  0  0  0
    1.9976    5.1397    0.0000 H   0  0  0  0  0  0  0  0  0  0  0  0
    1.3800    4.5173    0.0000 H   0  0  0  0  0  0  0  0  0  0  0  0
  1  9  1  0  0  0  0
  1 12  1  0  0  0  0
  2 17  1  0  0  0  0
  2 23  1  0  0  0  0
  3 18  1  0  0  0  0
  3 39  1  0  0  0  0
  4 19  1  0  0  0  0
  4 40  1  0  0  0  0
  5 20  2  0  0  0  0
  6 24  1  0  0  0  0
  6 43  1  0  0  0  0
  7 27  1  0  0  0  0
  7 28  1  0  0  0  0
  8  9  1  0  0  0  0
  8 10  1  0  0  0  0
  8 11  1  0  0  0  0
  8 29  1  0  0  0  0
  9 15  1  0  0  0  0
  9 16  1  0  0  0  0
 10 12  1  0  0  0  0
 10 13  2  0  0  0  0
 11 14  1  0  0  0  0
 11 30  1  0  0  0  0
 11 31  1  0  0  0  0
 12 18  2  0  0  0  0
 13 17  1  0  0  0  0
 13 19  1  0  0  0  0
 14 17  2  0  0  0  0
 14 20  1  0  0  0  0
 15 32  1  0  0  0  0
 15 36  1  0  0  0  0
 15 37  1  0  0  0  0
 16 33  1  0  0  0  0
 16 34  1  0  0  0  0
 16 35  1  0  0  0  0
 18 21  1  0  0  0  0
 19 21  2  0  0  0  0
 20 22  1  0  0  0  0
 21 38  1  0  0  0  0
 22 23  1  0  0  0  0
 22 24  2  0  0  0  0
 23 25  2  0  0  0  0
 24 26  1  0  0  0  0
 25 27  1  0  0  0  0
 25 41  1  0  0  0  0
 26 27  2  0  0  0  0
 26 42  1  0  0  0  0
 28 44  1  0  0  0  0
 28 45  1  0  0  0  0
 28 46  1  0  0  0  0
M  END
>  <PUBCHEM_COMPOUND_CID>
15340661

>  <PUBCHEM_COMPOUND_CANONICALIZED>
1

>  <PUBCHEM_CACTVS_COMPLEXITY>
716

>  <PUBCHEM_CACTVS_HBOND_ACCEPTOR>
7

>  <PUBCHEM_CACTVS_HBOND_DONOR>
3

>  <PUBCHEM_CACTVS_ROTATABLE_BOND>
1

>  <PUBCHEM_CACTVS_SUBSKEYS>
AAADceB4OAAAAAAAAAAAAAAAAAAAASAAAAAwYIEAAAAAAEiRQAAAGgAACAAADUSAmAIyBoAABgCIAqBSAAACCAAkIAAAiAEGiMgNJzaGNRqCeWOl4BULuQfI7PzOoQABCAAYQABCAAIQADCAAAAAAAAAAA==

>  <PUBCHEM_IUPAC_INCHI>
InChI=1S/C21H18O7/c1-21(2)10-6-9-18(25)16-11(22)4-8(26-3)5-14(16)27-19(9)17-12(23)7-13(24)20(28-21)15(10)17/h4-5,7,10,22-24H,6H2,1-3H3

>  <PUBCHEM_IUPAC_INCHIKEY>
NMKFZSNRHNHWLX-UHFFFAOYSA-N

>  <PUBCHEM_XLOGP3_AA>
3.1

>  <PUBCHEM_EXACT_MASS>
382.105

>  <PUBCHEM_MOLECULAR_FORMULA>
C21H18O7

>  <PUBCHEM_MOLECULAR_WEIGHT>
382.368

>  <PUBCHEM_OPENEYE_CAN_SMILES>
CC1(C2CC3=C(C4=C2C(=C(C=C4O)O)O1)OC5=CC(=CC(=C5C3=O)O)OC)C

>  <PUBCHEM_OPENEYE_ISO_SMILES>
CC1(C2CC3=C(C4=C2C(=C(C=C4O)O)O1)OC5=CC(=CC(=C5C3=O)O)OC)C

>  <PUBCHEM_CACTVS_TPSA>
105

>  <PUBCHEM_MONOISOTOPIC_WEIGHT>
382.105

>  <PUBCHEM_TOTAL_CHARGE>
0

>  <PUBCHEM_HEAVY_ATOM_COUNT>
28

>  <PUBCHEM_ATOM_DEF_STEREO_COUNT>
0

>  <PUBCHEM_ATOM_UDEF_STEREO_COUNT>
1

>  <PUBCHEM_BOND_DEF_STEREO_COUNT>
0

>  <PUBCHEM_BOND_UDEF_STEREO_COUNT>
0

>  <PUBCHEM_ISOTOPIC_ATOM_COUNT>
0

>  <PUBCHEM_COMPONENT_COUNT>
1

>  <PUBCHEM_CACTVS_TAUTO_COUNT>
157

>  <PUBCHEM_COORDINATE_TYPE>
1
5
255

>  <PUBCHEM_BONDANNOTATIONS>
10  12  8
10  13  8
12  18  8
13  19  8
14  17  8
14  20  8
18  21  8
19  21  8
2  17  8
2  23  8
20  22  8
22  23  8
22  24  8
23  25  8
24  26  8
25  27  8
26  27  8
8  11  3

$$$$
