15460082
 OpenBabel06101807152D

 38 39  0  0  0  0  0  0  0  0999 V2000
    4.6660    1.7500    0.0000 O   0  0  0  0  0  0  0  0  0  0  0  0
    6.3981   -1.2500    0.0000 O   0  0  0  0  0  0  0  0  0  0  0  0
    4.6660   -1.2500    0.0000 N   0  0  0  0  0  0  0  0  0  0  0  0
    5.5321    0.2500    0.0000 C   0  0  0  0  0  0  0  0  0  0  0  0
    3.8000    0.2500    0.0000 C   0  0  0  0  0  0  0  0  0  0  0  0
    3.8000   -0.7500    0.0000 C   0  0  0  0  0  0  0  0  0  0  0  0
    4.6660    0.7500    0.0000 C   0  0  0  0  0  0  0  0  0  0  0  0
    6.3981    0.7500    0.0000 C   0  0  0  0  0  0  0  0  0  0  0  0
    5.5321   -0.7500    0.0000 C   0  0  0  0  0  0  0  0  0  0  0  0
    2.9061    0.7847    0.0000 C   0  0  0  0  0  0  0  0  0  0  0  0
    2.9061   -1.2847    0.0000 C   0  0  0  0  0  0  0  0  0  0  0  0
    4.6660   -2.2500    0.0000 C   0  0  0  0  0  0  0  0  0  0  0  0
    7.2641    0.2500    0.0000 C   0  0  0  0  0  0  0  0  0  0  0  0
    2.0000    0.2708    0.0000 C   0  0  0  0  0  0  0  0  0  0  0  0
    2.0000   -0.7708    0.0000 C   0  0  0  0  0  0  0  0  0  0  0  0
    8.1301    0.7500    0.0000 C   0  0  0  0  0  0  0  0  0  0  0  0
    8.9962    0.2500    0.0000 C   0  0  0  0  0  0  0  0  0  0  0  0
    8.1301    1.7500    0.0000 C   0  0  0  0  0  0  0  0  0  0  0  0
    5.5321    2.2500    0.0000 C   0  0  0  0  0  0  0  0  0  0  0  0
    6.7966    1.2250    0.0000 H   0  0  0  0  0  0  0  0  0  0  0  0
    5.9996    1.2250    0.0000 H   0  0  0  0  0  0  0  0  0  0  0  0
    2.9132    1.4046    0.0000 H   0  0  0  0  0  0  0  0  0  0  0  0
    2.9132   -1.9046    0.0000 H   0  0  0  0  0  0  0  0  0  0  0  0
    4.0460   -2.2500    0.0000 H   0  0  0  0  0  0  0  0  0  0  0  0
    4.6660   -2.8700    0.0000 H   0  0  0  0  0  0  0  0  0  0  0  0
    5.2860   -2.2500    0.0000 H   0  0  0  0  0  0  0  0  0  0  0  0
    7.2641   -0.3700    0.0000 H   0  0  0  0  0  0  0  0  0  0  0  0
    1.4643    0.5829    0.0000 H   0  0  0  0  0  0  0  0  0  0  0  0
    1.4643   -1.0829    0.0000 H   0  0  0  0  0  0  0  0  0  0  0  0
    8.7501    1.7500    0.0000 H   0  0  0  0  0  0  0  0  0  0  0  0
    8.1301    2.3700    0.0000 H   0  0  0  0  0  0  0  0  0  0  0  0
    7.5101    1.7500    0.0000 H   0  0  0  0  0  0  0  0  0  0  0  0
    8.6862   -0.2869    0.0000 H   0  0  0  0  0  0  0  0  0  0  0  0
    9.5331   -0.0600    0.0000 H   0  0  0  0  0  0  0  0  0  0  0  0
    9.3062    0.7869    0.0000 H   0  0  0  0  0  0  0  0  0  0  0  0
    5.8421    1.7131    0.0000 H   0  0  0  0  0  0  0  0  0  0  0  0
    6.0690    2.5600    0.0000 H   0  0  0  0  0  0  0  0  0  0  0  0
    5.2221    2.7869    0.0000 H   0  0  0  0  0  0  0  0  0  0  0  0
  1  7  1  0  0  0  0
  1 19  1  0  0  0  0
  2  9  2  0  0  0  0
  3  6  1  0  0  0  0
  3  9  1  0  0  0  0
  3 12  1  0  0  0  0
  4  7  2  0  0  0  0
  4  8  1  0  0  0  0
  4  9  1  0  0  0  0
  5  6  1  0  0  0  0
  5  7  1  0  0  0  0
  5 10  2  0  0  0  0
  6 11  2  0  0  0  0
  8 13  1  0  0  0  0
  8 20  1  0  0  0  0
  8 21  1  0  0  0  0
 10 14  1  0  0  0  0
 10 22  1  0  0  0  0
 11 15  1  0  0  0  0
 11 23  1  0  0  0  0
 12 24  1  0  0  0  0
 12 25  1  0  0  0  0
 12 26  1  0  0  0  0
 13 16  2  0  0  0  0
 13 27  1  0  0  0  0
 14 15  2  0  0  0  0
 14 28  1  0  0  0  0
 15 29  1  0  0  0  0
 16 17  1  0  0  0  0
 16 18  1  0  0  0  0
 17 33  1  0  0  0  0
 17 34  1  0  0  0  0
 17 35  1  0  0  0  0
 18 30  1  0  0  0  0
 18 31  1  0  0  0  0
 18 32  1  0  0  0  0
 19 36  1  0  0  0  0
 19 37  1  0  0  0  0
 19 38  1  0  0  0  0
M  END
>  <PUBCHEM_COMPOUND_CID>
15460082

>  <PUBCHEM_COMPOUND_CANONICALIZED>
1

>  <PUBCHEM_CACTVS_COMPLEXITY>
419

>  <PUBCHEM_CACTVS_HBOND_ACCEPTOR>
2

>  <PUBCHEM_CACTVS_HBOND_DONOR>
0

>  <PUBCHEM_CACTVS_ROTATABLE_BOND>
3

>  <PUBCHEM_CACTVS_SUBSKEYS>
AAADceB6MAAAAAAAAAAAAAAAAAAAAAAAAAAwQAAAAAAAAACBAAAAHgAAAAAADAyBmAYywIMABACIAiVSUACCCAAhIgAIiAEIbMgIJjLAsZmEMAhmxgHI6QeQwCAOAAAAAAACAAAAAAAAAAQAAAAAAAAAAA==

>  <PUBCHEM_IUPAC_OPENEYE_NAME>
4-methoxy-1-methyl-3-(3-methylbut-2-enyl)quinolin-2-one

>  <PUBCHEM_IUPAC_CAS_NAME>
4-methoxy-1-methyl-3-(3-methylbut-2-enyl)-2-quinolinone

>  <PUBCHEM_IUPAC_NAME>
4-methoxy-1-methyl-3-(3-methylbut-2-enyl)quinolin-2-one

>  <PUBCHEM_IUPAC_SYSTEMATIC_NAME>
4-methoxy-1-methyl-3-(3-methylbut-2-enyl)quinolin-2-one

>  <PUBCHEM_IUPAC_TRADITIONAL_NAME>
4-methoxy-1-methyl-3-(3-methylbut-2-enyl)carbostyril

>  <PUBCHEM_IUPAC_INCHI>
InChI=1S/C16H19NO2/c1-11(2)9-10-13-15(19-4)12-7-5-6-8-14(12)17(3)16(13)18/h5-9H,10H2,1-4H3

>  <PUBCHEM_IUPAC_INCHIKEY>
OGNDPMMWXRHXND-UHFFFAOYSA-N

>  <PUBCHEM_XLOGP3_AA>
3.1

>  <PUBCHEM_EXACT_MASS>
257.142

>  <PUBCHEM_MOLECULAR_FORMULA>
C16H19NO2

>  <PUBCHEM_MOLECULAR_WEIGHT>
257.333

>  <PUBCHEM_OPENEYE_CAN_SMILES>
CC(=CCC1=C(C2=CC=CC=C2N(C1=O)C)OC)C

>  <PUBCHEM_OPENEYE_ISO_SMILES>
CC(=CCC1=C(C2=CC=CC=C2N(C1=O)C)OC)C

>  <PUBCHEM_CACTVS_TPSA>
29.5

>  <PUBCHEM_MONOISOTOPIC_WEIGHT>
257.142

>  <PUBCHEM_TOTAL_CHARGE>
0

>  <PUBCHEM_HEAVY_ATOM_COUNT>
19

>  <PUBCHEM_ATOM_DEF_STEREO_COUNT>
0

>  <PUBCHEM_ATOM_UDEF_STEREO_COUNT>
0

>  <PUBCHEM_BOND_DEF_STEREO_COUNT>
0

>  <PUBCHEM_BOND_UDEF_STEREO_COUNT>
0

>  <PUBCHEM_ISOTOPIC_ATOM_COUNT>
0

>  <PUBCHEM_COMPONENT_COUNT>
1

>  <PUBCHEM_CACTVS_TAUTO_COUNT>
1

>  <PUBCHEM_COORDINATE_TYPE>
1
5
255

>  <PUBCHEM_BONDANNOTATIONS>
10  14  8
11  15  8
14  15  8
3  6  8
3  9  8
4  7  8
4  9  8
5  10  8
5  6  8
5  7  8
6  11  8

$$$$
