1550607
 OpenBabel06101807152D

 44 45  0  0  0  0  0  0  0  0999 V2000
    8.9282   -0.7073    0.0000 O   0  0  0  0  0  0  0  0  0  0  0  0
   12.4202   -0.7420    0.0000 O   0  0  0  0  0  0  0  0  0  0  0  0
   14.1904   -0.7315    0.0000 O   0  0  0  0  0  0  0  0  0  0  0  0
    5.4641   -0.7073    0.0000 C   0  0  0  0  0  0  0  0  0  0  0  0
    4.5981   -0.2073    0.0000 C   0  0  0  0  0  0  0  0  0  0  0  0
    6.3301   -0.2073    0.0000 C   0  0  0  0  0  0  0  0  0  0  0  0
    7.1962   -0.7073    0.0000 C   0  0  0  0  0  0  0  0  0  0  0  0
    3.7320   -0.7073    0.0000 C   0  0  0  0  0  0  0  0  0  0  0  0
    8.0622   -0.2073    0.0000 C   0  0  0  0  0  0  0  0  0  0  0  0
    6.3301    0.7927    0.0000 C   0  0  0  0  0  0  0  0  0  0  0  0
    2.8660   -0.2073    0.0000 C   0  0  0  0  0  0  0  0  0  0  0  0
    9.7942   -0.2073    0.0000 C   0  0  0  0  0  0  0  0  0  0  0  0
   11.5263    0.7927    0.0000 C   0  0  0  0  0  0  0  0  0  0  0  0
   11.5263   -0.2073    0.0000 C   0  0  0  0  0  0  0  0  0  0  0  0
   10.6603   -0.7073    0.0000 C   0  0  0  0  0  0  0  0  0  0  0  0
    9.7942    0.7927    0.0000 C   0  0  0  0  0  0  0  0  0  0  0  0
   10.6603    1.2927    0.0000 C   0  0  0  0  0  0  0  0  0  0  0  0
    2.0000   -0.7073    0.0000 C   0  0  0  0  0  0  0  0  0  0  0  0
    2.8660    0.7927    0.0000 C   0  0  0  0  0  0  0  0  0  0  0  0
   12.4202    1.3273    0.0000 C   0  0  0  0  0  0  0  0  0  0  0  0
   13.3263    0.8135    0.0000 C   0  0  0  0  0  0  0  0  0  0  0  0
   13.3263   -0.2281    0.0000 C   0  0  0  0  0  0  0  0  0  0  0  0
    5.0656   -1.1823    0.0000 H   0  0  0  0  0  0  0  0  0  0  0  0
    5.8626   -1.1823    0.0000 H   0  0  0  0  0  0  0  0  0  0  0  0
    4.9966    0.2676    0.0000 H   0  0  0  0  0  0  0  0  0  0  0  0
    4.1996    0.2676    0.0000 H   0  0  0  0  0  0  0  0  0  0  0  0
    7.1962   -1.3273    0.0000 H   0  0  0  0  0  0  0  0  0  0  0  0
    3.7320   -1.3273    0.0000 H   0  0  0  0  0  0  0  0  0  0  0  0
    8.4607    0.2676    0.0000 H   0  0  0  0  0  0  0  0  0  0  0  0
    7.6636    0.2676    0.0000 H   0  0  0  0  0  0  0  0  0  0  0  0
    6.9501    0.7927    0.0000 H   0  0  0  0  0  0  0  0  0  0  0  0
    6.3301    1.4127    0.0000 H   0  0  0  0  0  0  0  0  0  0  0  0
    5.7101    0.7927    0.0000 H   0  0  0  0  0  0  0  0  0  0  0  0
   10.6603   -1.3273    0.0000 H   0  0  0  0  0  0  0  0  0  0  0  0
    9.2573    1.1027    0.0000 H   0  0  0  0  0  0  0  0  0  0  0  0
   10.6603    1.9127    0.0000 H   0  0  0  0  0  0  0  0  0  0  0  0
    3.4860    0.7927    0.0000 H   0  0  0  0  0  0  0  0  0  0  0  0
    2.8660    1.4127    0.0000 H   0  0  0  0  0  0  0  0  0  0  0  0
    2.2460    0.7927    0.0000 H   0  0  0  0  0  0  0  0  0  0  0  0
    1.6900   -0.1704    0.0000 H   0  0  0  0  0  0  0  0  0  0  0  0
    1.4631   -1.0173    0.0000 H   0  0  0  0  0  0  0  0  0  0  0  0
    2.3100   -1.2443    0.0000 H   0  0  0  0  0  0  0  0  0  0  0  0
   12.4131    1.9473    0.0000 H   0  0  0  0  0  0  0  0  0  0  0  0
   13.8620    1.1256    0.0000 H   0  0  0  0  0  0  0  0  0  0  0  0
  1  9  1  0  0  0  0
  1 12  1  0  0  0  0
  2 14  1  0  0  0  0
  2 22  1  0  0  0  0
  3 22  2  0  0  0  0
  4  5  1  0  0  0  0
  4  6  1  0  0  0  0
  4 23  1  0  0  0  0
  4 24  1  0  0  0  0
  5  8  1  0  0  0  0
  5 25  1  0  0  0  0
  5 26  1  0  0  0  0
  6  7  2  0  0  0  0
  6 10  1  0  0  0  0
  7  9  1  0  0  0  0
  7 27  1  0  0  0  0
  8 11  2  0  0  0  0
  8 28  1  0  0  0  0
  9 29  1  0  0  0  0
  9 30  1  0  0  0  0
 10 31  1  0  0  0  0
 10 32  1  0  0  0  0
 10 33  1  0  0  0  0
 11 18  1  0  0  0  0
 11 19  1  0  0  0  0
 12 15  2  0  0  0  0
 12 16  1  0  0  0  0
 13 14  2  0  0  0  0
 13 17  1  0  0  0  0
 13 20  1  0  0  0  0
 14 15  1  0  0  0  0
 15 34  1  0  0  0  0
 16 17  2  0  0  0  0
 16 35  1  0  0  0  0
 17 36  1  0  0  0  0
 18 40  1  0  0  0  0
 18 41  1  0  0  0  0
 18 42  1  0  0  0  0
 19 37  1  0  0  0  0
 19 38  1  0  0  0  0
 19 39  1  0  0  0  0
 20 21  2  0  0  0  0
 20 43  1  0  0  0  0
 21 22  1  0  0  0  0
 21 44  1  0  0  0  0
M  END
>  <PUBCHEM_COMPOUND_CID>
1550607

>  <PUBCHEM_COMPOUND_CANONICALIZED>
1

>  <PUBCHEM_CACTVS_COMPLEXITY>
469

>  <PUBCHEM_CACTVS_HBOND_ACCEPTOR>
3

>  <PUBCHEM_CACTVS_HBOND_DONOR>
0

>  <PUBCHEM_CACTVS_ROTATABLE_BOND>
6

>  <PUBCHEM_CACTVS_SUBSKEYS>
AAADceB4MAAAAAAAAAAAAAAAAAAAAAAAAAAwQAAAAAAAAACBAAAAGgAAAAAADASgmAIyDoAABACIAiDSCAACCAAgIAAIiAAGCMgMJyKEMRqCOiClwBUIqYeA4CwOIAAACAAIAABAAAAQABAAAAAAAAAAAA==

>  <PUBCHEM_IUPAC_OPENEYE_NAME>
7-[(2E)-3,7-dimethylocta-2,6-dienoxy]chromen-2-one

>  <PUBCHEM_IUPAC_CAS_NAME>
7-[(2E)-3,7-dimethylocta-2,6-dienoxy]-1-benzopyran-2-one

>  <PUBCHEM_IUPAC_NAME>
7-[(2E)-3,7-dimethylocta-2,6-dienoxy]chromen-2-one

>  <PUBCHEM_IUPAC_SYSTEMATIC_NAME>
7-[(2E)-3,7-dimethylocta-2,6-dienoxy]chromen-2-one

>  <PUBCHEM_IUPAC_TRADITIONAL_NAME>
7-[(2E)-3,7-dimethylocta-2,6-dienoxy]coumarin

>  <PUBCHEM_IUPAC_INCHI>
InChI=1S/C19H22O3/c1-14(2)5-4-6-15(3)11-12-21-17-9-7-16-8-10-19(20)22-18(16)13-17/h5,7-11,13H,4,6,12H2,1-3H3/b15-11+

>  <PUBCHEM_IUPAC_INCHIKEY>
RSDDHGSKLOSQFK-RVDMUPIBSA-N

>  <PUBCHEM_XLOGP3>
5.3

>  <PUBCHEM_EXACT_MASS>
298.157

>  <PUBCHEM_MOLECULAR_FORMULA>
C19H22O3

>  <PUBCHEM_MOLECULAR_WEIGHT>
298.382

>  <PUBCHEM_OPENEYE_CAN_SMILES>
CC(=CCCC(=CCOC1=CC2=C(C=C1)C=CC(=O)O2)C)C

>  <PUBCHEM_OPENEYE_ISO_SMILES>
CC(=CCC/C(=C/COC1=CC2=C(C=C1)C=CC(=O)O2)/C)C

>  <PUBCHEM_CACTVS_TPSA>
35.5

>  <PUBCHEM_MONOISOTOPIC_WEIGHT>
298.157

>  <PUBCHEM_TOTAL_CHARGE>
0

>  <PUBCHEM_HEAVY_ATOM_COUNT>
22

>  <PUBCHEM_ATOM_DEF_STEREO_COUNT>
0

>  <PUBCHEM_ATOM_UDEF_STEREO_COUNT>
0

>  <PUBCHEM_BOND_DEF_STEREO_COUNT>
1

>  <PUBCHEM_BOND_UDEF_STEREO_COUNT>
0

>  <PUBCHEM_ISOTOPIC_ATOM_COUNT>
0

>  <PUBCHEM_COMPONENT_COUNT>
1

>  <PUBCHEM_CACTVS_TAUTO_COUNT>
1

>  <PUBCHEM_COORDINATE_TYPE>
1
5
255

>  <PUBCHEM_BONDANNOTATIONS>
12  15  8
12  16  8
13  14  8
13  17  8
13  20  8
14  15  8
16  17  8
2  14  8
2  22  8
20  21  8
21  22  8

$$$$
