155240
 OpenBabel06101807152D

 26 26  0  0  0  0  0  0  0  0999 V2000
    6.8671   -1.6550    0.0000 O   0  0  0  0  0  0  0  0  0  0  0  0
    4.2690    2.8450    0.0000 O   0  0  0  0  0  0  0  0  0  0  0  0
    2.5369    1.8450    0.0000 O   0  0  0  0  0  0  0  0  0  0  0  0
    6.0010   -3.1550    0.0000 O   0  0  0  0  0  0  0  0  0  0  0  0
    6.0010   -0.1550    0.0000 C   0  0  0  0  0  0  0  0  0  0  0  0
    5.1350    0.3450    0.0000 C   0  0  0  0  0  0  0  0  0  0  0  0
    6.0010   -1.1550    0.0000 C   0  0  0  0  0  0  0  0  0  0  0  0
    5.1350    1.3450    0.0000 C   0  0  0  0  0  0  0  0  0  0  0  0
    4.2690   -0.1550    0.0000 C   0  0  0  0  0  0  0  0  0  0  0  0
    4.2690    1.8450    0.0000 C   0  0  0  0  0  0  0  0  0  0  0  0
    3.4030    0.3450    0.0000 C   0  0  0  0  0  0  0  0  0  0  0  0
    3.4030    1.3450    0.0000 C   0  0  0  0  0  0  0  0  0  0  0  0
    6.8671   -2.6550    0.0000 C   0  0  0  0  0  0  0  0  0  0  0  0
    7.7331   -3.1550    0.0000 C   0  0  0  0  0  0  0  0  0  0  0  0
    6.6116   -0.2627    0.0000 H   0  0  0  0  0  0  0  0  0  0  0  0
    6.2131    0.4276    0.0000 H   0  0  0  0  0  0  0  0  0  0  0  0
    5.3905   -1.0473    0.0000 H   0  0  0  0  0  0  0  0  0  0  0  0
    5.7890   -1.7376    0.0000 H   0  0  0  0  0  0  0  0  0  0  0  0
    5.6720    1.6550    0.0000 H   0  0  0  0  0  0  0  0  0  0  0  0
    4.2690   -0.7750    0.0000 H   0  0  0  0  0  0  0  0  0  0  0  0
    2.8660    0.0350    0.0000 H   0  0  0  0  0  0  0  0  0  0  0  0
    4.8059    3.1550    0.0000 H   0  0  0  0  0  0  0  0  0  0  0  0
    7.4231   -3.6919    0.0000 H   0  0  0  0  0  0  0  0  0  0  0  0
    8.2700   -3.4650    0.0000 H   0  0  0  0  0  0  0  0  0  0  0  0
    8.0431   -2.6181    0.0000 H   0  0  0  0  0  0  0  0  0  0  0  0
    2.0000    1.5350    0.0000 H   0  0  0  0  0  0  0  0  0  0  0  0
  1  7  1  0  0  0  0
  1 13  1  0  0  0  0
  2 10  1  0  0  0  0
  2 22  1  0  0  0  0
  3 12  1  0  0  0  0
  3 26  1  0  0  0  0
  4 13  2  0  0  0  0
  5  6  1  0  0  0  0
  5  7  1  0  0  0  0
  5 15  1  0  0  0  0
  5 16  1  0  0  0  0
  6  8  2  0  0  0  0
  6  9  1  0  0  0  0
  7 17  1  0  0  0  0
  7 18  1  0  0  0  0
  8 10  1  0  0  0  0
  8 19  1  0  0  0  0
  9 11  2  0  0  0  0
  9 20  1  0  0  0  0
 10 12  2  0  0  0  0
 11 12  1  0  0  0  0
 11 21  1  0  0  0  0
 13 14  1  0  0  0  0
 14 23  1  0  0  0  0
 14 24  1  0  0  0  0
 14 25  1  0  0  0  0
M  END
>  <PUBCHEM_COMPOUND_CID>
155240

>  <PUBCHEM_COMPOUND_CANONICALIZED>
1

>  <PUBCHEM_CACTVS_COMPLEXITY>
193

>  <PUBCHEM_CACTVS_HBOND_ACCEPTOR>
4

>  <PUBCHEM_CACTVS_HBOND_DONOR>
2

>  <PUBCHEM_CACTVS_ROTATABLE_BOND>
4

>  <PUBCHEM_CACTVS_SUBSKEYS>
AAADccBwOAAAAAAAAAAAAAAAAAAAAAAAAAAwAAAAAAAAAAABAAAAGgAACAAADASgmAIyDoAABgCIAiDSCAACAAAgIAAIiAAGiIgJJiKCERKCcAEkwBEJmAeA4LwOIAABAAAAQABAAAIAAACAAAAAAAAAAA==

>  <PUBCHEM_IUPAC_OPENEYE_NAME>
2-(3,4-dihydroxyphenyl)ethyl acetate

>  <PUBCHEM_IUPAC_CAS_NAME>
acetic acid 2-(3,4-dihydroxyphenyl)ethyl ester

>  <PUBCHEM_IUPAC_NAME>
2-(3,4-dihydroxyphenyl)ethyl acetate

>  <PUBCHEM_IUPAC_SYSTEMATIC_NAME>
2-[3,4-bis(oxidanyl)phenyl]ethyl ethanoate

>  <PUBCHEM_IUPAC_TRADITIONAL_NAME>
acetic acid 2-(3,4-dihydroxyphenyl)ethyl ester

>  <PUBCHEM_IUPAC_INCHI>
InChI=1S/C10H12O4/c1-7(11)14-5-4-8-2-3-9(12)10(13)6-8/h2-3,6,12-13H,4-5H2,1H3

>  <PUBCHEM_IUPAC_INCHIKEY>
FGJGLFPNIZXRLV-UHFFFAOYSA-N

>  <PUBCHEM_XLOGP3>
-0.1

>  <PUBCHEM_EXACT_MASS>
196.074

>  <PUBCHEM_MOLECULAR_FORMULA>
C10H12O4

>  <PUBCHEM_MOLECULAR_WEIGHT>
196.202

>  <PUBCHEM_OPENEYE_CAN_SMILES>
CC(=O)OCCC1=CC(=C(C=C1)O)O

>  <PUBCHEM_OPENEYE_ISO_SMILES>
CC(=O)OCCC1=CC(=C(C=C1)O)O

>  <PUBCHEM_CACTVS_TPSA>
66.8

>  <PUBCHEM_MONOISOTOPIC_WEIGHT>
196.074

>  <PUBCHEM_TOTAL_CHARGE>
0

>  <PUBCHEM_HEAVY_ATOM_COUNT>
14

>  <PUBCHEM_ATOM_DEF_STEREO_COUNT>
0

>  <PUBCHEM_ATOM_UDEF_STEREO_COUNT>
0

>  <PUBCHEM_BOND_DEF_STEREO_COUNT>
0

>  <PUBCHEM_BOND_UDEF_STEREO_COUNT>
0

>  <PUBCHEM_ISOTOPIC_ATOM_COUNT>
0

>  <PUBCHEM_COMPONENT_COUNT>
1

>  <PUBCHEM_CACTVS_TAUTO_COUNT>
18

>  <PUBCHEM_COORDINATE_TYPE>
1
5
255

>  <PUBCHEM_BONDANNOTATIONS>
10  12  8
11  12  8
6  8  8
6  9  8
8  10  8
9  11  8

$$$$
