155248
 OpenBabel06101807152D

 41 43  0  0  0  0  0  0  0  0999 V2000
    6.0812   -0.8047    0.0000 O   0  0  0  0  0  0  0  0  0  0  0  0
    9.6648   -1.7320    0.0000 O   0  0  0  0  0  0  0  0  0  0  0  0
    9.6648    1.7320    0.0000 O   0  0  0  0  0  0  0  0  0  0  0  0
    2.5369   -1.0000    0.0000 O   0  0  0  0  0  0  0  0  0  0  0  0
    7.6648    0.0000    0.0000 C   0  0  0  0  0  0  0  0  0  0  0  0
    9.6648    0.0000    0.0000 C   0  0  0  0  0  0  0  0  0  0  0  0
    6.6648    0.0000    0.0000 C   0  0  0  0  0  0  0  0  0  0  0  0
   10.6648    0.0000    0.0000 C   0  0  0  0  0  0  0  0  0  0  0  0
    5.1350    0.5000    0.0000 C   0  0  0  0  0  0  0  0  0  0  0  0
    9.1648   -0.8660    0.0000 C   0  0  0  0  0  0  0  0  0  0  0  0
    9.1648    0.8660    0.0000 C   0  0  0  0  0  0  0  0  0  0  0  0
    8.1648   -0.8660    0.0000 C   0  0  0  0  0  0  0  0  0  0  0  0
    8.1648    0.8660    0.0000 C   0  0  0  0  0  0  0  0  0  0  0  0
    5.1350   -0.5000    0.0000 C   0  0  0  0  0  0  0  0  0  0  0  0
    6.0812    0.8047    0.0000 C   0  0  0  0  0  0  0  0  0  0  0  0
   11.1648    0.8660    0.0000 C   0  0  0  0  0  0  0  0  0  0  0  0
    4.2690    1.0000    0.0000 C   0  0  0  0  0  0  0  0  0  0  0  0
    4.2690   -1.0000    0.0000 C   0  0  0  0  0  0  0  0  0  0  0  0
   12.1648    0.8660    0.0000 C   0  0  0  0  0  0  0  0  0  0  0  0
    3.4030   -0.5000    0.0000 C   0  0  0  0  0  0  0  0  0  0  0  0
    3.4030    0.5000    0.0000 C   0  0  0  0  0  0  0  0  0  0  0  0
   12.6648    1.7320    0.0000 C   0  0  0  0  0  0  0  0  0  0  0  0
   12.6648    0.0000    0.0000 C   0  0  0  0  0  0  0  0  0  0  0  0
   10.5572   -0.6106    0.0000 H   0  0  0  0  0  0  0  0  0  0  0  0
   11.2474   -0.2121    0.0000 H   0  0  0  0  0  0  0  0  0  0  0  0
    7.8548   -1.4030    0.0000 H   0  0  0  0  0  0  0  0  0  0  0  0
    7.8548    1.4030    0.0000 H   0  0  0  0  0  0  0  0  0  0  0  0
    6.2738    1.3940    0.0000 H   0  0  0  0  0  0  0  0  0  0  0  0
   10.8548    1.4030    0.0000 H   0  0  0  0  0  0  0  0  0  0  0  0
    4.2690    1.6200    0.0000 H   0  0  0  0  0  0  0  0  0  0  0  0
    4.2690   -1.6200    0.0000 H   0  0  0  0  0  0  0  0  0  0  0  0
    2.8660    0.8100    0.0000 H   0  0  0  0  0  0  0  0  0  0  0  0
   13.2018    1.4220    0.0000 H   0  0  0  0  0  0  0  0  0  0  0  0
   12.1279   -0.3100    0.0000 H   0  0  0  0  0  0  0  0  0  0  0  0
   12.9748   -0.5369    0.0000 H   0  0  0  0  0  0  0  0  0  0  0  0
   13.2018    0.3100    0.0000 H   0  0  0  0  0  0  0  0  0  0  0  0
   12.9748    2.2690    0.0000 H   0  0  0  0  0  0  0  0  0  0  0  0
   12.1279    2.0420    0.0000 H   0  0  0  0  0  0  0  0  0  0  0  0
    9.3548   -2.2690    0.0000 H   0  0  0  0  0  0  0  0  0  0  0  0
    9.3548    2.2690    0.0000 H   0  0  0  0  0  0  0  0  0  0  0  0
    2.0000   -0.6900    0.0000 H   0  0  0  0  0  0  0  0  0  0  0  0
  1  7  1  0  0  0  0
  1 14  1  0  0  0  0
  2 10  1  0  0  0  0
  2 39  1  0  0  0  0
  3 11  1  0  0  0  0
  3 40  1  0  0  0  0
  4 20  1  0  0  0  0
  4 41  1  0  0  0  0
  5  7  1  0  0  0  0
  5 12  2  0  0  0  0
  5 13  1  0  0  0  0
  6  8  1  0  0  0  0
  6 10  2  0  0  0  0
  6 11  1  0  0  0  0
  7 15  2  0  0  0  0
  8 16  1  0  0  0  0
  8 24  1  0  0  0  0
  8 25  1  0  0  0  0
  9 14  2  0  0  0  0
  9 15  1  0  0  0  0
  9 17  1  0  0  0  0
 10 12  1  0  0  0  0
 11 13  2  0  0  0  0
 12 26  1  0  0  0  0
 13 27  1  0  0  0  0
 14 18  1  0  0  0  0
 15 28  1  0  0  0  0
 16 19  2  0  0  0  0
 16 29  1  0  0  0  0
 17 21  2  0  0  0  0
 17 30  1  0  0  0  0
 18 20  2  0  0  0  0
 18 31  1  0  0  0  0
 19 22  1  0  0  0  0
 19 23  1  0  0  0  0
 20 21  1  0  0  0  0
 21 32  1  0  0  0  0
 22 33  1  0  0  0  0
 22 37  1  0  0  0  0
 22 38  1  0  0  0  0
 23 34  1  0  0  0  0
 23 35  1  0  0  0  0
 23 36  1  0  0  0  0
M  END
>  <PUBCHEM_COMPOUND_CID>
155248

>  <PUBCHEM_COMPOUND_CANONICALIZED>
1

>  <PUBCHEM_CACTVS_COMPLEXITY>
419

>  <PUBCHEM_CACTVS_HBOND_ACCEPTOR>
4

>  <PUBCHEM_CACTVS_HBOND_DONOR>
3

>  <PUBCHEM_CACTVS_ROTATABLE_BOND>
3

>  <PUBCHEM_CACTVS_SUBSKEYS>
AAADceB4OAAAAAAAAAAAAAAAAAAAASAAAAAwYAAAAAAAAEgB9AAAGgAACAAADASAmAAyBsAABkCIAqBSAAACCAAkIAAIiAEGCMgMJzaGNRqCeWCl4BUIuYfK7PzOYAABCAAIAADAAAIQABAAAAAAAAAAAA==

>  <PUBCHEM_IUPAC_OPENEYE_NAME>
5-(6-hydroxybenzofuran-2-yl)-2-(3-methylbut-2-enyl)benzene-1,3-diol

>  <PUBCHEM_IUPAC_CAS_NAME>
5-(6-hydroxy-2-benzofuranyl)-2-(3-methylbut-2-enyl)benzene-1,3-diol

>  <PUBCHEM_IUPAC_NAME>
5-(6-hydroxy-1-benzofuran-2-yl)-2-(3-methylbut-2-enyl)benzene-1,3-diol

>  <PUBCHEM_IUPAC_SYSTEMATIC_NAME>
2-(3-methylbut-2-enyl)-5-(6-oxidanyl-1-benzofuran-2-yl)benzene-1,3-diol

>  <PUBCHEM_IUPAC_TRADITIONAL_NAME>
5-(6-hydroxybenzofuran-2-yl)-2-(3-methylbut-2-enyl)resorcinol

>  <PUBCHEM_IUPAC_INCHI>
InChI=1S/C19H18O4/c1-11(2)3-6-15-16(21)7-13(8-17(15)22)18-9-12-4-5-14(20)10-19(12)23-18/h3-5,7-10,20-22H,6H2,1-2H3

>  <PUBCHEM_IUPAC_INCHIKEY>
ZTGHWUWBQNCCOH-UHFFFAOYSA-N

>  <PUBCHEM_XLOGP3_AA>
4.8

>  <PUBCHEM_EXACT_MASS>
310.121

>  <PUBCHEM_MOLECULAR_FORMULA>
C19H18O4

>  <PUBCHEM_MOLECULAR_WEIGHT>
310.349

>  <PUBCHEM_OPENEYE_CAN_SMILES>
CC(=CCC1=C(C=C(C=C1O)C2=CC3=C(O2)C=C(C=C3)O)O)C

>  <PUBCHEM_OPENEYE_ISO_SMILES>
CC(=CCC1=C(C=C(C=C1O)C2=CC3=C(O2)C=C(C=C3)O)O)C

>  <PUBCHEM_CACTVS_TPSA>
73.8

>  <PUBCHEM_MONOISOTOPIC_WEIGHT>
310.121

>  <PUBCHEM_TOTAL_CHARGE>
0

>  <PUBCHEM_HEAVY_ATOM_COUNT>
23

>  <PUBCHEM_ATOM_DEF_STEREO_COUNT>
0

>  <PUBCHEM_ATOM_UDEF_STEREO_COUNT>
0

>  <PUBCHEM_BOND_DEF_STEREO_COUNT>
0

>  <PUBCHEM_BOND_UDEF_STEREO_COUNT>
0

>  <PUBCHEM_ISOTOPIC_ATOM_COUNT>
0

>  <PUBCHEM_COMPONENT_COUNT>
1

>  <PUBCHEM_CACTVS_TAUTO_COUNT>
25

>  <PUBCHEM_COORDINATE_TYPE>
1
5
255

>  <PUBCHEM_BONDANNOTATIONS>
1  14  8
1  7  8
10  12  8
11  13  8
14  18  8
17  21  8
18  20  8
20  21  8
5  12  8
5  13  8
6  10  8
6  11  8
7  15  8
9  14  8
9  15  8
9  17  8

$$$$
