15549893
 OpenBabel06101807152D

 39 40  0  0  0  0  0  0  0  0999 V2000
    2.8660   -0.8100    0.0000 O   0  0  0  0  0  0  0  0  0  0  0  0
    3.7320    0.6900    0.0000 O   0  0  0  0  0  0  0  0  0  0  0  0
    4.5981   -3.8100    0.0000 O   0  0  0  0  0  0  0  0  0  0  0  0
    8.9282    3.6900    0.0000 O   0  0  0  0  0  0  0  0  0  0  0  0
    5.4641    1.6900    0.0000 C   0  0  0  0  0  0  0  0  0  0  0  0
    5.4641    0.6900    0.0000 C   0  0  0  0  0  0  0  0  0  0  0  0
    6.3301    2.1900    0.0000 C   0  0  0  0  0  0  0  0  0  0  0  0
    4.5981    0.1900    0.0000 C   0  0  0  0  0  0  0  0  0  0  0  0
    4.5981   -0.8100    0.0000 C   0  0  0  0  0  0  0  0  0  0  0  0
    3.7320   -1.3100    0.0000 C   0  0  0  0  0  0  0  0  0  0  0  0
    7.1962    1.6900    0.0000 C   0  0  0  0  0  0  0  0  0  0  0  0
    6.3301    3.1900    0.0000 C   0  0  0  0  0  0  0  0  0  0  0  0
    5.4641   -1.3100    0.0000 C   0  0  0  0  0  0  0  0  0  0  0  0
    3.7320   -2.3100    0.0000 C   0  0  0  0  0  0  0  0  0  0  0  0
    4.5981   -2.8100    0.0000 C   0  0  0  0  0  0  0  0  0  0  0  0
    5.4641   -2.3100    0.0000 C   0  0  0  0  0  0  0  0  0  0  0  0
    8.0622    2.1900    0.0000 C   0  0  0  0  0  0  0  0  0  0  0  0
    7.1962    3.6900    0.0000 C   0  0  0  0  0  0  0  0  0  0  0  0
    8.0622    3.1900    0.0000 C   0  0  0  0  0  0  0  0  0  0  0  0
    2.0000   -1.3100    0.0000 C   0  0  0  0  0  0  0  0  0  0  0  0
    5.4641   -4.3100    0.0000 C   0  0  0  0  0  0  0  0  0  0  0  0
    5.2520    2.2726    0.0000 H   0  0  0  0  0  0  0  0  0  0  0  0
    4.8535    1.5823    0.0000 H   0  0  0  0  0  0  0  0  0  0  0  0
    5.6762    0.1074    0.0000 H   0  0  0  0  0  0  0  0  0  0  0  0
    6.0747    0.7977    0.0000 H   0  0  0  0  0  0  0  0  0  0  0  0
    7.1962    1.0700    0.0000 H   0  0  0  0  0  0  0  0  0  0  0  0
    5.7932    3.5000    0.0000 H   0  0  0  0  0  0  0  0  0  0  0  0
    6.0010   -1.0000    0.0000 H   0  0  0  0  0  0  0  0  0  0  0  0
    3.1951   -2.6200    0.0000 H   0  0  0  0  0  0  0  0  0  0  0  0
    6.0010   -2.6200    0.0000 H   0  0  0  0  0  0  0  0  0  0  0  0
    8.5991    1.8800    0.0000 H   0  0  0  0  0  0  0  0  0  0  0  0
    7.1962    4.3100    0.0000 H   0  0  0  0  0  0  0  0  0  0  0  0
    1.6900   -0.7731    0.0000 H   0  0  0  0  0  0  0  0  0  0  0  0
    1.4631   -1.6200    0.0000 H   0  0  0  0  0  0  0  0  0  0  0  0
    2.3100   -1.8469    0.0000 H   0  0  0  0  0  0  0  0  0  0  0  0
    8.9282    4.3100    0.0000 H   0  0  0  0  0  0  0  0  0  0  0  0
    5.1541   -4.8469    0.0000 H   0  0  0  0  0  0  0  0  0  0  0  0
    6.0010   -4.6200    0.0000 H   0  0  0  0  0  0  0  0  0  0  0  0
    5.7741   -3.7731    0.0000 H   0  0  0  0  0  0  0  0  0  0  0  0
  1 10  1  0  0  0  0
  1 20  1  0  0  0  0
  2  8  2  0  0  0  0
  3 15  1  0  0  0  0
  3 21  1  0  0  0  0
  4 19  1  0  0  0  0
  4 36  1  0  0  0  0
  5  6  1  0  0  0  0
  5  7  1  0  0  0  0
  5 22  1  0  0  0  0
  5 23  1  0  0  0  0
  6  8  1  0  0  0  0
  6 24  1  0  0  0  0
  6 25  1  0  0  0  0
  7 11  2  0  0  0  0
  7 12  1  0  0  0  0
  8  9  1  0  0  0  0
  9 10  2  0  0  0  0
  9 13  1  0  0  0  0
 10 14  1  0  0  0  0
 11 17  1  0  0  0  0
 11 26  1  0  0  0  0
 12 18  2  0  0  0  0
 12 27  1  0  0  0  0
 13 16  2  0  0  0  0
 13 28  1  0  0  0  0
 14 15  2  0  0  0  0
 14 29  1  0  0  0  0
 15 16  1  0  0  0  0
 16 30  1  0  0  0  0
 17 19  2  0  0  0  0
 17 31  1  0  0  0  0
 18 19  1  0  0  0  0
 18 32  1  0  0  0  0
 20 33  1  0  0  0  0
 20 34  1  0  0  0  0
 20 35  1  0  0  0  0
 21 37  1  0  0  0  0
 21 38  1  0  0  0  0
 21 39  1  0  0  0  0
M  END
>  <PUBCHEM_COMPOUND_CID>
15549893

>  <PUBCHEM_COMPOUND_CANONICALIZED>
1

>  <PUBCHEM_CACTVS_COMPLEXITY>
323

>  <PUBCHEM_CACTVS_HBOND_ACCEPTOR>
4

>  <PUBCHEM_CACTVS_HBOND_DONOR>
1

>  <PUBCHEM_CACTVS_ROTATABLE_BOND>
6

>  <PUBCHEM_CACTVS_SUBSKEYS>
AAADceB4OAAAAAAAAAAAAAAAAAAAAAAAAAAwYAAAAAAAAAABQAAAGgAACAAADASAmAIyBoAABgCIAqBSAAACCAAkIAAIiAEGCMgMJzaGNRqAcWAl4BUIuYeI7OzOIAAACAAIAABAAAAQABAAAAAAAAAAAA==

>  <PUBCHEM_IUPAC_OPENEYE_NAME>
1-(2,4-dimethoxyphenyl)-3-(4-hydroxyphenyl)propan-1-one

>  <PUBCHEM_IUPAC_CAS_NAME>
1-(2,4-dimethoxyphenyl)-3-(4-hydroxyphenyl)-1-propanone

>  <PUBCHEM_IUPAC_NAME>
1-(2,4-dimethoxyphenyl)-3-(4-hydroxyphenyl)propan-1-one

>  <PUBCHEM_IUPAC_SYSTEMATIC_NAME>
1-(2,4-dimethoxyphenyl)-3-(4-hydroxyphenyl)propan-1-one

>  <PUBCHEM_IUPAC_TRADITIONAL_NAME>
1-(2,4-dimethoxyphenyl)-3-(4-hydroxyphenyl)propan-1-one

>  <PUBCHEM_IUPAC_INCHI>
InChI=1S/C17H18O4/c1-20-14-8-9-15(17(11-14)21-2)16(19)10-5-12-3-6-13(18)7-4-12/h3-4,6-9,11,18H,5,10H2,1-2H3

>  <PUBCHEM_IUPAC_INCHIKEY>
PGBXUNIUTBHZMK-UHFFFAOYSA-N

>  <PUBCHEM_XLOGP3_AA>
3.1

>  <PUBCHEM_EXACT_MASS>
286.121

>  <PUBCHEM_MOLECULAR_FORMULA>
C17H18O4

>  <PUBCHEM_MOLECULAR_WEIGHT>
286.327

>  <PUBCHEM_OPENEYE_CAN_SMILES>
COC1=CC(=C(C=C1)C(=O)CCC2=CC=C(C=C2)O)OC

>  <PUBCHEM_OPENEYE_ISO_SMILES>
COC1=CC(=C(C=C1)C(=O)CCC2=CC=C(C=C2)O)OC

>  <PUBCHEM_CACTVS_TPSA>
55.8

>  <PUBCHEM_MONOISOTOPIC_WEIGHT>
286.121

>  <PUBCHEM_TOTAL_CHARGE>
0

>  <PUBCHEM_HEAVY_ATOM_COUNT>
21

>  <PUBCHEM_ATOM_DEF_STEREO_COUNT>
0

>  <PUBCHEM_ATOM_UDEF_STEREO_COUNT>
0

>  <PUBCHEM_BOND_DEF_STEREO_COUNT>
0

>  <PUBCHEM_BOND_UDEF_STEREO_COUNT>
0

>  <PUBCHEM_ISOTOPIC_ATOM_COUNT>
0

>  <PUBCHEM_COMPONENT_COUNT>
1

>  <PUBCHEM_CACTVS_TAUTO_COUNT>
4

>  <PUBCHEM_COORDINATE_TYPE>
1
5
255

>  <PUBCHEM_BONDANNOTATIONS>
10  14  8
11  17  8
12  18  8
13  16  8
14  15  8
15  16  8
17  19  8
18  19  8
7  11  8
7  12  8
9  10  8
9  13  8

$$$$
