155463
 OpenBabel06101807152D

 89 89  0  0  0  0  0  0  0  0999 V2000
    5.4641  -10.1900    0.0000 O   0  0  0  0  0  0  0  0  0  0  0  0
    2.0000  -10.1900    0.0000 O   0  0  0  0  0  0  0  0  0  0  0  0
    8.9282    0.8100    0.0000 C   0  0  0  0  0  0  0  0  0  0  0  0
    8.9282    1.8100    0.0000 C   0  0  0  0  0  0  0  0  0  0  0  0
    8.0622    0.3100    0.0000 C   0  0  0  0  0  0  0  0  0  0  0  0
    9.7942    2.3100    0.0000 C   0  0  0  0  0  0  0  0  0  0  0  0
    8.0622   -0.6900    0.0000 C   0  0  0  0  0  0  0  0  0  0  0  0
    9.7942    3.3100    0.0000 C   0  0  0  0  0  0  0  0  0  0  0  0
    7.1962   -1.1900    0.0000 C   0  0  0  0  0  0  0  0  0  0  0  0
   10.6603    3.8100    0.0000 C   0  0  0  0  0  0  0  0  0  0  0  0
    7.1962   -2.1900    0.0000 C   0  0  0  0  0  0  0  0  0  0  0  0
   10.6603    4.8100    0.0000 C   0  0  0  0  0  0  0  0  0  0  0  0
    6.3301   -2.6900    0.0000 C   0  0  0  0  0  0  0  0  0  0  0  0
   11.5263    5.3100    0.0000 C   0  0  0  0  0  0  0  0  0  0  0  0
    6.3301   -3.6900    0.0000 C   0  0  0  0  0  0  0  0  0  0  0  0
   11.5263    6.3100    0.0000 C   0  0  0  0  0  0  0  0  0  0  0  0
    5.4641   -4.1900    0.0000 C   0  0  0  0  0  0  0  0  0  0  0  0
   12.3923    6.8100    0.0000 C   0  0  0  0  0  0  0  0  0  0  0  0
    5.4641   -5.1900    0.0000 C   0  0  0  0  0  0  0  0  0  0  0  0
   12.3923    7.8100    0.0000 C   0  0  0  0  0  0  0  0  0  0  0  0
    4.5981   -5.6900    0.0000 C   0  0  0  0  0  0  0  0  0  0  0  0
   13.2583    8.3100    0.0000 C   0  0  0  0  0  0  0  0  0  0  0  0
    4.5981   -6.6900    0.0000 C   0  0  0  0  0  0  0  0  0  0  0  0
   13.2583    9.3100    0.0000 C   0  0  0  0  0  0  0  0  0  0  0  0
    3.7320   -7.1900    0.0000 C   0  0  0  0  0  0  0  0  0  0  0  0
   14.1244    9.8100    0.0000 C   0  0  0  0  0  0  0  0  0  0  0  0
    3.7320   -8.1900    0.0000 C   0  0  0  0  0  0  0  0  0  0  0  0
   14.1244   10.8100    0.0000 C   0  0  0  0  0  0  0  0  0  0  0  0
    2.8660   -8.6900    0.0000 C   0  0  0  0  0  0  0  0  0  0  0  0
    4.5981   -8.6900    0.0000 C   0  0  0  0  0  0  0  0  0  0  0  0
    4.5981   -9.6900    0.0000 C   0  0  0  0  0  0  0  0  0  0  0  0
    2.8660   -9.6900    0.0000 C   0  0  0  0  0  0  0  0  0  0  0  0
    3.7320  -10.1900    0.0000 C   0  0  0  0  0  0  0  0  0  0  0  0
    9.1403    0.2274    0.0000 H   0  0  0  0  0  0  0  0  0  0  0  0
    9.5388    0.9177    0.0000 H   0  0  0  0  0  0  0  0  0  0  0  0
    8.7162    2.3926    0.0000 H   0  0  0  0  0  0  0  0  0  0  0  0
    8.3176    1.7023    0.0000 H   0  0  0  0  0  0  0  0  0  0  0  0
    7.8501    0.8926    0.0000 H   0  0  0  0  0  0  0  0  0  0  0  0
    7.4516    0.2023    0.0000 H   0  0  0  0  0  0  0  0  0  0  0  0
   10.0063    1.7274    0.0000 H   0  0  0  0  0  0  0  0  0  0  0  0
   10.4048    2.4177    0.0000 H   0  0  0  0  0  0  0  0  0  0  0  0
    8.2742   -1.2726    0.0000 H   0  0  0  0  0  0  0  0  0  0  0  0
    8.6728   -0.5823    0.0000 H   0  0  0  0  0  0  0  0  0  0  0  0
    9.5822    3.8926    0.0000 H   0  0  0  0  0  0  0  0  0  0  0  0
    9.1836    3.2023    0.0000 H   0  0  0  0  0  0  0  0  0  0  0  0
    6.9841   -0.6074    0.0000 H   0  0  0  0  0  0  0  0  0  0  0  0
    6.5856   -1.2977    0.0000 H   0  0  0  0  0  0  0  0  0  0  0  0
   10.8723    3.2274    0.0000 H   0  0  0  0  0  0  0  0  0  0  0  0
   11.2708    3.9177    0.0000 H   0  0  0  0  0  0  0  0  0  0  0  0
    7.4082   -2.7726    0.0000 H   0  0  0  0  0  0  0  0  0  0  0  0
    7.8067   -2.0823    0.0000 H   0  0  0  0  0  0  0  0  0  0  0  0
   10.4482    5.3926    0.0000 H   0  0  0  0  0  0  0  0  0  0  0  0
   10.0497    4.7023    0.0000 H   0  0  0  0  0  0  0  0  0  0  0  0
    6.1181   -2.1074    0.0000 H   0  0  0  0  0  0  0  0  0  0  0  0
    5.7196   -2.7977    0.0000 H   0  0  0  0  0  0  0  0  0  0  0  0
   11.7383    4.7274    0.0000 H   0  0  0  0  0  0  0  0  0  0  0  0
   12.1369    5.4177    0.0000 H   0  0  0  0  0  0  0  0  0  0  0  0
    6.5422   -4.2726    0.0000 H   0  0  0  0  0  0  0  0  0  0  0  0
    6.9407   -3.5823    0.0000 H   0  0  0  0  0  0  0  0  0  0  0  0
   11.3142    6.8926    0.0000 H   0  0  0  0  0  0  0  0  0  0  0  0
   10.9157    6.2023    0.0000 H   0  0  0  0  0  0  0  0  0  0  0  0
    5.2520   -3.6074    0.0000 H   0  0  0  0  0  0  0  0  0  0  0  0
    4.8535   -4.2977    0.0000 H   0  0  0  0  0  0  0  0  0  0  0  0
   12.6044    6.2274    0.0000 H   0  0  0  0  0  0  0  0  0  0  0  0
   13.0029    6.9177    0.0000 H   0  0  0  0  0  0  0  0  0  0  0  0
    5.6762   -5.7726    0.0000 H   0  0  0  0  0  0  0  0  0  0  0  0
    6.0747   -5.0823    0.0000 H   0  0  0  0  0  0  0  0  0  0  0  0
   12.1803    8.3926    0.0000 H   0  0  0  0  0  0  0  0  0  0  0  0
   11.7817    7.7023    0.0000 H   0  0  0  0  0  0  0  0  0  0  0  0
    4.3860   -5.1074    0.0000 H   0  0  0  0  0  0  0  0  0  0  0  0
    3.9875   -5.7977    0.0000 H   0  0  0  0  0  0  0  0  0  0  0  0
   13.4704    7.7274    0.0000 H   0  0  0  0  0  0  0  0  0  0  0  0
   13.8689    8.4177    0.0000 H   0  0  0  0  0  0  0  0  0  0  0  0
    4.8101   -7.2726    0.0000 H   0  0  0  0  0  0  0  0  0  0  0  0
    5.2087   -6.5823    0.0000 H   0  0  0  0  0  0  0  0  0  0  0  0
   13.0463    9.8926    0.0000 H   0  0  0  0  0  0  0  0  0  0  0  0
   12.6477    9.2023    0.0000 H   0  0  0  0  0  0  0  0  0  0  0  0
    3.5200   -6.6074    0.0000 H   0  0  0  0  0  0  0  0  0  0  0  0
    3.1215   -7.2977    0.0000 H   0  0  0  0  0  0  0  0  0  0  0  0
   14.3364    9.2274    0.0000 H   0  0  0  0  0  0  0  0  0  0  0  0
   14.7349    9.9177    0.0000 H   0  0  0  0  0  0  0  0  0  0  0  0
   14.7444   10.8100    0.0000 H   0  0  0  0  0  0  0  0  0  0  0  0
   14.1244   11.4300    0.0000 H   0  0  0  0  0  0  0  0  0  0  0  0
   13.5044   10.8100    0.0000 H   0  0  0  0  0  0  0  0  0  0  0  0
    2.3291   -8.3800    0.0000 H   0  0  0  0  0  0  0  0  0  0  0  0
    5.1350   -8.3800    0.0000 H   0  0  0  0  0  0  0  0  0  0  0  0
    3.7320  -10.8100    0.0000 H   0  0  0  0  0  0  0  0  0  0  0  0
    5.4641  -10.8100    0.0000 H   0  0  0  0  0  0  0  0  0  0  0  0
    2.0000  -10.8100    0.0000 H   0  0  0  0  0  0  0  0  0  0  0  0
  1 31  1  0  0  0  0
  1 88  1  0  0  0  0
  2 32  1  0  0  0  0
  2 89  1  0  0  0  0
  3  4  1  0  0  0  0
  3  5  1  0  0  0  0
  3 34  1  0  0  0  0
  3 35  1  0  0  0  0
  4  6  1  0  0  0  0
  4 36  1  0  0  0  0
  4 37  1  0  0  0  0
  5  7  1  0  0  0  0
  5 38  1  0  0  0  0
  5 39  1  0  0  0  0
  6  8  1  0  0  0  0
  6 40  1  0  0  0  0
  6 41  1  0  0  0  0
  7  9  1  0  0  0  0
  7 42  1  0  0  0  0
  7 43  1  0  0  0  0
  8 10  1  0  0  0  0
  8 44  1  0  0  0  0
  8 45  1  0  0  0  0
  9 11  1  0  0  0  0
  9 46  1  0  0  0  0
  9 47  1  0  0  0  0
 10 12  1  0  0  0  0
 10 48  1  0  0  0  0
 10 49  1  0  0  0  0
 11 13  1  0  0  0  0
 11 50  1  0  0  0  0
 11 51  1  0  0  0  0
 12 14  1  0  0  0  0
 12 52  1  0  0  0  0
 12 53  1  0  0  0  0
 13 15  1  0  0  0  0
 13 54  1  0  0  0  0
 13 55  1  0  0  0  0
 14 16  1  0  0  0  0
 14 56  1  0  0  0  0
 14 57  1  0  0  0  0
 15 17  1  0  0  0  0
 15 58  1  0  0  0  0
 15 59  1  0  0  0  0
 16 18  1  0  0  0  0
 16 60  1  0  0  0  0
 16 61  1  0  0  0  0
 17 19  1  0  0  0  0
 17 62  1  0  0  0  0
 17 63  1  0  0  0  0
 18 20  1  0  0  0  0
 18 64  1  0  0  0  0
 18 65  1  0  0  0  0
 19 21  1  0  0  0  0
 19 66  1  0  0  0  0
 19 67  1  0  0  0  0
 20 22  1  0  0  0  0
 20 68  1  0  0  0  0
 20 69  1  0  0  0  0
 21 23  1  0  0  0  0
 21 70  1  0  0  0  0
 21 71  1  0  0  0  0
 22 24  1  0  0  0  0
 22 72  1  0  0  0  0
 22 73  1  0  0  0  0
 23 25  1  0  0  0  0
 23 74  1  0  0  0  0
 23 75  1  0  0  0  0
 24 26  1  0  0  0  0
 24 76  1  0  0  0  0
 24 77  1  0  0  0  0
 25 27  1  0  0  0  0
 25 78  1  0  0  0  0
 25 79  1  0  0  0  0
 26 28  1  0  0  0  0
 26 80  1  0  0  0  0
 26 81  1  0  0  0  0
 27 29  2  0  0  0  0
 27 30  1  0  0  0  0
 28 82  1  0  0  0  0
 28 83  1  0  0  0  0
 28 84  1  0  0  0  0
 29 32  1  0  0  0  0
 29 85  1  0  0  0  0
 30 31  2  0  0  0  0
 30 86  1  0  0  0  0
 31 33  1  0  0  0  0
 32 33  2  0  0  0  0
 33 87  1  0  0  0  0
M  END
>  <PUBCHEM_COMPOUND_CID>
155463

>  <PUBCHEM_COMPOUND_CANONICALIZED>
1

>  <PUBCHEM_CACTVS_COMPLEXITY>
373

>  <PUBCHEM_CACTVS_HBOND_ACCEPTOR>
2

>  <PUBCHEM_CACTVS_HBOND_DONOR>
2

>  <PUBCHEM_CACTVS_ROTATABLE_BOND>
24

>  <PUBCHEM_CACTVS_SUBSKEYS>
AAADcfB4MAAAAAAAAAAAAAAAAAAAAAAAAAAwAAAAAAAAAAABAAAAGgAACAAADASAmAAyBoAAAgCAAiBCAAACAAAgIAAAiAAGCIgIJyKCERKAcAAlwBUImAeA4PQOAAABCAAAAAAAAAIQAAAAAAAAAAAAAA==

>  <PUBCHEM_IUPAC_OPENEYE_NAME>
5-pentacosylbenzene-1,3-diol

>  <PUBCHEM_IUPAC_CAS_NAME>
5-pentacosylbenzene-1,3-diol

>  <PUBCHEM_IUPAC_NAME>
5-pentacosylbenzene-1,3-diol

>  <PUBCHEM_IUPAC_SYSTEMATIC_NAME>
5-pentacosylbenzene-1,3-diol

>  <PUBCHEM_IUPAC_TRADITIONAL_NAME>
5-pentacosylresorcinol

>  <PUBCHEM_IUPAC_INCHI>
InChI=1S/C31H56O2/c1-2-3-4-5-6-7-8-9-10-11-12-13-14-15-16-17-18-19-20-21-22-23-24-25-29-26-30(32)28-31(33)27-29/h26-28,32-33H,2-25H2,1H3

>  <PUBCHEM_IUPAC_INCHIKEY>
GDJMJAKVVSGNLA-UHFFFAOYSA-N

>  <PUBCHEM_XLOGP3_AA>
14.5

>  <PUBCHEM_EXACT_MASS>
460.428

>  <PUBCHEM_MOLECULAR_FORMULA>
C31H56O2

>  <PUBCHEM_MOLECULAR_WEIGHT>
460.787

>  <PUBCHEM_OPENEYE_CAN_SMILES>
CCCCCCCCCCCCCCCCCCCCCCCCCC1=CC(=CC(=C1)O)O

>  <PUBCHEM_OPENEYE_ISO_SMILES>
CCCCCCCCCCCCCCCCCCCCCCCCCC1=CC(=CC(=C1)O)O

>  <PUBCHEM_CACTVS_TPSA>
40.5

>  <PUBCHEM_MONOISOTOPIC_WEIGHT>
460.428

>  <PUBCHEM_TOTAL_CHARGE>
0

>  <PUBCHEM_HEAVY_ATOM_COUNT>
33

>  <PUBCHEM_ATOM_DEF_STEREO_COUNT>
0

>  <PUBCHEM_ATOM_UDEF_STEREO_COUNT>
0

>  <PUBCHEM_BOND_DEF_STEREO_COUNT>
0

>  <PUBCHEM_BOND_UDEF_STEREO_COUNT>
0

>  <PUBCHEM_ISOTOPIC_ATOM_COUNT>
0

>  <PUBCHEM_COMPONENT_COUNT>
1

>  <PUBCHEM_CACTVS_TAUTO_COUNT>
10

>  <PUBCHEM_COORDINATE_TYPE>
1
5
255

>  <PUBCHEM_BONDANNOTATIONS>
27  29  8
27  30  8
29  32  8
30  31  8
31  33  8
32  33  8

$$$$
