15559724
 OpenBabel06101807152D

 67 72  0  0  0  0  0  0  0  0999 V2000
    6.3580    2.0966    0.0000 O   0  0  0  0  0  0  0  0  0  0  0  0
    6.3301   -1.8687    0.0000 O   0  0  0  0  0  0  0  0  0  0  0  0
    2.8660    2.1313    0.0000 O   0  0  0  0  0  0  0  0  0  0  0  0
    4.5981    5.1313    0.0000 O   0  0  0  0  0  0  0  0  0  0  0  0
    2.8660    1.1313    0.0000 O   0  0  0  0  0  0  0  0  0  0  0  0
    6.3465    5.1659    0.0000 O   0  0  0  0  0  0  0  0  0  0  0  0
    8.0743   -4.9380    0.0000 O   0  0  0  0  0  0  0  0  0  0  0  0
    9.8324   -1.8656    0.0000 O   0  0  0  0  0  0  0  0  0  0  0  0
    8.9282   -0.3687    0.0000 O   0  0  0  0  0  0  0  0  0  0  0  0
   10.7205    0.5971    0.0000 O   0  0  0  0  0  0  0  0  0  0  0  0
    4.5981    2.1313    0.0000 C   0  0  0  0  0  0  0  0  0  0  0  0
    5.4641    2.6313    0.0000 C   0  0  0  0  0  0  0  0  0  0  0  0
    4.5981    1.1313    0.0000 C   0  0  0  0  0  0  0  0  0  0  0  0
    5.4641    3.6313    0.0000 C   0  0  0  0  0  0  0  0  0  0  0  0
    3.7320    2.6313    0.0000 C   0  0  0  0  0  0  0  0  0  0  0  0
    5.4641   -0.3687    0.0000 C   0  0  0  0  0  0  0  0  0  0  0  0
    5.4641    0.6313    0.0000 C   0  0  0  0  0  0  0  0  0  0  0  0
    4.5981    4.1313    0.0000 C   0  0  0  0  0  0  0  0  0  0  0  0
    3.7320    0.6313    0.0000 C   0  0  0  0  0  0  0  0  0  0  0  0
    3.7320    3.6313    0.0000 C   0  0  0  0  0  0  0  0  0  0  0  0
    6.3580    4.1660    0.0000 C   0  0  0  0  0  0  0  0  0  0  0  0
    7.2641    2.6105    0.0000 C   0  0  0  0  0  0  0  0  0  0  0  0
    6.3301   -0.8687    0.0000 C   0  0  0  0  0  0  0  0  0  0  0  0
    4.5981   -0.8687    0.0000 C   0  0  0  0  0  0  0  0  0  0  0  0
    7.2641    3.6521    0.0000 C   0  0  0  0  0  0  0  0  0  0  0  0
    3.7320   -0.3687    0.0000 C   0  0  0  0  0  0  0  0  0  0  0  0
    8.1282    2.1071    0.0000 C   0  0  0  0  0  0  0  0  0  0  0  0
    8.0622   -1.8687    0.0000 C   0  0  0  0  0  0  0  0  0  0  0  0
    7.1962   -2.3687    0.0000 C   0  0  0  0  0  0  0  0  0  0  0  0
    7.1962   -0.3687    0.0000 C   0  0  0  0  0  0  0  0  0  0  0  0
    8.0622   -0.8687    0.0000 C   0  0  0  0  0  0  0  0  0  0  0  0
    8.9722   -2.3756    0.0000 C   0  0  0  0  0  0  0  0  0  0  0  0
    7.1801   -3.4102    0.0000 C   0  0  0  0  0  0  0  0  0  0  0  0
    8.1244    1.1072    0.0000 C   0  0  0  0  0  0  0  0  0  0  0  0
    8.9962    2.6038    0.0000 C   0  0  0  0  0  0  0  0  0  0  0  0
    8.0781   -3.9380    0.0000 C   0  0  0  0  0  0  0  0  0  0  0  0
    8.9802   -3.4172    0.0000 C   0  0  0  0  0  0  0  0  0  0  0  0
    2.0000    2.6313    0.0000 C   0  0  0  0  0  0  0  0  0  0  0  0
    8.9884    0.6038    0.0000 C   0  0  0  0  0  0  0  0  0  0  0  0
    9.8602    2.1005    0.0000 C   0  0  0  0  0  0  0  0  0  0  0  0
    9.8564    1.1005    0.0000 C   0  0  0  0  0  0  0  0  0  0  0  0
    8.9384   -5.4413    0.0000 C   0  0  0  0  0  0  0  0  0  0  0  0
   11.5884    1.0938    0.0000 C   0  0  0  0  0  0  0  0  0  0  0  0
    6.0010    0.9413    0.0000 H   0  0  0  0  0  0  0  0  0  0  0  0
    3.1951    3.9413    0.0000 H   0  0  0  0  0  0  0  0  0  0  0  0
    4.5981   -1.4887    0.0000 H   0  0  0  0  0  0  0  0  0  0  0  0
    7.7998    3.9642    0.0000 H   0  0  0  0  0  0  0  0  0  0  0  0
    3.1951   -0.6787    0.0000 H   0  0  0  0  0  0  0  0  0  0  0  0
    7.1962    0.2513    0.0000 H   0  0  0  0  0  0  0  0  0  0  0  0
    6.6396   -3.7140    0.0000 H   0  0  0  0  0  0  0  0  0  0  0  0
    7.5862    0.7992    0.0000 H   0  0  0  0  0  0  0  0  0  0  0  0
    8.9985    3.2238    0.0000 H   0  0  0  0  0  0  0  0  0  0  0  0
    9.5183   -3.7251    0.0000 H   0  0  0  0  0  0  0  0  0  0  0  0
    4.0611    5.4413    0.0000 H   0  0  0  0  0  0  0  0  0  0  0  0
    2.3291    0.8213    0.0000 H   0  0  0  0  0  0  0  0  0  0  0  0
    2.3100    3.1682    0.0000 H   0  0  0  0  0  0  0  0  0  0  0  0
    1.4631    2.9413    0.0000 H   0  0  0  0  0  0  0  0  0  0  0  0
    1.6900    2.0944    0.0000 H   0  0  0  0  0  0  0  0  0  0  0  0
    8.9860   -0.0162    0.0000 H   0  0  0  0  0  0  0  0  0  0  0  0
   10.3984    2.4084    0.0000 H   0  0  0  0  0  0  0  0  0  0  0  0
   10.3728   -2.1693    0.0000 H   0  0  0  0  0  0  0  0  0  0  0  0
    8.6263   -5.9770    0.0000 H   0  0  0  0  0  0  0  0  0  0  0  0
    9.4741   -5.7534    0.0000 H   0  0  0  0  0  0  0  0  0  0  0  0
    9.2504   -4.9056    0.0000 H   0  0  0  0  0  0  0  0  0  0  0  0
   11.8964    0.5557    0.0000 H   0  0  0  0  0  0  0  0  0  0  0  0
   12.1266    1.4017    0.0000 H   0  0  0  0  0  0  0  0  0  0  0  0
   11.2805    1.6319    0.0000 H   0  0  0  0  0  0  0  0  0  0  0  0
  1 12  1  0  0  0  0
  1 22  1  0  0  0  0
  2 23  1  0  0  0  0
  2 29  1  0  0  0  0
  3 15  1  0  0  0  0
  3 38  1  0  0  0  0
  4 18  1  0  0  0  0
  4 54  1  0  0  0  0
  5 19  1  0  0  0  0
  5 55  1  0  0  0  0
  6 21  2  0  0  0  0
  7 36  1  0  0  0  0
  7 42  1  0  0  0  0
  8 32  1  0  0  0  0
  8 61  1  0  0  0  0
  9 31  2  0  0  0  0
 10 41  1  0  0  0  0
 10 43  1  0  0  0  0
 11 12  1  0  0  0  0
 11 13  1  0  0  0  0
 11 15  2  0  0  0  0
 12 14  2  0  0  0  0
 13 17  1  0  0  0  0
 13 19  2  0  0  0  0
 14 18  1  0  0  0  0
 14 21  1  0  0  0  0
 15 20  1  0  0  0  0
 16 17  2  0  0  0  0
 16 23  1  0  0  0  0
 16 24  1  0  0  0  0
 17 44  1  0  0  0  0
 18 20  2  0  0  0  0
 19 26  1  0  0  0  0
 20 45  1  0  0  0  0
 21 25  1  0  0  0  0
 22 25  2  0  0  0  0
 22 27  1  0  0  0  0
 23 30  2  0  0  0  0
 24 26  2  0  0  0  0
 24 46  1  0  0  0  0
 25 47  1  0  0  0  0
 26 48  1  0  0  0  0
 27 34  2  0  0  0  0
 27 35  1  0  0  0  0
 28 29  1  0  0  0  0
 28 31  1  0  0  0  0
 28 32  2  0  0  0  0
 29 33  2  0  0  0  0
 30 31  1  0  0  0  0
 30 49  1  0  0  0  0
 32 37  1  0  0  0  0
 33 36  1  0  0  0  0
 33 50  1  0  0  0  0
 34 39  1  0  0  0  0
 34 51  1  0  0  0  0
 35 40  2  0  0  0  0
 35 52  1  0  0  0  0
 36 37  2  0  0  0  0
 37 53  1  0  0  0  0
 38 56  1  0  0  0  0
 38 57  1  0  0  0  0
 38 58  1  0  0  0  0
 39 41  2  0  0  0  0
 39 59  1  0  0  0  0
 40 41  1  0  0  0  0
 40 60  1  0  0  0  0
 42 62  1  0  0  0  0
 42 63  1  0  0  0  0
 42 64  1  0  0  0  0
 43 65  1  0  0  0  0
 43 66  1  0  0  0  0
 43 67  1  0  0  0  0
M  END
>  <PUBCHEM_COMPOUND_CID>
15559724

>  <PUBCHEM_COMPOUND_CANONICALIZED>
1

>  <PUBCHEM_CACTVS_COMPLEXITY>
1100

>  <PUBCHEM_CACTVS_HBOND_ACCEPTOR>
10

>  <PUBCHEM_CACTVS_HBOND_DONOR>
3

>  <PUBCHEM_CACTVS_ROTATABLE_BOND>
6

>  <PUBCHEM_CACTVS_SUBSKEYS>
AAADceB8PAAAAAAAAAAAAAAAAAAAAAAAAAAwYMGCAAAAAACBVAAAGgAACAAADASAmAIyBoAABgCIAqBSAAACCAAkIAAIiAEGCMgMJzaGNRqCeWCl4BUIuQfI7PzOoAACCAAIAABAAAQQABAAAAAAAAAAAA==

>  <PUBCHEM_IUPAC_OPENEYE_NAME>
5-hydroxy-8-[2-hydroxy-5-(5-hydroxy-7-methoxy-4-oxo-chromen-2-yl)phenyl]-7-methoxy-2-(4-methoxyphenyl)chromen-4-one

>  <PUBCHEM_IUPAC_CAS_NAME>
5-hydroxy-8-[2-hydroxy-5-(5-hydroxy-7-methoxy-4-oxo-1-benzopyran-2-yl)phenyl]-7-methoxy-2-(4-methoxyphenyl)-1-benzopyran-4-one

>  <PUBCHEM_IUPAC_NAME>
5-hydroxy-8-[2-hydroxy-5-(5-hydroxy-7-methoxy-4-oxochromen-2-yl)phenyl]-7-methoxy-2-(4-methoxyphenyl)chromen-4-one

>  <PUBCHEM_IUPAC_SYSTEMATIC_NAME>
7-methoxy-8-[5-(7-methoxy-5-oxidanyl-4-oxidanylidene-chromen-2-yl)-2-oxidanyl-phenyl]-2-(4-methoxyphenyl)-5-oxidanyl-chromen-4-one

>  <PUBCHEM_IUPAC_TRADITIONAL_NAME>
5-hydroxy-8-[2-hydroxy-5-(5-hydroxy-4-keto-7-methoxy-chromen-2-yl)phenyl]-7-methoxy-2-(4-methoxyphenyl)chromone

>  <PUBCHEM_IUPAC_INCHI>
InChI=1S/C33H24O10/c1-39-18-7-4-16(5-8-18)26-14-24(37)32-25(38)15-28(41-3)30(33(32)43-26)20-10-17(6-9-21(20)34)27-13-23(36)31-22(35)11-19(40-2)12-29(31)42-27/h4-15,34-35,38H,1-3H3

>  <PUBCHEM_IUPAC_INCHIKEY>
NXPAGAZHSWSUFJ-UHFFFAOYSA-N

>  <PUBCHEM_XLOGP3_AA>
6

>  <PUBCHEM_EXACT_MASS>
580.137

>  <PUBCHEM_MOLECULAR_FORMULA>
C33H24O10

>  <PUBCHEM_MOLECULAR_WEIGHT>
580.545

>  <PUBCHEM_OPENEYE_CAN_SMILES>
COC1=CC=C(C=C1)C2=CC(=O)C3=C(O2)C(=C(C=C3O)OC)C4=C(C=CC(=C4)C5=CC(=O)C6=C(C=C(C=C6O5)OC)O)O

>  <PUBCHEM_OPENEYE_ISO_SMILES>
COC1=CC=C(C=C1)C2=CC(=O)C3=C(O2)C(=C(C=C3O)OC)C4=C(C=CC(=C4)C5=CC(=O)C6=C(C=C(C=C6O5)OC)O)O

>  <PUBCHEM_CACTVS_TPSA>
141

>  <PUBCHEM_MONOISOTOPIC_WEIGHT>
580.137

>  <PUBCHEM_TOTAL_CHARGE>
0

>  <PUBCHEM_HEAVY_ATOM_COUNT>
43

>  <PUBCHEM_ATOM_DEF_STEREO_COUNT>
0

>  <PUBCHEM_ATOM_UDEF_STEREO_COUNT>
0

>  <PUBCHEM_BOND_DEF_STEREO_COUNT>
0

>  <PUBCHEM_BOND_UDEF_STEREO_COUNT>
0

>  <PUBCHEM_ISOTOPIC_ATOM_COUNT>
0

>  <PUBCHEM_COMPONENT_COUNT>
1

>  <PUBCHEM_CACTVS_TAUTO_COUNT>
169

>  <PUBCHEM_COORDINATE_TYPE>
1
5
255

>  <PUBCHEM_BONDANNOTATIONS>
1  12  8
1  22  8
11  12  8
11  15  8
12  14  8
13  17  8
13  19  8
14  18  8
14  21  8
15  20  8
16  17  8
16  24  8
18  20  8
19  26  8
2  23  8
2  29  8
21  25  8
22  25  8
23  30  8
24  26  8
27  34  8
27  35  8
28  29  8
28  31  8
28  32  8
29  33  8
30  31  8
32  37  8
33  36  8
34  39  8
35  40  8
36  37  8
39  41  8
40  41  8

$$$$
