15559252
 OpenBabel06101807152D

 41 46  0  0  0  0  0  0  0  0999 V2000
    8.7769   -0.0837    0.0000 O   0  0  0  0  0  0  0  0  0  0  0  0
    5.2674   -1.1374    0.0000 O   0  0  0  0  0  0  0  0  0  0  0  0
    7.0675    2.9525    0.0000 O   0  0  0  0  0  0  0  0  0  0  0  0
    8.7835    1.9110    0.0000 O   0  0  0  0  0  0  0  0  0  0  0  0
    4.2886   -0.2581    0.0000 O   0  0  0  0  0  0  0  0  0  0  0  0
    3.7206    0.5755    0.0000 O   0  0  0  0  0  0  0  0  0  0  0  0
    5.3443   -3.2245    0.0000 O   0  0  0  0  0  0  0  0  0  0  0  0
    9.6660   -1.5582    0.0000 O   0  0  0  0  0  0  0  0  0  0  0  0
    7.1509   -4.1901    0.0000 O   0  0  0  0  0  0  0  0  0  0  0  0
    6.1733    4.4803    0.0000 O   0  0  0  0  0  0  0  0  0  0  0  0
    2.5405    1.3718    0.0000 O   0  0  0  0  0  0  0  0  0  0  0  0
    2.5244    3.4634    0.0000 O   0  0  0  0  0  0  0  0  0  0  0  0
    7.0514   -0.0890    0.0000 C   0  0  0  0  0  0  0  0  0  0  0  0
    6.1854    0.4110    0.0000 C   0  0  0  0  0  0  0  0  0  0  0  0
    6.1854    1.4110    0.0000 C   0  0  0  0  0  0  0  0  0  0  0  0
    7.0675   -1.1305    0.0000 C   0  0  0  0  0  0  0  0  0  0  0  0
    7.9174    0.4110    0.0000 C   0  0  0  0  0  0  0  0  0  0  0  0
    7.0514    1.9110    0.0000 C   0  0  0  0  0  0  0  0  0  0  0  0
    5.2754    1.9179    0.0000 C   0  0  0  0  0  0  0  0  0  0  0  0
    7.9446   -1.5932    0.0000 C   0  0  0  0  0  0  0  0  0  0  0  0
    7.9174    1.4110    0.0000 C   0  0  0  0  0  0  0  0  0  0  0  0
    6.1694   -1.6582    0.0000 C   0  0  0  0  0  0  0  0  0  0  0  0
    5.2674    2.9595    0.0000 C   0  0  0  0  0  0  0  0  0  0  0  0
    5.2754   -0.0958    0.0000 C   0  0  0  0  0  0  0  0  0  0  0  0
    8.7903   -1.0754    0.0000 C   0  0  0  0  0  0  0  0  0  0  0  0
    4.3486    1.3538    0.0000 C   0  0  0  0  0  0  0  0  0  0  0  0
    6.1955   -2.6997    0.0000 C   0  0  0  0  0  0  0  0  0  0  0  0
    7.9948   -2.6338    0.0000 C   0  0  0  0  0  0  0  0  0  0  0  0
    6.1694    3.4803    0.0000 C   0  0  0  0  0  0  0  0  0  0  0  0
    7.1143   -3.1908    0.0000 C   0  0  0  0  0  0  0  0  0  0  0  0
    4.3319    3.5092    0.0000 C   0  0  0  0  0  0  0  0  0  0  0  0
    3.4007    1.8817    0.0000 C   0  0  0  0  0  0  0  0  0  0  0  0
    3.3923    2.9667    0.0000 C   0  0  0  0  0  0  0  0  0  0  0  0
    8.5449   -2.9198    0.0000 H   0  0  0  0  0  0  0  0  0  0  0  0
    4.3343    4.1292    0.0000 H   0  0  0  0  0  0  0  0  0  0  0  0
    8.7835    2.5310    0.0000 H   0  0  0  0  0  0  0  0  0  0  0  0
    3.1081    0.6713    0.0000 H   0  0  0  0  0  0  0  0  0  0  0  0
    5.3622   -3.8443    0.0000 H   0  0  0  0  0  0  0  0  0  0  0  0
    7.6988   -4.4803    0.0000 H   0  0  0  0  0  0  0  0  0  0  0  0
    2.0000    1.6755    0.0000 H   0  0  0  0  0  0  0  0  0  0  0  0
    2.5220    4.0834    0.0000 H   0  0  0  0  0  0  0  0  0  0  0  0
  1 17  1  0  0  0  0
  1 25  1  0  0  0  0
  2 22  1  0  0  0  0
  2 24  1  0  0  0  0
  3 18  1  0  0  0  0
  3 29  1  0  0  0  0
  4 21  1  0  0  0  0
  4 36  1  0  0  0  0
  5 24  2  0  0  0  0
  6 26  1  0  0  0  0
  6 37  1  0  0  0  0
  7 27  1  0  0  0  0
  7 38  1  0  0  0  0
  8 25  2  0  0  0  0
  9 30  1  0  0  0  0
  9 39  1  0  0  0  0
 10 29  2  0  0  0  0
 11 32  1  0  0  0  0
 11 40  1  0  0  0  0
 12 33  1  0  0  0  0
 12 41  1  0  0  0  0
 13 14  1  0  0  0  0
 13 16  1  0  0  0  0
 13 17  2  0  0  0  0
 14 15  2  0  0  0  0
 14 24  1  0  0  0  0
 15 18  1  0  0  0  0
 15 19  1  0  0  0  0
 16 20  1  0  0  0  0
 16 22  2  0  0  0  0
 17 21  1  0  0  0  0
 18 21  2  0  0  0  0
 19 23  1  0  0  0  0
 19 26  2  0  0  0  0
 20 25  1  0  0  0  0
 20 28  2  0  0  0  0
 22 27  1  0  0  0  0
 23 29  1  0  0  0  0
 23 31  2  0  0  0  0
 26 32  1  0  0  0  0
 27 30  2  0  0  0  0
 28 30  1  0  0  0  0
 28 34  1  0  0  0  0
 31 33  1  0  0  0  0
 31 35  1  0  0  0  0
 32 33  2  0  0  0  0
M  END
>  <PUBCHEM_COMPOUND_CID>
15559252

>  <PUBCHEM_COMPOUND_CANONICALIZED>
1

>  <PUBCHEM_CACTVS_COMPLEXITY>
893

>  <PUBCHEM_CACTVS_HBOND_ACCEPTOR>
12

>  <PUBCHEM_CACTVS_HBOND_DONOR>
6

>  <PUBCHEM_CACTVS_ROTATABLE_BOND>
0

>  <PUBCHEM_CACTVS_SUBSKEYS>
AAADccB4PAAAAAAAAAAAAAAAAAAAAAAAAAA0aNECAAAAAACRUAAAGgAACAAADASAmAAwDoAABgCIAiDSCAACCAAkIAAAiAEGiMgNJzKGNBqCeyOlwBULuYfK7PzOoAADCAAYQABAAAYQADCAAAAAAAAAAA==

>  <PUBCHEM_IUPAC_INCHI>
InChI=1S/C21H8O12/c22-5-1-3-7(14(26)12(5)24)9-11-10-8-4(2-6(23)13(25)16(8)33-21(11)30)20(29)32-18(10)15(27)17(9)31-19(3)28/h1-2,22-27H

>  <PUBCHEM_IUPAC_INCHIKEY>
JTFOBWXMEHITKZ-UHFFFAOYSA-N

>  <PUBCHEM_XLOGP3_AA>
1.5

>  <PUBCHEM_EXACT_MASS>
452.002

>  <PUBCHEM_MOLECULAR_FORMULA>
C21H8O12

>  <PUBCHEM_MOLECULAR_WEIGHT>
452.283

>  <PUBCHEM_OPENEYE_CAN_SMILES>
C1=C2C(=C(C(=C1O)O)O)C3=C(C(=C4C5=C3C(=O)OC6=C5C(=CC(=C6O)O)C(=O)O4)O)OC2=O

>  <PUBCHEM_OPENEYE_ISO_SMILES>
C1=C2C(=C(C(=C1O)O)O)C3=C(C(=C4C5=C3C(=O)OC6=C5C(=CC(=C6O)O)C(=O)O4)O)OC2=O

>  <PUBCHEM_CACTVS_TPSA>
200

>  <PUBCHEM_MONOISOTOPIC_WEIGHT>
452.002

>  <PUBCHEM_TOTAL_CHARGE>
0

>  <PUBCHEM_HEAVY_ATOM_COUNT>
33

>  <PUBCHEM_ATOM_DEF_STEREO_COUNT>
0

>  <PUBCHEM_ATOM_UDEF_STEREO_COUNT>
0

>  <PUBCHEM_BOND_DEF_STEREO_COUNT>
0

>  <PUBCHEM_BOND_UDEF_STEREO_COUNT>
0

>  <PUBCHEM_ISOTOPIC_ATOM_COUNT>
0

>  <PUBCHEM_COMPONENT_COUNT>
1

>  <PUBCHEM_CACTVS_TAUTO_COUNT>
994

>  <PUBCHEM_COORDINATE_TYPE>
1
5
255

>  <PUBCHEM_BONDANNOTATIONS>
1  17  8
1  25  8
13  14  8
13  16  8
13  17  8
14  15  8
14  24  8
15  18  8
15  19  8
16  20  8
16  22  8
17  21  8
18  21  8
19  23  8
19  26  8
2  22  8
2  24  8
20  25  8
20  28  8
22  27  8
23  29  8
23  31  8
26  32  8
27  30  8
28  30  8
3  18  8
3  29  8
31  33  8
32  33  8

$$$$
