15559627
 OpenBabel06101807152D

 51 53  0  0  1  0  0  0  0  0999 V2000
    6.3406   -3.5527    0.0000 O   0  0  0  0  0  0  0  0  0  0  0  0
    4.6087   -3.5327    0.0000 O   0  0  0  0  0  0  0  0  0  0  0  0
    2.0296    3.6726    0.0000 O   0  0  0  0  0  0  0  0  0  0  0  0
    3.7320   -0.0081    0.0000 C   0  0  3  0  0  0  0  0  0  0  0  0
    4.5981   -0.5081    0.0000 C   0  0  3  0  0  0  0  0  0  0  0  0
    4.5981   -1.5081    0.0000 C   0  0  3  0  0  0  0  0  0  0  0  0
    2.8660   -0.5081    0.0000 C   0  0  3  0  0  0  0  0  0  0  0  0
    3.7320   -2.0081    0.0000 C   0  0  0  0  0  0  0  0  0  0  0  0
    2.8660   -1.5081    0.0000 C   0  0  0  0  0  0  0  0  0  0  0  0
    5.4920    0.0266    0.0000 C   0  0  0  0  0  0  0  0  0  0  0  0
    3.2320    0.8579    0.0000 C   0  0  0  0  0  0  0  0  0  0  0  0
    5.4920   -2.0428    0.0000 C   0  0  0  0  0  0  0  0  0  0  0  0
    4.2320    0.8579    0.0000 C   0  0  0  0  0  0  0  0  0  0  0  0
    4.5981   -2.5081    0.0000 C   0  0  0  0  0  0  0  0  0  0  0  0
    6.3981   -0.4873    0.0000 C   0  0  0  0  0  0  0  0  0  0  0  0
    2.0000   -0.0081    0.0000 C   0  0  0  0  0  0  0  0  0  0  0  0
    6.3981   -1.5289    0.0000 C   0  0  0  0  0  0  0  0  0  0  0  0
    3.7320    1.7239    0.0000 C   0  0  0  0  0  0  0  0  0  0  0  0
    5.4804   -3.0427    0.0000 C   0  0  0  0  0  0  0  0  0  0  0  0
    3.2320    2.5900    0.0000 C   0  0  0  0  0  0  0  0  0  0  0  0
    3.6388    3.5035    0.0000 C   0  0  0  0  0  0  0  0  0  0  0  0
    2.2375    2.6945    0.0000 C   0  0  0  0  0  0  0  0  0  0  0  0
    2.8956    4.1726    0.0000 C   0  0  0  0  0  0  0  0  0  0  0  0
    4.5933    0.1119    0.0000 H   0  0  0  0  0  0  0  0  0  0  0  0
    2.8660    0.1119    0.0000 H   0  0  0  0  0  0  0  0  0  0  0  0
    3.3335   -2.4831    0.0000 H   0  0  0  0  0  0  0  0  0  0  0  0
    4.1306   -2.4831    0.0000 H   0  0  0  0  0  0  0  0  0  0  0  0
    2.2554   -1.4004    0.0000 H   0  0  0  0  0  0  0  0  0  0  0  0
    2.6540   -2.0907    0.0000 H   0  0  0  0  0  0  0  0  0  0  0  0
    5.8856    0.5056    0.0000 H   0  0  0  0  0  0  0  0  0  0  0  0
    5.0874    0.4963    0.0000 H   0  0  0  0  0  0  0  0  0  0  0  0
    2.7571    1.2564    0.0000 H   0  0  0  0  0  0  0  0  0  0  0  0
    2.7571    0.4594    0.0000 H   0  0  0  0  0  0  0  0  0  0  0  0
    4.7690    0.5479    0.0000 H   0  0  0  0  0  0  0  0  0  0  0  0
    4.5420    1.3948    0.0000 H   0  0  0  0  0  0  0  0  0  0  0  0
    3.6951    1.1679    0.0000 H   0  0  0  0  0  0  0  0  0  0  0  0
    3.9781   -2.5081    0.0000 H   0  0  0  0  0  0  0  0  0  0  0  0
    4.5981   -3.1281    0.0000 H   0  0  0  0  0  0  0  0  0  0  0  0
    5.2181   -2.5081    0.0000 H   0  0  0  0  0  0  0  0  0  0  0  0
    7.0089   -0.5934    0.0000 H   0  0  0  0  0  0  0  0  0  0  0  0
    6.6071    0.0964    0.0000 H   0  0  0  0  0  0  0  0  0  0  0  0
    2.3100    0.5288    0.0000 H   0  0  0  0  0  0  0  0  0  0  0  0
    1.4631    0.3019    0.0000 H   0  0  0  0  0  0  0  0  0  0  0  0
    1.6900   -0.5450    0.0000 H   0  0  0  0  0  0  0  0  0  0  0  0
    6.9338   -1.8410    0.0000 H   0  0  0  0  0  0  0  0  0  0  0  0
    4.2070    1.3254    0.0000 H   0  0  0  0  0  0  0  0  0  0  0  0
    4.2070    2.1225    0.0000 H   0  0  0  0  0  0  0  0  0  0  0  0
    6.3335   -4.1726    0.0000 H   0  0  0  0  0  0  0  0  0  0  0  0
    4.2452    3.6324    0.0000 H   0  0  0  0  0  0  0  0  0  0  0  0
    1.8227    2.2338    0.0000 H   0  0  0  0  0  0  0  0  0  0  0  0
    2.9604    4.7892    0.0000 H   0  0  0  0  0  0  0  0  0  0  0  0
  1 19  1  0  0  0  0
  1 48  1  0  0  0  0
  2 19  2  0  0  0  0
  3 22  1  0  0  0  0
  3 23  1  0  0  0  0
  4  5  1  0  0  0  0
  4  7  1  0  0  0  0
  4 11  1  0  0  0  0
  4 13  1  0  0  0  0
  5  6  1  0  0  0  0
  5 10  1  0  0  0  0
  5 24  1  0  0  0  0
  6  8  1  0  0  0  0
  6 12  1  0  0  0  0
  6 14  1  0  0  0  0
  7  9  1  0  0  0  0
  7 16  1  0  0  0  0
  7 25  1  0  0  0  0
  8  9  1  0  0  0  0
  8 26  1  0  0  0  0
  8 27  1  0  0  0  0
  9 28  1  0  0  0  0
  9 29  1  0  0  0  0
 10 15  1  0  0  0  0
 10 30  1  0  0  0  0
 10 31  1  0  0  0  0
 11 18  1  0  0  0  0
 11 32  1  0  0  0  0
 11 33  1  0  0  0  0
 12 17  2  0  0  0  0
 12 19  1  0  0  0  0
 13 34  1  0  0  0  0
 13 35  1  0  0  0  0
 13 36  1  0  0  0  0
 14 37  1  0  0  0  0
 14 38  1  0  0  0  0
 14 39  1  0  0  0  0
 15 17  1  0  0  0  0
 15 40  1  0  0  0  0
 15 41  1  0  0  0  0
 16 42  1  0  0  0  0
 16 43  1  0  0  0  0
 16 44  1  0  0  0  0
 17 45  1  0  0  0  0
 18 20  1  0  0  0  0
 18 46  1  0  0  0  0
 18 47  1  0  0  0  0
 20 21  1  0  0  0  0
 20 22  2  0  0  0  0
 21 23  2  0  0  0  0
 21 49  1  0  0  0  0
 22 50  1  0  0  0  0
 23 51  1  0  0  0  0
M  END
>  <PUBCHEM_COMPOUND_CID>
15559627

>  <PUBCHEM_COMPOUND_CANONICALIZED>
1

>  <PUBCHEM_CACTVS_COMPLEXITY>
497

>  <PUBCHEM_CACTVS_HBOND_ACCEPTOR>
3

>  <PUBCHEM_CACTVS_HBOND_DONOR>
1

>  <PUBCHEM_CACTVS_ROTATABLE_BOND>
4

>  <PUBCHEM_CACTVS_SUBSKEYS>
AAADceB4MAAAAAAAAAAAAAAAAAAAASAAAAAwQAAAAAAAAACBgAAAGgAACAAADwCgmAIyDIAABkCIAijSiAACCAAkIAAIiAEGCMgMJhIENQqCWSCkwBEIOYOIyPCPgAAAAAAAAACAAAQAACAAAAAAAAAAAA==

>  <PUBCHEM_IUPAC_OPENEYE_NAME>
5-[2-(3-furyl)ethyl]-5,6,8a-trimethyl-3,4,4a,6,7,8-hexahydronaphthalene-1-carboxylic acid

>  <PUBCHEM_IUPAC_CAS_NAME>
5-[2-(3-furanyl)ethyl]-5,6,8a-trimethyl-3,4,4a,6,7,8-hexahydronaphthalene-1-carboxylic acid

>  <PUBCHEM_IUPAC_NAME>
5-[2-(furan-3-yl)ethyl]-5,6,8a-trimethyl-3,4,4a,6,7,8-hexahydronaphthalene-1-carboxylic acid

>  <PUBCHEM_IUPAC_SYSTEMATIC_NAME>
5-[2-(furan-3-yl)ethyl]-5,6,8a-trimethyl-3,4,4a,6,7,8-hexahydronaphthalene-1-carboxylic acid

>  <PUBCHEM_IUPAC_TRADITIONAL_NAME>
5-[2-(3-furyl)ethyl]-5,6,8a-trimethyl-3,4,4a,6,7,8-hexahydronaphthalene-1-carboxylic acid

>  <PUBCHEM_IUPAC_INCHI>
InChI=1S/C20H28O3/c1-14-7-10-20(3)16(18(21)22)5-4-6-17(20)19(14,2)11-8-15-9-12-23-13-15/h5,9,12-14,17H,4,6-8,10-11H2,1-3H3,(H,21,22)

>  <PUBCHEM_IUPAC_INCHIKEY>
HHWOKJDCJVESIF-UHFFFAOYSA-N

>  <PUBCHEM_XLOGP3_AA>
5.6

>  <PUBCHEM_EXACT_MASS>
316.204

>  <PUBCHEM_MOLECULAR_FORMULA>
C20H28O3

>  <PUBCHEM_MOLECULAR_WEIGHT>
316.441

>  <PUBCHEM_OPENEYE_CAN_SMILES>
CC1CCC2(C(C1(C)CCC3=COC=C3)CCC=C2C(=O)O)C

>  <PUBCHEM_OPENEYE_ISO_SMILES>
CC1CCC2(C(C1(C)CCC3=COC=C3)CCC=C2C(=O)O)C

>  <PUBCHEM_CACTVS_TPSA>
50.4

>  <PUBCHEM_MONOISOTOPIC_WEIGHT>
316.204

>  <PUBCHEM_TOTAL_CHARGE>
0

>  <PUBCHEM_HEAVY_ATOM_COUNT>
23

>  <PUBCHEM_ATOM_DEF_STEREO_COUNT>
0

>  <PUBCHEM_ATOM_UDEF_STEREO_COUNT>
4

>  <PUBCHEM_BOND_DEF_STEREO_COUNT>
0

>  <PUBCHEM_BOND_UDEF_STEREO_COUNT>
0

>  <PUBCHEM_ISOTOPIC_ATOM_COUNT>
0

>  <PUBCHEM_COMPONENT_COUNT>
1

>  <PUBCHEM_CACTVS_TAUTO_COUNT>
1

>  <PUBCHEM_COORDINATE_TYPE>
1
5
255

>  <PUBCHEM_BONDANNOTATIONS>
20  21  8
20  22  8
21  23  8
3  22  8
3  23  8
4  13  3
5  10  3
6  14  3
7  16  3

$$$$
