155577
 OpenBabel06101807152D

 42 44  0  0  1  0  0  0  0  0999 V2000
    6.0363   -1.4994    0.0000 O   0  0  0  0  0  0  0  0  0  0  0  0
    2.4217   -0.1562    0.0000 O   0  0  0  0  0  0  0  0  0  0  0  0
    8.2104   -0.1112    0.0000 O   0  0  0  0  0  0  0  0  0  0  0  0
    7.4485   -2.5770    0.0000 O   0  0  0  0  0  0  0  0  0  0  0  0
    9.2178   -0.7522    0.0000 O   0  0  0  0  0  0  0  0  0  0  0  0
    4.9994   -0.0807    0.0000 C   0  0  2  0  0  0  0  0  0  0  0  0
    4.7768    0.8942    0.0000 C   0  0  2  0  0  0  0  0  0  0  0  0
    5.9003   -0.5146    0.0000 C   0  0  1  0  0  0  0  0  0  0  0  0
    4.1447   -0.5884    0.0000 C   0  0  2  0  0  0  0  0  0  0  0  0
    6.8013   -0.0807    0.0000 C   0  0  1  0  0  0  0  0  0  0  0  0
    3.7865    0.9807    0.0000 C   0  0  0  0  0  0  0  0  0  0  0  0
    3.3966    0.0663    0.0000 C   0  0  1  0  0  0  0  0  0  0  0  0
    7.4864   -0.8010    0.0000 C   0  0  1  0  0  0  0  0  0  0  0  0
    7.0238    0.8942    0.0000 C   0  0  0  0  0  0  0  0  0  0  0  0
    5.4003    1.6760    0.0000 C   0  0  0  0  0  0  0  0  0  0  0  0
    6.4003    1.6760    0.0000 C   0  0  0  0  0  0  0  0  0  0  0  0
    4.0533   -1.5842    0.0000 C   0  0  0  0  0  0  0  0  0  0  0  0
    7.0146   -1.6760    0.0000 C   0  0  0  0  0  0  0  0  0  0  0  0
    8.3662   -1.2764    0.0000 C   0  0  0  0  0  0  0  0  0  0  0  0
    4.9664    2.5770    0.0000 C   0  0  0  0  0  0  0  0  0  0  0  0
    5.0364   -0.9299    0.0000 H   0  0  0  0  0  0  0  0  0  0  0  0
    4.4418    1.6754    0.0000 H   0  0  0  0  0  0  0  0  0  0  0  0
    5.2133   -1.0151    0.0000 H   0  0  0  0  0  0  0  0  0  0  0  0
    3.5690   -0.8185    0.0000 H   0  0  0  0  0  0  0  0  0  0  0  0
    7.6210    0.1443    0.0000 H   0  0  0  0  0  0  0  0  0  0  0  0
    3.9051    1.5893    0.0000 H   0  0  0  0  0  0  0  0  0  0  0  0
    3.1938    1.1626    0.0000 H   0  0  0  0  0  0  0  0  0  0  0  0
    2.9991    0.5421    0.0000 H   0  0  0  0  0  0  0  0  0  0  0  0
    7.5824    0.6252    0.0000 H   0  0  0  0  0  0  0  0  0  0  0  0
    7.4104    1.3789    0.0000 H   0  0  0  0  0  0  0  0  0  0  0  0
    6.9589    1.9450    0.0000 H   0  0  0  0  0  0  0  0  0  0  0  0
    6.2624    2.2805    0.0000 H   0  0  0  0  0  0  0  0  0  0  0  0
    3.4359   -1.5276    0.0000 H   0  0  0  0  0  0  0  0  0  0  0  0
    3.9967   -2.2016    0.0000 H   0  0  0  0  0  0  0  0  0  0  0  0
    4.6707   -1.6408    0.0000 H   0  0  0  0  0  0  0  0  0  0  0  0
    7.9812   -1.7624    0.0000 H   0  0  0  0  0  0  0  0  0  0  0  0
    8.7779   -1.7400    0.0000 H   0  0  0  0  0  0  0  0  0  0  0  0
    2.0000    0.2983    0.0000 H   0  0  0  0  0  0  0  0  0  0  0  0
    5.3157    3.0892    0.0000 H   0  0  0  0  0  0  0  0  0  0  0  0
    4.3482    2.6233    0.0000 H   0  0  0  0  0  0  0  0  0  0  0  0
    8.0645    0.4913    0.0000 H   0  0  0  0  0  0  0  0  0  0  0  0
    9.7632   -1.0470    0.0000 H   0  0  0  0  0  0  0  0  0  0  0  0
  1  8  1  0  0  0  0
  1 18  1  0  0  0  0
  2 38  1  0  0  0  0
  3 41  1  0  0  0  0
  4 18  2  0  0  0  0
  5 19  1  0  0  0  0
  5 42  1  0  0  0  0
  6  7  1  1  0  0  0
  6 21  1  0  0  0  0
  7 11  1  0  0  0  0
  7 15  1  0  0  0  0
  7 22  1  1  0  0  0
  8  6  1  1  0  0  0
  8 23  1  0  0  0  0
  9  6  1  6  0  0  0
  9 17  1  0  0  0  0
  9 24  1  0  0  0  0
 10  8  1  1  0  0  0
 10 14  1  0  0  0  0
 10 25  1  0  0  0  0
 11 12  1  0  0  0  0
 11 26  1  0  0  0  0
 11 27  1  0  0  0  0
 12  2  1  0  0  0  0
 12  9  1  1  0  0  0
 12 28  1  0  0  0  0
 13  3  1  0  0  0  0
 13 10  1  1  0  0  0
 13 18  1  0  0  0  0
 13 19  1  0  0  0  0
 14 16  1  0  0  0  0
 14 29  1  0  0  0  0
 14 30  1  0  0  0  0
 15 16  1  0  0  0  0
 15 20  2  0  0  0  0
 16 31  1  0  0  0  0
 16 32  1  0  0  0  0
 17 33  1  0  0  0  0
 17 34  1  0  0  0  0
 17 35  1  0  0  0  0
 19 36  1  0  0  0  0
 19 37  1  0  0  0  0
 20 39  1  0  0  0  0
 20 40  1  0  0  0  0
M  END
>  <PUBCHEM_COMPOUND_CID>
155577

>  <PUBCHEM_COMPOUND_CANONICALIZED>
1

>  <PUBCHEM_CACTVS_COMPLEXITY>
448

>  <PUBCHEM_CACTVS_HBOND_ACCEPTOR>
5

>  <PUBCHEM_CACTVS_HBOND_DONOR>
3

>  <PUBCHEM_CACTVS_ROTATABLE_BOND>
1

>  <PUBCHEM_CACTVS_SUBSKEYS>
AAADceBwOAAAAAAAAAAAAAAAAAAAAaIAAAAAAAAABgAAAADQAAAAGgAACAAADVSggAICCAAABgCIAgDSCAIAAAAgAAAAAAFAAAgBEBYAAQACQAAFoAADAAHK6PyOgAAAAAAAAAAAAAAAAAAAAYAADAAAAA==

>  <PUBCHEM_IUPAC_OPENEYE_NAME>
(3R,3aS,6aS,8R,9R,9aS,9bS)-3,8-dihydroxy-3-(hydroxymethyl)-9-methyl-6-methylene-4,5,6a,7,8,9,9a,9b-octahydro-3aH-azuleno[4,5-b]furan-2-one

>  <PUBCHEM_IUPAC_CAS_NAME>
(3R,3aS,6aS,8R,9R,9aS,9bS)-3,8-dihydroxy-3-(hydroxymethyl)-9-methyl-6-methylene-4,5,6a,7,8,9,9a,9b-octahydro-3aH-azuleno[4,5-b]furan-2-one

>  <PUBCHEM_IUPAC_NAME>
(3R,3aS,6aS,8R,9R,9aS,9bS)-3,8-dihydroxy-3-(hydroxymethyl)-9-methyl-6-methylidene-4,5,6a,7,8,9,9a,9b-octahydro-3aH-azuleno[4,5-b]furan-2-one

>  <PUBCHEM_IUPAC_SYSTEMATIC_NAME>
(3R,3aS,6aS,8R,9R,9aS,9bS)-3-(hydroxymethyl)-9-methyl-6-methylidene-3,8-bis(oxidanyl)-4,5,6a,7,8,9,9a,9b-octahydro-3aH-azuleno[4,5-b]furan-2-one

>  <PUBCHEM_IUPAC_TRADITIONAL_NAME>
(3R,3aS,6aS,8R,9R,9aS,9bS)-3,8-dihydroxy-9-methyl-6-methylene-3-methylol-4,5,6a,7,8,9,9a,9b-octahydro-3aH-azuleno[4,5-b]furan-2-one

>  <PUBCHEM_IUPAC_INCHI>
InChI=1S/C15H22O5/c1-7-3-4-10-13(20-14(18)15(10,19)6-16)12-8(2)11(17)5-9(7)12/h8-13,16-17,19H,1,3-6H2,2H3/t8-,9+,10-,11+,12+,13+,15-/m0/s1

>  <PUBCHEM_IUPAC_INCHIKEY>
OHBHGGYGWZIWCX-VCSRPQGHSA-N

>  <PUBCHEM_XLOGP3_AA>
0.8

>  <PUBCHEM_EXACT_MASS>
282.147

>  <PUBCHEM_MOLECULAR_FORMULA>
C15H22O5

>  <PUBCHEM_MOLECULAR_WEIGHT>
282.336

>  <PUBCHEM_OPENEYE_CAN_SMILES>
CC1C(CC2C1C3C(CCC2=C)C(C(=O)O3)(CO)O)O

>  <PUBCHEM_OPENEYE_ISO_SMILES>
C[C@H]1[C@@H](C[C@H]2[C@@H]1[C@H]3[C@H](CCC2=C)[C@](C(=O)O3)(CO)O)O

>  <PUBCHEM_CACTVS_TPSA>
87

>  <PUBCHEM_MONOISOTOPIC_WEIGHT>
282.147

>  <PUBCHEM_TOTAL_CHARGE>
0

>  <PUBCHEM_HEAVY_ATOM_COUNT>
20

>  <PUBCHEM_ATOM_DEF_STEREO_COUNT>
7

>  <PUBCHEM_ATOM_UDEF_STEREO_COUNT>
0

>  <PUBCHEM_BOND_DEF_STEREO_COUNT>
0

>  <PUBCHEM_BOND_UDEF_STEREO_COUNT>
0

>  <PUBCHEM_ISOTOPIC_ATOM_COUNT>
0

>  <PUBCHEM_COMPONENT_COUNT>
1

>  <PUBCHEM_CACTVS_TAUTO_COUNT>
1

>  <PUBCHEM_COORDINATE_TYPE>
1
5
255

>  <PUBCHEM_BONDANNOTATIONS>
10  25  5
12  2  6
13  3  6
6  21  5
7  22  5
8  23  6
9  17  5

$$$$
