15560442
 OpenBabel06101807152D

 32 34  0  0  0  0  0  0  0  0999 V2000
    6.0682   -0.0950    0.0000 O   0  0  0  0  0  0  0  0  0  0  0  0
    7.8003    1.9050    0.0000 O   0  0  0  0  0  0  0  0  0  0  0  0
    4.3198   -1.1296    0.0000 O   0  0  0  0  0  0  0  0  0  0  0  0
    6.0682    2.9050    0.0000 O   0  0  0  0  0  0  0  0  0  0  0  0
    2.5381   -0.1192    0.0000 O   0  0  0  0  0  0  0  0  0  0  0  0
    8.6663   -2.5950    0.0000 O   0  0  0  0  0  0  0  0  0  0  0  0
   10.3984   -1.5950    0.0000 O   0  0  0  0  0  0  0  0  0  0  0  0
    5.2022    1.4050    0.0000 C   0  0  0  0  0  0  0  0  0  0  0  0
    5.2022    0.4050    0.0000 C   0  0  0  0  0  0  0  0  0  0  0  0
    6.9343    0.4050    0.0000 C   0  0  0  0  0  0  0  0  0  0  0  0
    7.8003   -0.0950    0.0000 C   0  0  0  0  0  0  0  0  0  0  0  0
    6.9343    1.4050    0.0000 C   0  0  0  0  0  0  0  0  0  0  0  0
    6.0682    1.9050    0.0000 C   0  0  0  0  0  0  0  0  0  0  0  0
    4.3083   -0.1297    0.0000 C   0  0  0  0  0  0  0  0  0  0  0  0
    4.3083    1.9397    0.0000 C   0  0  0  0  0  0  0  0  0  0  0  0
    3.4022    0.3842    0.0000 C   0  0  0  0  0  0  0  0  0  0  0  0
    7.8003   -1.0950    0.0000 C   0  0  0  0  0  0  0  0  0  0  0  0
    8.6663    0.4050    0.0000 C   0  0  0  0  0  0  0  0  0  0  0  0
    3.4022    1.4258    0.0000 C   0  0  0  0  0  0  0  0  0  0  0  0
    8.6663   -1.5950    0.0000 C   0  0  0  0  0  0  0  0  0  0  0  0
    9.5323   -0.0950    0.0000 C   0  0  0  0  0  0  0  0  0  0  0  0
    9.5323   -1.0950    0.0000 C   0  0  0  0  0  0  0  0  0  0  0  0
    4.3154    2.5596    0.0000 H   0  0  0  0  0  0  0  0  0  0  0  0
    7.2634   -1.4050    0.0000 H   0  0  0  0  0  0  0  0  0  0  0  0
    8.6663    1.0250    0.0000 H   0  0  0  0  0  0  0  0  0  0  0  0
    2.8665    1.7379    0.0000 H   0  0  0  0  0  0  0  0  0  0  0  0
   10.0693    0.2150    0.0000 H   0  0  0  0  0  0  0  0  0  0  0  0
    7.8003    2.5250    0.0000 H   0  0  0  0  0  0  0  0  0  0  0  0
    3.7865   -1.4458    0.0000 H   0  0  0  0  0  0  0  0  0  0  0  0
    2.0000    0.1888    0.0000 H   0  0  0  0  0  0  0  0  0  0  0  0
    9.2033   -2.9050    0.0000 H   0  0  0  0  0  0  0  0  0  0  0  0
   10.9353   -1.2850    0.0000 H   0  0  0  0  0  0  0  0  0  0  0  0
  1  9  1  0  0  0  0
  1 10  1  0  0  0  0
  2 12  1  0  0  0  0
  2 28  1  0  0  0  0
  3 14  1  0  0  0  0
  3 29  1  0  0  0  0
  4 13  2  0  0  0  0
  5 16  1  0  0  0  0
  5 30  1  0  0  0  0
  6 20  1  0  0  0  0
  6 31  1  0  0  0  0
  7 22  1  0  0  0  0
  7 32  1  0  0  0  0
  8  9  2  0  0  0  0
  8 13  1  0  0  0  0
  8 15  1  0  0  0  0
  9 14  1  0  0  0  0
 10 11  1  0  0  0  0
 10 12  2  0  0  0  0
 11 17  2  0  0  0  0
 11 18  1  0  0  0  0
 12 13  1  0  0  0  0
 14 16  2  0  0  0  0
 15 19  2  0  0  0  0
 15 23  1  0  0  0  0
 16 19  1  0  0  0  0
 17 20  1  0  0  0  0
 17 24  1  0  0  0  0
 18 21  2  0  0  0  0
 18 25  1  0  0  0  0
 19 26  1  0  0  0  0
 20 22  2  0  0  0  0
 21 22  1  0  0  0  0
 21 27  1  0  0  0  0
M  END
>  <PUBCHEM_COMPOUND_CID>
15560442

>  <PUBCHEM_COMPOUND_CANONICALIZED>
1

>  <PUBCHEM_CACTVS_COMPLEXITY>
488

>  <PUBCHEM_CACTVS_HBOND_ACCEPTOR>
7

>  <PUBCHEM_CACTVS_HBOND_DONOR>
5

>  <PUBCHEM_CACTVS_ROTATABLE_BOND>
1

>  <PUBCHEM_CACTVS_SUBSKEYS>
AAADccBwOAAAAAAAAAAAAAAAAAAAAAAAAAAwYIAAAAAAAACBQAAAGgAACAAADASAmAAwBoAABgCIAqBSAAICCAAkIAAIiAFGiMgNJzaGNRqCeWOl4BULuYfK7LzOIAABCAAIQABAAAIQABCAAAAAAAAAAA==

>  <PUBCHEM_IUPAC_OPENEYE_NAME>
2-(3,4-dihydroxyphenyl)-3,7,8-trihydroxy-chromen-4-one

>  <PUBCHEM_IUPAC_CAS_NAME>
2-(3,4-dihydroxyphenyl)-3,7,8-trihydroxy-1-benzopyran-4-one

>  <PUBCHEM_IUPAC_NAME>
2-(3,4-dihydroxyphenyl)-3,7,8-trihydroxychromen-4-one

>  <PUBCHEM_IUPAC_SYSTEMATIC_NAME>
2-[3,4-bis(oxidanyl)phenyl]-3,7,8-tris(oxidanyl)chromen-4-one

>  <PUBCHEM_IUPAC_TRADITIONAL_NAME>
2-(3,4-dihydroxyphenyl)-3,7,8-trihydroxy-chromone

>  <PUBCHEM_IUPAC_INCHI>
InChI=1S/C15H10O7/c16-8-3-1-6(5-10(8)18)14-13(21)11(19)7-2-4-9(17)12(20)15(7)22-14/h1-5,16-18,20-21H

>  <PUBCHEM_IUPAC_INCHIKEY>
RHTZDFORBKRGQU-UHFFFAOYSA-N

>  <PUBCHEM_XLOGP3_AA>
1.6

>  <PUBCHEM_EXACT_MASS>
302.043

>  <PUBCHEM_MOLECULAR_FORMULA>
C15H10O7

>  <PUBCHEM_MOLECULAR_WEIGHT>
302.238

>  <PUBCHEM_OPENEYE_CAN_SMILES>
C1=CC(=C(C=C1C2=C(C(=O)C3=C(O2)C(=C(C=C3)O)O)O)O)O

>  <PUBCHEM_OPENEYE_ISO_SMILES>
C1=CC(=C(C=C1C2=C(C(=O)C3=C(O2)C(=C(C=C3)O)O)O)O)O

>  <PUBCHEM_CACTVS_TPSA>
127

>  <PUBCHEM_MONOISOTOPIC_WEIGHT>
302.043

>  <PUBCHEM_TOTAL_CHARGE>
0

>  <PUBCHEM_HEAVY_ATOM_COUNT>
22

>  <PUBCHEM_ATOM_DEF_STEREO_COUNT>
0

>  <PUBCHEM_ATOM_UDEF_STEREO_COUNT>
0

>  <PUBCHEM_BOND_DEF_STEREO_COUNT>
0

>  <PUBCHEM_BOND_UDEF_STEREO_COUNT>
0

>  <PUBCHEM_ISOTOPIC_ATOM_COUNT>
0

>  <PUBCHEM_COMPONENT_COUNT>
1

>  <PUBCHEM_CACTVS_TAUTO_COUNT>
645

>  <PUBCHEM_COORDINATE_TYPE>
1
5
255

>  <PUBCHEM_BONDANNOTATIONS>
1  10  8
1  9  8
10  12  8
11  17  8
11  18  8
12  13  8
14  16  8
15  19  8
16  19  8
17  20  8
18  21  8
20  22  8
21  22  8
8  13  8
8  15  8
8  9  8
9  14  8

$$$$
