15608234
 OpenBabel06101807152D

145152  0  0  1  0  0  0  0  0999 V2000
    6.8671   -1.4272    0.0000 O   0  0  0  0  0  0  0  0  0  0  0  0
    8.6424    7.9272    0.0000 O   0  0  0  0  0  0  0  0  0  0  0  0
    9.3112   -0.7356    0.0000 O   0  0  0  0  0  0  0  0  0  0  0  0
    5.1350   -1.4272    0.0000 O   0  0  0  0  0  0  0  0  0  0  0  0
    6.8671   -3.4272    0.0000 O   0  0  0  0  0  0  0  0  0  0  0  0
    5.1350   -4.4272    0.0000 O   0  0  0  0  0  0  0  0  0  0  0  0
    3.4030   -3.4272    0.0000 O   0  0  0  0  0  0  0  0  0  0  0  0
    6.0010   -4.9272    0.0000 O   0  0  0  0  0  0  0  0  0  0  0  0
    2.5369   -1.9272    0.0000 O   0  0  0  0  0  0  0  0  0  0  0  0
    3.4030   -0.4273    0.0000 O   0  0  0  0  0  0  0  0  0  0  0  0
    8.5991   -4.4272    0.0000 O   0  0  0  0  0  0  0  0  0  0  0  0
    8.5991   -6.4272    0.0000 O   0  0  0  0  0  0  0  0  0  0  0  0
    6.8671   -7.4272    0.0000 O   0  0  0  0  0  0  0  0  0  0  0  0
    9.4651   -5.9272    0.0000 O   0  0  0  0  0  0  0  0  0  0  0  0
    5.1350   -7.4272    0.0000 O   0  0  0  0  0  0  0  0  0  0  0  0
   10.3312   -3.4272    0.0000 O   0  0  0  0  0  0  0  0  0  0  0  0
   12.0632   -4.4272    0.0000 O   0  0  0  0  0  0  0  0  0  0  0  0
   12.0632   -6.4272    0.0000 O   0  0  0  0  0  0  0  0  0  0  0  0
   11.1972   -7.9272    0.0000 O   0  0  0  0  0  0  0  0  0  0  0  0
    7.7681    3.2730    0.0000 C   0  0  3  0  0  0  0  0  0  0  0  0
    6.9040    2.7696    0.0000 C   0  0  3  0  0  0  0  0  0  0  0  0
    6.8920    1.7281    0.0000 C   0  0  3  0  0  0  0  0  0  0  0  0
    7.7643    4.2730    0.0000 C   0  0  3  0  0  0  0  0  0  0  0  0
    7.7920    1.2038    0.0000 C   0  0  3  0  0  0  0  0  0  0  0  0
    8.6801    2.7696    0.0000 C   0  0  0  0  0  0  0  0  0  0  0  0
    6.8963    4.7696    0.0000 C   0  0  0  0  0  0  0  0  0  0  0  0
    7.8046    0.1189    0.0000 C   0  0  3  0  0  0  0  0  0  0  0  0
    8.6921    1.7281    0.0000 C   0  0  0  0  0  0  0  0  0  0  0  0
    6.8762    5.8111    0.0000 C   0  0  3  0  0  0  0  0  0  0  0  0
    7.7722    6.3423    0.0000 C   0  0  3  0  0  0  0  0  0  0  0  0
    6.0361    3.2663    0.0000 C   0  0  0  0  0  0  0  0  0  0  0  0
    8.6723    4.7833    0.0000 C   0  0  0  0  0  0  0  0  0  0  0  0
    5.9421    1.2038    0.0000 C   0  0  0  0  0  0  0  0  0  0  0  0
    8.6763    5.8249    0.0000 C   0  0  0  0  0  0  0  0  0  0  0  0
    8.7522    3.4504    0.0000 C   0  0  0  0  0  0  0  0  0  0  0  0
    6.8671   -0.4273    0.0000 C   0  0  3  0  0  0  0  0  0  0  0  0
    6.0322    4.2663    0.0000 C   0  0  0  0  0  0  0  0  0  0  0  0
    6.0279    2.2314    0.0000 C   0  0  0  0  0  0  0  0  0  0  0  0
    5.9295    0.1189    0.0000 C   0  0  0  0  0  0  0  0  0  0  0  0
    8.7497    4.1031    0.0000 C   0  0  0  0  0  0  0  0  0  0  0  0
    5.9223    6.3280    0.0000 C   0  0  0  0  0  0  0  0  0  0  0  0
    7.7764    7.4272    0.0000 C   0  0  3  0  0  0  0  0  0  0  0  0
    5.9014    7.4128    0.0000 C   0  0  0  0  0  0  0  0  0  0  0  0
    6.8347    7.9661    0.0000 C   0  0  0  0  0  0  0  0  0  0  0  0
    8.8046    0.1266    0.0000 C   0  0  0  0  0  0  0  0  0  0  0  0
    8.3113   -0.7433    0.0000 C   0  0  0  0  0  0  0  0  0  0  0  0
    8.6324    6.8522    0.0000 C   0  0  0  0  0  0  0  0  0  0  0  0
    5.3881    8.2710    0.0000 C   0  0  0  0  0  0  0  0  0  0  0  0
    4.9015    7.3974    0.0000 C   0  0  0  0  0  0  0  0  0  0  0  0
    6.0010   -1.9272    0.0000 C   0  0  3  0  0  0  0  0  0  0  0  0
    6.0010   -2.9272    0.0000 C   0  0  3  0  0  0  0  0  0  0  0  0
    5.1350   -3.4272    0.0000 C   0  0  3  0  0  0  0  0  0  0  0  0
    4.2690   -1.9272    0.0000 C   0  0  3  0  0  0  0  0  0  0  0  0
    4.2690   -2.9272    0.0000 C   0  0  3  0  0  0  0  0  0  0  0  0
    6.8671   -4.4272    0.0000 C   0  0  3  0  0  0  0  0  0  0  0  0
    3.4030   -1.4272    0.0000 C   0  0  0  0  0  0  0  0  0  0  0  0
    7.7331   -4.9272    0.0000 C   0  0  3  0  0  0  0  0  0  0  0  0
    7.7331   -5.9272    0.0000 C   0  0  3  0  0  0  0  0  0  0  0  0
    6.0010   -5.9272    0.0000 C   0  0  3  0  0  0  0  0  0  0  0  0
    6.8671   -6.4272    0.0000 C   0  0  3  0  0  0  0  0  0  0  0  0
    5.1350   -6.4272    0.0000 C   0  0  0  0  0  0  0  0  0  0  0  0
    9.4651   -4.9272    0.0000 C   0  0  3  0  0  0  0  0  0  0  0  0
   10.3312   -4.4272    0.0000 C   0  0  3  0  0  0  0  0  0  0  0  0
   11.1972   -4.9272    0.0000 C   0  0  3  0  0  0  0  0  0  0  0  0
   10.3312   -6.4272    0.0000 C   0  0  3  0  0  0  0  0  0  0  0  0
   11.1972   -5.9272    0.0000 C   0  0  3  0  0  0  0  0  0  0  0  0
   10.3312   -7.4272    0.0000 C   0  0  0  0  0  0  0  0  0  0  0  0
    7.4398    2.4576    0.0000 H   0  0  0  0  0  0  0  0  0  0  0  0
    8.3314    0.8979    0.0000 H   0  0  0  0  0  0  0  0  0  0  0  0
    9.2921    2.6706    0.0000 H   0  0  0  0  0  0  0  0  0  0  0  0
    8.8824    3.3557    0.0000 H   0  0  0  0  0  0  0  0  0  0  0  0
    8.9079    1.1468    0.0000 H   0  0  0  0  0  0  0  0  0  0  0  0
    9.3017    1.8412    0.0000 H   0  0  0  0  0  0  0  0  0  0  0  0
    6.3466    5.4887    0.0000 H   0  0  0  0  0  0  0  0  0  0  0  0
    5.4251    3.3716    0.0000 H   0  0  0  0  0  0  0  0  0  0  0  0
    5.8263    2.6829    0.0000 H   0  0  0  0  0  0  0  0  0  0  0  0
    8.8791    4.1988    0.0000 H   0  0  0  0  0  0  0  0  0  0  0  0
    9.2836    4.8870    0.0000 H   0  0  0  0  0  0  0  0  0  0  0  0
    5.7398    1.7898    0.0000 H   0  0  0  0  0  0  0  0  0  0  0  0
    5.3300    1.1048    0.0000 H   0  0  0  0  0  0  0  0  0  0  0  0
    9.2868    5.7165    0.0000 H   0  0  0  0  0  0  0  0  0  0  0  0
    8.8876    6.4078    0.0000 H   0  0  0  0  0  0  0  0  0  0  0  0
    8.8623    2.8402    0.0000 H   0  0  0  0  0  0  0  0  0  0  0  0
    9.3624    3.5604    0.0000 H   0  0  0  0  0  0  0  0  0  0  0  0
    8.6422    4.0606    0.0000 H   0  0  0  0  0  0  0  0  0  0  0  0
    7.4046   -0.7362    0.0000 H   0  0  0  0  0  0  0  0  0  0  0  0
    5.4941    4.5742    0.0000 H   0  0  0  0  0  0  0  0  0  0  0  0
    6.3400    2.7671    0.0000 H   0  0  0  0  0  0  0  0  0  0  0  0
    5.4922    2.5435    0.0000 H   0  0  0  0  0  0  0  0  0  0  0  0
    5.7158    1.6957    0.0000 H   0  0  0  0  0  0  0  0  0  0  0  0
    5.3199    0.2320    0.0000 H   0  0  0  0  0  0  0  0  0  0  0  0
    5.7137   -0.4624    0.0000 H   0  0  0  0  0  0  0  0  0  0  0  0
    8.6444    3.4921    0.0000 H   0  0  0  0  0  0  0  0  0  0  0  0
    9.3607    3.9978    0.0000 H   0  0  0  0  0  0  0  0  0  0  0  0
    8.8550    4.7141    0.0000 H   0  0  0  0  0  0  0  0  0  0  0  0
    5.3095    6.4223    0.0000 H   0  0  0  0  0  0  0  0  0  0  0  0
    5.7246    5.7404    0.0000 H   0  0  0  0  0  0  0  0  0  0  0  0
    7.7752    8.0472    0.0000 H   0  0  0  0  0  0  0  0  0  0  0  0
    7.2302    8.4436    0.0000 H   0  0  0  0  0  0  0  0  0  0  0  0
    6.4319    8.4375    0.0000 H   0  0  0  0  0  0  0  0  0  0  0  0
    9.3855    0.3431    0.0000 H   0  0  0  0  0  0  0  0  0  0  0  0
    8.6922    0.7363    0.0000 H   0  0  0  0  0  0  0  0  0  0  0  0
    7.7767   -1.0574    0.0000 H   0  0  0  0  0  0  0  0  0  0  0  0
    8.6254   -1.2778    0.0000 H   0  0  0  0  0  0  0  0  0  0  0  0
    8.8458   -0.4292    0.0000 H   0  0  0  0  0  0  0  0  0  0  0  0
    8.9486    6.3189    0.0000 H   0  0  0  0  0  0  0  0  0  0  0  0
    9.1657    7.1684    0.0000 H   0  0  0  0  0  0  0  0  0  0  0  0
    8.3162    7.3856    0.0000 H   0  0  0  0  0  0  0  0  0  0  0  0
    5.9202    8.5892    0.0000 H   0  0  0  0  0  0  0  0  0  0  0  0
    5.0699    8.8031    0.0000 H   0  0  0  0  0  0  0  0  0  0  0  0
    4.8560    7.9528    0.0000 H   0  0  0  0  0  0  0  0  0  0  0  0
    4.8920    8.0173    0.0000 H   0  0  0  0  0  0  0  0  0  0  0  0
    4.2816    7.3878    0.0000 H   0  0  0  0  0  0  0  0  0  0  0  0
    4.9111    6.7775    0.0000 H   0  0  0  0  0  0  0  0  0  0  0  0
    8.6424    8.5472    0.0000 H   0  0  0  0  0  0  0  0  0  0  0  0
    6.0010   -1.3072    0.0000 H   0  0  0  0  0  0  0  0  0  0  0  0
    9.9312   -0.7308    0.0000 H   0  0  0  0  0  0  0  0  0  0  0  0
    6.5380   -2.6172    0.0000 H   0  0  0  0  0  0  0  0  0  0  0  0
    5.6720   -3.7372    0.0000 H   0  0  0  0  0  0  0  0  0  0  0  0
    4.2690   -1.3072    0.0000 H   0  0  0  0  0  0  0  0  0  0  0  0
    3.7320   -2.6172    0.0000 H   0  0  0  0  0  0  0  0  0  0  0  0
    7.4040   -4.1172    0.0000 H   0  0  0  0  0  0  0  0  0  0  0  0
    4.5981   -4.7373    0.0000 H   0  0  0  0  0  0  0  0  0  0  0  0
    3.4030   -4.0472    0.0000 H   0  0  0  0  0  0  0  0  0  0  0  0
    8.2700   -5.2373    0.0000 H   0  0  0  0  0  0  0  0  0  0  0  0
    7.7331   -6.5472    0.0000 H   0  0  0  0  0  0  0  0  0  0  0  0
    5.4641   -5.6172    0.0000 H   0  0  0  0  0  0  0  0  0  0  0  0
    2.0000   -1.6172    0.0000 H   0  0  0  0  0  0  0  0  0  0  0  0
    6.3301   -6.7372    0.0000 H   0  0  0  0  0  0  0  0  0  0  0  0
    4.9230   -5.8446    0.0000 H   0  0  0  0  0  0  0  0  0  0  0  0
    4.5244   -6.5349    0.0000 H   0  0  0  0  0  0  0  0  0  0  0  0
    9.4651   -4.3072    0.0000 H   0  0  0  0  0  0  0  0  0  0  0  0
    8.5991   -7.0472    0.0000 H   0  0  0  0  0  0  0  0  0  0  0  0
    7.4040   -7.7372    0.0000 H   0  0  0  0  0  0  0  0  0  0  0  0
   10.8681   -4.1172    0.0000 H   0  0  0  0  0  0  0  0  0  0  0  0
   11.7341   -5.2373    0.0000 H   0  0  0  0  0  0  0  0  0  0  0  0
    4.5981   -7.7372    0.0000 H   0  0  0  0  0  0  0  0  0  0  0  0
    9.7942   -6.7372    0.0000 H   0  0  0  0  0  0  0  0  0  0  0  0
   11.1972   -6.5472    0.0000 H   0  0  0  0  0  0  0  0  0  0  0  0
   10.8681   -3.1172    0.0000 H   0  0  0  0  0  0  0  0  0  0  0  0
    9.7206   -7.3196    0.0000 H   0  0  0  0  0  0  0  0  0  0  0  0
   10.1191   -8.0099    0.0000 H   0  0  0  0  0  0  0  0  0  0  0  0
   12.6002   -4.7373    0.0000 H   0  0  0  0  0  0  0  0  0  0  0  0
   12.6002   -6.1172    0.0000 H   0  0  0  0  0  0  0  0  0  0  0  0
   11.1972   -8.5472    0.0000 H   0  0  0  0  0  0  0  0  0  0  0  0
  1 36  1  0  0  0  0
  1 50  1  0  0  0  0
  2 42  1  0  0  0  0
  2115  1  0  0  0  0
  3 45  1  0  0  0  0
  3117  1  0  0  0  0
  4 50  1  0  0  0  0
  4 53  1  0  0  0  0
  5 51  1  0  0  0  0
  5 55  1  0  0  0  0
  6 52  1  0  0  0  0
  6123  1  0  0  0  0
  7 54  1  0  0  0  0
  7124  1  0  0  0  0
  8 55  1  0  0  0  0
  8 59  1  0  0  0  0
  9 56  1  0  0  0  0
  9128  1  0  0  0  0
 10 56  2  0  0  0  0
 11 57  1  0  0  0  0
 11 62  1  0  0  0  0
 12 58  1  0  0  0  0
 12133  1  0  0  0  0
 13 60  1  0  0  0  0
 13134  1  0  0  0  0
 14 62  1  0  0  0  0
 14 65  1  0  0  0  0
 15 61  1  0  0  0  0
 15137  1  0  0  0  0
 16 63  1  0  0  0  0
 16140  1  0  0  0  0
 17 64  1  0  0  0  0
 17143  1  0  0  0  0
 18 66  1  0  0  0  0
 18144  1  0  0  0  0
 19 67  1  0  0  0  0
 19145  1  0  0  0  0
 20 21  1  0  0  0  0
 20 23  1  0  0  0  0
 20 25  1  0  0  0  0
 20 35  1  0  0  0  0
 21 22  1  0  0  0  0
 21 31  1  0  0  0  0
 21 68  1  0  0  0  0
 22 24  1  0  0  0  0
 22 33  1  0  0  0  0
 22 38  1  0  0  0  0
 23 26  1  0  0  0  0
 23 32  1  0  0  0  0
 23 40  1  0  0  0  0
 24 27  1  0  0  0  0
 24 28  1  0  0  0  0
 24 69  1  0  0  0  0
 25 28  1  0  0  0  0
 25 70  1  0  0  0  0
 25 71  1  0  0  0  0
 26 29  1  0  0  0  0
 26 37  2  0  0  0  0
 27 36  1  0  0  0  0
 27 45  1  0  0  0  0
 27 46  1  0  0  0  0
 28 72  1  0  0  0  0
 28 73  1  0  0  0  0
 29 30  1  0  0  0  0
 29 41  1  0  0  0  0
 29 74  1  0  0  0  0
 30 34  1  0  0  0  0
 30 42  1  0  0  0  0
 30 47  1  0  0  0  0
 31 37  1  0  0  0  0
 31 75  1  0  0  0  0
 31 76  1  0  0  0  0
 32 34  1  0  0  0  0
 32 77  1  0  0  0  0
 32 78  1  0  0  0  0
 33 39  1  0  0  0  0
 33 79  1  0  0  0  0
 33 80  1  0  0  0  0
 34 81  1  0  0  0  0
 34 82  1  0  0  0  0
 35 83  1  0  0  0  0
 35 84  1  0  0  0  0
 35 85  1  0  0  0  0
 36 39  1  0  0  0  0
 36 86  1  0  0  0  0
 37 87  1  0  0  0  0
 38 88  1  0  0  0  0
 38 89  1  0  0  0  0
 38 90  1  0  0  0  0
 39 91  1  0  0  0  0
 39 92  1  0  0  0  0
 40 93  1  0  0  0  0
 40 94  1  0  0  0  0
 40 95  1  0  0  0  0
 41 43  1  0  0  0  0
 41 96  1  0  0  0  0
 41 97  1  0  0  0  0
 42 44  1  0  0  0  0
 42 98  1  0  0  0  0
 43 44  1  0  0  0  0
 43 48  1  0  0  0  0
 43 49  1  0  0  0  0
 44 99  1  0  0  0  0
 44100  1  0  0  0  0
 45101  1  0  0  0  0
 45102  1  0  0  0  0
 46103  1  0  0  0  0
 46104  1  0  0  0  0
 46105  1  0  0  0  0
 47106  1  0  0  0  0
 47107  1  0  0  0  0
 47108  1  0  0  0  0
 48109  1  0  0  0  0
 48110  1  0  0  0  0
 48111  1  0  0  0  0
 49112  1  0  0  0  0
 49113  1  0  0  0  0
 49114  1  0  0  0  0
 50 51  1  0  0  0  0
 50116  1  0  0  0  0
 51 52  1  0  0  0  0
 51118  1  0  0  0  0
 52 54  1  0  0  0  0
 52119  1  0  0  0  0
 53 54  1  0  0  0  0
 53 56  1  0  0  0  0
 53120  1  0  0  0  0
 54121  1  0  0  0  0
 55 57  1  0  0  0  0
 55122  1  0  0  0  0
 57 58  1  0  0  0  0
 57125  1  0  0  0  0
 58 60  1  0  0  0  0
 58126  1  0  0  0  0
 59 60  1  0  0  0  0
 59 61  1  0  0  0  0
 59127  1  0  0  0  0
 60129  1  0  0  0  0
 61130  1  0  0  0  0
 61131  1  0  0  0  0
 62 63  1  0  0  0  0
 62132  1  0  0  0  0
 63 64  1  0  0  0  0
 63135  1  0  0  0  0
 64 66  1  0  0  0  0
 64136  1  0  0  0  0
 65 66  1  0  0  0  0
 65 67  1  0  0  0  0
 65138  1  0  0  0  0
 66139  1  0  0  0  0
 67141  1  0  0  0  0
 67142  1  0  0  0  0
M  END
>  <PUBCHEM_COMPOUND_CID>
15608234

>  <PUBCHEM_COMPOUND_CANONICALIZED>
1

>  <PUBCHEM_CACTVS_COMPLEXITY>
1840

>  <PUBCHEM_CACTVS_HBOND_ACCEPTOR>
19

>  <PUBCHEM_CACTVS_HBOND_DONOR>
12

>  <PUBCHEM_CACTVS_ROTATABLE_BOND>
10

>  <PUBCHEM_CACTVS_SUBSKEYS>
AAADcfB8PgAAAAAAAAAAAAAAAAAAAAAAAAA0aNGCAAAAAADAAAAAGgAACAAADxSwgAMCCAAABgCIAiDSCAIAAAAgAAAACAFAAAgREBYAAQQiQAAFoAAPAAPK7PxPgAAAAAAAAADAAAYAADAAAAAAAAAAAA==

>  <PUBCHEM_IUPAC_OPENEYE_NAME>
5-[4,5-dihydroxy-6-(hydroxymethyl)-3-[3,4,5-trihydroxy-6-(hydroxymethyl)tetrahydropyran-2-yl]oxy-tetrahydropyran-2-yl]oxy-3,4-dihydroxy-6-[[9-hydroxy-4-(hydroxymethyl)-4,6a,6b,8a,11,11,14b-heptamethyl-1,2,3,4a,5,6,7,8,9,10,12,12a,14,14a-tetradecahydropicen-3-yl]oxy]tetrahydropyran-2-carboxylic acid

>  <PUBCHEM_IUPAC_CAS_NAME>
5-[[4,5-dihydroxy-6-(hydroxymethyl)-3-[[3,4,5-trihydroxy-6-(hydroxymethyl)-2-oxanyl]oxy]-2-oxanyl]oxy]-3,4-dihydroxy-6-[[9-hydroxy-4-(hydroxymethyl)-4,6a,6b,8a,11,11,14b-heptamethyl-1,2,3,4a,5,6,7,8,9,10,12,12a,14,14a-tetradecahydropicen-3-yl]oxy]-2-oxanecarboxylic acid

>  <PUBCHEM_IUPAC_NAME>
5-[4,5-dihydroxy-6-(hydroxymethyl)-3-[3,4,5-trihydroxy-6-(hydroxymethyl)oxan-2-yl]oxyoxan-2-yl]oxy-3,4-dihydroxy-6-[[9-hydroxy-4-(hydroxymethyl)-4,6a,6b,8a,11,11,14b-heptamethyl-1,2,3,4a,5,6,7,8,9,10,12,12a,14,14a-tetradecahydropicen-3-yl]oxy]oxane-2-carboxylic acid

>  <PUBCHEM_IUPAC_SYSTEMATIC_NAME>
6-[[4-(hydroxymethyl)-4,6a,6b,8a,11,11,14b-heptamethyl-9-oxidanyl-1,2,3,4a,5,6,7,8,9,10,12,12a,14,14a-tetradecahydropicen-3-yl]oxy]-5-[6-(hydroxymethyl)-3-[6-(hydroxymethyl)-3,4,5-tris(oxidanyl)oxan-2-yl]oxy-4,5-bis(oxidanyl)oxan-2-yl]oxy-3,4-bis(oxidanyl)oxane-2-carboxylic acid

>  <PUBCHEM_IUPAC_TRADITIONAL_NAME>
5-[4,5-dihydroxy-6-methylol-3-(3,4,5-trihydroxy-6-methylol-tetrahydropyran-2-yl)oxy-tetrahydropyran-2-yl]oxy-3,4-dihydroxy-6-[(9-hydroxy-4,6a,6b,8a,11,11,14b-heptamethyl-4-methylol-1,2,3,4a,5,6,7,8,9,10,12,12a,14,14a-tetradecahydropicen-3-yl)oxy]tetrahydropyran-2-carboxylic acid

>  <PUBCHEM_IUPAC_INCHI>
InChI=1S/C48H78O19/c1-43(2)16-22-21-8-9-26-45(4)12-11-28(46(5,20-51)25(45)10-13-48(26,7)47(21,6)15-14-44(22,3)27(52)17-43)64-42-38(34(58)33(57)36(65-42)39(60)61)67-41-37(32(56)30(54)24(19-50)63-41)66-40-35(59)31(55)29(53)23(18-49)62-40/h8,22-38,40-42,49-59H,9-20H2,1-7H3,(H,60,61)

>  <PUBCHEM_IUPAC_INCHIKEY>
WFRQIKSNAYYUJZ-UHFFFAOYSA-N

>  <PUBCHEM_XLOGP3_AA>
1.9

>  <PUBCHEM_EXACT_MASS>
958.514

>  <PUBCHEM_MOLECULAR_FORMULA>
C48H78O19

>  <PUBCHEM_MOLECULAR_WEIGHT>
959.133

>  <PUBCHEM_OPENEYE_CAN_SMILES>
CC1(CC2C3=CCC4C5(CCC(C(C5CCC4(C3(CCC2(C(C1)O)C)C)C)(C)CO)OC6C(C(C(C(O6)C(=O)O)O)O)OC7C(C(C(C(O7)CO)O)O)OC8C(C(C(C(O8)CO)O)O)O)C)C

>  <PUBCHEM_OPENEYE_ISO_SMILES>
CC1(CC2C3=CCC4C5(CCC(C(C5CCC4(C3(CCC2(C(C1)O)C)C)C)(C)CO)OC6C(C(C(C(O6)C(=O)O)O)O)OC7C(C(C(C(O7)CO)O)O)OC8C(C(C(C(O8)CO)O)O)O)C)C

>  <PUBCHEM_CACTVS_TPSA>
315

>  <PUBCHEM_MONOISOTOPIC_WEIGHT>
958.514

>  <PUBCHEM_TOTAL_CHARGE>
0

>  <PUBCHEM_HEAVY_ATOM_COUNT>
67

>  <PUBCHEM_ATOM_DEF_STEREO_COUNT>
0

>  <PUBCHEM_ATOM_UDEF_STEREO_COUNT>
25

>  <PUBCHEM_BOND_DEF_STEREO_COUNT>
0

>  <PUBCHEM_BOND_UDEF_STEREO_COUNT>
0

>  <PUBCHEM_ISOTOPIC_ATOM_COUNT>
0

>  <PUBCHEM_COMPONENT_COUNT>
1

>  <PUBCHEM_CACTVS_TAUTO_COUNT>
1

>  <PUBCHEM_COORDINATE_TYPE>
1
5
255

>  <PUBCHEM_BONDANNOTATIONS>
36  1  3
50  1  3
57  11  3
62  11  3
58  12  3
60  13  3
63  16  3
64  17  3
66  18  3
42  2  3
20  35  3
21  31  3
22  38  3
23  40  3
24  28  3
27  46  3
29  41  3
30  47  3
51  5  3
55  5  3
53  56  3
59  61  3
52  6  3
65  67  3
54  7  3

$$$$
