15601425
 OpenBabel06101807152D

 42 44  0  0  1  0  0  0  0  0999 V2000
    3.3021    2.6258    0.0000 O   0  0  0  0  0  0  0  0  0  0  0  0
    3.0616    0.4237    0.0000 O   0  0  0  0  0  0  0  0  0  0  0  0
    5.0446   -2.3714    0.0000 O   0  0  0  0  0  0  0  0  0  0  0  0
    3.8021    1.0869    0.0000 C   0  0  3  0  0  0  0  0  0  0  0  0
    4.6111    1.6747    0.0000 C   0  0  3  0  0  0  0  0  0  0  0  0
    2.9931    1.6747    0.0000 C   0  0  3  0  0  0  0  0  0  0  0  0
    3.8950    0.0494    0.0000 C   0  0  0  0  0  0  0  0  0  0  0  0
    4.8433   -0.3816    0.0000 C   0  0  3  0  0  0  0  0  0  0  0  0
    5.5691    1.2658    0.0000 C   0  0  0  0  0  0  0  0  0  0  0  0
    4.3021    2.6258    0.0000 C   0  0  0  0  0  0  0  0  0  0  0  0
    5.6860    0.2307    0.0000 C   0  0  0  0  0  0  0  0  0  0  0  0
    5.4201    2.2625    0.0000 C   0  0  0  0  0  0  0  0  0  0  0  0
    4.9440   -1.3765    0.0000 C   0  0  0  0  0  0  0  0  0  0  0  0
    2.0047    1.5682    0.0000 C   0  0  0  0  0  0  0  0  0  0  0  0
    2.1840    2.2625    0.0000 C   0  0  0  0  0  0  0  0  0  0  0  0
    2.0000    0.7586    0.0000 C   0  0  0  0  0  0  0  0  0  0  0  0
    5.9389   -1.2758    0.0000 C   0  0  0  0  0  0  0  0  0  0  0  0
    3.9490   -1.4772    0.0000 C   0  0  0  0  0  0  0  0  0  0  0  0
    3.2771    0.1006    0.0000 H   0  0  0  0  0  0  0  0  0  0  0  0
    3.7388   -0.5506    0.0000 H   0  0  0  0  0  0  0  0  0  0  0  0
    5.4092   -0.6348    0.0000 H   0  0  0  0  0  0  0  0  0  0  0  0
    6.1880    1.2289    0.0000 H   0  0  0  0  0  0  0  0  0  0  0  0
    5.7113    1.8692    0.0000 H   0  0  0  0  0  0  0  0  0  0  0  0
    4.9085    2.7547    0.0000 H   0  0  0  0  0  0  0  0  0  0  0  0
    4.2373    3.2424    0.0000 H   0  0  0  0  0  0  0  0  0  0  0  0
    5.9592   -0.3259    0.0000 H   0  0  0  0  0  0  0  0  0  0  0  0
    6.2810    0.4046    0.0000 H   0  0  0  0  0  0  0  0  0  0  0  0
    5.7845    1.7609    0.0000 H   0  0  0  0  0  0  0  0  0  0  0  0
    5.9217    2.6269    0.0000 H   0  0  0  0  0  0  0  0  0  0  0  0
    5.0557    2.7641    0.0000 H   0  0  0  0  0  0  0  0  0  0  0  0
    1.5446    1.9838    0.0000 H   0  0  0  0  0  0  0  0  0  0  0  0
    2.5485    2.7641    0.0000 H   0  0  0  0  0  0  0  0  0  0  0  0
    1.6824    2.6269    0.0000 H   0  0  0  0  0  0  0  0  0  0  0  0
    1.8196    1.7609    0.0000 H   0  0  0  0  0  0  0  0  0  0  0  0
    1.4989    0.3934    0.0000 H   0  0  0  0  0  0  0  0  0  0  0  0
    6.0013   -1.8926    0.0000 H   0  0  0  0  0  0  0  0  0  0  0  0
    6.5557   -1.2134    0.0000 H   0  0  0  0  0  0  0  0  0  0  0  0
    5.8764   -0.6589    0.0000 H   0  0  0  0  0  0  0  0  0  0  0  0
    3.8866   -0.8603    0.0000 H   0  0  0  0  0  0  0  0  0  0  0  0
    3.3322   -1.5396    0.0000 H   0  0  0  0  0  0  0  0  0  0  0  0
    4.0115   -2.0940    0.0000 H   0  0  0  0  0  0  0  0  0  0  0  0
    5.6101   -2.6258    0.0000 H   0  0  0  0  0  0  0  0  0  0  0  0
  1  6  1  0  0  0  0
  1 10  1  0  0  0  0
  2  4  1  0  0  0  0
  2 16  1  0  0  0  0
  3 13  1  0  0  0  0
  3 42  1  0  0  0  0
  4  5  1  0  0  0  0
  4  6  1  0  0  0  0
  4  7  1  0  0  0  0
  5  9  1  0  0  0  0
  5 10  1  0  0  0  0
  5 12  1  0  0  0  0
  6 14  1  0  0  0  0
  6 15  1  0  0  0  0
  7  8  1  0  0  0  0
  7 19  1  0  0  0  0
  7 20  1  0  0  0  0
  8 11  1  0  0  0  0
  8 13  1  0  0  0  0
  8 21  1  0  0  0  0
  9 11  1  0  0  0  0
  9 22  1  0  0  0  0
  9 23  1  0  0  0  0
 10 24  1  0  0  0  0
 10 25  1  0  0  0  0
 11 26  1  0  0  0  0
 11 27  1  0  0  0  0
 12 28  1  0  0  0  0
 12 29  1  0  0  0  0
 12 30  1  0  0  0  0
 13 17  1  0  0  0  0
 13 18  1  0  0  0  0
 14 16  2  0  0  0  0
 14 31  1  0  0  0  0
 15 32  1  0  0  0  0
 15 33  1  0  0  0  0
 15 34  1  0  0  0  0
 16 35  1  0  0  0  0
 17 36  1  0  0  0  0
 17 37  1  0  0  0  0
 17 38  1  0  0  0  0
 18 39  1  0  0  0  0
 18 40  1  0  0  0  0
 18 41  1  0  0  0  0
M  END
>  <PUBCHEM_COMPOUND_CID>
15601425

>  <PUBCHEM_COMPOUND_CANONICALIZED>
1

>  <PUBCHEM_CACTVS_COMPLEXITY>
403

>  <PUBCHEM_CACTVS_HBOND_ACCEPTOR>
3

>  <PUBCHEM_CACTVS_HBOND_DONOR>
1

>  <PUBCHEM_CACTVS_ROTATABLE_BOND>
1

>  <PUBCHEM_CACTVS_SUBSKEYS>
AAADceBwMAAAAAAAAAAAAAAAAAAAASIAAAAwAAAAAAAQAEgAAAAAGgAACAAAD0SggAICAAAABgCAACBCAAAACAAgIAAIAAAAAAgBBAIAIAACQAAFwAACIAHA4PwPgAAAAAAAAACAAAYAADAAAAAAAAAAAA==

>  <PUBCHEM_IUPAC_OPENEYE_NAME>
2-(3a,5a-dimethyl-6,7,8,9-tetrahydro-5H-furo[2,3-i]isobenzofuran-8-yl)propan-2-ol

>  <PUBCHEM_IUPAC_CAS_NAME>
2-(3a,5a-dimethyl-6,7,8,9-tetrahydro-5H-furo[2,3-i]isobenzofuran-8-yl)-2-propanol

>  <PUBCHEM_IUPAC_NAME>
2-(3a,5a-dimethyl-6,7,8,9-tetrahydro-5H-furo[2,3-i][2]benzofuran-8-yl)propan-2-ol

>  <PUBCHEM_IUPAC_SYSTEMATIC_NAME>
2-(3a,5a-dimethyl-6,7,8,9-tetrahydro-5H-furo[2,3-i][2]benzofuran-8-yl)propan-2-ol

>  <PUBCHEM_IUPAC_TRADITIONAL_NAME>
2-(3a,5a-dimethyl-6,7,8,9-tetrahydro-5H-fur[2,3-i]isobenzofuran-8-yl)propan-2-ol

>  <PUBCHEM_IUPAC_INCHI>
InChI=1S/C15H24O3/c1-12(2,16)11-5-6-13(3)10-18-14(4)7-8-17-15(13,14)9-11/h7-8,11,16H,5-6,9-10H2,1-4H3

>  <PUBCHEM_IUPAC_INCHIKEY>
ZOEXGOVAOFIZLY-UHFFFAOYSA-N

>  <PUBCHEM_XLOGP3_AA>
1.8

>  <PUBCHEM_EXACT_MASS>
252.173

>  <PUBCHEM_MOLECULAR_FORMULA>
C15H24O3

>  <PUBCHEM_MOLECULAR_WEIGHT>
252.354

>  <PUBCHEM_OPENEYE_CAN_SMILES>
CC12CCC(CC13C(C=CO3)(OC2)C)C(C)(C)O

>  <PUBCHEM_OPENEYE_ISO_SMILES>
CC12CCC(CC13C(C=CO3)(OC2)C)C(C)(C)O

>  <PUBCHEM_CACTVS_TPSA>
38.7

>  <PUBCHEM_MONOISOTOPIC_WEIGHT>
252.173

>  <PUBCHEM_TOTAL_CHARGE>
0

>  <PUBCHEM_HEAVY_ATOM_COUNT>
18

>  <PUBCHEM_ATOM_DEF_STEREO_COUNT>
0

>  <PUBCHEM_ATOM_UDEF_STEREO_COUNT>
4

>  <PUBCHEM_BOND_DEF_STEREO_COUNT>
0

>  <PUBCHEM_BOND_UDEF_STEREO_COUNT>
0

>  <PUBCHEM_ISOTOPIC_ATOM_COUNT>
0

>  <PUBCHEM_COMPONENT_COUNT>
1

>  <PUBCHEM_CACTVS_TAUTO_COUNT>
1

>  <PUBCHEM_COORDINATE_TYPE>
1
5
255

>  <PUBCHEM_BONDANNOTATIONS>
4  7  3
5  12  3
6  15  3
8  13  3

$$$$
