15624187
 OpenBabel06101807152D

 70 71  0  0  1  0  0  0  0  0999 V2000
    7.7331   -0.8450    0.0000 O   0  0  0  0  0  0  0  0  0  0  0  0
    6.0010    0.1550    0.0000 O   0  0  0  0  0  0  0  0  0  0  0  0
    9.4651   -0.8450    0.0000 O   0  0  0  0  0  0  0  0  0  0  0  0
    4.2690    0.1550    0.0000 O   0  0  0  0  0  0  0  0  0  0  0  0
    6.0010   -2.8450    0.0000 O   0  0  0  0  0  0  0  0  0  0  0  0
    7.7331   -3.8450    0.0000 O   0  0  0  0  0  0  0  0  0  0  0  0
    9.4651   -2.8450    0.0000 O   0  0  0  0  0  0  0  0  0  0  0  0
    6.0010    2.1550    0.0000 O   0  0  0  0  0  0  0  0  0  0  0  0
    4.2690    3.1550    0.0000 O   0  0  0  0  0  0  0  0  0  0  0  0
    2.5369    2.1550    0.0000 O   0  0  0  0  0  0  0  0  0  0  0  0
    6.8671   -1.3450    0.0000 C   0  0  3  0  0  0  0  0  0  0  0  0
    6.8671   -2.3450    0.0000 C   0  0  3  0  0  0  0  0  0  0  0  0
    7.7331   -2.8450    0.0000 C   0  0  3  0  0  0  0  0  0  0  0  0
    8.5991   -2.3450    0.0000 C   0  0  3  0  0  0  0  0  0  0  0  0
    8.5991   -1.3450    0.0000 C   0  0  3  0  0  0  0  0  0  0  0  0
    6.0010   -0.8450    0.0000 C   0  0  0  0  0  0  0  0  0  0  0  0
    5.1350    0.6550    0.0000 C   0  0  3  0  0  0  0  0  0  0  0  0
    5.1350    1.6550    0.0000 C   0  0  3  0  0  0  0  0  0  0  0  0
    4.2690    2.1550    0.0000 C   0  0  3  0  0  0  0  0  0  0  0  0
    3.4030    1.6550    0.0000 C   0  0  3  0  0  0  0  0  0  0  0  0
    3.4030    0.6550    0.0000 C   0  0  3  0  0  0  0  0  0  0  0  0
    9.4651    0.1550    0.0000 C   0  0  3  0  0  0  0  0  0  0  0  0
    9.4651    1.1550    0.0000 C   0  0  0  0  0  0  0  0  0  0  0  0
    2.5369    0.1550    0.0000 C   0  0  0  0  0  0  0  0  0  0  0  0
    8.4651    0.1550    0.0000 C   0  0  0  0  0  0  0  0  0  0  0  0
   10.4651    0.1550    0.0000 C   0  0  0  0  0  0  0  0  0  0  0  0
   10.3312    1.6550    0.0000 C   0  0  0  0  0  0  0  0  0  0  0  0
   10.3312    2.6550    0.0000 C   0  0  0  0  0  0  0  0  0  0  0  0
   10.9651   -0.7110    0.0000 C   0  0  0  0  0  0  0  0  0  0  0  0
   11.1972    3.1550    0.0000 C   0  0  0  0  0  0  0  0  0  0  0  0
   11.1972    4.1550    0.0000 C   0  0  0  0  0  0  0  0  0  0  0  0
   12.0632    2.6550    0.0000 C   0  0  0  0  0  0  0  0  0  0  0  0
    6.8671   -0.7250    0.0000 H   0  0  0  0  0  0  0  0  0  0  0  0
    6.8671   -2.9650    0.0000 H   0  0  0  0  0  0  0  0  0  0  0  0
    8.2700   -3.1550    0.0000 H   0  0  0  0  0  0  0  0  0  0  0  0
    9.1360   -2.0350    0.0000 H   0  0  0  0  0  0  0  0  0  0  0  0
    8.5991   -0.7250    0.0000 H   0  0  0  0  0  0  0  0  0  0  0  0
    5.6720    0.9650    0.0000 H   0  0  0  0  0  0  0  0  0  0  0  0
    5.3905   -0.7373    0.0000 H   0  0  0  0  0  0  0  0  0  0  0  0
    5.7890   -1.4276    0.0000 H   0  0  0  0  0  0  0  0  0  0  0  0
    5.1350    2.2750    0.0000 H   0  0  0  0  0  0  0  0  0  0  0  0
    3.7320    2.4650    0.0000 H   0  0  0  0  0  0  0  0  0  0  0  0
    3.9399    1.3450    0.0000 H   0  0  0  0  0  0  0  0  0  0  0  0
    3.4030    0.0350    0.0000 H   0  0  0  0  0  0  0  0  0  0  0  0
    9.2531    1.7376    0.0000 H   0  0  0  0  0  0  0  0  0  0  0  0
    8.8546    1.0473    0.0000 H   0  0  0  0  0  0  0  0  0  0  0  0
    2.2269    0.6919    0.0000 H   0  0  0  0  0  0  0  0  0  0  0  0
    2.0000   -0.1550    0.0000 H   0  0  0  0  0  0  0  0  0  0  0  0
    2.8469   -0.3819    0.0000 H   0  0  0  0  0  0  0  0  0  0  0  0
    5.4641   -2.5350    0.0000 H   0  0  0  0  0  0  0  0  0  0  0  0
    7.1962   -4.1550    0.0000 H   0  0  0  0  0  0  0  0  0  0  0  0
    9.4651   -3.4650    0.0000 H   0  0  0  0  0  0  0  0  0  0  0  0
    8.4651    0.7750    0.0000 H   0  0  0  0  0  0  0  0  0  0  0  0
    7.8451    0.1550    0.0000 H   0  0  0  0  0  0  0  0  0  0  0  0
    8.4651   -0.4650    0.0000 H   0  0  0  0  0  0  0  0  0  0  0  0
    6.0010    2.7750    0.0000 H   0  0  0  0  0  0  0  0  0  0  0  0
    3.7320    3.4650    0.0000 H   0  0  0  0  0  0  0  0  0  0  0  0
   10.7751    0.6919    0.0000 H   0  0  0  0  0  0  0  0  0  0  0  0
    2.0000    1.8450    0.0000 H   0  0  0  0  0  0  0  0  0  0  0  0
   10.5432    1.0724    0.0000 H   0  0  0  0  0  0  0  0  0  0  0  0
   10.9417    1.7627    0.0000 H   0  0  0  0  0  0  0  0  0  0  0  0
    9.7942    2.9650    0.0000 H   0  0  0  0  0  0  0  0  0  0  0  0
   10.6551   -1.2480    0.0000 H   0  0  0  0  0  0  0  0  0  0  0  0
   11.5851   -0.7110    0.0000 H   0  0  0  0  0  0  0  0  0  0  0  0
   11.7532    2.1181    0.0000 H   0  0  0  0  0  0  0  0  0  0  0  0
   12.6002    2.3450    0.0000 H   0  0  0  0  0  0  0  0  0  0  0  0
   12.3732    3.1919    0.0000 H   0  0  0  0  0  0  0  0  0  0  0  0
   11.8172    4.1550    0.0000 H   0  0  0  0  0  0  0  0  0  0  0  0
   11.1972    4.7750    0.0000 H   0  0  0  0  0  0  0  0  0  0  0  0
   10.5772    4.1550    0.0000 H   0  0  0  0  0  0  0  0  0  0  0  0
  1 11  1  0  0  0  0
  1 15  1  0  0  0  0
  2 16  1  0  0  0  0
  2 17  1  0  0  0  0
  3 15  1  0  0  0  0
  3 22  1  0  0  0  0
  4 17  1  0  0  0  0
  4 21  1  0  0  0  0
  5 12  1  0  0  0  0
  5 50  1  0  0  0  0
  6 13  1  0  0  0  0
  6 51  1  0  0  0  0
  7 14  1  0  0  0  0
  7 52  1  0  0  0  0
  8 18  1  0  0  0  0
  8 56  1  0  0  0  0
  9 19  1  0  0  0  0
  9 57  1  0  0  0  0
 10 20  1  0  0  0  0
 10 59  1  0  0  0  0
 11 12  1  0  0  0  0
 11 16  1  0  0  0  0
 11 33  1  0  0  0  0
 12 13  1  0  0  0  0
 12 34  1  0  0  0  0
 13 14  1  0  0  0  0
 13 35  1  0  0  0  0
 14 15  1  0  0  0  0
 14 36  1  0  0  0  0
 15 37  1  0  0  0  0
 16 39  1  0  0  0  0
 16 40  1  0  0  0  0
 17 18  1  0  0  0  0
 17 38  1  0  0  0  0
 18 19  1  0  0  0  0
 18 41  1  0  0  0  0
 19 20  1  0  0  0  0
 19 42  1  0  0  0  0
 20 21  1  0  0  0  0
 20 43  1  0  0  0  0
 21 24  1  0  0  0  0
 21 44  1  0  0  0  0
 22 23  1  0  0  0  0
 22 25  1  0  0  0  0
 22 26  1  0  0  0  0
 23 27  1  0  0  0  0
 23 45  1  0  0  0  0
 23 46  1  0  0  0  0
 24 47  1  0  0  0  0
 24 48  1  0  0  0  0
 24 49  1  0  0  0  0
 25 53  1  0  0  0  0
 25 54  1  0  0  0  0
 25 55  1  0  0  0  0
 26 29  2  0  0  0  0
 26 58  1  0  0  0  0
 27 28  1  0  0  0  0
 27 60  1  0  0  0  0
 27 61  1  0  0  0  0
 28 30  2  0  0  0  0
 28 62  1  0  0  0  0
 29 63  1  0  0  0  0
 29 64  1  0  0  0  0
 30 31  1  0  0  0  0
 30 32  1  0  0  0  0
 31 68  1  0  0  0  0
 31 69  1  0  0  0  0
 31 70  1  0  0  0  0
 32 65  1  0  0  0  0
 32 66  1  0  0  0  0
 32 67  1  0  0  0  0
M  END
>  <PUBCHEM_COMPOUND_CID>
15624187

>  <PUBCHEM_COMPOUND_CANONICALIZED>
1

>  <PUBCHEM_CACTVS_COMPLEXITY>
638

>  <PUBCHEM_CACTVS_HBOND_ACCEPTOR>
10

>  <PUBCHEM_CACTVS_HBOND_DONOR>
6

>  <PUBCHEM_CACTVS_ROTATABLE_BOND>
9

>  <PUBCHEM_CACTVS_SUBSKEYS>
AAADcfB4PAAAAAAAAAAAAAAAAAAAAAAAAAAkSAAAAAAAAAAAAAAAGgAACAAADFSwgAMCCAAABgCAAiBCAAAAAAAgAAAICAAAAAgRFAIAIQAiQAAFgAAPIAPAYAwMAAAAAAAAAAAAAAAAAAAAAAAAAAAAAA==

>  <PUBCHEM_IUPAC_OPENEYE_NAME>
2-[[6-(1,5-dimethyl-1-vinyl-hex-4-enoxy)-3,4,5-trihydroxy-tetrahydropyran-2-yl]methoxy]-6-methyl-tetrahydropyran-3,4,5-triol

>  <PUBCHEM_IUPAC_CAS_NAME>
2-[[6-(3,7-dimethylocta-1,6-dien-3-yloxy)-3,4,5-trihydroxy-2-oxanyl]methoxy]-6-methyloxane-3,4,5-triol

>  <PUBCHEM_IUPAC_NAME>
2-[[6-(3,7-dimethylocta-1,6-dien-3-yloxy)-3,4,5-trihydroxyoxan-2-yl]methoxy]-6-methyloxane-3,4,5-triol

>  <PUBCHEM_IUPAC_SYSTEMATIC_NAME>
2-[[6-(3,7-dimethylocta-1,6-dien-3-yloxy)-3,4,5-tris(oxidanyl)oxan-2-yl]methoxy]-6-methyl-oxane-3,4,5-triol

>  <PUBCHEM_IUPAC_TRADITIONAL_NAME>
2-[[6-(1,5-dimethyl-1-vinyl-hex-4-enoxy)-3,4,5-trihydroxy-tetrahydropyran-2-yl]methoxy]-6-methyl-tetrahydropyran-3,4,5-triol

>  <PUBCHEM_IUPAC_INCHI>
InChI=1S/C22H38O10/c1-6-22(5,9-7-8-11(2)3)32-21-19(28)17(26)15(24)13(31-21)10-29-20-18(27)16(25)14(23)12(4)30-20/h6,8,12-21,23-28H,1,7,9-10H2,2-5H3

>  <PUBCHEM_IUPAC_INCHIKEY>
SZTBSKBBYWJFEJ-UHFFFAOYSA-N

>  <PUBCHEM_XLOGP3_AA>
-0.5

>  <PUBCHEM_EXACT_MASS>
462.246

>  <PUBCHEM_MOLECULAR_FORMULA>
C22H38O10

>  <PUBCHEM_MOLECULAR_WEIGHT>
462.536

>  <PUBCHEM_OPENEYE_CAN_SMILES>
CC1C(C(C(C(O1)OCC2C(C(C(C(O2)OC(C)(CCC=C(C)C)C=C)O)O)O)O)O)O

>  <PUBCHEM_OPENEYE_ISO_SMILES>
CC1C(C(C(C(O1)OCC2C(C(C(C(O2)OC(C)(CCC=C(C)C)C=C)O)O)O)O)O)O

>  <PUBCHEM_CACTVS_TPSA>
158

>  <PUBCHEM_MONOISOTOPIC_WEIGHT>
462.246

>  <PUBCHEM_TOTAL_CHARGE>
0

>  <PUBCHEM_HEAVY_ATOM_COUNT>
32

>  <PUBCHEM_ATOM_DEF_STEREO_COUNT>
0

>  <PUBCHEM_ATOM_UDEF_STEREO_COUNT>
11

>  <PUBCHEM_BOND_DEF_STEREO_COUNT>
0

>  <PUBCHEM_BOND_UDEF_STEREO_COUNT>
0

>  <PUBCHEM_ISOTOPIC_ATOM_COUNT>
0

>  <PUBCHEM_COMPONENT_COUNT>
1

>  <PUBCHEM_CACTVS_TAUTO_COUNT>
1

>  <PUBCHEM_COORDINATE_TYPE>
1
5
255

>  <PUBCHEM_BONDANNOTATIONS>
20  10  3
11  16  3
17  2  3
21  24  3
22  25  3
15  3  3
12  5  3
13  6  3
14  7  3
18  8  3
19  9  3

$$$$
