15715950
 OpenBabel06101807152D

 25 25  0  0  0  0  0  0  0  0999 V2000
    6.3301   -0.9330    0.0000 O   0  0  0  0  0  0  0  0  0  0  0  0
    4.5981   -1.9330    0.0000 O   0  0  0  0  0  0  0  0  0  0  0  0
    2.0000    0.5670    0.0000 O   0  0  0  0  0  0  0  0  0  0  0  0
    4.5981    1.0670    0.0000 C   0  0  0  0  0  0  0  0  0  0  0  0
    3.7320    0.5670    0.0000 C   0  0  0  0  0  0  0  0  0  0  0  0
    5.4641    0.5670    0.0000 C   0  0  0  0  0  0  0  0  0  0  0  0
    5.0981    1.9330    0.0000 C   0  0  0  0  0  0  0  0  0  0  0  0
    4.0981    1.9330    0.0000 C   0  0  0  0  0  0  0  0  0  0  0  0
    3.7320   -0.4330    0.0000 C   0  0  0  0  0  0  0  0  0  0  0  0
    5.4641   -0.4330    0.0000 C   0  0  0  0  0  0  0  0  0  0  0  0
    4.5981   -0.9330    0.0000 C   0  0  0  0  0  0  0  0  0  0  0  0
    2.8660   -0.9330    0.0000 C   0  0  0  0  0  0  0  0  0  0  0  0
    2.8660    1.0670    0.0000 C   0  0  0  0  0  0  0  0  0  0  0  0
    6.0010    0.8770    0.0000 H   0  0  0  0  0  0  0  0  0  0  0  0
    4.6350    2.2430    0.0000 H   0  0  0  0  0  0  0  0  0  0  0  0
    3.7881    2.4700    0.0000 H   0  0  0  0  0  0  0  0  0  0  0  0
    3.5611    1.6230    0.0000 H   0  0  0  0  0  0  0  0  0  0  0  0
    5.6350    1.6230    0.0000 H   0  0  0  0  0  0  0  0  0  0  0  0
    5.4081    2.4700    0.0000 H   0  0  0  0  0  0  0  0  0  0  0  0
    4.5611    2.2430    0.0000 H   0  0  0  0  0  0  0  0  0  0  0  0
    2.5560   -0.3961    0.0000 H   0  0  0  0  0  0  0  0  0  0  0  0
    2.3291   -1.2430    0.0000 H   0  0  0  0  0  0  0  0  0  0  0  0
    3.1760   -1.4700    0.0000 H   0  0  0  0  0  0  0  0  0  0  0  0
    2.8660    1.6870    0.0000 H   0  0  0  0  0  0  0  0  0  0  0  0
    6.8671   -0.6230    0.0000 H   0  0  0  0  0  0  0  0  0  0  0  0
  1 10  1  0  0  0  0
  1 25  1  0  0  0  0
  2 11  2  0  0  0  0
  3 13  2  0  0  0  0
  4  5  1  0  0  0  0
  4  6  1  0  0  0  0
  4  7  1  0  0  0  0
  4  8  1  0  0  0  0
  5  9  2  0  0  0  0
  5 13  1  0  0  0  0
  6 10  2  0  0  0  0
  6 14  1  0  0  0  0
  7 18  1  0  0  0  0
  7 19  1  0  0  0  0
  7 20  1  0  0  0  0
  8 15  1  0  0  0  0
  8 16  1  0  0  0  0
  8 17  1  0  0  0  0
  9 11  1  0  0  0  0
  9 12  1  0  0  0  0
 10 11  1  0  0  0  0
 12 21  1  0  0  0  0
 12 22  1  0  0  0  0
 12 23  1  0  0  0  0
 13 24  1  0  0  0  0
M  END
>  <PUBCHEM_COMPOUND_CID>
15715950

>  <PUBCHEM_COMPOUND_CANONICALIZED>
1

>  <PUBCHEM_CACTVS_COMPLEXITY>
332

>  <PUBCHEM_CACTVS_HBOND_ACCEPTOR>
3

>  <PUBCHEM_CACTVS_HBOND_DONOR>
1

>  <PUBCHEM_CACTVS_ROTATABLE_BOND>
1

>  <PUBCHEM_CACTVS_SUBSKEYS>
AAADccBwMAAAAAAAAAAAAAAAAAAAAAAAAAAgAAAAAAAAAAAAAAAAGgAACAAADgSggAICAAAAAgCIAqhSgAIAAAAgIAAACAFAAEgAABAAAAAAQAAEwAAIAYIAAAAJAAAAAAAAAAAAAAAAAAAAAAAAAAAAAA==

>  <PUBCHEM_IUPAC_OPENEYE_NAME>
4-hydroxy-2,6,6-trimethyl-3-oxo-cyclohexa-1,4-diene-1-carbaldehyde

>  <PUBCHEM_IUPAC_CAS_NAME>
4-hydroxy-2,6,6-trimethyl-3-oxo-1-cyclohexa-1,4-dienecarboxaldehyde

>  <PUBCHEM_IUPAC_NAME>
4-hydroxy-2,6,6-trimethyl-3-oxocyclohexa-1,4-diene-1-carbaldehyde

>  <PUBCHEM_IUPAC_SYSTEMATIC_NAME>
2,6,6-trimethyl-4-oxidanyl-3-oxidanylidene-cyclohexa-1,4-diene-1-carbaldehyde

>  <PUBCHEM_IUPAC_TRADITIONAL_NAME>
4-hydroxy-3-keto-2,6,6-trimethyl-cyclohexa-1,4-diene-1-carbaldehyde

>  <PUBCHEM_IUPAC_INCHI>
InChI=1S/C10H12O3/c1-6-7(5-11)10(2,3)4-8(12)9(6)13/h4-5,12H,1-3H3

>  <PUBCHEM_IUPAC_INCHIKEY>
COUDKMJLVVETJL-UHFFFAOYSA-N

>  <PUBCHEM_XLOGP3_AA>
1.4

>  <PUBCHEM_EXACT_MASS>
180.079

>  <PUBCHEM_MOLECULAR_FORMULA>
C10H12O3

>  <PUBCHEM_MOLECULAR_WEIGHT>
180.203

>  <PUBCHEM_OPENEYE_CAN_SMILES>
CC1=C(C(C=C(C1=O)O)(C)C)C=O

>  <PUBCHEM_OPENEYE_ISO_SMILES>
CC1=C(C(C=C(C1=O)O)(C)C)C=O

>  <PUBCHEM_CACTVS_TPSA>
54.4

>  <PUBCHEM_MONOISOTOPIC_WEIGHT>
180.079

>  <PUBCHEM_TOTAL_CHARGE>
0

>  <PUBCHEM_HEAVY_ATOM_COUNT>
13

>  <PUBCHEM_ATOM_DEF_STEREO_COUNT>
0

>  <PUBCHEM_ATOM_UDEF_STEREO_COUNT>
0

>  <PUBCHEM_BOND_DEF_STEREO_COUNT>
0

>  <PUBCHEM_BOND_UDEF_STEREO_COUNT>
0

>  <PUBCHEM_ISOTOPIC_ATOM_COUNT>
0

>  <PUBCHEM_COMPONENT_COUNT>
1

>  <PUBCHEM_CACTVS_TAUTO_COUNT>
2

>  <PUBCHEM_COORDINATE_TYPE>
1
5
255

$$$$
