157241
 OpenBabel06101807152D

163171  0  0  1  0  0  0  0  0999 V2000
    6.8671   -5.1772    0.0000 O   0  0  0  0  0  0  0  0  0  0  0  0
    8.6424    4.1772    0.0000 O   0  0  0  0  0  0  0  0  0  0  0  0
    6.8270    5.2161    0.0000 O   0  0  0  0  0  0  0  0  0  0  0  0
    9.3112   -4.4856    0.0000 O   0  0  0  0  0  0  0  0  0  0  0  0
    5.1350   -5.1772    0.0000 O   0  0  0  0  0  0  0  0  0  0  0  0
    7.7764    5.6772    0.0000 O   0  0  0  0  0  0  0  0  0  0  0  0
    6.8671   -7.1772    0.0000 O   0  0  0  0  0  0  0  0  0  0  0  0
   10.3745    5.1772    0.0000 O   0  0  0  0  0  0  0  0  0  0  0  0
    5.1350   -8.1773    0.0000 O   0  0  0  0  0  0  0  0  0  0  0  0
   10.3745    7.1772    0.0000 O   0  0  0  0  0  0  0  0  0  0  0  0
    3.4030   -7.1772    0.0000 O   0  0  0  0  0  0  0  0  0  0  0  0
    8.6424    8.1773    0.0000 O   0  0  0  0  0  0  0  0  0  0  0  0
    6.0010   -8.6773    0.0000 O   0  0  0  0  0  0  0  0  0  0  0  0
    2.5369   -5.6772    0.0000 O   0  0  0  0  0  0  0  0  0  0  0  0
    3.4030   -4.1772    0.0000 O   0  0  0  0  0  0  0  0  0  0  0  0
    9.5085    8.6773    0.0000 O   0  0  0  0  0  0  0  0  0  0  0  0
    8.5991   -8.1773    0.0000 O   0  0  0  0  0  0  0  0  0  0  0  0
    8.5991  -10.1773    0.0000 O   0  0  0  0  0  0  0  0  0  0  0  0
   12.1066    8.1773    0.0000 O   0  0  0  0  0  0  0  0  0  0  0  0
    6.8671  -11.1773    0.0000 O   0  0  0  0  0  0  0  0  0  0  0  0
   12.1066   10.1773    0.0000 O   0  0  0  0  0  0  0  0  0  0  0  0
   10.3745   11.1773    0.0000 O   0  0  0  0  0  0  0  0  0  0  0  0
    5.1350  -11.1773    0.0000 O   0  0  0  0  0  0  0  0  0  0  0  0
    8.6424   11.1773    0.0000 O   0  0  0  0  0  0  0  0  0  0  0  0
    7.7681   -0.4770    0.0000 C   0  0  2  0  0  0  0  0  0  0  0  0
    6.9040   -0.9804    0.0000 C   0  0  3  0  0  0  0  0  0  0  0  0
    6.8920   -2.0219    0.0000 C   0  0  2  0  0  0  0  0  0  0  0  0
    7.7643    0.5230    0.0000 C   0  0  1  0  0  0  0  0  0  0  0  0
    7.7920   -2.5462    0.0000 C   0  0  3  0  0  0  0  0  0  0  0  0
    8.6801   -0.9804    0.0000 C   0  0  0  0  0  0  0  0  0  0  0  0
    6.8963    1.0196    0.0000 C   0  0  0  0  0  0  0  0  0  0  0  0
    6.8762    2.0611    0.0000 C   0  0  2  0  0  0  0  0  0  0  0  0
    8.6921   -2.0219    0.0000 C   0  0  0  0  0  0  0  0  0  0  0  0
    7.8046   -3.6311    0.0000 C   0  0  3  0  0  0  0  0  0  0  0  0
    7.7722    2.5923    0.0000 C   0  0  1  0  0  0  0  0  0  0  0  0
    8.6723    1.0333    0.0000 C   0  0  0  0  0  0  0  0  0  0  0  0
    6.0361   -0.4837    0.0000 C   0  0  0  0  0  0  0  0  0  0  0  0
    5.9421   -2.5462    0.0000 C   0  0  0  0  0  0  0  0  0  0  0  0
    8.6763    2.0749    0.0000 C   0  0  0  0  0  0  0  0  0  0  0  0
    8.7522   -0.2996    0.0000 C   0  0  0  0  0  0  0  0  0  0  0  0
    6.8671   -4.1772    0.0000 C   0  0  3  0  0  0  0  0  0  0  0  0
    6.0322    0.5163    0.0000 C   0  0  0  0  0  0  0  0  0  0  0  0
    6.0279   -1.5186    0.0000 C   0  0  0  0  0  0  0  0  0  0  0  0
    5.9295   -3.6311    0.0000 C   0  0  0  0  0  0  0  0  0  0  0  0
    8.7497    0.3531    0.0000 C   0  0  0  0  0  0  0  0  0  0  0  0
    5.9223    2.5780    0.0000 C   0  0  0  0  0  0  0  0  0  0  0  0
    7.7764    3.6772    0.0000 C   0  0  2  0  0  0  0  0  0  0  0  0
    5.9014    3.6628    0.0000 C   0  0  0  0  0  0  0  0  0  0  0  0
    6.8347    4.2161    0.0000 C   0  0  2  0  0  0  0  0  0  0  0  0
    8.8046   -3.6234    0.0000 C   0  0  0  0  0  0  0  0  0  0  0  0
    8.3113   -4.4933    0.0000 C   0  0  0  0  0  0  0  0  0  0  0  0
    8.6324    3.1022    0.0000 C   0  0  0  0  0  0  0  0  0  0  0  0
    4.9015    3.6474    0.0000 C   0  0  0  0  0  0  0  0  0  0  0  0
    5.3881    4.5210    0.0000 C   0  0  0  0  0  0  0  0  0  0  0  0
    6.0010   -5.6772    0.0000 C   0  0  2  0  0  0  0  0  0  0  0  0
    8.6424    5.1772    0.0000 C   0  0  2  0  0  0  0  0  0  0  0  0
    6.0010   -6.6772    0.0000 C   0  0  1  0  0  0  0  0  0  0  0  0
    9.5085    5.6772    0.0000 C   0  0  1  0  0  0  0  0  0  0  0  0
    5.1350   -7.1772    0.0000 C   0  0  2  0  0  0  0  0  0  0  0  0
    9.5085    6.6772    0.0000 C   0  0  2  0  0  0  0  0  0  0  0  0
    4.2690   -5.6772    0.0000 C   0  0  1  0  0  0  0  0  0  0  0  0
    4.2690   -6.6772    0.0000 C   0  0  2  0  0  0  0  0  0  0  0  0
    7.7764    6.6772    0.0000 C   0  0  0  0  0  0  0  0  0  0  0  0
    8.6424    7.1772    0.0000 C   0  0  2  0  0  0  0  0  0  0  0  0
    6.8671   -8.1773    0.0000 C   0  0  2  0  0  0  0  0  0  0  0  0
    3.4030   -5.1772    0.0000 C   0  0  0  0  0  0  0  0  0  0  0  0
    7.7331   -8.6773    0.0000 C   0  0  1  0  0  0  0  0  0  0  0  0
   10.3745    8.1773    0.0000 C   0  0  1  0  0  0  0  0  0  0  0  0
    7.7331   -9.6773    0.0000 C   0  0  2  0  0  0  0  0  0  0  0  0
   11.2405    8.6773    0.0000 C   0  0  1  0  0  0  0  0  0  0  0  0
    6.0010   -9.6773    0.0000 C   0  0  1  0  0  0  0  0  0  0  0  0
    6.8671  -10.1773    0.0000 C   0  0  2  0  0  0  0  0  0  0  0  0
   11.2405    9.6773    0.0000 C   0  0  2  0  0  0  0  0  0  0  0  0
    9.5085    9.6773    0.0000 C   0  0  1  0  0  0  0  0  0  0  0  0
   10.3745   10.1773    0.0000 C   0  0  1  0  0  0  0  0  0  0  0  0
    5.1350  -10.1773    0.0000 C   0  0  0  0  0  0  0  0  0  0  0  0
    8.6424   10.1773    0.0000 C   0  0  0  0  0  0  0  0  0  0  0  0
    7.6385   -1.4082    0.0000 H   0  0  0  0  0  0  0  0  0  0  0  0
    8.5314   -2.9655    0.0000 H   0  0  0  0  0  0  0  0  0  0  0  0
    9.2921   -1.0794    0.0000 H   0  0  0  0  0  0  0  0  0  0  0  0
    8.8824   -0.3943    0.0000 H   0  0  0  0  0  0  0  0  0  0  0  0
    6.1502    1.6192    0.0000 H   0  0  0  0  0  0  0  0  0  0  0  0
    8.9079   -2.6032    0.0000 H   0  0  0  0  0  0  0  0  0  0  0  0
    9.3017   -1.9088    0.0000 H   0  0  0  0  0  0  0  0  0  0  0  0
    8.8791    0.4488    0.0000 H   0  0  0  0  0  0  0  0  0  0  0  0
    9.2836    1.1370    0.0000 H   0  0  0  0  0  0  0  0  0  0  0  0
    5.4251   -0.3784    0.0000 H   0  0  0  0  0  0  0  0  0  0  0  0
    5.8263   -1.0671    0.0000 H   0  0  0  0  0  0  0  0  0  0  0  0
    5.7398   -1.9602    0.0000 H   0  0  0  0  0  0  0  0  0  0  0  0
    5.3300   -2.6452    0.0000 H   0  0  0  0  0  0  0  0  0  0  0  0
    9.2868    1.9665    0.0000 H   0  0  0  0  0  0  0  0  0  0  0  0
    8.8876    2.6578    0.0000 H   0  0  0  0  0  0  0  0  0  0  0  0
    8.8623   -0.9098    0.0000 H   0  0  0  0  0  0  0  0  0  0  0  0
    9.3624   -0.1896    0.0000 H   0  0  0  0  0  0  0  0  0  0  0  0
    8.6422    0.3106    0.0000 H   0  0  0  0  0  0  0  0  0  0  0  0
    7.6040   -4.6008    0.0000 H   0  0  0  0  0  0  0  0  0  0  0  0
    5.4941    0.8242    0.0000 H   0  0  0  0  0  0  0  0  0  0  0  0
    6.3400   -0.9829    0.0000 H   0  0  0  0  0  0  0  0  0  0  0  0
    5.4922   -1.2065    0.0000 H   0  0  0  0  0  0  0  0  0  0  0  0
    5.7158   -2.0543    0.0000 H   0  0  0  0  0  0  0  0  0  0  0  0
    5.3199   -3.5180    0.0000 H   0  0  0  0  0  0  0  0  0  0  0  0
    5.7137   -4.2124    0.0000 H   0  0  0  0  0  0  0  0  0  0  0  0
    8.6444   -0.2579    0.0000 H   0  0  0  0  0  0  0  0  0  0  0  0
    9.3607    0.2478    0.0000 H   0  0  0  0  0  0  0  0  0  0  0  0
    8.8550    0.9641    0.0000 H   0  0  0  0  0  0  0  0  0  0  0  0
    5.3095    2.6723    0.0000 H   0  0  0  0  0  0  0  0  0  0  0  0
    5.7246    1.9904    0.0000 H   0  0  0  0  0  0  0  0  0  0  0  0
    7.7752    4.2972    0.0000 H   0  0  0  0  0  0  0  0  0  0  0  0
    6.2948    4.5209    0.0000 H   0  0  0  0  0  0  0  0  0  0  0  0
    9.3855   -3.4069    0.0000 H   0  0  0  0  0  0  0  0  0  0  0  0
    8.6922   -3.0137    0.0000 H   0  0  0  0  0  0  0  0  0  0  0  0
    7.7767   -4.8074    0.0000 H   0  0  0  0  0  0  0  0  0  0  0  0
    8.6254   -5.0278    0.0000 H   0  0  0  0  0  0  0  0  0  0  0  0
    8.8458   -4.1792    0.0000 H   0  0  0  0  0  0  0  0  0  0  0  0
    8.9486    2.5689    0.0000 H   0  0  0  0  0  0  0  0  0  0  0  0
    9.1657    3.4184    0.0000 H   0  0  0  0  0  0  0  0  0  0  0  0
    8.3162    3.6356    0.0000 H   0  0  0  0  0  0  0  0  0  0  0  0
    5.9202    4.8392    0.0000 H   0  0  0  0  0  0  0  0  0  0  0  0
    5.0699    5.0531    0.0000 H   0  0  0  0  0  0  0  0  0  0  0  0
    4.8920    4.2673    0.0000 H   0  0  0  0  0  0  0  0  0  0  0  0
    4.2816    3.6378    0.0000 H   0  0  0  0  0  0  0  0  0  0  0  0
    4.9111    3.0275    0.0000 H   0  0  0  0  0  0  0  0  0  0  0  0
    4.8560    4.2028    0.0000 H   0  0  0  0  0  0  0  0  0  0  0  0
    6.2877    5.5220    0.0000 H   0  0  0  0  0  0  0  0  0  0  0  0
    6.0010   -5.0572    0.0000 H   0  0  0  0  0  0  0  0  0  0  0  0
    9.9312   -4.4808    0.0000 H   0  0  0  0  0  0  0  0  0  0  0  0
    8.1055    4.8672    0.0000 H   0  0  0  0  0  0  0  0  0  0  0  0
    6.0010   -7.2972    0.0000 H   0  0  0  0  0  0  0  0  0  0  0  0
   10.0454    5.9873    0.0000 H   0  0  0  0  0  0  0  0  0  0  0  0
    4.5981   -7.4872    0.0000 H   0  0  0  0  0  0  0  0  0  0  0  0
    9.5085    7.2972    0.0000 H   0  0  0  0  0  0  0  0  0  0  0  0
    4.2690   -5.0572    0.0000 H   0  0  0  0  0  0  0  0  0  0  0  0
    3.7320   -6.3672    0.0000 H   0  0  0  0  0  0  0  0  0  0  0  0
    7.5644    7.2599    0.0000 H   0  0  0  0  0  0  0  0  0  0  0  0
    7.1658    6.5696    0.0000 H   0  0  0  0  0  0  0  0  0  0  0  0
    8.1055    7.4872    0.0000 H   0  0  0  0  0  0  0  0  0  0  0  0
   10.9114    5.4873    0.0000 H   0  0  0  0  0  0  0  0  0  0  0  0
    7.4040   -7.8672    0.0000 H   0  0  0  0  0  0  0  0  0  0  0  0
    4.5981   -8.4872    0.0000 H   0  0  0  0  0  0  0  0  0  0  0  0
    3.4030   -7.7972    0.0000 H   0  0  0  0  0  0  0  0  0  0  0  0
    8.1055    8.4872    0.0000 H   0  0  0  0  0  0  0  0  0  0  0  0
    8.2700   -8.9872    0.0000 H   0  0  0  0  0  0  0  0  0  0  0  0
    9.8376    7.8672    0.0000 H   0  0  0  0  0  0  0  0  0  0  0  0
    7.7331  -10.2973    0.0000 H   0  0  0  0  0  0  0  0  0  0  0  0
   11.7775    8.9872    0.0000 H   0  0  0  0  0  0  0  0  0  0  0  0
    5.4641   -9.3672    0.0000 H   0  0  0  0  0  0  0  0  0  0  0  0
    2.0000   -5.3672    0.0000 H   0  0  0  0  0  0  0  0  0  0  0  0
    6.3301  -10.4873    0.0000 H   0  0  0  0  0  0  0  0  0  0  0  0
   11.2405   10.2973    0.0000 H   0  0  0  0  0  0  0  0  0  0  0  0
    9.1360   -8.4872    0.0000 H   0  0  0  0  0  0  0  0  0  0  0  0
    8.9715    9.3672    0.0000 H   0  0  0  0  0  0  0  0  0  0  0  0
    9.8376   10.4873    0.0000 H   0  0  0  0  0  0  0  0  0  0  0  0
    4.9230   -9.5946    0.0000 H   0  0  0  0  0  0  0  0  0  0  0  0
    4.5244  -10.2849    0.0000 H   0  0  0  0  0  0  0  0  0  0  0  0
    8.5991  -10.7973    0.0000 H   0  0  0  0  0  0  0  0  0  0  0  0
   12.6435    8.4872    0.0000 H   0  0  0  0  0  0  0  0  0  0  0  0
    7.4040  -11.4873    0.0000 H   0  0  0  0  0  0  0  0  0  0  0  0
    8.0319   10.2849    0.0000 H   0  0  0  0  0  0  0  0  0  0  0  0
    8.4304    9.5946    0.0000 H   0  0  0  0  0  0  0  0  0  0  0  0
   12.1066   10.7973    0.0000 H   0  0  0  0  0  0  0  0  0  0  0  0
   10.9114   11.4873    0.0000 H   0  0  0  0  0  0  0  0  0  0  0  0
    4.5981  -11.4873    0.0000 H   0  0  0  0  0  0  0  0  0  0  0  0
    8.1055   11.4873    0.0000 H   0  0  0  0  0  0  0  0  0  0  0  0
  1 41  1  0  0  0  0
  3124  1  0  0  0  0
  4 50  1  0  0  0  0
  4126  1  0  0  0  0
  5 55  1  0  0  0  0
  5 61  1  0  0  0  0
  6 56  1  0  0  0  0
  6 63  1  0  0  0  0
  8137  1  0  0  0  0
  9139  1  0  0  0  0
 11140  1  0  0  0  0
 12141  1  0  0  0  0
 13 65  1  0  0  0  0
 13 71  1  0  0  0  0
 14 66  1  0  0  0  0
 14147  1  0  0  0  0
 15 66  2  0  0  0  0
 16 68  1  0  0  0  0
 16 74  1  0  0  0  0
 17150  1  0  0  0  0
 18155  1  0  0  0  0
 19156  1  0  0  0  0
 20157  1  0  0  0  0
 21160  1  0  0  0  0
 22161  1  0  0  0  0
 23 76  1  0  0  0  0
 23162  1  0  0  0  0
 24 77  1  0  0  0  0
 24163  1  0  0  0  0
 25 26  1  1  0  0  0
 25 30  1  0  0  0  0
 25 40  1  0  0  0  0
 26 37  1  0  0  0  0
 26 78  1  0  0  0  0
 27 26  1  6  0  0  0
 27 29  1  0  0  0  0
 27 38  1  0  0  0  0
 27 43  1  0  0  0  0
 28 25  1  1  0  0  0
 28 31  1  0  0  0  0
 28 36  1  0  0  0  0
 28 45  1  0  0  0  0
 29 33  1  0  0  0  0
 29 34  1  0  0  0  0
 29 79  1  0  0  0  0
 30 33  1  0  0  0  0
 30 80  1  0  0  0  0
 30 81  1  0  0  0  0
 31 32  1  0  0  0  0
 31 42  2  0  0  0  0
 32 35  1  6  0  0  0
 32 46  1  0  0  0  0
 32 82  1  0  0  0  0
 33 83  1  0  0  0  0
 33 84  1  0  0  0  0
 34 41  1  0  0  0  0
 34 50  1  0  0  0  0
 34 51  1  0  0  0  0
 35 39  1  0  0  0  0
 35 47  1  6  0  0  0
 35 52  1  0  0  0  0
 36 39  1  0  0  0  0
 36 85  1  0  0  0  0
 36 86  1  0  0  0  0
 37 42  1  0  0  0  0
 37 87  1  0  0  0  0
 37 88  1  0  0  0  0
 38 44  1  0  0  0  0
 38 89  1  0  0  0  0
 38 90  1  0  0  0  0
 39 91  1  0  0  0  0
 39 92  1  0  0  0  0
 40 93  1  0  0  0  0
 40 94  1  0  0  0  0
 40 95  1  0  0  0  0
 41 44  1  0  0  0  0
 41 96  1  0  0  0  0
 42 97  1  0  0  0  0
 43 98  1  0  0  0  0
 43 99  1  0  0  0  0
 43100  1  0  0  0  0
 44101  1  0  0  0  0
 44102  1  0  0  0  0
 45103  1  0  0  0  0
 45104  1  0  0  0  0
 45105  1  0  0  0  0
 46 48  1  0  0  0  0
 46106  1  0  0  0  0
 46107  1  0  0  0  0
 47  2  1  0  0  0  0
 47 49  1  6  0  0  0
 47108  1  0  0  0  0
 48 49  1  0  0  0  0
 48 53  1  0  0  0  0
 48 54  1  0  0  0  0
 49  3  1  0  0  0  0
 49109  1  1  0  0  0
 50110  1  0  0  0  0
 50111  1  0  0  0  0
 51112  1  0  0  0  0
 51113  1  0  0  0  0
 51114  1  0  0  0  0
 52115  1  0  0  0  0
 52116  1  0  0  0  0
 52117  1  0  0  0  0
 53120  1  0  0  0  0
 53121  1  0  0  0  0
 53122  1  0  0  0  0
 54118  1  0  0  0  0
 54119  1  0  0  0  0
 54123  1  0  0  0  0
 55  1  1  0  0  0  0
 55 57  1  6  0  0  0
 55125  1  0  0  0  0
 56  2  1  0  0  0  0
 56 58  1  1  0  0  0
 56127  1  0  0  0  0
 57  7  1  0  0  0  0
 57 59  1  6  0  0  0
 57128  1  0  0  0  0
 58  8  1  0  0  0  0
 58 60  1  1  0  0  0
 58129  1  0  0  0  0
 59  9  1  0  0  0  0
 59 62  1  1  0  0  0
 59130  1  0  0  0  0
 60 10  1  0  0  0  0
 60 64  1  6  0  0  0
 60131  1  0  0  0  0
 61 62  1  6  0  0  0
 61 66  1  0  0  0  0
 61132  1  0  0  0  0
 62 11  1  0  0  0  0
 62133  1  6  0  0  0
 63 64  1  0  0  0  0
 63134  1  0  0  0  0
 63135  1  0  0  0  0
 64 12  1  0  0  0  0
 64136  1  1  0  0  0
 65  7  1  0  0  0  0
 65 67  1  1  0  0  0
 65138  1  0  0  0  0
 67 17  1  0  0  0  0
 67 69  1  6  0  0  0
 67142  1  0  0  0  0
 68 10  1  0  0  0  0
 68 70  1  6  0  0  0
 68143  1  0  0  0  0
 69 18  1  0  0  0  0
 69 72  1  1  0  0  0
 69144  1  0  0  0  0
 70 19  1  0  0  0  0
 70 73  1  1  0  0  0
 70145  1  0  0  0  0
 71 72  1  6  0  0  0
 71 76  1  0  0  0  0
 71146  1  0  0  0  0
 72 20  1  0  0  0  0
 72148  1  6  0  0  0
 73 21  1  0  0  0  0
 73 75  1  6  0  0  0
 73149  1  0  0  0  0
 74 75  1  1  0  0  0
 74 77  1  0  0  0  0
 74151  1  0  0  0  0
 75 22  1  0  0  0  0
 75152  1  6  0  0  0
 76153  1  0  0  0  0
 76154  1  0  0  0  0
 77158  1  0  0  0  0
 77159  1  0  0  0  0
M  END
>  <PUBCHEM_COMPOUND_CID>
157241

>  <PUBCHEM_COMPOUND_CANONICALIZED>
1

>  <PUBCHEM_CACTVS_COMPLEXITY>
2140

>  <PUBCHEM_CACTVS_HBOND_ACCEPTOR>
24

>  <PUBCHEM_CACTVS_HBOND_DONOR>
15

>  <PUBCHEM_CACTVS_ROTATABLE_BOND>
12

>  <PUBCHEM_CACTVS_SUBSKEYS>
AAADcfB8PgAAAAAAAAAAAAAAAAAAAAAAAAA0aNGiAAAAAADAAAAAGgAACAAADxSwgAMCCAAABgCIAiDSCAIAAAAgAAAACAFAAAgREBYAAQQiQAAFoAAPAAPK7PxPgAAAAAAAAADAAAYAADCAAAAAAAAAAA==

>  <PUBCHEM_IUPAC_OPENEYE_NAME>
(2S,3R,4S,5R,6R)-6-[[(6aR,6bS,8aR,9R,10S,12aR,14bR)-9-[(2S,3R,4S,5S)-3,5-dihydroxy-4-[(2R,3R,4S,5S,6R)-3,4,5-trihydroxy-6-(hydroxymethyl)tetrahydropyran-2-yl]oxy-tetrahydropyran-2-yl]oxy-10-hydroxy-4-(hydroxymethyl)-4,6a,6b,8a,11,11,14b-heptamethyl-1,2,3,4a,5,6,7,8,9,10,12,12a,14,14a-tetradecahydropicen-3-yl]oxy]-3,4-dihydroxy-5-[(2S,3R,4S,5R,6R)-3,4,5-trihydroxy-6-(hydroxymethyl)tetrahydropyran-2-yl]oxy-tetrahydropyran-2-carboxylic acid

>  <PUBCHEM_IUPAC_CAS_NAME>
(2S,3R,4S,5R,6R)-6-[[(6aR,6bS,8aR,9R,10S,12aR,14bR)-9-[[(2S,3R,4S,5S)-3,5-dihydroxy-4-[[(2R,3R,4S,5S,6R)-3,4,5-trihydroxy-6-(hydroxymethyl)-2-oxanyl]oxy]-2-oxanyl]oxy]-10-hydroxy-4-(hydroxymethyl)-4,6a,6b,8a,11,11,14b-heptamethyl-1,2,3,4a,5,6,7,8,9,10,12,12a,14,14a-tetradecahydropicen-3-yl]oxy]-3,4-dihydroxy-5-[[(2S,3R,4S,5R,6R)-3,4,5-trihydroxy-6-(hydroxymethyl)-2-oxanyl]oxy]-2-oxanecarboxylic acid

>  <PUBCHEM_IUPAC_NAME>
(2S,3R,4S,5R,6R)-6-[[(6aR,6bS,8aR,9R,10S,12aR,14bR)-9-[(2S,3R,4S,5S)-3,5-dihydroxy-4-[(2R,3R,4S,5S,6R)-3,4,5-trihydroxy-6-(hydroxymethyl)oxan-2-yl]oxyoxan-2-yl]oxy-10-hydroxy-4-(hydroxymethyl)-4,6a,6b,8a,11,11,14b-heptamethyl-1,2,3,4a,5,6,7,8,9,10,12,12a,14,14a-tetradecahydropicen-3-yl]oxy]-3,4-dihydroxy-5-[(2S,3R,4S,5R,6R)-3,4,5-trihydroxy-6-(hydroxymethyl)oxan-2-yl]oxyoxane-2-carboxylic acid

>  <PUBCHEM_IUPAC_SYSTEMATIC_NAME>
(2S,3R,4S,5R,6R)-6-[[(6aR,6bS,8aR,9R,10S,12aR,14bR)-4-(hydroxymethyl)-9-[(2S,3R,4S,5S)-4-[(2R,3R,4S,5S,6R)-6-(hydroxymethyl)-3,4,5-tris(oxidanyl)oxan-2-yl]oxy-3,5-bis(oxidanyl)oxan-2-yl]oxy-4,6a,6b,8a,11,11,14b-heptamethyl-10-oxidanyl-1,2,3,4a,5,6,7,8,9,10,12,12a,14,14a-tetradecahydropicen-3-yl]oxy]-5-[(2S,3R,4S,5R,6R)-6-(hydroxymethyl)-3,4,5-tris(oxidanyl)oxan-2-yl]oxy-3,4-bis(oxidanyl)oxane-2-carboxylic acid

>  <PUBCHEM_IUPAC_TRADITIONAL_NAME>
(2S,3R,4S,5R,6R)-6-[[(6aR,6bS,8aR,9R,10S,12aR,14bR)-9-[(2S,3R,4S,5S)-3,5-dihydroxy-4-[(2R,3R,4S,5S,6R)-3,4,5-trihydroxy-6-methylol-tetrahydropyran-2-yl]oxy-tetrahydropyran-2-yl]oxy-10-hydroxy-4,6a,6b,8a,11,11,14b-heptamethyl-4-methylol-1,2,3,4a,5,6,7,8,9,10,12,12a,14,14a-tetradecahydropicen-3-yl]oxy]-3,4-dihydroxy-5-[(2S,3R,4S,5R,6R)-3,4,5-trihydroxy-6-methylol-tetrahydropyran-2-yl]oxy-tetrahydropyran-2-carboxylic acid

>  <PUBCHEM_IUPAC_INCHI>
InChI=1S/C53H86O24/c1-48(2)16-22-21-8-9-27-50(4)12-11-28(73-47-40(34(63)33(62)39(75-47)43(68)69)76-46-36(65)32(61)30(59)25(18-55)72-46)51(5,20-56)26(50)10-13-53(27,7)52(21,6)15-14-49(22,3)42(41(48)67)77-44-37(66)38(23(57)19-70-44)74-45-35(64)31(60)29(58)24(17-54)71-45/h8,22-42,44-47,54-67H,9-20H2,1-7H3,(H,68,69)/t22-,23+,24-,25-,26?,27?,28?,29-,30+,31+,32+,33-,34+,35-,36-,37-,38+,39+,40-,41-,42+,44+,45-,46+,47-,49-,50+,51?,52-,53-/m1/s1

>  <PUBCHEM_IUPAC_INCHIKEY>
QSWYVJWAKZGGIL-ISQBHCSUSA-N

>  <PUBCHEM_XLOGP3_AA>
-0.8

>  <PUBCHEM_EXACT_MASS>
1106.551

>  <PUBCHEM_MOLECULAR_FORMULA>
C53H86O24

>  <PUBCHEM_MOLECULAR_WEIGHT>
1107.247

>  <PUBCHEM_OPENEYE_CAN_SMILES>
CC1(CC2C3=CCC4C5(CCC(C(C5CCC4(C3(CCC2(C(C1O)OC6C(C(C(CO6)O)OC7C(C(C(C(O7)CO)O)O)O)O)C)C)C)(C)CO)OC8C(C(C(C(O8)C(=O)O)O)O)OC9C(C(C(C(O9)CO)O)O)O)C)C

>  <PUBCHEM_OPENEYE_ISO_SMILES>
C[C@@]12CC[C@@]3(C(=CCC4[C@]3(CCC5[C@@]4(CCC(C5(C)CO)O[C@H]6[C@@H]([C@H]([C@H]([C@H](O6)C(=O)O)O)O)O[C@H]7[C@@H]([C@H]([C@H]([C@H](O7)CO)O)O)O)C)C)[C@H]1CC([C@@H]([C@@H]2O[C@H]8[C@@H]([C@H]([C@H](CO8)O)O[C@@H]9[C@@H]([C@H]([C@@H]([C@H](O9)CO)O)O)O)O)O)(C)C)C

>  <PUBCHEM_CACTVS_TPSA>
394

>  <PUBCHEM_MONOISOTOPIC_WEIGHT>
1106.551

>  <PUBCHEM_TOTAL_CHARGE>
0

>  <PUBCHEM_HEAVY_ATOM_COUNT>
77

>  <PUBCHEM_ATOM_DEF_STEREO_COUNT>
26

>  <PUBCHEM_ATOM_UDEF_STEREO_COUNT>
4

>  <PUBCHEM_BOND_DEF_STEREO_COUNT>
0

>  <PUBCHEM_BOND_UDEF_STEREO_COUNT>
0

>  <PUBCHEM_ISOTOPIC_ATOM_COUNT>
0

>  <PUBCHEM_COMPONENT_COUNT>
1

>  <PUBCHEM_CACTVS_TAUTO_COUNT>
1

>  <PUBCHEM_COORDINATE_TYPE>
1
5
255

>  <PUBCHEM_BONDANNOTATIONS>
55  1  5
60  10  6
68  10  5
62  11  5
64  12  6
67  17  6
69  18  5
70  19  5
47  2  6
56  2  6
72  20  5
73  21  6
75  22  5
25  40  5
26  78  3
27  43  5
28  45  6
29  79  3
49  3  6
32  82  6
34  50  3
35  52  5
41  96  3
61  66  5
57  7  6
65  7  5
71  76  5
74  77  6
58  8  5
59  9  5

$$$$
