15742117
 OpenBabel06101807152D

 45 46  0  0  0  0  0  0  0  0999 V2000
    4.2690   -3.9050    0.0000 O   0  0  0  0  0  0  0  0  0  0  0  0
    2.5369   -0.9050    0.0000 O   0  0  0  0  0  0  0  0  0  0  0  0
    3.4030    0.5950    0.0000 O   0  0  0  0  0  0  0  0  0  0  0  0
    4.2690    2.0950    0.0000 O   0  0  0  0  0  0  0  0  0  0  0  0
    8.5991    3.5950    0.0000 O   0  0  0  0  0  0  0  0  0  0  0  0
    5.1350   -2.4050    0.0000 C   0  0  0  0  0  0  0  0  0  0  0  0
    6.0010   -2.9050    0.0000 C   0  0  0  0  0  0  0  0  0  0  0  0
    4.2690   -0.9050    0.0000 C   0  0  0  0  0  0  0  0  0  0  0  0
    5.1350   -1.4050    0.0000 C   0  0  0  0  0  0  0  0  0  0  0  0
    4.2690   -2.9050    0.0000 C   0  0  0  0  0  0  0  0  0  0  0  0
    3.4030   -1.4050    0.0000 C   0  0  0  0  0  0  0  0  0  0  0  0
    4.2690    0.0950    0.0000 C   0  0  0  0  0  0  0  0  0  0  0  0
    5.1350    0.5950    0.0000 C   0  0  0  0  0  0  0  0  0  0  0  0
    3.4030   -2.4050    0.0000 C   0  0  0  0  0  0  0  0  0  0  0  0
    6.8671   -2.4050    0.0000 C   0  0  0  0  0  0  0  0  0  0  0  0
    7.7331   -2.9050    0.0000 C   0  0  0  0  0  0  0  0  0  0  0  0
    5.1350    1.5950    0.0000 C   0  0  0  0  0  0  0  0  0  0  0  0
    6.0010    2.0950    0.0000 C   0  0  0  0  0  0  0  0  0  0  0  0
    8.5991   -2.4050    0.0000 C   0  0  0  0  0  0  0  0  0  0  0  0
    7.7331   -3.9050    0.0000 C   0  0  0  0  0  0  0  0  0  0  0  0
    6.8671    1.5950    0.0000 C   0  0  0  0  0  0  0  0  0  0  0  0
    6.0010    3.0950    0.0000 C   0  0  0  0  0  0  0  0  0  0  0  0
    7.7331    2.0950    0.0000 C   0  0  0  0  0  0  0  0  0  0  0  0
    6.8671    3.5950    0.0000 C   0  0  0  0  0  0  0  0  0  0  0  0
    7.7331    3.0950    0.0000 C   0  0  0  0  0  0  0  0  0  0  0  0
    5.6025   -3.3800    0.0000 H   0  0  0  0  0  0  0  0  0  0  0  0
    6.3996   -3.3800    0.0000 H   0  0  0  0  0  0  0  0  0  0  0  0
    5.6720   -1.0950    0.0000 H   0  0  0  0  0  0  0  0  0  0  0  0
    5.3471    0.0124    0.0000 H   0  0  0  0  0  0  0  0  0  0  0  0
    5.7456    0.7027    0.0000 H   0  0  0  0  0  0  0  0  0  0  0  0
    2.8660   -2.7150    0.0000 H   0  0  0  0  0  0  0  0  0  0  0  0
    6.8671   -1.7850    0.0000 H   0  0  0  0  0  0  0  0  0  0  0  0
    8.9091   -2.9419    0.0000 H   0  0  0  0  0  0  0  0  0  0  0  0
    9.1360   -2.0950    0.0000 H   0  0  0  0  0  0  0  0  0  0  0  0
    7.1131   -3.9050    0.0000 H   0  0  0  0  0  0  0  0  0  0  0  0
    7.7331   -4.5250    0.0000 H   0  0  0  0  0  0  0  0  0  0  0  0
    8.3531   -3.9050    0.0000 H   0  0  0  0  0  0  0  0  0  0  0  0
    8.2891   -1.8681    0.0000 H   0  0  0  0  0  0  0  0  0  0  0  0
    6.8671    0.9750    0.0000 H   0  0  0  0  0  0  0  0  0  0  0  0
    5.4641    3.4050    0.0000 H   0  0  0  0  0  0  0  0  0  0  0  0
    3.7320   -4.2150    0.0000 H   0  0  0  0  0  0  0  0  0  0  0  0
    2.0000   -1.2150    0.0000 H   0  0  0  0  0  0  0  0  0  0  0  0
    8.2700    1.7850    0.0000 H   0  0  0  0  0  0  0  0  0  0  0  0
    6.8671    4.2150    0.0000 H   0  0  0  0  0  0  0  0  0  0  0  0
    8.5991    4.2150    0.0000 H   0  0  0  0  0  0  0  0  0  0  0  0
  1 10  1  0  0  0  0
  1 41  1  0  0  0  0
  2 11  1  0  0  0  0
  2 42  1  0  0  0  0
  3 12  2  0  0  0  0
  4 17  2  0  0  0  0
  5 25  1  0  0  0  0
  5 45  1  0  0  0  0
  6  7  1  0  0  0  0
  6  9  2  0  0  0  0
  6 10  1  0  0  0  0
  7 15  1  0  0  0  0
  7 26  1  0  0  0  0
  7 27  1  0  0  0  0
  8  9  1  0  0  0  0
  8 11  2  0  0  0  0
  8 12  1  0  0  0  0
  9 28  1  0  0  0  0
 10 14  2  0  0  0  0
 11 14  1  0  0  0  0
 12 13  1  0  0  0  0
 13 17  1  0  0  0  0
 13 29  1  0  0  0  0
 13 30  1  0  0  0  0
 14 31  1  0  0  0  0
 15 16  2  0  0  0  0
 15 32  1  0  0  0  0
 16 19  1  0  0  0  0
 16 20  1  0  0  0  0
 17 18  1  0  0  0  0
 18 21  2  0  0  0  0
 18 22  1  0  0  0  0
 19 33  1  0  0  0  0
 19 34  1  0  0  0  0
 19 38  1  0  0  0  0
 20 35  1  0  0  0  0
 20 36  1  0  0  0  0
 20 37  1  0  0  0  0
 21 23  1  0  0  0  0
 21 39  1  0  0  0  0
 22 24  2  0  0  0  0
 22 40  1  0  0  0  0
 23 25  2  0  0  0  0
 23 43  1  0  0  0  0
 24 25  1  0  0  0  0
 24 44  1  0  0  0  0
M  END
>  <PUBCHEM_COMPOUND_CID>
15742117

>  <PUBCHEM_COMPOUND_CANONICALIZED>
1

>  <PUBCHEM_CACTVS_COMPLEXITY>
500

>  <PUBCHEM_CACTVS_HBOND_ACCEPTOR>
5

>  <PUBCHEM_CACTVS_HBOND_DONOR>
3

>  <PUBCHEM_CACTVS_ROTATABLE_BOND>
6

>  <PUBCHEM_CACTVS_SUBSKEYS>
AAADceB4OAAAAAAAAAAAAAAAAAAAAAAAAAAwYAAAAAAAAAABQAAAGgAACAAADASAmAAyBoAAAgCIAqBSAAACAAAkIAAIiAEGCMgIJzaKFRKAcUAl4BUImYeI7OTOIAACCAAIAABAAAQQABAAAAAAAAAAAA==

>  <PUBCHEM_IUPAC_OPENEYE_NAME>
1-[2,4-dihydroxy-5-(3-methylbut-2-enyl)phenyl]-3-(4-hydroxyphenyl)propane-1,3-dione

>  <PUBCHEM_IUPAC_CAS_NAME>
1-[2,4-dihydroxy-5-(3-methylbut-2-enyl)phenyl]-3-(4-hydroxyphenyl)propane-1,3-dione

>  <PUBCHEM_IUPAC_NAME>
1-[2,4-dihydroxy-5-(3-methylbut-2-enyl)phenyl]-3-(4-hydroxyphenyl)propane-1,3-dione

>  <PUBCHEM_IUPAC_SYSTEMATIC_NAME>
1-(4-hydroxyphenyl)-3-[5-(3-methylbut-2-enyl)-2,4-bis(oxidanyl)phenyl]propane-1,3-dione

>  <PUBCHEM_IUPAC_TRADITIONAL_NAME>
1-[2,4-dihydroxy-5-(3-methylbut-2-enyl)phenyl]-3-(4-hydroxyphenyl)propane-1,3-dione

>  <PUBCHEM_IUPAC_INCHI>
InChI=1S/C20H20O5/c1-12(2)3-4-14-9-16(20(25)11-18(14)23)19(24)10-17(22)13-5-7-15(21)8-6-13/h3,5-9,11,21,23,25H,4,10H2,1-2H3

>  <PUBCHEM_IUPAC_INCHIKEY>
VAWLLIOUAFRMHN-UHFFFAOYSA-N

>  <PUBCHEM_XLOGP3_AA>
4.5

>  <PUBCHEM_EXACT_MASS>
340.131

>  <PUBCHEM_MOLECULAR_FORMULA>
C20H20O5

>  <PUBCHEM_MOLECULAR_WEIGHT>
340.375

>  <PUBCHEM_OPENEYE_CAN_SMILES>
CC(=CCC1=C(C=C(C(=C1)C(=O)CC(=O)C2=CC=C(C=C2)O)O)O)C

>  <PUBCHEM_OPENEYE_ISO_SMILES>
CC(=CCC1=C(C=C(C(=C1)C(=O)CC(=O)C2=CC=C(C=C2)O)O)O)C

>  <PUBCHEM_CACTVS_TPSA>
94.8

>  <PUBCHEM_MONOISOTOPIC_WEIGHT>
340.131

>  <PUBCHEM_TOTAL_CHARGE>
0

>  <PUBCHEM_HEAVY_ATOM_COUNT>
25

>  <PUBCHEM_ATOM_DEF_STEREO_COUNT>
0

>  <PUBCHEM_ATOM_UDEF_STEREO_COUNT>
0

>  <PUBCHEM_BOND_DEF_STEREO_COUNT>
0

>  <PUBCHEM_BOND_UDEF_STEREO_COUNT>
0

>  <PUBCHEM_ISOTOPIC_ATOM_COUNT>
0

>  <PUBCHEM_COMPONENT_COUNT>
1

>  <PUBCHEM_CACTVS_TAUTO_COUNT>
120

>  <PUBCHEM_COORDINATE_TYPE>
1
5
255

>  <PUBCHEM_BONDANNOTATIONS>
10  14  8
11  14  8
18  21  8
18  22  8
21  23  8
22  24  8
23  25  8
24  25  8
6  10  8
6  9  8
8  11  8
8  9  8

$$$$
