157706
 OpenBabel06101807152D

 14 14  0  0  0  0  0  0  0  0999 V2000
    4.4467   -1.3725    0.0000 O   0  0  0  0  0  0  0  0  0  0  0  0
    2.3644    0.8709    0.0000 O   0  0  0  0  0  0  0  0  0  0  0  0
    6.2068   -1.0937    0.0000 O   0  0  0  0  0  0  0  0  0  0  0  0
    3.9467    0.1664    0.0000 C   0  0  0  0  0  0  0  0  0  0  0  0
    3.6377   -0.7847    0.0000 C   0  0  0  0  0  0  0  0  0  0  0  0
    3.3590    0.9754    0.0000 C   0  0  0  0  0  0  0  0  0  0  0  0
    4.9467    0.1664    0.0000 C   0  0  0  0  0  0  0  0  0  0  0  0
    5.2558   -0.7847    0.0000 C   0  0  0  0  0  0  0  0  0  0  0  0
    3.0713   -0.5325    0.0000 H   0  0  0  0  0  0  0  0  0  0  0  0
    3.3277   -1.3216    0.0000 H   0  0  0  0  0  0  0  0  0  0  0  0
    3.9162    1.2472    0.0000 H   0  0  0  0  0  0  0  0  0  0  0  0
    3.1880    1.5714    0.0000 H   0  0  0  0  0  0  0  0  0  0  0  0
    5.3112    0.6680    0.0000 H   0  0  0  0  0  0  0  0  0  0  0  0
    2.0000    1.3725    0.0000 H   0  0  0  0  0  0  0  0  0  0  0  0
  1  5  1  0  0  0  0
  1  8  1  0  0  0  0
  2  6  1  0  0  0  0
  2 14  1  0  0  0  0
  3  8  2  0  0  0  0
  4  5  1  0  0  0  0
  4  6  1  0  0  0  0
  4  7  2  0  0  0  0
  5  9  1  0  0  0  0
  5 10  1  0  0  0  0
  6 11  1  0  0  0  0
  6 12  1  0  0  0  0
  7  8  1  0  0  0  0
  7 13  1  0  0  0  0
M  END
>  <PUBCHEM_COMPOUND_CID>
157706

>  <PUBCHEM_COMPOUND_CANONICALIZED>
1

>  <PUBCHEM_CACTVS_COMPLEXITY>
137

>  <PUBCHEM_CACTVS_HBOND_ACCEPTOR>
3

>  <PUBCHEM_CACTVS_HBOND_DONOR>
1

>  <PUBCHEM_CACTVS_ROTATABLE_BOND>
1

>  <PUBCHEM_CACTVS_SUBSKEYS>
AAADcYBgMAAAAAAAAAAAAAAAAAAAAQAAAAAAAAAAAAAAAAAAAAAAGgAACAAADACggAIACAAABgCIAiDSCAAAAAAAAAAACAAAAEAAFAAAIQACUAABAAAAMQAAAAAAAAAAAAAAAAAAAAAAAAAAAAAAAAAAAA==

>  <PUBCHEM_IUPAC_OPENEYE_NAME>
3-(hydroxymethyl)-2H-furan-5-one

>  <PUBCHEM_IUPAC_CAS_NAME>
3-(hydroxymethyl)-2H-furan-5-one

>  <PUBCHEM_IUPAC_NAME>
3-(hydroxymethyl)-2H-furan-5-one

>  <PUBCHEM_IUPAC_SYSTEMATIC_NAME>
3-(hydroxymethyl)-2H-furan-5-one

>  <PUBCHEM_IUPAC_TRADITIONAL_NAME>
3-methylol-2H-furan-5-one

>  <PUBCHEM_IUPAC_INCHI>
InChI=1S/C5H6O3/c6-2-4-1-5(7)8-3-4/h1,6H,2-3H2

>  <PUBCHEM_IUPAC_INCHIKEY>
CHSMEYAHRFTDFX-UHFFFAOYSA-N

>  <PUBCHEM_XLOGP3_AA>
-1.1

>  <PUBCHEM_EXACT_MASS>
114.032

>  <PUBCHEM_MOLECULAR_FORMULA>
C5H6O3

>  <PUBCHEM_MOLECULAR_WEIGHT>
114.1

>  <PUBCHEM_OPENEYE_CAN_SMILES>
C1C(=CC(=O)O1)CO

>  <PUBCHEM_OPENEYE_ISO_SMILES>
C1C(=CC(=O)O1)CO

>  <PUBCHEM_CACTVS_TPSA>
46.5

>  <PUBCHEM_MONOISOTOPIC_WEIGHT>
114.032

>  <PUBCHEM_TOTAL_CHARGE>
0

>  <PUBCHEM_HEAVY_ATOM_COUNT>
8

>  <PUBCHEM_ATOM_DEF_STEREO_COUNT>
0

>  <PUBCHEM_ATOM_UDEF_STEREO_COUNT>
0

>  <PUBCHEM_BOND_DEF_STEREO_COUNT>
0

>  <PUBCHEM_BOND_UDEF_STEREO_COUNT>
0

>  <PUBCHEM_ISOTOPIC_ATOM_COUNT>
0

>  <PUBCHEM_COMPONENT_COUNT>
1

>  <PUBCHEM_CACTVS_TAUTO_COUNT>
1

>  <PUBCHEM_COORDINATE_TYPE>
1
5
255

$$$$
