157801
 OpenBabel06101807152D

 81 90  0  0  1  0  0  0  0  0999 V2000
    8.0572   -0.8849    0.0000 S   0  0  0  0  0  0  0  0  0  0  0  0
    9.2994   -2.8647    0.0000 S   0  0  0  0  0  0  0  0  0  0  0  0
    9.0556   -1.0415    0.0000 S   0  0  0  0  0  0  0  0  0  0  0  0
    9.5927   -1.8976    0.0000 S   0  0  0  0  0  0  0  0  0  0  0  0
    6.8212    0.1597    0.0000 O   0  0  0  0  0  0  0  0  0  0  0  0
    3.8155   -1.8424    0.0000 O   0  0  0  0  0  0  0  0  0  0  0  0
    7.7323    1.8239    0.0000 O   0  0  0  0  0  0  0  0  0  0  0  0
    8.6218   -0.5367    0.0000 O   0  0  0  0  0  0  0  0  0  0  0  0
    3.6631    1.8239    0.0000 O   0  0  0  0  0  0  0  0  0  0  0  0
    6.8571   -4.1747    0.0000 O   0  0  0  0  0  0  0  0  0  0  0  0
    5.1702    4.4736    0.0000 O   0  0  0  0  0  0  0  0  0  0  0  0
    5.1977    0.9415    0.0000 N   0  0  0  0  0  0  0  0  0  0  0  0
    6.8120   -2.4105    0.0000 N   0  0  0  0  0  0  0  0  0  0  0  0
    3.5839    0.2462    0.0000 N   0  0  0  0  0  0  0  0  0  0  0  0
    4.5282   -2.3673    0.0000 N   0  0  0  0  0  0  0  0  0  0  0  0
    6.2185    2.7415    0.0000 N   0  0  0  0  0  0  0  0  0  0  0  0
    8.8686   -2.3666    0.0000 N   0  0  0  0  0  0  0  0  0  0  0  0
    5.6977   -1.2491    0.0000 C   0  0  3  0  0  0  0  0  0  0  0  0
    4.7968   -0.8152    0.0000 C   0  0  3  0  0  0  0  0  0  0  0  0
    6.5987   -0.8152    0.0000 C   0  0  3  0  0  0  0  0  0  0  0  0
    4.5742    0.1597    0.0000 C   0  0  3  0  0  0  0  0  0  0  0  0
    4.8155   -1.8302    0.0000 C   0  0  3  0  0  0  0  0  0  0  0  0
    5.5192   -2.2330    0.0000 C   0  0  3  0  0  0  0  0  0  0  0  0
    6.1977    0.9415    0.0000 C   0  0  3  0  0  0  0  0  0  0  0  0
    7.2838   -1.5355    0.0000 C   0  0  3  0  0  0  0  0  0  0  0  0
    4.8171   -0.7752    0.0000 C   0  0  0  0  0  0  0  0  0  0  0  0
    3.9421   -1.3229    0.0000 C   0  0  0  0  0  0  0  0  0  0  0  0
    4.0943   -1.4663    0.0000 C   0  0  0  0  0  0  0  0  0  0  0  0
    3.1940   -0.6682    0.0000 C   0  0  0  0  0  0  0  0  0  0  0  0
    6.7324    1.8355    0.0000 C   0  0  0  0  0  0  0  0  0  0  0  0
    8.3182   -1.4895    0.0000 C   0  0  0  0  0  0  0  0  0  0  0  0
    4.6631    1.8355    0.0000 C   0  0  0  0  0  0  0  0  0  0  0  0
    7.3419   -3.3001    0.0000 C   0  0  0  0  0  0  0  0  0  0  0  0
    8.3771   -3.2780    0.0000 C   0  0  3  0  0  0  0  0  0  0  0  0
    4.6589    0.7413    0.0000 C   0  0  0  0  0  0  0  0  0  0  0  0
    3.7568   -2.3416    0.0000 C   0  0  0  0  0  0  0  0  0  0  0  0
    5.1769    2.7415    0.0000 C   0  0  3  0  0  0  0  0  0  0  0  0
    2.5864   -1.2402    0.0000 C   0  0  0  0  0  0  0  0  0  0  0  0
    2.2088   -0.9869    0.0000 C   0  0  0  0  0  0  0  0  0  0  0  0
    8.9021   -4.1291    0.0000 C   0  0  0  0  0  0  0  0  0  0  0  0
    3.2276    1.2669    0.0000 C   0  0  0  0  0  0  0  0  0  0  0  0
    2.7792   -2.6830    0.0000 C   0  0  0  0  0  0  0  0  0  0  0  0
    4.6736    3.6056    0.0000 C   0  0  0  0  0  0  0  0  0  0  0  0
    2.1256    0.2132    0.0000 C   0  0  0  0  0  0  0  0  0  0  0  0
    2.0000   -2.0011    0.0000 C   0  0  0  0  0  0  0  0  0  0  0  0
    6.7219    3.6056    0.0000 C   0  0  0  0  0  0  0  0  0  0  0  0
    9.8586   -2.5077    0.0000 C   0  0  0  0  0  0  0  0  0  0  0  0
    9.9016   -4.1001    0.0000 C   0  0  0  0  0  0  0  0  0  0  0  0
    8.4274   -5.0093    0.0000 C   0  0  0  0  0  0  0  0  0  0  0  0
    7.1966   -0.6511    0.0000 H   0  0  0  0  0  0  0  0  0  0  0  0
    4.3298    0.7295    0.0000 H   0  0  0  0  0  0  0  0  0  0  0  0
    5.1449   -2.3554    0.0000 H   0  0  0  0  0  0  0  0  0  0  0  0
    5.5186   -2.8530    0.0000 H   0  0  0  0  0  0  0  0  0  0  0  0
    3.0419    0.5472    0.0000 H   0  0  0  0  0  0  0  0  0  0  0  0
    4.2344   -2.9132    0.0000 H   0  0  0  0  0  0  0  0  0  0  0  0
    3.1956   -1.8498    0.0000 H   0  0  0  0  0  0  0  0  0  0  0  0
    5.1482    1.1221    0.0000 H   0  0  0  0  0  0  0  0  0  0  0  0
    4.2280   -2.7445    0.0000 H   0  0  0  0  0  0  0  0  0  0  0  0
    5.4859    3.2791    0.0000 H   0  0  0  0  0  0  0  0  0  0  0  0
    2.1840   -1.7119    0.0000 H   0  0  0  0  0  0  0  0  0  0  0  0
    1.7470   -0.5732    0.0000 H   0  0  0  0  0  0  0  0  0  0  0  0
    9.1964   -3.5834    0.0000 H   0  0  0  0  0  0  0  0  0  0  0  0
    3.1011    1.8739    0.0000 H   0  0  0  0  0  0  0  0  0  0  0  0
    2.6612   -3.2917    0.0000 H   0  0  0  0  0  0  0  0  0  0  0  0
    4.1971    4.0023    0.0000 H   0  0  0  0  0  0  0  0  0  0  0  0
    4.2002    3.2053    0.0000 H   0  0  0  0  0  0  0  0  0  0  0  0
    1.5249    0.3668    0.0000 H   0  0  0  0  0  0  0  0  0  0  0  0
    1.4123   -2.1987    0.0000 H   0  0  0  0  0  0  0  0  0  0  0  0
    7.2576    3.2936    0.0000 H   0  0  0  0  0  0  0  0  0  0  0  0
    7.0339    4.1414    0.0000 H   0  0  0  0  0  0  0  0  0  0  0  0
    6.1861    3.9177    0.0000 H   0  0  0  0  0  0  0  0  0  0  0  0
    9.7710   -3.1215    0.0000 H   0  0  0  0  0  0  0  0  0  0  0  0
   10.4724   -2.5953    0.0000 H   0  0  0  0  0  0  0  0  0  0  0  0
    9.9461   -1.8940    0.0000 H   0  0  0  0  0  0  0  0  0  0  0  0
    9.9196   -4.7198    0.0000 H   0  0  0  0  0  0  0  0  0  0  0  0
   10.5214   -4.0821    0.0000 H   0  0  0  0  0  0  0  0  0  0  0  0
    9.8836   -3.4803    0.0000 H   0  0  0  0  0  0  0  0  0  0  0  0
    7.8817   -4.7150    0.0000 H   0  0  0  0  0  0  0  0  0  0  0  0
    8.1331   -5.5550    0.0000 H   0  0  0  0  0  0  0  0  0  0  0  0
    8.9731   -5.3036    0.0000 H   0  0  0  0  0  0  0  0  0  0  0  0
    4.8582    5.0093    0.0000 H   0  0  0  0  0  0  0  0  0  0  0  0
  1  3  1  0  0  0  0
  1 25  1  0  0  0  0
  2  4  1  0  0  0  0
  2 34  1  0  0  0  0
  3  4  1  0  0  0  0
  5 20  1  0  0  0  0
  5 24  1  0  0  0  0
  6 22  1  0  0  0  0
  6 56  1  0  0  0  0
  7 30  2  0  0  0  0
  8 31  2  0  0  0  0
  9 32  2  0  0  0  0
 10 33  2  0  0  0  0
 11 43  1  0  0  0  0
 11 81  1  0  0  0  0
 12 21  1  0  0  0  0
 12 24  1  0  0  0  0
 12 32  1  0  0  0  0
 13 23  1  0  0  0  0
 13 25  1  0  0  0  0
 13 33  1  0  0  0  0
 14 21  1  0  0  0  0
 14 29  1  0  0  0  0
 14 54  1  0  0  0  0
 15 23  1  0  0  0  0
 15 28  1  0  0  0  0
 15 55  1  0  0  0  0
 16 30  1  0  0  0  0
 16 37  1  0  0  0  0
 16 46  1  0  0  0  0
 17 31  1  0  0  0  0
 17 34  1  0  0  0  0
 17 47  1  0  0  0  0
 18 19  1  0  0  0  0
 18 20  1  0  0  0  0
 18 23  1  0  0  0  0
 18 26  1  0  0  0  0
 19 21  1  0  0  0  0
 19 22  1  0  0  0  0
 19 27  1  0  0  0  0
 20 25  1  0  0  0  0
 20 50  1  0  0  0  0
 21 51  1  0  0  0  0
 22 24  1  0  0  0  0
 22 52  1  0  0  0  0
 23 53  1  0  0  0  0
 24 30  1  0  0  0  0
 25 31  1  0  0  0  0
 26 28  1  0  0  0  0
 26 35  2  0  0  0  0
 27 29  1  0  0  0  0
 27 36  2  0  0  0  0
 28 38  2  0  0  0  0
 29 39  2  0  0  0  0
 32 37  1  0  0  0  0
 33 34  1  0  0  0  0
 34 40  1  0  0  0  0
 35 41  1  0  0  0  0
 35 57  1  0  0  0  0
 36 42  1  0  0  0  0
 36 58  1  0  0  0  0
 37 43  1  0  0  0  0
 37 59  1  0  0  0  0
 38 44  1  0  0  0  0
 38 60  1  0  0  0  0
 39 45  1  0  0  0  0
 39 61  1  0  0  0  0
 40 48  1  0  0  0  0
 40 49  1  0  0  0  0
 40 62  1  0  0  0  0
 41 44  2  0  0  0  0
 41 63  1  0  0  0  0
 42 45  2  0  0  0  0
 42 64  1  0  0  0  0
 43 65  1  0  0  0  0
 43 66  1  0  0  0  0
 44 67  1  0  0  0  0
 45 68  1  0  0  0  0
 46 69  1  0  0  0  0
 46 70  1  0  0  0  0
 46 71  1  0  0  0  0
 47 72  1  0  0  0  0
 47 73  1  0  0  0  0
 47 74  1  0  0  0  0
 48 75  1  0  0  0  0
 48 76  1  0  0  0  0
 48 77  1  0  0  0  0
 49 78  1  0  0  0  0
 49 79  1  0  0  0  0
 49 80  1  0  0  0  0
M  END
>  <PUBCHEM_COMPOUND_CID>
157801

>  <PUBCHEM_COMPOUND_CANONICALIZED>
1

>  <PUBCHEM_CACTVS_COMPLEXITY>
1580

>  <PUBCHEM_CACTVS_HBOND_ACCEPTOR>
13

>  <PUBCHEM_CACTVS_HBOND_DONOR>
4

>  <PUBCHEM_CACTVS_ROTATABLE_BOND>
2

>  <PUBCHEM_CACTVS_SUBSKEYS>
AAADcfB/uABwAAAAAAAAAAAAAAAAAWLFiwA8eJECBYAWLFixQAAAHgQQCAAADzzh2AYzwIPABgCIAiVSUAKCAAAhAgAIiIHIZIiLcDbAkbWfYAhu9wPbyCf42fOPgAAAAAACAAAAAAAAAAQAAAAAAAAAAA==

>  <PUBCHEM_IUPAC_INCHI>
InChI=1S/C32H32N6O7S4/c1-14(2)31-27(44)38-24-29(16-10-6-8-12-18(16)34-24)22(32(38,26(43)36(31)4)47-49-48-46-31)45-30-21(41)28(29)15-9-5-7-11-17(15)33-23(28)37(30)20(40)19(13-39)35(3)25(30)42/h5-12,14,19,21-24,33-34,39,41H,13H2,1-4H3

>  <PUBCHEM_IUPAC_INCHIKEY>
PZFMMBJJDMZAIP-UHFFFAOYSA-N

>  <PUBCHEM_XLOGP3_AA>
2.3

>  <PUBCHEM_EXACT_MASS>
740.122

>  <PUBCHEM_MOLECULAR_FORMULA>
C32H32N6O7S4

>  <PUBCHEM_MOLECULAR_WEIGHT>
740.883

>  <PUBCHEM_OPENEYE_CAN_SMILES>
CC(C)C12C(=O)N3C4C5(C(C3(C(=O)N1C)SSSS2)OC67C(C58C(N6C(=O)C(N(C7=O)C)CO)NC9=CC=CC=C89)O)C1=CC=CC=C1N4

>  <PUBCHEM_OPENEYE_ISO_SMILES>
CC(C)C12C(=O)N3C4C5(C(C3(C(=O)N1C)SSSS2)OC67C(C58C(N6C(=O)C(N(C7=O)C)CO)NC9=CC=CC=C89)O)C1=CC=CC=C1N4

>  <PUBCHEM_CACTVS_TPSA>
256

>  <PUBCHEM_MONOISOTOPIC_WEIGHT>
740.122

>  <PUBCHEM_TOTAL_CHARGE>
0

>  <PUBCHEM_HEAVY_ATOM_COUNT>
49

>  <PUBCHEM_ATOM_DEF_STEREO_COUNT>
0

>  <PUBCHEM_ATOM_UDEF_STEREO_COUNT>
10

>  <PUBCHEM_BOND_DEF_STEREO_COUNT>
0

>  <PUBCHEM_BOND_UDEF_STEREO_COUNT>
0

>  <PUBCHEM_ISOTOPIC_ATOM_COUNT>
0

>  <PUBCHEM_COMPONENT_COUNT>
1

>  <PUBCHEM_CACTVS_TAUTO_COUNT>
2

>  <PUBCHEM_COORDINATE_TYPE>
1
5
255

>  <PUBCHEM_BONDANNOTATIONS>
21  14  3
23  15  3
18  26  3
19  27  3
24  30  3
25  31  3
26  28  8
26  35  8
27  29  8
27  36  8
28  38  8
29  39  8
34  40  3
35  41  8
36  42  8
37  43  3
38  44  8
39  45  8
41  44  8
42  45  8
20  5  3
22  6  3

$$$$
