158015
 OpenBabel06101807152D

 26 27  0  0  0  0  0  0  0  0999 V2000
    6.0682    1.7500    0.0000 O   0  0  0  0  0  0  0  0  0  0  0  0
    7.8003   -1.2500    0.0000 O   0  0  0  0  0  0  0  0  0  0  0  0
    2.5381    0.7742    0.0000 O   0  0  0  0  0  0  0  0  0  0  0  0
    6.0682   -1.2500    0.0000 N   0  0  0  0  0  0  0  0  0  0  0  0
    5.2022   -0.7500    0.0000 C   0  0  0  0  0  0  0  0  0  0  0  0
    5.2022    0.2500    0.0000 C   0  0  0  0  0  0  0  0  0  0  0  0
    6.0682    0.7500    0.0000 C   0  0  0  0  0  0  0  0  0  0  0  0
    4.3083   -1.2847    0.0000 C   0  0  0  0  0  0  0  0  0  0  0  0
    6.9343   -0.7500    0.0000 C   0  0  0  0  0  0  0  0  0  0  0  0
    4.3083    0.7847    0.0000 C   0  0  0  0  0  0  0  0  0  0  0  0
    6.9343    0.2500    0.0000 C   0  0  0  0  0  0  0  0  0  0  0  0
    6.0682   -2.2500    0.0000 C   0  0  0  0  0  0  0  0  0  0  0  0
    3.4022    0.2708    0.0000 C   0  0  0  0  0  0  0  0  0  0  0  0
    3.4022   -0.7708    0.0000 C   0  0  0  0  0  0  0  0  0  0  0  0
    6.9343    2.2500    0.0000 C   0  0  0  0  0  0  0  0  0  0  0  0
    4.3154   -1.9046    0.0000 H   0  0  0  0  0  0  0  0  0  0  0  0
    4.3154    1.4046    0.0000 H   0  0  0  0  0  0  0  0  0  0  0  0
    7.4712    0.5600    0.0000 H   0  0  0  0  0  0  0  0  0  0  0  0
    5.4482   -2.2500    0.0000 H   0  0  0  0  0  0  0  0  0  0  0  0
    6.0682   -2.8700    0.0000 H   0  0  0  0  0  0  0  0  0  0  0  0
    6.6882   -2.2500    0.0000 H   0  0  0  0  0  0  0  0  0  0  0  0
    2.8665   -1.0829    0.0000 H   0  0  0  0  0  0  0  0  0  0  0  0
    7.2443    1.7131    0.0000 H   0  0  0  0  0  0  0  0  0  0  0  0
    7.4712    2.5600    0.0000 H   0  0  0  0  0  0  0  0  0  0  0  0
    6.6243    2.7869    0.0000 H   0  0  0  0  0  0  0  0  0  0  0  0
    2.0000    0.4662    0.0000 H   0  0  0  0  0  0  0  0  0  0  0  0
  1  7  1  0  0  0  0
  1 15  1  0  0  0  0
  2  9  2  0  0  0  0
  3 13  1  0  0  0  0
  3 26  1  0  0  0  0
  4  5  1  0  0  0  0
  4  9  1  0  0  0  0
  4 12  1  0  0  0  0
  5  6  2  0  0  0  0
  5  8  1  0  0  0  0
  6  7  1  0  0  0  0
  6 10  1  0  0  0  0
  7 11  2  0  0  0  0
  8 14  2  0  0  0  0
  8 16  1  0  0  0  0
  9 11  1  0  0  0  0
 10 13  2  0  0  0  0
 10 17  1  0  0  0  0
 11 18  1  0  0  0  0
 12 19  1  0  0  0  0
 12 20  1  0  0  0  0
 12 21  1  0  0  0  0
 13 14  1  0  0  0  0
 14 22  1  0  0  0  0
 15 23  1  0  0  0  0
 15 24  1  0  0  0  0
 15 25  1  0  0  0  0
M  END
>  <PUBCHEM_COMPOUND_CID>
158015

>  <PUBCHEM_COMPOUND_CANONICALIZED>
1

>  <PUBCHEM_CACTVS_COMPLEXITY>
300

>  <PUBCHEM_CACTVS_HBOND_ACCEPTOR>
3

>  <PUBCHEM_CACTVS_HBOND_DONOR>
1

>  <PUBCHEM_CACTVS_ROTATABLE_BOND>
1

>  <PUBCHEM_CACTVS_SUBSKEYS>
AAADccByMAAAAAAAAAAAAAAAAAAAAAAAAAAwQAAAAAAAAACBAAAAHgAACAAADAyBmAYyxoMABgCIAiVSUACCCAAhIgAIiAAObMgIJiLCsZuEcAhmxhHI+QfwwDAOAEABAAACAAAAgAIAAAQAAAAAAAAAAA==

>  <PUBCHEM_IUPAC_OPENEYE_NAME>
6-hydroxy-4-methoxy-1-methyl-quinolin-2-one

>  <PUBCHEM_IUPAC_CAS_NAME>
6-hydroxy-4-methoxy-1-methyl-2-quinolinone

>  <PUBCHEM_IUPAC_NAME>
6-hydroxy-4-methoxy-1-methylquinolin-2-one

>  <PUBCHEM_IUPAC_SYSTEMATIC_NAME>
4-methoxy-1-methyl-6-oxidanyl-quinolin-2-one

>  <PUBCHEM_IUPAC_TRADITIONAL_NAME>
6-hydroxy-4-methoxy-1-methyl-carbostyril

>  <PUBCHEM_IUPAC_INCHI>
InChI=1S/C11H11NO3/c1-12-9-4-3-7(13)5-8(9)10(15-2)6-11(12)14/h3-6,13H,1-2H3

>  <PUBCHEM_IUPAC_INCHIKEY>
PMIJOJQWNBZWIA-UHFFFAOYSA-N

>  <PUBCHEM_XLOGP3_AA>
0.9

>  <PUBCHEM_EXACT_MASS>
205.074

>  <PUBCHEM_MOLECULAR_FORMULA>
C11H11NO3

>  <PUBCHEM_MOLECULAR_WEIGHT>
205.213

>  <PUBCHEM_OPENEYE_CAN_SMILES>
CN1C2=C(C=C(C=C2)O)C(=CC1=O)OC

>  <PUBCHEM_OPENEYE_ISO_SMILES>
CN1C2=C(C=C(C=C2)O)C(=CC1=O)OC

>  <PUBCHEM_CACTVS_TPSA>
49.8

>  <PUBCHEM_MONOISOTOPIC_WEIGHT>
205.074

>  <PUBCHEM_TOTAL_CHARGE>
0

>  <PUBCHEM_HEAVY_ATOM_COUNT>
15

>  <PUBCHEM_ATOM_DEF_STEREO_COUNT>
0

>  <PUBCHEM_ATOM_UDEF_STEREO_COUNT>
0

>  <PUBCHEM_BOND_DEF_STEREO_COUNT>
0

>  <PUBCHEM_BOND_UDEF_STEREO_COUNT>
0

>  <PUBCHEM_ISOTOPIC_ATOM_COUNT>
0

>  <PUBCHEM_COMPONENT_COUNT>
1

>  <PUBCHEM_CACTVS_TAUTO_COUNT>
3

>  <PUBCHEM_COORDINATE_TYPE>
1
5
255

>  <PUBCHEM_BONDANNOTATIONS>
10  13  8
13  14  8
4  5  8
4  9  8
5  6  8
5  8  8
6  10  8
6  7  8
7  11  8
8  14  8
9  11  8

$$$$
