15800949
 OpenBabel06101807152D

 38 38  0  0  0  0  0  0  0  0999 V2000
    2.1340    1.3170    0.0000 O   0  0  0  0  0  0  0  0  0  0  0  0
    3.8660   -1.6830    0.0000 O   0  0  0  0  0  0  0  0  0  0  0  0
    5.5981    1.3170    0.0000 O   0  0  0  0  0  0  0  0  0  0  0  0
    6.4641   -0.1830    0.0000 O   0  0  0  0  0  0  0  0  0  0  0  0
    3.8660    1.3170    0.0000 C   0  0  0  0  0  0  0  0  0  0  0  0
    3.0000   -0.1830    0.0000 C   0  0  0  0  0  0  0  0  0  0  0  0
    4.7320   -0.1830    0.0000 C   0  0  0  0  0  0  0  0  0  0  0  0
    3.0000    0.8170    0.0000 C   0  0  0  0  0  0  0  0  0  0  0  0
    4.7320    0.8170    0.0000 C   0  0  0  0  0  0  0  0  0  0  0  0
    3.8660   -0.6830    0.0000 C   0  0  0  0  0  0  0  0  0  0  0  0
    4.3660    2.1830    0.0000 C   0  0  0  0  0  0  0  0  0  0  0  0
    3.3660    2.1830    0.0000 C   0  0  0  0  0  0  0  0  0  0  0  0
    2.5000   -1.0490    0.0000 C   0  0  0  0  0  0  0  0  0  0  0  0
    2.0000   -0.1830    0.0000 C   0  0  0  0  0  0  0  0  0  0  0  0
    5.5981   -0.6830    0.0000 C   0  0  0  0  0  0  0  0  0  0  0  0
    5.5981   -1.6830    0.0000 C   0  0  0  0  0  0  0  0  0  0  0  0
    6.4641   -2.1830    0.0000 C   0  0  0  0  0  0  0  0  0  0  0  0
    4.7320   -2.1830    0.0000 C   0  0  0  0  0  0  0  0  0  0  0  0
    4.7320   -0.8030    0.0000 H   0  0  0  0  0  0  0  0  0  0  0  0
    3.9030    2.4930    0.0000 H   0  0  0  0  0  0  0  0  0  0  0  0
    3.0560    2.7200    0.0000 H   0  0  0  0  0  0  0  0  0  0  0  0
    2.8291    1.8730    0.0000 H   0  0  0  0  0  0  0  0  0  0  0  0
    4.9030    1.8730    0.0000 H   0  0  0  0  0  0  0  0  0  0  0  0
    4.6760    2.7200    0.0000 H   0  0  0  0  0  0  0  0  0  0  0  0
    3.8291    2.4930    0.0000 H   0  0  0  0  0  0  0  0  0  0  0  0
    1.9631   -0.7390    0.0000 H   0  0  0  0  0  0  0  0  0  0  0  0
    2.1900   -1.5860    0.0000 H   0  0  0  0  0  0  0  0  0  0  0  0
    3.0369   -1.3590    0.0000 H   0  0  0  0  0  0  0  0  0  0  0  0
    2.0000    0.4370    0.0000 H   0  0  0  0  0  0  0  0  0  0  0  0
    1.3800   -0.1830    0.0000 H   0  0  0  0  0  0  0  0  0  0  0  0
    2.0000   -0.8030    0.0000 H   0  0  0  0  0  0  0  0  0  0  0  0
    5.5981   -2.3030    0.0000 H   0  0  0  0  0  0  0  0  0  0  0  0
    6.1541   -2.7200    0.0000 H   0  0  0  0  0  0  0  0  0  0  0  0
    7.0010   -2.4930    0.0000 H   0  0  0  0  0  0  0  0  0  0  0  0
    6.7741   -1.6461    0.0000 H   0  0  0  0  0  0  0  0  0  0  0  0
    4.4220   -1.6461    0.0000 H   0  0  0  0  0  0  0  0  0  0  0  0
    4.1951   -2.4930    0.0000 H   0  0  0  0  0  0  0  0  0  0  0  0
    5.0420   -2.7200    0.0000 H   0  0  0  0  0  0  0  0  0  0  0  0
  1  8  2  0  0  0  0
  2 10  2  0  0  0  0
  3  9  2  0  0  0  0
  4 15  2  0  0  0  0
  5  8  1  0  0  0  0
  5  9  1  0  0  0  0
  5 11  1  0  0  0  0
  5 12  1  0  0  0  0
  6  8  1  0  0  0  0
  6 10  1  0  0  0  0
  6 13  1  0  0  0  0
  6 14  1  0  0  0  0
  7  9  1  0  0  0  0
  7 10  1  0  0  0  0
  7 15  1  0  0  0  0
  7 19  1  0  0  0  0
 11 23  1  0  0  0  0
 11 24  1  0  0  0  0
 11 25  1  0  0  0  0
 12 20  1  0  0  0  0
 12 21  1  0  0  0  0
 12 22  1  0  0  0  0
 13 26  1  0  0  0  0
 13 27  1  0  0  0  0
 13 28  1  0  0  0  0
 14 29  1  0  0  0  0
 14 30  1  0  0  0  0
 14 31  1  0  0  0  0
 15 16  1  0  0  0  0
 16 17  1  0  0  0  0
 16 18  1  0  0  0  0
 16 32  1  0  0  0  0
 17 33  1  0  0  0  0
 17 34  1  0  0  0  0
 17 35  1  0  0  0  0
 18 36  1  0  0  0  0
 18 37  1  0  0  0  0
 18 38  1  0  0  0  0
M  END
>  <PUBCHEM_COMPOUND_CID>
15800949

>  <PUBCHEM_COMPOUND_CANONICALIZED>
1

>  <PUBCHEM_CACTVS_COMPLEXITY>
411

>  <PUBCHEM_CACTVS_HBOND_ACCEPTOR>
4

>  <PUBCHEM_CACTVS_HBOND_DONOR>
0

>  <PUBCHEM_CACTVS_ROTATABLE_BOND>
2

>  <PUBCHEM_CACTVS_SUBSKEYS>
AAADceBwOAAAAAAAAAAAAAAAAAAAAAAAAAAwAAAAAAAAAAAAAAAAGgAAAAAADwSAgAACAAAAAAAIAIAQAAAAAAAAAAAAAAEAAAAAABIIAAAAAAAAAAAAAAEIisCvAAAAAAAAAAAAAAQAAAAAAAAAAAAAAA==

>  <PUBCHEM_IUPAC_OPENEYE_NAME>
2,2,4,4-tetramethyl-6-(2-methylpropanoyl)cyclohexane-1,3,5-trione

>  <PUBCHEM_IUPAC_CAS_NAME>
2,2,4,4-tetramethyl-6-(2-methyl-1-oxopropyl)cyclohexane-1,3,5-trione

>  <PUBCHEM_IUPAC_NAME>
2,2,4,4-tetramethyl-6-(2-methylpropanoyl)cyclohexane-1,3,5-trione

>  <PUBCHEM_IUPAC_SYSTEMATIC_NAME>
2,2,4,4-tetramethyl-6-(2-methylpropanoyl)cyclohexane-1,3,5-trione

>  <PUBCHEM_IUPAC_TRADITIONAL_NAME>
6-isobutyryl-2,2,4,4-tetramethyl-cyclohexane-1,3,5-trione

>  <PUBCHEM_IUPAC_INCHI>
InChI=1S/C14H20O4/c1-7(2)9(15)8-10(16)13(3,4)12(18)14(5,6)11(8)17/h7-8H,1-6H3

>  <PUBCHEM_IUPAC_INCHIKEY>
ZEOCEPNBYPGWGS-UHFFFAOYSA-N

>  <PUBCHEM_XLOGP3_AA>
2.7

>  <PUBCHEM_EXACT_MASS>
252.136

>  <PUBCHEM_MOLECULAR_FORMULA>
C14H20O4

>  <PUBCHEM_MOLECULAR_WEIGHT>
252.31

>  <PUBCHEM_OPENEYE_CAN_SMILES>
CC(C)C(=O)C1C(=O)C(C(=O)C(C1=O)(C)C)(C)C

>  <PUBCHEM_OPENEYE_ISO_SMILES>
CC(C)C(=O)C1C(=O)C(C(=O)C(C1=O)(C)C)(C)C

>  <PUBCHEM_CACTVS_TPSA>
68.3

>  <PUBCHEM_MONOISOTOPIC_WEIGHT>
252.136

>  <PUBCHEM_TOTAL_CHARGE>
0

>  <PUBCHEM_HEAVY_ATOM_COUNT>
18

>  <PUBCHEM_ATOM_DEF_STEREO_COUNT>
0

>  <PUBCHEM_ATOM_UDEF_STEREO_COUNT>
0

>  <PUBCHEM_BOND_DEF_STEREO_COUNT>
0

>  <PUBCHEM_BOND_UDEF_STEREO_COUNT>
0

>  <PUBCHEM_ISOTOPIC_ATOM_COUNT>
0

>  <PUBCHEM_COMPONENT_COUNT>
1

>  <PUBCHEM_CACTVS_TAUTO_COUNT>
5

>  <PUBCHEM_COORDINATE_TYPE>
1
5
255

$$$$
