158029
 OpenBabel06101807152D

 51 53  0  0  1  0  0  0  0  0999 V2000
    6.5468    3.0062    0.0000 O   0  0  0  0  0  0  0  0  0  0  0  0
    8.0413    2.0357    0.0000 O   0  0  0  0  0  0  0  0  0  0  0  0
    3.7320    1.8038    0.0000 O   0  0  0  0  0  0  0  0  0  0  0  0
    2.8660   -1.6962    0.0000 O   0  0  0  0  0  0  0  0  0  0  0  0
    8.9035   -2.1554    0.0000 O   0  0  0  0  0  0  0  0  0  0  0  0
    4.5981   -2.6962    0.0000 O   0  0  0  0  0  0  0  0  0  0  0  0
   10.3898   -0.8172    0.0000 O   0  0  0  0  0  0  0  0  0  0  0  0
    5.4641    1.8038    0.0000 C   0  0  3  0  0  0  0  0  0  0  0  0
    6.3776    1.3970    0.0000 C   0  0  3  0  0  0  0  0  0  0  0  0
    7.0468    2.1402    0.0000 C   0  0  3  0  0  0  0  0  0  0  0  0
    5.5686    2.7983    0.0000 C   0  0  0  0  0  0  0  0  0  0  0  0
    4.5981    1.3038    0.0000 C   0  0  3  0  0  0  0  0  0  0  0  0
    6.5856    0.4189    0.0000 C   0  0  0  0  0  0  0  0  0  0  0  0
    4.5981    0.3038    0.0000 C   0  0  0  0  0  0  0  0  0  0  0  0
    7.5366    0.1099    0.0000 C   0  0  0  0  0  0  0  0  0  0  0  0
    3.7320   -0.1962    0.0000 C   0  0  0  0  0  0  0  0  0  0  0  0
    5.4641   -0.1962    0.0000 C   0  0  0  0  0  0  0  0  0  0  0  0
    7.7445   -0.8683    0.0000 C   0  0  0  0  0  0  0  0  0  0  0  0
    8.2798    0.7790    0.0000 C   0  0  0  0  0  0  0  0  0  0  0  0
    3.7320   -1.1962    0.0000 C   0  0  0  0  0  0  0  0  0  0  0  0
    8.6956   -1.1773    0.0000 C   0  0  0  0  0  0  0  0  0  0  0  0
    5.4641   -1.1962    0.0000 C   0  0  0  0  0  0  0  0  0  0  0  0
    9.2308    0.4700    0.0000 C   0  0  0  0  0  0  0  0  0  0  0  0
    4.5981   -1.6962    0.0000 C   0  0  0  0  0  0  0  0  0  0  0  0
    9.4387   -0.5082    0.0000 C   0  0  0  0  0  0  0  0  0  0  0  0
    2.0000   -1.1962    0.0000 C   0  0  0  0  0  0  0  0  0  0  0  0
    9.8546   -2.4644    0.0000 C   0  0  0  0  0  0  0  0  0  0  0  0
    4.7512    2.2667    0.0000 H   0  0  0  0  0  0  0  0  0  0  0  0
    5.7171    0.8621    0.0000 H   0  0  0  0  0  0  0  0  0  0  0  0
    7.3514    1.3466    0.0000 H   0  0  0  0  0  0  0  0  0  0  0  0
    5.5038    3.4149    0.0000 H   0  0  0  0  0  0  0  0  0  0  0  0
    4.9486    2.7983    0.0000 H   0  0  0  0  0  0  0  0  0  0  0  0
    5.3342    0.8788    0.0000 H   0  0  0  0  0  0  0  0  0  0  0  0
    5.9659    0.3973    0.0000 H   0  0  0  0  0  0  0  0  0  0  0  0
    6.4993   -0.1951    0.0000 H   0  0  0  0  0  0  0  0  0  0  0  0
    8.4057    2.5372    0.0000 H   0  0  0  0  0  0  0  0  0  0  0  0
    3.7320    2.4238    0.0000 H   0  0  0  0  0  0  0  0  0  0  0  0
    3.1951    0.1138    0.0000 H   0  0  0  0  0  0  0  0  0  0  0  0
    6.0010    0.1138    0.0000 H   0  0  0  0  0  0  0  0  0  0  0  0
    7.2838   -1.2831    0.0000 H   0  0  0  0  0  0  0  0  0  0  0  0
    8.1509    1.3855    0.0000 H   0  0  0  0  0  0  0  0  0  0  0  0
    6.0010   -1.5062    0.0000 H   0  0  0  0  0  0  0  0  0  0  0  0
    9.6916    0.8849    0.0000 H   0  0  0  0  0  0  0  0  0  0  0  0
    5.1350   -3.0062    0.0000 H   0  0  0  0  0  0  0  0  0  0  0  0
   10.8505   -0.4023    0.0000 H   0  0  0  0  0  0  0  0  0  0  0  0
    2.3100   -0.6593    0.0000 H   0  0  0  0  0  0  0  0  0  0  0  0
    1.4631   -0.8862    0.0000 H   0  0  0  0  0  0  0  0  0  0  0  0
    1.6900   -1.7332    0.0000 H   0  0  0  0  0  0  0  0  0  0  0  0
    9.6630   -3.0541    0.0000 H   0  0  0  0  0  0  0  0  0  0  0  0
   10.4442   -2.6560    0.0000 H   0  0  0  0  0  0  0  0  0  0  0  0
   10.0461   -1.8748    0.0000 H   0  0  0  0  0  0  0  0  0  0  0  0
  1 10  1  0  0  0  0
  1 11  1  0  0  0  0
  2 10  1  0  0  0  0
  2 36  1  0  0  0  0
  3 12  1  0  0  0  0
  3 37  1  0  0  0  0
  4 20  1  0  0  0  0
  4 26  1  0  0  0  0
  5 21  1  0  0  0  0
  5 27  1  0  0  0  0
  6 24  1  0  0  0  0
  6 44  1  0  0  0  0
  7 25  1  0  0  0  0
  7 45  1  0  0  0  0
  8  9  1  0  0  0  0
  8 11  1  0  0  0  0
  8 12  1  0  0  0  0
  8 28  1  0  0  0  0
  9 10  1  0  0  0  0
  9 13  1  0  0  0  0
  9 29  1  0  0  0  0
 10 30  1  0  0  0  0
 11 31  1  0  0  0  0
 11 32  1  0  0  0  0
 12 14  1  0  0  0  0
 12 33  1  0  0  0  0
 13 15  1  0  0  0  0
 13 34  1  0  0  0  0
 13 35  1  0  0  0  0
 14 16  2  0  0  0  0
 14 17  1  0  0  0  0
 15 18  2  0  0  0  0
 15 19  1  0  0  0  0
 16 20  1  0  0  0  0
 16 38  1  0  0  0  0
 17 22  2  0  0  0  0
 17 39  1  0  0  0  0
 18 21  1  0  0  0  0
 18 40  1  0  0  0  0
 19 23  2  0  0  0  0
 19 41  1  0  0  0  0
 20 24  2  0  0  0  0
 21 25  2  0  0  0  0
 22 24  1  0  0  0  0
 22 42  1  0  0  0  0
 23 25  1  0  0  0  0
 23 43  1  0  0  0  0
 26 46  1  0  0  0  0
 26 47  1  0  0  0  0
 26 48  1  0  0  0  0
 27 49  1  0  0  0  0
 27 50  1  0  0  0  0
 27 51  1  0  0  0  0
M  END
>  <PUBCHEM_COMPOUND_CID>
158029

>  <PUBCHEM_COMPOUND_CANONICALIZED>
1

>  <PUBCHEM_CACTVS_COMPLEXITY>
462

>  <PUBCHEM_CACTVS_HBOND_ACCEPTOR>
7

>  <PUBCHEM_CACTVS_HBOND_DONOR>
4

>  <PUBCHEM_CACTVS_ROTATABLE_BOND>
6

>  <PUBCHEM_CACTVS_SUBSKEYS>
AAADceB4OAAAAAAAAAAAAAAAAAAAASAAAAAwYAAAAAAAAAABQAAAGgAACAAADRSwmAMyDoAABgCAAiBCAAACCAAgIAAIiAAGiIgdNiKGMRqCcCMlwBEPuAfA4PQOoAABAAAAQABAAAIAAACAAAAAAAAAAA==

>  <PUBCHEM_IUPAC_OPENEYE_NAME>
4-[hydroxy-(4-hydroxy-3-methoxy-phenyl)methyl]-3-[(4-hydroxy-3-methoxy-phenyl)methyl]tetrahydrofuran-2-ol

>  <PUBCHEM_IUPAC_CAS_NAME>
4-[hydroxy-(4-hydroxy-3-methoxyphenyl)methyl]-3-[(4-hydroxy-3-methoxyphenyl)methyl]-2-oxolanol

>  <PUBCHEM_IUPAC_NAME>
4-[hydroxy-(4-hydroxy-3-methoxyphenyl)methyl]-3-[(4-hydroxy-3-methoxyphenyl)methyl]oxolan-2-ol

>  <PUBCHEM_IUPAC_SYSTEMATIC_NAME>
3-[(3-methoxy-4-oxidanyl-phenyl)methyl]-4-[(3-methoxy-4-oxidanyl-phenyl)-oxidanyl-methyl]oxolan-2-ol

>  <PUBCHEM_IUPAC_TRADITIONAL_NAME>
4-[hydroxy-(4-hydroxy-3-methoxy-phenyl)methyl]-3-vanillyl-tetrahydrofuran-2-ol

>  <PUBCHEM_IUPAC_INCHI>
InChI=1S/C20H24O7/c1-25-17-8-11(3-5-15(17)21)7-13-14(10-27-20(13)24)19(23)12-4-6-16(22)18(9-12)26-2/h3-6,8-9,13-14,19-24H,7,10H2,1-2H3

>  <PUBCHEM_IUPAC_INCHIKEY>
VUKYFJWPBAAZAU-UHFFFAOYSA-N

>  <PUBCHEM_XLOGP3_AA>
1.9

>  <PUBCHEM_EXACT_MASS>
376.152

>  <PUBCHEM_MOLECULAR_FORMULA>
C20H24O7

>  <PUBCHEM_MOLECULAR_WEIGHT>
376.405

>  <PUBCHEM_OPENEYE_CAN_SMILES>
COC1=C(C=CC(=C1)CC2C(COC2O)C(C3=CC(=C(C=C3)O)OC)O)O

>  <PUBCHEM_OPENEYE_ISO_SMILES>
COC1=C(C=CC(=C1)CC2C(COC2O)C(C3=CC(=C(C=C3)O)OC)O)O

>  <PUBCHEM_CACTVS_TPSA>
109

>  <PUBCHEM_MONOISOTOPIC_WEIGHT>
376.152

>  <PUBCHEM_TOTAL_CHARGE>
0

>  <PUBCHEM_HEAVY_ATOM_COUNT>
27

>  <PUBCHEM_ATOM_DEF_STEREO_COUNT>
0

>  <PUBCHEM_ATOM_UDEF_STEREO_COUNT>
4

>  <PUBCHEM_BOND_DEF_STEREO_COUNT>
0

>  <PUBCHEM_BOND_UDEF_STEREO_COUNT>
0

>  <PUBCHEM_ISOTOPIC_ATOM_COUNT>
0

>  <PUBCHEM_COMPONENT_COUNT>
1

>  <PUBCHEM_CACTVS_TAUTO_COUNT>
8

>  <PUBCHEM_COORDINATE_TYPE>
1
5
255

>  <PUBCHEM_BONDANNOTATIONS>
10  30  3
12  33  3
14  16  8
14  17  8
15  18  8
15  19  8
16  20  8
17  22  8
18  21  8
19  23  8
20  24  8
21  25  8
22  24  8
23  25  8
8  28  3
9  29  3

$$$$
