15847405
 OpenBabel06101807152D

 98100  0  0  1  0  0  0  0  0999 V2000
    6.0812   -4.3849    0.0000 O   0  0  0  0  0  0  0  0  0  0  0  0
    2.5369   -4.5801    0.0000 O   0  0  0  0  0  0  0  0  0  0  0  0
    5.1350   -4.0801    0.0000 C   0  0  1  0  0  0  0  0  0  0  0  0
    4.2690   -2.5801    0.0000 C   0  0  0  0  0  0  0  0  0  0  0  0
    5.1350   -3.0801    0.0000 C   0  0  0  0  0  0  0  0  0  0  0  0
    4.2690   -4.5801    0.0000 C   0  0  0  0  0  0  0  0  0  0  0  0
    3.4030   -3.0801    0.0000 C   0  0  0  0  0  0  0  0  0  0  0  0
    3.4030   -4.0801    0.0000 C   0  0  2  0  0  0  0  0  0  0  0  0
    6.0812   -2.7754    0.0000 C   0  0  0  0  0  0  0  0  0  0  0  0
    6.6648   -3.5801    0.0000 C   0  0  1  0  0  0  0  0  0  0  0  0
    5.1350   -5.0801    0.0000 C   0  0  0  0  0  0  0  0  0  0  0  0
    3.7690   -1.7141    0.0000 C   0  0  0  0  0  0  0  0  0  0  0  0
    4.7690   -1.7141    0.0000 C   0  0  0  0  0  0  0  0  0  0  0  0
    7.6648   -3.5801    0.0000 C   0  0  0  0  0  0  0  0  0  0  0  0
    8.1648   -4.4462    0.0000 C   0  0  0  0  0  0  0  0  0  0  0  0
    8.1648   -2.7141    0.0000 C   0  0  0  0  0  0  0  0  0  0  0  0
   20.1648    2.4820    0.0000 C   0  0  0  0  0  0  0  0  0  0  0  0
   21.1648    2.4820    0.0000 C   0  0  0  0  0  0  0  0  0  0  0  0
   21.6648    3.3481    0.0000 C   0  0  0  0  0  0  0  0  0  0  0  0
   19.6648    3.3481    0.0000 C   0  0  0  0  0  0  0  0  0  0  0  0
   21.1648    4.2141    0.0000 C   0  0  0  0  0  0  0  0  0  0  0  0
   20.1648    4.2141    0.0000 C   0  0  0  0  0  0  0  0  0  0  0  0
    9.1648   -2.7141    0.0000 C   0  0  0  0  0  0  0  0  0  0  0  0
   20.1648    1.4820    0.0000 C   0  0  0  0  0  0  0  0  0  0  0  0
   19.2988    1.9820    0.0000 C   0  0  0  0  0  0  0  0  0  0  0  0
   18.6648    3.3481    0.0000 C   0  0  0  0  0  0  0  0  0  0  0  0
   19.6648    5.0801    0.0000 C   0  0  0  0  0  0  0  0  0  0  0  0
    9.6648   -1.8481    0.0000 C   0  0  0  0  0  0  0  0  0  0  0  0
   18.1648    2.4820    0.0000 C   0  0  0  0  0  0  0  0  0  0  0  0
   10.6648   -1.8481    0.0000 C   0  0  0  0  0  0  0  0  0  0  0  0
   17.1648    2.4820    0.0000 C   0  0  0  0  0  0  0  0  0  0  0  0
   11.1648   -2.7141    0.0000 C   0  0  0  0  0  0  0  0  0  0  0  0
   11.1648   -0.9821    0.0000 C   0  0  0  0  0  0  0  0  0  0  0  0
   16.6648    3.3481    0.0000 C   0  0  0  0  0  0  0  0  0  0  0  0
   16.6648    1.6160    0.0000 C   0  0  0  0  0  0  0  0  0  0  0  0
   12.1648   -0.9821    0.0000 C   0  0  0  0  0  0  0  0  0  0  0  0
   15.6648    1.6160    0.0000 C   0  0  0  0  0  0  0  0  0  0  0  0
   12.6648   -0.1160    0.0000 C   0  0  0  0  0  0  0  0  0  0  0  0
   15.1648    0.7500    0.0000 C   0  0  0  0  0  0  0  0  0  0  0  0
   14.1648    0.7500    0.0000 C   0  0  0  0  0  0  0  0  0  0  0  0
   13.6648   -0.1160    0.0000 C   0  0  0  0  0  0  0  0  0  0  0  0
   13.6648    1.6160    0.0000 C   0  0  0  0  0  0  0  0  0  0  0  0
    3.8705   -5.0551    0.0000 H   0  0  0  0  0  0  0  0  0  0  0  0
    4.6675   -5.0551    0.0000 H   0  0  0  0  0  0  0  0  0  0  0  0
    3.1909   -2.4975    0.0000 H   0  0  0  0  0  0  0  0  0  0  0  0
    2.7924   -3.1878    0.0000 H   0  0  0  0  0  0  0  0  0  0  0  0
    3.4030   -4.7001    0.0000 H   0  0  0  0  0  0  0  0  0  0  0  0
    6.2738   -2.1861    0.0000 H   0  0  0  0  0  0  0  0  0  0  0  0
    6.9466   -4.1324    0.0000 H   0  0  0  0  0  0  0  0  0  0  0  0
    4.5150   -5.0801    0.0000 H   0  0  0  0  0  0  0  0  0  0  0  0
    5.1350   -5.7001    0.0000 H   0  0  0  0  0  0  0  0  0  0  0  0
    5.7550   -5.0801    0.0000 H   0  0  0  0  0  0  0  0  0  0  0  0
    5.3059   -2.0241    0.0000 H   0  0  0  0  0  0  0  0  0  0  0  0
    5.0790   -1.1772    0.0000 H   0  0  0  0  0  0  0  0  0  0  0  0
    4.2320   -1.4041    0.0000 H   0  0  0  0  0  0  0  0  0  0  0  0
    4.3059   -1.4041    0.0000 H   0  0  0  0  0  0  0  0  0  0  0  0
    3.4590   -1.1772    0.0000 H   0  0  0  0  0  0  0  0  0  0  0  0
    3.2320   -2.0241    0.0000 H   0  0  0  0  0  0  0  0  0  0  0  0
    2.0000   -4.2701    0.0000 H   0  0  0  0  0  0  0  0  0  0  0  0
    7.6279   -4.7562    0.0000 H   0  0  0  0  0  0  0  0  0  0  0  0
    8.4748   -4.9831    0.0000 H   0  0  0  0  0  0  0  0  0  0  0  0
    8.7018   -4.1362    0.0000 H   0  0  0  0  0  0  0  0  0  0  0  0
    7.8548   -2.1772    0.0000 H   0  0  0  0  0  0  0  0  0  0  0  0
   21.0572    1.8715    0.0000 H   0  0  0  0  0  0  0  0  0  0  0  0
   21.7474    2.2700    0.0000 H   0  0  0  0  0  0  0  0  0  0  0  0
   22.1398    2.9496    0.0000 H   0  0  0  0  0  0  0  0  0  0  0  0
   22.1398    3.7466    0.0000 H   0  0  0  0  0  0  0  0  0  0  0  0
   21.7474    4.4262    0.0000 H   0  0  0  0  0  0  0  0  0  0  0  0
   21.0572    4.8247    0.0000 H   0  0  0  0  0  0  0  0  0  0  0  0
    9.4748   -3.2510    0.0000 H   0  0  0  0  0  0  0  0  0  0  0  0
   18.9888    2.5190    0.0000 H   0  0  0  0  0  0  0  0  0  0  0  0
   19.5448    1.4820    0.0000 H   0  0  0  0  0  0  0  0  0  0  0  0
   20.1648    0.8621    0.0000 H   0  0  0  0  0  0  0  0  0  0  0  0
   20.7848    1.4820    0.0000 H   0  0  0  0  0  0  0  0  0  0  0  0
   18.7619    1.6720    0.0000 H   0  0  0  0  0  0  0  0  0  0  0  0
   19.6088    1.4451    0.0000 H   0  0  0  0  0  0  0  0  0  0  0  0
   18.3548    3.8850    0.0000 H   0  0  0  0  0  0  0  0  0  0  0  0
   20.2018    5.3901    0.0000 H   0  0  0  0  0  0  0  0  0  0  0  0
   19.3548    5.6171    0.0000 H   0  0  0  0  0  0  0  0  0  0  0  0
   19.1279    4.7701    0.0000 H   0  0  0  0  0  0  0  0  0  0  0  0
    9.3548   -1.3111    0.0000 H   0  0  0  0  0  0  0  0  0  0  0  0
   18.4748    1.9451    0.0000 H   0  0  0  0  0  0  0  0  0  0  0  0
   10.6279   -3.0241    0.0000 H   0  0  0  0  0  0  0  0  0  0  0  0
   11.4748   -3.2510    0.0000 H   0  0  0  0  0  0  0  0  0  0  0  0
   11.7018   -2.4041    0.0000 H   0  0  0  0  0  0  0  0  0  0  0  0
   10.8548   -0.4451    0.0000 H   0  0  0  0  0  0  0  0  0  0  0  0
   17.2018    3.6581    0.0000 H   0  0  0  0  0  0  0  0  0  0  0  0
   16.3548    3.8850    0.0000 H   0  0  0  0  0  0  0  0  0  0  0  0
   16.1279    3.0381    0.0000 H   0  0  0  0  0  0  0  0  0  0  0  0
   16.9748    1.0791    0.0000 H   0  0  0  0  0  0  0  0  0  0  0  0
   12.4748   -1.5190    0.0000 H   0  0  0  0  0  0  0  0  0  0  0  0
   15.3548    2.1530    0.0000 H   0  0  0  0  0  0  0  0  0  0  0  0
   12.3548    0.4209    0.0000 H   0  0  0  0  0  0  0  0  0  0  0  0
   15.4748    0.2131    0.0000 H   0  0  0  0  0  0  0  0  0  0  0  0
   13.9748   -0.6530    0.0000 H   0  0  0  0  0  0  0  0  0  0  0  0
   14.2018    1.9260    0.0000 H   0  0  0  0  0  0  0  0  0  0  0  0
   13.3548    2.1530    0.0000 H   0  0  0  0  0  0  0  0  0  0  0  0
   13.1279    1.3060    0.0000 H   0  0  0  0  0  0  0  0  0  0  0  0
  1  3  1  0  0  0  0
  1 10  1  0  0  0  0
  2 59  1  0  0  0  0
  3  5  1  0  0  0  0
  3  6  1  0  0  0  0
  3 11  1  1  0  0  0
  4  5  1  0  0  0  0
  4  7  1  0  0  0  0
  4 12  1  0  0  0  0
  4 13  1  0  0  0  0
  5  9  2  0  0  0  0
  6  8  1  0  0  0  0
  6 43  1  0  0  0  0
  6 44  1  0  0  0  0
  7  8  1  0  0  0  0
  7 45  1  0  0  0  0
  7 46  1  0  0  0  0
  8  2  1  0  0  0  0
  8 47  1  6  0  0  0
  9 10  1  0  0  0  0
  9 48  1  0  0  0  0
 10 14  1  0  0  0  0
 10 49  1  6  0  0  0
 11 50  1  0  0  0  0
 11 51  1  0  0  0  0
 11 52  1  0  0  0  0
 12 56  1  0  0  0  0
 12 57  1  0  0  0  0
 12 58  1  0  0  0  0
 13 53  1  0  0  0  0
 13 54  1  0  0  0  0
 13 55  1  0  0  0  0
 14 15  1  0  0  0  0
 14 16  2  0  0  0  0
 15 60  1  0  0  0  0
 15 61  1  0  0  0  0
 15 62  1  0  0  0  0
 16 23  1  0  0  0  0
 16 63  1  0  0  0  0
 17 18  1  0  0  0  0
 17 20  1  0  0  0  0
 17 24  1  0  0  0  0
 17 25  1  0  0  0  0
 18 19  1  0  0  0  0
 18 64  1  0  0  0  0
 18 65  1  0  0  0  0
 19 21  1  0  0  0  0
 19 66  1  0  0  0  0
 19 67  1  0  0  0  0
 20 22  2  0  0  0  0
 20 26  1  0  0  0  0
 21 22  1  0  0  0  0
 21 68  1  0  0  0  0
 21 69  1  0  0  0  0
 22 27  1  0  0  0  0
 23 28  2  0  0  0  0
 23 70  1  0  0  0  0
 24 72  1  0  0  0  0
 24 73  1  0  0  0  0
 24 74  1  0  0  0  0
 25 71  1  0  0  0  0
 25 75  1  0  0  0  0
 25 76  1  0  0  0  0
 26 29  2  0  0  0  0
 26 77  1  0  0  0  0
 27 78  1  0  0  0  0
 27 79  1  0  0  0  0
 27 80  1  0  0  0  0
 28 30  1  0  0  0  0
 28 81  1  0  0  0  0
 29 31  1  0  0  0  0
 29 82  1  0  0  0  0
 30 32  1  0  0  0  0
 30 33  2  0  0  0  0
 31 34  1  0  0  0  0
 31 35  2  0  0  0  0
 32 83  1  0  0  0  0
 32 84  1  0  0  0  0
 32 85  1  0  0  0  0
 33 36  1  0  0  0  0
 33 86  1  0  0  0  0
 34 87  1  0  0  0  0
 34 88  1  0  0  0  0
 34 89  1  0  0  0  0
 35 37  1  0  0  0  0
 35 90  1  0  0  0  0
 36 38  2  0  0  0  0
 36 91  1  0  0  0  0
 37 39  2  0  0  0  0
 37 92  1  0  0  0  0
 38 41  1  0  0  0  0
 38 93  1  0  0  0  0
 39 40  1  0  0  0  0
 39 94  1  0  0  0  0
 40 41  2  0  0  0  0
 40 42  1  0  0  0  0
 41 95  1  0  0  0  0
 42 96  1  0  0  0  0
 42 97  1  0  0  0  0
 42 98  1  0  0  0  0
M  END
>  <PUBCHEM_COMPOUND_CID>
15847405

>  <PUBCHEM_COMPOUND_CANONICALIZED>
1

>  <PUBCHEM_CACTVS_COMPLEXITY>
1290

>  <PUBCHEM_CACTVS_HBOND_ACCEPTOR>
2

>  <PUBCHEM_CACTVS_HBOND_DONOR>
1

>  <PUBCHEM_CACTVS_ROTATABLE_BOND>
9

>  <PUBCHEM_CACTVS_SUBSKEYS>
AAADcfB8MAAAAAAAAAAAAAAAAAAAAQAAAAAwQAAAAAAAAEAAAAAAGgAACAAADlSggAICAAAABgCAAiBCAAAAAAAgAAAICAAAAAgIFAIAIQACUAAFgAAIoAOA4NwPAAAAAAAAAAAAAAYQAAAAAAAAAAAAAA==

>  <PUBCHEM_IUPAC_OPENEYE_NAME>
(2S,6S,7aR)-4,4,7a-trimethyl-2-[(1E,3E,5E,7E,9E,11E,13E,15E)-1,5,10,14-tetramethyl-16-(2,6,6-trimethylcyclohexen-1-yl)hexadeca-1,3,5,7,9,11,13,15-octaenyl]-2,5,6,7-tetrahydrobenzofuran-6-ol

>  <PUBCHEM_IUPAC_CAS_NAME>
(2S,6S,7aR)-4,4,7a-trimethyl-2-[(2E,4E,6E,8E,10E,12E,14E,16E)-6,11,15-trimethyl-17-(2,6,6-trimethyl-1-cyclohexenyl)heptadeca-2,4,6,8,10,12,14,16-octaen-2-yl]-2,5,6,7-tetrahydrobenzofuran-6-ol

>  <PUBCHEM_IUPAC_NAME>
(2S,6S,7aR)-4,4,7a-trimethyl-2-[(2E,4E,6E,8E,10E,12E,14E,16E)-6,11,15-trimethyl-17-(2,6,6-trimethylcyclohexen-1-yl)heptadeca-2,4,6,8,10,12,14,16-octaen-2-yl]-2,5,6,7-tetrahydro-1-benzofuran-6-ol

>  <PUBCHEM_IUPAC_SYSTEMATIC_NAME>
(2S,6S,7aR)-4,4,7a-trimethyl-2-[(2E,4E,6E,8E,10E,12E,14E,16E)-6,11,15-trimethyl-17-(2,6,6-trimethylcyclohexen-1-yl)heptadeca-2,4,6,8,10,12,14,16-octaen-2-yl]-2,5,6,7-tetrahydro-1-benzofuran-6-ol

>  <PUBCHEM_IUPAC_TRADITIONAL_NAME>
(2S,6S,7aR)-4,4,7a-trimethyl-2-[(1E,3E,5E,7E,9E,11E,13E,15E)-1,5,10,14-tetramethyl-16-(2,6,6-trimethylcyclohexen-1-yl)hexadeca-1,3,5,7,9,11,13,15-octaenyl]-2,5,6,7-tetrahydrobenzofuran-6-ol

>  <PUBCHEM_IUPAC_INCHI>
InChI=1S/C40H56O2/c1-29(18-13-19-31(3)23-24-35-32(4)22-15-25-38(35,6)7)16-11-12-17-30(2)20-14-21-33(5)36-26-37-39(8,9)27-34(41)28-40(37,10)42-36/h11-14,16-21,23-24,26,34,36,41H,15,22,25,27-28H2,1-10H3/b12-11+,18-13+,20-14+,24-23+,29-16+,30-17+,31-19+,33-21+/t34-,36-,40+/m0/s1

>  <PUBCHEM_IUPAC_INCHIKEY>
DCWLOCNJVDYFMA-TWQKQLNXSA-N

>  <PUBCHEM_XLOGP3_AA>
11.3

>  <PUBCHEM_EXACT_MASS>
568.428

>  <PUBCHEM_MOLECULAR_FORMULA>
C40H56O2

>  <PUBCHEM_MOLECULAR_WEIGHT>
568.886

>  <PUBCHEM_OPENEYE_CAN_SMILES>
CC1=C(C(CCC1)(C)C)C=CC(=CC=CC(=CC=CC=C(C)C=CC=C(C)C2C=C3C(CC(CC3(O2)C)O)(C)C)C)C

>  <PUBCHEM_OPENEYE_ISO_SMILES>
CC1=C(C(CCC1)(C)C)/C=C/C(=C/C=C/C(=C/C=C/C=C(\C)/C=C/C=C(\C)/[C@@H]2C=C3[C@](O2)(C[C@H](CC3(C)C)O)C)/C)/C

>  <PUBCHEM_CACTVS_TPSA>
29.5

>  <PUBCHEM_MONOISOTOPIC_WEIGHT>
568.428

>  <PUBCHEM_TOTAL_CHARGE>
0

>  <PUBCHEM_HEAVY_ATOM_COUNT>
42

>  <PUBCHEM_ATOM_DEF_STEREO_COUNT>
3

>  <PUBCHEM_ATOM_UDEF_STEREO_COUNT>
0

>  <PUBCHEM_BOND_DEF_STEREO_COUNT>
8

>  <PUBCHEM_BOND_UDEF_STEREO_COUNT>
0

>  <PUBCHEM_ISOTOPIC_ATOM_COUNT>
0

>  <PUBCHEM_COMPONENT_COUNT>
1

>  <PUBCHEM_CACTVS_TAUTO_COUNT>
1

>  <PUBCHEM_COORDINATE_TYPE>
1
5
255

>  <PUBCHEM_BONDANNOTATIONS>
10  14  5
8  2  5
3  11  5

$$$$
