15895794
 OpenBabel06101807152D

 34 36  0  0  0  0  0  0  0  0999 V2000
    6.0682   -2.3877    0.0000 O   0  0  0  0  0  0  0  0  0  0  0  0
   10.3984    1.1123    0.0000 O   0  0  0  0  0  0  0  0  0  0  0  0
    6.0682    0.6123    0.0000 O   0  0  0  0  0  0  0  0  0  0  0  0
    8.6663    2.1123    0.0000 O   0  0  0  0  0  0  0  0  0  0  0  0
   10.3984   -0.8877    0.0000 O   0  0  0  0  0  0  0  0  0  0  0  0
    2.5381   -2.4118    0.0000 O   0  0  0  0  0  0  0  0  0  0  0  0
    6.9343   -0.8877    0.0000 C   0  0  0  0  0  0  0  0  0  0  0  0
    7.8003   -0.3877    0.0000 C   0  0  0  0  0  0  0  0  0  0  0  0
    5.2022   -0.8877    0.0000 C   0  0  0  0  0  0  0  0  0  0  0  0
    6.0682   -0.3877    0.0000 C   0  0  0  0  0  0  0  0  0  0  0  0
    5.2022   -1.8877    0.0000 C   0  0  0  0  0  0  0  0  0  0  0  0
    8.6663   -0.8877    0.0000 C   0  0  0  0  0  0  0  0  0  0  0  0
    7.8003    0.6123    0.0000 C   0  0  0  0  0  0  0  0  0  0  0  0
    6.9343   -1.8877    0.0000 C   0  0  0  0  0  0  0  0  0  0  0  0
    4.3083   -0.3530    0.0000 C   0  0  0  0  0  0  0  0  0  0  0  0
    8.6663    1.1123    0.0000 C   0  0  0  0  0  0  0  0  0  0  0  0
    9.5323   -0.3877    0.0000 C   0  0  0  0  0  0  0  0  0  0  0  0
    9.5323    0.6123    0.0000 C   0  0  0  0  0  0  0  0  0  0  0  0
    4.3083   -2.4223    0.0000 C   0  0  0  0  0  0  0  0  0  0  0  0
    3.4022   -0.8669    0.0000 C   0  0  0  0  0  0  0  0  0  0  0  0
    3.4022   -1.9085    0.0000 C   0  0  0  0  0  0  0  0  0  0  0  0
   11.2644    0.6123    0.0000 C   0  0  0  0  0  0  0  0  0  0  0  0
    8.6663   -1.5077    0.0000 H   0  0  0  0  0  0  0  0  0  0  0  0
    7.2634    0.9223    0.0000 H   0  0  0  0  0  0  0  0  0  0  0  0
    7.4712   -2.1977    0.0000 H   0  0  0  0  0  0  0  0  0  0  0  0
    4.3154    0.2670    0.0000 H   0  0  0  0  0  0  0  0  0  0  0  0
    4.3154   -3.0423    0.0000 H   0  0  0  0  0  0  0  0  0  0  0  0
    2.8665   -0.5548    0.0000 H   0  0  0  0  0  0  0  0  0  0  0  0
    8.1294    2.4223    0.0000 H   0  0  0  0  0  0  0  0  0  0  0  0
   10.3984   -1.5077    0.0000 H   0  0  0  0  0  0  0  0  0  0  0  0
    2.0000   -2.1039    0.0000 H   0  0  0  0  0  0  0  0  0  0  0  0
   10.9544    0.0754    0.0000 H   0  0  0  0  0  0  0  0  0  0  0  0
   11.8013    0.3023    0.0000 H   0  0  0  0  0  0  0  0  0  0  0  0
   11.5744    1.1493    0.0000 H   0  0  0  0  0  0  0  0  0  0  0  0
  1 11  1  0  0  0  0
  1 14  1  0  0  0  0
  2 18  1  0  0  0  0
  2 22  1  0  0  0  0
  3 10  2  0  0  0  0
  4 16  1  0  0  0  0
  4 29  1  0  0  0  0
  5 17  1  0  0  0  0
  5 30  1  0  0  0  0
  6 21  1  0  0  0  0
  6 31  1  0  0  0  0
  7  8  1  0  0  0  0
  7 10  1  0  0  0  0
  7 14  2  0  0  0  0
  8 12  2  0  0  0  0
  8 13  1  0  0  0  0
  9 10  1  0  0  0  0
  9 11  2  0  0  0  0
  9 15  1  0  0  0  0
 11 19  1  0  0  0  0
 12 17  1  0  0  0  0
 12 23  1  0  0  0  0
 13 16  2  0  0  0  0
 13 24  1  0  0  0  0
 14 25  1  0  0  0  0
 15 20  2  0  0  0  0
 15 26  1  0  0  0  0
 16 18  1  0  0  0  0
 17 18  2  0  0  0  0
 19 21  2  0  0  0  0
 19 27  1  0  0  0  0
 20 21  1  0  0  0  0
 20 28  1  0  0  0  0
 22 32  1  0  0  0  0
 22 33  1  0  0  0  0
 22 34  1  0  0  0  0
M  END
>  <PUBCHEM_COMPOUND_CID>
15895794

>  <PUBCHEM_COMPOUND_CANONICALIZED>
1

>  <PUBCHEM_CACTVS_COMPLEXITY>
450

>  <PUBCHEM_CACTVS_HBOND_ACCEPTOR>
6

>  <PUBCHEM_CACTVS_HBOND_DONOR>
3

>  <PUBCHEM_CACTVS_ROTATABLE_BOND>
2

>  <PUBCHEM_CACTVS_SUBSKEYS>
AAADccB4OAAAAAAAAAAAAAAAAAAAAAAAAAAwYIAAAAAAAACBQAAAGgAACAAADASgmAIyBoAABgCIAqBSAAACCAAkIAAIiAEGiMgNJzaGNRqAcWMl4BULuYeI7PzOIAABCAAIQABAAAIQABCAAAAAAAAAAA==

>  <PUBCHEM_IUPAC_OPENEYE_NAME>
3-(3,5-dihydroxy-4-methoxy-phenyl)-7-hydroxy-chromen-4-one

>  <PUBCHEM_IUPAC_CAS_NAME>
3-(3,5-dihydroxy-4-methoxyphenyl)-7-hydroxy-1-benzopyran-4-one

>  <PUBCHEM_IUPAC_NAME>
3-(3,5-dihydroxy-4-methoxyphenyl)-7-hydroxychromen-4-one

>  <PUBCHEM_IUPAC_SYSTEMATIC_NAME>
3-[4-methoxy-3,5-bis(oxidanyl)phenyl]-7-oxidanyl-chromen-4-one

>  <PUBCHEM_IUPAC_TRADITIONAL_NAME>
3-(3,5-dihydroxy-4-methoxy-phenyl)-7-hydroxy-chromone

>  <PUBCHEM_IUPAC_INCHI>
InChI=1S/C16H12O6/c1-21-16-12(18)4-8(5-13(16)19)11-7-22-14-6-9(17)2-3-10(14)15(11)20/h2-7,17-19H,1H3

>  <PUBCHEM_IUPAC_INCHIKEY>
YPSHOHKAIYYZFR-UHFFFAOYSA-N

>  <PUBCHEM_XLOGP3_AA>
2.1

>  <PUBCHEM_EXACT_MASS>
300.063

>  <PUBCHEM_MOLECULAR_FORMULA>
C16H12O6

>  <PUBCHEM_MOLECULAR_WEIGHT>
300.266

>  <PUBCHEM_OPENEYE_CAN_SMILES>
COC1=C(C=C(C=C1O)C2=COC3=C(C2=O)C=CC(=C3)O)O

>  <PUBCHEM_OPENEYE_ISO_SMILES>
COC1=C(C=C(C=C1O)C2=COC3=C(C2=O)C=CC(=C3)O)O

>  <PUBCHEM_CACTVS_TPSA>
96.2

>  <PUBCHEM_MONOISOTOPIC_WEIGHT>
300.063

>  <PUBCHEM_TOTAL_CHARGE>
0

>  <PUBCHEM_HEAVY_ATOM_COUNT>
22

>  <PUBCHEM_ATOM_DEF_STEREO_COUNT>
0

>  <PUBCHEM_ATOM_UDEF_STEREO_COUNT>
0

>  <PUBCHEM_BOND_DEF_STEREO_COUNT>
0

>  <PUBCHEM_BOND_UDEF_STEREO_COUNT>
0

>  <PUBCHEM_ISOTOPIC_ATOM_COUNT>
0

>  <PUBCHEM_COMPONENT_COUNT>
1

>  <PUBCHEM_CACTVS_TAUTO_COUNT>
25

>  <PUBCHEM_COORDINATE_TYPE>
1
5
255

>  <PUBCHEM_BONDANNOTATIONS>
1  11  8
1  14  8
11  19  8
12  17  8
13  16  8
15  20  8
16  18  8
17  18  8
19  21  8
20  21  8
7  10  8
7  14  8
8  12  8
8  13  8
9  10  8
9  11  8
9  15  8

$$$$
