15934091
 OpenBabel06101807152D

 59 62  0  0  1  0  0  0  0  0999 V2000
    8.5991   -2.7819    0.0000 O   0  0  0  0  0  0  0  0  0  0  0  0
   10.3312   -2.7819    0.0000 O   0  0  0  0  0  0  0  0  0  0  0  0
    6.8671   -4.7819    0.0000 O   0  0  0  0  0  0  0  0  0  0  0  0
    8.5991   -5.7819    0.0000 O   0  0  0  0  0  0  0  0  0  0  0  0
   10.3312   -4.7819    0.0000 O   0  0  0  0  0  0  0  0  0  0  0  0
    6.0010   -3.2819    0.0000 O   0  0  0  0  0  0  0  0  0  0  0  0
   12.0871    0.2806    0.0000 O   0  0  0  0  0  0  0  0  0  0  0  0
    8.5849    0.2973    0.0000 O   0  0  0  0  0  0  0  0  0  0  0  0
    5.1350   -1.7819    0.0000 O   0  0  0  0  0  0  0  0  0  0  0  0
    9.4948    1.7906    0.0000 O   0  0  0  0  0  0  0  0  0  0  0  0
    2.5369   -3.2819    0.0000 O   0  0  0  0  0  0  0  0  0  0  0  0
    3.4030   -1.7819    0.0000 O   0  0  0  0  0  0  0  0  0  0  0  0
   11.2423    5.7839    0.0000 O   0  0  0  0  0  0  0  0  0  0  0  0
    7.7331   -4.2819    0.0000 C   0  0  1  0  0  0  0  0  0  0  0  0
    8.5991   -4.7819    0.0000 C   0  0  1  0  0  0  0  0  0  0  0  0
    7.7331   -3.2819    0.0000 C   0  0  1  0  0  0  0  0  0  0  0  0
    9.4651   -4.2819    0.0000 C   0  0  2  0  0  0  0  0  0  0  0  0
    9.4651   -3.2819    0.0000 C   0  0  1  0  0  0  0  0  0  0  0  0
    6.8671   -2.7819    0.0000 C   0  0  0  0  0  0  0  0  0  0  0  0
   10.3312   -1.7819    0.0000 C   0  0  0  0  0  0  0  0  0  0  0  0
   11.2312   -1.2576    0.0000 C   0  0  0  0  0  0  0  0  0  0  0  0
    9.4311   -1.2576    0.0000 C   0  0  0  0  0  0  0  0  0  0  0  0
   11.2192   -0.2160    0.0000 C   0  0  0  0  0  0  0  0  0  0  0  0
    5.1350   -2.7819    0.0000 C   0  0  0  0  0  0  0  0  0  0  0  0
   10.3551    0.2873    0.0000 C   0  0  0  0  0  0  0  0  0  0  0  0
    9.4431   -0.2160    0.0000 C   0  0  0  0  0  0  0  0  0  0  0  0
   10.3589    1.2873    0.0000 C   0  0  0  0  0  0  0  0  0  0  0  0
    4.2690   -3.2819    0.0000 C   0  0  0  0  0  0  0  0  0  0  0  0
   11.2269    1.7840    0.0000 C   0  0  0  0  0  0  0  0  0  0  0  0
   12.0910    1.2806    0.0000 C   0  0  0  0  0  0  0  0  0  0  0  0
   11.2307    2.7840    0.0000 C   0  0  0  0  0  0  0  0  0  0  0  0
    3.4030   -2.7819    0.0000 C   0  0  0  0  0  0  0  0  0  0  0  0
   12.0987    3.2806    0.0000 C   0  0  0  0  0  0  0  0  0  0  0  0
   10.3667    3.2873    0.0000 C   0  0  0  0  0  0  0  0  0  0  0  0
   12.1025    4.2806    0.0000 C   0  0  0  0  0  0  0  0  0  0  0  0
   10.3705    4.2873    0.0000 C   0  0  0  0  0  0  0  0  0  0  0  0
   11.2385    4.7840    0.0000 C   0  0  0  0  0  0  0  0  0  0  0  0
    7.7331   -4.9019    0.0000 H   0  0  0  0  0  0  0  0  0  0  0  0
    9.1360   -5.0919    0.0000 H   0  0  0  0  0  0  0  0  0  0  0  0
    7.7331   -2.6619    0.0000 H   0  0  0  0  0  0  0  0  0  0  0  0
   10.0021   -3.9719    0.0000 H   0  0  0  0  0  0  0  0  0  0  0  0
    9.4651   -2.6619    0.0000 H   0  0  0  0  0  0  0  0  0  0  0  0
    7.2656   -2.3069    0.0000 H   0  0  0  0  0  0  0  0  0  0  0  0
    6.4685   -2.3069    0.0000 H   0  0  0  0  0  0  0  0  0  0  0  0
    6.8671   -5.4019    0.0000 H   0  0  0  0  0  0  0  0  0  0  0  0
    8.0622   -6.0919    0.0000 H   0  0  0  0  0  0  0  0  0  0  0  0
   10.3312   -5.4019    0.0000 H   0  0  0  0  0  0  0  0  0  0  0  0
   11.7705   -1.5634    0.0000 H   0  0  0  0  0  0  0  0  0  0  0  0
    8.8918   -1.5634    0.0000 H   0  0  0  0  0  0  0  0  0  0  0  0
    3.8705   -3.7568    0.0000 H   0  0  0  0  0  0  0  0  0  0  0  0
    4.6675   -3.7568    0.0000 H   0  0  0  0  0  0  0  0  0  0  0  0
   12.6291    1.5886    0.0000 H   0  0  0  0  0  0  0  0  0  0  0  0
    8.0433   -0.0044    0.0000 H   0  0  0  0  0  0  0  0  0  0  0  0
   12.6344    2.9686    0.0000 H   0  0  0  0  0  0  0  0  0  0  0  0
    9.8285    2.9794    0.0000 H   0  0  0  0  0  0  0  0  0  0  0  0
   12.6407    4.5885    0.0000 H   0  0  0  0  0  0  0  0  0  0  0  0
    9.8348    4.5994    0.0000 H   0  0  0  0  0  0  0  0  0  0  0  0
    2.0000   -2.9719    0.0000 H   0  0  0  0  0  0  0  0  0  0  0  0
   11.7804    6.0919    0.0000 H   0  0  0  0  0  0  0  0  0  0  0  0
  1 16  1  0  0  0  0
  1 18  1  0  0  0  0
  2 20  1  0  0  0  0
  3 45  1  0  0  0  0
  4 46  1  0  0  0  0
  5 47  1  0  0  0  0
  6 19  1  0  0  0  0
  6 24  1  0  0  0  0
  7 23  1  0  0  0  0
  7 30  1  0  0  0  0
  8 26  1  0  0  0  0
  8 53  1  0  0  0  0
  9 24  2  0  0  0  0
 10 27  2  0  0  0  0
 11 32  1  0  0  0  0
 11 58  1  0  0  0  0
 12 32  2  0  0  0  0
 13 37  1  0  0  0  0
 13 59  1  0  0  0  0
 14  3  1  0  0  0  0
 14 15  1  6  0  0  0
 14 38  1  0  0  0  0
 15  4  1  0  0  0  0
 15 17  1  1  0  0  0
 15 39  1  0  0  0  0
 16 14  1  6  0  0  0
 16 19  1  0  0  0  0
 16 40  1  0  0  0  0
 17  5  1  0  0  0  0
 17 18  1  6  0  0  0
 17 41  1  0  0  0  0
 18  2  1  0  0  0  0
 18 42  1  6  0  0  0
 19 43  1  0  0  0  0
 19 44  1  0  0  0  0
 20 21  1  0  0  0  0
 20 22  2  0  0  0  0
 21 23  2  0  0  0  0
 21 48  1  0  0  0  0
 22 26  1  0  0  0  0
 22 49  1  0  0  0  0
 23 25  1  0  0  0  0
 24 28  1  0  0  0  0
 25 26  2  0  0  0  0
 25 27  1  0  0  0  0
 27 29  1  0  0  0  0
 28 32  1  0  0  0  0
 28 50  1  0  0  0  0
 28 51  1  0  0  0  0
 29 30  2  0  0  0  0
 29 31  1  0  0  0  0
 30 52  1  0  0  0  0
 31 33  2  0  0  0  0
 31 34  1  0  0  0  0
 33 35  1  0  0  0  0
 33 54  1  0  0  0  0
 34 36  2  0  0  0  0
 34 55  1  0  0  0  0
 35 37  2  0  0  0  0
 35 56  1  0  0  0  0
 36 37  1  0  0  0  0
 36 57  1  0  0  0  0
M  END
>  <PUBCHEM_COMPOUND_CID>
15934091

>  <PUBCHEM_COMPOUND_CANONICALIZED>
1

>  <PUBCHEM_CACTVS_COMPLEXITY>
882

>  <PUBCHEM_CACTVS_HBOND_ACCEPTOR>
13

>  <PUBCHEM_CACTVS_HBOND_DONOR>
6

>  <PUBCHEM_CACTVS_ROTATABLE_BOND>
8

>  <PUBCHEM_CACTVS_SUBSKEYS>
AAADceB4PAAAAAAAAAAAAAAAAAAAAAAAAAA0YIEAAAAAAACBQAAAGgAACAAADBSwmAMwDoAABgCIAqDSCAACCAAkIAAIiAEGCMgdNzaONRqieWCl4BUPuYfI7PzOIAAACAAIAABAAAAQABAAAAAAAAAAAA==

>  <PUBCHEM_IUPAC_OPENEYE_NAME>
3-oxo-3-[[(2R,3S,4S,5R,6S)-3,4,5-trihydroxy-6-[5-hydroxy-3-(4-hydroxyphenyl)-4-oxo-chromen-7-yl]oxy-tetrahydropyran-2-yl]methoxy]propanoic acid

>  <PUBCHEM_IUPAC_CAS_NAME>
3-oxo-3-[[(2R,3S,4S,5R,6S)-3,4,5-trihydroxy-6-[[5-hydroxy-3-(4-hydroxyphenyl)-4-oxo-1-benzopyran-7-yl]oxy]-2-oxanyl]methoxy]propanoic acid

>  <PUBCHEM_IUPAC_NAME>
3-oxo-3-[[(2R,3S,4S,5R,6S)-3,4,5-trihydroxy-6-[5-hydroxy-3-(4-hydroxyphenyl)-4-oxochromen-7-yl]oxyoxan-2-yl]methoxy]propanoic acid

>  <PUBCHEM_IUPAC_SYSTEMATIC_NAME>
3-[[(2R,3S,4S,5R,6S)-6-[3-(4-hydroxyphenyl)-5-oxidanyl-4-oxidanylidene-chromen-7-yl]oxy-3,4,5-tris(oxidanyl)oxan-2-yl]methoxy]-3-oxidanylidene-propanoic acid

>  <PUBCHEM_IUPAC_TRADITIONAL_NAME>
3-keto-3-[[(2R,3S,4S,5R,6S)-3,4,5-trihydroxy-6-[5-hydroxy-3-(4-hydroxyphenyl)-4-keto-chromen-7-yl]oxy-tetrahydropyran-2-yl]methoxy]propionic acid

>  <PUBCHEM_IUPAC_INCHI>
InChI=1S/C24H22O13/c25-11-3-1-10(2-4-11)13-8-34-15-6-12(5-14(26)19(15)20(13)30)36-24-23(33)22(32)21(31)16(37-24)9-35-18(29)7-17(27)28/h1-6,8,16,21-26,31-33H,7,9H2,(H,27,28)/t16-,21-,22+,23-,24-/m1/s1

>  <PUBCHEM_IUPAC_INCHIKEY>
FRAUJUKWSKMNJY-RSEYPYQYSA-N

>  <PUBCHEM_XLOGP3_AA>
0.6

>  <PUBCHEM_EXACT_MASS>
518.106

>  <PUBCHEM_MOLECULAR_FORMULA>
C24H22O13

>  <PUBCHEM_MOLECULAR_WEIGHT>
518.427

>  <PUBCHEM_OPENEYE_CAN_SMILES>
C1=CC(=CC=C1C2=COC3=CC(=CC(=C3C2=O)O)OC4C(C(C(C(O4)COC(=O)CC(=O)O)O)O)O)O

>  <PUBCHEM_OPENEYE_ISO_SMILES>
C1=CC(=CC=C1C2=COC3=CC(=CC(=C3C2=O)O)O[C@H]4[C@@H]([C@H]([C@@H]([C@H](O4)COC(=O)CC(=O)O)O)O)O)O

>  <PUBCHEM_CACTVS_TPSA>
210

>  <PUBCHEM_MONOISOTOPIC_WEIGHT>
518.106

>  <PUBCHEM_TOTAL_CHARGE>
0

>  <PUBCHEM_HEAVY_ATOM_COUNT>
37

>  <PUBCHEM_ATOM_DEF_STEREO_COUNT>
5

>  <PUBCHEM_ATOM_UDEF_STEREO_COUNT>
0

>  <PUBCHEM_BOND_DEF_STEREO_COUNT>
0

>  <PUBCHEM_BOND_UDEF_STEREO_COUNT>
0

>  <PUBCHEM_ISOTOPIC_ATOM_COUNT>
0

>  <PUBCHEM_COMPONENT_COUNT>
1

>  <PUBCHEM_CACTVS_TAUTO_COUNT>
10

>  <PUBCHEM_COORDINATE_TYPE>
1
5
255

>  <PUBCHEM_BONDANNOTATIONS>
16  19  5
18  2  5
20  21  8
20  22  8
21  23  8
22  26  8
23  25  8
25  26  8
25  27  8
27  29  8
29  30  8
14  3  6
31  33  8
31  34  8
33  35  8
34  36  8
35  37  8
36  37  8
15  4  5
17  5  6
7  23  8
7  30  8

$$$$
