159371
 OpenBabel06101807152D

  5  0  0  0  0  0  0  0  0  0999 V2000
    2.8660    0.2500    0.0000 Eu  0  1  0  0  0 15  0  0  0  0  0  0
    4.5981    0.2500    0.0000 Eu  0  1  0  0  0 15  0  0  0  0  0  0
    3.7320    0.7500    0.0000 O   0  6  0  0  0  0  0  0  0  0  0  0
    2.0000    0.7500    0.0000 O   0  6  0  0  0  0  0  0  0  0  0  0
    2.8660   -0.7500    0.0000 O   0  6  0  0  0  0  0  0  0  0  0  0
M  CHG  5   1   3   2   3   3  -2   4  -2   5  -2
M  END
>  <PUBCHEM_COMPOUND_CID>
159371

>  <PUBCHEM_COMPOUND_CANONICALIZED>
1

>  <PUBCHEM_CACTVS_COMPLEXITY>
0

>  <PUBCHEM_CACTVS_HBOND_ACCEPTOR>
3

>  <PUBCHEM_CACTVS_HBOND_DONOR>
0

>  <PUBCHEM_CACTVS_ROTATABLE_BOND>
0

>  <PUBCHEM_CACTVS_SUBSKEYS>
AAADcQAAMAAAAAAAAAAAAABAAAAAAAAAAAAAAAAAAAAAAAAAAAAAAAAAAAAAAAAAAAAAAAAAAAAAAAAAAAAAAAAAAAAAAAAAAAAAAAAAAAAAAAAAAAAAAAAAAAAAAAAAAAAAAAAAAAAAAAAAAAAAAAAAAA==

>  <PUBCHEM_IUPAC_OPENEYE_NAME>
europium(3+);oxygen(2-)

>  <PUBCHEM_IUPAC_CAS_NAME>
europium(3+);oxygen(2-)

>  <PUBCHEM_IUPAC_NAME>
europium(3+);oxygen(2-)

>  <PUBCHEM_IUPAC_SYSTEMATIC_NAME>
europium(3+);oxygen(2-)

>  <PUBCHEM_IUPAC_TRADITIONAL_NAME>
europium(3+);oxygen(2-)

>  <PUBCHEM_IUPAC_INCHI>
InChI=1S/2Eu.3O/q2*+3;3*-2

>  <PUBCHEM_IUPAC_INCHIKEY>
AEBZCFFCDTZXHP-UHFFFAOYSA-N

>  <PUBCHEM_EXACT_MASS>
351.826

>  <PUBCHEM_MOLECULAR_FORMULA>
Eu2O3

>  <PUBCHEM_MOLECULAR_WEIGHT>
351.925

>  <PUBCHEM_OPENEYE_CAN_SMILES>
[O-2].[O-2].[O-2].[Eu+3].[Eu+3]

>  <PUBCHEM_OPENEYE_ISO_SMILES>
[O-2].[O-2].[O-2].[Eu+3].[Eu+3]

>  <PUBCHEM_CACTVS_TPSA>
3

>  <PUBCHEM_MONOISOTOPIC_WEIGHT>
353.827

>  <PUBCHEM_TOTAL_CHARGE>
0

>  <PUBCHEM_HEAVY_ATOM_COUNT>
5

>  <PUBCHEM_ATOM_DEF_STEREO_COUNT>
0

>  <PUBCHEM_ATOM_UDEF_STEREO_COUNT>
0

>  <PUBCHEM_BOND_DEF_STEREO_COUNT>
0

>  <PUBCHEM_BOND_UDEF_STEREO_COUNT>
0

>  <PUBCHEM_ISOTOPIC_ATOM_COUNT>
0

>  <PUBCHEM_COMPONENT_COUNT>
5

>  <PUBCHEM_CACTVS_TAUTO_COUNT>
1

>  <PUBCHEM_COORDINATE_TYPE>
1
5
255

$$$$
