15987477
 OpenBabel06101807152D

 62 64  0  0  1  0  0  0  0  0999 V2000
    8.9282    4.1830    0.0000 F   0  0  0  0  0  0  0  0  0  0  0  0
    9.9282    3.1830    0.0000 F   0  0  0  0  0  0  0  0  0  0  0  0
    7.9282    3.1830    0.0000 F   0  0  0  0  0  0  0  0  0  0  0  0
    9.7942   -2.3170    0.0000 O   0  0  0  0  0  0  0  0  0  0  0  0
    9.9282    2.1830    0.0000 O   0  0  0  0  0  0  0  0  0  0  0  0
    8.0622   -2.3170    0.0000 N   0  0  0  0  0  0  0  0  0  0  0  0
    2.0000   -1.8170    0.0000 N   0  0  0  0  0  0  0  0  0  0  0  0
    8.0622   -3.3170    0.0000 C   0  0  0  0  0  0  0  0  0  0  0  0
    7.1962   -1.8170    0.0000 C   0  0  3  0  0  0  0  0  0  0  0  0
    7.5622   -4.1830    0.0000 C   0  0  0  0  0  0  0  0  0  0  0  0
    8.5622   -4.1830    0.0000 C   0  0  0  0  0  0  0  0  0  0  0  0
    5.4641   -0.8170    0.0000 C   0  0  3  0  0  0  0  0  0  0  0  0
    7.1962   -0.8170    0.0000 C   0  0  0  0  0  0  0  0  0  0  0  0
    6.3301   -2.3170    0.0000 C   0  0  0  0  0  0  0  0  0  0  0  0
    6.3301   -0.3170    0.0000 C   0  0  0  0  0  0  0  0  0  0  0  0
    5.4641   -1.8170    0.0000 C   0  0  0  0  0  0  0  0  0  0  0  0
    4.5981   -0.3170    0.0000 C   0  0  0  0  0  0  0  0  0  0  0  0
    8.9282   -1.8170    0.0000 C   0  0  0  0  0  0  0  0  0  0  0  0
    3.7320   -0.8170    0.0000 C   0  0  0  0  0  0  0  0  0  0  0  0
    8.9282   -0.8170    0.0000 C   0  0  0  0  0  0  0  0  0  0  0  0
    3.2320    0.0490    0.0000 C   0  0  0  0  0  0  0  0  0  0  0  0
    4.2320   -1.6830    0.0000 C   0  0  0  0  0  0  0  0  0  0  0  0
    2.8660   -1.3170    0.0000 C   0  0  0  0  0  0  0  0  0  0  0  0
    9.7942   -0.3170    0.0000 C   0  0  0  0  0  0  0  0  0  0  0  0
    8.0622   -0.3170    0.0000 C   0  0  0  0  0  0  0  0  0  0  0  0
    9.7942    0.6830    0.0000 C   0  0  0  0  0  0  0  0  0  0  0  0
    8.0622    0.6830    0.0000 C   0  0  0  0  0  0  0  0  0  0  0  0
    8.9282    1.1830    0.0000 C   0  0  0  0  0  0  0  0  0  0  0  0
    8.9282    2.1830    0.0000 C   0  0  1  0  0  0  0  0  0  0  0  0
    8.9282    3.1830    0.0000 C   0  0  0  0  0  0  0  0  0  0  0  0
    7.9282    2.1830    0.0000 C   0  0  0  0  0  0  0  0  0  0  0  0
    8.6610   -3.1565    0.0000 H   0  0  0  0  0  0  0  0  0  0  0  0
    7.7331   -1.5070    0.0000 H   0  0  0  0  0  0  0  0  0  0  0  0
    8.6698   -4.7936    0.0000 H   0  0  0  0  0  0  0  0  0  0  0  0
    9.1448   -3.9710    0.0000 H   0  0  0  0  0  0  0  0  0  0  0  0
    6.9796   -3.9710    0.0000 H   0  0  0  0  0  0  0  0  0  0  0  0
    7.4545   -4.7936    0.0000 H   0  0  0  0  0  0  0  0  0  0  0  0
    5.4641   -0.1970    0.0000 H   0  0  0  0  0  0  0  0  0  0  0  0
    7.8067   -0.9246    0.0000 H   0  0  0  0  0  0  0  0  0  0  0  0
    7.4082   -0.2344    0.0000 H   0  0  0  0  0  0  0  0  0  0  0  0
    5.9316   -2.7919    0.0000 H   0  0  0  0  0  0  0  0  0  0  0  0
    6.7287   -2.7919    0.0000 H   0  0  0  0  0  0  0  0  0  0  0  0
    6.7287    0.1580    0.0000 H   0  0  0  0  0  0  0  0  0  0  0  0
    5.9316    0.1580    0.0000 H   0  0  0  0  0  0  0  0  0  0  0  0
    4.8535   -1.7093    0.0000 H   0  0  0  0  0  0  0  0  0  0  0  0
    5.2520   -2.3996    0.0000 H   0  0  0  0  0  0  0  0  0  0  0  0
    4.9966    0.1580    0.0000 H   0  0  0  0  0  0  0  0  0  0  0  0
    4.1996    0.1580    0.0000 H   0  0  0  0  0  0  0  0  0  0  0  0
    3.6951   -1.9930    0.0000 H   0  0  0  0  0  0  0  0  0  0  0  0
    4.5420   -2.2200    0.0000 H   0  0  0  0  0  0  0  0  0  0  0  0
    4.7690   -1.3730    0.0000 H   0  0  0  0  0  0  0  0  0  0  0  0
    3.7690    0.3590    0.0000 H   0  0  0  0  0  0  0  0  0  0  0  0
    2.9220    0.5860    0.0000 H   0  0  0  0  0  0  0  0  0  0  0  0
    2.6951   -0.2610    0.0000 H   0  0  0  0  0  0  0  0  0  0  0  0
   10.3312   -0.6270    0.0000 H   0  0  0  0  0  0  0  0  0  0  0  0
    7.5252   -0.6270    0.0000 H   0  0  0  0  0  0  0  0  0  0  0  0
   10.3312    0.9930    0.0000 H   0  0  0  0  0  0  0  0  0  0  0  0
    7.5252    0.9930    0.0000 H   0  0  0  0  0  0  0  0  0  0  0  0
    7.9282    2.8030    0.0000 H   0  0  0  0  0  0  0  0  0  0  0  0
    7.3082    2.1830    0.0000 H   0  0  0  0  0  0  0  0  0  0  0  0
    7.9282    1.5630    0.0000 H   0  0  0  0  0  0  0  0  0  0  0  0
   10.2382    1.6461    0.0000 H   0  0  0  0  0  0  0  0  0  0  0  0
  1 30  1  0  0  0  0
  2 30  1  0  0  0  0
  3 30  1  0  0  0  0
  4 18  2  0  0  0  0
  5 62  1  0  0  0  0
  6  8  1  0  0  0  0
  6  9  1  0  0  0  0
  6 18  1  0  0  0  0
  7 23  3  0  0  0  0
  8 10  1  0  0  0  0
  8 11  1  0  0  0  0
  8 32  1  0  0  0  0
  9 13  1  0  0  0  0
  9 14  1  0  0  0  0
  9 33  1  0  0  0  0
 10 11  1  0  0  0  0
 10 36  1  0  0  0  0
 10 37  1  0  0  0  0
 11 34  1  0  0  0  0
 11 35  1  0  0  0  0
 12 15  1  0  0  0  0
 12 16  1  0  0  0  0
 12 17  1  0  0  0  0
 12 38  1  0  0  0  0
 13 15  1  0  0  0  0
 13 39  1  0  0  0  0
 13 40  1  0  0  0  0
 14 16  1  0  0  0  0
 14 41  1  0  0  0  0
 14 42  1  0  0  0  0
 15 43  1  0  0  0  0
 15 44  1  0  0  0  0
 16 45  1  0  0  0  0
 16 46  1  0  0  0  0
 17 19  1  0  0  0  0
 17 47  1  0  0  0  0
 17 48  1  0  0  0  0
 18 20  1  0  0  0  0
 19 21  1  0  0  0  0
 19 22  1  0  0  0  0
 19 23  1  0  0  0  0
 20 24  2  0  0  0  0
 20 25  1  0  0  0  0
 21 52  1  0  0  0  0
 21 53  1  0  0  0  0
 21 54  1  0  0  0  0
 22 49  1  0  0  0  0
 22 50  1  0  0  0  0
 22 51  1  0  0  0  0
 24 26  1  0  0  0  0
 24 55  1  0  0  0  0
 25 27  2  0  0  0  0
 25 56  1  0  0  0  0
 26 28  2  0  0  0  0
 26 57  1  0  0  0  0
 27 28  1  0  0  0  0
 27 58  1  0  0  0  0
 28 29  1  0  0  0  0
 29  5  1  6  0  0  0
 29 30  1  0  0  0  0
 29 31  1  0  0  0  0
 31 59  1  0  0  0  0
 31 60  1  0  0  0  0
 31 61  1  0  0  0  0
M  END
>  <PUBCHEM_COMPOUND_CID>
15987477

>  <PUBCHEM_COMPOUND_CANONICALIZED>
1

>  <PUBCHEM_CACTVS_COMPLEXITY>
693

>  <PUBCHEM_CACTVS_HBOND_ACCEPTOR>
6

>  <PUBCHEM_CACTVS_HBOND_DONOR>
1

>  <PUBCHEM_CACTVS_ROTATABLE_BOND>
6

>  <PUBCHEM_CACTVS_SUBSKEYS>
AAADceB7MYAAAAAAAAAAAAAAGAAAAAAAAAAwYAAAAAAAAAABAAAAHwAACAAAD2zBmBQyAIMAAgCYBiFSEACCAAAkAAAIiAEIDMgIpjKAlRGEcQhkxgGImY+YyPCPwAAAAAAAAACQAAAAAAAAAAAAAAAAAA==

>  <PUBCHEM_IUPAC_OPENEYE_NAME>
N-[4-(2-cyano-2-methyl-propyl)cyclohexyl]-N-cyclopropyl-4-[(1S)-2,2,2-trifluoro-1-hydroxy-1-methyl-ethyl]benzamide

>  <PUBCHEM_IUPAC_CAS_NAME>
N-[4-(2-cyano-2-methylpropyl)cyclohexyl]-N-cyclopropyl-4-[(2S)-1,1,1-trifluoro-2-hydroxypropan-2-yl]benzamide

>  <PUBCHEM_IUPAC_NAME>
N-[4-(2-cyano-2-methylpropyl)cyclohexyl]-N-cyclopropyl-4-[(2S)-1,1,1-trifluoro-2-hydroxypropan-2-yl]benzamide

>  <PUBCHEM_IUPAC_SYSTEMATIC_NAME>
N-[4-(2-cyano-2-methyl-propyl)cyclohexyl]-N-cyclopropyl-4-[(2S)-1,1,1-tris(fluoranyl)-2-oxidanyl-propan-2-yl]benzamide

>  <PUBCHEM_IUPAC_TRADITIONAL_NAME>
N-[4-(2-cyano-2-methyl-propyl)cyclohexyl]-N-cyclopropyl-4-[(1S)-2,2,2-trifluoro-1-hydroxy-1-methyl-ethyl]benzamide

>  <PUBCHEM_IUPAC_INCHI>
InChI=1S/C24H31F3N2O2/c1-22(2,15-28)14-16-4-10-19(11-5-16)29(20-12-13-20)21(30)17-6-8-18(9-7-17)23(3,31)24(25,26)27/h6-9,16,19-20,31H,4-5,10-14H2,1-3H3/t16?,19?,23-/m0/s1

>  <PUBCHEM_IUPAC_INCHIKEY>
PZBZXZHGYMAIMC-RNNUUBKPSA-N

>  <PUBCHEM_XLOGP3_AA>
4.9

>  <PUBCHEM_EXACT_MASS>
436.234

>  <PUBCHEM_MOLECULAR_FORMULA>
C24H31F3N2O2

>  <PUBCHEM_MOLECULAR_WEIGHT>
436.519

>  <PUBCHEM_OPENEYE_CAN_SMILES>
CC(C)(CC1CCC(CC1)N(C2CC2)C(=O)C3=CC=C(C=C3)C(C)(C(F)(F)F)O)C#N

>  <PUBCHEM_OPENEYE_ISO_SMILES>
C[C@](C1=CC=C(C=C1)C(=O)N(C2CCC(CC2)CC(C)(C)C#N)C3CC3)(C(F)(F)F)O

>  <PUBCHEM_CACTVS_TPSA>
64.3

>  <PUBCHEM_MONOISOTOPIC_WEIGHT>
436.234

>  <PUBCHEM_TOTAL_CHARGE>
0

>  <PUBCHEM_HEAVY_ATOM_COUNT>
31

>  <PUBCHEM_ATOM_DEF_STEREO_COUNT>
1

>  <PUBCHEM_ATOM_UDEF_STEREO_COUNT>
0

>  <PUBCHEM_BOND_DEF_STEREO_COUNT>
0

>  <PUBCHEM_BOND_UDEF_STEREO_COUNT>
0

>  <PUBCHEM_ISOTOPIC_ATOM_COUNT>
0

>  <PUBCHEM_COMPONENT_COUNT>
1

>  <PUBCHEM_CACTVS_TAUTO_COUNT>
1

>  <PUBCHEM_COORDINATE_TYPE>
1
5
255

>  <PUBCHEM_BONDANNOTATIONS>
20  24  8
20  25  8
24  26  8
25  27  8
26  28  8
27  28  8
29  5  6

$$$$
