16070004
 OpenBabel06101807152D

 44 43  0  0  1  0  0  0  0  0999 V2000
    9.4651    1.8100    0.0000 O   0  0  0  0  0  0  0  0  0  0  0  0
    4.2690    0.8100    0.0000 O   0  0  0  0  0  0  0  0  0  0  0  0
    8.5991    3.3100    0.0000 O   0  0  0  0  0  0  0  0  0  0  0  0
   12.0632   -0.6900    0.0000 O   0  0  0  0  0  0  0  0  0  0  0  0
   10.3312   -2.6900    0.0000 O   0  0  0  0  0  0  0  0  0  0  0  0
    8.5991   -2.6900    0.0000 O   0  0  0  0  0  0  0  0  0  0  0  0
    2.5369    1.8100    0.0000 O   0  0  0  0  0  0  0  0  0  0  0  0
    3.4030    3.3100    0.0000 O   0  0  0  0  0  0  0  0  0  0  0  0
    6.8671    2.3100    0.0000 N   0  0  0  0  0  0  0  0  0  0  0  0
    8.5991   -0.6900    0.0000 N   0  0  0  0  0  0  0  0  0  0  0  0
    7.7331    1.8100    0.0000 C   0  0  3  0  0  0  0  0  0  0  0  0
    7.7331    0.8100    0.0000 C   0  0  0  0  0  0  0  0  0  0  0  0
    8.5991    0.3100    0.0000 C   0  0  0  0  0  0  0  0  0  0  0  0
    9.4651   -1.1900    0.0000 C   0  0  3  0  0  0  0  0  0  0  0  0
    6.0010    1.8100    0.0000 C   0  0  0  0  0  0  0  0  0  0  0  0
    5.1350    2.3100    0.0000 C   0  0  0  0  0  0  0  0  0  0  0  0
   10.3312   -0.6900    0.0000 C   0  0  0  0  0  0  0  0  0  0  0  0
    8.5991    2.3100    0.0000 C   0  0  0  0  0  0  0  0  0  0  0  0
    4.2690    1.8100    0.0000 C   0  0  3  0  0  0  0  0  0  0  0  0
   11.1972   -1.1900    0.0000 C   0  0  0  0  0  0  0  0  0  0  0  0
    9.4651   -2.1900    0.0000 C   0  0  0  0  0  0  0  0  0  0  0  0
    3.4030    2.3100    0.0000 C   0  0  0  0  0  0  0  0  0  0  0  0
    7.7331    2.4300    0.0000 H   0  0  0  0  0  0  0  0  0  0  0  0
    7.1225    0.9177    0.0000 H   0  0  0  0  0  0  0  0  0  0  0  0
    7.5210    0.2274    0.0000 H   0  0  0  0  0  0  0  0  0  0  0  0
    9.2097    0.2023    0.0000 H   0  0  0  0  0  0  0  0  0  0  0  0
    8.8112    0.8926    0.0000 H   0  0  0  0  0  0  0  0  0  0  0  0
    9.4651   -0.5700    0.0000 H   0  0  0  0  0  0  0  0  0  0  0  0
    6.8671    2.9300    0.0000 H   0  0  0  0  0  0  0  0  0  0  0  0
    8.0622   -1.0000    0.0000 H   0  0  0  0  0  0  0  0  0  0  0  0
    5.6025    1.3350    0.0000 H   0  0  0  0  0  0  0  0  0  0  0  0
    6.3996    1.3350    0.0000 H   0  0  0  0  0  0  0  0  0  0  0  0
    5.5335    2.7849    0.0000 H   0  0  0  0  0  0  0  0  0  0  0  0
    4.7365    2.7849    0.0000 H   0  0  0  0  0  0  0  0  0  0  0  0
   10.7297   -0.2151    0.0000 H   0  0  0  0  0  0  0  0  0  0  0  0
    9.9326   -0.2151    0.0000 H   0  0  0  0  0  0  0  0  0  0  0  0
    4.8059    1.5000    0.0000 H   0  0  0  0  0  0  0  0  0  0  0  0
   10.7987   -1.6650    0.0000 H   0  0  0  0  0  0  0  0  0  0  0  0
   11.5957   -1.6650    0.0000 H   0  0  0  0  0  0  0  0  0  0  0  0
   10.0021    2.1200    0.0000 H   0  0  0  0  0  0  0  0  0  0  0  0
    3.7320    0.5000    0.0000 H   0  0  0  0  0  0  0  0  0  0  0  0
   12.6002   -1.0000    0.0000 H   0  0  0  0  0  0  0  0  0  0  0  0
   10.3312   -3.3100    0.0000 H   0  0  0  0  0  0  0  0  0  0  0  0
    2.0000    2.1200    0.0000 H   0  0  0  0  0  0  0  0  0  0  0  0
  1 18  1  0  0  0  0
  1 40  1  0  0  0  0
  2 19  1  0  0  0  0
  2 41  1  0  0  0  0
  3 18  2  0  0  0  0
  4 20  1  0  0  0  0
  4 42  1  0  0  0  0
  5 21  1  0  0  0  0
  5 43  1  0  0  0  0
  6 21  2  0  0  0  0
  7 22  1  0  0  0  0
  7 44  1  0  0  0  0
  8 22  2  0  0  0  0
  9 11  1  0  0  0  0
  9 15  1  0  0  0  0
  9 29  1  0  0  0  0
 10 13  1  0  0  0  0
 10 14  1  0  0  0  0
 10 30  1  0  0  0  0
 11 12  1  0  0  0  0
 11 18  1  0  0  0  0
 11 23  1  0  0  0  0
 12 13  1  0  0  0  0
 12 24  1  0  0  0  0
 12 25  1  0  0  0  0
 13 26  1  0  0  0  0
 13 27  1  0  0  0  0
 14 17  1  0  0  0  0
 14 21  1  0  0  0  0
 14 28  1  0  0  0  0
 15 16  1  0  0  0  0
 15 31  1  0  0  0  0
 15 32  1  0  0  0  0
 16 19  1  0  0  0  0
 16 33  1  0  0  0  0
 16 34  1  0  0  0  0
 17 20  1  0  0  0  0
 17 35  1  0  0  0  0
 17 36  1  0  0  0  0
 19 22  1  0  0  0  0
 19 37  1  0  0  0  0
 20 38  1  0  0  0  0
 20 39  1  0  0  0  0
M  END
>  <PUBCHEM_COMPOUND_CID>
16070004

>  <PUBCHEM_COMPOUND_CANONICALIZED>
1

>  <PUBCHEM_CACTVS_COMPLEXITY>
376

>  <PUBCHEM_CACTVS_HBOND_ACCEPTOR>
10

>  <PUBCHEM_CACTVS_HBOND_DONOR>
7

>  <PUBCHEM_CACTVS_ROTATABLE_BOND>
13

>  <PUBCHEM_CACTVS_SUBSKEYS>
AAADceBzPAAAAAAAAAAAAAAAAAAAAAAAAAAAAAAAAAAAAAAAAAAAHgAQCAAACDzhgAYACALAAgAIAACQCAIAAAAAAAAAAIHIAAADEBAAwCAEQAAGEACRAABmAAAAAAAAAAAAAAAAAAAAAAAAAAAAAAAAAA==

>  <PUBCHEM_IUPAC_OPENEYE_NAME>
4-[(1-carboxy-3-hydroxy-propyl)amino]-2-[(3-carboxy-3-hydroxy-propyl)amino]butanoic acid

>  <PUBCHEM_IUPAC_CAS_NAME>
4-[(1-carboxy-3-hydroxypropyl)amino]-2-[(3-carboxy-3-hydroxypropyl)amino]butanoic acid

>  <PUBCHEM_IUPAC_NAME>
4-[(1-carboxy-3-hydroxypropyl)amino]-2-[(3-carboxy-3-hydroxypropyl)amino]butanoic acid

>  <PUBCHEM_IUPAC_SYSTEMATIC_NAME>
4-[[1,4-bis(oxidanyl)-1-oxidanylidene-butan-2-yl]amino]-2-[[3,4-bis(oxidanyl)-4-oxidanylidene-butyl]amino]butanoic acid

>  <PUBCHEM_IUPAC_TRADITIONAL_NAME>
4-[(1-carboxy-3-hydroxy-propyl)amino]-2-[(3-carboxy-3-hydroxy-propyl)amino]butyric acid

>  <PUBCHEM_IUPAC_INCHI>
InChI=1S/C12H22N2O8/c15-6-3-8(11(19)20)13-4-1-7(10(17)18)14-5-2-9(16)12(21)22/h7-9,13-16H,1-6H2,(H,17,18)(H,19,20)(H,21,22)

>  <PUBCHEM_IUPAC_INCHIKEY>
QUKMQOBHQMWLLR-UHFFFAOYSA-N

>  <PUBCHEM_XLOGP3_AA>
-6.6

>  <PUBCHEM_EXACT_MASS>
322.138

>  <PUBCHEM_MOLECULAR_FORMULA>
C12H22N2O8

>  <PUBCHEM_MOLECULAR_WEIGHT>
322.314

>  <PUBCHEM_OPENEYE_CAN_SMILES>
C(CNC(CCO)C(=O)O)C(C(=O)O)NCCC(C(=O)O)O

>  <PUBCHEM_OPENEYE_ISO_SMILES>
C(CNC(CCO)C(=O)O)C(C(=O)O)NCCC(C(=O)O)O

>  <PUBCHEM_CACTVS_TPSA>
176

>  <PUBCHEM_MONOISOTOPIC_WEIGHT>
322.138

>  <PUBCHEM_TOTAL_CHARGE>
0

>  <PUBCHEM_HEAVY_ATOM_COUNT>
22

>  <PUBCHEM_ATOM_DEF_STEREO_COUNT>
0

>  <PUBCHEM_ATOM_UDEF_STEREO_COUNT>
3

>  <PUBCHEM_BOND_DEF_STEREO_COUNT>
0

>  <PUBCHEM_BOND_UDEF_STEREO_COUNT>
0

>  <PUBCHEM_ISOTOPIC_ATOM_COUNT>
0

>  <PUBCHEM_COMPONENT_COUNT>
1

>  <PUBCHEM_CACTVS_TAUTO_COUNT>
1

>  <PUBCHEM_COORDINATE_TYPE>
1
5
255

>  <PUBCHEM_BONDANNOTATIONS>
11  12  3
14  21  3
19  2  3

$$$$
