16072922
 OpenBabel06101807152D

 42 45  0  0  0  0  0  0  0  0999 V2000
    5.1767    4.1296    0.0000 O   0  0  0  0  0  0  0  0  0  0  0  0
    3.4446    0.1296    0.0000 O   0  0  0  0  0  0  0  0  0  0  0  0
    2.5405   -1.3672    0.0000 O   0  0  0  0  0  0  0  0  0  0  0  0
    6.9088   -1.8704    0.0000 O   0  0  0  0  0  0  0  0  0  0  0  0
    6.9251    0.0950    0.0000 O   0  0  0  0  0  0  0  0  0  0  0  0
    6.9251    4.1642    0.0000 O   0  0  0  0  0  0  0  0  0  0  0  0
    5.1767    1.1296    0.0000 C   0  0  0  0  0  0  0  0  0  0  0  0
    5.1767    0.1296    0.0000 C   0  0  0  0  0  0  0  0  0  0  0  0
    6.0427    1.6296    0.0000 C   0  0  0  0  0  0  0  0  0  0  0  0
    4.3107    1.6296    0.0000 C   0  0  0  0  0  0  0  0  0  0  0  0
    4.3107   -1.3704    0.0000 C   0  0  0  0  0  0  0  0  0  0  0  0
    6.0427    2.6296    0.0000 C   0  0  0  0  0  0  0  0  0  0  0  0
    5.1767   -1.8704    0.0000 C   0  0  0  0  0  0  0  0  0  0  0  0
    4.3107   -0.3704    0.0000 C   0  0  0  0  0  0  0  0  0  0  0  0
    6.0427   -0.3704    0.0000 C   0  0  0  0  0  0  0  0  0  0  0  0
    5.1767    3.1296    0.0000 C   0  0  0  0  0  0  0  0  0  0  0  0
    4.3107    2.6296    0.0000 C   0  0  0  0  0  0  0  0  0  0  0  0
    6.0427   -1.3704    0.0000 C   0  0  0  0  0  0  0  0  0  0  0  0
    6.9367    1.0950    0.0000 C   0  0  0  0  0  0  0  0  0  0  0  0
    3.4007   -1.8772    0.0000 C   0  0  0  0  0  0  0  0  0  0  0  0
    5.1928   -2.9119    0.0000 C   0  0  0  0  0  0  0  0  0  0  0  0
    3.4446    1.1296    0.0000 C   0  0  0  0  0  0  0  0  0  0  0  0
    6.9367    3.1643    0.0000 C   0  0  0  0  0  0  0  0  0  0  0  0
    4.2947   -3.4396    0.0000 C   0  0  0  0  0  0  0  0  0  0  0  0
    3.3926   -2.9188    0.0000 C   0  0  0  0  0  0  0  0  0  0  0  0
    7.8427    1.6088    0.0000 C   0  0  0  0  0  0  0  0  0  0  0  0
    7.8427    2.6504    0.0000 C   0  0  0  0  0  0  0  0  0  0  0  0
    4.2986   -4.4396    0.0000 C   0  0  0  0  0  0  0  0  0  0  0  0
    6.5797   -0.0604    0.0000 H   0  0  0  0  0  0  0  0  0  0  0  0
    3.7737    2.9396    0.0000 H   0  0  0  0  0  0  0  0  0  0  0  0
    5.7332   -3.2156    0.0000 H   0  0  0  0  0  0  0  0  0  0  0  0
    3.1346    1.6666    0.0000 H   0  0  0  0  0  0  0  0  0  0  0  0
    2.9077    0.8196    0.0000 H   0  0  0  0  0  0  0  0  0  0  0  0
    3.7546    0.5927    0.0000 H   0  0  0  0  0  0  0  0  0  0  0  0
    2.8545   -3.2268    0.0000 H   0  0  0  0  0  0  0  0  0  0  0  0
    8.3785    1.2967    0.0000 H   0  0  0  0  0  0  0  0  0  0  0  0
    8.3785    2.9625    0.0000 H   0  0  0  0  0  0  0  0  0  0  0  0
    3.6786   -4.4420    0.0000 H   0  0  0  0  0  0  0  0  0  0  0  0
    4.3010   -5.0596    0.0000 H   0  0  0  0  0  0  0  0  0  0  0  0
    4.9186   -4.4372    0.0000 H   0  0  0  0  0  0  0  0  0  0  0  0
    4.6398    4.4396    0.0000 H   0  0  0  0  0  0  0  0  0  0  0  0
    2.0000   -1.6710    0.0000 H   0  0  0  0  0  0  0  0  0  0  0  0
  1 16  1  0  0  0  0
  1 41  1  0  0  0  0
  2 14  2  0  0  0  0
  3 20  1  0  0  0  0
  3 42  1  0  0  0  0
  4 18  2  0  0  0  0
  5 19  2  0  0  0  0
  6 23  2  0  0  0  0
  7  8  1  0  0  0  0
  7  9  2  0  0  0  0
  7 10  1  0  0  0  0
  8 14  1  0  0  0  0
  8 15  2  0  0  0  0
  9 12  1  0  0  0  0
  9 19  1  0  0  0  0
 10 17  2  0  0  0  0
 10 22  1  0  0  0  0
 11 13  2  0  0  0  0
 11 14  1  0  0  0  0
 11 20  1  0  0  0  0
 12 16  2  0  0  0  0
 12 23  1  0  0  0  0
 13 18  1  0  0  0  0
 13 21  1  0  0  0  0
 15 18  1  0  0  0  0
 15 29  1  0  0  0  0
 16 17  1  0  0  0  0
 17 30  1  0  0  0  0
 19 26  1  0  0  0  0
 20 25  2  0  0  0  0
 21 24  2  0  0  0  0
 21 31  1  0  0  0  0
 22 32  1  0  0  0  0
 22 33  1  0  0  0  0
 22 34  1  0  0  0  0
 23 27  1  0  0  0  0
 24 25  1  0  0  0  0
 24 28  1  0  0  0  0
 25 35  1  0  0  0  0
 26 27  2  0  0  0  0
 26 36  1  0  0  0  0
 27 37  1  0  0  0  0
 28 38  1  0  0  0  0
 28 39  1  0  0  0  0
 28 40  1  0  0  0  0
M  END
>  <PUBCHEM_COMPOUND_CID>
16072922

>  <PUBCHEM_COMPOUND_CANONICALIZED>
1

>  <PUBCHEM_CACTVS_COMPLEXITY>
808

>  <PUBCHEM_CACTVS_HBOND_ACCEPTOR>
6

>  <PUBCHEM_CACTVS_HBOND_DONOR>
2

>  <PUBCHEM_CACTVS_ROTATABLE_BOND>
1

>  <PUBCHEM_CACTVS_SUBSKEYS>
AAADccB4OAAAAAAAAAAAAAAAAAAAAAAAAAAwYIEAAAAAAACBQAAAGgAACAAADASAmAAyBoAAAgCIAqBSAAACAAAkIAAIiAEGCMgIJjaCFRKAcUAk4BEImYeLyvCu4AADAAAYAADAAAYAADAAAAAAAAAAAA==

>  <PUBCHEM_IUPAC_OPENEYE_NAME>
8-hydroxy-5-(8-hydroxy-6-methyl-1,4-dioxo-2-naphthyl)-6-methyl-naphthalene-1,4-dione

>  <PUBCHEM_IUPAC_CAS_NAME>
8-hydroxy-5-(8-hydroxy-6-methyl-1,4-dioxo-2-naphthalenyl)-6-methylnaphthalene-1,4-dione

>  <PUBCHEM_IUPAC_NAME>
8-hydroxy-5-(8-hydroxy-6-methyl-1,4-dioxonaphthalen-2-yl)-6-methylnaphthalene-1,4-dione

>  <PUBCHEM_IUPAC_SYSTEMATIC_NAME>
6-methyl-5-[6-methyl-8-oxidanyl-1,4-bis(oxidanylidene)naphthalen-2-yl]-8-oxidanyl-naphthalene-1,4-dione

>  <PUBCHEM_IUPAC_TRADITIONAL_NAME>
8-hydroxy-5-(8-hydroxy-1,4-diketo-6-methyl-2-naphthyl)-6-methyl-1,4-naphthoquinone

>  <PUBCHEM_IUPAC_INCHI>
InChI=1S/C22H14O6/c1-9-5-11-15(25)8-12(22(28)19(11)16(26)6-9)18-10(2)7-17(27)20-13(23)3-4-14(24)21(18)20/h3-8,26-27H,1-2H3

>  <PUBCHEM_IUPAC_INCHIKEY>
LZAXNDGRDVWTFX-UHFFFAOYSA-N

>  <PUBCHEM_XLOGP3_AA>
3.7

>  <PUBCHEM_EXACT_MASS>
374.079

>  <PUBCHEM_MOLECULAR_FORMULA>
C22H14O6

>  <PUBCHEM_MOLECULAR_WEIGHT>
374.348

>  <PUBCHEM_OPENEYE_CAN_SMILES>
CC1=CC(=C2C(=C1)C(=O)C=C(C2=O)C3=C4C(=O)C=CC(=O)C4=C(C=C3C)O)O

>  <PUBCHEM_OPENEYE_ISO_SMILES>
CC1=CC(=C2C(=C1)C(=O)C=C(C2=O)C3=C4C(=O)C=CC(=O)C4=C(C=C3C)O)O

>  <PUBCHEM_CACTVS_TPSA>
109

>  <PUBCHEM_MONOISOTOPIC_WEIGHT>
374.079

>  <PUBCHEM_TOTAL_CHARGE>
0

>  <PUBCHEM_HEAVY_ATOM_COUNT>
28

>  <PUBCHEM_ATOM_DEF_STEREO_COUNT>
0

>  <PUBCHEM_ATOM_UDEF_STEREO_COUNT>
0

>  <PUBCHEM_BOND_DEF_STEREO_COUNT>
0

>  <PUBCHEM_BOND_UDEF_STEREO_COUNT>
0

>  <PUBCHEM_ISOTOPIC_ATOM_COUNT>
0

>  <PUBCHEM_COMPONENT_COUNT>
1

>  <PUBCHEM_CACTVS_TAUTO_COUNT>
216

>  <PUBCHEM_COORDINATE_TYPE>
1
5
255

>  <PUBCHEM_BONDANNOTATIONS>
10  17  8
11  13  8
11  20  8
12  16  8
13  21  8
16  17  8
20  25  8
21  24  8
24  25  8
7  10  8
7  9  8
9  12  8

$$$$
