160875
 OpenBabel06101807152D

 37 40  0  0  1  0  0  0  0  0999 V2000
    3.7782    1.3993    0.0000 O   0  0  0  0  0  0  0  0  0  0  0  0
    5.5442    2.4370    0.0000 O   0  0  0  0  0  0  0  0  0  0  0  0
    6.3903   -2.1291    0.0000 N   0  0  0  0  0  0  0  0  0  0  0  0
    5.5321   -1.6322    0.0000 C   0  0  1  0  0  0  0  0  0  0  0  0
    5.5321   -0.6322    0.0000 C   0  0  0  0  0  0  0  0  0  0  0  0
    4.6660   -2.1322    0.0000 C   0  0  0  0  0  0  0  0  0  0  0  0
    6.4421   -0.1254    0.0000 C   0  0  0  0  0  0  0  0  0  0  0  0
    4.6660   -0.1322    0.0000 C   0  0  0  0  0  0  0  0  0  0  0  0
    7.2814   -0.6536    0.0000 C   0  0  0  0  0  0  0  0  0  0  0  0
    7.2558   -1.6450    0.0000 C   0  0  0  0  0  0  0  0  0  0  0  0
    3.8000   -1.6322    0.0000 C   0  0  0  0  0  0  0  0  0  0  0  0
    3.8000   -0.6322    0.0000 C   0  0  0  0  0  0  0  0  0  0  0  0
    4.6500    0.9093    0.0000 C   0  0  0  0  0  0  0  0  0  0  0  0
    6.4501    0.9162    0.0000 C   0  0  0  0  0  0  0  0  0  0  0  0
    5.5480    1.4371    0.0000 C   0  0  0  0  0  0  0  0  0  0  0  0
    2.9061   -2.1669    0.0000 C   0  0  0  0  0  0  0  0  0  0  0  0
    2.9061   -0.0975    0.0000 C   0  0  0  0  0  0  0  0  0  0  0  0
    2.0000   -1.6530    0.0000 C   0  0  0  0  0  0  0  0  0  0  0  0
    2.0000   -0.6114    0.0000 C   0  0  0  0  0  0  0  0  0  0  0  0
    3.7667    2.3992    0.0000 C   0  0  0  0  0  0  0  0  0  0  0  0
    5.5315   -2.4822    0.0000 H   0  0  0  0  0  0  0  0  0  0  0  0
    4.2675   -2.6072    0.0000 H   0  0  0  0  0  0  0  0  0  0  0  0
    5.0646   -2.6072    0.0000 H   0  0  0  0  0  0  0  0  0  0  0  0
    7.8885   -0.7795    0.0000 H   0  0  0  0  0  0  0  0  0  0  0  0
    7.5131   -0.0785    0.0000 H   0  0  0  0  0  0  0  0  0  0  0  0
    6.3857   -2.7491    0.0000 H   0  0  0  0  0  0  0  0  0  0  0  0
    7.4575   -2.2312    0.0000 H   0  0  0  0  0  0  0  0  0  0  0  0
    7.8685   -1.5506    0.0000 H   0  0  0  0  0  0  0  0  0  0  0  0
    6.9882    1.2242    0.0000 H   0  0  0  0  0  0  0  0  0  0  0  0
    2.9132   -2.7868    0.0000 H   0  0  0  0  0  0  0  0  0  0  0  0
    2.9132    0.5224    0.0000 H   0  0  0  0  0  0  0  0  0  0  0  0
    1.4643   -1.9651    0.0000 H   0  0  0  0  0  0  0  0  0  0  0  0
    1.4643   -0.2993    0.0000 H   0  0  0  0  0  0  0  0  0  0  0  0
    6.0799    2.7491    0.0000 H   0  0  0  0  0  0  0  0  0  0  0  0
    4.3866    2.4064    0.0000 H   0  0  0  0  0  0  0  0  0  0  0  0
    3.7595    3.0191    0.0000 H   0  0  0  0  0  0  0  0  0  0  0  0
    3.1467    2.3920    0.0000 H   0  0  0  0  0  0  0  0  0  0  0  0
  1 13  1  0  0  0  0
  1 20  1  0  0  0  0
  2 15  1  0  0  0  0
  2 34  1  0  0  0  0
  3  4  1  0  0  0  0
  3 10  1  0  0  0  0
  3 26  1  0  0  0  0
  4  5  1  0  0  0  0
  4  6  1  0  0  0  0
  4 21  1  1  0  0  0
  5  7  1  0  0  0  0
  5  8  2  0  0  0  0
  6 11  1  0  0  0  0
  6 22  1  0  0  0  0
  6 23  1  0  0  0  0
  7  9  1  0  0  0  0
  7 14  2  0  0  0  0
  8 12  1  0  0  0  0
  8 13  1  0  0  0  0
  9 10  1  0  0  0  0
  9 24  1  0  0  0  0
  9 25  1  0  0  0  0
 10 27  1  0  0  0  0
 10 28  1  0  0  0  0
 11 12  1  0  0  0  0
 11 16  2  0  0  0  0
 12 17  2  0  0  0  0
 13 15  2  0  0  0  0
 14 15  1  0  0  0  0
 14 29  1  0  0  0  0
 16 18  1  0  0  0  0
 16 30  1  0  0  0  0
 17 19  1  0  0  0  0
 17 31  1  0  0  0  0
 18 19  2  0  0  0  0
 18 32  1  0  0  0  0
 19 33  1  0  0  0  0
 20 35  1  0  0  0  0
 20 36  1  0  0  0  0
 20 37  1  0  0  0  0
M  END
>  <PUBCHEM_COMPOUND_CID>
160875

>  <PUBCHEM_COMPOUND_CANONICALIZED>
1

>  <PUBCHEM_CACTVS_COMPLEXITY>
361

>  <PUBCHEM_CACTVS_HBOND_ACCEPTOR>
3

>  <PUBCHEM_CACTVS_HBOND_DONOR>
2

>  <PUBCHEM_CACTVS_ROTATABLE_BOND>
1

>  <PUBCHEM_CACTVS_SUBSKEYS>
AAADceB6MAAAAAAAAAAAAAAAAAAAAAAAAAA8YMEAAAAAAADxQAAAHgAQCAAADCzBmAYyBoLABgCAAiBCAACCCAAgIAAIiIAOjIgNJiKGsRuEcCtk0BGLuAew0PMOoAADAAAYQADQAAaAADSAAAAAAAAAAA==

>  <PUBCHEM_IUPAC_OPENEYE_NAME>
(6aR)-1-methoxy-5,6,6a,7-tetrahydro-4H-dibenzo[de,g]quinoline-2-ol

>  <PUBCHEM_IUPAC_CAS_NAME>
(6aR)-1-methoxy-5,6,6a,7-tetrahydro-4H-dibenzo[de,g]quinoline-2-ol

>  <PUBCHEM_IUPAC_NAME>
(6aR)-1-methoxy-5,6,6a,7-tetrahydro-4H-dibenzo[de,g]quinoline-2-ol

>  <PUBCHEM_IUPAC_SYSTEMATIC_NAME>
(6aR)-1-methoxy-5,6,6a,7-tetrahydro-4H-dibenzo[de,g]quinoline-2-ol

>  <PUBCHEM_IUPAC_TRADITIONAL_NAME>
(6aR)-1-methoxy-5,6,6a,7-tetrahydro-4H-dibenzo[de,g]quinoline-2-ol

>  <PUBCHEM_IUPAC_INCHI>
InChI=1S/C17H17NO2/c1-20-17-14(19)9-11-6-7-18-13-8-10-4-2-3-5-12(10)16(17)15(11)13/h2-5,9,13,18-19H,6-8H2,1H3/t13-/m1/s1

>  <PUBCHEM_IUPAC_INCHIKEY>
NBDNEUOVIJYCGZ-CYBMUJFWSA-N

>  <PUBCHEM_XLOGP3_AA>
2.6

>  <PUBCHEM_EXACT_MASS>
267.126

>  <PUBCHEM_MOLECULAR_FORMULA>
C17H17NO2

>  <PUBCHEM_MOLECULAR_WEIGHT>
267.328

>  <PUBCHEM_OPENEYE_CAN_SMILES>
COC1=C(C=C2CCNC3C2=C1C4=CC=CC=C4C3)O

>  <PUBCHEM_OPENEYE_ISO_SMILES>
COC1=C(C=C2CCN[C@H]3C2=C1C4=CC=CC=C4C3)O

>  <PUBCHEM_CACTVS_TPSA>
41.5

>  <PUBCHEM_MONOISOTOPIC_WEIGHT>
267.126

>  <PUBCHEM_TOTAL_CHARGE>
0

>  <PUBCHEM_HEAVY_ATOM_COUNT>
20

>  <PUBCHEM_ATOM_DEF_STEREO_COUNT>
1

>  <PUBCHEM_ATOM_UDEF_STEREO_COUNT>
0

>  <PUBCHEM_BOND_DEF_STEREO_COUNT>
0

>  <PUBCHEM_BOND_UDEF_STEREO_COUNT>
0

>  <PUBCHEM_ISOTOPIC_ATOM_COUNT>
0

>  <PUBCHEM_COMPONENT_COUNT>
1

>  <PUBCHEM_CACTVS_TAUTO_COUNT>
9

>  <PUBCHEM_COORDINATE_TYPE>
1
5
255

>  <PUBCHEM_BONDANNOTATIONS>
11  12  8
11  16  8
12  17  8
13  15  8
14  15  8
16  18  8
17  19  8
18  19  8
4  21  5
5  7  8
5  8  8
7  14  8
8  13  8

$$$$
