160876
 OpenBabel06101807152D

 43 47  0  0  0  0  0  0  0  0999 V2000
    4.6571   -3.7408    0.0000 O   0  0  0  0  0  0  0  0  0  0  0  0
    3.2118   -4.5902    0.0000 O   0  0  0  0  0  0  0  0  0  0  0  0
    2.0116    3.1265    0.0000 O   0  0  0  0  0  0  0  0  0  0  0  0
    3.8149    4.1863    0.0000 O   0  0  0  0  0  0  0  0  0  0  0  0
    4.7340   -0.5104    0.0000 N   0  3  0  0  0  0  0  0  0  0  0  0
    5.6440   -0.0036    0.0000 C   0  0  0  0  0  0  0  0  0  0  0  0
    3.8680   -0.0104    0.0000 C   0  0  0  0  0  0  0  0  0  0  0  0
    5.6521    1.0380    0.0000 C   0  0  0  0  0  0  0  0  0  0  0  0
    3.8520    1.0311    0.0000 C   0  0  0  0  0  0  0  0  0  0  0  0
    4.7500    1.5588    0.0000 C   0  0  0  0  0  0  0  0  0  0  0  0
    3.8680   -2.0104    0.0000 C   0  0  0  0  0  0  0  0  0  0  0  0
    4.7340   -1.5104    0.0000 C   0  0  0  0  0  0  0  0  0  0  0  0
    3.0020   -1.5104    0.0000 C   0  0  0  0  0  0  0  0  0  0  0  0
    3.0020   -0.5104    0.0000 C   0  0  0  0  0  0  0  0  0  0  0  0
    2.9000    1.5517    0.0000 C   0  0  0  0  0  0  0  0  0  0  0  0
    4.7584    2.6438    0.0000 C   0  0  0  0  0  0  0  0  0  0  0  0
    3.8841   -3.0519    0.0000 C   0  0  0  0  0  0  0  0  0  0  0  0
    2.0920   -2.0173    0.0000 C   0  0  0  0  0  0  0  0  0  0  0  0
    2.8833    2.6366    0.0000 C   0  0  0  0  0  0  0  0  0  0  0  0
    3.8187    3.1863    0.0000 C   0  0  0  0  0  0  0  0  0  0  0  0
    2.9860   -3.5797    0.0000 C   0  0  0  0  0  0  0  0  0  0  0  0
    2.0840   -3.0589    0.0000 C   0  0  0  0  0  0  0  0  0  0  0  0
    4.2424   -4.6896    0.0000 C   0  0  0  0  0  0  0  0  0  0  0  0
    2.0000    4.1265    0.0000 C   0  0  0  0  0  0  0  0  0  0  0  0
    4.6790    4.6896    0.0000 C   0  0  0  0  0  0  0  0  0  0  0  0
    5.8486   -0.5889    0.0000 H   0  0  0  0  0  0  0  0  0  0  0  0
    6.2557    0.0978    0.0000 H   0  0  0  0  0  0  0  0  0  0  0  0
    6.2621    0.9272    0.0000 H   0  0  0  0  0  0  0  0  0  0  0  0
    5.8656    1.6201    0.0000 H   0  0  0  0  0  0  0  0  0  0  0  0
    5.2710   -1.8204    0.0000 H   0  0  0  0  0  0  0  0  0  0  0  0
    2.4651   -0.2004    0.0000 H   0  0  0  0  0  0  0  0  0  0  0  0
    2.3692    1.2314    0.0000 H   0  0  0  0  0  0  0  0  0  0  0  0
    5.2965    2.9517    0.0000 H   0  0  0  0  0  0  0  0  0  0  0  0
    1.5587   -1.7011    0.0000 H   0  0  0  0  0  0  0  0  0  0  0  0
    1.5458   -3.3668    0.0000 H   0  0  0  0  0  0  0  0  0  0  0  0
    4.1184   -5.2971    0.0000 H   0  0  0  0  0  0  0  0  0  0  0  0
    4.8335   -4.8768    0.0000 H   0  0  0  0  0  0  0  0  0  0  0  0
    2.6200    4.1336    0.0000 H   0  0  0  0  0  0  0  0  0  0  0  0
    1.9928    4.7464    0.0000 H   0  0  0  0  0  0  0  0  0  0  0  0
    1.3800    4.1193    0.0000 H   0  0  0  0  0  0  0  0  0  0  0  0
    4.9910    4.1539    0.0000 H   0  0  0  0  0  0  0  0  0  0  0  0
    5.2147    5.0017    0.0000 H   0  0  0  0  0  0  0  0  0  0  0  0
    4.3669    5.2254    0.0000 H   0  0  0  0  0  0  0  0  0  0  0  0
  1 17  1  0  0  0  0
  1 23  1  0  0  0  0
  2 21  1  0  0  0  0
  2 23  1  0  0  0  0
  3 19  1  0  0  0  0
  3 24  1  0  0  0  0
  4 20  1  0  0  0  0
  4 25  1  0  0  0  0
  5  6  1  0  0  0  0
  5  7  2  0  0  0  0
  5 12  1  0  0  0  0
  6  8  1  0  0  0  0
  6 26  1  0  0  0  0
  6 27  1  0  0  0  0
  7  9  1  0  0  0  0
  7 14  1  0  0  0  0
  8 10  1  0  0  0  0
  8 28  1  0  0  0  0
  8 29  1  0  0  0  0
  9 10  1  0  0  0  0
  9 15  2  0  0  0  0
 10 16  2  0  0  0  0
 11 12  2  0  0  0  0
 11 13  1  0  0  0  0
 11 17  1  0  0  0  0
 12 30  1  0  0  0  0
 13 14  2  0  0  0  0
 13 18  1  0  0  0  0
 14 31  1  0  0  0  0
 15 19  1  0  0  0  0
 15 32  1  0  0  0  0
 16 20  1  0  0  0  0
 16 33  1  0  0  0  0
 17 21  2  0  0  0  0
 18 22  2  0  0  0  0
 18 34  1  0  0  0  0
 19 20  2  0  0  0  0
 21 22  1  0  0  0  0
 22 35  1  0  0  0  0
 23 36  1  0  0  0  0
 23 37  1  0  0  0  0
 24 38  1  0  0  0  0
 24 39  1  0  0  0  0
 24 40  1  0  0  0  0
 25 41  1  0  0  0  0
 25 42  1  0  0  0  0
 25 43  1  0  0  0  0
M  CHG  1   5   1
M  END
>  <PUBCHEM_COMPOUND_CID>
160876

>  <PUBCHEM_COMPOUND_CANONICALIZED>
1

>  <PUBCHEM_CACTVS_COMPLEXITY>
488

>  <PUBCHEM_CACTVS_HBOND_ACCEPTOR>
4

>  <PUBCHEM_CACTVS_HBOND_DONOR>
0

>  <PUBCHEM_CACTVS_ROTATABLE_BOND>
2

>  <PUBCHEM_CACTVS_SUBSKEYS>
AAADceB6OAAAAAAAAAAAAAAAAAAAASAAAAA8eIEAAAAAAEix9AAAHgAAAAAADAzBngc+jtMMFACgAzRnRACCiCAxIiAI2CA+7JgdJuLEsZukMCpmwBnO6Aew0PMOoAABAAAYQABAAAIAADCAAAAAAAAAAA==

>  <PUBCHEM_IUPAC_INCHI>
InChI=1S/C20H18NO4/c1-22-18-8-13-5-6-21-10-15-12(3-4-17-20(15)25-11-24-17)7-16(21)14(13)9-19(18)23-2/h3-4,7-10H,5-6,11H2,1-2H3/q+1

>  <PUBCHEM_IUPAC_INCHIKEY>
FPJQGFLUORYYPE-UHFFFAOYSA-N

>  <PUBCHEM_XLOGP3_AA>
3.6

>  <PUBCHEM_EXACT_MASS>
336.124

>  <PUBCHEM_MOLECULAR_FORMULA>
C20H18NO4+

>  <PUBCHEM_MOLECULAR_WEIGHT>
336.367

>  <PUBCHEM_OPENEYE_CAN_SMILES>
COC1=C(C=C2C(=C1)CC[N+]3=C2C=C4C=CC5=C(C4=C3)OCO5)OC

>  <PUBCHEM_OPENEYE_ISO_SMILES>
COC1=C(C=C2C(=C1)CC[N+]3=C2C=C4C=CC5=C(C4=C3)OCO5)OC

>  <PUBCHEM_CACTVS_TPSA>
40.8

>  <PUBCHEM_MONOISOTOPIC_WEIGHT>
336.124

>  <PUBCHEM_TOTAL_CHARGE>
1

>  <PUBCHEM_HEAVY_ATOM_COUNT>
25

>  <PUBCHEM_ATOM_DEF_STEREO_COUNT>
0

>  <PUBCHEM_ATOM_UDEF_STEREO_COUNT>
0

>  <PUBCHEM_BOND_DEF_STEREO_COUNT>
0

>  <PUBCHEM_BOND_UDEF_STEREO_COUNT>
0

>  <PUBCHEM_ISOTOPIC_ATOM_COUNT>
0

>  <PUBCHEM_COMPONENT_COUNT>
1

>  <PUBCHEM_CACTVS_TAUTO_COUNT>
1

>  <PUBCHEM_COORDINATE_TYPE>
1
5
255

>  <PUBCHEM_BONDANNOTATIONS>
10  16  8
11  12  8
11  13  8
11  17  8
13  14  8
13  18  8
15  19  8
16  20  8
17  21  8
18  22  8
19  20  8
21  22  8
5  12  8
5  7  8
7  14  8
9  10  8
9  15  8

$$$$
