160965
 OpenBabel06101807152D

  9  4  0  0  0  0  0  0  0  0999 V2000
    1.0000    1.0000    0.0000 Zr  0  0  0  0  0 15  0  0  0  0  0  0
    2.0000    2.0000    0.0000 Si  0  0  0  0  0  0  0  0  0  0  0  0
    1.8660    4.5000    0.0000 Na  0  3  0  0  0 15  0  0  0  0  0  0
    0.1340    4.5000    0.0000 Na  0  3  0  0  0 15  0  0  0  0  0  0
    1.0000    2.0000    0.0000 O   0  5  0  0  0  0  0  0  0  0  0  0
    2.0000    1.0000    0.0000 O   0  5  0  0  0  0  0  0  0  0  0  0
    0.0000    1.0000    0.0000 O   0  5  0  0  0  0  0  0  0  0  0  0
    1.0000    0.0000    0.0000 O   0  5  0  0  0  0  0  0  0  0  0  0
    1.0000    4.0000    0.0000 O   0  6  0  0  0  0  0  0  0  0  0  0
  2  5  1  0  0  0  0
  2  6  1  0  0  0  0
  2  7  1  0  0  0  0
  2  8  1  0  0  0  0
M  CHG  8   1   4   3   1   4   1   5  -1   6  -1   7  -1   8  -1   9  -2
M  END
>  <PUBCHEM_COMPOUND_CID>
160965

>  <PUBCHEM_COMPOUND_CANONICALIZED>
1

>  <PUBCHEM_CACTVS_COMPLEXITY>
19.1

>  <PUBCHEM_CACTVS_HBOND_ACCEPTOR>
5

>  <PUBCHEM_CACTVS_HBOND_DONOR>
0

>  <PUBCHEM_CACTVS_ROTATABLE_BOND>
0

>  <PUBCHEM_CACTVS_SUBSKEYS>
AAADcQAAODgAAAAAAQAAAAAAAAAAAAAAAAAAAAAAAAAAAAAAAAAAAAAAAEAAAAAAAAAAAAAAAAAAAAAAAAAAAAAAAAAAAAAAAAAAAAAAAAAAAAAAAAAAAAAAAAAAAAAAAAAAAAAAAAAAAAAAAAAAAAAAAA==

>  <PUBCHEM_IUPAC_OPENEYE_NAME>
disodium;oxygen(2-);zirconium(4+);silicate

>  <PUBCHEM_IUPAC_CAS_NAME>
disodium;oxygen(2-);zirconium(4+);silicate

>  <PUBCHEM_IUPAC_NAME>
disodium;oxygen(2-);zirconium(4+);silicate

>  <PUBCHEM_IUPAC_SYSTEMATIC_NAME>
disodium;oxygen(2-);zirconium(4+);silicate

>  <PUBCHEM_IUPAC_TRADITIONAL_NAME>
disodium;oxygen(2-);zirconium(4+);orthosilicate

>  <PUBCHEM_IUPAC_INCHI>
InChI=1S/2Na.O4Si.O.Zr/c;;1-5(2,3)4;;/q2*+1;-4;-2;+4

>  <PUBCHEM_IUPAC_INCHIKEY>
BUUNOWFGRDSSPZ-UHFFFAOYSA-N

>  <PUBCHEM_EXACT_MASS>
243.836

>  <PUBCHEM_MOLECULAR_FORMULA>
Na2O5SiZr

>  <PUBCHEM_MOLECULAR_WEIGHT>
245.284

>  <PUBCHEM_OPENEYE_CAN_SMILES>
[O-2].[O-][Si]([O-])([O-])[O-].[Na+].[Na+].[Zr+4]

>  <PUBCHEM_OPENEYE_ISO_SMILES>
[O-2].[O-][Si]([O-])([O-])[O-].[Na+].[Na+].[Zr+4]

>  <PUBCHEM_CACTVS_TPSA>
93.2

>  <PUBCHEM_MONOISOTOPIC_WEIGHT>
243.836

>  <PUBCHEM_TOTAL_CHARGE>
0

>  <PUBCHEM_HEAVY_ATOM_COUNT>
9

>  <PUBCHEM_ATOM_DEF_STEREO_COUNT>
0

>  <PUBCHEM_ATOM_UDEF_STEREO_COUNT>
0

>  <PUBCHEM_BOND_DEF_STEREO_COUNT>
0

>  <PUBCHEM_BOND_UDEF_STEREO_COUNT>
0

>  <PUBCHEM_ISOTOPIC_ATOM_COUNT>
0

>  <PUBCHEM_COMPONENT_COUNT>
5

>  <PUBCHEM_CACTVS_TAUTO_COUNT>
1

>  <PUBCHEM_COORDINATE_TYPE>
1
5
255

$$$$
