16102149
 OpenBabel06101807152D

 23 24  0  0  0  0  0  0  0  0999 V2000
    8.3489    1.6147    0.0000 S   0  0  0  0  0  0  0  0  0  0  0  0
    4.2690    1.4470    0.0000 O   0  0  0  0  0  0  0  0  0  0  0  0
    2.5369    0.4470    0.0000 O   0  0  0  0  0  0  0  0  0  0  0  0
    6.0812   -1.3577    0.0000 N   0  0  0  0  0  0  0  0  0  0  0  0
    6.3919    1.2023    0.0000 N   0  0  0  0  0  0  0  0  0  0  0  0
    5.1350   -0.0530    0.0000 C   0  0  0  0  0  0  0  0  0  0  0  0
    5.1350   -1.0530    0.0000 C   0  0  0  0  0  0  0  0  0  0  0  0
    4.2690    0.4470    0.0000 C   0  0  0  0  0  0  0  0  0  0  0  0
    6.0812    0.2518    0.0000 C   0  0  0  0  0  0  0  0  0  0  0  0
    4.2690   -1.5530    0.0000 C   0  0  0  0  0  0  0  0  0  0  0  0
    6.6648   -0.5530    0.0000 C   0  0  0  0  0  0  0  0  0  0  0  0
    3.4030   -0.0530    0.0000 C   0  0  0  0  0  0  0  0  0  0  0  0
    3.4030   -1.0530    0.0000 C   0  0  0  0  0  0  0  0  0  0  0  0
    3.4030    1.9470    0.0000 C   0  0  0  0  0  0  0  0  0  0  0  0
    7.3704    1.4085    0.0000 C   0  0  0  0  0  0  0  0  0  0  0  0
    6.2738   -1.9470    0.0000 H   0  0  0  0  0  0  0  0  0  0  0  0
    4.2690   -2.1730    0.0000 H   0  0  0  0  0  0  0  0  0  0  0  0
    7.2848   -0.5530    0.0000 H   0  0  0  0  0  0  0  0  0  0  0  0
    2.8660   -1.3630    0.0000 H   0  0  0  0  0  0  0  0  0  0  0  0
    3.7130    2.4840    0.0000 H   0  0  0  0  0  0  0  0  0  0  0  0
    2.8660    2.2570    0.0000 H   0  0  0  0  0  0  0  0  0  0  0  0
    3.0930    1.4101    0.0000 H   0  0  0  0  0  0  0  0  0  0  0  0
    2.0000    0.1370    0.0000 H   0  0  0  0  0  0  0  0  0  0  0  0
  1 15  2  0  0  0  0
  2  8  1  0  0  0  0
  2 14  1  0  0  0  0
  3 12  1  0  0  0  0
  3 23  1  0  0  0  0
  4  7  1  0  0  0  0
  4 11  1  0  0  0  0
  4 16  1  0  0  0  0
  5  9  1  0  0  0  0
  5 15  2  0  0  0  0
  6  7  2  0  0  0  0
  6  8  1  0  0  0  0
  6  9  1  0  0  0  0
  7 10  1  0  0  0  0
  8 12  2  0  0  0  0
  9 11  2  0  0  0  0
 10 13  2  0  0  0  0
 10 17  1  0  0  0  0
 11 18  1  0  0  0  0
 12 13  1  0  0  0  0
 13 19  1  0  0  0  0
 14 20  1  0  0  0  0
 14 21  1  0  0  0  0
 14 22  1  0  0  0  0
M  END
>  <PUBCHEM_COMPOUND_CID>
16102149

>  <PUBCHEM_COMPOUND_CANONICALIZED>
1

>  <PUBCHEM_CACTVS_COMPLEXITY>
281

>  <PUBCHEM_CACTVS_HBOND_ACCEPTOR>
4

>  <PUBCHEM_CACTVS_HBOND_DONOR>
2

>  <PUBCHEM_CACTVS_ROTATABLE_BOND>
2

>  <PUBCHEM_CACTVS_SUBSKEYS>
AAADccBzMABAAAAAAAAAAAAAAAAAAWAAAAAwAAAAAAAAAFgB8AAAHgQQCAAADAzBngY+xvLJlgCkAzRnRACCiCAxMiAI2aA+/JgNZuLG8NuUdCtm0BnL+Aew0LMOAEABAgAKQAAAgAIEABSAAAAAAAAAAA==

>  <PUBCHEM_IUPAC_OPENEYE_NAME>
3-isothiocyanato-4-methoxy-1H-indol-5-ol

>  <PUBCHEM_IUPAC_CAS_NAME>
3-isothiocyanato-4-methoxy-1H-indol-5-ol

>  <PUBCHEM_IUPAC_NAME>
3-isothiocyanato-4-methoxy-1H-indol-5-ol

>  <PUBCHEM_IUPAC_SYSTEMATIC_NAME>
3-isothiocyanato-4-methoxy-1H-indol-5-ol

>  <PUBCHEM_IUPAC_TRADITIONAL_NAME>
3-isothiocyanato-4-methoxy-1H-indol-5-ol

>  <PUBCHEM_IUPAC_INCHI>
InChI=1S/C10H8N2O2S/c1-14-10-8(13)3-2-6-9(10)7(4-11-6)12-5-15/h2-4,11,13H,1H3

>  <PUBCHEM_IUPAC_INCHIKEY>
RIANPHYYVJUMIF-UHFFFAOYSA-N

>  <PUBCHEM_XLOGP3_AA>
3.1

>  <PUBCHEM_EXACT_MASS>
220.031

>  <PUBCHEM_MOLECULAR_FORMULA>
C10H8N2O2S

>  <PUBCHEM_MOLECULAR_WEIGHT>
220.246

>  <PUBCHEM_OPENEYE_CAN_SMILES>
COC1=C(C=CC2=C1C(=CN2)N=C=S)O

>  <PUBCHEM_OPENEYE_ISO_SMILES>
COC1=C(C=CC2=C1C(=CN2)N=C=S)O

>  <PUBCHEM_CACTVS_TPSA>
89.7

>  <PUBCHEM_MONOISOTOPIC_WEIGHT>
220.031

>  <PUBCHEM_TOTAL_CHARGE>
0

>  <PUBCHEM_HEAVY_ATOM_COUNT>
15

>  <PUBCHEM_ATOM_DEF_STEREO_COUNT>
0

>  <PUBCHEM_ATOM_UDEF_STEREO_COUNT>
0

>  <PUBCHEM_BOND_DEF_STEREO_COUNT>
0

>  <PUBCHEM_BOND_UDEF_STEREO_COUNT>
0

>  <PUBCHEM_ISOTOPIC_ATOM_COUNT>
0

>  <PUBCHEM_COMPONENT_COUNT>
1

>  <PUBCHEM_CACTVS_TAUTO_COUNT>
6

>  <PUBCHEM_COORDINATE_TYPE>
1
5
255

>  <PUBCHEM_BONDANNOTATIONS>
10  13  8
12  13  8
4  11  8
4  7  8
6  7  8
6  8  8
6  9  8
7  10  8
8  12  8
9  11  8

$$$$
