16109872
 OpenBabel06101807152D

 71 72  0  0  0  0  0  0  0  0999 V2000
    2.0000   -7.5600    0.0000 O   0  0  0  0  0  0  0  0  0  0  0  0
    5.4641   -7.5600    0.0000 O   0  0  0  0  0  0  0  0  0  0  0  0
    8.0622    7.9400    0.0000 O   0  0  0  0  0  0  0  0  0  0  0  0
   11.5263    7.9400    0.0000 O   0  0  0  0  0  0  0  0  0  0  0  0
    6.3301   -0.0600    0.0000 C   0  0  0  0  0  0  0  0  0  0  0  0
    7.1962    0.4400    0.0000 C   0  0  0  0  0  0  0  0  0  0  0  0
    6.3301   -1.0600    0.0000 C   0  0  0  0  0  0  0  0  0  0  0  0
    7.1962    1.4400    0.0000 C   0  0  0  0  0  0  0  0  0  0  0  0
    5.4641   -1.5600    0.0000 C   0  0  0  0  0  0  0  0  0  0  0  0
    8.0622    1.9400    0.0000 C   0  0  0  0  0  0  0  0  0  0  0  0
    5.4641   -2.5600    0.0000 C   0  0  0  0  0  0  0  0  0  0  0  0
    8.0622    2.9400    0.0000 C   0  0  0  0  0  0  0  0  0  0  0  0
    4.5981   -3.0600    0.0000 C   0  0  0  0  0  0  0  0  0  0  0  0
    8.9282    3.4400    0.0000 C   0  0  0  0  0  0  0  0  0  0  0  0
    4.5981   -4.0600    0.0000 C   0  0  0  0  0  0  0  0  0  0  0  0
    8.9282    4.4400    0.0000 C   0  0  0  0  0  0  0  0  0  0  0  0
    3.7320   -4.5600    0.0000 C   0  0  0  0  0  0  0  0  0  0  0  0
    9.7942    4.9400    0.0000 C   0  0  0  0  0  0  0  0  0  0  0  0
    3.7320   -5.5600    0.0000 C   0  0  0  0  0  0  0  0  0  0  0  0
    9.7942    5.9400    0.0000 C   0  0  0  0  0  0  0  0  0  0  0  0
    2.8660   -6.0600    0.0000 C   0  0  0  0  0  0  0  0  0  0  0  0
    4.5981   -6.0600    0.0000 C   0  0  0  0  0  0  0  0  0  0  0  0
   10.6603    6.4400    0.0000 C   0  0  0  0  0  0  0  0  0  0  0  0
    8.9282    6.4400    0.0000 C   0  0  0  0  0  0  0  0  0  0  0  0
    2.8660   -7.0600    0.0000 C   0  0  0  0  0  0  0  0  0  0  0  0
    4.5981   -7.0600    0.0000 C   0  0  0  0  0  0  0  0  0  0  0  0
    8.9282    7.4400    0.0000 C   0  0  0  0  0  0  0  0  0  0  0  0
   10.6603    7.4400    0.0000 C   0  0  0  0  0  0  0  0  0  0  0  0
    3.7320   -7.5600    0.0000 C   0  0  0  0  0  0  0  0  0  0  0  0
    9.7942    7.9400    0.0000 C   0  0  0  0  0  0  0  0  0  0  0  0
    2.0000   -8.5600    0.0000 C   0  0  0  0  0  0  0  0  0  0  0  0
    6.1181    0.5226    0.0000 H   0  0  0  0  0  0  0  0  0  0  0  0
    5.7196   -0.1677    0.0000 H   0  0  0  0  0  0  0  0  0  0  0  0
    7.4082   -0.1426    0.0000 H   0  0  0  0  0  0  0  0  0  0  0  0
    7.8067    0.5477    0.0000 H   0  0  0  0  0  0  0  0  0  0  0  0
    6.5422   -1.6426    0.0000 H   0  0  0  0  0  0  0  0  0  0  0  0
    6.9407   -0.9523    0.0000 H   0  0  0  0  0  0  0  0  0  0  0  0
    6.9841    2.0226    0.0000 H   0  0  0  0  0  0  0  0  0  0  0  0
    6.5856    1.3323    0.0000 H   0  0  0  0  0  0  0  0  0  0  0  0
    5.2520   -0.9774    0.0000 H   0  0  0  0  0  0  0  0  0  0  0  0
    4.8535   -1.6677    0.0000 H   0  0  0  0  0  0  0  0  0  0  0  0
    8.2742    1.3574    0.0000 H   0  0  0  0  0  0  0  0  0  0  0  0
    8.6728    2.0477    0.0000 H   0  0  0  0  0  0  0  0  0  0  0  0
    5.6762   -3.1426    0.0000 H   0  0  0  0  0  0  0  0  0  0  0  0
    6.0747   -2.4523    0.0000 H   0  0  0  0  0  0  0  0  0  0  0  0
    7.8501    3.5226    0.0000 H   0  0  0  0  0  0  0  0  0  0  0  0
    7.4516    2.8323    0.0000 H   0  0  0  0  0  0  0  0  0  0  0  0
    4.3860   -2.4774    0.0000 H   0  0  0  0  0  0  0  0  0  0  0  0
    3.9875   -3.1677    0.0000 H   0  0  0  0  0  0  0  0  0  0  0  0
    9.1403    2.8574    0.0000 H   0  0  0  0  0  0  0  0  0  0  0  0
    9.5388    3.5477    0.0000 H   0  0  0  0  0  0  0  0  0  0  0  0
    4.8101   -4.6426    0.0000 H   0  0  0  0  0  0  0  0  0  0  0  0
    5.2087   -3.9523    0.0000 H   0  0  0  0  0  0  0  0  0  0  0  0
    8.7162    5.0226    0.0000 H   0  0  0  0  0  0  0  0  0  0  0  0
    8.3176    4.3323    0.0000 H   0  0  0  0  0  0  0  0  0  0  0  0
    3.5200   -3.9774    0.0000 H   0  0  0  0  0  0  0  0  0  0  0  0
    3.1215   -4.6677    0.0000 H   0  0  0  0  0  0  0  0  0  0  0  0
   10.0063    4.3574    0.0000 H   0  0  0  0  0  0  0  0  0  0  0  0
   10.4048    5.0477    0.0000 H   0  0  0  0  0  0  0  0  0  0  0  0
    2.3291   -5.7500    0.0000 H   0  0  0  0  0  0  0  0  0  0  0  0
    5.1350   -5.7500    0.0000 H   0  0  0  0  0  0  0  0  0  0  0  0
   11.1972    6.1300    0.0000 H   0  0  0  0  0  0  0  0  0  0  0  0
    8.3913    6.1300    0.0000 H   0  0  0  0  0  0  0  0  0  0  0  0
    3.7320   -8.1800    0.0000 H   0  0  0  0  0  0  0  0  0  0  0  0
    9.7942    8.5600    0.0000 H   0  0  0  0  0  0  0  0  0  0  0  0
    5.4641   -8.1800    0.0000 H   0  0  0  0  0  0  0  0  0  0  0  0
    8.0622    8.5600    0.0000 H   0  0  0  0  0  0  0  0  0  0  0  0
   11.5263    8.5600    0.0000 H   0  0  0  0  0  0  0  0  0  0  0  0
    1.3800   -8.5600    0.0000 H   0  0  0  0  0  0  0  0  0  0  0  0
    2.0000   -9.1800    0.0000 H   0  0  0  0  0  0  0  0  0  0  0  0
    2.6200   -8.5600    0.0000 H   0  0  0  0  0  0  0  0  0  0  0  0
  1 25  1  0  0  0  0
  1 31  1  0  0  0  0
  2 26  1  0  0  0  0
  2 66  1  0  0  0  0
  3 27  1  0  0  0  0
  3 67  1  0  0  0  0
  4 28  1  0  0  0  0
  4 68  1  0  0  0  0
  5  6  1  0  0  0  0
  5  7  1  0  0  0  0
  5 32  1  0  0  0  0
  5 33  1  0  0  0  0
  6  8  1  0  0  0  0
  6 34  1  0  0  0  0
  6 35  1  0  0  0  0
  7  9  1  0  0  0  0
  7 36  1  0  0  0  0
  7 37  1  0  0  0  0
  8 10  1  0  0  0  0
  8 38  1  0  0  0  0
  8 39  1  0  0  0  0
  9 11  1  0  0  0  0
  9 40  1  0  0  0  0
  9 41  1  0  0  0  0
 10 12  1  0  0  0  0
 10 42  1  0  0  0  0
 10 43  1  0  0  0  0
 11 13  1  0  0  0  0
 11 44  1  0  0  0  0
 11 45  1  0  0  0  0
 12 14  1  0  0  0  0
 12 46  1  0  0  0  0
 12 47  1  0  0  0  0
 13 15  1  0  0  0  0
 13 48  1  0  0  0  0
 13 49  1  0  0  0  0
 14 16  1  0  0  0  0
 14 50  1  0  0  0  0
 14 51  1  0  0  0  0
 15 17  1  0  0  0  0
 15 52  1  0  0  0  0
 15 53  1  0  0  0  0
 16 18  1  0  0  0  0
 16 54  1  0  0  0  0
 16 55  1  0  0  0  0
 17 19  1  0  0  0  0
 17 56  1  0  0  0  0
 17 57  1  0  0  0  0
 18 20  1  0  0  0  0
 18 58  1  0  0  0  0
 18 59  1  0  0  0  0
 19 21  1  0  0  0  0
 19 22  2  0  0  0  0
 20 23  2  0  0  0  0
 20 24  1  0  0  0  0
 21 25  2  0  0  0  0
 21 60  1  0  0  0  0
 22 26  1  0  0  0  0
 22 61  1  0  0  0  0
 23 28  1  0  0  0  0
 23 62  1  0  0  0  0
 24 27  2  0  0  0  0
 24 63  1  0  0  0  0
 25 29  1  0  0  0  0
 26 29  2  0  0  0  0
 27 30  1  0  0  0  0
 28 30  2  0  0  0  0
 29 64  1  0  0  0  0
 30 65  1  0  0  0  0
 31 69  1  0  0  0  0
 31 70  1  0  0  0  0
 31 71  1  0  0  0  0
M  END
>  <PUBCHEM_COMPOUND_CID>
16109872

>  <PUBCHEM_COMPOUND_CANONICALIZED>
1

>  <PUBCHEM_CACTVS_COMPLEXITY>
420

>  <PUBCHEM_CACTVS_HBOND_ACCEPTOR>
4

>  <PUBCHEM_CACTVS_HBOND_DONOR>
3

>  <PUBCHEM_CACTVS_ROTATABLE_BOND>
16

>  <PUBCHEM_CACTVS_SUBSKEYS>
AAADcfB4OAAAAAAAAAAAAAAAAAAAAAAAAAAwYAAAAAAAAAABQAAAGgAACAAADASAmAIyBoAABgCAAiBCAAACCAAgIAAAiAAGCIgMJyKGMRqAcCAlwBUIuAeA4PwOAAABCAAAAAAAAAIQAAAAAAAAAAAAAA==

>  <PUBCHEM_IUPAC_OPENEYE_NAME>
5-[14-(3-hydroxy-5-methoxy-phenyl)tetradecyl]benzene-1,3-diol

>  <PUBCHEM_IUPAC_CAS_NAME>
5-[14-(3-hydroxy-5-methoxyphenyl)tetradecyl]benzene-1,3-diol

>  <PUBCHEM_IUPAC_NAME>
5-[14-(3-hydroxy-5-methoxyphenyl)tetradecyl]benzene-1,3-diol

>  <PUBCHEM_IUPAC_SYSTEMATIC_NAME>
5-[14-(3-methoxy-5-oxidanyl-phenyl)tetradecyl]benzene-1,3-diol

>  <PUBCHEM_IUPAC_TRADITIONAL_NAME>
5-[14-(3-hydroxy-5-methoxy-phenyl)tetradecyl]resorcinol

>  <PUBCHEM_IUPAC_INCHI>
InChI=1S/C27H40O4/c1-31-27-19-23(18-26(30)21-27)15-13-11-9-7-5-3-2-4-6-8-10-12-14-22-16-24(28)20-25(29)17-22/h16-21,28-30H,2-15H2,1H3

>  <PUBCHEM_IUPAC_INCHIKEY>
HACJVLBLYFAKNF-UHFFFAOYSA-N

>  <PUBCHEM_XLOGP3_AA>
9.5

>  <PUBCHEM_EXACT_MASS>
428.293

>  <PUBCHEM_MOLECULAR_FORMULA>
C27H40O4

>  <PUBCHEM_MOLECULAR_WEIGHT>
428.613

>  <PUBCHEM_OPENEYE_CAN_SMILES>
COC1=CC(=CC(=C1)O)CCCCCCCCCCCCCCC2=CC(=CC(=C2)O)O

>  <PUBCHEM_OPENEYE_ISO_SMILES>
COC1=CC(=CC(=C1)O)CCCCCCCCCCCCCCC2=CC(=CC(=C2)O)O

>  <PUBCHEM_CACTVS_TPSA>
69.9

>  <PUBCHEM_MONOISOTOPIC_WEIGHT>
428.293

>  <PUBCHEM_TOTAL_CHARGE>
0

>  <PUBCHEM_HEAVY_ATOM_COUNT>
31

>  <PUBCHEM_ATOM_DEF_STEREO_COUNT>
0

>  <PUBCHEM_ATOM_UDEF_STEREO_COUNT>
0

>  <PUBCHEM_BOND_DEF_STEREO_COUNT>
0

>  <PUBCHEM_BOND_UDEF_STEREO_COUNT>
0

>  <PUBCHEM_ISOTOPIC_ATOM_COUNT>
0

>  <PUBCHEM_COMPONENT_COUNT>
1

>  <PUBCHEM_CACTVS_TAUTO_COUNT>
90

>  <PUBCHEM_COORDINATE_TYPE>
1
5
255

>  <PUBCHEM_BONDANNOTATIONS>
19  21  8
19  22  8
20  23  8
20  24  8
21  25  8
22  26  8
23  28  8
24  27  8
25  29  8
26  29  8
27  30  8
28  30  8

$$$$
