16132408
 OpenBabel06101807152D

125136  0  0  1  0  0  0  0  0999 V2000
    9.0955   -1.4663    0.0000 O   0  0  0  0  0  0  0  0  0  0  0  0
    9.9000   -1.6245    0.0000 O   0  0  0  0  0  0  0  0  0  0  0  0
    6.0532   -1.2338    0.0000 O   0  0  0  0  0  0  0  0  0  0  0  0
   10.1071    0.9839    0.0000 O   0  0  0  0  0  0  0  0  0  0  0  0
   11.8319   -1.1069    0.0000 O   0  0  0  0  0  0  0  0  0  0  0  0
    5.8987   -1.8734    0.0000 O   0  0  0  0  0  0  0  0  0  0  0  0
    8.8378    0.8736    0.0000 O   0  0  0  0  0  0  0  0  0  0  0  0
    3.4051   -0.6341    0.0000 O   0  0  0  0  0  0  0  0  0  0  0  0
    9.3775   -3.0640    0.0000 O   0  0  0  0  0  0  0  0  0  0  0  0
   11.5731    1.2733    0.0000 O   0  0  0  0  0  0  0  0  0  0  0  0
    7.4508   -4.9178    0.0000 O   0  0  0  0  0  0  0  0  0  0  0  0
    5.8482   -3.8171    0.0000 O   0  0  0  0  0  0  0  0  0  0  0  0
    5.6598    2.2521    0.0000 O   0  0  0  0  0  0  0  0  0  0  0  0
   10.8660   -1.3657    0.0000 O   0  0  0  0  0  0  0  0  0  0  0  0
    8.2835   -5.0088    0.0000 O   0  0  0  0  0  0  0  0  0  0  0  0
   11.7046   -5.6165    0.0000 O   0  0  0  0  0  0  0  0  0  0  0  0
    9.8130   -6.3321    0.0000 O   0  0  0  0  0  0  0  0  0  0  0  0
   11.6033    1.7628    0.0000 O   0  0  0  0  0  0  0  0  0  0  0  0
   11.3142   -3.0387    0.0000 O   0  0  0  0  0  0  0  0  0  0  0  0
   12.4765   -5.4565    0.0000 O   0  0  0  0  0  0  0  0  0  0  0  0
    2.2445   -3.4344    0.0000 O   0  0  0  0  0  0  0  0  0  0  0  0
   10.6798    2.9587    0.0000 O   0  0  0  0  0  0  0  0  0  0  0  0
   14.4590   -4.9416    0.0000 O   0  0  0  0  0  0  0  0  0  0  0  0
   14.9892   -2.9631    0.0000 O   0  0  0  0  0  0  0  0  0  0  0  0
    3.4418   -5.0365    0.0000 O   0  0  0  0  0  0  0  0  0  0  0  0
    8.8587    4.8845    0.0000 O   0  0  0  0  0  0  0  0  0  0  0  0
    6.9556    2.4990    0.0000 O   0  0  0  0  0  0  0  0  0  0  0  0
    9.7193    5.3814    0.0000 O   0  0  0  0  0  0  0  0  0  0  0  0
    7.0770    3.8741    0.0000 O   0  0  0  0  0  0  0  0  0  0  0  0
   11.4853    6.4192    0.0000 O   0  0  0  0  0  0  0  0  0  0  0  0
   13.2591    5.3950    0.0000 O   0  0  0  0  0  0  0  0  0  0  0  0
    8.0419   -0.9612    0.0000 C   0  0  1  0  0  0  0  0  0  0  0  0
    8.9119   -0.4802    0.0000 C   0  0  1  0  0  0  0  0  0  0  0  0
    9.9000   -0.5892    0.0000 C   0  0  2  0  0  0  0  0  0  0  0  0
    7.6088   -1.8559    0.0000 C   0  0  0  0  0  0  0  0  0  0  0  0
   10.6071    0.1179    0.0000 C   0  0  1  0  0  0  0  0  0  0  0  0
    7.4464   -0.1579    0.0000 C   0  0  0  0  0  0  0  0  0  0  0  0
    7.7711   -2.8367    0.0000 C   0  0  0  0  0  0  0  0  0  0  0  0
    6.4530   -0.2719    0.0000 C   0  0  0  0  0  0  0  0  0  0  0  0
   11.5731   -0.1410    0.0000 C   0  0  1  0  0  0  0  0  0  0  0  0
    5.8574    0.5314    0.0000 C   0  0  0  0  0  0  0  0  0  0  0  0
    8.4695   -3.5442    0.0000 C   0  0  0  0  0  0  0  0  0  0  0  0
    8.6584   -2.3691    0.0000 C   0  0  0  0  0  0  0  0  0  0  0  0
    6.7648   -2.3733    0.0000 C   0  0  0  0  0  0  0  0  0  0  0  0
    7.8443    0.7596    0.0000 C   0  0  0  0  0  0  0  0  0  0  0  0
    4.8209    0.4286    0.0000 C   0  0  0  0  0  0  0  0  0  0  0  0
    4.3990   -0.5239    0.0000 C   0  0  1  0  0  0  0  0  0  0  0  0
    5.0193   -1.3607    0.0000 C   0  0  1  0  0  0  0  0  0  0  0  0
    9.4480   -3.7191    0.0000 C   0  0  0  0  0  0  0  0  0  0  0  0
   10.3483   -3.2976    0.0000 C   0  0  0  0  0  0  0  0  0  0  0  0
   12.2802    0.5662    0.0000 C   0  0  0  0  0  0  0  0  0  0  0  0
    7.5551   -3.9233    0.0000 C   0  0  0  0  0  0  0  0  0  0  0  0
    6.7391   -3.3628    0.0000 C   0  0  0  0  0  0  0  0  0  0  0  0
    6.2553    1.4488    0.0000 C   0  0  0  0  0  0  0  0  0  0  0  0
   10.6071   -2.3316    0.0000 C   0  0  0  0  0  0  0  0  0  0  0  0
    7.2488    1.5629    0.0000 C   0  0  0  0  0  0  0  0  0  0  0  0
   11.0554   -4.0047    0.0000 C   0  0  0  0  0  0  0  0  0  0  0  0
    4.6250   -2.2796    0.0000 C   0  0  0  0  0  0  0  0  0  0  0  0
    9.2327   -4.6942    0.0000 C   0  0  0  0  0  0  0  0  0  0  0  0
   12.0213   -3.7458    0.0000 C   0  0  0  0  0  0  0  0  0  0  0  0
   10.6071    1.8499    0.0000 C   0  0  0  0  0  0  0  0  0  0  0  0
   10.9218   -4.9942    0.0000 C   0  0  0  0  0  0  0  0  0  0  0  0
   11.5731   -2.0728    0.0000 C   0  0  0  0  0  0  0  0  0  0  0  0
    9.9878   -5.3475    0.0000 C   0  0  0  0  0  0  0  0  0  0  0  0
   12.2802   -2.7799    0.0000 C   0  0  0  0  0  0  0  0  0  0  0  0
    3.6319   -2.3976    0.0000 C   0  0  0  0  0  0  0  0  0  0  0  0
    5.2236   -3.0807    0.0000 C   0  0  0  0  0  0  0  0  0  0  0  0
    9.7411    2.3499    0.0000 C   0  0  0  0  0  0  0  0  0  0  0  0
   12.7465   -4.4936    0.0000 C   0  0  0  0  0  0  0  0  0  0  0  0
   13.2820   -2.4948    0.0000 C   0  0  0  0  0  0  0  0  0  0  0  0
   11.4732    2.3499    0.0000 C   0  0  0  0  0  0  0  0  0  0  0  0
    9.7411    3.3499    0.0000 C   0  0  0  0  0  0  0  0  0  0  0  0
    3.2375   -3.3165    0.0000 C   0  0  0  0  0  0  0  0  0  0  0  0
    4.8292   -3.9996    0.0000 C   0  0  0  0  0  0  0  0  0  0  0  0
   10.6071    3.8499    0.0000 C   0  0  0  0  0  0  0  0  0  0  0  0
   11.4732    3.3499    0.0000 C   0  0  0  0  0  0  0  0  0  0  0  0
   13.7546   -4.2318    0.0000 C   0  0  0  0  0  0  0  0  0  0  0  0
   14.0242   -3.2257    0.0000 C   0  0  0  0  0  0  0  0  0  0  0  0
    3.8362   -4.1175    0.0000 C   0  0  0  0  0  0  0  0  0  0  0  0
    8.8472    1.8153    0.0000 C   0  0  0  0  0  0  0  0  0  0  0  0
    8.8472    3.8846    0.0000 C   0  0  0  0  0  0  0  0  0  0  0  0
    7.9411    2.3291    0.0000 C   0  0  0  0  0  0  0  0  0  0  0  0
   10.5911    4.8914    0.0000 C   0  0  0  0  0  0  0  0  0  0  0  0
   12.3832    3.8568    0.0000 C   0  0  0  0  0  0  0  0  0  0  0  0
    7.9411    3.3707    0.0000 C   0  0  0  0  0  0  0  0  0  0  0  0
   11.4891    5.4192    0.0000 C   0  0  0  0  0  0  0  0  0  0  0  0
   12.3912    4.8984    0.0000 C   0  0  0  0  0  0  0  0  0  0  0  0
    7.7998   -0.1464    0.0000 H   0  0  0  0  0  0  0  0  0  0  0  0
    8.2890    0.0981    0.0000 H   0  0  0  0  0  0  0  0  0  0  0  0
    9.2669   -1.1564    0.0000 H   0  0  0  0  0  0  0  0  0  0  0  0
    9.7644    0.2288    0.0000 H   0  0  0  0  0  0  0  0  0  0  0  0
   12.3941   -0.3609    0.0000 H   0  0  0  0  0  0  0  0  0  0  0  0
    4.8661    1.0469    0.0000 H   0  0  0  0  0  0  0  0  0  0  0  0
    4.2194    0.5789    0.0000 H   0  0  0  0  0  0  0  0  0  0  0  0
    4.0326   -0.0237    0.0000 H   0  0  0  0  0  0  0  0  0  0  0  0
    4.4035   -1.4326    0.0000 H   0  0  0  0  0  0  0  0  0  0  0  0
   12.7186    0.1277    0.0000 H   0  0  0  0  0  0  0  0  0  0  0  0
   12.7186    1.0046    0.0000 H   0  0  0  0  0  0  0  0  0  0  0  0
    7.4955    2.1317    0.0000 H   0  0  0  0  0  0  0  0  0  0  0  0
    5.3618   -2.1835    0.0000 H   0  0  0  0  0  0  0  0  0  0  0  0
    9.2070    0.3756    0.0000 H   0  0  0  0  0  0  0  0  0  0  0  0
    3.0378   -0.1346    0.0000 H   0  0  0  0  0  0  0  0  0  0  0  0
    3.2608   -1.9009    0.0000 H   0  0  0  0  0  0  0  0  0  0  0  0
    5.8393   -3.0076    0.0000 H   0  0  0  0  0  0  0  0  0  0  0  0
    6.8845   -5.1702    0.0000 H   0  0  0  0  0  0  0  0  0  0  0  0
    5.8159   -4.4362    0.0000 H   0  0  0  0  0  0  0  0  0  0  0  0
    5.9065    2.8209    0.0000 H   0  0  0  0  0  0  0  0  0  0  0  0
   13.4356   -1.8942    0.0000 H   0  0  0  0  0  0  0  0  0  0  0  0
    8.1582   -5.6160    0.0000 H   0  0  0  0  0  0  0  0  0  0  0  0
    5.2004   -4.4963    0.0000 H   0  0  0  0  0  0  0  0  0  0  0  0
    8.8543    1.1953    0.0000 H   0  0  0  0  0  0  0  0  0  0  0  0
   11.6131   -6.2297    0.0000 H   0  0  0  0  0  0  0  0  0  0  0  0
   10.2874   -6.7312    0.0000 H   0  0  0  0  0  0  0  0  0  0  0  0
   12.9165    3.5406    0.0000 H   0  0  0  0  0  0  0  0  0  0  0  0
   12.9098   -5.9000    0.0000 H   0  0  0  0  0  0  0  0  0  0  0  0
    2.0000   -4.0042    0.0000 H   0  0  0  0  0  0  0  0  0  0  0  0
   15.0585   -4.7835    0.0000 H   0  0  0  0  0  0  0  0  0  0  0  0
   15.1473   -2.3636    0.0000 H   0  0  0  0  0  0  0  0  0  0  0  0
    2.8261   -5.1096    0.0000 H   0  0  0  0  0  0  0  0  0  0  0  0
    8.3254    5.2007    0.0000 H   0  0  0  0  0  0  0  0  0  0  0  0
    6.7414    3.0808    0.0000 H   0  0  0  0  0  0  0  0  0  0  0  0
    9.7122    6.0013    0.0000 H   0  0  0  0  0  0  0  0  0  0  0  0
    7.0794    4.4941    0.0000 H   0  0  0  0  0  0  0  0  0  0  0  0
   12.0210    6.7312    0.0000 H   0  0  0  0  0  0  0  0  0  0  0  0
   13.7949    5.0830    0.0000 H   0  0  0  0  0  0  0  0  0  0  0  0
  1 33  1  0  0  0  0
  1 43  1  0  0  0  0
  2 34  1  0  0  0  0
  2 55  1  0  0  0  0
  3 39  1  0  0  0  0
  3 48  1  0  0  0  0
  4 36  1  0  0  0  0
  4 61  1  0  0  0  0
  5 40  1  0  0  0  0
  5 63  1  0  0  0  0
  6 44  1  0  0  0  0
  6100  1  0  0  0  0
  7 45  1  0  0  0  0
  7101  1  0  0  0  0
  8102  1  0  0  0  0
  9 43  2  0  0  0  0
 10 51  1  0  0  0  0
 10 71  1  0  0  0  0
 11 52  1  0  0  0  0
 11105  1  0  0  0  0
 12 53  1  0  0  0  0
 12106  1  0  0  0  0
 13 54  1  0  0  0  0
 13107  1  0  0  0  0
 14 55  2  0  0  0  0
 15 59  1  0  0  0  0
 15109  1  0  0  0  0
 16 62  1  0  0  0  0
 16112  1  0  0  0  0
 17 64  1  0  0  0  0
 17113  1  0  0  0  0
 18 61  2  0  0  0  0
 19 63  2  0  0  0  0
 20 69  1  0  0  0  0
 20115  1  0  0  0  0
 21 73  1  0  0  0  0
 21116  1  0  0  0  0
 22 71  2  0  0  0  0
 23 77  1  0  0  0  0
 23117  1  0  0  0  0
 24 78  1  0  0  0  0
 24118  1  0  0  0  0
 25 79  1  0  0  0  0
 25119  1  0  0  0  0
 26 81  1  0  0  0  0
 26120  1  0  0  0  0
 27 82  1  0  0  0  0
 27121  1  0  0  0  0
 28 83  1  0  0  0  0
 28122  1  0  0  0  0
 29 85  1  0  0  0  0
 29123  1  0  0  0  0
 30 86  1  0  0  0  0
 30124  1  0  0  0  0
 31 87  1  0  0  0  0
 31125  1  0  0  0  0
 32 33  1  1  0  0  0
 32 35  1  0  0  0  0
 32 37  1  0  0  0  0
 32 88  1  0  0  0  0
 33 34  1  1  0  0  0
 33 89  1  0  0  0  0
 34 36  1  1  0  0  0
 34 90  1  0  0  0  0
 35 38  1  0  0  0  0
 35 44  2  0  0  0  0
 36 40  1  1  0  0  0
 36 91  1  0  0  0  0
 37 39  1  0  0  0  0
 37 45  2  0  0  0  0
 38 42  2  0  0  0  0
 38 43  1  0  0  0  0
 39 41  2  0  0  0  0
 40 51  1  0  0  0  0
 40 92  1  6  0  0  0
 41 46  1  0  0  0  0
 41 54  1  0  0  0  0
 42 49  1  0  0  0  0
 42 52  1  0  0  0  0
 44 53  1  0  0  0  0
 45 56  1  0  0  0  0
 46 47  1  0  0  0  0
 46 93  1  0  0  0  0
 46 94  1  0  0  0  0
 47  8  1  0  0  0  0
 47 48  1  6  0  0  0
 47 95  1  0  0  0  0
 48 58  1  0  0  0  0
 48 96  1  1  0  0  0
 49 50  1  0  0  0  0
 49 59  2  0  0  0  0
 50 55  1  0  0  0  0
 50 57  2  0  0  0  0
 51 97  1  0  0  0  0
 51 98  1  0  0  0  0
 52 53  2  0  0  0  0
 54 56  2  0  0  0  0
 56 99  1  0  0  0  0
 57 60  1  0  0  0  0
 57 62  1  0  0  0  0
 58 66  2  0  0  0  0
 58 67  1  0  0  0  0
 59 64  1  0  0  0  0
 60 65  1  0  0  0  0
 60 69  2  0  0  0  0
 61 68  1  0  0  0  0
 62 64  2  0  0  0  0
 63 65  1  0  0  0  0
 65 70  2  0  0  0  0
 66 73  1  0  0  0  0
 66103  1  0  0  0  0
 67 74  2  0  0  0  0
 67104  1  0  0  0  0
 68 72  1  0  0  0  0
 68 80  2  0  0  0  0
 69 77  1  0  0  0  0
 70 78  1  0  0  0  0
 70108  1  0  0  0  0
 71 76  1  0  0  0  0
 72 75  1  0  0  0  0
 72 81  2  0  0  0  0
 73 79  2  0  0  0  0
 74 79  1  0  0  0  0
 74110  1  0  0  0  0
 75 76  1  0  0  0  0
 75 83  2  0  0  0  0
 76 84  2  0  0  0  0
 77 78  2  0  0  0  0
 80 82  1  0  0  0  0
 80111  1  0  0  0  0
 81 85  1  0  0  0  0
 82 85  2  0  0  0  0
 83 86  1  0  0  0  0
 84 87  1  0  0  0  0
 84114  1  0  0  0  0
 86 87  2  0  0  0  0
M  END
>  <PUBCHEM_COMPOUND_CID>
16132408

>  <PUBCHEM_COMPOUND_CANONICALIZED>
0

>  <PUBCHEM_CACTVS_COMPLEXITY>
2600

>  <PUBCHEM_CACTVS_HBOND_ACCEPTOR>
31

>  <PUBCHEM_CACTVS_HBOND_DONOR>
20

>  <PUBCHEM_CACTVS_ROTATABLE_BOND>
2

>  <PUBCHEM_CACTVS_SUBSKEYS>
AAADcfB8PgAAAAAAAAAAAAAAAAAAAAAAAAA0aMGDAAAAAACRVAAAGgAACAAADRSgmAIwDoAABgCIAiDSCAACCAAkIAAIiAEGiMgNNzKGNRqCeSGlwBULuYfK7PzOoAADCAAYQABAAAYQADCAAAAAAAAAAA==

>  <PUBCHEM_IUPAC_INCHI>
InChI=1S/C56H38O31/c57-15-2-1-10(3-17(15)59)47-22(64)4-11-16(58)8-18(60)27(48(11)84-47)32-31-34-30(43(73)46(76)44(31)74)29-33-28(41(71)45(75)42(29)72)26-14(7-21(63)37(67)40(26)70)53(78)83-23-9-82-52(77)12-5-19(61)35(65)38(68)24(12)25-13(6-20(62)36(66)39(25)69)54(79)85-49(23)51(87-56(33)81)50(32)86-55(34)80/h1-3,5-8,22-23,32,47,49-51,57-76H,4,9H2/t22-,23+,32+,47+,49+,50-,51-/m0/s1

>  <PUBCHEM_IUPAC_INCHIKEY>
DRHVFLXLYQESEQ-DHGKJAGISA-N

>  <PUBCHEM_XLOGP3_AA>
3

>  <PUBCHEM_EXACT_MASS>
1206.14

>  <PUBCHEM_MOLECULAR_FORMULA>
C56H38O31

>  <PUBCHEM_MOLECULAR_WEIGHT>
1206.889

>  <PUBCHEM_OPENEYE_CAN_SMILES>
C1C(C(OC2=C1C(=CC(=C2C3C4C5C6C(COC(=O)C7=CC(=C(C(=C7C8=C(C(=C(C=C8C(=O)O6)O)O)O)O)O)O)OC(=O)C9=CC(=C(C(=C9C1=C(C(=C(C(=C1O)O)O)C1=C(C3=C(C(=C1O)O)O)C(=O)O4)C(=O)O5)O)O)O)O)O)C1=CC(=C(C=C1)O)O)O

>  <PUBCHEM_OPENEYE_ISO_SMILES>
C1[C@@H]([C@H](OC2=C1C(=CC(=C2[C@H]3[C@H]4[C@@H]5[C@H]6[C@@H](COC(=O)C7=CC(=C(C(=C7C8=C(C(=C(C=C8C(=O)O6)O)O)O)O)O)O)OC(=O)C9=CC(=C(C(=C9C1=C(C(=C(C(=C1O)O)O)C1=C(C3=C(C(=C1O)O)O)C(=O)O4)C(=O)O5)O)O)O)O)O)C1=CC(=C(C=C1)O)O)O

>  <PUBCHEM_CACTVS_TPSA>
545

>  <PUBCHEM_MONOISOTOPIC_WEIGHT>
1206.14

>  <PUBCHEM_TOTAL_CHARGE>
0

>  <PUBCHEM_HEAVY_ATOM_COUNT>
87

>  <PUBCHEM_ATOM_DEF_STEREO_COUNT>
7

>  <PUBCHEM_ATOM_UDEF_STEREO_COUNT>
0

>  <PUBCHEM_BOND_DEF_STEREO_COUNT>
0

>  <PUBCHEM_BOND_UDEF_STEREO_COUNT>
0

>  <PUBCHEM_ISOTOPIC_ATOM_COUNT>
0

>  <PUBCHEM_COMPONENT_COUNT>
1

>  <PUBCHEM_CACTVS_TAUTO_COUNT>
874

>  <PUBCHEM_COORDINATE_TYPE>
1
5
255

>  <PUBCHEM_BONDANNOTATIONS>
32  88  6
33  89  6
34  90  5
35  38  8
35  44  8
36  91  5
37  39  8
37  45  8
38  42  8
39  41  8
40  92  6
41  54  8
42  52  8
44  53  8
45  56  8
48  58  6
49  50  8
49  59  8
50  57  8
52  53  8
54  56  8
57  62  8
58  66  8
58  67  8
59  64  8
60  65  8
60  69  8
62  64  8
65  70  8
66  73  8
67  74  8
68  72  8
68  80  8
69  77  8
70  78  8
72  81  8
73  79  8
74  79  8
75  76  8
75  83  8
76  84  8
77  78  8
47  8  5
80  82  8
81  85  8
82  85  8
83  86  8
84  87  8
86  87  8

$$$$
