16132762
 OpenBabel06101807152D

121133  0  0  1  0  0  0  0  0999 V2000
    4.4300   -1.7187    0.0000 O   0  0  0  0  0  0  0  0  0  0  0  0
    6.8954   -1.4663    0.0000 O   0  0  0  0  0  0  0  0  0  0  0  0
    7.6999   -1.6245    0.0000 O   0  0  0  0  0  0  0  0  0  0  0  0
    6.0196    1.2213    0.0000 O   0  0  0  0  0  0  0  0  0  0  0  0
    3.8078   -2.5763    0.0000 O   0  0  0  0  0  0  0  0  0  0  0  0
    4.7461   -4.4166    0.0000 O   0  0  0  0  0  0  0  0  0  0  0  0
    7.1774   -3.0640    0.0000 O   0  0  0  0  0  0  0  0  0  0  0  0
    7.9070    0.9839    0.0000 O   0  0  0  0  0  0  0  0  0  0  0  0
    9.6318   -1.1069    0.0000 O   0  0  0  0  0  0  0  0  0  0  0  0
    2.5452    1.3352    0.0000 O   0  0  0  0  0  0  0  0  0  0  0  0
    5.2719    3.7031    0.0000 O   0  0  0  0  0  0  0  0  0  0  0  0
    6.0834   -5.0088    0.0000 O   0  0  0  0  0  0  0  0  0  0  0  0
    9.1141   -3.0387    0.0000 O   0  0  0  0  0  0  0  0  0  0  0  0
    9.3730    1.2733    0.0000 O   0  0  0  0  0  0  0  0  0  0  0  0
    7.6128   -6.3321    0.0000 O   0  0  0  0  0  0  0  0  0  0  0  0
    9.5044   -5.6165    0.0000 O   0  0  0  0  0  0  0  0  0  0  0  0
    9.4032    1.7628    0.0000 O   0  0  0  0  0  0  0  0  0  0  0  0
    8.6659   -1.3656    0.0000 O   0  0  0  0  0  0  0  0  0  0  0  0
   10.2764   -5.4565    0.0000 O   0  0  0  0  0  0  0  0  0  0  0  0
    3.1035    4.0175    0.0000 O   0  0  0  0  0  0  0  0  0  0  0  0
   12.2589   -4.9416    0.0000 O   0  0  0  0  0  0  0  0  0  0  0  0
    8.4797    2.9587    0.0000 O   0  0  0  0  0  0  0  0  0  0  0  0
   12.7890   -2.9631    0.0000 O   0  0  0  0  0  0  0  0  0  0  0  0
    4.1596    5.7159    0.0000 O   0  0  0  0  0  0  0  0  0  0  0  0
    6.6586    4.8845    0.0000 O   0  0  0  0  0  0  0  0  0  0  0  0
    4.8769    1.8258    0.0000 O   0  0  0  0  0  0  0  0  0  0  0  0
    4.8769    3.8741    0.0000 O   0  0  0  0  0  0  0  0  0  0  0  0
    7.7394    5.6500    0.0000 O   0  0  0  0  0  0  0  0  0  0  0  0
    9.2851    6.4192    0.0000 O   0  0  0  0  0  0  0  0  0  0  0  0
   11.0590    5.3950    0.0000 O   0  0  0  0  0  0  0  0  0  0  0  0
    5.4086   -1.8559    0.0000 C   0  0  3  0  0  0  0  0  0  0  0  0
    5.8418   -0.9612    0.0000 C   0  0  3  0  0  0  0  0  0  0  0  0
    5.5710   -2.8367    0.0000 C   0  0  3  0  0  0  0  0  0  0  0  0
    6.7118   -0.4802    0.0000 C   0  0  3  0  0  0  0  0  0  0  0  0
    5.1272   -0.2786    0.0000 C   0  0  0  0  0  0  0  0  0  0  0  0
    4.8041   -2.6621    0.0000 C   0  0  0  0  0  0  0  0  0  0  0  0
    7.6999   -0.5892    0.0000 C   0  0  3  0  0  0  0  0  0  0  0  0
    6.2694   -3.5442    0.0000 C   0  0  0  0  0  0  0  0  0  0  0  0
    4.2564   -0.7459    0.0000 C   0  0  0  0  0  0  0  0  0  0  0  0
    6.4583   -2.3691    0.0000 C   0  0  0  0  0  0  0  0  0  0  0  0
    5.2618   -3.5599    0.0000 C   0  0  0  0  0  0  0  0  0  0  0  0
    5.1751    0.7496    0.0000 C   0  0  0  0  0  0  0  0  0  0  0  0
    8.4070    0.1179    0.0000 C   0  0  3  0  0  0  0  0  0  0  0  0
    7.2479   -3.7191    0.0000 C   0  0  0  0  0  0  0  0  0  0  0  0
    4.3043    1.2985    0.0000 C   0  0  0  0  0  0  0  0  0  0  0  0
    3.3732   -0.2173    0.0000 C   0  0  0  0  0  0  0  0  0  0  0  0
    9.3730   -0.1410    0.0000 C   0  0  3  0  0  0  0  0  0  0  0  0
    3.3973    0.8118    0.0000 C   0  0  0  0  0  0  0  0  0  0  0  0
    8.1482   -3.2976    0.0000 C   0  0  0  0  0  0  0  0  0  0  0  0
    4.3656    2.2639    0.0000 C   0  0  0  0  0  0  0  0  0  0  0  0
    6.0453    2.1883    0.0000 C   0  0  3  0  0  0  0  0  0  0  0  0
    5.2270    2.7041    0.0000 C   0  0  3  0  0  0  0  0  0  0  0  0
    8.4070   -2.3316    0.0000 C   0  0  0  0  0  0  0  0  0  0  0  0
    7.0326   -4.6942    0.0000 C   0  0  0  0  0  0  0  0  0  0  0  0
    8.8553   -4.0047    0.0000 C   0  0  0  0  0  0  0  0  0  0  0  0
   10.0801    0.5662    0.0000 C   0  0  0  0  0  0  0  0  0  0  0  0
    7.7877   -5.3475    0.0000 C   0  0  0  0  0  0  0  0  0  0  0  0
    5.5739    3.0702    0.0000 C   0  0  0  0  0  0  0  0  0  0  0  0
    8.7217   -4.9942    0.0000 C   0  0  0  0  0  0  0  0  0  0  0  0
    9.8212   -3.7458    0.0000 C   0  0  0  0  0  0  0  0  0  0  0  0
    8.4070    1.8499    0.0000 C   0  0  0  0  0  0  0  0  0  0  0  0
    9.3730   -2.0728    0.0000 C   0  0  0  0  0  0  0  0  0  0  0  0
   10.0801   -2.7799    0.0000 C   0  0  0  0  0  0  0  0  0  0  0  0
    4.5744    3.1029    0.0000 C   0  0  0  0  0  0  0  0  0  0  0  0
    6.1019    3.9194    0.0000 C   0  0  0  0  0  0  0  0  0  0  0  0
   10.5463   -4.4936    0.0000 C   0  0  0  0  0  0  0  0  0  0  0  0
    7.5410    2.3499    0.0000 C   0  0  0  0  0  0  0  0  0  0  0  0
   11.0819   -2.4948    0.0000 C   0  0  0  0  0  0  0  0  0  0  0  0
    4.1030    3.9848    0.0000 C   0  0  0  0  0  0  0  0  0  0  0  0
    9.2730    2.3499    0.0000 C   0  0  0  0  0  0  0  0  0  0  0  0
    5.6305    4.8013    0.0000 C   0  0  0  0  0  0  0  0  0  0  0  0
   11.5545   -4.2318    0.0000 C   0  0  0  0  0  0  0  0  0  0  0  0
    7.5410    3.3499    0.0000 C   0  0  0  0  0  0  0  0  0  0  0  0
   11.8241   -3.2257    0.0000 C   0  0  0  0  0  0  0  0  0  0  0  0
    4.6310    4.8340    0.0000 C   0  0  0  0  0  0  0  0  0  0  0  0
    6.6470    1.8153    0.0000 C   0  0  0  0  0  0  0  0  0  0  0  0
    9.2730    3.3499    0.0000 C   0  0  0  0  0  0  0  0  0  0  0  0
    8.4070    3.8499    0.0000 C   0  0  0  0  0  0  0  0  0  0  0  0
    6.6470    3.8846    0.0000 C   0  0  0  0  0  0  0  0  0  0  0  0
    5.7410    2.3291    0.0000 C   0  0  0  0  0  0  0  0  0  0  0  0
    5.7410    3.3707    0.0000 C   0  0  0  0  0  0  0  0  0  0  0  0
    8.3910    4.8914    0.0000 C   0  0  0  0  0  0  0  0  0  0  0  0
   10.1830    3.8568    0.0000 C   0  0  0  0  0  0  0  0  0  0  0  0
    9.2890    5.4192    0.0000 C   0  0  0  0  0  0  0  0  0  0  0  0
   10.1911    4.8984    0.0000 C   0  0  0  0  0  0  0  0  0  0  0  0
    5.9214   -0.3463    0.0000 H   0  0  0  0  0  0  0  0  0  0  0  0
    5.0186   -3.1183    0.0000 H   0  0  0  0  0  0  0  0  0  0  0  0
    6.5901    0.1277    0.0000 H   0  0  0  0  0  0  0  0  0  0  0  0
    8.2727   -0.8265    0.0000 H   0  0  0  0  0  0  0  0  0  0  0  0
    8.7844    0.6097    0.0000 H   0  0  0  0  0  0  0  0  0  0  0  0
    2.8303   -0.5167    0.0000 H   0  0  0  0  0  0  0  0  0  0  0  0
    9.9718   -0.3014    0.0000 H   0  0  0  0  0  0  0  0  0  0  0  0
    4.1860    2.8573    0.0000 H   0  0  0  0  0  0  0  0  0  0  0  0
    3.7497    2.1926    0.0000 H   0  0  0  0  0  0  0  0  0  0  0  0
    6.6487    2.3310    0.0000 H   0  0  0  0  0  0  0  0  0  0  0  0
    4.7056    3.0396    0.0000 H   0  0  0  0  0  0  0  0  0  0  0  0
    4.1262   -4.4053    0.0000 H   0  0  0  0  0  0  0  0  0  0  0  0
   10.5185    0.1277    0.0000 H   0  0  0  0  0  0  0  0  0  0  0  0
   10.5185    1.0046    0.0000 H   0  0  0  0  0  0  0  0  0  0  0  0
    2.0000    1.0400    0.0000 H   0  0  0  0  0  0  0  0  0  0  0  0
    5.2998    4.3225    0.0000 H   0  0  0  0  0  0  0  0  0  0  0  0
    5.9581   -5.6160    0.0000 H   0  0  0  0  0  0  0  0  0  0  0  0
    4.2470    2.5764    0.0000 H   0  0  0  0  0  0  0  0  0  0  0  0
    6.7216    3.8992    0.0000 H   0  0  0  0  0  0  0  0  0  0  0  0
    8.0873   -6.7312    0.0000 H   0  0  0  0  0  0  0  0  0  0  0  0
    9.4130   -6.2297    0.0000 H   0  0  0  0  0  0  0  0  0  0  0  0
   11.2354   -1.8942    0.0000 H   0  0  0  0  0  0  0  0  0  0  0  0
    5.9579    5.3278    0.0000 H   0  0  0  0  0  0  0  0  0  0  0  0
    6.6542    1.1953    0.0000 H   0  0  0  0  0  0  0  0  0  0  0  0
   10.7097   -5.9000    0.0000 H   0  0  0  0  0  0  0  0  0  0  0  0
    2.8112    4.5642    0.0000 H   0  0  0  0  0  0  0  0  0  0  0  0
   10.7164    3.5406    0.0000 H   0  0  0  0  0  0  0  0  0  0  0  0
   12.8584   -4.7835    0.0000 H   0  0  0  0  0  0  0  0  0  0  0  0
   12.9472   -2.3636    0.0000 H   0  0  0  0  0  0  0  0  0  0  0  0
    3.5399    5.7362    0.0000 H   0  0  0  0  0  0  0  0  0  0  0  0
    6.1253    5.2007    0.0000 H   0  0  0  0  0  0  0  0  0  0  0  0
    4.8793    1.2058    0.0000 H   0  0  0  0  0  0  0  0  0  0  0  0
    4.3388    3.5661    0.0000 H   0  0  0  0  0  0  0  0  0  0  0  0
    7.9447    6.2350    0.0000 H   0  0  0  0  0  0  0  0  0  0  0  0
    9.8209    6.7312    0.0000 H   0  0  0  0  0  0  0  0  0  0  0  0
   11.5948    5.0830    0.0000 H   0  0  0  0  0  0  0  0  0  0  0  0
  1 31  1  0  0  0  0
  1 39  1  0  0  0  0
  2 34  1  0  0  0  0
  2 40  1  0  0  0  0
  3 37  1  0  0  0  0
  3 53  1  0  0  0  0
  4 42  1  0  0  0  0
  4 51  1  0  0  0  0
  5 36  2  0  0  0  0
  6 41  1  0  0  0  0
  6 97  1  0  0  0  0
  7 40  2  0  0  0  0
  8 43  1  0  0  0  0
  8 61  1  0  0  0  0
  9 47  1  0  0  0  0
  9 62  1  0  0  0  0
 10 48  1  0  0  0  0
 10100  1  0  0  0  0
 11 52  1  0  0  0  0
 11101  1  0  0  0  0
 12 54  1  0  0  0  0
 12102  1  0  0  0  0
 13 53  2  0  0  0  0
 14 56  1  0  0  0  0
 14 70  1  0  0  0  0
 15 57  1  0  0  0  0
 15105  1  0  0  0  0
 16 59  1  0  0  0  0
 16106  1  0  0  0  0
 17 61  2  0  0  0  0
 18 62  2  0  0  0  0
 19 66  1  0  0  0  0
 19110  1  0  0  0  0
 20 69  1  0  0  0  0
 20111  1  0  0  0  0
 21 72  1  0  0  0  0
 21113  1  0  0  0  0
 22 70  2  0  0  0  0
 23 74  1  0  0  0  0
 23114  1  0  0  0  0
 24 75  1  0  0  0  0
 24115  1  0  0  0  0
 25 79  1  0  0  0  0
 25116  1  0  0  0  0
 26 80  1  0  0  0  0
 26117  1  0  0  0  0
 27 81  1  0  0  0  0
 27118  1  0  0  0  0
 28 82  1  0  0  0  0
 28119  1  0  0  0  0
 29 84  1  0  0  0  0
 29120  1  0  0  0  0
 30 85  1  0  0  0  0
 30121  1  0  0  0  0
 31 32  1  0  0  0  0
 31 33  1  0  0  0  0
 31 36  1  0  0  0  0
 32 34  1  0  0  0  0
 32 35  1  0  0  0  0
 32 86  1  0  0  0  0
 33 38  1  0  0  0  0
 33 40  1  0  0  0  0
 33 87  1  0  0  0  0
 34 37  1  0  0  0  0
 34 88  1  0  0  0  0
 35 39  2  0  0  0  0
 35 42  1  0  0  0  0
 36 41  1  0  0  0  0
 37 43  1  0  0  0  0
 37 89  1  0  0  0  0
 38 41  2  0  0  0  0
 38 44  1  0  0  0  0
 39 46  1  0  0  0  0
 42 45  2  0  0  0  0
 43 47  1  0  0  0  0
 43 90  1  0  0  0  0
 44 49  1  0  0  0  0
 44 54  2  0  0  0  0
 45 48  1  0  0  0  0
 45 50  1  0  0  0  0
 46 48  2  0  0  0  0
 46 91  1  0  0  0  0
 47 56  1  0  0  0  0
 47 92  1  0  0  0  0
 49 53  1  0  0  0  0
 49 55  2  0  0  0  0
 50 52  1  0  0  0  0
 50 93  1  0  0  0  0
 50 94  1  0  0  0  0
 51 52  1  0  0  0  0
 51 58  1  0  0  0  0
 51 95  1  0  0  0  0
 52 96  1  0  0  0  0
 54 57  1  0  0  0  0
 55 59  1  0  0  0  0
 55 60  1  0  0  0  0
 56 98  1  0  0  0  0
 56 99  1  0  0  0  0
 57 59  2  0  0  0  0
 58 64  2  0  0  0  0
 58 65  1  0  0  0  0
 60 63  1  0  0  0  0
 60 66  2  0  0  0  0
 61 67  1  0  0  0  0
 62 63  1  0  0  0  0
 63 68  2  0  0  0  0
 64 69  1  0  0  0  0
 64103  1  0  0  0  0
 65 71  2  0  0  0  0
 65104  1  0  0  0  0
 66 72  1  0  0  0  0
 67 73  1  0  0  0  0
 67 76  2  0  0  0  0
 68 74  1  0  0  0  0
 68107  1  0  0  0  0
 69 75  2  0  0  0  0
 70 77  1  0  0  0  0
 71 75  1  0  0  0  0
 71108  1  0  0  0  0
 72 74  2  0  0  0  0
 73 78  1  0  0  0  0
 73 79  2  0  0  0  0
 76 80  1  0  0  0  0
 76109  1  0  0  0  0
 77 78  1  0  0  0  0
 77 83  2  0  0  0  0
 78 82  2  0  0  0  0
 79 81  1  0  0  0  0
 80 81  2  0  0  0  0
 82 84  1  0  0  0  0
 83 85  1  0  0  0  0
 83112  1  0  0  0  0
 84 85  2  0  0  0  0
M  END
>  <PUBCHEM_COMPOUND_CID>
16132762

>  <PUBCHEM_COMPOUND_CANONICALIZED>
0

>  <PUBCHEM_CACTVS_COMPLEXITY>
2740

>  <PUBCHEM_CACTVS_HBOND_ACCEPTOR>
30

>  <PUBCHEM_CACTVS_HBOND_DONOR>
17

>  <PUBCHEM_CACTVS_ROTATABLE_BOND>
1

>  <PUBCHEM_CACTVS_SUBSKEYS>
AAADcfB8PgAAAAAAAAAAAAAAAAAAASIAAAA0aMGDAAAAAEiRVAAAGgAACAAADVSgmAIwDoAABgCIAqDSCAICCAAkIAAIiAFGiMgNNzaGNR6CeSGl4BULuYfL7PzOoAADCAAYQABAAAYQADCAAAAAAAAAAA==

>  <PUBCHEM_IUPAC_INCHI>
InChI=1S/C55H36O30/c56-15-2-1-10(3-17(15)58)44-21(62)4-11-16(57)8-22-27(45(11)81-44)32-47-48-46-23(9-79-50(74)12-5-18(59)34(63)37(66)24(12)25-13(52(76)82-46)6-19(60)35(64)38(25)67)80-51(75)14-7-20(61)36(65)39(68)26(14)28-30(53(77)84-48)29(41(70)43(72)40(28)69)31-33(54(78)83-47)55(32,85-22)49(73)42(31)71/h1-3,5-8,21,23,32-33,44,46-48,56-72H,4,9H2

>  <PUBCHEM_IUPAC_INCHIKEY>
GCVPUYDXNUQSNY-UHFFFAOYSA-N

>  <PUBCHEM_XLOGP3_AA>
1.9

>  <PUBCHEM_EXACT_MASS>
1176.129

>  <PUBCHEM_MOLECULAR_FORMULA>
C55H36O30

>  <PUBCHEM_MOLECULAR_WEIGHT>
1176.863

>  <PUBCHEM_OPENEYE_CAN_SMILES>
C1C(C(OC2=C3C4C5C6C7C(COC(=O)C8=CC(=C(C(=C8C9=C(C(=C(C=C9C(=O)O7)O)O)O)O)O)O)OC(=O)C7=CC(=C(C(=C7C7=C(C(=C(C(=C7O)O)O)C7=C(C(=O)C4(C7C(=O)O5)OC3=CC(=C21)O)O)C(=O)O6)O)O)O)C1=CC(=C(C=C1)O)O)O

>  <PUBCHEM_OPENEYE_ISO_SMILES>
C1C(C(OC2=C3C4C5C6C7C(COC(=O)C8=CC(=C(C(=C8C9=C(C(=C(C=C9C(=O)O7)O)O)O)O)O)O)OC(=O)C7=CC(=C(C(=C7C7=C(C(=C(C(=C7O)O)O)C7=C(C(=O)C4(C7C(=O)O5)OC3=CC(=C21)O)O)C(=O)O6)O)O)O)C1=CC(=C(C=C1)O)O)O

>  <PUBCHEM_CACTVS_TPSA>
511

>  <PUBCHEM_MONOISOTOPIC_WEIGHT>
1176.129

>  <PUBCHEM_TOTAL_CHARGE>
0

>  <PUBCHEM_HEAVY_ATOM_COUNT>
85

>  <PUBCHEM_ATOM_DEF_STEREO_COUNT>
0

>  <PUBCHEM_ATOM_UDEF_STEREO_COUNT>
9

>  <PUBCHEM_BOND_DEF_STEREO_COUNT>
0

>  <PUBCHEM_BOND_UDEF_STEREO_COUNT>
0

>  <PUBCHEM_ISOTOPIC_ATOM_COUNT>
0

>  <PUBCHEM_COMPONENT_COUNT>
1

>  <PUBCHEM_CACTVS_TAUTO_COUNT>
938

>  <PUBCHEM_COORDINATE_TYPE>
1
5
255

>  <PUBCHEM_BONDANNOTATIONS>
52  11  3
34  2  3
37  3  3
31  36  3
32  35  3
33  40  3
35  39  8
35  42  8
39  46  8
42  45  8
44  49  8
44  54  8
45  48  8
46  48  8
47  56  3
49  55  8
51  58  3
54  57  8
55  59  8
57  59  8
58  64  8
58  65  8
60  63  8
60  66  8
63  68  8
64  69  8
65  71  8
66  72  8
67  73  8
67  76  8
68  74  8
69  75  8
71  75  8
72  74  8
73  79  8
76  80  8
77  78  8
77  83  8
78  82  8
79  81  8
43  8  3
80  81  8
82  84  8
83  85  8
84  85  8

$$$$
