16130973
 OpenBabel06101807152D

132144  0  0  1  0  0  0  0  0999 V2000
   10.0994    3.2135    0.0000 O   0  0  0  0  0  0  0  0  0  0  0  0
    6.6345    3.1001    0.0000 O   0  0  0  0  0  0  0  0  0  0  0  0
    8.0445   -0.0462    0.0000 O   0  0  0  0  0  0  0  0  0  0  0  0
    7.4311    5.2598    0.0000 O   0  0  0  0  0  0  0  0  0  0  0  0
    6.9482   -2.6106    0.0000 O   0  0  0  0  0  0  0  0  0  0  0  0
   14.2609    2.9311    0.0000 O   0  0  0  0  0  0  0  0  0  0  0  0
    9.0433   -0.0009    0.0000 O   0  0  0  0  0  0  0  0  0  0  0  0
    6.0107   -3.0107    0.0000 O   0  0  0  0  0  0  0  0  0  0  0  0
    4.3657    0.9039    0.0000 O   0  0  0  0  0  0  0  0  0  0  0  0
   12.9603    0.6271    0.0000 O   0  0  0  0  0  0  0  0  0  0  0  0
   12.2390    0.1195    0.0000 O   0  0  0  0  0  0  0  0  0  0  0  0
    3.8026   -0.0673    0.0000 O   0  0  0  0  0  0  0  0  0  0  0  0
    4.9267   -5.5001    0.0000 O   0  0  0  0  0  0  0  0  0  0  0  0
   10.8150    3.5565    0.0000 O   0  0  0  0  0  0  0  0  0  0  0  0
    7.7712    6.7572    0.0000 O   0  0  0  0  0  0  0  0  0  0  0  0
    2.5127   -2.7457    0.0000 O   0  0  0  0  0  0  0  0  0  0  0  0
    9.7030    7.2749    0.0000 O   0  0  0  0  0  0  0  0  0  0  0  0
   13.0958    6.2636    0.0000 O   0  0  0  0  0  0  0  0  0  0  0  0
    9.5400   -4.2254    0.0000 O   0  0  0  0  0  0  0  0  0  0  0  0
   11.3274   -3.3279    0.0000 O   0  0  0  0  0  0  0  0  0  0  0  0
   17.4893    1.3258    0.0000 O   0  0  0  0  0  0  0  0  0  0  0  0
   17.1304   -0.6418    0.0000 O   0  0  0  0  0  0  0  0  0  0  0  0
    7.4606   -7.1636    0.0000 O   0  0  0  0  0  0  0  0  0  0  0  0
    9.2582   -6.2868    0.0000 O   0  0  0  0  0  0  0  0  0  0  0  0
    8.4089    2.4453    0.0000 C   0  0  1  0  0  0  0  0  0  0  0  0
    7.9311    4.3938    0.0000 C   0  0  2  0  0  0  0  0  0  0  0  0
    8.6677    3.4112    0.0000 C   0  0  1  0  0  0  0  0  0  0  0  0
    7.1879    1.5796    0.0000 C   0  0  0  0  0  0  0  0  0  0  0  0
    9.6806    1.6506    0.0000 C   0  0  0  0  0  0  0  0  0  0  0  0
    6.1146   -1.0061    0.0000 C   0  0  1  0  0  0  0  0  0  0  0  0
    7.1313    0.5395    0.0000 C   0  0  0  0  0  0  0  0  0  0  0  0
   10.4577    2.2799    0.0000 C   0  0  0  0  0  0  0  0  0  0  0  0
    6.3589    2.1388    0.0000 C   0  0  0  0  0  0  0  0  0  0  0  0
    6.1986    0.0757    0.0000 C   0  0  0  0  0  0  0  0  0  0  0  0
    7.0141   -1.6128    0.0000 C   0  0  2  0  0  0  0  0  0  0  0  0
   11.4358    1.9217    0.0000 C   0  0  0  0  0  0  0  0  0  0  0  0
   12.3775    2.2582    0.0000 C   0  0  2  0  0  0  0  0  0  0  0  0
    7.9856   -1.1296    0.0000 C   0  0  1  0  0  0  0  0  0  0  0  0
    8.9266    4.3771    0.0000 C   0  0  0  0  0  0  0  0  0  0  0  0
    9.8277    0.6194    0.0000 C   0  0  0  0  0  0  0  0  0  0  0  0
    5.3350    0.6582    0.0000 C   0  0  0  0  0  0  0  0  0  0  0  0
    5.4157    1.6967    0.0000 C   0  0  0  0  0  0  0  0  0  0  0  0
    5.2141   -1.4410    0.0000 C   0  0  0  0  0  0  0  0  0  0  0  0
   13.1398    1.6109    0.0000 C   0  0  2  0  0  0  0  0  0  0  0  0
   11.6067    0.8942    0.0000 C   0  0  0  0  0  0  0  0  0  0  0  0
   12.5570    3.2419    0.0000 C   0  0  0  0  0  0  0  0  0  0  0  0
   14.0815    1.9474    0.0000 C   0  0  1  0  0  0  0  0  0  0  0  0
   10.7972    0.2387    0.0000 C   0  0  0  0  0  0  0  0  0  0  0  0
    8.8210   -1.6792    0.0000 C   0  0  0  0  0  0  0  0  0  0  0  0
    5.1405   -2.4382    0.0000 C   0  0  0  0  0  0  0  0  0  0  0  0
    8.2194    5.0842    0.0000 C   0  0  0  0  0  0  0  0  0  0  0  0
    9.8925    4.6359    0.0000 C   0  0  0  0  0  0  0  0  0  0  0  0
    4.3872   -0.8786    0.0000 C   0  0  0  0  0  0  0  0  0  0  0  0
   13.4987    3.5784    0.0000 C   0  0  0  0  0  0  0  0  0  0  0  0
    4.2400   -2.8731    0.0000 C   0  0  0  0  0  0  0  0  0  0  0  0
    4.1473   -3.9106    0.0000 C   0  0  0  0  0  0  0  0  0  0  0  0
    5.9421   -4.0501    0.0000 C   0  0  1  0  0  0  0  0  0  0  0  0
    5.0041   -4.5031    0.0000 C   0  0  2  0  0  0  0  0  0  0  0  0
   11.7527    3.9039    0.0000 C   0  0  0  0  0  0  0  0  0  0  0  0
   14.8437    1.3001    0.0000 C   0  0  0  0  0  0  0  0  0  0  0  0
    8.4783    6.0502    0.0000 C   0  0  0  0  0  0  0  0  0  0  0  0
    3.4131   -2.3108    0.0000 C   0  0  0  0  0  0  0  0  0  0  0  0
    3.4867   -1.3135    0.0000 C   0  0  0  0  0  0  0  0  0  0  0  0
   10.1513    5.6019    0.0000 C   0  0  0  0  0  0  0  0  0  0  0  0
    8.7628   -2.6775    0.0000 C   0  0  0  0  0  0  0  0  0  0  0  0
    9.7147   -1.2305    0.0000 C   0  0  0  0  0  0  0  0  0  0  0  0
   13.7014    4.6001    0.0000 C   0  0  0  0  0  0  0  0  0  0  0  0
    9.4442    6.3090    0.0000 C   0  0  0  0  0  0  0  0  0  0  0  0
   11.9317    4.9300    0.0000 C   0  0  0  0  0  0  0  0  0  0  0  0
    6.7711   -4.6092    0.0000 C   0  0  0  0  0  0  0  0  0  0  0  0
   12.9126    5.2805    0.0000 C   0  0  0  0  0  0  0  0  0  0  0  0
    9.5982   -3.2271    0.0000 C   0  0  0  0  0  0  0  0  0  0  0  0
   15.7854    1.6366    0.0000 C   0  0  0  0  0  0  0  0  0  0  0  0
   14.6643    0.3163    0.0000 C   0  0  0  0  0  0  0  0  0  0  0  0
   10.5501   -1.7800    0.0000 C   0  0  0  0  0  0  0  0  0  0  0  0
   10.4919   -2.7783    0.0000 C   0  0  0  0  0  0  0  0  0  0  0  0
   16.5476    0.9893    0.0000 C   0  0  0  0  0  0  0  0  0  0  0  0
    6.7014   -5.6068    0.0000 C   0  0  0  0  0  0  0  0  0  0  0  0
    7.6699   -4.1709    0.0000 C   0  0  0  0  0  0  0  0  0  0  0  0
   15.4265   -0.3310    0.0000 C   0  0  0  0  0  0  0  0  0  0  0  0
   16.3682    0.0055    0.0000 C   0  0  0  0  0  0  0  0  0  0  0  0
    7.5304   -6.1660    0.0000 C   0  0  0  0  0  0  0  0  0  0  0  0
    8.4989   -4.7301    0.0000 C   0  0  0  0  0  0  0  0  0  0  0  0
    8.4292   -5.7276    0.0000 C   0  0  0  0  0  0  0  0  0  0  0  0
    8.1889    1.6242    0.0000 H   0  0  0  0  0  0  0  0  0  0  0  0
    8.4486    4.7354    0.0000 H   0  0  0  0  0  0  0  0  0  0  0  0
    6.0536   -1.8539    0.0000 H   0  0  0  0  0  0  0  0  0  0  0  0
    6.4574   -1.8856    0.0000 H   0  0  0  0  0  0  0  0  0  0  0  0
   12.2250    1.4220    0.0000 H   0  0  0  0  0  0  0  0  0  0  0  0
    7.9483   -1.7485    0.0000 H   0  0  0  0  0  0  0  0  0  0  0  0
    4.9058    2.0493    0.0000 H   0  0  0  0  0  0  0  0  0  0  0  0
   13.6124    1.2096    0.0000 H   0  0  0  0  0  0  0  0  0  0  0  0
    6.8111    5.2598    0.0000 H   0  0  0  0  0  0  0  0  0  0  0  0
   14.6653    2.1560    0.0000 H   0  0  0  0  0  0  0  0  0  0  0  0
   10.8918   -0.3741    0.0000 H   0  0  0  0  0  0  0  0  0  0  0  0
    7.6206    4.9238    0.0000 H   0  0  0  0  0  0  0  0  0  0  0  0
   10.3309    4.1975    0.0000 H   0  0  0  0  0  0  0  0  0  0  0  0
    7.4635   -2.9553    0.0000 H   0  0  0  0  0  0  0  0  0  0  0  0
    3.5484   -3.7506    0.0000 H   0  0  0  0  0  0  0  0  0  0  0  0
    3.8872   -4.4734    0.0000 H   0  0  0  0  0  0  0  0  0  0  0  0
    5.8976   -4.6685    0.0000 H   0  0  0  0  0  0  0  0  0  0  0  0
    5.5161   -4.8527    0.0000 H   0  0  0  0  0  0  0  0  0  0  0  0
    9.1332   -0.6143    0.0000 H   0  0  0  0  0  0  0  0  0  0  0  0
    4.1972    1.5005    0.0000 H   0  0  0  0  0  0  0  0  0  0  0  0
    2.9741   -0.9648    0.0000 H   0  0  0  0  0  0  0  0  0  0  0  0
   10.7502    5.7623    0.0000 H   0  0  0  0  0  0  0  0  0  0  0  0
   13.4329    0.2258    0.0000 H   0  0  0  0  0  0  0  0  0  0  0  0
    8.2087   -2.9557    0.0000 H   0  0  0  0  0  0  0  0  0  0  0  0
    9.7508   -0.6115    0.0000 H   0  0  0  0  0  0  0  0  0  0  0  0
   12.0191   -0.4602    0.0000 H   0  0  0  0  0  0  0  0  0  0  0  0
   14.2876    4.8020    0.0000 H   0  0  0  0  0  0  0  0  0  0  0  0
   11.4576    5.3295    0.0000 H   0  0  0  0  0  0  0  0  0  0  0  0
   15.8967    2.2465    0.0000 H   0  0  0  0  0  0  0  0  0  0  0  0
   14.0804    0.1077    0.0000 H   0  0  0  0  0  0  0  0  0  0  0  0
    3.1857   -0.1297    0.0000 H   0  0  0  0  0  0  0  0  0  0  0  0
   11.1042   -1.5018    0.0000 H   0  0  0  0  0  0  0  0  0  0  0  0
    4.3673   -5.7676    0.0000 H   0  0  0  0  0  0  0  0  0  0  0  0
   10.3378    3.9523    0.0000 H   0  0  0  0  0  0  0  0  0  0  0  0
    7.9316    7.3561    0.0000 H   0  0  0  0  0  0  0  0  0  0  0  0
    2.0000   -2.3970    0.0000 H   0  0  0  0  0  0  0  0  0  0  0  0
    6.1441   -5.8786    0.0000 H   0  0  0  0  0  0  0  0  0  0  0  0
    7.7132   -3.5524    0.0000 H   0  0  0  0  0  0  0  0  0  0  0  0
   15.3152   -0.9409    0.0000 H   0  0  0  0  0  0  0  0  0  0  0  0
   10.3019    7.4354    0.0000 H   0  0  0  0  0  0  0  0  0  0  0  0
   13.6805    6.4699    0.0000 H   0  0  0  0  0  0  0  0  0  0  0  0
   10.0580   -4.5661    0.0000 H   0  0  0  0  0  0  0  0  0  0  0  0
    9.0562   -4.4583    0.0000 H   0  0  0  0  0  0  0  0  0  0  0  0
   11.8814   -3.0497    0.0000 H   0  0  0  0  0  0  0  0  0  0  0  0
   17.6006    1.9357    0.0000 H   0  0  0  0  0  0  0  0  0  0  0  0
   17.7143   -0.4332    0.0000 H   0  0  0  0  0  0  0  0  0  0  0  0
    6.9034   -7.4354    0.0000 H   0  0  0  0  0  0  0  0  0  0  0  0
    9.2150   -6.9053    0.0000 H   0  0  0  0  0  0  0  0  0  0  0  0
  1 27  1  0  0  0  0
  1 32  1  0  0  0  0
  2 27  1  0  0  0  0
  2 33  1  0  0  0  0
  3 31  1  0  0  0  0
  3 38  1  0  0  0  0
  4 93  1  0  0  0  0
  5 98  1  0  0  0  0
  6 47  1  0  0  0  0
  6 54  1  0  0  0  0
  7 40  1  0  0  0  0
  7103  1  0  0  0  0
  8 50  1  0  0  0  0
  8 57  1  0  0  0  0
  9 41  1  0  0  0  0
  9104  1  0  0  0  0
 10107  1  0  0  0  0
 11 45  1  0  0  0  0
 11110  1  0  0  0  0
 12 53  1  0  0  0  0
 12115  1  0  0  0  0
 13117  1  0  0  0  0
 14 59  1  0  0  0  0
 14118  1  0  0  0  0
 15 61  1  0  0  0  0
 15119  1  0  0  0  0
 16 62  1  0  0  0  0
 16120  1  0  0  0  0
 17 68  1  0  0  0  0
 17124  1  0  0  0  0
 18 71  1  0  0  0  0
 18125  1  0  0  0  0
 19 72  1  0  0  0  0
 19126  1  0  0  0  0
 20 76  1  0  0  0  0
 20128  1  0  0  0  0
 21 77  1  0  0  0  0
 21129  1  0  0  0  0
 22 81  1  0  0  0  0
 22130  1  0  0  0  0
 23 82  1  0  0  0  0
 23131  1  0  0  0  0
 24 84  1  0  0  0  0
 24132  1  0  0  0  0
 25 26  1  1  0  0  0
 25 28  1  0  0  0  0
 25 29  1  0  0  0  0
 25 85  1  0  0  0  0
 26  4  1  0  0  0  0
 26 27  1  1  0  0  0
 26 86  1  0  0  0  0
 27 39  1  6  0  0  0
 28 31  1  0  0  0  0
 28 33  2  0  0  0  0
 29 32  1  0  0  0  0
 29 40  2  0  0  0  0
 30 34  1  0  0  0  0
 30 35  1  1  0  0  0
 30 43  1  0  0  0  0
 30 87  1  0  0  0  0
 31 34  2  0  0  0  0
 32 36  2  0  0  0  0
 33 42  1  0  0  0  0
 34 41  1  0  0  0  0
 35  5  1  0  0  0  0
 35 38  1  1  0  0  0
 35 88  1  0  0  0  0
 36 37  1  0  0  0  0
 36 45  1  0  0  0  0
 37 44  1  1  0  0  0
 37 46  1  0  0  0  0
 37 89  1  0  0  0  0
 38 49  1  0  0  0  0
 38 90  1  1  0  0  0
 39 51  2  0  0  0  0
 39 52  1  0  0  0  0
 40 48  1  0  0  0  0
 41 42  2  0  0  0  0
 42 91  1  0  0  0  0
 43 50  1  0  0  0  0
 43 53  2  0  0  0  0
 44 10  1  0  0  0  0
 44 47  1  6  0  0  0
 44 92  1  0  0  0  0
 45 48  2  0  0  0  0
 46 54  1  0  0  0  0
 46 59  2  0  0  0  0
 47 60  1  0  0  0  0
 47 94  1  1  0  0  0
 48 95  1  0  0  0  0
 49 65  2  0  0  0  0
 49 66  1  0  0  0  0
 50 55  2  0  0  0  0
 51 61  1  0  0  0  0
 51 96  1  0  0  0  0
 52 64  2  0  0  0  0
 52 97  1  0  0  0  0
 53 63  1  0  0  0  0
 54 67  2  0  0  0  0
 55 56  1  0  0  0  0
 55 62  1  0  0  0  0
 56 58  1  0  0  0  0
 56 99  1  0  0  0  0
 56100  1  0  0  0  0
 57 58  1  6  0  0  0
 57 70  1  0  0  0  0
 57101  1  0  0  0  0
 58 13  1  0  0  0  0
 58102  1  1  0  0  0
 59 69  1  0  0  0  0
 60 73  2  0  0  0  0
 60 74  1  0  0  0  0
 61 68  2  0  0  0  0
 62 63  2  0  0  0  0
 63105  1  0  0  0  0
 64 68  1  0  0  0  0
 64106  1  0  0  0  0
 65 72  1  0  0  0  0
 65108  1  0  0  0  0
 66 75  2  0  0  0  0
 66109  1  0  0  0  0
 67 71  1  0  0  0  0
 67111  1  0  0  0  0
 69 71  2  0  0  0  0
 69112  1  0  0  0  0
 70 78  2  0  0  0  0
 70 79  1  0  0  0  0
 72 76  2  0  0  0  0
 73 77  1  0  0  0  0
 73113  1  0  0  0  0
 74 80  2  0  0  0  0
 74114  1  0  0  0  0
 75 76  1  0  0  0  0
 75116  1  0  0  0  0
 77 81  2  0  0  0  0
 78 82  1  0  0  0  0
 78121  1  0  0  0  0
 79 83  2  0  0  0  0
 79122  1  0  0  0  0
 80 81  1  0  0  0  0
 80123  1  0  0  0  0
 82 84  2  0  0  0  0
 83 84  1  0  0  0  0
 83127  1  0  0  0  0
M  END
>  <PUBCHEM_COMPOUND_CID>
16130973

>  <PUBCHEM_COMPOUND_CANONICALIZED>
1

>  <PUBCHEM_CACTVS_COMPLEXITY>
2280

>  <PUBCHEM_CACTVS_HBOND_ACCEPTOR>
24

>  <PUBCHEM_CACTVS_HBOND_DONOR>
19

>  <PUBCHEM_CACTVS_ROTATABLE_BOND>
6

>  <PUBCHEM_CACTVS_SUBSKEYS>
AAADcfB8PgAAAAAAAAAAAAAAAAAAAAAAAAA0aNGjQAASAACRVAAAGgAACAAADRSgmAIwDoAABgCAAiBCAAACCAAgIAAIiAAGiIgdNyKGMRqieCGlwBUPuAfA4PwOoAADCAAIQABAAAYQABCAAAAAAAAAAA==

>  <PUBCHEM_IUPAC_INCHI>
InChI=1S/C60H48O24/c61-23-13-34(71)42-40(14-23)80-54(20-2-6-26(63)31(68)10-20)51(77)48(42)45-36(73)17-37(74)46-50-47-41(83-60(59(50)79,84-58(45)46)22-4-8-28(65)33(70)12-22)18-38(75)44-49(52(78)55(82-57(44)47)21-3-7-27(64)32(69)11-21)43-35(72)16-29(66)24-15-39(76)53(81-56(24)43)19-1-5-25(62)30(67)9-19/h1-14,16-18,39,48-55,59,61-79H,15H2/t39-,48-,49+,50-,51-,52-,53-,54-,55-,59-,60-/m1/s1

>  <PUBCHEM_IUPAC_INCHIKEY>
QRQAODSINXAOBF-UKTWWWBFSA-N

>  <PUBCHEM_XLOGP3_AA>
4.3

>  <PUBCHEM_EXACT_MASS>
1152.254

>  <PUBCHEM_MOLECULAR_FORMULA>
C60H48O24

>  <PUBCHEM_MOLECULAR_WEIGHT>
1153.02

>  <PUBCHEM_OPENEYE_CAN_SMILES>
C1C(C(OC2=C1C(=CC(=C2C3C(C(OC4=C5C6C(C(OC5=CC(=C34)O)(OC7=C6C(=CC(=C7C8C(C(OC9=CC(=CC(=C89)O)O)C1=CC(=C(C=C1)O)O)O)O)O)C1=CC(=C(C=C1)O)O)O)C1=CC(=C(C=C1)O)O)O)O)O)C1=CC(=C(C=C1)O)O)O

>  <PUBCHEM_OPENEYE_ISO_SMILES>
C1[C@H]([C@H](OC2=C1C(=CC(=C2[C@@H]3[C@H]([C@H](OC4=C5[C@@H]6[C@H]([C@](OC5=CC(=C34)O)(OC7=C6C(=CC(=C7[C@@H]8[C@H]([C@H](OC9=CC(=CC(=C89)O)O)C1=CC(=C(C=C1)O)O)O)O)O)C1=CC(=C(C=C1)O)O)O)C1=CC(=C(C=C1)O)O)O)O)O)C1=CC(=C(C=C1)O)O)O

>  <PUBCHEM_CACTVS_TPSA>
431

>  <PUBCHEM_MONOISOTOPIC_WEIGHT>
1152.254

>  <PUBCHEM_TOTAL_CHARGE>
0

>  <PUBCHEM_HEAVY_ATOM_COUNT>
84

>  <PUBCHEM_ATOM_DEF_STEREO_COUNT>
11

>  <PUBCHEM_ATOM_UDEF_STEREO_COUNT>
0

>  <PUBCHEM_BOND_DEF_STEREO_COUNT>
0

>  <PUBCHEM_BOND_UDEF_STEREO_COUNT>
0

>  <PUBCHEM_ISOTOPIC_ATOM_COUNT>
0

>  <PUBCHEM_COMPONENT_COUNT>
1

>  <PUBCHEM_CACTVS_TAUTO_COUNT>
746

>  <PUBCHEM_COORDINATE_TYPE>
1
5
255

>  <PUBCHEM_BONDANNOTATIONS>
44  10  6
58  13  6
25  85  5
27  39  6
28  31  8
28  33  8
29  32  8
29  40  8
30  87  6
31  34  8
32  36  8
33  42  8
34  41  8
36  45  8
37  89  6
38  49  6
39  51  8
39  52  8
26  4  5
40  48  8
41  42  8
43  50  8
43  53  8
45  48  8
46  54  8
46  59  8
47  60  6
49  65  8
49  66  8
35  5  6
50  55  8
51  61  8
52  64  8
53  63  8
54  67  8
55  62  8
57  70  6
59  69  8
60  73  8
60  74  8
61  68  8
62  63  8
64  68  8
65  72  8
66  75  8
67  71  8
69  71  8
70  78  8
70  79  8
72  76  8
73  77  8
74  80  8
75  76  8
77  81  8
78  82  8
79  83  8
80  81  8
82  84  8
83  84  8

$$$$
