16133867
 OpenBabel06101807152D

241260  0  0  1  0  0  0  0  0999 V2000
   11.9365    7.8190    0.0000 O   0  0  0  0  0  0  0  0  0  0  0  0
   13.7184    8.0677    0.0000 O   0  0  0  0  0  0  0  0  0  0  0  0
   14.9191    4.8562    0.0000 O   0  0  0  0  0  0  0  0  0  0  0  0
   14.1896    2.1783    0.0000 O   0  0  0  0  0  0  0  0  0  0  0  0
   13.8202    9.2173    0.0000 O   0  0  0  0  0  0  0  0  0  0  0  0
   12.8547    8.9569    0.0000 O   0  0  0  0  0  0  0  0  0  0  0  0
   12.0493    3.3767    0.0000 O   0  0  0  0  0  0  0  0  0  0  0  0
   16.6562    3.8533    0.0000 O   0  0  0  0  0  0  0  0  0  0  0  0
   15.9983    1.6262    0.0000 O   0  0  0  0  0  0  0  0  0  0  0  0
   15.2841    8.5948    0.0000 O   0  0  0  0  0  0  0  0  0  0  0  0
   15.4187    0.9045    0.0000 O   0  0  0  0  0  0  0  0  0  0  0  0
    9.8766    7.8421    0.0000 O   0  0  0  0  0  0  0  0  0  0  0  0
   15.4066    6.3812    0.0000 O   0  0  0  0  0  0  0  0  0  0  0  0
    8.9880    5.6289    0.0000 O   0  0  0  0  0  0  0  0  0  0  0  0
   10.5243    3.8642    0.0000 O   0  0  0  0  0  0  0  0  0  0  0  0
    8.5571    1.3007    0.0000 O   0  0  0  0  0  0  0  0  0  0  0  0
    6.9836    2.4305    0.0000 O   0  0  0  0  0  0  0  0  0  0  0  0
    8.0984   -1.1756    0.0000 O   0  0  0  0  0  0  0  0  0  0  0  0
   16.6967   -4.6528    0.0000 O   0  0  0  0  0  0  0  0  0  0  0  0
    6.4678   -0.2277    0.0000 O   0  0  0  0  0  0  0  0  0  0  0  0
   16.2284    5.5317    0.0000 O   0  0  0  0  0  0  0  0  0  0  0  0
   16.8136    0.4066    0.0000 O   0  0  0  0  0  0  0  0  0  0  0  0
   19.3779   -4.4325    0.0000 O   0  0  0  0  0  0  0  0  0  0  0  0
   18.8541   -2.4696    0.0000 O   0  0  0  0  0  0  0  0  0  0  0  0
    7.9171    2.9659    0.0000 O   0  0  0  0  0  0  0  0  0  0  0  0
   16.8745   -1.9434    0.0000 O   0  0  0  0  0  0  0  0  0  0  0  0
   10.0210    0.6765    0.0000 O   0  0  0  0  0  0  0  0  0  0  0  0
   15.4403   -3.4058    0.0000 O   0  0  0  0  0  0  0  0  0  0  0  0
   18.8483   -6.3519    0.0000 O   0  0  0  0  0  0  0  0  0  0  0  0
   14.2627   -1.7256    0.0000 O   0  0  0  0  0  0  0  0  0  0  0  0
    8.5050    6.7353    0.0000 O   0  0  0  0  0  0  0  0  0  0  0  0
    6.2710    3.7128    0.0000 O   0  0  0  0  0  0  0  0  0  0  0  0
    6.5095    7.0396    0.0000 O   0  0  0  0  0  0  0  0  0  0  0  0
    5.2604    5.4540    0.0000 O   0  0  0  0  0  0  0  0  0  0  0  0
    8.2338   -2.6364    0.0000 O   0  0  0  0  0  0  0  0  0  0  0  0
   14.8346   -2.7887    0.0000 O   0  0  0  0  0  0  0  0  0  0  0  0
   19.4061    7.2353    0.0000 O   0  0  0  0  0  0  0  0  0  0  0  0
   20.2617    3.8785    0.0000 O   0  0  0  0  0  0  0  0  0  0  0  0
   17.9634   -1.2459    0.0000 O   0  0  0  0  0  0  0  0  0  0  0  0
    5.1973    0.9496    0.0000 O   0  0  0  0  0  0  0  0  0  0  0  0
   20.8029    5.8039    0.0000 O   0  0  0  0  0  0  0  0  0  0  0  0
   17.3214   -2.4345    0.0000 O   0  0  0  0  0  0  0  0  0  0  0  0
   19.7786   -6.0746    0.0000 O   0  0  0  0  0  0  0  0  0  0  0  0
   13.9722   -1.1839    0.0000 O   0  0  0  0  0  0  0  0  0  0  0  0
   11.5941    0.7320    0.0000 O   0  0  0  0  0  0  0  0  0  0  0  0
   20.0766   -3.6966    0.0000 O   0  0  0  0  0  0  0  0  0  0  0  0
   15.6539   -2.6577    0.0000 O   0  0  0  0  0  0  0  0  0  0  0  0
   10.9296   -3.4626    0.0000 O   0  0  0  0  0  0  0  0  0  0  0  0
   12.7531   -3.5357    0.0000 O   0  0  0  0  0  0  0  0  0  0  0  0
   20.0611   -5.1153    0.0000 O   0  0  0  0  0  0  0  0  0  0  0  0
   11.8860   -3.3802    0.0000 O   0  0  0  0  0  0  0  0  0  0  0  0
   13.6230   -2.6639    0.0000 O   0  0  0  0  0  0  0  0  0  0  0  0
   23.4519   -5.9919    0.0000 O   0  0  0  0  0  0  0  0  0  0  0  0
   23.2040   -6.9542    0.0000 O   0  0  0  0  0  0  0  0  0  0  0  0
   22.5157   -2.5781    0.0000 O   0  0  0  0  0  0  0  0  0  0  0  0
   23.9781   -4.0124    0.0000 O   0  0  0  0  0  0  0  0  0  0  0  0
   13.4433    0.7449    0.0000 O   0  0  0  0  0  0  0  0  0  0  0  0
    4.7240   -3.3835    0.0000 O   0  0  0  0  0  0  0  0  0  0  0  0
    2.1831   -1.0289    0.0000 O   0  0  0  0  0  0  0  0  0  0  0  0
   22.7084   -8.9417    0.0000 O   0  0  0  0  0  0  0  0  0  0  0  0
   20.7352   -9.4910    0.0000 O   0  0  0  0  0  0  0  0  0  0  0  0
   16.7841    1.6610    0.0000 O   0  0  0  0  0  0  0  0  0  0  0  0
    2.7738   -2.9397    0.0000 O   0  0  0  0  0  0  0  0  0  0  0  0
   14.6858    2.1068    0.0000 O   0  0  0  0  0  0  0  0  0  0  0  0
   23.1672   -1.8398    0.0000 O   0  0  0  0  0  0  0  0  0  0  0  0
   20.7223    0.6142    0.0000 O   0  0  0  0  0  0  0  0  0  0  0  0
   22.6532    0.0930    0.0000 O   0  0  0  0  0  0  0  0  0  0  0  0
   12.8105    6.5144    0.0000 C   0  0  3  0  0  0  0  0  0  0  0  0
   12.8876    7.5111    0.0000 C   0  0  1  0  0  0  0  0  0  0  0  0
   13.5630    8.2510    0.0000 C   0  0  0  0  0  0  0  0  0  0  0  0
   11.9217    6.0561    0.0000 C   0  0  0  0  0  0  0  0  0  0  0  0
   13.8060    6.4193    0.0000 C   0  0  0  0  0  0  0  0  0  0  0  0
   11.4148    6.9661    0.0000 C   0  0  0  0  0  0  0  0  0  0  0  0
   14.6833    3.8843    0.0000 C   0  0  2  0  0  0  0  0  0  0  0  0
   13.9596    3.1943    0.0000 C   0  0  1  0  0  0  0  0  0  0  0  0
   15.6872    3.6063    0.0000 C   0  0  1  0  0  0  0  0  0  0  0  0
   14.5188    7.9511    0.0000 C   0  0  0  0  0  0  0  0  0  0  0  0
   11.4217    5.1901    0.0000 C   0  0  0  0  0  0  0  0  0  0  0  0
   14.6506    6.9580    0.0000 C   0  0  0  0  0  0  0  0  0  0  0  0
   15.9406    2.5960    0.0000 C   0  0  2  0  0  0  0  0  0  0  0  0
   14.5920    5.8012    0.0000 C   0  0  0  0  0  0  0  0  0  0  0  0
   15.1867    1.8772    0.0000 C   0  0  3  0  0  0  0  0  0  0  0  0
   10.3732    6.9742    0.0000 C   0  0  0  0  0  0  0  0  0  0  0  0
   12.9777    3.0050    0.0000 C   0  0  0  0  0  0  0  0  0  0  0  0
   10.3802    5.1740    0.0000 C   0  0  0  0  0  0  0  0  0  0  0  0
    9.8524    6.0721    0.0000 C   0  0  0  0  0  0  0  0  0  0  0  0
   11.4693    4.1912    0.0000 C   0  0  0  0  0  0  0  0  0  0  0  0
   16.9268    4.8160    0.0000 C   0  0  0  0  0  0  0  0  0  0  0  0
    7.1475    0.5058    0.0000 C   0  0  1  0  0  0  0  0  0  0  0  0
    7.5323   -0.3862    0.0000 C   0  0  1  0  0  0  0  0  0  0  0  0
   15.8479    0.6665    0.0000 C   0  0  0  0  0  0  0  0  0  0  0  0
    6.9617    1.4593    0.0000 C   0  0  2  0  0  0  0  0  0  0  0  0
    8.1316    0.3984    0.0000 C   0  0  1  0  0  0  0  0  0  0  0  0
    8.2379    5.0116    0.0000 C   0  0  0  0  0  0  0  0  0  0  0  0
    7.8182    1.9708    0.0000 C   0  0  3  0  0  0  0  0  0  0  0  0
   18.4095   -4.1830    0.0000 C   0  0  1  0  0  0  0  0  0  0  0  0
   18.1457   -3.1754    0.0000 C   0  0  1  0  0  0  0  0  0  0  0  0
   17.7093   -4.8970    0.0000 C   0  0  1  0  0  0  0  0  0  0  0  0
   17.1390   -2.9078    0.0000 C   0  0  2  0  0  0  0  0  0  0  0  0
   17.8959    5.0630    0.0000 C   0  0  0  0  0  0  0  0  0  0  0  0
   15.4963   -0.2391    0.0000 C   0  0  0  0  0  0  0  0  0  0  0  0
    7.6367    4.2485    0.0000 C   0  0  0  0  0  0  0  0  0  0  0  0
    9.0397    0.7862    0.0000 C   0  0  0  0  0  0  0  0  0  0  0  0
   16.4096   -3.6515    0.0000 C   0  0  3  0  0  0  0  0  0  0  0  0
    7.8771    5.9570    0.0000 C   0  0  0  0  0  0  0  0  0  0  0  0
    7.2121    3.3747    0.0000 C   0  0  0  0  0  0  0  0  0  0  0  0
   17.9775   -5.8604    0.0000 C   0  0  0  0  0  0  0  0  0  0  0  0
   14.9597   -1.0489    0.0000 C   0  0  0  0  0  0  0  0  0  0  0  0
   18.5943    4.3473    0.0000 C   0  0  0  0  0  0  0  0  0  0  0  0
   18.1665    6.0256    0.0000 C   0  0  0  0  0  0  0  0  0  0  0  0
    6.6331    4.3779    0.0000 C   0  0  0  0  0  0  0  0  0  0  0  0
   16.5071   -0.2859    0.0000 C   0  0  0  0  0  0  0  0  0  0  0  0
    6.8768    6.1095    0.0000 C   0  0  0  0  0  0  0  0  0  0  0  0
    8.8199   -1.8261    0.0000 C   0  0  0  0  0  0  0  0  0  0  0  0
    6.2506    5.3147    0.0000 C   0  0  0  0  0  0  0  0  0  0  0  0
    5.4927   -0.0058    0.0000 C   0  0  0  0  0  0  0  0  0  0  0  0
    9.6636   -2.3078    0.0000 C   0  0  0  0  0  0  0  0  0  0  0  0
   15.3967   -1.9616    0.0000 C   0  0  0  0  0  0  0  0  0  0  0  0
   19.1355    6.2726    0.0000 C   0  0  0  0  0  0  0  0  0  0  0  0
   19.5633    4.5942    0.0000 C   0  0  0  0  0  0  0  0  0  0  0  0
   16.9651   -1.1882    0.0000 C   0  0  0  0  0  0  0  0  0  0  0  0
   10.5905   -2.5985    0.0000 C   0  0  0  0  0  0  0  0  0  0  0  0
   20.0611   -5.1153    0.0000 C   0  0  0  0  0  0  0  0  0  0  0  0
   19.8339    5.5569    0.0000 C   0  0  0  0  0  0  0  0  0  0  0  0
   16.4061   -2.0317    0.0000 C   0  0  0  0  0  0  0  0  0  0  0  0
   13.4374   -2.2381    0.0000 C   0  0  0  0  0  0  0  0  0  0  0  0
   10.8210    0.0978    0.0000 C   0  0  0  0  0  0  0  0  0  0  0  0
   19.8195   -2.7302    0.0000 C   0  0  0  0  0  0  0  0  0  0  0  0
   15.9071   -1.6902    0.0000 C   0  0  0  0  0  0  0  0  0  0  0  0
   11.5706   -3.3624    0.0000 C   0  0  0  0  0  0  0  0  0  0  0  0
   11.1482   -1.7837    0.0000 C   0  0  0  0  0  0  0  0  0  0  0  0
   11.2322   -0.7999    0.0000 C   0  0  0  0  0  0  0  0  0  0  0  0
    4.8130   -0.7393    0.0000 C   0  0  0  0  0  0  0  0  0  0  0  0
   21.0245   -4.8472    0.0000 C   0  0  0  0  0  0  0  0  0  0  0  0
   11.5581   -2.6848    0.0000 C   0  0  0  0  0  0  0  0  0  0  0  0
   12.5219   -2.5628    0.0000 C   0  0  0  0  0  0  0  0  0  0  0  0
   19.8117   -6.0837    0.0000 C   0  0  0  0  0  0  0  0  0  0  0  0
   15.6426   -0.7258    0.0000 C   0  0  0  0  0  0  0  0  0  0  0  0
   21.7384   -5.5474    0.0000 C   0  0  0  0  0  0  0  0  0  0  0  0
   20.5279   -2.0244    0.0000 C   0  0  0  0  0  0  0  0  0  0  0  0
   20.5256   -6.7839    0.0000 C   0  0  0  0  0  0  0  0  0  0  0  0
   11.9826   -2.3848    0.0000 C   0  0  0  0  0  0  0  0  0  0  0  0
   21.4890   -6.5158    0.0000 C   0  0  0  0  0  0  0  0  0  0  0  0
   12.1567   -0.3491    0.0000 C   0  0  0  0  0  0  0  0  0  0  0  0
   13.0048   -0.9308    0.0000 C   0  0  0  0  0  0  0  0  0  0  0  0
   14.6752   -0.4727    0.0000 C   0  0  0  0  0  0  0  0  0  0  0  0
   21.2687   -3.8346    0.0000 C   0  0  0  0  0  0  0  0  0  0  0  0
   12.9172   -1.9555    0.0000 C   0  0  0  0  0  0  0  0  0  0  0  0
    3.8379   -0.5174    0.0000 C   0  0  0  0  0  0  0  0  0  0  0  0
    5.1083   -1.6946    0.0000 C   0  0  0  0  0  0  0  0  0  0  0  0
   22.7461   -5.2835    0.0000 C   0  0  0  0  0  0  0  0  0  0  0  0
   16.3456   -0.0146    0.0000 C   0  0  0  0  0  0  0  0  0  0  0  0
   22.2438   -7.2336    0.0000 C   0  0  0  0  0  0  0  0  0  0  0  0
   20.2503   -7.7885    0.0000 C   0  0  0  0  0  0  0  0  0  0  0  0
   20.2709   -1.0580    0.0000 C   0  0  0  0  0  0  0  0  0  0  0  0
   21.4934   -2.2850    0.0000 C   0  0  0  0  0  0  0  0  0  0  0  0
   22.2700   -3.5475    0.0000 C   0  0  0  0  0  0  0  0  0  0  0  0
   23.0137   -4.2768    0.0000 C   0  0  0  0  0  0  0  0  0  0  0  0
   14.4107    0.4917    0.0000 C   0  0  0  0  0  0  0  0  0  0  0  0
    4.4286   -2.4281    0.0000 C   0  0  0  0  0  0  0  0  0  0  0  0
    3.1582   -1.2508    0.0000 C   0  0  0  0  0  0  0  0  0  0  0  0
   21.9918   -8.2442    0.0000 C   0  0  0  0  0  0  0  0  0  0  0  0
   20.9883   -8.5236    0.0000 C   0  0  0  0  0  0  0  0  0  0  0  0
   16.0811    0.9498    0.0000 C   0  0  0  0  0  0  0  0  0  0  0  0
    3.4535   -2.2062    0.0000 C   0  0  0  0  0  0  0  0  0  0  0  0
   15.1137    1.2029    0.0000 C   0  0  0  0  0  0  0  0  0  0  0  0
   22.2018   -1.5792    0.0000 C   0  0  0  0  0  0  0  0  0  0  0  0
   20.9793   -0.3522    0.0000 C   0  0  0  0  0  0  0  0  0  0  0  0
   21.9448   -0.6128    0.0000 C   0  0  0  0  0  0  0  0  0  0  0  0
   12.9279    5.9056    0.0000 H   0  0  0  0  0  0  0  0  0  0  0  0
   15.2985    4.4709    0.0000 H   0  0  0  0  0  0  0  0  0  0  0  0
   13.4556    2.5098    0.0000 H   0  0  0  0  0  0  0  0  0  0  0  0
   15.8550    4.2032    0.0000 H   0  0  0  0  0  0  0  0  0  0  0  0
   15.2127    6.6965    0.0000 H   0  0  0  0  0  0  0  0  0  0  0  0
   16.7807    2.7252    0.0000 H   0  0  0  0  0  0  0  0  0  0  0  0
   14.2748    7.7942    0.0000 H   0  0  0  0  0  0  0  0  0  0  0  0
   14.7355    1.4519    0.0000 H   0  0  0  0  0  0  0  0  0  0  0  0
   12.5717    2.5364    0.0000 H   0  0  0  0  0  0  0  0  0  0  0  0
   13.0366    3.6222    0.0000 H   0  0  0  0  0  0  0  0  0  0  0  0
   10.0764    4.6336    0.0000 H   0  0  0  0  0  0  0  0  0  0  0  0
   13.3810    9.6550    0.0000 H   0  0  0  0  0  0  0  0  0  0  0  0
   12.2561    8.7954    0.0000 H   0  0  0  0  0  0  0  0  0  0  0  0
   15.0492    0.4066    0.0000 H   0  0  0  0  0  0  0  0  0  0  0  0
   10.1886    8.3778    0.0000 H   0  0  0  0  0  0  0  0  0  0  0  0
    6.5429    0.6434    0.0000 H   0  0  0  0  0  0  0  0  0  0  0  0
    6.7924   -0.8047    0.0000 H   0  0  0  0  0  0  0  0  0  0  0  0
    6.1148    1.3872    0.0000 H   0  0  0  0  0  0  0  0  0  0  0  0
    7.6098    1.0694    0.0000 H   0  0  0  0  0  0  0  0  0  0  0  0
    8.3968    2.1936    0.0000 H   0  0  0  0  0  0  0  0  0  0  0  0
   19.0093   -3.5808    0.0000 H   0  0  0  0  0  0  0  0  0  0  0  0
   17.9852   -2.5765    0.0000 H   0  0  0  0  0  0  0  0  0  0  0  0
   17.1188   -5.5084    0.0000 H   0  0  0  0  0  0  0  0  0  0  0  0
   16.5389   -2.7520    0.0000 H   0  0  0  0  0  0  0  0  0  0  0  0
    9.3168    1.3408    0.0000 H   0  0  0  0  0  0  0  0  0  0  0  0
    9.1300    0.1728    0.0000 H   0  0  0  0  0  0  0  0  0  0  0  0
   15.9781   -4.0966    0.0000 H   0  0  0  0  0  0  0  0  0  0  0  0
   17.3575   -5.8664    0.0000 H   0  0  0  0  0  0  0  0  0  0  0  0
   17.8228   -6.4608    0.0000 H   0  0  0  0  0  0  0  0  0  0  0  0
   18.4265    3.7504    0.0000 H   0  0  0  0  0  0  0  0  0  0  0  0
   17.7335    6.4694    0.0000 H   0  0  0  0  0  0  0  0  0  0  0  0
    6.2551    3.8864    0.0000 H   0  0  0  0  0  0  0  0  0  0  0  0
   16.8436    0.2349    0.0000 H   0  0  0  0  0  0  0  0  0  0  0  0
    8.4821    3.2212    0.0000 H   0  0  0  0  0  0  0  0  0  0  0  0
   15.0079   -3.8501    0.0000 H   0  0  0  0  0  0  0  0  0  0  0  0
    8.2817    7.3137    0.0000 H   0  0  0  0  0  0  0  0  0  0  0  0
   11.5821   -3.9823    0.0000 H   0  0  0  0  0  0  0  0  0  0  0  0
    5.8962    7.1308    0.0000 H   0  0  0  0  0  0  0  0  0  0  0  0
    4.8786    4.9655    0.0000 H   0  0  0  0  0  0  0  0  0  0  0  0
   12.2023    0.2693    0.0000 H   0  0  0  0  0  0  0  0  0  0  0  0
   14.2765   -3.0586    0.0000 H   0  0  0  0  0  0  0  0  0  0  0  0
   18.9731    7.6791    0.0000 H   0  0  0  0  0  0  0  0  0  0  0  0
   20.8625    4.0317    0.0000 H   0  0  0  0  0  0  0  0  0  0  0  0
   20.8211   -3.4056    0.0000 H   0  0  0  0  0  0  0  0  0  0  0  0
   18.3039   -0.7278    0.0000 H   0  0  0  0  0  0  0  0  0  0  0  0
    3.6548    0.0750    0.0000 H   0  0  0  0  0  0  0  0  0  0  0  0
    5.7129   -1.8322    0.0000 H   0  0  0  0  0  0  0  0  0  0  0  0
   20.9707    6.4008    0.0000 H   0  0  0  0  0  0  0  0  0  0  0  0
   17.8214   -2.0679    0.0000 H   0  0  0  0  0  0  0  0  0  0  0  0
   16.9454   -0.1716    0.0000 H   0  0  0  0  0  0  0  0  0  0  0  0
   19.6511   -7.9479    0.0000 H   0  0  0  0  0  0  0  0  0  0  0  0
   19.6723   -0.8964    0.0000 H   0  0  0  0  0  0  0  0  0  0  0  0
   21.6527   -2.8842    0.0000 H   0  0  0  0  0  0  0  0  0  0  0  0
   10.3171   -3.3663    0.0000 H   0  0  0  0  0  0  0  0  0  0  0  0
   13.1789   -3.9864    0.0000 H   0  0  0  0  0  0  0  0  0  0  0  0
   12.1426   -3.9445    0.0000 H   0  0  0  0  0  0  0  0  0  0  0  0
   13.4614   -3.2625    0.0000 H   0  0  0  0  0  0  0  0  0  0  0  0
   24.0511   -5.8326    0.0000 H   0  0  0  0  0  0  0  0  0  0  0  0
   23.6516   -7.3832    0.0000 H   0  0  0  0  0  0  0  0  0  0  0  0
   23.1123   -2.4096    0.0000 H   0  0  0  0  0  0  0  0  0  0  0  0
   24.4190   -4.4482    0.0000 H   0  0  0  0  0  0  0  0  0  0  0  0
   13.2793    1.3428    0.0000 H   0  0  0  0  0  0  0  0  0  0  0  0
    4.3025   -3.8383    0.0000 H   0  0  0  0  0  0  0  0  0  0  0  0
    2.0000   -0.4366    0.0000 H   0  0  0  0  0  0  0  0  0  0  0  0
   22.5561   -9.5427    0.0000 H   0  0  0  0  0  0  0  0  0  0  0  0
   20.1372   -9.6550    0.0000 H   0  0  0  0  0  0  0  0  0  0  0  0
   17.3839    1.5041    0.0000 H   0  0  0  0  0  0  0  0  0  0  0  0
    2.1693   -2.8021    0.0000 H   0  0  0  0  0  0  0  0  0  0  0  0
   15.0384    2.6167    0.0000 H   0  0  0  0  0  0  0  0  0  0  0  0
   23.6065   -1.4022    0.0000 H   0  0  0  0  0  0  0  0  0  0  0  0
   20.1237    0.7758    0.0000 H   0  0  0  0  0  0  0  0  0  0  0  0
   23.2518   -0.0686    0.0000 H   0  0  0  0  0  0  0  0  0  0  0  0
  1 69  1  0  0  0  0
  1 73  1  0  0  0  0
  2176  1  0  0  0  0
  3 74  1  0  0  0  0
  3 81  1  0  0  0  0
  4 75  1  0  0  0  0
  4 82  1  0  0  0  0
  5 70  1  0  0  0  0
  5181  1  0  0  0  0
  6 70  1  0  0  0  0
  6182  1  0  0  0  0
  7 84  1  0  0  0  0
  7 87  1  0  0  0  0
  8 88  1  0  0  0  0
  9 80  1  0  0  0  0
  9 91  1  0  0  0  0
 10 77  2  0  0  0  0
 11 82  1  0  0  0  0
 11183  1  0  0  0  0
 12 83  1  0  0  0  0
 12184  1  0  0  0  0
 13 81  2  0  0  0  0
 14 86  1  0  0  0  0
 14 94  1  0  0  0  0
 15 87  2  0  0  0  0
 16 93  1  0  0  0  0
 16 95  1  0  0  0  0
 17 92  1  0  0  0  0
 17106  1  0  0  0  0
 18 90  1  0  0  0  0
 18114  1  0  0  0  0
 19 98  1  0  0  0  0
 19104  1  0  0  0  0
 20116  1  0  0  0  0
 21 88  2  0  0  0  0
 22 91  2  0  0  0  0
 23 96  1  0  0  0  0
 23123  1  0  0  0  0
 24128  1  0  0  0  0
 25 95  1  0  0  0  0
 25203  1  0  0  0  0
 26129  1  0  0  0  0
 27103  1  0  0  0  0
 27127  1  0  0  0  0
 28104  1  0  0  0  0
 28204  1  0  0  0  0
 29107  1  0  0  0  0
 29137  1  0  0  0  0
 30108  1  0  0  0  0
 30126  1  0  0  0  0
 31105  1  0  0  0  0
 31205  1  0  0  0  0
 32106  2  0  0  0  0
 33113  1  0  0  0  0
 33207  1  0  0  0  0
 34115  1  0  0  0  0
 34208  1  0  0  0  0
 35114  2  0  0  0  0
 36118  1  0  0  0  0
 36210  1  0  0  0  0
 37119  1  0  0  0  0
 37211  1  0  0  0  0
 38120  1  0  0  0  0
 38212  1  0  0  0  0
 39121  1  0  0  0  0
 39214  1  0  0  0  0
 40116  2  0  0  0  0
 41124  1  0  0  0  0
 41217  1  0  0  0  0
 42125  1  0  0  0  0
 42218  1  0  0  0  0
 43123  2  0  0  0  0
 44145  1  0  0  0  0
 44146  1  0  0  0  0
 45127  2  0  0  0  0
 46128  2  0  0  0  0
 47129  2  0  0  0  0
 48135  1  0  0  0  0
 48223  1  0  0  0  0
 49136  1  0  0  0  0
 49224  1  0  0  0  0
 50137  2  0  0  0  0
 51142  1  0  0  0  0
 51225  1  0  0  0  0
 52148  1  0  0  0  0
 52226  1  0  0  0  0
 53151  1  0  0  0  0
 53227  1  0  0  0  0
 54153  1  0  0  0  0
 54228  1  0  0  0  0
 55157  1  0  0  0  0
 55229  1  0  0  0  0
 56158  1  0  0  0  0
 56230  1  0  0  0  0
 57159  1  0  0  0  0
 57231  1  0  0  0  0
 58160  1  0  0  0  0
 58232  1  0  0  0  0
 59161  1  0  0  0  0
 59233  1  0  0  0  0
 60162  1  0  0  0  0
 60234  1  0  0  0  0
 61163  1  0  0  0  0
 61235  1  0  0  0  0
 62164  1  0  0  0  0
 62236  1  0  0  0  0
 63165  1  0  0  0  0
 63237  1  0  0  0  0
 64166  1  0  0  0  0
 64238  1  0  0  0  0
 65167  1  0  0  0  0
 65239  1  0  0  0  0
 66168  1  0  0  0  0
 66240  1  0  0  0  0
 67169  1  0  0  0  0
 67241  1  0  0  0  0
 68 71  1  0  0  0  0
 68 72  1  0  0  0  0
 68170  1  0  0  0  0
 69  2  1  0  0  0  0
 69 68  1  6  0  0  0
 69 70  1  0  0  0  0
 70 77  1  0  0  0  0
 71 73  2  0  0  0  0
 71 78  1  0  0  0  0
 72 79  2  0  0  0  0
 72 81  1  0  0  0  0
 73 83  1  0  0  0  0
 74 75  1  6  0  0  0
 74171  1  0  0  0  0
 75 84  1  0  0  0  0
 75172  1  1  0  0  0
 76  8  1  0  0  0  0
 76 74  1  6  0  0  0
 76173  1  0  0  0  0
 77 79  1  0  0  0  0
 78 85  2  0  0  0  0
 78 87  1  0  0  0  0
 79174  1  0  0  0  0
 80 76  1  1  0  0  0
 80 82  1  0  0  0  0
 80175  1  0  0  0  0
 82177  1  0  0  0  0
 83 86  2  0  0  0  0
 84178  1  0  0  0  0
 84179  1  0  0  0  0
 85 86  1  0  0  0  0
 85180  1  0  0  0  0
 88100  1  0  0  0  0
 89 20  1  0  0  0  0
 89 90  1  1  0  0  0
 89185  1  0  0  0  0
 90 93  1  6  0  0  0
 90186  1  0  0  0  0
 91101  1  0  0  0  0
 92 89  1  1  0  0  0
 92 95  1  0  0  0  0
 92187  1  0  0  0  0
 93103  1  0  0  0  0
 93188  1  1  0  0  0
 94102  1  0  0  0  0
 94105  2  0  0  0  0
 95189  1  0  0  0  0
 96 97  1  6  0  0  0
 96190  1  0  0  0  0
 97 24  1  0  0  0  0
 97 99  1  1  0  0  0
 97191  1  0  0  0  0
 98 96  1  6  0  0  0
 98107  1  0  0  0  0
 98192  1  0  0  0  0
 99 26  1  0  0  0  0
 99104  1  6  0  0  0
 99193  1  0  0  0  0
100109  2  0  0  0  0
100110  1  0  0  0  0
101108  1  0  0  0  0
101112  2  0  0  0  0
102106  1  0  0  0  0
102111  2  0  0  0  0
103194  1  0  0  0  0
103195  1  0  0  0  0
104196  1  0  0  0  0
105113  1  0  0  0  0
107197  1  0  0  0  0
107198  1  0  0  0  0
108118  2  0  0  0  0
109120  1  0  0  0  0
109199  1  0  0  0  0
110119  2  0  0  0  0
110200  1  0  0  0  0
111115  1  0  0  0  0
111201  1  0  0  0  0
112121  1  0  0  0  0
112202  1  0  0  0  0
113115  2  0  0  0  0
114117  1  0  0  0  0
116133  1  0  0  0  0
117122  1  0  0  0  0
117130  2  0  0  0  0
118125  1  0  0  0  0
119124  1  0  0  0  0
120124  2  0  0  0  0
121125  2  0  0  0  0
122131  1  0  0  0  0
122135  2  0  0  0  0
123134  1  0  0  0  0
126130  1  0  0  0  0
126136  2  0  0  0  0
127132  1  0  0  0  0
128140  1  0  0  0  0
129138  1  0  0  0  0
130206  1  0  0  0  0
131132  1  0  0  0  0
131142  2  0  0  0  0
132144  2  0  0  0  0
133149  2  0  0  0  0
133150  1  0  0  0  0
134139  1  0  0  0  0
134147  2  0  0  0  0
135136  1  0  0  0  0
137141  1  0  0  0  0
138146  1  0  0  0  0
138152  2  0  0  0  0
139143  1  0  0  0  0
139151  2  0  0  0  0
140155  2  0  0  0  0
140156  1  0  0  0  0
141143  1  0  0  0  0
141154  2  0  0  0  0
142148  1  0  0  0  0
143153  2  0  0  0  0
144145  1  0  0  0  0
144209  1  0  0  0  0
145148  2  0  0  0  0
146159  2  0  0  0  0
147157  1  0  0  0  0
147213  1  0  0  0  0
149161  1  0  0  0  0
149215  1  0  0  0  0
150160  2  0  0  0  0
150216  1  0  0  0  0
151158  1  0  0  0  0
152164  1  0  0  0  0
152219  1  0  0  0  0
153162  1  0  0  0  0
154163  1  0  0  0  0
154220  1  0  0  0  0
155168  1  0  0  0  0
155221  1  0  0  0  0
156167  2  0  0  0  0
156222  1  0  0  0  0
157158  2  0  0  0  0
159166  1  0  0  0  0
160165  1  0  0  0  0
161165  2  0  0  0  0
162163  2  0  0  0  0
164166  2  0  0  0  0
167169  1  0  0  0  0
168169  2  0  0  0  0
M  END
>  <PUBCHEM_COMPOUND_CID>
16133867

>  <PUBCHEM_COMPOUND_CANONICALIZED>
0

>  <PUBCHEM_CACTVS_COMPLEXITY>
5740

>  <PUBCHEM_CACTVS_HBOND_ACCEPTOR>
67

>  <PUBCHEM_CACTVS_HBOND_DONOR>
35

>  <PUBCHEM_CACTVS_ROTATABLE_BOND>
14

>  <PUBCHEM_CACTVS_SUBSKEYS>
AAADcfB8PgAAAAAAAAAAAAAAAAAAASAAAAA0aNGDAAAAAEgBVAAAGgAACAAADRSwmAMwDoAABgCIAqDSCAICCAAkIAAAiAFGiMgdNzaGNRqCeWOl4BUPuYfK7PzOoQABCAAYQABCAAIQADCAAAAAAAAAAA==

>  <PUBCHEM_IUPAC_INCHI>
InChI=1S/C102H72O67/c103-31-1-19(2-32(104)55(31)115)86(133)163-80-76-45(16-151-89(136)22-7-37(109)58(118)66(126)49(22)50-23(92(139)160-76)8-38(110)59(119)67(50)127)157-98(145)83(80)166-95(142)28-9-39(111)60(120)70(130)73(28)154-42-12-24-51(68(128)63(42)123)52-25-13-43(64(124)69(52)129)155-74-29(10-40(112)61(121)71(74)131)96(143)168-85-82(165-88(135)21-5-35(107)57(117)36(108)6-21)78-47(159-100(85)147)18-153-91(138)26-14-44(65(125)79-53(26)54-27(94(141)162-78)15-48(114)101(148,149)102(54,150)169-79)156-75-30(11-41(113)62(122)72(75)132)97(144)167-84-81(164-87(134)20-3-33(105)56(116)34(106)4-20)77(161-93(25)140)46(158-99(84)146)17-152-90(24)137/h1-15,45-47,54,76-78,80-85,98-100,103-113,115-132,145-150H,16-18H2/t45-,46-,47-,54?,76-,77-,78-,80+,81+,82+,83-,84-,85-,98?,99?,100?,102+/m1/s1

>  <PUBCHEM_IUPAC_INCHIKEY>
RDGXVBJDIDOODN-DKGFRMGKSA-N

>  <PUBCHEM_XLOGP3_AA>
0.9

>  <PUBCHEM_EXACT_MASS>
2369.226

>  <PUBCHEM_MOLECULAR_FORMULA>
C102H72O67

>  <PUBCHEM_MOLECULAR_WEIGHT>
2369.631

>  <PUBCHEM_OPENEYE_CAN_SMILES>
C1C2C(C(C(C(O2)O)OC(=O)C3=CC(=C(C(=C3OC4=C(C(=C5C(=C4)C(=O)OCC6C7C(C(C(O6)O)OC(=O)C8=CC(=C(C(=C8OC9=C(C2=C3C4C(=CC(=O)C(C4(O2)O)(O)O)C(=O)OC2C(COC(=O)C3=C9)OC(C(C2OC(=O)C2=CC(=C(C(=C2)O)O)O)OC(=O)C2=CC(=C(C(=C2OC2=C(C(=C5C(=C2)C(=O)O7)O)O)O)O)O)O)O)O)O)O)OC(=O)C2=CC(=C(C(=C2)O)O)O)O)O)O)O)O)OC(=O)C2=CC(=C(C(=C2)O)O)O)OC(=O)C2=CC(=C(C(=C2C2=C(C(=C(C=C2C(=O)O1)O)O)O)O)O)O

>  <PUBCHEM_OPENEYE_ISO_SMILES>
C1[C@@H]2[C@@H]3[C@@H]([C@H](C(O2)O)OC(=O)C4=CC(=C(C(=C4OC5=C(C(=C6C(=C5)C(=O)O[C@@H]7[C@@H](COC(=O)C8=CC(=C(C(=C86)O)O)OC9=C(C(=C(C=C9C(=O)O[C@@H]2[C@H]([C@H]4[C@@H](COC(=O)C5=CC(=C(C(=C5C5=C(C(=C(C=C5C(=O)O4)O)O)O)O)O)O)OC2O)OC(=O)C2=CC(=C(C(=C2)O)O)O)O)O)O)OC([C@@H]([C@H]7OC(=O)C2=CC(=C(C(=C2)O)O)O)OC(=O)C2=CC(=C(C(=C2OC2=C(C4=C(C5C(=CC(=O)C([C@]5(O4)O)(O)O)C(=O)O3)C(=C2)C(=O)O1)O)O)O)O)O)O)O)O)O)O)OC(=O)C1=CC(=C(C(=C1)O)O)O

>  <PUBCHEM_CACTVS_TPSA>
1110

>  <PUBCHEM_MONOISOTOPIC_WEIGHT>
2368.223

>  <PUBCHEM_TOTAL_CHARGE>
0

>  <PUBCHEM_HEAVY_ATOM_COUNT>
169

>  <PUBCHEM_ATOM_DEF_STEREO_COUNT>
13

>  <PUBCHEM_ATOM_UDEF_STEREO_COUNT>
4

>  <PUBCHEM_BOND_DEF_STEREO_COUNT>
0

>  <PUBCHEM_BOND_UDEF_STEREO_COUNT>
0

>  <PUBCHEM_ISOTOPIC_ATOM_COUNT>
0

>  <PUBCHEM_COMPONENT_COUNT>
1

>  <PUBCHEM_CACTVS_TAUTO_COUNT>
746

>  <PUBCHEM_COORDINATE_TYPE>
1
5
255

>  <PUBCHEM_BONDANNOTATIONS>
100  109  8
100  110  8
101  108  8
101  112  8
102  111  8
105  113  8
108  118  8
109  120  8
82  11  3
110  119  8
111  115  8
112  121  8
113  115  8
117  122  8
117  130  8
118  125  8
119  124  8
120  124  8
121  125  8
122  135  8
126  130  8
126  136  8
131  132  8
131  142  8
132  144  8
133  149  8
133  150  8
134  139  8
134  147  8
135  136  8
138  146  8
138  152  8
139  151  8
140  155  8
140  156  8
141  143  8
141  154  8
142  148  8
143  153  8
144  145  8
145  148  8
146  159  8
147  157  8
149  161  8
150  160  8
151  158  8
152  164  8
153  162  8
154  163  8
155  168  8
156  167  8
157  158  8
159  166  8
160  165  8
161  165  8
162  163  8
164  166  8
167  169  8
168  169  8
69  2  5
89  20  6
97  24  5
95  25  3
99  26  6
104  28  3
68  71  3
71  73  8
71  78  8
73  83  8
74  171  6
75  172  5
78  85  8
76  8  6
80  175  6
83  86  8
85  86  8
90  186  6
92  187  6
93  188  5
94  102  8
94  105  8
96  190  5
98  192  6

$$$$
