16141214
 OpenBabel06101807152D

116125  0  0  1  0  0  0  0  0999 V2000
    9.5412   -2.9045    0.0000 O   0  0  0  0  0  0  0  0  0  0  0  0
    8.2175    0.6046    0.0000 O   0  0  0  0  0  0  0  0  0  0  0  0
   11.2732   -0.9045    0.0000 O   0  0  0  0  0  0  0  0  0  0  0  0
    6.7878   -5.7699    0.0000 O   0  0  0  0  0  0  0  0  0  0  0  0
    5.8158   -3.3092    0.0000 O   0  0  0  0  0  0  0  0  0  0  0  0
    7.4501    0.0738    0.0000 O   0  0  0  0  0  0  0  0  0  0  0  0
    7.2583    3.1447    0.0000 O   0  0  0  0  0  0  0  0  0  0  0  0
    5.8752   -2.4291    0.0000 O   0  0  0  0  0  0  0  0  0  0  0  0
   11.8077   -0.1332    0.0000 O   0  0  0  0  0  0  0  0  0  0  0  0
   10.9093    2.8543    0.0000 O   0  0  0  0  0  0  0  0  0  0  0  0
    9.8732   -3.7725    0.0000 O   0  0  0  0  0  0  0  0  0  0  0  0
   10.1108   -6.9616    0.0000 O   0  0  0  0  0  0  0  0  0  0  0  0
   12.1393   -5.4045    0.0000 O   0  0  0  0  0  0  0  0  0  0  0  0
   13.8713   -4.4045    0.0000 O   0  0  0  0  0  0  0  0  0  0  0  0
    3.5085   -7.2686    0.0000 O   0  0  0  0  0  0  0  0  0  0  0  0
    2.2053   -5.7514    0.0000 O   0  0  0  0  0  0  0  0  0  0  0  0
    4.2821    2.5696    0.0000 O   0  0  0  0  0  0  0  0  0  0  0  0
    8.5894    4.2529    0.0000 O   0  0  0  0  0  0  0  0  0  0  0  0
    3.6054    0.6877    0.0000 O   0  0  0  0  0  0  0  0  0  0  0  0
    7.0155    7.4968    0.0000 O   0  0  0  0  0  0  0  0  0  0  0  0
    4.3533    5.2804    0.0000 O   0  0  0  0  0  0  0  0  0  0  0  0
    5.0446    7.1571    0.0000 O   0  0  0  0  0  0  0  0  0  0  0  0
    9.5412   -0.9045    0.0000 C   0  0  2  0  0  0  0  0  0  0  0  0
   10.4072   -1.4045    0.0000 C   0  0  2  0  0  0  0  0  0  0  0  0
    7.4501   -3.8827    0.0000 C   0  0  2  0  0  0  0  0  0  0  0  0
    8.6752   -1.4045    0.0000 C   0  0  0  0  0  0  0  0  0  0  0  0
   10.4072   -2.4045    0.0000 C   0  0  1  0  0  0  0  0  0  0  0  0
    8.6752   -2.4045    0.0000 C   0  0  0  0  0  0  0  0  0  0  0  0
    7.7812   -2.9391    0.0000 C   0  0  0  0  0  0  0  0  0  0  0  0
    9.8832    0.0352    0.0000 C   0  0  0  0  0  0  0  0  0  0  0  0
    6.4674   -4.0678    0.0000 C   0  0  2  0  0  0  0  0  0  0  0  0
    6.1363   -5.0114    0.0000 C   0  0  1  0  0  0  0  0  0  0  0  0
    8.1017   -4.6413    0.0000 C   0  0  0  0  0  0  0  0  0  0  0  0
    9.2404    0.8013    0.0000 C   0  0  0  0  0  0  0  0  0  0  0  0
    7.7812   -0.8698    0.0000 C   0  0  0  0  0  0  0  0  0  0  0  0
    9.5824    1.7410    0.0000 C   0  0  0  0  0  0  0  0  0  0  0  0
    6.8752   -2.4253    0.0000 C   0  0  0  0  0  0  0  0  0  0  0  0
   11.2732   -2.9045    0.0000 C   0  0  0  0  0  0  0  0  0  0  0  0
    7.8981    2.3762    0.0000 C   0  0  2  0  0  0  0  0  0  0  0  0
    8.9253    2.5491    0.0000 C   0  0  0  0  0  0  0  0  0  0  0  0
    7.5418    1.3973    0.0000 C   0  0  1  0  0  0  0  0  0  0  0  0
   10.8680    0.2089    0.0000 C   0  0  0  0  0  0  0  0  0  0  0  0
    7.7706   -5.5849    0.0000 C   0  0  0  0  0  0  0  0  0  0  0  0
    6.8752   -1.3837    0.0000 C   0  0  0  0  0  0  0  0  0  0  0  0
    5.1535   -5.1964    0.0000 C   0  0  0  0  0  0  0  0  0  0  0  0
   10.5673    1.9146    0.0000 C   0  0  0  0  0  0  0  0  0  0  0  0
    9.1222   -4.4328    0.0000 C   0  0  0  0  0  0  0  0  0  0  0  0
   11.2100    1.1486    0.0000 C   0  0  0  0  0  0  0  0  0  0  0  0
    6.5577    1.2199    0.0000 C   0  0  0  0  0  0  0  0  0  0  0  0
   11.2732   -3.9045    0.0000 C   0  0  0  0  0  0  0  0  0  0  0  0
   12.1393   -2.4045    0.0000 C   0  0  0  0  0  0  0  0  0  0  0  0
    8.4370   -6.3854    0.0000 C   0  0  0  0  0  0  0  0  0  0  0  0
    9.8070   -5.2177    0.0000 C   0  0  0  0  0  0  0  0  0  0  0  0
    9.4621   -6.2005    0.0000 C   0  0  0  0  0  0  0  0  0  0  0  0
    4.8224   -6.1400    0.0000 C   0  0  0  0  0  0  0  0  0  0  0  0
    4.5019   -4.4378    0.0000 C   0  0  0  0  0  0  0  0  0  0  0  0
   12.1393   -4.4045    0.0000 C   0  0  0  0  0  0  0  0  0  0  0  0
   13.0053   -2.9045    0.0000 C   0  0  0  0  0  0  0  0  0  0  0  0
    5.9120    1.9835    0.0000 C   0  0  0  0  0  0  0  0  0  0  0  0
    6.2194    0.2790    0.0000 C   0  0  0  0  0  0  0  0  0  0  0  0
   13.0053   -3.9045    0.0000 C   0  0  0  0  0  0  0  0  0  0  0  0
    3.8397   -6.3250    0.0000 C   0  0  0  0  0  0  0  0  0  0  0  0
    3.5192   -4.6228    0.0000 C   0  0  0  0  0  0  0  0  0  0  0  0
    7.6039    4.0830    0.0000 C   0  0  0  0  0  0  0  0  0  0  0  0
    3.1880   -5.5664    0.0000 C   0  0  0  0  0  0  0  0  0  0  0  0
    4.9279    1.8060    0.0000 C   0  0  0  0  0  0  0  0  0  0  0  0
    5.2352    0.1015    0.0000 C   0  0  0  0  0  0  0  0  0  0  0  0
    4.5895    0.8651    0.0000 C   0  0  0  0  0  0  0  0  0  0  0  0
    6.9641    4.8516    0.0000 C   0  0  0  0  0  0  0  0  0  0  0  0
    5.9786    4.6817    0.0000 C   0  0  0  0  0  0  0  0  0  0  0  0
    7.3097    5.7899    0.0000 C   0  0  0  0  0  0  0  0  0  0  0  0
    6.6699    6.5584    0.0000 C   0  0  0  0  0  0  0  0  0  0  0  0
    5.3388    5.4502    0.0000 C   0  0  0  0  0  0  0  0  0  0  0  0
    5.6844    6.3886    0.0000 C   0  0  0  0  0  0  0  0  0  0  0  0
   10.3399   -0.6138    0.0000 H   0  0  0  0  0  0  0  0  0  0  0  0
   10.9442   -1.7145    0.0000 H   0  0  0  0  0  0  0  0  0  0  0  0
    6.8962   -3.2380    0.0000 H   0  0  0  0  0  0  0  0  0  0  0  0
   10.4072   -3.0245    0.0000 H   0  0  0  0  0  0  0  0  0  0  0  0
    5.8581   -4.1825    0.0000 H   0  0  0  0  0  0  0  0  0  0  0  0
    5.9310   -5.5964    0.0000 H   0  0  0  0  0  0  0  0  0  0  0  0
    8.1135    2.9575    0.0000 H   0  0  0  0  0  0  0  0  0  0  0  0
    9.4662    2.8522    0.0000 H   0  0  0  0  0  0  0  0  0  0  0  0
    8.7192    3.1339    0.0000 H   0  0  0  0  0  0  0  0  0  0  0  0
    7.1424    1.8715    0.0000 H   0  0  0  0  0  0  0  0  0  0  0  0
    6.3394   -1.0716    0.0000 H   0  0  0  0  0  0  0  0  0  0  0  0
   11.8102   -1.2145    0.0000 H   0  0  0  0  0  0  0  0  0  0  0  0
   11.8206    1.2562    0.0000 H   0  0  0  0  0  0  0  0  0  0  0  0
    5.2065   -3.4239    0.0000 H   0  0  0  0  0  0  0  0  0  0  0  0
   10.7363   -4.2145    0.0000 H   0  0  0  0  0  0  0  0  0  0  0  0
   12.1393   -1.7845    0.0000 H   0  0  0  0  0  0  0  0  0  0  0  0
    8.2250   -6.9680    0.0000 H   0  0  0  0  0  0  0  0  0  0  0  0
   10.4159   -5.1006    0.0000 H   0  0  0  0  0  0  0  0  0  0  0  0
    6.8408    0.1885    0.0000 H   0  0  0  0  0  0  0  0  0  0  0  0
    5.5631   -1.8933    0.0000 H   0  0  0  0  0  0  0  0  0  0  0  0
    5.2264   -6.6103    0.0000 H   0  0  0  0  0  0  0  0  0  0  0  0
    4.7072   -3.8528    0.0000 H   0  0  0  0  0  0  0  0  0  0  0  0
   12.2827    0.2654    0.0000 H   0  0  0  0  0  0  0  0  0  0  0  0
   13.5422   -2.5945    0.0000 H   0  0  0  0  0  0  0  0  0  0  0  0
    6.1218    2.5669    0.0000 H   0  0  0  0  0  0  0  0  0  0  0  0
    6.6197   -0.1944    0.0000 H   0  0  0  0  0  0  0  0  0  0  0  0
   11.5199    2.9620    0.0000 H   0  0  0  0  0  0  0  0  0  0  0  0
   10.4606   -3.9710    0.0000 H   0  0  0  0  0  0  0  0  0  0  0  0
    3.1152   -4.1525    0.0000 H   0  0  0  0  0  0  0  0  0  0  0  0
    5.0254   -0.4819    0.0000 H   0  0  0  0  0  0  0  0  0  0  0  0
    9.9032   -7.5458    0.0000 H   0  0  0  0  0  0  0  0  0  0  0  0
   12.6762   -5.7145    0.0000 H   0  0  0  0  0  0  0  0  0  0  0  0
   14.4083   -4.0945    0.0000 H   0  0  0  0  0  0  0  0  0  0  0  0
    3.9125   -7.7389    0.0000 H   0  0  0  0  0  0  0  0  0  0  0  0
    2.0000   -6.3365    0.0000 H   0  0  0  0  0  0  0  0  0  0  0  0
    3.6720    2.4596    0.0000 H   0  0  0  0  0  0  0  0  0  0  0  0
    5.7643    4.0999    0.0000 H   0  0  0  0  0  0  0  0  0  0  0  0
    7.9207    5.8952    0.0000 H   0  0  0  0  0  0  0  0  0  0  0  0
    3.3955    0.1042    0.0000 H   0  0  0  0  0  0  0  0  0  0  0  0
    7.6265    7.6021    0.0000 H   0  0  0  0  0  0  0  0  0  0  0  0
    3.9566    5.7568    0.0000 H   0  0  0  0  0  0  0  0  0  0  0  0
    5.2589    7.7389    0.0000 H   0  0  0  0  0  0  0  0  0  0  0  0
  1 27  1  0  0  0  0
  1 28  1  0  0  0  0
  2 34  1  0  0  0  0
  2 41  1  0  0  0  0
  3 86  1  0  0  0  0
  4 32  1  0  0  0  0
  4 43  1  0  0  0  0
  5 88  1  0  0  0  0
  6 35  1  0  0  0  0
  6 93  1  0  0  0  0
  7 64  1  0  0  0  0
  8 37  1  0  0  0  0
  8 94  1  0  0  0  0
  9 42  1  0  0  0  0
  9 97  1  0  0  0  0
 10 46  1  0  0  0  0
 10101  1  0  0  0  0
 11 47  1  0  0  0  0
 11102  1  0  0  0  0
 12 54  1  0  0  0  0
 12105  1  0  0  0  0
 13 57  1  0  0  0  0
 13106  1  0  0  0  0
 14 61  1  0  0  0  0
 14107  1  0  0  0  0
 15 62  1  0  0  0  0
 15108  1  0  0  0  0
 16 65  1  0  0  0  0
 16109  1  0  0  0  0
 17 66  1  0  0  0  0
 17110  1  0  0  0  0
 18 64  2  0  0  0  0
 19 68  1  0  0  0  0
 19113  1  0  0  0  0
 20 72  1  0  0  0  0
 20114  1  0  0  0  0
 21 73  1  0  0  0  0
 21115  1  0  0  0  0
 22 74  1  0  0  0  0
 22116  1  0  0  0  0
 23 24  1  6  0  0  0
 23 26  1  0  0  0  0
 23 30  1  0  0  0  0
 23 75  1  0  0  0  0
 24  3  1  0  0  0  0
 24 27  1  1  0  0  0
 24 76  1  0  0  0  0
 25 29  1  0  0  0  0
 25 31  1  1  0  0  0
 25 33  1  0  0  0  0
 25 77  1  0  0  0  0
 26 28  1  0  0  0  0
 26 35  2  0  0  0  0
 27 38  1  0  0  0  0
 27 78  1  6  0  0  0
 28 29  2  0  0  0  0
 29 37  1  0  0  0  0
 30 34  1  0  0  0  0
 30 42  2  0  0  0  0
 31  5  1  0  0  0  0
 31 32  1  6  0  0  0
 31 79  1  0  0  0  0
 32 45  1  0  0  0  0
 32 80  1  1  0  0  0
 33 43  1  0  0  0  0
 33 47  2  0  0  0  0
 34 36  2  0  0  0  0
 35 44  1  0  0  0  0
 36 40  1  0  0  0  0
 36 46  1  0  0  0  0
 37 44  2  0  0  0  0
 38 50  2  0  0  0  0
 38 51  1  0  0  0  0
 39  7  1  0  0  0  0
 39 40  1  0  0  0  0
 39 41  1  1  0  0  0
 39 81  1  0  0  0  0
 40 82  1  0  0  0  0
 40 83  1  0  0  0  0
 41 49  1  0  0  0  0
 41 84  1  1  0  0  0
 42 48  1  0  0  0  0
 43 52  2  0  0  0  0
 44 85  1  0  0  0  0
 45 55  2  0  0  0  0
 45 56  1  0  0  0  0
 46 48  2  0  0  0  0
 47 53  1  0  0  0  0
 48 87  1  0  0  0  0
 49 59  2  0  0  0  0
 49 60  1  0  0  0  0
 50 57  1  0  0  0  0
 50 89  1  0  0  0  0
 51 58  2  0  0  0  0
 51 90  1  0  0  0  0
 52 54  1  0  0  0  0
 52 91  1  0  0  0  0
 53 54  2  0  0  0  0
 53 92  1  0  0  0  0
 55 62  1  0  0  0  0
 55 95  1  0  0  0  0
 56 63  2  0  0  0  0
 56 96  1  0  0  0  0
 57 61  2  0  0  0  0
 58 61  1  0  0  0  0
 58 98  1  0  0  0  0
 59 66  1  0  0  0  0
 59 99  1  0  0  0  0
 60 67  2  0  0  0  0
 60100  1  0  0  0  0
 62 65  2  0  0  0  0
 63 65  1  0  0  0  0
 63103  1  0  0  0  0
 64 69  1  0  0  0  0
 66 68  2  0  0  0  0
 67 68  1  0  0  0  0
 67104  1  0  0  0  0
 69 70  2  0  0  0  0
 69 71  1  0  0  0  0
 70 73  1  0  0  0  0
 70111  1  0  0  0  0
 71 72  2  0  0  0  0
 71112  1  0  0  0  0
 72 74  1  0  0  0  0
 73 74  2  0  0  0  0
M  END
>  <PUBCHEM_COMPOUND_CID>
16141214

>  <PUBCHEM_COMPOUND_CANONICALIZED>
1

>  <PUBCHEM_CACTVS_COMPLEXITY>
1890

>  <PUBCHEM_CACTVS_HBOND_ACCEPTOR>
22

>  <PUBCHEM_CACTVS_HBOND_DONOR>
17

>  <PUBCHEM_CACTVS_ROTATABLE_BOND>
8

>  <PUBCHEM_CACTVS_SUBSKEYS>
AAADcfB8PgAAAAAAAAAAAAAAAAAAAAAAAAA0aNGDAAAAAACRVAAAGgAACAAADRSgmAIwDoAABgCIAiDSCAACCAAkIAAIiAEGiMgNNzKGNRqCeSGlwBULuYfK7PzOoAADCAAIQABAAAYQABCAAAAAAAAAAA==

>  <PUBCHEM_IUPAC_OPENEYE_NAME>
[(2R,3R)-2-(3,4-dihydroxyphenyl)-8-[(2R,3R,4S)-2-(3,4-dihydroxyphenyl)-8-[(2R,3R,4R)-2-(3,4-dihydroxyphenyl)-3,5,7-trihydroxy-chroman-4-yl]-3,5,7-trihydroxy-chroman-4-yl]-5,7-dihydroxy-chroman-3-yl] 3,4,5-trihydroxybenzoate

>  <PUBCHEM_IUPAC_CAS_NAME>
3,4,5-trihydroxybenzoic acid [(2R,3R)-2-(3,4-dihydroxyphenyl)-8-[(2R,3R,4S)-2-(3,4-dihydroxyphenyl)-8-[(2R,3R,4R)-2-(3,4-dihydroxyphenyl)-3,5,7-trihydroxy-3,4-dihydro-2H-1-benzopyran-4-yl]-3,5,7-trihydroxy-3,4-dihydro-2H-1-benzopyran-4-yl]-5,7-dihydroxy-3,4-dihydro-2H-1-benzopyran-3-yl] ester

>  <PUBCHEM_IUPAC_NAME>
[(2R,3R)-2-(3,4-dihydroxyphenyl)-8-[(2R,3R,4S)-2-(3,4-dihydroxyphenyl)-8-[(2R,3R,4R)-2-(3,4-dihydroxyphenyl)-3,5,7-trihydroxy-3,4-dihydro-2H-chromen-4-yl]-3,5,7-trihydroxy-3,4-dihydro-2H-chromen-4-yl]-5,7-dihydroxy-3,4-dihydro-2H-chromen-3-yl] 3,4,5-trihydroxybenzoate

>  <PUBCHEM_IUPAC_SYSTEMATIC_NAME>
[(2R,3R)-2-[3,4-bis(oxidanyl)phenyl]-8-[(2R,3R,4S)-2-[3,4-bis(oxidanyl)phenyl]-8-[(2R,3R,4R)-2-[3,4-bis(oxidanyl)phenyl]-3,5,7-tris(oxidanyl)-3,4-dihydro-2H-chromen-4-yl]-3,5,7-tris(oxidanyl)-3,4-dihydro-2H-chromen-4-yl]-5,7-bis(oxidanyl)-3,4-dihydro-2H-chromen-3-yl] 3,4,5-tris(oxidanyl)benzoate

>  <PUBCHEM_IUPAC_TRADITIONAL_NAME>
3,4,5-trihydroxybenzoic acid [(2R,3R)-2-(3,4-dihydroxyphenyl)-8-[(2R,3R,4S)-2-(3,4-dihydroxyphenyl)-8-[(2R,3R,4R)-2-(3,4-dihydroxyphenyl)-3,5,7-trihydroxy-chroman-4-yl]-3,5,7-trihydroxy-chroman-4-yl]-5,7-dihydroxy-chroman-3-yl] ester

>  <PUBCHEM_IUPAC_INCHI>
InChI=1S/C52H42O22/c53-21-12-30(61)38-36(13-21)71-48(18-2-5-24(55)28(59)8-18)45(68)42(38)40-32(63)16-33(64)41-43(46(69)49(74-51(40)41)19-3-6-25(56)29(60)9-19)39-31(62)15-26(57)22-14-37(72-52(70)20-10-34(65)44(67)35(66)11-20)47(73-50(22)39)17-1-4-23(54)27(58)7-17/h1-13,15-16,37,42-43,45-49,53-69H,14H2/t37-,42-,43+,45-,46-,47-,48-,49-/m1/s1

>  <PUBCHEM_IUPAC_INCHIKEY>
FYNOPTDFZIWSDG-SRPXDWQMSA-N

>  <PUBCHEM_XLOGP3_AA>
4.5

>  <PUBCHEM_EXACT_MASS>
1018.217

>  <PUBCHEM_MOLECULAR_FORMULA>
C52H42O22

>  <PUBCHEM_MOLECULAR_WEIGHT>
1018.886

>  <PUBCHEM_OPENEYE_CAN_SMILES>
C1C(C(OC2=C1C(=CC(=C2C3C(C(OC4=C(C(=CC(=C34)O)O)C5C(C(OC6=CC(=CC(=C56)O)O)C7=CC(=C(C=C7)O)O)O)C8=CC(=C(C=C8)O)O)O)O)O)C9=CC(=C(C=C9)O)O)OC(=O)C1=CC(=C(C(=C1)O)O)O

>  <PUBCHEM_OPENEYE_ISO_SMILES>
C1[C@H]([C@H](OC2=C1C(=CC(=C2[C@@H]3[C@H]([C@H](OC4=C(C(=CC(=C34)O)O)[C@@H]5[C@H]([C@H](OC6=CC(=CC(=C56)O)O)C7=CC(=C(C=C7)O)O)O)C8=CC(=C(C=C8)O)O)O)O)O)C9=CC(=C(C=C9)O)O)OC(=O)C1=CC(=C(C(=C1)O)O)O

>  <PUBCHEM_CACTVS_TPSA>
398

>  <PUBCHEM_MONOISOTOPIC_WEIGHT>
1018.217

>  <PUBCHEM_TOTAL_CHARGE>
0

>  <PUBCHEM_HEAVY_ATOM_COUNT>
74

>  <PUBCHEM_ATOM_DEF_STEREO_COUNT>
8

>  <PUBCHEM_ATOM_UDEF_STEREO_COUNT>
0

>  <PUBCHEM_BOND_DEF_STEREO_COUNT>
0

>  <PUBCHEM_BOND_UDEF_STEREO_COUNT>
0

>  <PUBCHEM_ISOTOPIC_ATOM_COUNT>
0

>  <PUBCHEM_COMPONENT_COUNT>
1

>  <PUBCHEM_CACTVS_TAUTO_COUNT>
938

>  <PUBCHEM_COORDINATE_TYPE>
1
5
255

>  <PUBCHEM_BONDANNOTATIONS>
23  75  5
25  77  6
26  28  8
26  35  8
27  38  5
28  29  8
29  37  8
24  3  5
30  34  8
30  42  8
32  45  6
33  43  8
33  47  8
34  36  8
35  44  8
36  46  8
37  44  8
38  50  8
38  51  8
41  49  6
42  48  8
43  52  8
45  55  8
45  56  8
46  48  8
47  53  8
49  59  8
49  60  8
31  5  6
50  57  8
51  58  8
52  54  8
53  54  8
55  62  8
56  63  8
57  61  8
58  61  8
59  66  8
60  67  8
62  65  8
63  65  8
66  68  8
67  68  8
69  70  8
69  71  8
39  7  6
70  73  8
71  72  8
72  74  8
73  74  8

$$$$
