16165472
 OpenBabel06101807152D

132144  0  0  1  0  0  0  0  0999 V2000
    6.7787    3.0760    0.0000 O   0  0  0  0  0  0  0  0  0  0  0  0
   10.2436    3.1895    0.0000 O   0  0  0  0  0  0  0  0  0  0  0  0
    8.1888   -0.0703    0.0000 O   0  0  0  0  0  0  0  0  0  0  0  0
    7.5753    5.2358    0.0000 O   0  0  0  0  0  0  0  0  0  0  0  0
    7.0924   -2.6347    0.0000 O   0  0  0  0  0  0  0  0  0  0  0  0
    9.1875   -0.0249    0.0000 O   0  0  0  0  0  0  0  0  0  0  0  0
    5.1666   -2.7143    0.0000 O   0  0  0  0  0  0  0  0  0  0  0  0
    4.5169    0.3622    0.0000 O   0  0  0  0  0  0  0  0  0  0  0  0
   13.8841   -0.3692    0.0000 O   0  0  0  0  0  0  0  0  0  0  0  0
   11.2975   -1.2486    0.0000 O   0  0  0  0  0  0  0  0  0  0  0  0
   12.5081    0.2170    0.0000 O   0  0  0  0  0  0  0  0  0  0  0  0
    4.7259    0.9389    0.0000 O   0  0  0  0  0  0  0  0  0  0  0  0
    2.9830   -4.3281    0.0000 O   0  0  0  0  0  0  0  0  0  0  0  0
    2.2696   -0.7357    0.0000 O   0  0  0  0  0  0  0  0  0  0  0  0
   11.2614    5.8366    0.0000 O   0  0  0  0  0  0  0  0  0  0  0  0
   11.5955    2.5253    0.0000 O   0  0  0  0  0  0  0  0  0  0  0  0
    9.8472    7.2508    0.0000 O   0  0  0  0  0  0  0  0  0  0  0  0
    8.5317   -4.5944    0.0000 O   0  0  0  0  0  0  0  0  0  0  0  0
   14.5947    3.0888    0.0000 O   0  0  0  0  0  0  0  0  0  0  0  0
   10.5182   -4.3624    0.0000 O   0  0  0  0  0  0  0  0  0  0  0  0
   15.8308   -3.4040    0.0000 O   0  0  0  0  0  0  0  0  0  0  0  0
   14.5129   -4.9084    0.0000 O   0  0  0  0  0  0  0  0  0  0  0  0
    4.3458   -7.0357    0.0000 O   0  0  0  0  0  0  0  0  0  0  0  0
    6.3410   -7.1752    0.0000 O   0  0  0  0  0  0  0  0  0  0  0  0
    8.5531    2.4212    0.0000 C   0  0  3  0  0  0  0  0  0  0  0  0
    8.0753    4.3697    0.0000 C   0  0  3  0  0  0  0  0  0  0  0  0
    8.8119    3.3871    0.0000 C   0  0  3  0  0  0  0  0  0  0  0  0
    7.3321    1.5555    0.0000 C   0  0  0  0  0  0  0  0  0  0  0  0
    9.8248    1.6266    0.0000 C   0  0  0  0  0  0  0  0  0  0  0  0
    6.2588   -1.0301    0.0000 C   0  0  3  0  0  0  0  0  0  0  0  0
    7.2755    0.5154    0.0000 C   0  0  0  0  0  0  0  0  0  0  0  0
    6.3428    0.0516    0.0000 C   0  0  0  0  0  0  0  0  0  0  0  0
    6.5031    2.1147    0.0000 C   0  0  0  0  0  0  0  0  0  0  0  0
    7.1583   -1.6368    0.0000 C   0  0  3  0  0  0  0  0  0  0  0  0
   10.6020    2.2559    0.0000 C   0  0  0  0  0  0  0  0  0  0  0  0
    8.1298   -1.1537    0.0000 C   0  0  3  0  0  0  0  0  0  0  0  0
    9.0708    4.3530    0.0000 C   0  0  0  0  0  0  0  0  0  0  0  0
    9.9719    0.5954    0.0000 C   0  0  0  0  0  0  0  0  0  0  0  0
   10.9414    0.2146    0.0000 C   0  0  0  0  0  0  0  0  0  0  0  0
   11.9223    0.0200    0.0000 C   0  0  3  0  0  0  0  0  0  0  0  0
    5.2615   -0.9565    0.0000 C   0  0  0  0  0  0  0  0  0  0  0  0
    5.4793    0.6341    0.0000 C   0  0  0  0  0  0  0  0  0  0  0  0
    5.5599    1.6726    0.0000 C   0  0  0  0  0  0  0  0  0  0  0  0
   11.5800    1.8976    0.0000 C   0  0  0  0  0  0  0  0  0  0  0  0
   12.2443   -0.9267    0.0000 C   0  0  3  0  0  0  0  0  0  0  0  0
   11.7509    0.8701    0.0000 C   0  0  0  0  0  0  0  0  0  0  0  0
    4.6991   -1.7834    0.0000 C   0  0  0  0  0  0  0  0  0  0  0  0
    8.7269   -1.9559    0.0000 C   0  0  0  0  0  0  0  0  0  0  0  0
   12.5813    0.7722    0.0000 C   0  0  0  0  0  0  0  0  0  0  0  0
   13.2251   -1.1213    0.0000 C   0  0  3  0  0  0  0  0  0  0  0  0
   10.0367    4.6119    0.0000 C   0  0  0  0  0  0  0  0  0  0  0  0
    8.3637    5.0602    0.0000 C   0  0  0  0  0  0  0  0  0  0  0  0
    4.8266   -0.0560    0.0000 C   0  0  0  0  0  0  0  0  0  0  0  0
    3.7018   -1.7097    0.0000 C   0  0  0  0  0  0  0  0  0  0  0  0
    3.1028   -2.5619    0.0000 C   0  0  0  0  0  0  0  0  0  0  0  0
    4.5875   -3.5801    0.0000 C   0  0  3  0  0  0  0  0  0  0  0  0
    3.5486   -3.5034    0.0000 C   0  0  3  0  0  0  0  0  0  0  0  0
   13.5621    0.5776    0.0000 C   0  0  0  0  0  0  0  0  0  0  0  0
    3.2669   -0.8093    0.0000 C   0  0  0  0  0  0  0  0  0  0  0  0
    3.8293    0.0176    0.0000 C   0  0  0  0  0  0  0  0  0  0  0  0
    8.3307   -2.8741    0.0000 C   0  0  0  0  0  0  0  0  0  0  0  0
   10.2955    5.5778    0.0000 C   0  0  0  0  0  0  0  0  0  0  0  0
    9.7201   -1.8398    0.0000 C   0  0  0  0  0  0  0  0  0  0  0  0
    8.6225    6.0261    0.0000 C   0  0  0  0  0  0  0  0  0  0  0  0
   12.2308    1.7531    0.0000 C   0  0  0  0  0  0  0  0  0  0  0  0
   13.5471   -2.0681    0.0000 C   0  0  0  0  0  0  0  0  0  0  0  0
    9.5884    6.2849    0.0000 C   0  0  0  0  0  0  0  0  0  0  0  0
   14.2605    1.3504    0.0000 C   0  0  0  0  0  0  0  0  0  0  0  0
    5.0258   -4.4789    0.0000 C   0  0  0  0  0  0  0  0  0  0  0  0
    8.9278   -3.6762    0.0000 C   0  0  0  0  0  0  0  0  0  0  0  0
   12.9111    2.5418    0.0000 C   0  0  0  0  0  0  0  0  0  0  0  0
   10.3172   -2.6420    0.0000 C   0  0  0  0  0  0  0  0  0  0  0  0
   13.9328    2.3391    0.0000 C   0  0  0  0  0  0  0  0  0  0  0  0
   14.5280   -2.2627    0.0000 C   0  0  0  0  0  0  0  0  0  0  0  0
   12.8882   -2.8202    0.0000 C   0  0  0  0  0  0  0  0  0  0  0  0
    9.9211   -3.5602    0.0000 C   0  0  0  0  0  0  0  0  0  0  0  0
    4.4666   -5.3079    0.0000 C   0  0  0  0  0  0  0  0  0  0  0  0
    6.0234   -4.5486    0.0000 C   0  0  0  0  0  0  0  0  0  0  0  0
   14.8499   -3.2094    0.0000 C   0  0  0  0  0  0  0  0  0  0  0  0
   13.2101   -3.7670    0.0000 C   0  0  0  0  0  0  0  0  0  0  0  0
   14.1910   -3.9616    0.0000 C   0  0  0  0  0  0  0  0  0  0  0  0
    4.9050   -6.2067    0.0000 C   0  0  0  0  0  0  0  0  0  0  0  0
    6.4618   -5.4474    0.0000 C   0  0  0  0  0  0  0  0  0  0  0  0
    5.9026   -6.2764    0.0000 C   0  0  0  0  0  0  0  0  0  0  0  0
    9.0554    2.7846    0.0000 H   0  0  0  0  0  0  0  0  0  0  0  0
    8.5928    4.7113    0.0000 H   0  0  0  0  0  0  0  0  0  0  0  0
    6.0558   -1.6159    0.0000 H   0  0  0  0  0  0  0  0  0  0  0  0
    7.6743   -1.9806    0.0000 H   0  0  0  0  0  0  0  0  0  0  0  0
    8.7234   -0.9748    0.0000 H   0  0  0  0  0  0  0  0  0  0  0  0
   11.5138   -0.4464    0.0000 H   0  0  0  0  0  0  0  0  0  0  0  0
    5.0500    2.0252    0.0000 H   0  0  0  0  0  0  0  0  0  0  0  0
   12.0573    2.2934    0.0000 H   0  0  0  0  0  0  0  0  0  0  0  0
    6.9553    5.2358    0.0000 H   0  0  0  0  0  0  0  0  0  0  0  0
   12.2851   -1.5454    0.0000 H   0  0  0  0  0  0  0  0  0  0  0  0
   13.8333   -1.2420    0.0000 H   0  0  0  0  0  0  0  0  0  0  0  0
   10.4751    4.1735    0.0000 H   0  0  0  0  0  0  0  0  0  0  0  0
    7.7648    4.8997    0.0000 H   0  0  0  0  0  0  0  0  0  0  0  0
    7.6077   -2.9794    0.0000 H   0  0  0  0  0  0  0  0  0  0  0  0
    2.6640   -2.1238    0.0000 H   0  0  0  0  0  0  0  0  0  0  0  0
    2.5961   -2.9192    0.0000 H   0  0  0  0  0  0  0  0  0  0  0  0
    5.2060   -3.6222    0.0000 H   0  0  0  0  0  0  0  0  0  0  0  0
    2.9306   -3.4542    0.0000 H   0  0  0  0  0  0  0  0  0  0  0  0
    9.2774   -0.6384    0.0000 H   0  0  0  0  0  0  0  0  0  0  0  0
    4.3646   -0.2388    0.0000 H   0  0  0  0  0  0  0  0  0  0  0  0
    3.5597    0.5760    0.0000 H   0  0  0  0  0  0  0  0  0  0  0  0
    7.7149   -2.9460    0.0000 H   0  0  0  0  0  0  0  0  0  0  0  0
    9.9657   -1.2706    0.0000 H   0  0  0  0  0  0  0  0  0  0  0  0
    8.1841    6.4645    0.0000 H   0  0  0  0  0  0  0  0  0  0  0  0
   10.8311   -0.8401    0.0000 H   0  0  0  0  0  0  0  0  0  0  0  0
   12.7123   -0.3684    0.0000 H   0  0  0  0  0  0  0  0  0  0  0  0
   14.8673    1.2227    0.0000 H   0  0  0  0  0  0  0  0  0  0  0  0
   12.7093    3.1280    0.0000 H   0  0  0  0  0  0  0  0  0  0  0  0
    4.1605    1.1932    0.0000 H   0  0  0  0  0  0  0  0  0  0  0  0
   10.9330   -2.5701    0.0000 H   0  0  0  0  0  0  0  0  0  0  0  0
   14.9365   -1.7963    0.0000 H   0  0  0  0  0  0  0  0  0  0  0  0
   12.2800   -2.6996    0.0000 H   0  0  0  0  0  0  0  0  0  0  0  0
    2.3649   -4.2801    0.0000 H   0  0  0  0  0  0  0  0  0  0  0  0
    2.0000   -0.1774    0.0000 H   0  0  0  0  0  0  0  0  0  0  0  0
   11.4219    6.4355    0.0000 H   0  0  0  0  0  0  0  0  0  0  0  0
    3.8481   -5.2646    0.0000 H   0  0  0  0  0  0  0  0  0  0  0  0
   11.8132    3.1059    0.0000 H   0  0  0  0  0  0  0  0  0  0  0  0
    6.3701   -4.0346    0.0000 H   0  0  0  0  0  0  0  0  0  0  0  0
    9.4088    7.6892    0.0000 H   0  0  0  0  0  0  0  0  0  0  0  0
   12.8015   -4.2334    0.0000 H   0  0  0  0  0  0  0  0  0  0  0  0
    7.9159   -4.6663    0.0000 H   0  0  0  0  0  0  0  0  0  0  0  0
    7.0803   -5.4906    0.0000 H   0  0  0  0  0  0  0  0  0  0  0  0
   14.3974    3.6765    0.0000 H   0  0  0  0  0  0  0  0  0  0  0  0
   10.2726   -4.9316    0.0000 H   0  0  0  0  0  0  0  0  0  0  0  0
   16.2393   -2.9377    0.0000 H   0  0  0  0  0  0  0  0  0  0  0  0
   15.1210   -5.0290    0.0000 H   0  0  0  0  0  0  0  0  0  0  0  0
    3.7273   -6.9925    0.0000 H   0  0  0  0  0  0  0  0  0  0  0  0
    5.9942   -7.6892    0.0000 H   0  0  0  0  0  0  0  0  0  0  0  0
  1 27  1  0  0  0  0
  1 33  1  0  0  0  0
  2 27  1  0  0  0  0
  2 35  1  0  0  0  0
  3 31  1  0  0  0  0
  3 36  1  0  0  0  0
  4 26  1  0  0  0  0
  4 93  1  0  0  0  0
  5 34  1  0  0  0  0
  5 98  1  0  0  0  0
  6 38  1  0  0  0  0
  6103  1  0  0  0  0
  7 47  1  0  0  0  0
  7 56  1  0  0  0  0
  8 42  1  0  0  0  0
  8104  1  0  0  0  0
  9 50  1  0  0  0  0
  9 58  1  0  0  0  0
 10 45  1  0  0  0  0
 10109  1  0  0  0  0
 11 46  1  0  0  0  0
 11110  1  0  0  0  0
 12 53  1  0  0  0  0
 12113  1  0  0  0  0
 13 57  1  0  0  0  0
 13117  1  0  0  0  0
 14 59  1  0  0  0  0
 14118  1  0  0  0  0
 15 62  1  0  0  0  0
 15119  1  0  0  0  0
 16 65  1  0  0  0  0
 16121  1  0  0  0  0
 17 67  1  0  0  0  0
 17123  1  0  0  0  0
 18 70  1  0  0  0  0
 18125  1  0  0  0  0
 19 73  1  0  0  0  0
 19127  1  0  0  0  0
 20 76  1  0  0  0  0
 20128  1  0  0  0  0
 21 79  1  0  0  0  0
 21129  1  0  0  0  0
 22 81  1  0  0  0  0
 22130  1  0  0  0  0
 23 82  1  0  0  0  0
 23131  1  0  0  0  0
 24 84  1  0  0  0  0
 24132  1  0  0  0  0
 25 26  1  0  0  0  0
 25 28  1  0  0  0  0
 25 29  1  0  0  0  0
 25 85  1  0  0  0  0
 26 27  1  0  0  0  0
 26 86  1  0  0  0  0
 27 37  1  0  0  0  0
 28 31  1  0  0  0  0
 28 33  2  0  0  0  0
 29 35  2  0  0  0  0
 29 38  1  0  0  0  0
 30 32  1  0  0  0  0
 30 34  1  0  0  0  0
 30 41  1  0  0  0  0
 30 87  1  0  0  0  0
 31 32  2  0  0  0  0
 32 42  1  0  0  0  0
 33 43  1  0  0  0  0
 34 36  1  0  0  0  0
 34 88  1  0  0  0  0
 35 44  1  0  0  0  0
 36 48  1  0  0  0  0
 36 89  1  0  0  0  0
 37 51  2  0  0  0  0
 37 52  1  0  0  0  0
 38 39  2  0  0  0  0
 39 40  1  0  0  0  0
 39 46  1  0  0  0  0
 40 45  1  0  0  0  0
 40 49  1  0  0  0  0
 40 90  1  0  0  0  0
 41 47  1  0  0  0  0
 41 53  2  0  0  0  0
 42 43  2  0  0  0  0
 43 91  1  0  0  0  0
 44 46  2  0  0  0  0
 44 92  1  0  0  0  0
 45 50  1  0  0  0  0
 45 94  1  0  0  0  0
 47 54  2  0  0  0  0
 48 61  2  0  0  0  0
 48 63  1  0  0  0  0
 49 58  1  0  0  0  0
 49 65  2  0  0  0  0
 50 66  1  0  0  0  0
 50 95  1  0  0  0  0
 51 62  1  0  0  0  0
 51 96  1  0  0  0  0
 52 64  2  0  0  0  0
 52 97  1  0  0  0  0
 53 60  1  0  0  0  0
 54 55  1  0  0  0  0
 54 59  1  0  0  0  0
 55 57  1  0  0  0  0
 55 99  1  0  0  0  0
 55100  1  0  0  0  0
 56 57  1  0  0  0  0
 56 69  1  0  0  0  0
 56101  1  0  0  0  0
 57102  1  0  0  0  0
 58 68  2  0  0  0  0
 59 60  2  0  0  0  0
 60105  1  0  0  0  0
 61 70  1  0  0  0  0
 61106  1  0  0  0  0
 62 67  2  0  0  0  0
 63 72  2  0  0  0  0
 63107  1  0  0  0  0
 64 67  1  0  0  0  0
 64108  1  0  0  0  0
 65 71  1  0  0  0  0
 66 74  2  0  0  0  0
 66 75  1  0  0  0  0
 68 73  1  0  0  0  0
 68111  1  0  0  0  0
 69 77  2  0  0  0  0
 69 78  1  0  0  0  0
 70 76  2  0  0  0  0
 71 73  2  0  0  0  0
 71112  1  0  0  0  0
 72 76  1  0  0  0  0
 72114  1  0  0  0  0
 74 79  1  0  0  0  0
 74115  1  0  0  0  0
 75 80  2  0  0  0  0
 75116  1  0  0  0  0
 77 82  1  0  0  0  0
 77120  1  0  0  0  0
 78 83  2  0  0  0  0
 78122  1  0  0  0  0
 79 81  2  0  0  0  0
 80 81  1  0  0  0  0
 80124  1  0  0  0  0
 82 84  2  0  0  0  0
 83 84  1  0  0  0  0
 83126  1  0  0  0  0
M  END
>  <PUBCHEM_COMPOUND_CID>
16165472

>  <PUBCHEM_COMPOUND_CANONICALIZED>
1

>  <PUBCHEM_CACTVS_COMPLEXITY>
2280

>  <PUBCHEM_CACTVS_HBOND_ACCEPTOR>
24

>  <PUBCHEM_CACTVS_HBOND_DONOR>
19

>  <PUBCHEM_CACTVS_ROTATABLE_BOND>
6

>  <PUBCHEM_CACTVS_SUBSKEYS>
AAADcfB8PgAAAAAAAAAAAAAAAAAAAAAAAAA0aNGjQAASAACRVAAAGgAACAAADRSgmAIwDoAABgCAAiBCAAACCAAgIAAIiAAGiIgdNyKGMRqieCGlwBUPuAfA4PwOoAADCAAIQABAAAYQABCAAAAAAAAAAA==

>  <PUBCHEM_IUPAC_INCHI>
InChI=1S/C60H48O24/c61-23-13-34(71)42-39(14-23)80-55(20-2-6-26(63)31(68)10-20)52(77)48(42)43-36(73)17-40-46(51(43)76)50-47-41(84-60(83-40,59(50)79)22-4-8-28(65)33(70)12-22)18-37(74)45-49(53(78)56(82-58(45)47)21-3-7-27(64)32(69)11-21)44-35(72)16-29(66)24-15-38(75)54(81-57(24)44)19-1-5-25(62)30(67)9-19/h1-14,16-18,38,48-50,52-56,59,61-79H,15H2

>  <PUBCHEM_IUPAC_INCHIKEY>
VFVVDFLDUBZQGX-UHFFFAOYSA-N

>  <PUBCHEM_XLOGP3_AA>
4.3

>  <PUBCHEM_EXACT_MASS>
1152.254

>  <PUBCHEM_MOLECULAR_FORMULA>
C60H48O24

>  <PUBCHEM_MOLECULAR_WEIGHT>
1153.02

>  <PUBCHEM_OPENEYE_CAN_SMILES>
C1C(C(OC2=C1C(=CC(=C2C3C(C(OC4=C5C6C(C(OC7=CC(=C(C(=C67)O)C8C(C(OC9=CC(=CC(=C89)O)O)C1=CC(=C(C=C1)O)O)O)O)(OC5=CC(=C34)O)C1=CC(=C(C=C1)O)O)O)C1=CC(=C(C=C1)O)O)O)O)O)C1=CC(=C(C=C1)O)O)O

>  <PUBCHEM_OPENEYE_ISO_SMILES>
C1C(C(OC2=C1C(=CC(=C2C3C(C(OC4=C5C6C(C(OC7=CC(=C(C(=C67)O)C8C(C(OC9=CC(=CC(=C89)O)O)C1=CC(=C(C=C1)O)O)O)O)(OC5=CC(=C34)O)C1=CC(=C(C=C1)O)O)O)C1=CC(=C(C=C1)O)O)O)O)O)C1=CC(=C(C=C1)O)O)O

>  <PUBCHEM_CACTVS_TPSA>
431

>  <PUBCHEM_MONOISOTOPIC_WEIGHT>
1152.254

>  <PUBCHEM_TOTAL_CHARGE>
0

>  <PUBCHEM_HEAVY_ATOM_COUNT>
84

>  <PUBCHEM_ATOM_DEF_STEREO_COUNT>
0

>  <PUBCHEM_ATOM_UDEF_STEREO_COUNT>
11

>  <PUBCHEM_BOND_DEF_STEREO_COUNT>
0

>  <PUBCHEM_BOND_UDEF_STEREO_COUNT>
0

>  <PUBCHEM_ISOTOPIC_ATOM_COUNT>
0

>  <PUBCHEM_COMPONENT_COUNT>
1

>  <PUBCHEM_CACTVS_TAUTO_COUNT>
746

>  <PUBCHEM_COORDINATE_TYPE>
1
5
255

>  <PUBCHEM_BONDANNOTATIONS>
45  10  3
57  13  3
25  29  3
27  37  3
28  31  8
28  33  8
29  35  8
29  38  8
30  41  3
31  32  8
32  42  8
33  43  8
35  44  8
36  48  3
37  51  8
37  52  8
38  39  8
40  39  3
39  46  8
26  4  3
41  47  8
41  53  8
42  43  8
44  46  8
47  54  8
48  61  8
48  63  8
49  58  8
49  65  8
34  5  3
50  66  3
51  62  8
52  64  8
53  60  8
54  59  8
56  69  3
58  68  8
59  60  8
61  70  8
62  67  8
63  72  8
64  67  8
65  71  8
66  74  8
66  75  8
68  73  8
69  77  8
69  78  8
70  76  8
71  73  8
72  76  8
74  79  8
75  80  8
77  82  8
78  83  8
79  81  8
80  81  8
82  84  8
83  84  8

$$$$
