16165063
 OpenBabel06101807152D

177189  0  0  1  0  0  0  0  0999 V2000
    9.8827   -2.0390    0.0000 O   0  0  0  0  0  0  0  0  0  0  0  0
   16.5502    4.8372    0.0000 O   0  0  0  0  0  0  0  0  0  0  0  0
    7.8481   -3.7989    0.0000 O   0  0  0  0  0  0  0  0  0  0  0  0
    6.8135   -2.0505    0.0000 O   0  0  0  0  0  0  0  0  0  0  0  0
    7.8239   -0.2688    0.0000 O   0  0  0  0  0  0  0  0  0  0  0  0
   17.4323    2.2957    0.0000 O   0  0  0  0  0  0  0  0  0  0  0  0
   19.2025    3.2926    0.0000 O   0  0  0  0  0  0  0  0  0  0  0  0
    9.8722   -0.2688    0.0000 O   0  0  0  0  0  0  0  0  0  0  0  0
   19.2183    5.3408    0.0000 O   0  0  0  0  0  0  0  0  0  0  0  0
    9.5893   -4.7649    0.0000 O   0  0  0  0  0  0  0  0  0  0  0  0
   17.4444    6.3650    0.0000 O   0  0  0  0  0  0  0  0  0  0  0  0
   15.4415    2.3298    0.0000 O   0  0  0  0  0  0  0  0  0  0  0  0
    7.8916   -5.7643    0.0000 O   0  0  0  0  0  0  0  0  0  0  0  0
    6.7935   -0.3186    0.0000 O   0  0  0  0  0  0  0  0  0  0  0  0
    9.3206    0.6030    0.0000 O   0  0  0  0  0  0  0  0  0  0  0  0
   16.4120    0.6154    0.0000 O   0  0  0  0  0  0  0  0  0  0  0  0
   11.3689   -1.1406    0.0000 O   0  0  0  0  0  0  0  0  0  0  0  0
   20.0858    4.7825    0.0000 O   0  0  0  0  0  0  0  0  0  0  0  0
   18.3581    6.8442    0.0000 O   0  0  0  0  0  0  0  0  0  0  0  0
   12.8722   -0.2804    0.0000 O   0  0  0  0  0  0  0  0  0  0  0  0
    8.7232   -4.2649    0.0000 O   0  0  0  0  0  0  0  0  0  0  0  0
   16.4415    2.3298    0.0000 O   0  0  0  0  0  0  0  0  0  0  0  0
    6.1088   -7.7995    0.0000 O   0  0  0  0  0  0  0  0  0  0  0  0
   16.9383   -2.0385    0.0000 O   0  0  0  0  0  0  0  0  0  0  0  0
    6.9694   -8.2963    0.0000 O   0  0  0  0  0  0  0  0  0  0  0  0
   15.9446   -2.0385    0.0000 O   0  0  0  0  0  0  0  0  0  0  0  0
    4.3271   -4.7407    0.0000 O   0  0  0  0  0  0  0  0  0  0  0  0
    4.3271   -6.7890    0.0000 O   0  0  0  0  0  0  0  0  0  0  0  0
   13.8964   -2.0543    0.0000 O   0  0  0  0  0  0  0  0  0  0  0  0
   20.0107   -0.2804    0.0000 O   0  0  0  0  0  0  0  0  0  0  0  0
   18.9866   -2.0543    0.0000 O   0  0  0  0  0  0  0  0  0  0  0  0
    8.7353   -9.3341    0.0000 O   0  0  0  0  0  0  0  0  0  0  0  0
   10.5092   -8.3100    0.0000 O   0  0  0  0  0  0  0  0  0  0  0  0
   13.8789    1.4478    0.0000 O   0  0  0  0  0  0  0  0  0  0  0  0
    3.3237   -2.9570    0.0000 O   0  0  0  0  0  0  0  0  0  0  0  0
    3.2837    0.5069    0.0000 O   0  0  0  0  0  0  0  0  0  0  0  0
   10.8856    3.1914    0.0000 O   0  0  0  0  0  0  0  0  0  0  0  0
    5.3139    2.3196    0.0000 O   0  0  0  0  0  0  0  0  0  0  0  0
    8.3072    4.0632    0.0000 O   0  0  0  0  0  0  0  0  0  0  0  0
   12.8856    3.1837    0.0000 O   0  0  0  0  0  0  0  0  0  0  0  0
    2.3038   -1.2366    0.0000 O   0  0  0  0  0  0  0  0  0  0  0  0
   23.5381    3.7425    0.0000 O   0  0  0  0  0  0  0  0  0  0  0  0
   21.7715    0.7627    0.0000 O   0  0  0  0  0  0  0  0  0  0  0  0
    6.3072    4.0555    0.0000 O   0  0  0  0  0  0  0  0  0  0  0  0
   20.9658    9.3341    0.0000 O   0  0  0  0  0  0  0  0  0  0  0  0
   22.6862    6.3275    0.0000 O   0  0  0  0  0  0  0  0  0  0  0  0
   23.5150    1.7426    0.0000 O   0  0  0  0  0  0  0  0  0  0  0  0
   22.6939    8.3274    0.0000 O   0  0  0  0  0  0  0  0  0  0  0  0
    8.3481   -2.9329    0.0000 C   0  0  3  0  0  0  0  0  0  0  0  0
    7.8134   -2.0390    0.0000 C   0  0  3  0  0  0  0  0  0  0  0  0
    8.3273   -1.1329    0.0000 C   0  0  3  0  0  0  0  0  0  0  0  0
    9.3481   -2.9329    0.0000 C   0  0  3  0  0  0  0  0  0  0  0  0
   17.4323    3.2957    0.0000 C   0  0  3  0  0  0  0  0  0  0  0  0
   18.3423    3.8026    0.0000 C   0  0  3  0  0  0  0  0  0  0  0  0
    9.3689   -1.1329    0.0000 C   0  0  3  0  0  0  0  0  0  0  0  0
   16.5663    3.7957    0.0000 C   0  0  3  0  0  0  0  0  0  0  0  0
   18.3504    4.8442    0.0000 C   0  0  3  0  0  0  0  0  0  0  0  0
   17.4483    5.3650    0.0000 C   0  0  3  0  0  0  0  0  0  0  0  0
    9.8481   -3.7989    0.0000 C   0  0  0  0  0  0  0  0  0  0  0  0
   15.7003    3.2957    0.0000 C   0  0  0  0  0  0  0  0  0  0  0  0
    7.8572   -4.7649    0.0000 C   0  0  0  0  0  0  0  0  0  0  0  0
    6.3035   -1.1904    0.0000 C   0  0  0  0  0  0  0  0  0  0  0  0
    8.3206    0.5991    0.0000 C   0  0  0  0  0  0  0  0  0  0  0  0
   16.9415    1.4638    0.0000 C   0  0  0  0  0  0  0  0  0  0  0  0
   10.8722   -0.2727    0.0000 C   0  0  0  0  0  0  0  0  0  0  0  0
   20.0743    3.7825    0.0000 C   0  0  0  0  0  0  0  0  0  0  0  0
    6.9912   -5.2649    0.0000 C   0  0  0  0  0  0  0  0  0  0  0  0
   19.2222    6.3408    0.0000 C   0  0  0  0  0  0  0  0  0  0  0  0
    8.7232   -5.2649    0.0000 C   0  0  0  0  0  0  0  0  0  0  0  0
   17.4415    0.5977    0.0000 C   0  0  0  0  0  0  0  0  0  0  0  0
    6.9912   -6.2649    0.0000 C   0  0  0  0  0  0  0  0  0  0  0  0
   15.9415    1.4638    0.0000 C   0  0  0  0  0  0  0  0  0  0  0  0
    5.3036   -1.2019    0.0000 C   0  0  0  0  0  0  0  0  0  0  0  0
    8.7232   -6.2649    0.0000 C   0  0  0  0  0  0  0  0  0  0  0  0
    7.8572   -6.7649    0.0000 C   0  0  0  0  0  0  0  0  0  0  0  0
   16.9415   -0.2683    0.0000 C   0  0  0  0  0  0  0  0  0  0  0  0
    7.8172    1.4632    0.0000 C   0  0  0  0  0  0  0  0  0  0  0  0
   11.3756    0.5914    0.0000 C   0  0  0  0  0  0  0  0  0  0  0  0
   15.4415    0.5977    0.0000 C   0  0  0  0  0  0  0  0  0  0  0  0
   15.9415   -0.2683    0.0000 C   0  0  0  0  0  0  0  0  0  0  0  0
   20.9345    3.2726    0.0000 C   0  0  0  0  0  0  0  0  0  0  0  0
    6.0972   -4.7302    0.0000 C   0  0  0  0  0  0  0  0  0  0  0  0
   20.0901    6.8375    0.0000 C   0  0  0  0  0  0  0  0  0  0  0  0
    6.0972   -6.7995    0.0000 C   0  0  0  0  0  0  0  0  0  0  0  0
   18.4830    0.6138    0.0000 C   0  0  0  0  0  0  0  0  0  0  0  0
   12.3755    0.5876    0.0000 C   0  0  0  0  0  0  0  0  0  0  0  0
   14.4000    0.6138    0.0000 C   0  0  0  0  0  0  0  0  0  0  0  0
   17.4483   -1.1783    0.0000 C   0  0  0  0  0  0  0  0  0  0  0  0
    7.8412   -7.8064    0.0000 C   0  0  0  0  0  0  0  0  0  0  0  0
   15.4346   -1.1783    0.0000 C   0  0  0  0  0  0  0  0  0  0  0  0
    9.6332   -6.7717    0.0000 C   0  0  0  0  0  0  0  0  0  0  0  0
    4.7936   -0.3417    0.0000 C   0  0  0  0  0  0  0  0  0  0  0  0
    4.8136   -2.0737    0.0000 C   0  0  0  0  0  0  0  0  0  0  0  0
   13.8722   -0.2842    0.0000 C   0  0  0  0  0  0  0  0  0  0  0  0
    5.1912   -5.2440    0.0000 C   0  0  0  0  0  0  0  0  0  0  0  0
    8.3139    2.3312    0.0000 C   0  0  0  0  0  0  0  0  0  0  0  0
    6.8173    1.4594    0.0000 C   0  0  0  0  0  0  0  0  0  0  0  0
   10.8789    1.4594    0.0000 C   0  0  0  0  0  0  0  0  0  0  0  0
    5.1912   -6.2857    0.0000 C   0  0  0  0  0  0  0  0  0  0  0  0
   14.3930   -1.1863    0.0000 C   0  0  0  0  0  0  0  0  0  0  0  0
   19.0107   -0.2842    0.0000 C   0  0  0  0  0  0  0  0  0  0  0  0
   20.9229    2.2726    0.0000 C   0  0  0  0  0  0  0  0  0  0  0  0
   21.8062    3.7625    0.0000 C   0  0  0  0  0  0  0  0  0  0  0  0
   18.4899   -1.1863    0.0000 C   0  0  0  0  0  0  0  0  0  0  0  0
    8.7392   -8.3341    0.0000 C   0  0  0  0  0  0  0  0  0  0  0  0
    9.6413   -7.8133    0.0000 C   0  0  0  0  0  0  0  0  0  0  0  0
   20.9542    6.3341    0.0000 C   0  0  0  0  0  0  0  0  0  0  0  0
   20.0940    7.8375    0.0000 C   0  0  0  0  0  0  0  0  0  0  0  0
   12.8789    1.4517    0.0000 C   0  0  0  0  0  0  0  0  0  0  0  0
    3.8137   -2.0852    0.0000 C   0  0  0  0  0  0  0  0  0  0  0  0
    3.7937   -0.3533    0.0000 C   0  0  0  0  0  0  0  0  0  0  0  0
   11.3822    2.3235    0.0000 C   0  0  0  0  0  0  0  0  0  0  0  0
    6.3139    2.3235    0.0000 C   0  0  0  0  0  0  0  0  0  0  0  0
    7.8106    3.1953    0.0000 C   0  0  0  0  0  0  0  0  0  0  0  0
   12.3822    2.3196    0.0000 C   0  0  0  0  0  0  0  0  0  0  0  0
    3.3037   -1.2250    0.0000 C   0  0  0  0  0  0  0  0  0  0  0  0
   22.6664    3.2525    0.0000 C   0  0  0  0  0  0  0  0  0  0  0  0
   21.7831    1.7626    0.0000 C   0  0  0  0  0  0  0  0  0  0  0  0
    6.8106    3.1914    0.0000 C   0  0  0  0  0  0  0  0  0  0  0  0
   20.9619    8.3341    0.0000 C   0  0  0  0  0  0  0  0  0  0  0  0
   21.8221    6.8308    0.0000 C   0  0  0  0  0  0  0  0  0  0  0  0
   22.6548    2.2526    0.0000 C   0  0  0  0  0  0  0  0  0  0  0  0
   21.8260    7.8308    0.0000 C   0  0  0  0  0  0  0  0  0  0  0  0
    7.7281   -2.9377    0.0000 H   0  0  0  0  0  0  0  0  0  0  0  0
    7.4983   -1.5050    0.0000 H   0  0  0  0  0  0  0  0  0  0  0  0
    8.6362   -0.5954    0.0000 H   0  0  0  0  0  0  0  0  0  0  0  0
    9.9681   -2.9377    0.0000 H   0  0  0  0  0  0  0  0  0  0  0  0
   17.9669    2.9816    0.0000 H   0  0  0  0  0  0  0  0  0  0  0  0
   18.3340    3.1826    0.0000 H   0  0  0  0  0  0  0  0  0  0  0  0
    9.0599   -0.5954    0.0000 H   0  0  0  0  0  0  0  0  0  0  0  0
   16.0270    4.1016    0.0000 H   0  0  0  0  0  0  0  0  0  0  0  0
   18.8855    4.5311    0.0000 H   0  0  0  0  0  0  0  0  0  0  0  0
   17.9846    5.6760    0.0000 H   0  0  0  0  0  0  0  0  0  0  0  0
   10.3850   -4.1089    0.0000 H   0  0  0  0  0  0  0  0  0  0  0  0
   10.2865   -3.3605    0.0000 H   0  0  0  0  0  0  0  0  0  0  0  0
   15.5398    3.8946    0.0000 H   0  0  0  0  0  0  0  0  0  0  0  0
   15.0803    3.2957    0.0000 H   0  0  0  0  0  0  0  0  0  0  0  0
   16.9063    6.6729    0.0000 H   0  0  0  0  0  0  0  0  0  0  0  0
    6.1044   -4.1102    0.0000 H   0  0  0  0  0  0  0  0  0  0  0  0
   18.7867    1.1543    0.0000 H   0  0  0  0  0  0  0  0  0  0  0  0
   14.0962    1.1543    0.0000 H   0  0  0  0  0  0  0  0  0  0  0  0
   10.1666   -6.4555    0.0000 H   0  0  0  0  0  0  0  0  0  0  0  0
    5.0974    0.1988    0.0000 H   0  0  0  0  0  0  0  0  0  0  0  0
    5.1298   -2.6070    0.0000 H   0  0  0  0  0  0  0  0  0  0  0  0
    8.9339    2.3336    0.0000 H   0  0  0  0  0  0  0  0  0  0  0  0
    6.5093    0.9212    0.0000 H   0  0  0  0  0  0  0  0  0  0  0  0
   10.2589    1.4618    0.0000 H   0  0  0  0  0  0  0  0  0  0  0  0
   20.3824    1.9689    0.0000 H   0  0  0  0  0  0  0  0  0  0  0  0
   21.8134    4.3825    0.0000 H   0  0  0  0  0  0  0  0  0  0  0  0
   20.9518    5.7142    0.0000 H   0  0  0  0  0  0  0  0  0  0  0  0
   19.5582    8.1495    0.0000 H   0  0  0  0  0  0  0  0  0  0  0  0
    5.5755   -8.1156    0.0000 H   0  0  0  0  0  0  0  0  0  0  0  0
   17.2421   -2.5790    0.0000 H   0  0  0  0  0  0  0  0  0  0  0  0
    6.9622   -8.9163    0.0000 H   0  0  0  0  0  0  0  0  0  0  0  0
   15.6408   -2.5790    0.0000 H   0  0  0  0  0  0  0  0  0  0  0  0
    3.7890   -5.0486    0.0000 H   0  0  0  0  0  0  0  0  0  0  0  0
    3.7890   -6.4811    0.0000 H   0  0  0  0  0  0  0  0  0  0  0  0
   13.2764   -2.0566    0.0000 H   0  0  0  0  0  0  0  0  0  0  0  0
   20.3186    0.2577    0.0000 H   0  0  0  0  0  0  0  0  0  0  0  0
   19.6066   -2.0566    0.0000 H   0  0  0  0  0  0  0  0  0  0  0  0
    9.2711   -9.6462    0.0000 H   0  0  0  0  0  0  0  0  0  0  0  0
   11.0449   -7.9979    0.0000 H   0  0  0  0  0  0  0  0  0  0  0  0
   14.1909    1.9835    0.0000 H   0  0  0  0  0  0  0  0  0  0  0  0
    2.7038   -2.9641    0.0000 H   0  0  0  0  0  0  0  0  0  0  0  0
    2.6637    0.4997    0.0000 H   0  0  0  0  0  0  0  0  0  0  0  0
   10.2656    3.1938    0.0000 H   0  0  0  0  0  0  0  0  0  0  0  0
    5.0019    2.8553    0.0000 H   0  0  0  0  0  0  0  0  0  0  0  0
    7.9952    4.5989    0.0000 H   0  0  0  0  0  0  0  0  0  0  0  0
   12.5776    3.7218    0.0000 H   0  0  0  0  0  0  0  0  0  0  0  0
    2.0000   -1.7771    0.0000 H   0  0  0  0  0  0  0  0  0  0  0  0
   24.0715    3.4263    0.0000 H   0  0  0  0  0  0  0  0  0  0  0  0
   22.3048    0.4465    0.0000 H   0  0  0  0  0  0  0  0  0  0  0  0
    6.6152    4.5936    0.0000 H   0  0  0  0  0  0  0  0  0  0  0  0
   20.4300    9.6462    0.0000 H   0  0  0  0  0  0  0  0  0  0  0  0
   23.2244    6.6354    0.0000 H   0  0  0  0  0  0  0  0  0  0  0  0
   24.0555    2.0464    0.0000 H   0  0  0  0  0  0  0  0  0  0  0  0
   22.6963    8.9474    0.0000 H   0  0  0  0  0  0  0  0  0  0  0  0
  1 52  1  0  0  0  0
  1 55  1  0  0  0  0
  2 56  1  0  0  0  0
  2 58  1  0  0  0  0
  3 49  1  0  0  0  0
  3 61  1  0  0  0  0
  4 50  1  0  0  0  0
  4 62  1  0  0  0  0
  5 51  1  0  0  0  0
  5 63  1  0  0  0  0
  6 53  1  0  0  0  0
  6 64  1  0  0  0  0
  7 54  1  0  0  0  0
  7 66  1  0  0  0  0
  8 55  1  0  0  0  0
  8 65  1  0  0  0  0
  9 57  1  0  0  0  0
  9 68  1  0  0  0  0
 10 59  1  0  0  0  0
 10 69  1  0  0  0  0
 11 58  1  0  0  0  0
 11138  1  0  0  0  0
 12 60  1  0  0  0  0
 12 72  1  0  0  0  0
 13 61  2  0  0  0  0
 14 62  2  0  0  0  0
 15 63  2  0  0  0  0
 16 64  2  0  0  0  0
 17 65  2  0  0  0  0
 18 66  2  0  0  0  0
 19 68  2  0  0  0  0
 20 86  1  0  0  0  0
 20 94  1  0  0  0  0
 21 69  2  0  0  0  0
 22 72  2  0  0  0  0
 23 84  1  0  0  0  0
 23152  1  0  0  0  0
 24 88  1  0  0  0  0
 24153  1  0  0  0  0
 25 89  1  0  0  0  0
 25154  1  0  0  0  0
 26 90  1  0  0  0  0
 26155  1  0  0  0  0
 27 95  1  0  0  0  0
 27156  1  0  0  0  0
 28 99  1  0  0  0  0
 28157  1  0  0  0  0
 29100  1  0  0  0  0
 29158  1  0  0  0  0
 30101  1  0  0  0  0
 30159  1  0  0  0  0
 31104  1  0  0  0  0
 31160  1  0  0  0  0
 32105  1  0  0  0  0
 32161  1  0  0  0  0
 33106  1  0  0  0  0
 33162  1  0  0  0  0
 34109  1  0  0  0  0
 34163  1  0  0  0  0
 35110  1  0  0  0  0
 35164  1  0  0  0  0
 36111  1  0  0  0  0
 36165  1  0  0  0  0
 37112  1  0  0  0  0
 37166  1  0  0  0  0
 38113  1  0  0  0  0
 38167  1  0  0  0  0
 39114  1  0  0  0  0
 39168  1  0  0  0  0
 40115  1  0  0  0  0
 40169  1  0  0  0  0
 41116  1  0  0  0  0
 41170  1  0  0  0  0
 42117  1  0  0  0  0
 42171  1  0  0  0  0
 43118  1  0  0  0  0
 43172  1  0  0  0  0
 44119  1  0  0  0  0
 44173  1  0  0  0  0
 45120  1  0  0  0  0
 45174  1  0  0  0  0
 46121  1  0  0  0  0
 46175  1  0  0  0  0
 47122  1  0  0  0  0
 47176  1  0  0  0  0
 48123  1  0  0  0  0
 48177  1  0  0  0  0
 49 50  1  0  0  0  0
 49 52  1  0  0  0  0
 49124  1  0  0  0  0
 50 51  1  0  0  0  0
 50125  1  0  0  0  0
 51 55  1  0  0  0  0
 51126  1  0  0  0  0
 52 59  1  0  0  0  0
 52127  1  0  0  0  0
 53 54  1  0  0  0  0
 53 56  1  0  0  0  0
 53128  1  0  0  0  0
 54 57  1  0  0  0  0
 54129  1  0  0  0  0
 55130  1  0  0  0  0
 56 60  1  0  0  0  0
 56131  1  0  0  0  0
 57 58  1  0  0  0  0
 57132  1  0  0  0  0
 58133  1  0  0  0  0
 59134  1  0  0  0  0
 59135  1  0  0  0  0
 60136  1  0  0  0  0
 60137  1  0  0  0  0
 61 67  1  0  0  0  0
 62 73  1  0  0  0  0
 63 77  1  0  0  0  0
 64 70  1  0  0  0  0
 65 78  1  0  0  0  0
 66 81  1  0  0  0  0
 67 71  1  0  0  0  0
 67 82  2  0  0  0  0
 68 83  1  0  0  0  0
 69 74  1  0  0  0  0
 70 76  1  0  0  0  0
 70 85  2  0  0  0  0
 71 75  1  0  0  0  0
 71 84  2  0  0  0  0
 72 79  1  0  0  0  0
 73 92  2  0  0  0  0
 73 93  1  0  0  0  0
 74 75  1  0  0  0  0
 74 91  2  0  0  0  0
 75 89  2  0  0  0  0
 76 80  1  0  0  0  0
 76 88  2  0  0  0  0
 77 96  2  0  0  0  0
 77 97  1  0  0  0  0
 78 86  1  0  0  0  0
 78 98  2  0  0  0  0
 79 80  1  0  0  0  0
 79 87  2  0  0  0  0
 80 90  2  0  0  0  0
 81102  2  0  0  0  0
 81103  1  0  0  0  0
 82 95  1  0  0  0  0
 82139  1  0  0  0  0
 83107  2  0  0  0  0
 83108  1  0  0  0  0
 84 99  1  0  0  0  0
 85101  1  0  0  0  0
 85140  1  0  0  0  0
 86109  2  0  0  0  0
 87 94  1  0  0  0  0
 87141  1  0  0  0  0
 88104  1  0  0  0  0
 89105  1  0  0  0  0
 90100  1  0  0  0  0
 91106  1  0  0  0  0
 91142  1  0  0  0  0
 92111  1  0  0  0  0
 92143  1  0  0  0  0
 93110  2  0  0  0  0
 93144  1  0  0  0  0
 94100  2  0  0  0  0
 95 99  2  0  0  0  0
 96114  1  0  0  0  0
 96145  1  0  0  0  0
 97113  2  0  0  0  0
 97146  1  0  0  0  0
 98112  1  0  0  0  0
 98147  1  0  0  0  0
101104  2  0  0  0  0
102118  1  0  0  0  0
102148  1  0  0  0  0
103117  2  0  0  0  0
103149  1  0  0  0  0
105106  2  0  0  0  0
107121  1  0  0  0  0
107150  1  0  0  0  0
108120  2  0  0  0  0
108151  1  0  0  0  0
109115  1  0  0  0  0
110116  1  0  0  0  0
111116  2  0  0  0  0
112115  2  0  0  0  0
113119  1  0  0  0  0
114119  2  0  0  0  0
117122  1  0  0  0  0
118122  2  0  0  0  0
120123  1  0  0  0  0
121123  2  0  0  0  0
M  END
>  <PUBCHEM_COMPOUND_CID>
16165063

>  <PUBCHEM_COMPOUND_CANONICALIZED>
0

>  <PUBCHEM_CACTVS_COMPLEXITY>
3720

>  <PUBCHEM_CACTVS_HBOND_ACCEPTOR>
48

>  <PUBCHEM_CACTVS_HBOND_DONOR>
27

>  <PUBCHEM_CACTVS_ROTATABLE_BOND>
17

>  <PUBCHEM_CACTVS_SUBSKEYS>
AAADcfB8PgAAAAAAAAAAAAAAAAAAAAAAAAA0aMGDAAAAAAABVAAAGgAACAAADBSwmAMwDoAABgCIAiDSCAACCAAkIAAAiAEGiMgdNzaGNRqieWOl4BUPuYfK7PzOoQABCAAYQABCAAIQADCAAAAAAAAAAA==

>  <PUBCHEM_IUPAC_INCHI>
InChI=1S/C75H54O48/c76-25-1-16(2-26(77)44(25)88)65(102)119-61-59-38(115-74(111)63(61)121-67(104)18-5-29(80)46(90)30(81)6-18)14-112-70(107)23-13-37(52(96)56(100)43(23)42-22(71(108)117-59)11-35(86)50(94)55(42)99)114-58-24(12-36(87)51(95)57(58)101)73(110)123-75-64(122-68(105)19-7-31(82)47(91)32(83)8-19)62(120-66(103)17-3-27(78)45(89)28(79)4-17)60-39(116-75)15-113-69(106)20-9-33(84)48(92)53(97)40(20)41-21(72(109)118-60)10-34(85)49(93)54(41)98/h1-13,38-39,59-64,74-101,111H,14-15H2

>  <PUBCHEM_IUPAC_INCHIKEY>
PNNKYDFJHCUHIQ-UHFFFAOYSA-N

>  <PUBCHEM_XLOGP3_AA>
2.5

>  <PUBCHEM_EXACT_MASS>
1722.178

>  <PUBCHEM_MOLECULAR_FORMULA>
C75H54O48

>  <PUBCHEM_MOLECULAR_WEIGHT>
1723.209

>  <PUBCHEM_OPENEYE_CAN_SMILES>
C1C2C(C(C(C(O2)O)OC(=O)C3=CC(=C(C(=C3)O)O)O)OC(=O)C4=CC(=C(C(=C4)O)O)O)OC(=O)C5=CC(=C(C(=C5C6=C(C(=C(C=C6C(=O)O1)OC7=C(C(=C(C=C7C(=O)OC8C(C(C9C(O8)COC(=O)C1=CC(=C(C(=C1C1=C(C(=C(C=C1C(=O)O9)O)O)O)O)O)O)OC(=O)C1=CC(=C(C(=C1)O)O)O)OC(=O)C1=CC(=C(C(=C1)O)O)O)O)O)O)O)O)O)O)O

>  <PUBCHEM_OPENEYE_ISO_SMILES>
C1C2C(C(C(C(O2)O)OC(=O)C3=CC(=C(C(=C3)O)O)O)OC(=O)C4=CC(=C(C(=C4)O)O)O)OC(=O)C5=CC(=C(C(=C5C6=C(C(=C(C=C6C(=O)O1)OC7=C(C(=C(C=C7C(=O)OC8C(C(C9C(O8)COC(=O)C1=CC(=C(C(=C1C1=C(C(=C(C=C1C(=O)O9)O)O)O)O)O)O)OC(=O)C1=CC(=C(C(=C1)O)O)O)OC(=O)C1=CC(=C(C(=C1)O)O)O)O)O)O)O)O)O)O)O

>  <PUBCHEM_CACTVS_TPSA>
811

>  <PUBCHEM_MONOISOTOPIC_WEIGHT>
1722.178

>  <PUBCHEM_TOTAL_CHARGE>
0

>  <PUBCHEM_HEAVY_ATOM_COUNT>
123

>  <PUBCHEM_ATOM_DEF_STEREO_COUNT>
0

>  <PUBCHEM_ATOM_UDEF_STEREO_COUNT>
10

>  <PUBCHEM_BOND_DEF_STEREO_COUNT>
0

>  <PUBCHEM_BOND_UDEF_STEREO_COUNT>
0

>  <PUBCHEM_ISOTOPIC_ATOM_COUNT>
0

>  <PUBCHEM_COMPONENT_COUNT>
1

>  <PUBCHEM_CACTVS_TAUTO_COUNT>
970

>  <PUBCHEM_COORDINATE_TYPE>
1
5
255

>  <PUBCHEM_BONDANNOTATIONS>
101  104  8
102  118  8
103  117  8
105  106  8
107  121  8
108  120  8
109  115  8
58  11  3
110  116  8
111  116  8
112  115  8
113  119  8
114  119  8
117  122  8
118  122  8
120  123  8
121  123  8
49  3  3
50  4  3
51  5  3
52  59  3
56  60  3
53  6  3
67  71  8
67  82  8
54  7  3
70  76  8
70  85  8
71  84  8
73  92  8
73  93  8
74  75  8
74  91  8
75  89  8
76  88  8
77  96  8
77  97  8
78  86  8
78  98  8
79  80  8
79  87  8
55  8  3
80  90  8
81  102  8
81  103  8
82  95  8
83  107  8
83  108  8
84  99  8
85  101  8
86  109  8
87  94  8
88  104  8
89  105  8
57  9  3
90  100  8
91  106  8
92  111  8
93  110  8
94  100  8
95  99  8
96  114  8
97  113  8
98  112  8

$$$$
