16167186
 OpenBabel06101807152D

 95103  0  0  1  0  0  0  0  0999 V2000
    4.3454   -0.9612    0.0000 O   0  0  0  0  0  0  0  0  0  0  0  0
    6.2035   -1.6245    0.0000 O   0  0  0  0  0  0  0  0  0  0  0  0
    6.4106    0.9839    0.0000 O   0  0  0  0  0  0  0  0  0  0  0  0
    8.1353   -1.1069    0.0000 O   0  0  0  0  0  0  0  0  0  0  0  0
    7.8765    1.2733    0.0000 O   0  0  0  0  0  0  0  0  0  0  0  0
    6.6789   -0.2994    0.0000 O   0  0  0  0  0  0  0  0  0  0  0  0
    3.6707   -1.0800    0.0000 O   0  0  0  0  0  0  0  0  0  0  0  0
    2.9224   -1.7130    0.0000 O   0  0  0  0  0  0  0  0  0  0  0  0
    6.0726   -2.2053    0.0000 O   0  0  0  0  0  0  0  0  0  0  0  0
    3.2843   -4.4651    0.0000 O   0  0  0  0  0  0  0  0  0  0  0  0
    2.3913   -2.5585    0.0000 O   0  0  0  0  0  0  0  0  0  0  0  0
    7.4842   -1.5125    0.0000 O   0  0  0  0  0  0  0  0  0  0  0  0
    4.5869   -5.0088    0.0000 O   0  0  0  0  0  0  0  0  0  0  0  0
    8.0080   -5.6165    0.0000 O   0  0  0  0  0  0  0  0  0  0  0  0
    6.1164   -6.3321    0.0000 O   0  0  0  0  0  0  0  0  0  0  0  0
    7.9068    1.7628    0.0000 O   0  0  0  0  0  0  0  0  0  0  0  0
    7.6176   -3.0387    0.0000 O   0  0  0  0  0  0  0  0  0  0  0  0
    8.7799   -5.4565    0.0000 O   0  0  0  0  0  0  0  0  0  0  0  0
    6.9832    2.9587    0.0000 O   0  0  0  0  0  0  0  0  0  0  0  0
   10.7624   -4.9416    0.0000 O   0  0  0  0  0  0  0  0  0  0  0  0
   11.2926   -2.9631    0.0000 O   0  0  0  0  0  0  0  0  0  0  0  0
    5.1622    4.8845    0.0000 O   0  0  0  0  0  0  0  0  0  0  0  0
    6.0228    5.3814    0.0000 O   0  0  0  0  0  0  0  0  0  0  0  0
    3.3804    1.8258    0.0000 O   0  0  0  0  0  0  0  0  0  0  0  0
    3.3804    3.8741    0.0000 O   0  0  0  0  0  0  0  0  0  0  0  0
    7.7887    6.4192    0.0000 O   0  0  0  0  0  0  0  0  0  0  0  0
    9.5626    5.3950    0.0000 O   0  0  0  0  0  0  0  0  0  0  0  0
    5.2154   -0.4802    0.0000 C   0  0  3  0  0  0  0  0  0  0  0  0
    6.2035   -0.5892    0.0000 C   0  0  3  0  0  0  0  0  0  0  0  0
    5.3989   -1.4663    0.0000 C   0  0  3  0  0  0  0  0  0  0  0  0
    6.9106    0.1179    0.0000 C   0  0  3  0  0  0  0  0  0  0  0  0
    4.9618   -2.3691    0.0000 C   0  0  0  0  0  0  0  0  0  0  0  0
    7.8765   -0.1410    0.0000 C   0  0  3  0  0  0  0  0  0  0  0  0
    4.0745   -2.8367    0.0000 C   0  0  0  0  0  0  0  0  0  0  0  0
    4.7729   -3.5442    0.0000 C   0  0  0  0  0  0  0  0  0  0  0  0
    3.9122   -1.8559    0.0000 C   0  0  0  0  0  0  0  0  0  0  0  0
    6.3758   -1.2523    0.0000 C   0  0  0  0  0  0  0  0  0  0  0  0
    4.0518   -2.0045    0.0000 C   0  0  0  0  0  0  0  0  0  0  0  0
    5.7515   -3.7191    0.0000 C   0  0  0  0  0  0  0  0  0  0  0  0
    8.5836    0.5662    0.0000 C   0  0  0  0  0  0  0  0  0  0  0  0
    6.6518   -3.2976    0.0000 C   0  0  0  0  0  0  0  0  0  0  0  0
    6.9106   -2.3316    0.0000 C   0  0  0  0  0  0  0  0  0  0  0  0
    3.7944   -3.6050    0.0000 C   0  0  0  0  0  0  0  0  0  0  0  0
    3.3786   -2.7172    0.0000 C   0  0  0  0  0  0  0  0  0  0  0  0
    7.3589   -4.0047    0.0000 C   0  0  0  0  0  0  0  0  0  0  0  0
    5.5361   -4.6942    0.0000 C   0  0  0  0  0  0  0  0  0  0  0  0
    8.3248   -3.7458    0.0000 C   0  0  0  0  0  0  0  0  0  0  0  0
    6.9106    1.8499    0.0000 C   0  0  0  0  0  0  0  0  0  0  0  0
    7.2252   -4.9942    0.0000 C   0  0  0  0  0  0  0  0  0  0  0  0
    7.8765   -2.0728    0.0000 C   0  0  0  0  0  0  0  0  0  0  0  0
    8.5836   -2.7799    0.0000 C   0  0  0  0  0  0  0  0  0  0  0  0
    6.2913   -5.3475    0.0000 C   0  0  0  0  0  0  0  0  0  0  0  0
    6.0445    2.3499    0.0000 C   0  0  0  0  0  0  0  0  0  0  0  0
    9.0499   -4.4936    0.0000 C   0  0  0  0  0  0  0  0  0  0  0  0
    6.0445    3.3499    0.0000 C   0  0  0  0  0  0  0  0  0  0  0  0
    9.5855   -2.4948    0.0000 C   0  0  0  0  0  0  0  0  0  0  0  0
    7.7766    2.3499    0.0000 C   0  0  0  0  0  0  0  0  0  0  0  0
    6.9106    3.8499    0.0000 C   0  0  0  0  0  0  0  0  0  0  0  0
    7.7766    3.3499    0.0000 C   0  0  0  0  0  0  0  0  0  0  0  0
   10.0581   -4.2318    0.0000 C   0  0  0  0  0  0  0  0  0  0  0  0
   10.3277   -3.2257    0.0000 C   0  0  0  0  0  0  0  0  0  0  0  0
    5.1506    1.8153    0.0000 C   0  0  0  0  0  0  0  0  0  0  0  0
    5.1506    3.8846    0.0000 C   0  0  0  0  0  0  0  0  0  0  0  0
    6.8945    4.8914    0.0000 C   0  0  0  0  0  0  0  0  0  0  0  0
    4.2445    2.3291    0.0000 C   0  0  0  0  0  0  0  0  0  0  0  0
    8.6866    3.8568    0.0000 C   0  0  0  0  0  0  0  0  0  0  0  0
    4.2445    3.3707    0.0000 C   0  0  0  0  0  0  0  0  0  0  0  0
    7.7926    5.4192    0.0000 C   0  0  0  0  0  0  0  0  0  0  0  0
    8.6946    4.8984    0.0000 C   0  0  0  0  0  0  0  0  0  0  0  0
    5.0937    0.1277    0.0000 H   0  0  0  0  0  0  0  0  0  0  0  0
    6.7763   -0.8265    0.0000 H   0  0  0  0  0  0  0  0  0  0  0  0
    5.7416   -0.9496    0.0000 H   0  0  0  0  0  0  0  0  0  0  0  0
    7.2880    0.6097    0.0000 H   0  0  0  0  0  0  0  0  0  0  0  0
    8.4754   -0.3014    0.0000 H   0  0  0  0  0  0  0  0  0  0  0  0
    9.0220    0.1277    0.0000 H   0  0  0  0  0  0  0  0  0  0  0  0
    9.0220    1.0046    0.0000 H   0  0  0  0  0  0  0  0  0  0  0  0
    6.2611    0.1588    0.0000 H   0  0  0  0  0  0  0  0  0  0  0  0
    3.0561   -0.9980    0.0000 H   0  0  0  0  0  0  0  0  0  0  0  0
    2.6644   -4.4579    0.0000 H   0  0  0  0  0  0  0  0  0  0  0  0
    2.0000   -3.0394    0.0000 H   0  0  0  0  0  0  0  0  0  0  0  0
    9.7390   -1.8942    0.0000 H   0  0  0  0  0  0  0  0  0  0  0  0
    4.4616   -5.6160    0.0000 H   0  0  0  0  0  0  0  0  0  0  0  0
    5.1578    1.1953    0.0000 H   0  0  0  0  0  0  0  0  0  0  0  0
    7.9165   -6.2297    0.0000 H   0  0  0  0  0  0  0  0  0  0  0  0
    6.5908   -6.7312    0.0000 H   0  0  0  0  0  0  0  0  0  0  0  0
    9.2199    3.5406    0.0000 H   0  0  0  0  0  0  0  0  0  0  0  0
    9.2132   -5.9000    0.0000 H   0  0  0  0  0  0  0  0  0  0  0  0
   11.3619   -4.7835    0.0000 H   0  0  0  0  0  0  0  0  0  0  0  0
   11.4507   -2.3636    0.0000 H   0  0  0  0  0  0  0  0  0  0  0  0
    4.6288    5.2007    0.0000 H   0  0  0  0  0  0  0  0  0  0  0  0
    6.0156    6.0013    0.0000 H   0  0  0  0  0  0  0  0  0  0  0  0
    2.8423    2.1337    0.0000 H   0  0  0  0  0  0  0  0  0  0  0  0
    2.8423    3.5661    0.0000 H   0  0  0  0  0  0  0  0  0  0  0  0
    8.3244    6.7312    0.0000 H   0  0  0  0  0  0  0  0  0  0  0  0
   10.0983    5.0830    0.0000 H   0  0  0  0  0  0  0  0  0  0  0  0
  1 28  1  0  0  0  0
  1 36  1  0  0  0  0
  2 29  1  0  0  0  0
  2 42  1  0  0  0  0
  3 31  1  0  0  0  0
  3 48  1  0  0  0  0
  4 33  1  0  0  0  0
  4 50  1  0  0  0  0
  5 40  1  0  0  0  0
  5 57  1  0  0  0  0
  6 37  1  0  0  0  0
  6 77  1  0  0  0  0
  7 38  1  0  0  0  0
  7 78  1  0  0  0  0
  8 36  2  0  0  0  0
  9 37  2  0  0  0  0
 10 43  1  0  0  0  0
 10 79  1  0  0  0  0
 11 44  1  0  0  0  0
 11 80  1  0  0  0  0
 12 42  2  0  0  0  0
 13 46  1  0  0  0  0
 13 82  1  0  0  0  0
 14 49  1  0  0  0  0
 14 84  1  0  0  0  0
 15 52  1  0  0  0  0
 15 85  1  0  0  0  0
 16 48  2  0  0  0  0
 17 50  2  0  0  0  0
 18 54  1  0  0  0  0
 18 87  1  0  0  0  0
 19 57  2  0  0  0  0
 20 60  1  0  0  0  0
 20 88  1  0  0  0  0
 21 61  1  0  0  0  0
 21 89  1  0  0  0  0
 22 63  1  0  0  0  0
 22 90  1  0  0  0  0
 23 64  1  0  0  0  0
 23 91  1  0  0  0  0
 24 65  1  0  0  0  0
 24 92  1  0  0  0  0
 25 67  1  0  0  0  0
 25 93  1  0  0  0  0
 26 68  1  0  0  0  0
 26 94  1  0  0  0  0
 27 69  1  0  0  0  0
 27 95  1  0  0  0  0
 28 29  1  0  0  0  0
 28 30  1  0  0  0  0
 28 70  1  0  0  0  0
 29 31  1  0  0  0  0
 29 71  1  0  0  0  0
 30 32  1  0  0  0  0
 30 37  1  0  0  0  0
 30 72  1  0  0  0  0
 31 33  1  0  0  0  0
 31 73  1  0  0  0  0
 32 34  1  0  0  0  0
 32 38  2  0  0  0  0
 33 40  1  0  0  0  0
 33 74  1  0  0  0  0
 34 35  2  0  0  0  0
 34 36  1  0  0  0  0
 35 39  1  0  0  0  0
 35 43  1  0  0  0  0
 38 44  1  0  0  0  0
 39 41  1  0  0  0  0
 39 46  2  0  0  0  0
 40 75  1  0  0  0  0
 40 76  1  0  0  0  0
 41 42  1  0  0  0  0
 41 45  2  0  0  0  0
 43 44  2  0  0  0  0
 45 47  1  0  0  0  0
 45 49  1  0  0  0  0
 46 52  1  0  0  0  0
 47 51  1  0  0  0  0
 47 54  2  0  0  0  0
 48 53  1  0  0  0  0
 49 52  2  0  0  0  0
 50 51  1  0  0  0  0
 51 56  2  0  0  0  0
 53 55  1  0  0  0  0
 53 62  2  0  0  0  0
 54 60  1  0  0  0  0
 55 58  1  0  0  0  0
 55 63  2  0  0  0  0
 56 61  1  0  0  0  0
 56 81  1  0  0  0  0
 57 59  1  0  0  0  0
 58 59  1  0  0  0  0
 58 64  2  0  0  0  0
 59 66  2  0  0  0  0
 60 61  2  0  0  0  0
 62 65  1  0  0  0  0
 62 83  1  0  0  0  0
 63 67  1  0  0  0  0
 64 68  1  0  0  0  0
 65 67  2  0  0  0  0
 66 69  1  0  0  0  0
 66 86  1  0  0  0  0
 68 69  2  0  0  0  0
M  END
>  <PUBCHEM_COMPOUND_CID>
16167186

>  <PUBCHEM_COMPOUND_CANONICALIZED>
1

>  <PUBCHEM_CACTVS_COMPLEXITY>
2060

>  <PUBCHEM_CACTVS_HBOND_ACCEPTOR>
27

>  <PUBCHEM_CACTVS_HBOND_DONOR>
16

>  <PUBCHEM_CACTVS_ROTATABLE_BOND>
1

>  <PUBCHEM_CACTVS_SUBSKEYS>
AAADceB8PgAAAAAAAAAAAAAAAAAAAAAAAAA0YMGDAAAAAACRVAAAGgAACAAADRSgmAIwDoAABgCIAiDSCAACAAAkIAAAiAEGiMgJJzaCNBqCcQEl4BULuYfK7vzOoAADCAAYQABAAAYQADCAAAAAAAAAAA==

>  <PUBCHEM_IUPAC_INCHI>
InChI=1S/C42H26O27/c43-8-1-5-12(25(49)22(8)46)13-6(2-9(44)23(47)26(13)50)40(62)67-34-11(4-65-38(5)60)66-39(61)7-3-10(45)24(48)27(51)14(7)15-19-16(29(53)32(56)28(15)52)17-20-18(31(55)33(57)30(17)54)21(37(58)59)35(68-41(20)63)36(34)69-42(19)64/h1-3,11,21,34-36,43-57H,4H2,(H,58,59)

>  <PUBCHEM_IUPAC_INCHIKEY>
ZTOKIAYQNMCRRX-UHFFFAOYSA-N

>  <PUBCHEM_XLOGP3_AA>
1.3

>  <PUBCHEM_EXACT_MASS>
962.066

>  <PUBCHEM_MOLECULAR_FORMULA>
C42H26O27

>  <PUBCHEM_MOLECULAR_WEIGHT>
962.643

>  <PUBCHEM_OPENEYE_CAN_SMILES>
C1C2C(C3C4C(C5=C(C(=C(C(=C5C(=O)O4)C6=C(C(=C(C(=C6C(=O)O3)C7=C(C(=C(C=C7C(=O)O2)O)O)O)O)O)O)O)O)O)C(=O)O)OC(=O)C8=CC(=C(C(=C8C9=C(C(=C(C=C9C(=O)O1)O)O)O)O)O)O

>  <PUBCHEM_OPENEYE_ISO_SMILES>
C1C2C(C3C4C(C5=C(C(=C(C(=C5C(=O)O4)C6=C(C(=C(C(=C6C(=O)O3)C7=C(C(=C(C=C7C(=O)O2)O)O)O)O)O)O)O)O)O)C(=O)O)OC(=O)C8=CC(=C(C(=C8C9=C(C(=C(C=C9C(=O)O1)O)O)O)O)O)O

>  <PUBCHEM_CACTVS_TPSA>
472

>  <PUBCHEM_MONOISOTOPIC_WEIGHT>
962.066

>  <PUBCHEM_TOTAL_CHARGE>
0

>  <PUBCHEM_HEAVY_ATOM_COUNT>
69

>  <PUBCHEM_ATOM_DEF_STEREO_COUNT>
0

>  <PUBCHEM_ATOM_UDEF_STEREO_COUNT>
5

>  <PUBCHEM_BOND_DEF_STEREO_COUNT>
0

>  <PUBCHEM_BOND_UDEF_STEREO_COUNT>
0

>  <PUBCHEM_ISOTOPIC_ATOM_COUNT>
0

>  <PUBCHEM_COMPONENT_COUNT>
1

>  <PUBCHEM_CACTVS_TAUTO_COUNT>
970

>  <PUBCHEM_COORDINATE_TYPE>
1
5
255

>  <PUBCHEM_BONDANNOTATIONS>
28  1  3
29  2  3
31  3  3
30  37  3
32  34  8
32  38  8
33  40  3
34  35  8
35  43  8
38  44  8
39  41  8
39  46  8
41  45  8
43  44  8
45  49  8
46  52  8
47  51  8
47  54  8
49  52  8
51  56  8
53  55  8
53  62  8
54  60  8
55  63  8
56  61  8
58  59  8
58  64  8
59  66  8
60  61  8
62  65  8
63  67  8
64  68  8
65  67  8
66  69  8
68  69  8

$$$$
