16181831
 OpenBabel06101807152D

188203  0  0  1  0  0  0  0  0999 V2000
    5.9860    5.4358    0.0000 O   0  0  0  0  0  0  0  0  0  0  0  0
    8.8440   -4.2530    0.0000 O   0  0  0  0  0  0  0  0  0  0  0  0
    8.4266    3.4414    0.0000 O   0  0  0  0  0  0  0  0  0  0  0  0
    6.8680    2.8943    0.0000 O   0  0  0  0  0  0  0  0  0  0  0  0
   10.4762   -6.9494    0.0000 O   0  0  0  0  0  0  0  0  0  0  0  0
    8.8244   -6.9431    0.0000 O   0  0  0  0  0  0  0  0  0  0  0  0
    8.4494    6.3924    0.0000 O   0  0  0  0  0  0  0  0  0  0  0  0
   11.4855   -4.1762    0.0000 O   0  0  0  0  0  0  0  0  0  0  0  0
    6.8802    6.9635    0.0000 O   0  0  0  0  0  0  0  0  0  0  0  0
   10.1981   -3.1127    0.0000 O   0  0  0  0  0  0  0  0  0  0  0  0
    4.8772    2.9284    0.0000 O   0  0  0  0  0  0  0  0  0  0  0  0
    6.9598   -6.2446    0.0000 O   0  0  0  0  0  0  0  0  0  0  0  0
    5.8477    1.2140    0.0000 O   0  0  0  0  0  0  0  0  0  0  0  0
    9.4939    2.0536    0.0000 O   0  0  0  0  0  0  0  0  0  0  0  0
   11.0173   -8.6144    0.0000 O   0  0  0  0  0  0  0  0  0  0  0  0
    9.5379    7.7636    0.0000 O   0  0  0  0  0  0  0  0  0  0  0  0
    7.3004   -8.1849    0.0000 O   0  0  0  0  0  0  0  0  0  0  0  0
   12.9702   -3.2486    0.0000 O   0  0  0  0  0  0  0  0  0  0  0  0
    8.9054    1.0501    0.0000 O   0  0  0  0  0  0  0  0  0  0  0  0
    8.5637   -2.5392    0.0000 O   0  0  0  0  0  0  0  0  0  0  0  0
    5.1481    6.9569    0.0000 O   0  0  0  0  0  0  0  0  0  0  0  0
    5.8772    2.9284    0.0000 O   0  0  0  0  0  0  0  0  0  0  0  0
    7.9021   -6.5793    0.0000 O   0  0  0  0  0  0  0  0  0  0  0  0
   13.4922    4.4299    0.0000 O   0  0  0  0  0  0  0  0  0  0  0  0
   13.4991    5.3258    0.0000 O   0  0  0  0  0  0  0  0  0  0  0  0
   15.5804   -7.7136    0.0000 O   0  0  0  0  0  0  0  0  0  0  0  0
    6.3741   -1.4399    0.0000 O   0  0  0  0  0  0  0  0  0  0  0  0
   15.8868   -6.8718    0.0000 O   0  0  0  0  0  0  0  0  0  0  0  0
    9.3105    0.8177    0.0000 O   0  0  0  0  0  0  0  0  0  0  0  0
    6.9079  -10.8619    0.0000 O   0  0  0  0  0  0  0  0  0  0  0  0
    5.3803   -1.4399    0.0000 O   0  0  0  0  0  0  0  0  0  0  0  0
   12.6718    1.1985    0.0000 O   0  0  0  0  0  0  0  0  0  0  0  0
    8.0955   -1.5732    0.0000 O   0  0  0  0  0  0  0  0  0  0  0  0
   13.7255  -10.4840    0.0000 O   0  0  0  0  0  0  0  0  0  0  0  0
   12.7286    8.5696    0.0000 O   0  0  0  0  0  0  0  0  0  0  0  0
   13.9982    2.9703    0.0000 O   0  0  0  0  0  0  0  0  0  0  0  0
   16.2466   -3.5572    0.0000 O   0  0  0  0  0  0  0  0  0  0  0  0
   15.5685   -9.2584    0.0000 O   0  0  0  0  0  0  0  0  0  0  0  0
   14.0275    6.7775    0.0000 O   0  0  0  0  0  0  0  0  0  0  0  0
    5.9715  -10.5292    0.0000 O   0  0  0  0  0  0  0  0  0  0  0  0
   16.8707   -5.6807    0.0000 O   0  0  0  0  0  0  0  0  0  0  0  0
   10.3916  -10.2337    0.0000 O   0  0  0  0  0  0  0  0  0  0  0  0
    8.8327  -11.5624    0.0000 O   0  0  0  0  0  0  0  0  0  0  0  0
    3.3321   -1.4557    0.0000 O   0  0  0  0  0  0  0  0  0  0  0  0
    2.3079    0.3182    0.0000 O   0  0  0  0  0  0  0  0  0  0  0  0
    4.0362   -9.8584    0.0000 O   0  0  0  0  0  0  0  0  0  0  0  0
    3.6650   -7.8440    0.0000 O   0  0  0  0  0  0  0  0  0  0  0  0
   10.8709    1.4202    0.0000 O   0  0  0  0  0  0  0  0  0  0  0  0
   12.1741   -0.0969    0.0000 O   0  0  0  0  0  0  0  0  0  0  0  0
    4.2686   10.4535    0.0000 O   0  0  0  0  0  0  0  0  0  0  0  0
    7.7327   10.4669    0.0000 O   0  0  0  0  0  0  0  0  0  0  0  0
    5.9968   11.4602    0.0000 O   0  0  0  0  0  0  0  0  0  0  0  0
    7.7780    4.4011    0.0000 C   0  0  3  0  0  0  0  0  0  0  0  0
    6.8680    3.8943    0.0000 C   0  0  3  0  0  0  0  0  0  0  0  0
   10.1864   -5.8279    0.0000 C   0  0  3  0  0  0  0  0  0  0  0  0
    9.1592   -6.0008    0.0000 C   0  0  3  0  0  0  0  0  0  0  0  0
    7.7861    5.4427    0.0000 C   0  0  3  0  0  0  0  0  0  0  0  0
    6.0020    4.3943    0.0000 C   0  0  3  0  0  0  0  0  0  0  0  0
   10.5426   -4.8490    0.0000 C   0  0  3  0  0  0  0  0  0  0  0  0
    8.5105   -5.2398    0.0000 C   0  0  3  0  0  0  0  0  0  0  0  0
    6.8840    5.9636    0.0000 C   0  0  3  0  0  0  0  0  0  0  0  0
    9.8669   -4.0563    0.0000 C   0  0  3  0  0  0  0  0  0  0  0  0
    5.1360    3.8943    0.0000 C   0  0  0  0  0  0  0  0  0  0  0  0
    7.5270   -5.4210    0.0000 C   0  0  0  0  0  0  0  0  0  0  0  0
    6.3772    2.0623    0.0000 C   0  0  0  0  0  0  0  0  0  0  0  0
    9.5180    3.0533    0.0000 C   0  0  0  0  0  0  0  0  0  0  0  0
   11.3747   -7.6804    0.0000 C   0  0  0  0  0  0  0  0  0  0  0  0
    9.5466    6.7636    0.0000 C   0  0  0  0  0  0  0  0  0  0  0  0
    8.0833   -7.5628    0.0000 C   0  0  0  0  0  0  0  0  0  0  0  0
   12.6437   -4.1938    0.0000 C   0  0  0  0  0  0  0  0  0  0  0  0
    6.8772    1.1963    0.0000 C   0  0  0  0  0  0  0  0  0  0  0  0
   10.6270    3.3881    0.0000 C   0  0  0  0  0  0  0  0  0  0  0  0
   12.5317   -7.7361    0.0000 C   0  0  0  0  0  0  0  0  0  0  0  0
   10.6503    6.4117    0.0000 C   0  0  0  0  0  0  0  0  0  0  0  0
   13.5658   -4.8948    0.0000 C   0  0  0  0  0  0  0  0  0  0  0  0
    9.5465   -2.3542    0.0000 C   0  0  0  0  0  0  0  0  0  0  0  0
    6.0122    7.4602    0.0000 C   0  0  0  0  0  0  0  0  0  0  0  0
    8.2646   -8.5462    0.0000 C   0  0  0  0  0  0  0  0  0  0  0  0
   11.3212    4.3154    0.0000 C   0  0  0  0  0  0  0  0  0  0  0  0
   11.3301    5.4738    0.0000 C   0  0  0  0  0  0  0  0  0  0  0  0
   13.4963   -7.0947    0.0000 C   0  0  0  0  0  0  0  0  0  0  0  0
   13.8924   -6.0062    0.0000 C   0  0  0  0  0  0  0  0  0  0  0  0
    5.3772    2.0623    0.0000 C   0  0  0  0  0  0  0  0  0  0  0  0
    6.3772    0.3303    0.0000 C   0  0  0  0  0  0  0  0  0  0  0  0
    7.1410   -7.2280    0.0000 C   0  0  0  0  0  0  0  0  0  0  0  0
    7.5035   -9.1949    0.0000 C   0  0  0  0  0  0  0  0  0  0  0  0
    5.3772    0.3303    0.0000 C   0  0  0  0  0  0  0  0  0  0  0  0
    4.8772    1.1963    0.0000 C   0  0  0  0  0  0  0  0  0  0  0  0
    7.9187    1.2124    0.0000 C   0  0  0  0  0  0  0  0  0  0  0  0
    6.3800   -7.8767    0.0000 C   0  0  0  0  0  0  0  0  0  0  0  0
    6.5612   -8.8601    0.0000 C   0  0  0  0  0  0  0  0  0  0  0  0
    9.8775   -1.4106    0.0000 C   0  0  0  0  0  0  0  0  0  0  0  0
   11.0848    2.2718    0.0000 C   0  0  0  0  0  0  0  0  0  0  0  0
   12.5893   -8.9414    0.0000 C   0  0  0  0  0  0  0  0  0  0  0  0
   11.1252    7.5209    0.0000 C   0  0  0  0  0  0  0  0  0  0  0  0
    6.0084    8.4602    0.0000 C   0  0  0  0  0  0  0  0  0  0  0  0
   14.3847   -4.0087    0.0000 C   0  0  0  0  0  0  0  0  0  0  0  0
   12.5213    4.1907    0.0000 C   0  0  0  0  0  0  0  0  0  0  0  0
   12.5320    5.5800    0.0000 C   0  0  0  0  0  0  0  0  0  0  0  0
   14.5854   -7.6141    0.0000 C   0  0  0  0  0  0  0  0  0  0  0  0
    9.2514   -8.8797    0.0000 C   0  0  0  0  0  0  0  0  0  0  0  0
    6.8840   -0.5797    0.0000 C   0  0  0  0  0  0  0  0  0  0  0  0
   15.0606   -6.3084    0.0000 C   0  0  0  0  0  0  0  0  0  0  0  0
    8.4464    0.3143    0.0000 C   0  0  0  0  0  0  0  0  0  0  0  0
    7.6765  -10.2221    0.0000 C   0  0  0  0  0  0  0  0  0  0  0  0
    4.8703   -0.5797    0.0000 C   0  0  0  0  0  0  0  0  0  0  0  0
    9.2260   -0.6520    0.0000 C   0  0  0  0  0  0  0  0  0  0  0  0
   12.2817    2.1193    0.0000 C   0  0  0  0  0  0  0  0  0  0  0  0
    3.8357    1.2124    0.0000 C   0  0  0  0  0  0  0  0  0  0  0  0
    7.9256   -0.5877    0.0000 C   0  0  0  0  0  0  0  0  0  0  0  0
   13.6661   -9.4857    0.0000 C   0  0  0  0  0  0  0  0  0  0  0  0
   12.3243    7.6549    0.0000 C   0  0  0  0  0  0  0  0  0  0  0  0
   13.0048    3.0852    0.0000 C   0  0  0  0  0  0  0  0  0  0  0  0
   15.5595   -4.2838    0.0000 C   0  0  0  0  0  0  0  0  0  0  0  0
   14.6709   -8.8176    0.0000 C   0  0  0  0  0  0  0  0  0  0  0  0
    9.5570    0.2916    0.0000 C   0  0  0  0  0  0  0  0  0  0  0  0
   13.0325    6.6780    0.0000 C   0  0  0  0  0  0  0  0  0  0  0  0
    5.7790   -9.5480    0.0000 C   0  0  0  0  0  0  0  0  0  0  0  0
    5.4040   -7.5129    0.0000 C   0  0  0  0  0  0  0  0  0  0  0  0
   15.8997   -5.4414    0.0000 C   0  0  0  0  0  0  0  0  0  0  0  0
   10.8602   -1.2256    0.0000 C   0  0  0  0  0  0  0  0  0  0  0  0
    9.4480   -9.9026    0.0000 C   0  0  0  0  0  0  0  0  0  0  0  0
    8.6553  -10.5783    0.0000 C   0  0  0  0  0  0  0  0  0  0  0  0
    6.8724    8.9635    0.0000 C   0  0  0  0  0  0  0  0  0  0  0  0
    5.1404    8.9568    0.0000 C   0  0  0  0  0  0  0  0  0  0  0  0
    3.8287   -0.5877    0.0000 C   0  0  0  0  0  0  0  0  0  0  0  0
    3.3079    0.3143    0.0000 C   0  0  0  0  0  0  0  0  0  0  0  0
    4.7948   -9.2068    0.0000 C   0  0  0  0  0  0  0  0  0  0  0  0
    4.6060   -8.1824    0.0000 C   0  0  0  0  0  0  0  0  0  0  0  0
   10.5398    0.4766    0.0000 C   0  0  0  0  0  0  0  0  0  0  0  0
   11.1914   -0.2820    0.0000 C   0  0  0  0  0  0  0  0  0  0  0  0
    5.1366    9.9568    0.0000 C   0  0  0  0  0  0  0  0  0  0  0  0
    6.8686    9.9635    0.0000 C   0  0  0  0  0  0  0  0  0  0  0  0
    6.0006   10.4602    0.0000 C   0  0  0  0  0  0  0  0  0  0  0  0
    7.6342    3.7981    0.0000 H   0  0  0  0  0  0  0  0  0  0  0  0
    7.4026    3.5802    0.0000 H   0  0  0  0  0  0  0  0  0  0  0  0
    9.8489   -6.3480    0.0000 H   0  0  0  0  0  0  0  0  0  0  0  0
    9.5577   -6.4758    0.0000 H   0  0  0  0  0  0  0  0  0  0  0  0
    7.6515    6.0480    0.0000 H   0  0  0  0  0  0  0  0  0  0  0  0
    5.4627    4.7001    0.0000 H   0  0  0  0  0  0  0  0  0  0  0  0
   10.6184   -4.2337    0.0000 H   0  0  0  0  0  0  0  0  0  0  0  0
    8.1047   -4.7710    0.0000 H   0  0  0  0  0  0  0  0  0  0  0  0
    6.3453    6.2704    0.0000 H   0  0  0  0  0  0  0  0  0  0  0  0
    9.4620   -3.5868    0.0000 H   0  0  0  0  0  0  0  0  0  0  0  0
    4.9755    4.4932    0.0000 H   0  0  0  0  0  0  0  0  0  0  0  0
    4.5160    3.8943    0.0000 H   0  0  0  0  0  0  0  0  0  0  0  0
    7.5763   -4.8030    0.0000 H   0  0  0  0  0  0  0  0  0  0  0  0
    6.9428   -5.2135    0.0000 H   0  0  0  0  0  0  0  0  0  0  0  0
   10.7075    1.7798    0.0000 H   0  0  0  0  0  0  0  0  0  0  0  0
   12.0691   -9.2787    0.0000 H   0  0  0  0  0  0  0  0  0  0  0  0
   10.7556    8.0186    0.0000 H   0  0  0  0  0  0  0  0  0  0  0  0
   14.2030   -3.4159    0.0000 H   0  0  0  0  0  0  0  0  0  0  0  0
    9.7185   -8.4721    0.0000 H   0  0  0  0  0  0  0  0  0  0  0  0
    8.6167   -0.7667    0.0000 H   0  0  0  0  0  0  0  0  0  0  0  0
    3.5319    1.7529    0.0000 H   0  0  0  0  0  0  0  0  0  0  0  0
    5.2987   -6.9019    0.0000 H   0  0  0  0  0  0  0  0  0  0  0  0
   11.2642   -1.6959    0.0000 H   0  0  0  0  0  0  0  0  0  0  0  0
    7.4106    8.6556    0.0000 H   0  0  0  0  0  0  0  0  0  0  0  0
    4.6047    8.6448    0.0000 H   0  0  0  0  0  0  0  0  0  0  0  0
   13.9217    3.9828    0.0000 H   0  0  0  0  0  0  0  0  0  0  0  0
   13.9355    5.7663    0.0000 H   0  0  0  0  0  0  0  0  0  0  0  0
   15.8354   -8.2788    0.0000 H   0  0  0  0  0  0  0  0  0  0  0  0
   16.4454   -6.6027    0.0000 H   0  0  0  0  0  0  0  0  0  0  0  0
    6.6778   -1.9804    0.0000 H   0  0  0  0  0  0  0  0  0  0  0  0
    9.6185    1.3558    0.0000 H   0  0  0  0  0  0  0  0  0  0  0  0
    7.0132  -11.4729    0.0000 H   0  0  0  0  0  0  0  0  0  0  0  0
    5.0766   -1.9804    0.0000 H   0  0  0  0  0  0  0  0  0  0  0  0
   13.2871    1.1225    0.0000 H   0  0  0  0  0  0  0  0  0  0  0  0
    7.6190   -1.9699    0.0000 H   0  0  0  0  0  0  0  0  0  0  0  0
   13.2080  -10.8253    0.0000 H   0  0  0  0  0  0  0  0  0  0  0  0
   12.3628    9.0701    0.0000 H   0  0  0  0  0  0  0  0  0  0  0  0
   14.3678    3.4680    0.0000 H   0  0  0  0  0  0  0  0  0  0  0  0
   16.0695   -2.9631    0.0000 H   0  0  0  0  0  0  0  0  0  0  0  0
   15.6100   -9.8771    0.0000 H   0  0  0  0  0  0  0  0  0  0  0  0
   14.2825    7.3427    0.0000 H   0  0  0  0  0  0  0  0  0  0  0  0
    5.5044  -10.9368    0.0000 H   0  0  0  0  0  0  0  0  0  0  0  0
   17.0432   -6.2762    0.0000 H   0  0  0  0  0  0  0  0  0  0  0  0
   10.5064  -10.8430    0.0000 H   0  0  0  0  0  0  0  0  0  0  0  0
    9.4162  -11.7722    0.0000 H   0  0  0  0  0  0  0  0  0  0  0  0
    2.7121   -1.4581    0.0000 H   0  0  0  0  0  0  0  0  0  0  0  0
    2.0000    0.8563    0.0000 H   0  0  0  0  0  0  0  0  0  0  0  0
    3.4512   -9.6531    0.0000 H   0  0  0  0  0  0  0  0  0  0  0  0
    3.5550   -7.2339    0.0000 H   0  0  0  0  0  0  0  0  0  0  0  0
   10.4669    1.8905    0.0000 H   0  0  0  0  0  0  0  0  0  0  0  0
   12.5781   -0.5673    0.0000 H   0  0  0  0  0  0  0  0  0  0  0  0
    4.2662   11.0735    0.0000 H   0  0  0  0  0  0  0  0  0  0  0  0
    8.2708   10.1589    0.0000 H   0  0  0  0  0  0  0  0  0  0  0  0
    6.5325   11.7722    0.0000 H   0  0  0  0  0  0  0  0  0  0  0  0
  1 58  1  0  0  0  0
  1 61  1  0  0  0  0
  2 60  1  0  0  0  0
  2 62  1  0  0  0  0
  3 53  1  0  0  0  0
  3 66  1  0  0  0  0
  4 54  1  0  0  0  0
  4 65  1  0  0  0  0
  5 55  1  0  0  0  0
  5 67  1  0  0  0  0
  6 56  1  0  0  0  0
  6 69  1  0  0  0  0
  7 57  1  0  0  0  0
  7 68  1  0  0  0  0
  8 59  1  0  0  0  0
  8 70  1  0  0  0  0
  9 61  1  0  0  0  0
  9 77  1  0  0  0  0
 10 62  1  0  0  0  0
 10 76  1  0  0  0  0
 11 63  1  0  0  0  0
 11 83  1  0  0  0  0
 12 64  1  0  0  0  0
 12 85  1  0  0  0  0
 13 65  2  0  0  0  0
 14 66  2  0  0  0  0
 15 67  2  0  0  0  0
 16 68  2  0  0  0  0
 17 69  2  0  0  0  0
 18 70  2  0  0  0  0
 19 89  1  0  0  0  0
 19116  1  0  0  0  0
 20 76  2  0  0  0  0
 21 77  2  0  0  0  0
 22 83  2  0  0  0  0
 23 85  2  0  0  0  0
 24 98  1  0  0  0  0
 24160  1  0  0  0  0
 25 99  1  0  0  0  0
 25161  1  0  0  0  0
 26100  1  0  0  0  0
 26162  1  0  0  0  0
 27102  1  0  0  0  0
 27164  1  0  0  0  0
 28103  1  0  0  0  0
 28163  1  0  0  0  0
 29104  1  0  0  0  0
 29165  1  0  0  0  0
 30105  1  0  0  0  0
 30166  1  0  0  0  0
 31106  1  0  0  0  0
 31167  1  0  0  0  0
 32108  1  0  0  0  0
 32168  1  0  0  0  0
 33110  1  0  0  0  0
 33169  1  0  0  0  0
 34111  1  0  0  0  0
 34170  1  0  0  0  0
 35112  1  0  0  0  0
 35171  1  0  0  0  0
 36113  1  0  0  0  0
 36172  1  0  0  0  0
 37114  1  0  0  0  0
 37173  1  0  0  0  0
 38115  1  0  0  0  0
 38174  1  0  0  0  0
 39117  1  0  0  0  0
 39175  1  0  0  0  0
 40118  1  0  0  0  0
 40176  1  0  0  0  0
 41120  1  0  0  0  0
 41177  1  0  0  0  0
 42122  1  0  0  0  0
 42178  1  0  0  0  0
 43123  1  0  0  0  0
 43179  1  0  0  0  0
 44126  1  0  0  0  0
 44180  1  0  0  0  0
 45127  1  0  0  0  0
 45181  1  0  0  0  0
 46128  1  0  0  0  0
 46182  1  0  0  0  0
 47129  1  0  0  0  0
 47183  1  0  0  0  0
 48130  1  0  0  0  0
 48184  1  0  0  0  0
 49131  1  0  0  0  0
 49185  1  0  0  0  0
 50132  1  0  0  0  0
 50186  1  0  0  0  0
 51133  1  0  0  0  0
 51187  1  0  0  0  0
 52134  1  0  0  0  0
 52188  1  0  0  0  0
 53 54  1  0  0  0  0
 53 57  1  0  0  0  0
 53135  1  0  0  0  0
 54 58  1  0  0  0  0
 54136  1  0  0  0  0
 55 56  1  0  0  0  0
 55 59  1  0  0  0  0
 55137  1  0  0  0  0
 56 60  1  0  0  0  0
 56138  1  0  0  0  0
 57 61  1  0  0  0  0
 57139  1  0  0  0  0
 58 63  1  0  0  0  0
 58140  1  0  0  0  0
 59 62  1  0  0  0  0
 59141  1  0  0  0  0
 60 64  1  0  0  0  0
 60142  1  0  0  0  0
 61143  1  0  0  0  0
 62144  1  0  0  0  0
 63145  1  0  0  0  0
 63146  1  0  0  0  0
 64147  1  0  0  0  0
 64148  1  0  0  0  0
 65 71  1  0  0  0  0
 66 72  1  0  0  0  0
 67 73  1  0  0  0  0
 68 74  1  0  0  0  0
 69 78  1  0  0  0  0
 70 75  1  0  0  0  0
 71 84  2  0  0  0  0
 71 89  1  0  0  0  0
 72 79  1  0  0  0  0
 72 93  2  0  0  0  0
 73 81  1  0  0  0  0
 73 94  2  0  0  0  0
 74 80  1  0  0  0  0
 74 95  2  0  0  0  0
 75 82  1  0  0  0  0
 75 97  2  0  0  0  0
 76 92  1  0  0  0  0
 77 96  1  0  0  0  0
 78 86  1  0  0  0  0
 78101  2  0  0  0  0
 79 80  1  0  0  0  0
 79 98  2  0  0  0  0
 80 99  2  0  0  0  0
 81 82  1  0  0  0  0
 81100  2  0  0  0  0
 82103  2  0  0  0  0
 83 88  1  0  0  0  0
 84 87  1  0  0  0  0
 84102  1  0  0  0  0
 85 90  1  0  0  0  0
 86 91  1  0  0  0  0
 86105  2  0  0  0  0
 87 88  1  0  0  0  0
 87106  2  0  0  0  0
 88109  2  0  0  0  0
 89104  2  0  0  0  0
 90 91  1  0  0  0  0
 90119  2  0  0  0  0
 91118  2  0  0  0  0
 92107  1  0  0  0  0
 92121  2  0  0  0  0
 93108  1  0  0  0  0
 93149  1  0  0  0  0
 94111  1  0  0  0  0
 94150  1  0  0  0  0
 95112  1  0  0  0  0
 95151  1  0  0  0  0
 96124  2  0  0  0  0
 96125  1  0  0  0  0
 97114  1  0  0  0  0
 97152  1  0  0  0  0
 98113  1  0  0  0  0
 99117  1  0  0  0  0
100115  1  0  0  0  0
101122  1  0  0  0  0
101153  1  0  0  0  0
102110  2  0  0  0  0
103120  1  0  0  0  0
104110  1  0  0  0  0
105123  1  0  0  0  0
106126  1  0  0  0  0
107116  2  0  0  0  0
107154  1  0  0  0  0
108113  2  0  0  0  0
109127  1  0  0  0  0
109155  1  0  0  0  0
111115  2  0  0  0  0
112117  2  0  0  0  0
114120  2  0  0  0  0
116130  1  0  0  0  0
118128  1  0  0  0  0
119129  1  0  0  0  0
119156  1  0  0  0  0
121131  1  0  0  0  0
121157  1  0  0  0  0
122123  2  0  0  0  0
124133  1  0  0  0  0
124158  1  0  0  0  0
125132  2  0  0  0  0
125159  1  0  0  0  0
126127  2  0  0  0  0
128129  2  0  0  0  0
130131  2  0  0  0  0
132134  1  0  0  0  0
133134  2  0  0  0  0
M  END
>  <PUBCHEM_COMPOUND_CID>
16181831

>  <PUBCHEM_COMPOUND_CANONICALIZED>
0

>  <PUBCHEM_CACTVS_COMPLEXITY>
4310

>  <PUBCHEM_CACTVS_HBOND_ACCEPTOR>
52

>  <PUBCHEM_CACTVS_HBOND_DONOR>
29

>  <PUBCHEM_CACTVS_ROTATABLE_BOND>
8

>  <PUBCHEM_CACTVS_SUBSKEYS>
AAADcfB8PgAAAAAAAAAAAAAAAAAAAAAAAAA0aMGDAAAAAACRVAAAGgAACAAADBSwmAMwDoAABgCIAiDSCAACCAAkIAAAiAEGiMgdJzaGNRqieWOl4BUPuYfK7PzOoQABCAAYQABCAAIQADCAAAAAAAAAAA==

>  <PUBCHEM_IUPAC_INCHI>
InChI=1S/C82H54O52/c83-23-1-14(2-24(84)45(23)93)71(112)133-81-70-68(130-77(118)20-9-30(90)50(98)57(105)39(20)41-22(79(120)132-70)11-32(92)52(100)59(41)107)65-35(126-81)13-123-74(115)17-6-27(87)53(101)60(108)42(17)43-44(80(121)128-65)66(63(111)62(110)61(43)109)124-33-4-15(3-25(85)46(33)94)72(113)134-82-69-67(129-76(117)19-8-29(89)49(97)56(104)38(19)40-21(78(119)131-69)10-31(91)51(99)58(40)106)64-34(125-82)12-122-73(114)16-5-26(86)47(95)54(102)36(16)37-18(75(116)127-64)7-28(88)48(96)55(37)103/h1-11,34-35,64-65,67-70,81-111H,12-13H2

>  <PUBCHEM_IUPAC_INCHIKEY>
FFZOOOCGCNFHAQ-UHFFFAOYSA-N

>  <PUBCHEM_XLOGP3_AA>
4.2

>  <PUBCHEM_EXACT_MASS>
1870.158

>  <PUBCHEM_MOLECULAR_FORMULA>
C82H54O52

>  <PUBCHEM_MOLECULAR_WEIGHT>
1871.282

>  <PUBCHEM_OPENEYE_CAN_SMILES>
C1C2C(C3C(C(O2)OC(=O)C4=CC(=C(C(=C4)OC5=C(C(=C(C6=C5C(=O)OC7C(COC(=O)C8=CC(=C(C(=C86)O)O)O)OC(C9C7OC(=O)C2=CC(=C(C(=C2C2=C(C(=C(C=C2C(=O)O9)O)O)O)O)O)O)OC(=O)C2=CC(=C(C(=C2)O)O)O)O)O)O)O)O)OC(=O)C2=CC(=C(C(=C2C2=C(C(=C(C=C2C(=O)O3)O)O)O)O)O)O)OC(=O)C2=CC(=C(C(=C2C2=C(C(=C(C=C2C(=O)O1)O)O)O)O)O)O

>  <PUBCHEM_OPENEYE_ISO_SMILES>
C1C2C(C3C(C(O2)OC(=O)C4=CC(=C(C(=C4)OC5=C(C(=C(C6=C5C(=O)OC7C(COC(=O)C8=CC(=C(C(=C86)O)O)O)OC(C9C7OC(=O)C2=CC(=C(C(=C2C2=C(C(=C(C=C2C(=O)O9)O)O)O)O)O)O)OC(=O)C2=CC(=C(C(=C2)O)O)O)O)O)O)O)O)OC(=O)C2=CC(=C(C(=C2C2=C(C(=C(C=C2C(=O)O3)O)O)O)O)O)O)OC(=O)C2=CC(=C(C(=C2C2=C(C(=C(C=C2C(=O)O1)O)O)O)O)O)O

>  <PUBCHEM_CACTVS_TPSA>
877

>  <PUBCHEM_MONOISOTOPIC_WEIGHT>
1870.158

>  <PUBCHEM_TOTAL_CHARGE>
0

>  <PUBCHEM_HEAVY_ATOM_COUNT>
134

>  <PUBCHEM_ATOM_DEF_STEREO_COUNT>
0

>  <PUBCHEM_ATOM_UDEF_STEREO_COUNT>
10

>  <PUBCHEM_BOND_DEF_STEREO_COUNT>
0

>  <PUBCHEM_BOND_UDEF_STEREO_COUNT>
0

>  <PUBCHEM_ISOTOPIC_ATOM_COUNT>
0

>  <PUBCHEM_COMPONENT_COUNT>
1

>  <PUBCHEM_CACTVS_TAUTO_COUNT>
490

>  <PUBCHEM_COORDINATE_TYPE>
1
5
255

>  <PUBCHEM_BONDANNOTATIONS>
62  10  3
100  115  8
101  122  8
102  110  8
103  120  8
104  110  8
105  123  8
106  126  8
107  116  8
108  113  8
109  127  8
111  115  8
112  117  8
114  120  8
116  130  8
118  128  8
119  129  8
121  131  8
122  123  8
124  133  8
125  132  8
126  127  8
128  129  8
130  131  8
132  134  8
133  134  8
53  3  3
54  4  3
55  5  3
58  63  3
56  6  3
60  64  3
57  7  3
71  84  8
71  89  8
72  79  8
72  93  8
73  81  8
73  94  8
74  80  8
74  95  8
75  82  8
75  97  8
78  101  8
78  86  8
79  98  8
59  8  3
80  99  8
81  100  8
82  103  8
84  102  8
86  105  8
87  106  8
87  88  8
88  109  8
89  104  8
61  9  3
90  119  8
90  91  8
91  118  8
92  107  8
92  121  8
93  108  8
94  111  8
95  112  8
96  124  8
96  125  8
97  114  8
98  113  8
99  117  8

$$$$
