161899
 OpenBabel06101807152D

 36 40  0  0  1  0  0  0  0  0999 V2000
    7.3092    0.7936    0.0000 O   0  0  0  0  0  0  0  0  0  0  0  0
    7.3092    2.4031    0.0000 O   0  0  0  0  0  0  0  0  0  0  0  0
    2.8816    1.1197    0.0000 N   0  0  0  0  0  0  0  0  0  0  0  0
    4.6309    1.0984    0.0000 C   0  0  0  0  0  0  0  0  0  0  0  0
    4.6309    2.0984    0.0000 C   0  0  0  0  0  0  0  0  0  0  0  0
    3.7209    0.5915    0.0000 C   0  0  0  0  0  0  0  0  0  0  0  0
    3.7727    2.5953    0.0000 C   0  0  0  0  0  0  0  0  0  0  0  0
    5.4969    0.5984    0.0000 C   0  0  0  0  0  0  0  0  0  0  0  0
    2.9072    2.1111    0.0000 C   0  0  0  0  0  0  0  0  0  0  0  0
    5.5130   -0.4431    0.0000 C   0  0  0  0  0  0  0  0  0  0  0  0
    6.3629    1.0984    0.0000 C   0  0  0  0  0  0  0  0  0  0  0  0
    5.4969    2.5984    0.0000 C   0  0  0  0  0  0  0  0  0  0  0  0
    3.7129   -0.4501    0.0000 C   0  0  0  0  0  0  0  0  0  0  0  0
    4.6149   -0.9709    0.0000 C   0  0  0  0  0  0  0  0  0  0  0  0
    6.3629    2.0984    0.0000 C   0  0  0  0  0  0  0  0  0  0  0  0
    2.0000    0.6477    0.0000 C   0  0  0  0  0  0  0  0  0  0  0  0
    6.4649   -0.9638    0.0000 C   0  0  0  0  0  0  0  0  0  0  0  0
    4.6066   -2.0559    0.0000 C   0  0  0  0  0  0  0  0  0  0  0  0
    7.8928    1.5984    0.0000 C   0  0  0  0  0  0  0  0  0  0  0  0
    6.4816   -2.0486    0.0000 C   0  0  0  0  0  0  0  0  0  0  0  0
    5.5462   -2.5984    0.0000 C   0  0  0  0  0  0  0  0  0  0  0  0
    4.1737    3.0681    0.0000 H   0  0  0  0  0  0  0  0  0  0  0  0
    3.3786    3.0740    0.0000 H   0  0  0  0  0  0  0  0  0  0  0  0
    2.7054    2.6974    0.0000 H   0  0  0  0  0  0  0  0  0  0  0  0
    2.2944    2.0168    0.0000 H   0  0  0  0  0  0  0  0  0  0  0  0
    5.4969    3.2184    0.0000 H   0  0  0  0  0  0  0  0  0  0  0  0
    3.1747   -0.7580    0.0000 H   0  0  0  0  0  0  0  0  0  0  0  0
    1.7073    1.1943    0.0000 H   0  0  0  0  0  0  0  0  0  0  0  0
    1.4534    0.3550    0.0000 H   0  0  0  0  0  0  0  0  0  0  0  0
    2.2927    0.1011    0.0000 H   0  0  0  0  0  0  0  0  0  0  0  0
    6.9958   -0.6435    0.0000 H   0  0  0  0  0  0  0  0  0  0  0  0
    4.0684   -2.3638    0.0000 H   0  0  0  0  0  0  0  0  0  0  0  0
    8.3536    1.1836    0.0000 H   0  0  0  0  0  0  0  0  0  0  0  0
    8.3536    2.0131    0.0000 H   0  0  0  0  0  0  0  0  0  0  0  0
    7.0221   -2.3524    0.0000 H   0  0  0  0  0  0  0  0  0  0  0  0
    5.5486   -3.2184    0.0000 H   0  0  0  0  0  0  0  0  0  0  0  0
  1 11  1  0  0  0  0
  1 19  1  0  0  0  0
  2 15  1  0  0  0  0
  2 19  1  0  0  0  0
  3  6  1  0  0  0  0
  3  9  1  0  0  0  0
  3 16  1  0  0  0  0
  4  5  1  0  0  0  0
  4  6  1  0  0  0  0
  4  8  2  0  0  0  0
  5  7  1  0  0  0  0
  5 12  2  0  0  0  0
  6 13  2  0  0  0  0
  7  9  1  0  0  0  0
  7 22  1  0  0  0  0
  7 23  1  0  0  0  0
  8 10  1  0  0  0  0
  8 11  1  0  0  0  0
  9 24  1  0  0  0  0
  9 25  1  0  0  0  0
 10 14  1  0  0  0  0
 10 17  2  0  0  0  0
 11 15  2  0  0  0  0
 12 15  1  0  0  0  0
 12 26  1  0  0  0  0
 13 14  1  0  0  0  0
 13 27  1  0  0  0  0
 14 18  2  0  0  0  0
 16 28  1  0  0  0  0
 16 29  1  0  0  0  0
 16 30  1  0  0  0  0
 17 20  1  0  0  0  0
 17 31  1  0  0  0  0
 18 21  1  0  0  0  0
 18 32  1  0  0  0  0
 19 33  1  0  0  0  0
 19 34  1  0  0  0  0
 20 21  2  0  0  0  0
 20 35  1  0  0  0  0
 21 36  1  0  0  0  0
M  END
>  <PUBCHEM_COMPOUND_CID>
161899

>  <PUBCHEM_COMPOUND_CANONICALIZED>
1

>  <PUBCHEM_CACTVS_COMPLEXITY>
414

>  <PUBCHEM_CACTVS_HBOND_ACCEPTOR>
3

>  <PUBCHEM_CACTVS_HBOND_DONOR>
0

>  <PUBCHEM_CACTVS_ROTATABLE_BOND>
0

>  <PUBCHEM_CACTVS_SUBSKEYS>
AAADccB6MAAAAAAAAAAAAAAAAAAAASAAAAA8YMEAAAAAAEjxVAAAHgAAAAAADAzBmAcyzsMABACAAiRCQACCCAAhIgAIiAAO7IgdJiLEsZukMCpkwBHO6Aew0PMO6AADQAAaQADQAAaAADSAAAAAAAAAAA==

>  <PUBCHEM_IUPAC_INCHI>
InChI=1S/C18H15NO2/c1-19-7-6-12-9-15-18(21-10-20-15)17-13-5-3-2-4-11(13)8-14(19)16(12)17/h2-5,8-9H,6-7,10H2,1H3

>  <PUBCHEM_IUPAC_INCHIKEY>
YUWBTKIVDAWQHK-UHFFFAOYSA-N

>  <PUBCHEM_XLOGP3_AA>
4.4

>  <PUBCHEM_EXACT_MASS>
277.11

>  <PUBCHEM_MOLECULAR_FORMULA>
C18H15NO2

>  <PUBCHEM_MOLECULAR_WEIGHT>
277.323

>  <PUBCHEM_OPENEYE_CAN_SMILES>
CN1CCC2=CC3=C(C4=C2C1=CC5=CC=CC=C54)OCO3

>  <PUBCHEM_OPENEYE_ISO_SMILES>
CN1CCC2=CC3=C(C4=C2C1=CC5=CC=CC=C54)OCO3

>  <PUBCHEM_CACTVS_TPSA>
21.7

>  <PUBCHEM_MONOISOTOPIC_WEIGHT>
277.11

>  <PUBCHEM_TOTAL_CHARGE>
0

>  <PUBCHEM_HEAVY_ATOM_COUNT>
21

>  <PUBCHEM_ATOM_DEF_STEREO_COUNT>
0

>  <PUBCHEM_ATOM_UDEF_STEREO_COUNT>
0

>  <PUBCHEM_BOND_DEF_STEREO_COUNT>
0

>  <PUBCHEM_BOND_UDEF_STEREO_COUNT>
0

>  <PUBCHEM_ISOTOPIC_ATOM_COUNT>
0

>  <PUBCHEM_COMPONENT_COUNT>
1

>  <PUBCHEM_CACTVS_TAUTO_COUNT>
1

>  <PUBCHEM_COORDINATE_TYPE>
1
5
255

>  <PUBCHEM_BONDANNOTATIONS>
10  14  8
10  17  8
11  15  8
12  15  8
13  14  8
14  18  8
17  20  8
18  21  8
20  21  8
4  5  8
4  6  8
4  8  8
5  12  8
6  13  8
8  10  8
8  11  8

$$$$
