16212907
 OpenBabel06101807152D

 46 49  0  0  1  0  0  0  0  0999 V2000
    3.8000    0.3376    0.0000 O   0  0  0  0  0  0  0  0  0  0  0  0
    6.0069    2.3435    0.0000 N   0  0  3  0  0  0  0  0  0  0  0  0
    4.6660   -3.1624    0.0000 N   0  0  0  0  0  0  0  0  0  0  0  0
    6.5069    1.4774    0.0000 C   0  0  3  0  0  0  0  0  0  0  0  0
    4.4406    1.5638    0.0000 C   0  0  2  0  0  0  0  0  0  0  0  0
    5.5321    0.3376    0.0000 C   0  0  2  0  0  0  0  0  0  0  0  0
    6.4980    0.0788    0.0000 C   0  0  0  0  0  0  0  0  0  0  0  0
    4.5277    2.5600    0.0000 C   0  0  0  0  0  0  0  0  0  0  0  0
    7.7265    2.3310    0.0000 C   0  0  0  0  0  0  0  0  0  0  0  0
    7.2265    3.1970    0.0000 C   0  0  0  0  0  0  0  0  0  0  0  0
    3.4558    1.3902    0.0000 C   0  0  0  0  0  0  0  0  0  0  0  0
    4.6660   -0.1624    0.0000 C   0  0  2  0  0  0  0  0  0  0  0  0
    4.6660   -1.1624    0.0000 C   0  0  0  0  0  0  0  0  0  0  0  0
    2.8130    2.1563    0.0000 C   0  0  0  0  0  0  0  0  0  0  0  0
    3.8000   -1.6624    0.0000 C   0  0  0  0  0  0  0  0  0  0  0  0
    5.5321   -1.6624    0.0000 C   0  0  0  0  0  0  0  0  0  0  0  0
    3.8000   -2.6624    0.0000 C   0  0  0  0  0  0  0  0  0  0  0  0
    2.9061   -1.1277    0.0000 C   0  0  0  0  0  0  0  0  0  0  0  0
    5.5321   -2.6624    0.0000 C   0  0  0  0  0  0  0  0  0  0  0  0
    2.9061   -3.1970    0.0000 C   0  0  0  0  0  0  0  0  0  0  0  0
    2.0000   -1.6415    0.0000 C   0  0  0  0  0  0  0  0  0  0  0  0
    2.0000   -2.6832    0.0000 C   0  0  0  0  0  0  0  0  0  0  0  0
    6.3329    2.0725    0.0000 H   0  0  0  0  0  0  0  0  0  0  0  0
    4.4817    0.9452    0.0000 H   0  0  0  0  0  0  0  0  0  0  0  0
    6.2619    0.7734    0.0000 H   0  0  0  0  0  0  0  0  0  0  0  0
    6.3890   -0.5315    0.0000 H   0  0  0  0  0  0  0  0  0  0  0  0
    7.1154    0.0222    0.0000 H   0  0  0  0  0  0  0  0  0  0  0  0
    4.6056    3.1751    0.0000 H   0  0  0  0  0  0  0  0  0  0  0  0
    3.9113    2.6260    0.0000 H   0  0  0  0  0  0  0  0  0  0  0  0
    8.0671    1.8129    0.0000 H   0  0  0  0  0  0  0  0  0  0  0  0
    8.2542    2.6564    0.0000 H   0  0  0  0  0  0  0  0  0  0  0  0
    7.7542    3.5225    0.0000 H   0  0  0  0  0  0  0  0  0  0  0  0
    6.8858    3.7151    0.0000 H   0  0  0  0  0  0  0  0  0  0  0  0
    2.9188    1.0802    0.0000 H   0  0  0  0  0  0  0  0  0  0  0  0
    3.6678    0.8076    0.0000 H   0  0  0  0  0  0  0  0  0  0  0  0
    4.6660    0.4576    0.0000 H   0  0  0  0  0  0  0  0  0  0  0  0
    3.2880    2.5548    0.0000 H   0  0  0  0  0  0  0  0  0  0  0  0
    2.4145    2.6313    0.0000 H   0  0  0  0  0  0  0  0  0  0  0  0
    2.3380    1.7578    0.0000 H   0  0  0  0  0  0  0  0  0  0  0  0
    3.2631    0.0277    0.0000 H   0  0  0  0  0  0  0  0  0  0  0  0
    6.0690   -1.3524    0.0000 H   0  0  0  0  0  0  0  0  0  0  0  0
    2.9132   -0.5077    0.0000 H   0  0  0  0  0  0  0  0  0  0  0  0
    6.0690   -2.9724    0.0000 H   0  0  0  0  0  0  0  0  0  0  0  0
    2.9132   -3.8170    0.0000 H   0  0  0  0  0  0  0  0  0  0  0  0
    1.4643   -1.3295    0.0000 H   0  0  0  0  0  0  0  0  0  0  0  0
    1.4643   -2.9952    0.0000 H   0  0  0  0  0  0  0  0  0  0  0  0
  1 40  1  0  0  0  0
  2  8  1  0  0  0  0
  2 10  1  0  0  0  0
  3 17  1  0  0  0  0
  3 19  2  0  0  0  0
  4  7  1  0  0  0  0
  4  9  1  0  0  0  0
  4 23  1  0  0  0  0
  5  4  1  1  0  0  0
  5  8  1  0  0  0  0
  5 11  1  0  0  0  0
  5 24  1  0  0  0  0
  6  2  1  6  0  0  0
  6  7  1  0  0  0  0
  6 12  1  0  0  0  0
  6 25  1  0  0  0  0
  7 26  1  0  0  0  0
  7 27  1  0  0  0  0
  8 28  1  0  0  0  0
  8 29  1  0  0  0  0
  9 10  1  0  0  0  0
  9 30  1  0  0  0  0
  9 31  1  0  0  0  0
 10 32  1  0  0  0  0
 10 33  1  0  0  0  0
 11 14  1  0  0  0  0
 11 34  1  0  0  0  0
 11 35  1  0  0  0  0
 12  1  1  0  0  0  0
 12 13  1  0  0  0  0
 12 36  1  1  0  0  0
 13 15  1  0  0  0  0
 13 16  2  0  0  0  0
 14 37  1  0  0  0  0
 14 38  1  0  0  0  0
 14 39  1  0  0  0  0
 15 17  1  0  0  0  0
 15 18  2  0  0  0  0
 16 19  1  0  0  0  0
 16 41  1  0  0  0  0
 17 20  2  0  0  0  0
 18 21  1  0  0  0  0
 18 42  1  0  0  0  0
 19 43  1  0  0  0  0
 20 22  1  0  0  0  0
 20 44  1  0  0  0  0
 21 22  2  0  0  0  0
 21 45  1  0  0  0  0
 22 46  1  0  0  0  0
M  END
>  <PUBCHEM_COMPOUND_CID>
16212907

>  <PUBCHEM_COMPOUND_CANONICALIZED>
1

>  <PUBCHEM_CACTVS_COMPLEXITY>
388

>  <PUBCHEM_CACTVS_HBOND_ACCEPTOR>
3

>  <PUBCHEM_CACTVS_HBOND_DONOR>
1

>  <PUBCHEM_CACTVS_ROTATABLE_BOND>
3

>  <PUBCHEM_CACTVS_SUBSKEYS>
AAADceB7IAAAAAAAAAAAAAAAAAAAAAAAAAA8WLFiAAAAAACx8AAAHgAACAAADTzhngY+wPMIEgCgAzRnRACCgCAxAiAI2CA4bJgKNuLAkZGEcAhkwAHY2AewwPAOgAAAAAACAAAAAAAAAAQAAAAAAAAAAA==

>  <PUBCHEM_IUPAC_OPENEYE_NAME>
(S)-[(2R,5R)-5-ethylquinuclidin-2-yl]-(4-quinolyl)methanol

>  <PUBCHEM_IUPAC_CAS_NAME>
(S)-[(2R,5R)-5-ethyl-1-azabicyclo[2.2.2]octan-2-yl]-(4-quinolinyl)methanol

>  <PUBCHEM_IUPAC_NAME>
(S)-[(2R,5R)-5-ethyl-1-azabicyclo[2.2.2]octan-2-yl]-quinolin-4-ylmethanol

>  <PUBCHEM_IUPAC_SYSTEMATIC_NAME>
(S)-[(2R,5R)-5-ethyl-1-azabicyclo[2.2.2]octan-2-yl]-quinolin-4-yl-methanol

>  <PUBCHEM_IUPAC_TRADITIONAL_NAME>
(S)-[(2R,5R)-5-ethylquinuclidin-2-yl]-(4-quinolyl)methanol

>  <PUBCHEM_IUPAC_INCHI>
InChI=1S/C19H24N2O/c1-2-13-12-21-10-8-14(13)11-18(21)19(22)16-7-9-20-17-6-4-3-5-15(16)17/h3-7,9,13-14,18-19,22H,2,8,10-12H2,1H3/t13-,14?,18+,19-/m0/s1

>  <PUBCHEM_IUPAC_INCHIKEY>
WFJNHVWTKZUUTR-FGVBSWQGSA-N

>  <PUBCHEM_XLOGP3>
2.9

>  <PUBCHEM_EXACT_MASS>
296.189

>  <PUBCHEM_MOLECULAR_FORMULA>
C19H24N2O

>  <PUBCHEM_MOLECULAR_WEIGHT>
296.414

>  <PUBCHEM_OPENEYE_CAN_SMILES>
CCC1CN2CCC1CC2C(C3=CC=NC4=CC=CC=C34)O

>  <PUBCHEM_OPENEYE_ISO_SMILES>
CC[C@H]1CN2CCC1C[C@@H]2[C@H](C3=CC=NC4=CC=CC=C34)O

>  <PUBCHEM_CACTVS_TPSA>
36.4

>  <PUBCHEM_MONOISOTOPIC_WEIGHT>
296.189

>  <PUBCHEM_TOTAL_CHARGE>
0

>  <PUBCHEM_HEAVY_ATOM_COUNT>
22

>  <PUBCHEM_ATOM_DEF_STEREO_COUNT>
3

>  <PUBCHEM_ATOM_UDEF_STEREO_COUNT>
1

>  <PUBCHEM_BOND_DEF_STEREO_COUNT>
0

>  <PUBCHEM_BOND_UDEF_STEREO_COUNT>
0

>  <PUBCHEM_ISOTOPIC_ATOM_COUNT>
0

>  <PUBCHEM_COMPONENT_COUNT>
1

>  <PUBCHEM_CACTVS_TAUTO_COUNT>
1

>  <PUBCHEM_COORDINATE_TYPE>
1
5
255

>  <PUBCHEM_BONDANNOTATIONS>
12  1  6
13  15  8
13  16  8
15  17  8
15  18  8
16  19  8
17  20  8
18  21  8
20  22  8
21  22  8
3  17  8
3  19  8
4  9  3
5  11  5
6  25  5

$$$$
