164544
 OpenBabel06101807152D

 36 37  0  0  0  0  0  0  0  0999 V2000
    6.0682   -1.1754    0.0000 Cl  0  5  0  0  0  0  0  0  0  0  0  0
    6.0682   -0.1754    0.0000 O   0  3  0  0  0  0  0  0  0  0  0  0
    7.8003    1.8246    0.0000 O   0  0  0  0  0  0  0  0  0  0  0  0
    4.3198    2.8592    0.0000 O   0  0  0  0  0  0  0  0  0  0  0  0
    8.6663   -2.6754    0.0000 O   0  0  0  0  0  0  0  0  0  0  0  0
    2.5381   -0.1995    0.0000 O   0  0  0  0  0  0  0  0  0  0  0  0
   10.3984   -1.6754    0.0000 O   0  0  0  0  0  0  0  0  0  0  0  0
    5.2022    1.3246    0.0000 C   0  0  0  0  0  0  0  0  0  0  0  0
    6.9343    0.3246    0.0000 C   0  0  0  0  0  0  0  0  0  0  0  0
    5.2022    0.3246    0.0000 C   0  0  0  0  0  0  0  0  0  0  0  0
    7.8003   -0.1754    0.0000 C   0  0  0  0  0  0  0  0  0  0  0  0
    6.9343    1.3246    0.0000 C   0  0  0  0  0  0  0  0  0  0  0  0
    6.0682    1.8246    0.0000 C   0  0  0  0  0  0  0  0  0  0  0  0
    4.3083    1.8593    0.0000 C   0  0  0  0  0  0  0  0  0  0  0  0
    4.3083   -0.2101    0.0000 C   0  0  0  0  0  0  0  0  0  0  0  0
    7.8003   -1.1754    0.0000 C   0  0  0  0  0  0  0  0  0  0  0  0
    8.6663    0.3246    0.0000 C   0  0  0  0  0  0  0  0  0  0  0  0
    3.4022    0.3038    0.0000 C   0  0  0  0  0  0  0  0  0  0  0  0
    3.4022    1.3454    0.0000 C   0  0  0  0  0  0  0  0  0  0  0  0
    8.6663   -1.6754    0.0000 C   0  0  0  0  0  0  0  0  0  0  0  0
    9.5323   -0.1754    0.0000 C   0  0  0  0  0  0  0  0  0  0  0  0
    9.5323   -1.1754    0.0000 C   0  0  0  0  0  0  0  0  0  0  0  0
    9.5323   -3.1754    0.0000 C   0  0  0  0  0  0  0  0  0  0  0  0
    6.0682    2.4446    0.0000 H   0  0  0  0  0  0  0  0  0  0  0  0
    4.3154   -0.8300    0.0000 H   0  0  0  0  0  0  0  0  0  0  0  0
    7.2634   -1.4854    0.0000 H   0  0  0  0  0  0  0  0  0  0  0  0
    8.6663    0.9446    0.0000 H   0  0  0  0  0  0  0  0  0  0  0  0
    2.8665    1.6575    0.0000 H   0  0  0  0  0  0  0  0  0  0  0  0
   10.0693    0.1346    0.0000 H   0  0  0  0  0  0  0  0  0  0  0  0
    7.8003    2.4446    0.0000 H   0  0  0  0  0  0  0  0  0  0  0  0
    3.7865    3.1754    0.0000 H   0  0  0  0  0  0  0  0  0  0  0  0
    2.0000    0.1084    0.0000 H   0  0  0  0  0  0  0  0  0  0  0  0
   10.9353   -1.3654    0.0000 H   0  0  0  0  0  0  0  0  0  0  0  0
    9.2224   -3.7123    0.0000 H   0  0  0  0  0  0  0  0  0  0  0  0
   10.0693   -3.4854    0.0000 H   0  0  0  0  0  0  0  0  0  0  0  0
    9.8424   -2.6385    0.0000 H   0  0  0  0  0  0  0  0  0  0  0  0
  2  9  2  0  0  0  0
  2 10  1  0  0  0  0
  3 12  1  0  0  0  0
  3 30  1  0  0  0  0
  4 14  1  0  0  0  0
  4 31  1  0  0  0  0
  5 20  1  0  0  0  0
  5 23  1  0  0  0  0
  6 18  1  0  0  0  0
  6 32  1  0  0  0  0
  7 22  1  0  0  0  0
  7 33  1  0  0  0  0
  8 10  1  0  0  0  0
  8 13  1  0  0  0  0
  8 14  2  0  0  0  0
  9 11  1  0  0  0  0
  9 12  1  0  0  0  0
 10 15  2  0  0  0  0
 11 16  2  0  0  0  0
 11 17  1  0  0  0  0
 12 13  2  0  0  0  0
 13 24  1  0  0  0  0
 14 19  1  0  0  0  0
 15 18  1  0  0  0  0
 15 25  1  0  0  0  0
 16 20  1  0  0  0  0
 16 26  1  0  0  0  0
 17 21  2  0  0  0  0
 17 27  1  0  0  0  0
 18 19  2  0  0  0  0
 19 28  1  0  0  0  0
 20 22  2  0  0  0  0
 21 22  1  0  0  0  0
 21 29  1  0  0  0  0
 23 34  1  0  0  0  0
 23 35  1  0  0  0  0
 23 36  1  0  0  0  0
M  CHG  2   1  -1   2   1
M  END
>  <PUBCHEM_COMPOUND_CID>
164544

>  <PUBCHEM_COMPOUND_CANONICALIZED>
1

>  <PUBCHEM_CACTVS_COMPLEXITY>
378

>  <PUBCHEM_CACTVS_HBOND_ACCEPTOR>
6

>  <PUBCHEM_CACTVS_HBOND_DONOR>
4

>  <PUBCHEM_CACTVS_ROTATABLE_BOND>
2

>  <PUBCHEM_CACTVS_SUBSKEYS>
AAADccB4OAAEAAAAAAAAAAAAAAAAAAAAAAA0YIAAAAAAAACR9AAAGgAACAAADASAmAIyBsAABkCIAqBSAAICCAAkIAAIiAFGiMgNJzaGNRqCeWOl4BULuYfK7PzOIAABCAAIQABAAAIQABCAAAAAAAAAAA==

>  <PUBCHEM_IUPAC_OPENEYE_NAME>
2-(4-hydroxy-3-methoxy-phenyl)chromenylium-3,5,7-triol;chloride

>  <PUBCHEM_IUPAC_CAS_NAME>
2-(4-hydroxy-3-methoxyphenyl)-1-benzopyrylium-3,5,7-triol;chloride

>  <PUBCHEM_IUPAC_NAME>
2-(4-hydroxy-3-methoxyphenyl)chromenylium-3,5,7-triol;chloride

>  <PUBCHEM_IUPAC_SYSTEMATIC_NAME>
2-(3-methoxy-4-oxidanyl-phenyl)chromenylium-3,5,7-triol;chloride

>  <PUBCHEM_IUPAC_TRADITIONAL_NAME>
2-(4-hydroxy-3-methoxy-phenyl)-1-benzopyrylium-3,5,7-triol;chloride

>  <PUBCHEM_IUPAC_INCHI>
InChI=1S/C16H12O6.ClH/c1-21-15-4-8(2-3-11(15)18)16-13(20)7-10-12(19)5-9(17)6-14(10)22-16;/h2-7H,1H3,(H3-,17,18,19,20);1H

>  <PUBCHEM_IUPAC_INCHIKEY>
OGBSHLKSHNAPEW-UHFFFAOYSA-N

>  <PUBCHEM_EXACT_MASS>
336.04

>  <PUBCHEM_MOLECULAR_FORMULA>
C16H13ClO6

>  <PUBCHEM_MOLECULAR_WEIGHT>
336.724

>  <PUBCHEM_OPENEYE_CAN_SMILES>
COC1=C(C=CC(=C1)C2=C(C=C3C(=CC(=CC3=[O+]2)O)O)O)O.[Cl-]

>  <PUBCHEM_OPENEYE_ISO_SMILES>
COC1=C(C=CC(=C1)C2=C(C=C3C(=CC(=CC3=[O+]2)O)O)O)O.[Cl-]

>  <PUBCHEM_CACTVS_TPSA>
91.2

>  <PUBCHEM_MONOISOTOPIC_WEIGHT>
336.04

>  <PUBCHEM_TOTAL_CHARGE>
0

>  <PUBCHEM_HEAVY_ATOM_COUNT>
23

>  <PUBCHEM_ATOM_DEF_STEREO_COUNT>
0

>  <PUBCHEM_ATOM_UDEF_STEREO_COUNT>
0

>  <PUBCHEM_BOND_DEF_STEREO_COUNT>
0

>  <PUBCHEM_BOND_UDEF_STEREO_COUNT>
0

>  <PUBCHEM_ISOTOPIC_ATOM_COUNT>
0

>  <PUBCHEM_COMPONENT_COUNT>
2

>  <PUBCHEM_CACTVS_TAUTO_COUNT>
212

>  <PUBCHEM_COORDINATE_TYPE>
1
5
255

>  <PUBCHEM_BONDANNOTATIONS>
10  15  8
11  16  8
11  17  8
12  13  8
14  19  8
15  18  8
16  20  8
17  21  8
18  19  8
2  10  8
2  9  8
20  22  8
21  22  8
8  10  8
8  13  8
8  14  8
9  12  8

$$$$
