164963
 OpenBabel06101807152D

 17 14  0  0  0  0  0  0  0  0999 V2000
    4.5981   -0.2500    0.0000 Mg  0  2  0  0  0 15  0  0  0  0  0  0
    5.4641    0.2500    0.0000 O   0  5  0  0  0  0  0  0  0  0  0  0
    3.7320    0.2500    0.0000 O   0  5  0  0  0  0  0  0  0  0  0  0
    6.3301   -0.2500    0.0000 C   0  0  0  0  0  0  0  0  0  0  0  0
    2.8660   -0.2500    0.0000 C   0  0  0  0  0  0  0  0  0  0  0  0
    7.1962    0.2500    0.0000 C   0  0  0  0  0  0  0  0  0  0  0  0
    2.0000    0.2500    0.0000 C   0  0  0  0  0  0  0  0  0  0  0  0
    2.4675   -0.7249    0.0000 H   0  0  0  0  0  0  0  0  0  0  0  0
    3.2646   -0.7249    0.0000 H   0  0  0  0  0  0  0  0  0  0  0  0
    5.9316   -0.7249    0.0000 H   0  0  0  0  0  0  0  0  0  0  0  0
    6.7287   -0.7249    0.0000 H   0  0  0  0  0  0  0  0  0  0  0  0
    7.5062   -0.2869    0.0000 H   0  0  0  0  0  0  0  0  0  0  0  0
    7.7331    0.5600    0.0000 H   0  0  0  0  0  0  0  0  0  0  0  0
    6.8862    0.7869    0.0000 H   0  0  0  0  0  0  0  0  0  0  0  0
    2.3100    0.7869    0.0000 H   0  0  0  0  0  0  0  0  0  0  0  0
    1.4631    0.5600    0.0000 H   0  0  0  0  0  0  0  0  0  0  0  0
    1.6900   -0.2869    0.0000 H   0  0  0  0  0  0  0  0  0  0  0  0
  2  4  1  0  0  0  0
  3  5  1  0  0  0  0
  4  6  1  0  0  0  0
  4 10  1  0  0  0  0
  4 11  1  0  0  0  0
  5  7  1  0  0  0  0
  5  8  1  0  0  0  0
  5  9  1  0  0  0  0
  6 12  1  0  0  0  0
  6 13  1  0  0  0  0
  6 14  1  0  0  0  0
  7 15  1  0  0  0  0
  7 16  1  0  0  0  0
  7 17  1  0  0  0  0
M  CHG  3   1   2   2  -1   3  -1
M  END
>  <PUBCHEM_COMPOUND_CID>
164963

>  <PUBCHEM_COMPOUND_CANONICALIZED>
1

>  <PUBCHEM_CACTVS_COMPLEXITY>
2.8

>  <PUBCHEM_CACTVS_HBOND_ACCEPTOR>
2

>  <PUBCHEM_CACTVS_HBOND_DONOR>
0

>  <PUBCHEM_CACTVS_ROTATABLE_BOND>
0

>  <PUBCHEM_CACTVS_SUBSKEYS>
AAADccBgMAAAACAAAAAAAAAAAAAAAAAAAAAAAAAAAAAAAAAAAAAAGgAAAAAAAACggAICAAAAAAAAAAAAAAAAAAAAAAAAAAAAAAAAAAAAAAAAAAAAAAAAAAAAAAAAAAAAAAAAAAAAAAAAAAAAAAAAAAAAAA==

>  <PUBCHEM_IUPAC_OPENEYE_NAME>
magnesium;ethanolate

>  <PUBCHEM_IUPAC_CAS_NAME>
magnesium;ethanolate

>  <PUBCHEM_IUPAC_NAME>
magnesium;ethanolate

>  <PUBCHEM_IUPAC_SYSTEMATIC_NAME>
magnesium;ethanolate

>  <PUBCHEM_IUPAC_TRADITIONAL_NAME>
magnesium;ethanolate

>  <PUBCHEM_IUPAC_INCHI>
InChI=1S/2C2H5O.Mg/c2*1-2-3;/h2*2H2,1H3;/q2*-1;+2

>  <PUBCHEM_IUPAC_INCHIKEY>
XDKQUSKHRIUJEO-UHFFFAOYSA-N

>  <PUBCHEM_EXACT_MASS>
114.053

>  <PUBCHEM_MOLECULAR_FORMULA>
C4H10MgO2

>  <PUBCHEM_MOLECULAR_WEIGHT>
114.427

>  <PUBCHEM_OPENEYE_CAN_SMILES>
CC[O-].CC[O-].[Mg+2]

>  <PUBCHEM_OPENEYE_ISO_SMILES>
CC[O-].CC[O-].[Mg+2]

>  <PUBCHEM_CACTVS_TPSA>
46.1

>  <PUBCHEM_MONOISOTOPIC_WEIGHT>
114.053

>  <PUBCHEM_TOTAL_CHARGE>
0

>  <PUBCHEM_HEAVY_ATOM_COUNT>
7

>  <PUBCHEM_ATOM_DEF_STEREO_COUNT>
0

>  <PUBCHEM_ATOM_UDEF_STEREO_COUNT>
0

>  <PUBCHEM_BOND_DEF_STEREO_COUNT>
0

>  <PUBCHEM_BOND_UDEF_STEREO_COUNT>
0

>  <PUBCHEM_ISOTOPIC_ATOM_COUNT>
0

>  <PUBCHEM_COMPONENT_COUNT>
3

>  <PUBCHEM_CACTVS_TAUTO_COUNT>
1

>  <PUBCHEM_COORDINATE_TYPE>
1
5
255

$$$$
