165203
 OpenBabel06101807152D

 43 45  0  0  0  0  0  0  0  0999 V2000
    6.3981   -2.4827    0.0000 O   0  0  0  0  0  0  0  0  0  0  0  0
    8.9962   -1.9827    0.0000 O   0  0  0  0  0  0  0  0  0  0  0  0
    8.9962    2.0173    0.0000 O   0  0  0  0  0  0  0  0  0  0  0  0
   10.7282    1.0173    0.0000 O   0  0  0  0  0  0  0  0  0  0  0  0
    6.3981    0.5173    0.0000 O   0  0  0  0  0  0  0  0  0  0  0  0
    2.8680   -2.5068    0.0000 O   0  0  0  0  0  0  0  0  0  0  0  0
    8.1301   -0.4827    0.0000 C   0  0  0  0  0  0  0  0  0  0  0  0
    7.2641   -0.9827    0.0000 C   0  0  0  0  0  0  0  0  0  0  0  0
    5.5320   -0.9827    0.0000 C   0  0  0  0  0  0  0  0  0  0  0  0
    6.3981   -0.4827    0.0000 C   0  0  0  0  0  0  0  0  0  0  0  0
    5.5320   -1.9827    0.0000 C   0  0  0  0  0  0  0  0  0  0  0  0
    8.9962   -0.9827    0.0000 C   0  0  0  0  0  0  0  0  0  0  0  0
    8.1301    0.5173    0.0000 C   0  0  0  0  0  0  0  0  0  0  0  0
    7.2641   -1.9827    0.0000 C   0  0  0  0  0  0  0  0  0  0  0  0
    8.9962    1.0173    0.0000 C   0  0  0  0  0  0  0  0  0  0  0  0
    9.8622   -0.4827    0.0000 C   0  0  0  0  0  0  0  0  0  0  0  0
    9.8622    0.5173    0.0000 C   0  0  0  0  0  0  0  0  0  0  0  0
    4.6381   -0.4480    0.0000 C   0  0  0  0  0  0  0  0  0  0  0  0
    4.6381   -2.5173    0.0000 C   0  0  0  0  0  0  0  0  0  0  0  0
    3.7320   -2.0035    0.0000 C   0  0  0  0  0  0  0  0  0  0  0  0
    3.7320   -0.9619    0.0000 C   0  0  0  0  0  0  0  0  0  0  0  0
    9.8622   -2.4827    0.0000 C   0  0  0  0  0  0  0  0  0  0  0  0
    9.8622    2.5173    0.0000 C   0  0  0  0  0  0  0  0  0  0  0  0
   11.5942    0.5173    0.0000 C   0  0  0  0  0  0  0  0  0  0  0  0
    2.0000   -2.0102    0.0000 C   0  0  0  0  0  0  0  0  0  0  0  0
    7.5932    0.8273    0.0000 H   0  0  0  0  0  0  0  0  0  0  0  0
    7.8010   -2.2927    0.0000 H   0  0  0  0  0  0  0  0  0  0  0  0
   10.3991   -0.7927    0.0000 H   0  0  0  0  0  0  0  0  0  0  0  0
    4.6453    0.1720    0.0000 H   0  0  0  0  0  0  0  0  0  0  0  0
    4.6453   -3.1373    0.0000 H   0  0  0  0  0  0  0  0  0  0  0  0
    3.1963   -0.6498    0.0000 H   0  0  0  0  0  0  0  0  0  0  0  0
    9.5522   -3.0196    0.0000 H   0  0  0  0  0  0  0  0  0  0  0  0
   10.3991   -2.7927    0.0000 H   0  0  0  0  0  0  0  0  0  0  0  0
   10.1722   -1.9457    0.0000 H   0  0  0  0  0  0  0  0  0  0  0  0
   10.1722    1.9804    0.0000 H   0  0  0  0  0  0  0  0  0  0  0  0
   10.3991    2.8273    0.0000 H   0  0  0  0  0  0  0  0  0  0  0  0
    9.5522    3.0543    0.0000 H   0  0  0  0  0  0  0  0  0  0  0  0
   11.2842   -0.0196    0.0000 H   0  0  0  0  0  0  0  0  0  0  0  0
   12.1312    0.2073    0.0000 H   0  0  0  0  0  0  0  0  0  0  0  0
   11.9042    1.0543    0.0000 H   0  0  0  0  0  0  0  0  0  0  0  0
    2.3079   -1.4720    0.0000 H   0  0  0  0  0  0  0  0  0  0  0  0
    1.4619   -1.7022    0.0000 H   0  0  0  0  0  0  0  0  0  0  0  0
    1.6921   -2.5483    0.0000 H   0  0  0  0  0  0  0  0  0  0  0  0
  1 11  1  0  0  0  0
  1 14  1  0  0  0  0
  2 12  1  0  0  0  0
  2 22  1  0  0  0  0
  3 15  1  0  0  0  0
  3 23  1  0  0  0  0
  4 17  1  0  0  0  0
  4 24  1  0  0  0  0
  5 10  2  0  0  0  0
  6 20  1  0  0  0  0
  6 25  1  0  0  0  0
  7  8  1  0  0  0  0
  7 12  1  0  0  0  0
  7 13  2  0  0  0  0
  8 10  1  0  0  0  0
  8 14  2  0  0  0  0
  9 10  1  0  0  0  0
  9 11  2  0  0  0  0
  9 18  1  0  0  0  0
 11 19  1  0  0  0  0
 12 16  2  0  0  0  0
 13 15  1  0  0  0  0
 13 26  1  0  0  0  0
 14 27  1  0  0  0  0
 15 17  2  0  0  0  0
 16 17  1  0  0  0  0
 16 28  1  0  0  0  0
 18 21  2  0  0  0  0
 18 29  1  0  0  0  0
 19 20  2  0  0  0  0
 19 30  1  0  0  0  0
 20 21  1  0  0  0  0
 21 31  1  0  0  0  0
 22 32  1  0  0  0  0
 22 33  1  0  0  0  0
 22 34  1  0  0  0  0
 23 35  1  0  0  0  0
 23 36  1  0  0  0  0
 23 37  1  0  0  0  0
 24 38  1  0  0  0  0
 24 39  1  0  0  0  0
 24 40  1  0  0  0  0
 25 41  1  0  0  0  0
 25 42  1  0  0  0  0
 25 43  1  0  0  0  0
M  END
>  <PUBCHEM_COMPOUND_CID>
165203

>  <PUBCHEM_COMPOUND_CANONICALIZED>
1

>  <PUBCHEM_CACTVS_COMPLEXITY>
504

>  <PUBCHEM_CACTVS_HBOND_ACCEPTOR>
6

>  <PUBCHEM_CACTVS_HBOND_DONOR>
0

>  <PUBCHEM_CACTVS_ROTATABLE_BOND>
5

>  <PUBCHEM_CACTVS_SUBSKEYS>
AAADceB4OAAAAAAAAAAAAAAAAAAAAAAAAAAwYIAAAAAAAACBQAAAGgAAAAAADASgmAIyBoAABACIAqBSAAACCAAkIAAIiAEGiMgNJzaENRqAMWIl4BUKqYfK7PzOIQABCAAIQABCAAIQABCAAAAAAAAAAA==

>  <PUBCHEM_IUPAC_OPENEYE_NAME>
7-methoxy-3-(2,4,5-trimethoxyphenyl)chromen-4-one

>  <PUBCHEM_IUPAC_CAS_NAME>
7-methoxy-3-(2,4,5-trimethoxyphenyl)-1-benzopyran-4-one

>  <PUBCHEM_IUPAC_NAME>
7-methoxy-3-(2,4,5-trimethoxyphenyl)chromen-4-one

>  <PUBCHEM_IUPAC_SYSTEMATIC_NAME>
7-methoxy-3-(2,4,5-trimethoxyphenyl)chromen-4-one

>  <PUBCHEM_IUPAC_TRADITIONAL_NAME>
3-asaryl-7-methoxy-chromone

>  <PUBCHEM_IUPAC_INCHI>
InChI=1S/C19H18O6/c1-21-11-5-6-12-16(7-11)25-10-14(19(12)20)13-8-17(23-3)18(24-4)9-15(13)22-2/h5-10H,1-4H3

>  <PUBCHEM_IUPAC_INCHIKEY>
LMCHYXAZXISBOS-UHFFFAOYSA-N

>  <PUBCHEM_XLOGP3_AA>
3.1

>  <PUBCHEM_EXACT_MASS>
342.11

>  <PUBCHEM_MOLECULAR_FORMULA>
C19H18O6

>  <PUBCHEM_MOLECULAR_WEIGHT>
342.347

>  <PUBCHEM_OPENEYE_CAN_SMILES>
COC1=CC2=C(C=C1)C(=O)C(=CO2)C3=CC(=C(C=C3OC)OC)OC

>  <PUBCHEM_OPENEYE_ISO_SMILES>
COC1=CC2=C(C=C1)C(=O)C(=CO2)C3=CC(=C(C=C3OC)OC)OC

>  <PUBCHEM_CACTVS_TPSA>
63.2

>  <PUBCHEM_MONOISOTOPIC_WEIGHT>
342.11

>  <PUBCHEM_TOTAL_CHARGE>
0

>  <PUBCHEM_HEAVY_ATOM_COUNT>
25

>  <PUBCHEM_ATOM_DEF_STEREO_COUNT>
0

>  <PUBCHEM_ATOM_UDEF_STEREO_COUNT>
0

>  <PUBCHEM_BOND_DEF_STEREO_COUNT>
0

>  <PUBCHEM_BOND_UDEF_STEREO_COUNT>
0

>  <PUBCHEM_ISOTOPIC_ATOM_COUNT>
0

>  <PUBCHEM_COMPONENT_COUNT>
1

>  <PUBCHEM_CACTVS_TAUTO_COUNT>
1

>  <PUBCHEM_COORDINATE_TYPE>
1
5
255

>  <PUBCHEM_BONDANNOTATIONS>
1  11  8
1  14  8
11  19  8
12  16  8
13  15  8
15  17  8
16  17  8
18  21  8
19  20  8
20  21  8
7  12  8
7  13  8
8  10  8
8  14  8
9  10  8
9  11  8
9  18  8

$$$$
