165523
 OpenBabel06101807152D

 51 53  0  0  1  0  0  0  0  0999 V2000
   10.4663    0.6225    0.0000 O   0  0  0  0  0  0  0  0  0  0  0  0
    9.5984    2.1742    0.0000 O   0  0  0  0  0  0  0  0  0  0  0  0
    7.8167    3.1846    0.0000 O   0  0  0  0  0  0  0  0  0  0  0  0
    8.7266   -1.3708    0.0000 O   0  0  0  0  0  0  0  0  0  0  0  0
    6.0682    3.1500    0.0000 O   0  0  0  0  0  0  0  0  0  0  0  0
   11.3266   -0.8808    0.0000 O   0  0  0  0  0  0  0  0  0  0  0  0
   11.3189   -2.8808    0.0000 O   0  0  0  0  0  0  0  0  0  0  0  0
    4.3198    3.1846    0.0000 O   0  0  0  0  0  0  0  0  0  0  0  0
    2.5381    0.1259    0.0000 O   0  0  0  0  0  0  0  0  0  0  0  0
    8.7343    0.6292    0.0000 C   0  0  3  0  0  0  0  0  0  0  0  0
    7.8282    0.1153    0.0000 C   0  0  0  0  0  0  0  0  0  0  0  0
    8.7343    1.6708    0.0000 C   0  0  3  0  0  0  0  0  0  0  0  0
    9.5984    0.1259    0.0000 C   0  0  3  0  0  0  0  0  0  0  0  0
    6.9343    0.6500    0.0000 C   0  0  0  0  0  0  0  0  0  0  0  0
    6.9343    1.6500    0.0000 C   0  0  0  0  0  0  0  0  0  0  0  0
    7.8282    2.1847    0.0000 C   0  0  0  0  0  0  0  0  0  0  0  0
    9.5945   -0.8741    0.0000 C   0  0  0  0  0  0  0  0  0  0  0  0
    6.0682    0.1500    0.0000 C   0  0  0  0  0  0  0  0  0  0  0  0
    6.0682    2.1500    0.0000 C   0  0  0  0  0  0  0  0  0  0  0  0
   10.4586   -1.3775    0.0000 C   0  0  3  0  0  0  0  0  0  0  0  0
    5.2022    0.6500    0.0000 C   0  0  0  0  0  0  0  0  0  0  0  0
    5.2022    1.6500    0.0000 C   0  0  0  0  0  0  0  0  0  0  0  0
   10.4548   -2.3775    0.0000 C   0  0  3  0  0  0  0  0  0  0  0  0
    4.3083    2.1847    0.0000 C   0  0  0  0  0  0  0  0  0  0  0  0
    4.3083    0.1153    0.0000 C   0  0  0  0  0  0  0  0  0  0  0  0
   11.3304    0.1192    0.0000 C   0  0  0  0  0  0  0  0  0  0  0  0
    9.5868   -2.8741    0.0000 C   0  0  0  0  0  0  0  0  0  0  0  0
    3.4022    0.6292    0.0000 C   0  0  0  0  0  0  0  0  0  0  0  0
    3.4022    1.6708    0.0000 C   0  0  0  0  0  0  0  0  0  0  0  0
    8.7307    0.0092    0.0000 H   0  0  0  0  0  0  0  0  0  0  0  0
    7.4236   -0.3544    0.0000 H   0  0  0  0  0  0  0  0  0  0  0  0
    8.2218   -0.3637    0.0000 H   0  0  0  0  0  0  0  0  0  0  0  0
    9.2718    1.3619    0.0000 H   0  0  0  0  0  0  0  0  0  0  0  0
    9.6008    0.7459    0.0000 H   0  0  0  0  0  0  0  0  0  0  0  0
    6.0682   -0.4700    0.0000 H   0  0  0  0  0  0  0  0  0  0  0  0
   10.4610   -0.7575    0.0000 H   0  0  0  0  0  0  0  0  0  0  0  0
    9.5960    2.7942    0.0000 H   0  0  0  0  0  0  0  0  0  0  0  0
   10.9929   -2.0695    0.0000 H   0  0  0  0  0  0  0  0  0  0  0  0
    4.3154   -0.5046    0.0000 H   0  0  0  0  0  0  0  0  0  0  0  0
   11.0183   -0.4166    0.0000 H   0  0  0  0  0  0  0  0  0  0  0  0
   11.8662   -0.1929    0.0000 H   0  0  0  0  0  0  0  0  0  0  0  0
   11.6425    0.6549    0.0000 H   0  0  0  0  0  0  0  0  0  0  0  0
    9.2789   -2.3360    0.0000 H   0  0  0  0  0  0  0  0  0  0  0  0
    9.0487   -3.1820    0.0000 H   0  0  0  0  0  0  0  0  0  0  0  0
    9.8947   -3.4122    0.0000 H   0  0  0  0  0  0  0  0  0  0  0  0
    5.5313    3.4600    0.0000 H   0  0  0  0  0  0  0  0  0  0  0  0
    2.8665    1.9829    0.0000 H   0  0  0  0  0  0  0  0  0  0  0  0
   11.8623   -1.1929    0.0000 H   0  0  0  0  0  0  0  0  0  0  0  0
   11.3165   -3.5008    0.0000 H   0  0  0  0  0  0  0  0  0  0  0  0
    3.7865    3.5008    0.0000 H   0  0  0  0  0  0  0  0  0  0  0  0
    2.0000    0.4338    0.0000 H   0  0  0  0  0  0  0  0  0  0  0  0
  1 13  1  0  0  0  0
  1 26  1  0  0  0  0
  2 12  1  0  0  0  0
  2 37  1  0  0  0  0
  3 16  2  0  0  0  0
  4 17  2  0  0  0  0
  5 19  1  0  0  0  0
  5 46  1  0  0  0  0
  6 20  1  0  0  0  0
  6 48  1  0  0  0  0
  7 23  1  0  0  0  0
  7 49  1  0  0  0  0
  8 24  1  0  0  0  0
  8 50  1  0  0  0  0
  9 28  1  0  0  0  0
  9 51  1  0  0  0  0
 10 11  1  0  0  0  0
 10 12  1  0  0  0  0
 10 13  1  0  0  0  0
 10 30  1  0  0  0  0
 11 14  1  0  0  0  0
 11 31  1  0  0  0  0
 11 32  1  0  0  0  0
 12 16  1  0  0  0  0
 12 33  1  0  0  0  0
 13 17  1  0  0  0  0
 13 34  1  0  0  0  0
 14 15  1  0  0  0  0
 14 18  2  0  0  0  0
 15 16  1  0  0  0  0
 15 19  2  0  0  0  0
 17 20  1  0  0  0  0
 18 21  1  0  0  0  0
 18 35  1  0  0  0  0
 19 22  1  0  0  0  0
 20 23  1  0  0  0  0
 20 36  1  0  0  0  0
 21 22  1  0  0  0  0
 21 25  2  0  0  0  0
 22 24  2  0  0  0  0
 23 27  1  0  0  0  0
 23 38  1  0  0  0  0
 24 29  1  0  0  0  0
 25 28  1  0  0  0  0
 25 39  1  0  0  0  0
 26 40  1  0  0  0  0
 26 41  1  0  0  0  0
 26 42  1  0  0  0  0
 27 43  1  0  0  0  0
 27 44  1  0  0  0  0
 27 45  1  0  0  0  0
 28 29  2  0  0  0  0
 29 47  1  0  0  0  0
M  END
>  <PUBCHEM_COMPOUND_CID>
165523

>  <PUBCHEM_COMPOUND_CANONICALIZED>
1

>  <PUBCHEM_CACTVS_COMPLEXITY>
625

>  <PUBCHEM_CACTVS_HBOND_ACCEPTOR>
9

>  <PUBCHEM_CACTVS_HBOND_DONOR>
6

>  <PUBCHEM_CACTVS_ROTATABLE_BOND>
5

>  <PUBCHEM_CACTVS_SUBSKEYS>
AAADceB4PAAAAAAAAAAAAAAAAAAAAAAAAAAwYMAAAAAAAADBUAAAGgAACAAADRSgmAIyBsAABgCIAqBSAAICAAAkIAAAiAFGCMgJNzaCFRaAcUAl4BUJmQfK7vTu4AADCAAYAADAAAYQADAAAAAAAAAAAA==

>  <PUBCHEM_IUPAC_OPENEYE_NAME>
3-(3,4-dihydroxy-1-methoxy-2-oxo-pentyl)-2,6,8,9-tetrahydroxy-3,4-dihydro-2H-anthracen-1-one

>  <PUBCHEM_IUPAC_CAS_NAME>
3-(3,4-dihydroxy-1-methoxy-2-oxopentyl)-2,6,8,9-tetrahydroxy-3,4-dihydro-2H-anthracen-1-one

>  <PUBCHEM_IUPAC_NAME>
3-(3,4-dihydroxy-1-methoxy-2-oxopentyl)-2,6,8,9-tetrahydroxy-3,4-dihydro-2H-anthracen-1-one

>  <PUBCHEM_IUPAC_SYSTEMATIC_NAME>
3-[1-methoxy-3,4-bis(oxidanyl)-2-oxidanylidene-pentyl]-2,6,8,9-tetrakis(oxidanyl)-3,4-dihydro-2H-anthracen-1-one

>  <PUBCHEM_IUPAC_TRADITIONAL_NAME>
3-(3,4-dihydroxy-2-keto-1-methoxy-pentyl)-2,6,8,9-tetrahydroxy-3,4-dihydro-2H-anthracen-1-one

>  <PUBCHEM_IUPAC_INCHI>
InChI=1S/C20H22O9/c1-7(21)15(24)19(28)20(29-2)11-5-9-3-8-4-10(22)6-12(23)13(8)17(26)14(9)18(27)16(11)25/h3-4,6-7,11,15-16,20-26H,5H2,1-2H3

>  <PUBCHEM_IUPAC_INCHIKEY>
PIHTXGRVQBTVRE-UHFFFAOYSA-N

>  <PUBCHEM_XLOGP3_AA>
0.9

>  <PUBCHEM_EXACT_MASS>
406.126

>  <PUBCHEM_MOLECULAR_FORMULA>
C20H22O9

>  <PUBCHEM_MOLECULAR_WEIGHT>
406.387

>  <PUBCHEM_OPENEYE_CAN_SMILES>
CC(C(C(=O)C(C1CC2=C(C(=O)C1O)C(=C3C(=C2)C=C(C=C3O)O)O)OC)O)O

>  <PUBCHEM_OPENEYE_ISO_SMILES>
CC(C(C(=O)C(C1CC2=C(C(=O)C1O)C(=C3C(=C2)C=C(C=C3O)O)O)OC)O)O

>  <PUBCHEM_CACTVS_TPSA>
165

>  <PUBCHEM_MONOISOTOPIC_WEIGHT>
406.126

>  <PUBCHEM_TOTAL_CHARGE>
0

>  <PUBCHEM_HEAVY_ATOM_COUNT>
29

>  <PUBCHEM_ATOM_DEF_STEREO_COUNT>
0

>  <PUBCHEM_ATOM_UDEF_STEREO_COUNT>
5

>  <PUBCHEM_BOND_DEF_STEREO_COUNT>
0

>  <PUBCHEM_BOND_UDEF_STEREO_COUNT>
0

>  <PUBCHEM_ISOTOPIC_ATOM_COUNT>
0

>  <PUBCHEM_COMPONENT_COUNT>
1

>  <PUBCHEM_CACTVS_TAUTO_COUNT>
999

>  <PUBCHEM_COORDINATE_TYPE>
1
5
255

>  <PUBCHEM_BONDANNOTATIONS>
10  11  3
13  17  3
14  15  8
14  18  8
15  19  8
18  21  8
19  22  8
12  2  3
21  22  8
21  25  8
22  24  8
24  29  8
25  28  8
28  29  8
20  6  3
23  7  3

$$$$
