165694
 OpenBabel06101807152D

 53 51  0  0  0  0  0  0  0  0999 V2000
    8.5991    0.0000    0.0000 Cl  0  0  0  0  0  0  0  0  0  0  0  0
    0.0000    3.0000    0.0000 Cl  0  0  0  0  0  0  0  0  0  0  0  0
    1.7320    0.0000    0.0000 Cl  0  0  0  0  0  0  0  0  0  0  0  0
   11.1972    8.5000    0.0000 Na  0  3  0  0  0 15  0  0  0  0  0  0
    4.3301    8.5000    0.0000 Na  0  3  0  0  0 15  0  0  0  0  0  0
    8.5991    4.0000    0.0000 O   0  0  0  0  0  0  0  0  0  0  0  0
    1.7320    4.0000    0.0000 O   0  0  0  0  0  0  0  0  0  0  0  0
   11.1972    7.5000    0.0000 O   0  5  0  0  0  0  0  0  0  0  0  0
    9.4651    7.5000    0.0000 O   0  0  0  0  0  0  0  0  0  0  0  0
    4.3301    7.5000    0.0000 O   0  5  0  0  0  0  0  0  0  0  0  0
    2.5981    7.5000    0.0000 O   0  0  0  0  0  0  0  0  0  0  0  0
    9.4651    5.5000    0.0000 C   0  0  0  0  0  0  0  0  0  0  0  0
    9.4651    4.5000    0.0000 C   0  0  0  0  0  0  0  0  0  0  0  0
    2.5981    5.5000    0.0000 C   0  0  0  0  0  0  0  0  0  0  0  0
   10.3312    6.0000    0.0000 C   0  0  0  0  0  0  0  0  0  0  0  0
    8.5991    3.0000    0.0000 C   0  0  0  0  0  0  0  0  0  0  0  0
    2.5981    4.5000    0.0000 C   0  0  0  0  0  0  0  0  0  0  0  0
    7.7331    2.5000    0.0000 C   0  0  0  0  0  0  0  0  0  0  0  0
    3.4641    6.0000    0.0000 C   0  0  0  0  0  0  0  0  0  0  0  0
    9.4651    2.5000    0.0000 C   0  0  0  0  0  0  0  0  0  0  0  0
    7.7331    1.5000    0.0000 C   0  0  0  0  0  0  0  0  0  0  0  0
    6.8671    3.0000    0.0000 C   0  0  0  0  0  0  0  0  0  0  0  0
    9.4651    1.5000    0.0000 C   0  0  0  0  0  0  0  0  0  0  0  0
    1.7320    3.0000    0.0000 C   0  0  0  0  0  0  0  0  0  0  0  0
    8.5991    1.0000    0.0000 C   0  0  0  0  0  0  0  0  0  0  0  0
   10.3312    7.0000    0.0000 C   0  0  0  0  0  0  0  0  0  0  0  0
    3.4641    7.0000    0.0000 C   0  0  0  0  0  0  0  0  0  0  0  0
    0.8660    2.5000    0.0000 C   0  0  0  0  0  0  0  0  0  0  0  0
    2.5981    2.5000    0.0000 C   0  0  0  0  0  0  0  0  0  0  0  0
    0.8660    1.5000    0.0000 C   0  0  0  0  0  0  0  0  0  0  0  0
    2.5981    1.5000    0.0000 C   0  0  0  0  0  0  0  0  0  0  0  0
    1.7320    1.0000    0.0000 C   0  0  0  0  0  0  0  0  0  0  0  0
    9.2531    6.0826    0.0000 H   0  0  0  0  0  0  0  0  0  0  0  0
    8.8546    5.3923    0.0000 H   0  0  0  0  0  0  0  0  0  0  0  0
    9.6772    3.9174    0.0000 H   0  0  0  0  0  0  0  0  0  0  0  0
   10.0757    4.6077    0.0000 H   0  0  0  0  0  0  0  0  0  0  0  0
    2.3860    6.0826    0.0000 H   0  0  0  0  0  0  0  0  0  0  0  0
    1.9875    5.3923    0.0000 H   0  0  0  0  0  0  0  0  0  0  0  0
   10.5432    5.4174    0.0000 H   0  0  0  0  0  0  0  0  0  0  0  0
   10.9417    6.1077    0.0000 H   0  0  0  0  0  0  0  0  0  0  0  0
    2.8101    3.9174    0.0000 H   0  0  0  0  0  0  0  0  0  0  0  0
    3.2087    4.6077    0.0000 H   0  0  0  0  0  0  0  0  0  0  0  0
    3.6762    5.4174    0.0000 H   0  0  0  0  0  0  0  0  0  0  0  0
    4.0747    6.1077    0.0000 H   0  0  0  0  0  0  0  0  0  0  0  0
   10.0021    2.8100    0.0000 H   0  0  0  0  0  0  0  0  0  0  0  0
    7.1962    1.1900    0.0000 H   0  0  0  0  0  0  0  0  0  0  0  0
    7.1771    3.5369    0.0000 H   0  0  0  0  0  0  0  0  0  0  0  0
    6.3301    3.3100    0.0000 H   0  0  0  0  0  0  0  0  0  0  0  0
    6.5571    2.4631    0.0000 H   0  0  0  0  0  0  0  0  0  0  0  0
   10.0021    1.1900    0.0000 H   0  0  0  0  0  0  0  0  0  0  0  0
    3.1350    2.8100    0.0000 H   0  0  0  0  0  0  0  0  0  0  0  0
    0.3291    1.1900    0.0000 H   0  0  0  0  0  0  0  0  0  0  0  0
    3.1350    1.1900    0.0000 H   0  0  0  0  0  0  0  0  0  0  0  0
  1 25  1  0  0  0  0
  2 28  1  0  0  0  0
  3 32  1  0  0  0  0
  6 13  1  0  0  0  0
  6 16  1  0  0  0  0
  7 17  1  0  0  0  0
  7 24  1  0  0  0  0
  8 26  1  0  0  0  0
  9 26  2  0  0  0  0
 10 27  1  0  0  0  0
 11 27  2  0  0  0  0
 12 13  1  0  0  0  0
 12 15  1  0  0  0  0
 12 33  1  0  0  0  0
 12 34  1  0  0  0  0
 13 35  1  0  0  0  0
 13 36  1  0  0  0  0
 14 17  1  0  0  0  0
 14 19  1  0  0  0  0
 14 37  1  0  0  0  0
 14 38  1  0  0  0  0
 15 26  1  0  0  0  0
 15 39  1  0  0  0  0
 15 40  1  0  0  0  0
 16 18  2  0  0  0  0
 16 20  1  0  0  0  0
 17 41  1  0  0  0  0
 17 42  1  0  0  0  0
 18 21  1  0  0  0  0
 18 22  1  0  0  0  0
 19 27  1  0  0  0  0
 19 43  1  0  0  0  0
 19 44  1  0  0  0  0
 20 23  2  0  0  0  0
 20 45  1  0  0  0  0
 21 25  2  0  0  0  0
 21 46  1  0  0  0  0
 22 47  1  0  0  0  0
 22 48  1  0  0  0  0
 22 49  1  0  0  0  0
 23 25  1  0  0  0  0
 23 50  1  0  0  0  0
 24 28  2  0  0  0  0
 24 29  1  0  0  0  0
 28 30  1  0  0  0  0
 29 31  2  0  0  0  0
 29 51  1  0  0  0  0
 30 32  2  0  0  0  0
 30 52  1  0  0  0  0
 31 32  1  0  0  0  0
 31 53  1  0  0  0  0
M  CHG  4   4   1   5   1   8  -1  10  -1
M  END
>  <PUBCHEM_COMPOUND_CID>
165694

>  <PUBCHEM_COMPOUND_CANONICALIZED>
1

>  <PUBCHEM_CACTVS_COMPLEXITY>
408

>  <PUBCHEM_CACTVS_HBOND_ACCEPTOR>
6

>  <PUBCHEM_CACTVS_HBOND_DONOR>
0

>  <PUBCHEM_CACTVS_ROTATABLE_BOND>
8

>  <PUBCHEM_CACTVS_SUBSKEYS>
AAADceB4ODAGAAAAAAAAAAAAAAAAAAAAAAAwYAAAAAAAAAABQAAAGgIAAAAADAagmCIyDoAABACIAiDSCAACCAAgJUAIiAEGC4gMJjOFMxqCOCCkwBEIqAfCwCAOACAAIACICAAAQABAARAQAAAAAAAAAA==

>  <PUBCHEM_IUPAC_OPENEYE_NAME>
disodium;4-(4-chloro-2-methyl-phenoxy)butanoate;4-(2,4-dichlorophenoxy)butanoate

>  <PUBCHEM_IUPAC_CAS_NAME>
disodium;4-(4-chloro-2-methylphenoxy)butanoate;4-(2,4-dichlorophenoxy)butanoate

>  <PUBCHEM_IUPAC_NAME>
disodium;4-(4-chloro-2-methylphenoxy)butanoate;4-(2,4-dichlorophenoxy)butanoate

>  <PUBCHEM_IUPAC_SYSTEMATIC_NAME>
disodium;4-[2,4-bis(chloranyl)phenoxy]butanoate;4-(4-chloranyl-2-methyl-phenoxy)butanoate

>  <PUBCHEM_IUPAC_TRADITIONAL_NAME>
disodium;4-(4-chloro-2-methyl-phenoxy)butyrate;4-(2,4-dichlorophenoxy)butyrate

>  <PUBCHEM_IUPAC_INCHI>
InChI=1S/C11H13ClO3.C10H10Cl2O3.2Na/c1-8-7-9(12)4-5-10(8)15-6-2-3-11(13)14;11-7-3-4-9(8(12)6-7)15-5-1-2-10(13)14;;/h4-5,7H,2-3,6H2,1H3,(H,13,14);3-4,6H,1-2,5H2,(H,13,14);;/q;;2*+1/p-2

>  <PUBCHEM_IUPAC_INCHIKEY>
NEKNNCABDXGBEN-UHFFFAOYSA-L

>  <PUBCHEM_EXACT_MASS>
520.02

>  <PUBCHEM_MOLECULAR_FORMULA>
C21H21Cl3Na2O6

>  <PUBCHEM_MOLECULAR_WEIGHT>
521.723

>  <PUBCHEM_OPENEYE_CAN_SMILES>
CC1=C(C=CC(=C1)Cl)OCCCC(=O)[O-].C1=CC(=C(C=C1Cl)Cl)OCCCC(=O)[O-].[Na+].[Na+]

>  <PUBCHEM_OPENEYE_ISO_SMILES>
CC1=C(C=CC(=C1)Cl)OCCCC(=O)[O-].C1=CC(=C(C=C1Cl)Cl)OCCCC(=O)[O-].[Na+].[Na+]

>  <PUBCHEM_CACTVS_TPSA>
98.7

>  <PUBCHEM_MONOISOTOPIC_WEIGHT>
520.02

>  <PUBCHEM_TOTAL_CHARGE>
0

>  <PUBCHEM_HEAVY_ATOM_COUNT>
32

>  <PUBCHEM_ATOM_DEF_STEREO_COUNT>
0

>  <PUBCHEM_ATOM_UDEF_STEREO_COUNT>
0

>  <PUBCHEM_BOND_DEF_STEREO_COUNT>
0

>  <PUBCHEM_BOND_UDEF_STEREO_COUNT>
0

>  <PUBCHEM_ISOTOPIC_ATOM_COUNT>
0

>  <PUBCHEM_COMPONENT_COUNT>
4

>  <PUBCHEM_CACTVS_TAUTO_COUNT>
1

>  <PUBCHEM_COORDINATE_TYPE>
1
5
255

>  <PUBCHEM_BONDANNOTATIONS>
16  18  8
16  20  8
18  21  8
20  23  8
21  25  8
23  25  8
24  28  8
24  29  8
28  30  8
29  31  8
30  32  8
31  32  8

$$$$
