16667349
 OpenBabel06101807152D

 54 56  0  0  1  0  0  0  0  0999 V2000
    8.5991   -0.4988    0.0000 P   0  0  3  0  0  0  0  0  0  0  0  0
    6.8671   -0.4988    0.0000 P   0  0  3  0  0  0  0  0  0  0  0  0
   12.1107   -0.4055    0.0000 O   0  0  0  0  0  0  0  0  0  0  0  0
   10.5586    1.6649    0.0000 O   0  0  0  0  0  0  0  0  0  0  0  0
   12.6866    2.1172    0.0000 O   0  0  0  0  0  0  0  0  0  0  0  0
    5.1350   -1.4988    0.0000 O   0  0  0  0  0  0  0  0  0  0  0  0
    9.4651    0.0012    0.0000 O   0  0  0  0  0  0  0  0  0  0  0  0
    6.0010    0.0012    0.0000 O   0  0  0  0  0  0  0  0  0  0  0  0
    2.5369    0.0012    0.0000 O   0  0  0  0  0  0  0  0  0  0  0  0
    4.2690    1.0012    0.0000 O   0  0  0  0  0  0  0  0  0  0  0  0
    2.5369   -1.9988    0.0000 O   0  0  0  0  0  0  0  0  0  0  0  0
    7.7331   -0.9988    0.0000 O   0  0  0  0  0  0  0  0  0  0  0  0
   13.5933   -1.4895    0.0000 O   0  0  0  0  0  0  0  0  0  0  0  0
    9.0991   -1.3648    0.0000 O   0  5  0  0  0  0  0  0  0  0  0  0
    8.0991    0.3672    0.0000 O   0  0  0  0  0  0  0  0  0  0  0  0
    7.3671    0.3672    0.0000 O   0  5  0  0  0  0  0  0  0  0  0  0
    6.3671   -1.3648    0.0000 O   0  0  0  0  0  0  0  0  0  0  0  0
   16.7580   -0.0805    0.0000 O   0  0  0  0  0  0  0  0  0  0  0  0
   13.7744    0.2331    0.0000 N   0  0  0  0  0  0  0  0  0  0  0  0
   15.1756   -0.7850    0.0000 N   0  0  0  0  0  0  0  0  0  0  0  0
   11.3017    0.9957    0.0000 C   0  0  1  0  0  0  0  0  0  0  0  0
   12.2799    1.2037    0.0000 C   0  0  2  0  0  0  0  0  0  0  0  0
   11.1972    0.0012    0.0000 C   0  0  1  0  0  0  0  0  0  0  0  0
   12.7799    0.3376    0.0000 C   0  0  1  0  0  0  0  0  0  0  0  0
   10.3312   -0.4988    0.0000 C   0  0  0  0  0  0  0  0  0  0  0  0
    3.4030   -0.4988    0.0000 C   0  0  2  0  0  0  0  0  0  0  0  0
    4.2690    0.0012    0.0000 C   0  0  2  0  0  0  0  0  0  0  0  0
    3.4030   -1.4988    0.0000 C   0  0  1  0  0  0  0  0  0  0  0  0
    5.1350   -0.4988    0.0000 C   0  0  2  0  0  0  0  0  0  0  0  0
    4.2690   -1.9988    0.0000 C   0  0  0  0  0  0  0  0  0  0  0  0
   14.1811   -0.6804    0.0000 C   0  0  0  0  0  0  0  0  0  0  0  0
   14.3622    1.0421    0.0000 C   0  0  0  0  0  0  0  0  0  0  0  0
   15.3567    0.9376    0.0000 C   0  0  0  0  0  0  0  0  0  0  0  0
   15.7634    0.0240    0.0000 C   0  0  0  0  0  0  0  0  0  0  0  0
   11.4622    1.5946    0.0000 H   0  0  0  0  0  0  0  0  0  0  0  0
   12.8990    1.2361    0.0000 H   0  0  0  0  0  0  0  0  0  0  0  0
   11.2296   -0.6179    0.0000 H   0  0  0  0  0  0  0  0  0  0  0  0
   13.0021   -0.2412    0.0000 H   0  0  0  0  0  0  0  0  0  0  0  0
    9.9326   -0.9737    0.0000 H   0  0  0  0  0  0  0  0  0  0  0  0
   10.7297   -0.9737    0.0000 H   0  0  0  0  0  0  0  0  0  0  0  0
    3.4030    0.1212    0.0000 H   0  0  0  0  0  0  0  0  0  0  0  0
    4.8059    0.3112    0.0000 H   0  0  0  0  0  0  0  0  0  0  0  0
    3.4030   -2.1188    0.0000 H   0  0  0  0  0  0  0  0  0  0  0  0
    5.6720   -0.8088    0.0000 H   0  0  0  0  0  0  0  0  0  0  0  0
    3.8705   -2.4737    0.0000 H   0  0  0  0  0  0  0  0  0  0  0  0
    4.6675   -2.4737    0.0000 H   0  0  0  0  0  0  0  0  0  0  0  0
   10.6875    2.2713    0.0000 H   0  0  0  0  0  0  0  0  0  0  0  0
   12.3222    2.6188    0.0000 H   0  0  0  0  0  0  0  0  0  0  0  0
   14.1100    1.6085    0.0000 H   0  0  0  0  0  0  0  0  0  0  0  0
    2.0000   -0.3088    0.0000 H   0  0  0  0  0  0  0  0  0  0  0  0
    3.7320    1.3112    0.0000 H   0  0  0  0  0  0  0  0  0  0  0  0
    2.5369   -2.6188    0.0000 H   0  0  0  0  0  0  0  0  0  0  0  0
   15.4278   -1.3514    0.0000 H   0  0  0  0  0  0  0  0  0  0  0  0
   15.7211    1.4392    0.0000 H   0  0  0  0  0  0  0  0  0  0  0  0
  1  7  1  0  0  0  0
  1 12  1  0  0  0  0
  1 14  1  0  0  0  0
  1 15  2  0  0  0  0
  2  8  1  0  0  0  0
  2 12  1  0  0  0  0
  2 16  1  0  0  0  0
  2 17  2  0  0  0  0
  3 23  1  0  0  0  0
  3 24  1  0  0  0  0
  4 47  1  0  0  0  0
  5 48  1  0  0  0  0
  6 29  1  0  0  0  0
  6 30  1  0  0  0  0
  7 25  1  0  0  0  0
  9 50  1  0  0  0  0
 10 51  1  0  0  0  0
 11 52  1  0  0  0  0
 13 31  2  0  0  0  0
 18 34  2  0  0  0  0
 19 31  1  0  0  0  0
 19 32  1  0  0  0  0
 20 31  1  0  0  0  0
 20 34  1  0  0  0  0
 20 53  1  0  0  0  0
 21  4  1  0  0  0  0
 21 22  1  1  0  0  0
 21 35  1  0  0  0  0
 22  5  1  0  0  0  0
 22 24  1  1  0  0  0
 22 36  1  0  0  0  0
 23 21  1  1  0  0  0
 23 25  1  0  0  0  0
 23 37  1  0  0  0  0
 24 19  1  0  0  0  0
 24 38  1  1  0  0  0
 25 39  1  0  0  0  0
 25 40  1  0  0  0  0
 26  9  1  0  0  0  0
 26 27  1  6  0  0  0
 26 41  1  0  0  0  0
 27 10  1  0  0  0  0
 27 29  1  1  0  0  0
 27 42  1  0  0  0  0
 28 11  1  0  0  0  0
 28 26  1  6  0  0  0
 28 30  1  0  0  0  0
 28 43  1  0  0  0  0
 29  8  1  0  0  0  0
 29 44  1  6  0  0  0
 30 45  1  0  0  0  0
 30 46  1  0  0  0  0
 32 33  2  0  0  0  0
 32 49  1  0  0  0  0
 33 34  1  0  0  0  0
 33 54  1  0  0  0  0
M  CHG  2  14  -1  16  -1
M  END
>  <PUBCHEM_COMPOUND_CID>
16667349

>  <PUBCHEM_COMPOUND_CANONICALIZED>
1

>  <PUBCHEM_CACTVS_COMPLEXITY>
900

>  <PUBCHEM_CACTVS_HBOND_ACCEPTOR>
16

>  <PUBCHEM_CACTVS_HBOND_DONOR>
6

>  <PUBCHEM_CACTVS_ROTATABLE_BOND>
8

>  <PUBCHEM_CACTVS_SUBSKEYS>
AAADceBzPgMAAAAAAAAAAAAAAAAAASAAAAAkQAAAAAAAAAAAAAAAHgAQCCAACBTxgAcBCAPABxCIQCFWUICAAAAAAgAIAAAIAECTEAIAgAAOQAAPFyIXAMDwMAIAAAAAAAAAAAAAAAAAAAAAAAAAAAAAAA==

>  <PUBCHEM_IUPAC_OPENEYE_NAME>
[[(2R,3S,4R,5R)-5-(2,4-dioxopyrimidin-1-yl)-3,4-dihydroxy-tetrahydrofuran-2-yl]methoxy-oxido-phosphoryl] [(2R,3R,4S,5R)-3,4,5-trihydroxytetrahydropyran-2-yl] phosphate

>  <PUBCHEM_IUPAC_CAS_NAME>
[[(2R,3S,4R,5R)-5-(2,4-dioxo-1-pyrimidinyl)-3,4-dihydroxy-2-oxolanyl]methoxy-oxidophosphoryl] [(2R,3R,4S,5R)-3,4,5-trihydroxy-2-oxanyl] phosphate

>  <PUBCHEM_IUPAC_NAME>
[[(2R,3S,4R,5R)-5-(2,4-dioxopyrimidin-1-yl)-3,4-dihydroxyoxolan-2-yl]methoxy-oxidophosphoryl] [(2R,3R,4S,5R)-3,4,5-trihydroxyoxan-2-yl] phosphate

>  <PUBCHEM_IUPAC_SYSTEMATIC_NAME>
[[(2R,3S,4R,5R)-5-[2,4-bis(oxidanylidene)pyrimidin-1-yl]-3,4-bis(oxidanyl)oxolan-2-yl]methoxy-oxidanidyl-phosphoryl] [(2R,3R,4S,5R)-3,4,5-tris(oxidanyl)oxan-2-yl] phosphate

>  <PUBCHEM_IUPAC_TRADITIONAL_NAME>
[[(2R,3S,4R,5R)-5-(2,4-diketopyrimidin-1-yl)-3,4-dihydroxy-tetrahydrofuran-2-yl]methoxy-oxido-phosphoryl] [(2R,3R,4S,5R)-3,4,5-trihydroxytetrahydropyran-2-yl] phosphate

>  <PUBCHEM_IUPAC_INCHI>
InChI=1S/C14H22N2O16P2/c17-5-3-28-13(11(22)8(5)19)31-34(26,27)32-33(24,25)29-4-6-9(20)10(21)12(30-6)16-2-1-7(18)15-14(16)23/h1-2,5-6,8-13,17,19-22H,3-4H2,(H,24,25)(H,26,27)(H,15,18,23)/p-2/t5-,6-,8+,9-,10-,11-,12-,13-/m1/s1

>  <PUBCHEM_IUPAC_INCHIKEY>
DQQDLYVHOTZLOR-OCIMBMBZSA-L

>  <PUBCHEM_XLOGP3_AA>
-6.7

>  <PUBCHEM_EXACT_MASS>
534.029

>  <PUBCHEM_MOLECULAR_FORMULA>
C14H20N2O16P2-2

>  <PUBCHEM_MOLECULAR_WEIGHT>
534.26

>  <PUBCHEM_OPENEYE_CAN_SMILES>
C1C(C(C(C(O1)OP(=O)([O-])OP(=O)([O-])OCC2C(C(C(O2)N3C=CC(=O)NC3=O)O)O)O)O)O

>  <PUBCHEM_OPENEYE_ISO_SMILES>
C1[C@H]([C@@H]([C@H]([C@H](O1)OP(=O)([O-])OP(=O)([O-])OC[C@@H]2[C@H]([C@H]([C@@H](O2)N3C=CC(=O)NC3=O)O)O)O)O)O

>  <PUBCHEM_CACTVS_TPSA>
277

>  <PUBCHEM_MONOISOTOPIC_WEIGHT>
534.029

>  <PUBCHEM_TOTAL_CHARGE>
-2

>  <PUBCHEM_HEAVY_ATOM_COUNT>
34

>  <PUBCHEM_ATOM_DEF_STEREO_COUNT>
8

>  <PUBCHEM_ATOM_UDEF_STEREO_COUNT>
0

>  <PUBCHEM_BOND_DEF_STEREO_COUNT>
0

>  <PUBCHEM_BOND_UDEF_STEREO_COUNT>
0

>  <PUBCHEM_ISOTOPIC_ATOM_COUNT>
0

>  <PUBCHEM_COMPONENT_COUNT>
1

>  <PUBCHEM_CACTVS_TAUTO_COUNT>
3

>  <PUBCHEM_COORDINATE_TYPE>
1
5
255

>  <PUBCHEM_BONDANNOTATIONS>
27  10  5
28  11  5
24  19  6
19  31  8
19  32  8
20  31  8
20  34  8
23  25  6
32  33  8
33  34  8
21  4  5
22  5  5
29  8  5
26  9  6

$$$$
