166717
 OpenBabel06101807152D

  5  4  0  0  0  0  0  0  0  0999 V2000
    3.4030   -0.2500    0.0000 O   0  0  0  0  0  0  0  0  0  0  0  0
    4.2690    0.2500    0.0000 O   0  0  0  0  0  0  0  0  0  0  0  0
    2.5369    0.2500    0.0000 O   0  0  0  0  0  0  0  0  0  0  0  0
    4.8059   -0.0600    0.0000 H   0  0  0  0  0  0  0  0  0  0  0  0
    2.0000   -0.0600    0.0000 H   0  0  0  0  0  0  0  0  0  0  0  0
  1  2  1  0  0  0  0
  1  3  1  0  0  0  0
  2  4  1  0  0  0  0
  3  5  1  0  0  0  0
M  END
>  <PUBCHEM_COMPOUND_CID>
166717

>  <PUBCHEM_COMPOUND_CANONICALIZED>
1

>  <PUBCHEM_CACTVS_COMPLEXITY>
0

>  <PUBCHEM_CACTVS_HBOND_ACCEPTOR>
3

>  <PUBCHEM_CACTVS_HBOND_DONOR>
2

>  <PUBCHEM_CACTVS_ROTATABLE_BOND>
0

>  <PUBCHEM_CACTVS_SUBSKEYS>
AAADcQAAMAAAAAAAAAAAAAAAAAAAAAAAAAAAAAAAAAAAAAAAAAAAAAAADAAAAAAAAAAAAAAAAAAAAAAAAAAAAAAAAAAAAAAAAAAAAAAAAAAAAAAAAAAAAAAAAAAAAAAAAAAAAAAAAAAAAAAAAAAAAAAAAA==

>  <PUBCHEM_IUPAC_INCHI>
InChI=1S/H2O3/c1-3-2/h1-2H

>  <PUBCHEM_IUPAC_INCHIKEY>
JSPLKZUTYZBBKA-UHFFFAOYSA-N

>  <PUBCHEM_XLOGP3_AA>
-0.9

>  <PUBCHEM_EXACT_MASS>
50

>  <PUBCHEM_MOLECULAR_FORMULA>
H2O3

>  <PUBCHEM_MOLECULAR_WEIGHT>
50.013

>  <PUBCHEM_OPENEYE_CAN_SMILES>
OOO

>  <PUBCHEM_OPENEYE_ISO_SMILES>
OOO

>  <PUBCHEM_CACTVS_TPSA>
49.7

>  <PUBCHEM_MONOISOTOPIC_WEIGHT>
50

>  <PUBCHEM_TOTAL_CHARGE>
0

>  <PUBCHEM_HEAVY_ATOM_COUNT>
3

>  <PUBCHEM_ATOM_DEF_STEREO_COUNT>
0

>  <PUBCHEM_ATOM_UDEF_STEREO_COUNT>
0

>  <PUBCHEM_BOND_DEF_STEREO_COUNT>
0

>  <PUBCHEM_BOND_UDEF_STEREO_COUNT>
0

>  <PUBCHEM_ISOTOPIC_ATOM_COUNT>
0

>  <PUBCHEM_COMPONENT_COUNT>
1

>  <PUBCHEM_CACTVS_TAUTO_COUNT>
1

>  <PUBCHEM_COORDINATE_TYPE>
1
5
255

$$$$
