16681728
 OpenBabel06101807152D

 42 42  0  0  1  0  0  0  0  0999 V2000
    3.7320    0.6550    0.0000 O   0  0  0  0  0  0  0  0  0  0  0  0
    5.4641    0.6550    0.0000 O   0  0  0  0  0  0  0  0  0  0  0  0
    8.0622    2.1550    0.0000 O   0  0  0  0  0  0  0  0  0  0  0  0
    6.3301    5.1550    0.0000 O   0  0  0  0  0  0  0  0  0  0  0  0
    2.8660   -4.8450    0.0000 O   0  0  0  0  0  0  0  0  0  0  0  0
    5.4641    2.6550    0.0000 C   0  0  3  0  0  0  0  0  0  0  0  0
    4.5981    2.1550    0.0000 C   0  0  0  0  0  0  0  0  0  0  0  0
    6.3301    2.1550    0.0000 C   0  0  0  0  0  0  0  0  0  0  0  0
    5.4641    3.6550    0.0000 C   0  0  0  0  0  0  0  0  0  0  0  0
    4.5981    1.1550    0.0000 C   0  0  0  0  0  0  0  0  0  0  0  0
    2.8660   -0.8450    0.0000 C   0  0  0  0  0  0  0  0  0  0  0  0
    3.7320   -0.3450    0.0000 C   0  0  0  0  0  0  0  0  0  0  0  0
    4.5981    4.1550    0.0000 C   0  0  0  0  0  0  0  0  0  0  0  0
    7.1962    2.6550    0.0000 C   0  0  0  0  0  0  0  0  0  0  0  0
    2.8660   -1.8450    0.0000 C   0  0  0  0  0  0  0  0  0  0  0  0
    6.3301    4.1550    0.0000 C   0  0  0  0  0  0  0  0  0  0  0  0
    3.7320    3.6550    0.0000 C   0  0  0  0  0  0  0  0  0  0  0  0
    2.0000   -2.3450    0.0000 C   0  0  0  0  0  0  0  0  0  0  0  0
    3.7320   -2.3450    0.0000 C   0  0  0  0  0  0  0  0  0  0  0  0
    2.0000   -3.3450    0.0000 C   0  0  0  0  0  0  0  0  0  0  0  0
    3.7320   -3.3450    0.0000 C   0  0  0  0  0  0  0  0  0  0  0  0
    2.8660   -3.8450    0.0000 C   0  0  0  0  0  0  0  0  0  0  0  0
    5.4641    2.0350    0.0000 H   0  0  0  0  0  0  0  0  0  0  0  0
    4.3860    2.7376    0.0000 H   0  0  0  0  0  0  0  0  0  0  0  0
    3.9875    2.0473    0.0000 H   0  0  0  0  0  0  0  0  0  0  0  0
    5.9316    1.6800    0.0000 H   0  0  0  0  0  0  0  0  0  0  0  0
    6.7287    1.6800    0.0000 H   0  0  0  0  0  0  0  0  0  0  0  0
    2.6540   -0.2624    0.0000 H   0  0  0  0  0  0  0  0  0  0  0  0
    2.2554   -0.9527    0.0000 H   0  0  0  0  0  0  0  0  0  0  0  0
    3.9441   -0.9276    0.0000 H   0  0  0  0  0  0  0  0  0  0  0  0
    4.3426   -0.2373    0.0000 H   0  0  0  0  0  0  0  0  0  0  0  0
    4.5981    4.7750    0.0000 H   0  0  0  0  0  0  0  0  0  0  0  0
    7.1962    3.2750    0.0000 H   0  0  0  0  0  0  0  0  0  0  0  0
    6.8671    3.8450    0.0000 H   0  0  0  0  0  0  0  0  0  0  0  0
    3.4220    4.1919    0.0000 H   0  0  0  0  0  0  0  0  0  0  0  0
    3.1951    3.3450    0.0000 H   0  0  0  0  0  0  0  0  0  0  0  0
    4.0420    3.1181    0.0000 H   0  0  0  0  0  0  0  0  0  0  0  0
    1.4631   -2.0350    0.0000 H   0  0  0  0  0  0  0  0  0  0  0  0
    4.2690   -2.0350    0.0000 H   0  0  0  0  0  0  0  0  0  0  0  0
    1.4631   -3.6550    0.0000 H   0  0  0  0  0  0  0  0  0  0  0  0
    4.2690   -3.6550    0.0000 H   0  0  0  0  0  0  0  0  0  0  0  0
    2.3291   -5.1550    0.0000 H   0  0  0  0  0  0  0  0  0  0  0  0
  1 10  1  0  0  0  0
  1 12  1  0  0  0  0
  2 10  2  0  0  0  0
  3 14  2  0  0  0  0
  4 16  2  0  0  0  0
  5 22  1  0  0  0  0
  5 42  1  0  0  0  0
  6  7  1  0  0  0  0
  6  8  1  0  0  0  0
  6  9  1  0  0  0  0
  6 23  1  0  0  0  0
  7 10  1  0  0  0  0
  7 24  1  0  0  0  0
  7 25  1  0  0  0  0
  8 14  1  0  0  0  0
  8 26  1  0  0  0  0
  8 27  1  0  0  0  0
  9 13  2  0  0  0  0
  9 16  1  0  0  0  0
 11 12  1  0  0  0  0
 11 15  1  0  0  0  0
 11 28  1  0  0  0  0
 11 29  1  0  0  0  0
 12 30  1  0  0  0  0
 12 31  1  0  0  0  0
 13 17  1  0  0  0  0
 13 32  1  0  0  0  0
 14 33  1  0  0  0  0
 15 18  2  0  0  0  0
 15 19  1  0  0  0  0
 16 34  1  0  0  0  0
 17 35  1  0  0  0  0
 17 36  1  0  0  0  0
 17 37  1  0  0  0  0
 18 20  1  0  0  0  0
 18 38  1  0  0  0  0
 19 21  2  0  0  0  0
 19 39  1  0  0  0  0
 20 22  2  0  0  0  0
 20 40  1  0  0  0  0
 21 22  1  0  0  0  0
 21 41  1  0  0  0  0
M  END
>  <PUBCHEM_COMPOUND_CID>
16681728

>  <PUBCHEM_COMPOUND_CANONICALIZED>
1

>  <PUBCHEM_CACTVS_COMPLEXITY>
394

>  <PUBCHEM_CACTVS_HBOND_ACCEPTOR>
5

>  <PUBCHEM_CACTVS_HBOND_DONOR>
1

>  <PUBCHEM_CACTVS_ROTATABLE_BOND>
10

>  <PUBCHEM_CACTVS_SUBSKEYS>
AAADceB4OAAAAAAAAAAAAAAAAAAAAAAAAAAwAAAAAAAAAAABAAAAGgAACAAADQSgmAIyDoAABgCIAijSiAACAAAgIAAIiAEGCMgIJjKCERKCcAAkwBEImYeIxqAOIAAAAAAAAABAAAAAAAAAAAAAAAAAAA==

>  <PUBCHEM_IUPAC_OPENEYE_NAME>
2-(4-hydroxyphenyl)ethyl (E)-4-formyl-3-(2-oxoethyl)hex-4-enoate

>  <PUBCHEM_IUPAC_CAS_NAME>
(E)-4-formyl-3-(2-oxoethyl)-4-hexenoic acid 2-(4-hydroxyphenyl)ethyl ester

>  <PUBCHEM_IUPAC_NAME>
2-(4-hydroxyphenyl)ethyl (E)-4-formyl-3-(2-oxoethyl)hex-4-enoate

>  <PUBCHEM_IUPAC_SYSTEMATIC_NAME>
2-(4-hydroxyphenyl)ethyl (E)-4-methanoyl-3-(2-oxidanylideneethyl)hex-4-enoate

>  <PUBCHEM_IUPAC_TRADITIONAL_NAME>
(E)-4-formyl-3-(2-ketoethyl)hex-4-enoic acid 2-(4-hydroxyphenyl)ethyl ester

>  <PUBCHEM_IUPAC_INCHI>
InChI=1S/C17H20O5/c1-2-14(12-19)15(7-9-18)11-17(21)22-10-8-13-3-5-16(20)6-4-13/h2-6,9,12,15,20H,7-8,10-11H2,1H3/b14-2-

>  <PUBCHEM_IUPAC_INCHIKEY>
VPOVFCBNUOUZGG-VVHNFQOZSA-N

>  <PUBCHEM_XLOGP3_AA>
1.5

>  <PUBCHEM_EXACT_MASS>
304.131

>  <PUBCHEM_MOLECULAR_FORMULA>
C17H20O5

>  <PUBCHEM_MOLECULAR_WEIGHT>
304.342

>  <PUBCHEM_OPENEYE_CAN_SMILES>
CC=C(C=O)C(CC=O)CC(=O)OCCC1=CC=C(C=C1)O

>  <PUBCHEM_OPENEYE_ISO_SMILES>
C/C=C(/C=O)\C(CC=O)CC(=O)OCCC1=CC=C(C=C1)O

>  <PUBCHEM_CACTVS_TPSA>
80.7

>  <PUBCHEM_MONOISOTOPIC_WEIGHT>
304.131

>  <PUBCHEM_TOTAL_CHARGE>
0

>  <PUBCHEM_HEAVY_ATOM_COUNT>
22

>  <PUBCHEM_ATOM_DEF_STEREO_COUNT>
0

>  <PUBCHEM_ATOM_UDEF_STEREO_COUNT>
1

>  <PUBCHEM_BOND_DEF_STEREO_COUNT>
1

>  <PUBCHEM_BOND_UDEF_STEREO_COUNT>
0

>  <PUBCHEM_ISOTOPIC_ATOM_COUNT>
0

>  <PUBCHEM_COMPONENT_COUNT>
1

>  <PUBCHEM_CACTVS_TAUTO_COUNT>
4

>  <PUBCHEM_COORDINATE_TYPE>
1
5
255

>  <PUBCHEM_BONDANNOTATIONS>
15  18  8
15  19  8
18  20  8
19  21  8
20  22  8
21  22  8
6  8  3

$$$$
