167534
 OpenBabel06101807152D

 42 46  0  0  0  0  0  0  0  0999 V2000
    6.4642    0.7953    0.0000 O   0  0  0  0  0  0  0  0  0  0  0  0
    6.4642    2.4048    0.0000 O   0  0  0  0  0  0  0  0  0  0  0  0
    4.6520    3.6000    0.0000 O   0  0  0  0  0  0  0  0  0  0  0  0
    2.0000   -0.9451    0.0000 O   0  0  0  0  0  0  0  0  0  0  0  0
    6.5085   -2.5369    0.0000 O   0  0  0  0  0  0  0  0  0  0  0  0
    4.7052   -3.5967    0.0000 O   0  0  0  0  0  0  0  0  0  0  0  0
    2.0367    1.1214    0.0000 N   0  0  0  0  0  0  0  0  0  0  0  0
    4.6520    0.6000    0.0000 C   0  0  0  0  0  0  0  0  0  0  0  0
    3.7860    1.1000    0.0000 C   0  0  0  0  0  0  0  0  0  0  0  0
    4.6681   -0.4415    0.0000 C   0  0  0  0  0  0  0  0  0  0  0  0
    5.5180    1.1000    0.0000 C   0  0  0  0  0  0  0  0  0  0  0  0
    3.7860    2.1000    0.0000 C   0  0  0  0  0  0  0  0  0  0  0  0
    2.8760    0.5932    0.0000 C   0  0  0  0  0  0  0  0  0  0  0  0
    3.7700   -0.9692    0.0000 C   0  0  0  0  0  0  0  0  0  0  0  0
    5.5180    2.1000    0.0000 C   0  0  0  0  0  0  0  0  0  0  0  0
    4.6520    2.6000    0.0000 C   0  0  0  0  0  0  0  0  0  0  0  0
    2.8680   -0.4484    0.0000 C   0  0  0  0  0  0  0  0  0  0  0  0
    5.6200   -0.9621    0.0000 C   0  0  0  0  0  0  0  0  0  0  0  0
    2.9278    2.5970    0.0000 C   0  0  0  0  0  0  0  0  0  0  0  0
    3.7617   -2.0542    0.0000 C   0  0  0  0  0  0  0  0  0  0  0  0
    7.0479    1.6000    0.0000 C   0  0  0  0  0  0  0  0  0  0  0  0
    5.6367   -2.0470    0.0000 C   0  0  0  0  0  0  0  0  0  0  0  0
    4.7013   -2.5967    0.0000 C   0  0  0  0  0  0  0  0  0  0  0  0
    2.0623    2.1128    0.0000 C   0  0  0  0  0  0  0  0  0  0  0  0
    5.5180    4.1000    0.0000 C   0  0  0  0  0  0  0  0  0  0  0  0
    6.5200   -3.5369    0.0000 C   0  0  0  0  0  0  0  0  0  0  0  0
    3.8411   -4.1000    0.0000 C   0  0  0  0  0  0  0  0  0  0  0  0
    6.1508   -0.6418    0.0000 H   0  0  0  0  0  0  0  0  0  0  0  0
    2.9324    3.2169    0.0000 H   0  0  0  0  0  0  0  0  0  0  0  0
    3.2235   -2.3621    0.0000 H   0  0  0  0  0  0  0  0  0  0  0  0
    7.5087    1.1853    0.0000 H   0  0  0  0  0  0  0  0  0  0  0  0
    7.5087    2.0148    0.0000 H   0  0  0  0  0  0  0  0  0  0  0  0
    1.5316    2.4333    0.0000 H   0  0  0  0  0  0  0  0  0  0  0  0
    5.8280    3.5631    0.0000 H   0  0  0  0  0  0  0  0  0  0  0  0
    6.0550    4.4100    0.0000 H   0  0  0  0  0  0  0  0  0  0  0  0
    5.2080    4.6370    0.0000 H   0  0  0  0  0  0  0  0  0  0  0  0
    5.9001   -3.5440    0.0000 H   0  0  0  0  0  0  0  0  0  0  0  0
    6.5272   -4.1568    0.0000 H   0  0  0  0  0  0  0  0  0  0  0  0
    7.1400   -3.5297    0.0000 H   0  0  0  0  0  0  0  0  0  0  0  0
    3.5290   -3.5643    0.0000 H   0  0  0  0  0  0  0  0  0  0  0  0
    3.3053   -4.4121    0.0000 H   0  0  0  0  0  0  0  0  0  0  0  0
    4.1531   -4.6358    0.0000 H   0  0  0  0  0  0  0  0  0  0  0  0
  1 11  1  0  0  0  0
  1 21  1  0  0  0  0
  2 15  1  0  0  0  0
  2 21  1  0  0  0  0
  3 16  1  0  0  0  0
  3 25  1  0  0  0  0
  4 17  2  0  0  0  0
  5 22  1  0  0  0  0
  5 26  1  0  0  0  0
  6 23  1  0  0  0  0
  6 27  1  0  0  0  0
  7 13  2  0  0  0  0
  7 24  1  0  0  0  0
  8  9  1  0  0  0  0
  8 10  1  0  0  0  0
  8 11  2  0  0  0  0
  9 12  2  0  0  0  0
  9 13  1  0  0  0  0
 10 14  1  0  0  0  0
 10 18  2  0  0  0  0
 11 15  1  0  0  0  0
 12 16  1  0  0  0  0
 12 19  1  0  0  0  0
 13 17  1  0  0  0  0
 14 17  1  0  0  0  0
 14 20  2  0  0  0  0
 15 16  2  0  0  0  0
 18 22  1  0  0  0  0
 18 28  1  0  0  0  0
 19 24  2  0  0  0  0
 19 29  1  0  0  0  0
 20 23  1  0  0  0  0
 20 30  1  0  0  0  0
 21 31  1  0  0  0  0
 21 32  1  0  0  0  0
 22 23  2  0  0  0  0
 24 33  1  0  0  0  0
 25 34  1  0  0  0  0
 25 35  1  0  0  0  0
 25 36  1  0  0  0  0
 26 37  1  0  0  0  0
 26 38  1  0  0  0  0
 26 39  1  0  0  0  0
 27 40  1  0  0  0  0
 27 41  1  0  0  0  0
 27 42  1  0  0  0  0
M  END
>  <PUBCHEM_COMPOUND_CID>
167534

>  <PUBCHEM_COMPOUND_CANONICALIZED>
1

>  <PUBCHEM_CACTVS_COMPLEXITY>
587

>  <PUBCHEM_CACTVS_HBOND_ACCEPTOR>
7

>  <PUBCHEM_CACTVS_HBOND_DONOR>
0

>  <PUBCHEM_CACTVS_ROTATABLE_BOND>
3

>  <PUBCHEM_CACTVS_SUBSKEYS>
AAADccB6OAAAAAAAAAAAAAAAAAAAASAAAAA8YMEAAAAAAEjx9AAAHgAAAAAADAzBngc+jtIIFACoA7R3RACCiCA3IiAI2CG+7NgdJ3LEtLukMSplwBXO6Ye6/P/OoAADCAAYQADQAAaQADSAAAAAAAAAAA==

>  <PUBCHEM_IUPAC_INCHI>
InChI=1S/C20H15NO6/c1-23-12-6-10-11(7-13(12)24-2)17(22)16-14-9(4-5-21-16)18(25-3)20-19(15(10)14)26-8-27-20/h4-7H,8H2,1-3H3

>  <PUBCHEM_IUPAC_INCHIKEY>
GOQUMRHFJDDYAU-UHFFFAOYSA-N

>  <PUBCHEM_XLOGP3_AA>
3.3

>  <PUBCHEM_EXACT_MASS>
365.09

>  <PUBCHEM_MOLECULAR_FORMULA>
C20H15NO6

>  <PUBCHEM_MOLECULAR_WEIGHT>
365.341

>  <PUBCHEM_OPENEYE_CAN_SMILES>
COC1=C(C=C2C(=C1)C3=C4C(=C(C5=C3C(=NC=C5)C2=O)OC)OCO4)OC

>  <PUBCHEM_OPENEYE_ISO_SMILES>
COC1=C(C=C2C(=C1)C3=C4C(=C(C5=C3C(=NC=C5)C2=O)OC)OCO4)OC

>  <PUBCHEM_CACTVS_TPSA>
76.1

>  <PUBCHEM_MONOISOTOPIC_WEIGHT>
365.09

>  <PUBCHEM_TOTAL_CHARGE>
0

>  <PUBCHEM_HEAVY_ATOM_COUNT>
27

>  <PUBCHEM_ATOM_DEF_STEREO_COUNT>
0

>  <PUBCHEM_ATOM_UDEF_STEREO_COUNT>
0

>  <PUBCHEM_BOND_DEF_STEREO_COUNT>
0

>  <PUBCHEM_BOND_UDEF_STEREO_COUNT>
0

>  <PUBCHEM_ISOTOPIC_ATOM_COUNT>
0

>  <PUBCHEM_COMPONENT_COUNT>
1

>  <PUBCHEM_CACTVS_TAUTO_COUNT>
1

>  <PUBCHEM_COORDINATE_TYPE>
1
5
255

>  <PUBCHEM_BONDANNOTATIONS>
10  14  8
10  18  8
11  15  8
12  16  8
12  19  8
14  20  8
15  16  8
18  22  8
19  24  8
20  23  8
22  23  8
7  13  8
7  24  8
8  11  8
8  9  8
9  12  8
9  13  8

$$$$
