167633
 OpenBabel06101807152D

 41 43  0  0  0  0  0  0  0  0999 V2000
    2.5836   -1.2161    0.0000 O   0  0  0  0  0  0  0  0  0  0  0  0
    2.5836   -2.8256    0.0000 O   0  0  0  0  0  0  0  0  0  0  0  0
    7.0321   -1.5240    0.0000 O   0  0  0  0  0  0  0  0  0  0  0  0
    5.2740    1.5484    0.0000 O   0  0  0  0  0  0  0  0  0  0  0  0
    4.3798    0.0206    0.0000 N   0  0  0  0  0  0  0  0  0  0  0  0
    4.3958   -1.0209    0.0000 C   0  0  0  0  0  0  0  0  0  0  0  0
    5.2619   -1.5209    0.0000 C   0  0  0  0  0  0  0  0  0  0  0  0
    6.1799    0.0276    0.0000 C   0  0  0  0  0  0  0  0  0  0  0  0
    6.1719   -1.0140    0.0000 C   0  0  0  0  0  0  0  0  0  0  0  0
    3.5298   -1.5209    0.0000 C   0  0  0  0  0  0  0  0  0  0  0  0
    5.2778    0.5484    0.0000 C   0  0  0  0  0  0  0  0  0  0  0  0
    3.5298   -2.5209    0.0000 C   0  0  0  0  0  0  0  0  0  0  0  0
    7.0479    0.5242    0.0000 C   0  0  0  0  0  0  0  0  0  0  0  0
    5.2619   -2.5209    0.0000 C   0  0  0  0  0  0  0  0  0  0  0  0
    4.3958   -3.0209    0.0000 C   0  0  0  0  0  0  0  0  0  0  0  0
    3.5080    0.5106    0.0000 C   0  0  0  0  0  0  0  0  0  0  0  0
    2.0000   -2.0209    0.0000 C   0  0  0  0  0  0  0  0  0  0  0  0
    7.0517    1.5242    0.0000 C   0  0  0  0  0  0  0  0  0  0  0  0
    7.9197    2.0209    0.0000 C   0  0  0  0  0  0  0  0  0  0  0  0
    7.9038   -1.0341    0.0000 C   0  0  0  0  0  0  0  0  0  0  0  0
    7.9235    3.0209    0.0000 C   0  0  0  0  0  0  0  0  0  0  0  0
    8.7838    1.5176    0.0000 C   0  0  0  0  0  0  0  0  0  0  0  0
    7.2577   -0.0592    0.0000 H   0  0  0  0  0  0  0  0  0  0  0  0
    7.6588    0.6295    0.0000 H   0  0  0  0  0  0  0  0  0  0  0  0
    5.7988   -2.8309    0.0000 H   0  0  0  0  0  0  0  0  0  0  0  0
    4.3958   -3.6409    0.0000 H   0  0  0  0  0  0  0  0  0  0  0  0
    3.8118    1.0511    0.0000 H   0  0  0  0  0  0  0  0  0  0  0  0
    2.9676    0.8144    0.0000 H   0  0  0  0  0  0  0  0  0  0  0  0
    3.2043   -0.0299    0.0000 H   0  0  0  0  0  0  0  0  0  0  0  0
    1.5391   -1.6062    0.0000 H   0  0  0  0  0  0  0  0  0  0  0  0
    1.5391   -2.4356    0.0000 H   0  0  0  0  0  0  0  0  0  0  0  0
    6.5160    1.8363    0.0000 H   0  0  0  0  0  0  0  0  0  0  0  0
    8.2076   -1.5745    0.0000 H   0  0  0  0  0  0  0  0  0  0  0  0
    8.4443   -0.7303    0.0000 H   0  0  0  0  0  0  0  0  0  0  0  0
    7.6000   -0.4936    0.0000 H   0  0  0  0  0  0  0  0  0  0  0  0
    8.4717    0.9818    0.0000 H   0  0  0  0  0  0  0  0  0  0  0  0
    9.3195    1.2055    0.0000 H   0  0  0  0  0  0  0  0  0  0  0  0
    9.0958    2.0533    0.0000 H   0  0  0  0  0  0  0  0  0  0  0  0
    8.5435    3.0185    0.0000 H   0  0  0  0  0  0  0  0  0  0  0  0
    7.9259    3.6409    0.0000 H   0  0  0  0  0  0  0  0  0  0  0  0
    7.3035    3.0233    0.0000 H   0  0  0  0  0  0  0  0  0  0  0  0
  1 10  1  0  0  0  0
  1 17  1  0  0  0  0
  2 12  1  0  0  0  0
  2 17  1  0  0  0  0
  3  9  1  0  0  0  0
  3 20  1  0  0  0  0
  4 11  2  0  0  0  0
  5  6  1  0  0  0  0
  5 11  1  0  0  0  0
  5 16  1  0  0  0  0
  6  7  2  0  0  0  0
  6 10  1  0  0  0  0
  7  9  1  0  0  0  0
  7 14  1  0  0  0  0
  8  9  2  0  0  0  0
  8 11  1  0  0  0  0
  8 13  1  0  0  0  0
 10 12  2  0  0  0  0
 12 15  1  0  0  0  0
 13 18  1  0  0  0  0
 13 23  1  0  0  0  0
 13 24  1  0  0  0  0
 14 15  2  0  0  0  0
 14 25  1  0  0  0  0
 15 26  1  0  0  0  0
 16 27  1  0  0  0  0
 16 28  1  0  0  0  0
 16 29  1  0  0  0  0
 17 30  1  0  0  0  0
 17 31  1  0  0  0  0
 18 19  2  0  0  0  0
 18 32  1  0  0  0  0
 19 21  1  0  0  0  0
 19 22  1  0  0  0  0
 20 33  1  0  0  0  0
 20 34  1  0  0  0  0
 20 35  1  0  0  0  0
 21 39  1  0  0  0  0
 21 40  1  0  0  0  0
 21 41  1  0  0  0  0
 22 36  1  0  0  0  0
 22 37  1  0  0  0  0
 22 38  1  0  0  0  0
M  END
>  <PUBCHEM_COMPOUND_CID>
167633

>  <PUBCHEM_COMPOUND_CANONICALIZED>
1

>  <PUBCHEM_CACTVS_COMPLEXITY>
521

>  <PUBCHEM_CACTVS_HBOND_ACCEPTOR>
4

>  <PUBCHEM_CACTVS_HBOND_DONOR>
0

>  <PUBCHEM_CACTVS_ROTATABLE_BOND>
3

>  <PUBCHEM_CACTVS_SUBSKEYS>
AAADceB6OAAAAAAAAAAAAAAAAAAAASAAAAAwQAAAAAAAAEiBAAAAHgAAAAAADAyBmAcyzoMABACIAiVSUACCCAAhIAAIiAEPzMgfJjLEsZulMCpmxhne6QfQ8D8OIAABAgACUABAAAIEAASgAAAAAAAAAA==

>  <PUBCHEM_IUPAC_OPENEYE_NAME>
6-methoxy-9-methyl-7-(3-methylbut-2-enyl)-[1,3]dioxolo[4,5-h]quinolin-8-one

>  <PUBCHEM_IUPAC_CAS_NAME>
6-methoxy-9-methyl-7-(3-methylbut-2-enyl)-[1,3]dioxolo[4,5-h]quinolin-8-one

>  <PUBCHEM_IUPAC_NAME>
6-methoxy-9-methyl-7-(3-methylbut-2-enyl)-[1,3]dioxolo[4,5-h]quinolin-8-one

>  <PUBCHEM_IUPAC_SYSTEMATIC_NAME>
6-methoxy-9-methyl-7-(3-methylbut-2-enyl)-[1,3]dioxolo[4,5-h]quinolin-8-one

>  <PUBCHEM_IUPAC_TRADITIONAL_NAME>
6-methoxy-9-methyl-7-(3-methylbut-2-enyl)-[1,3]dioxolo[4,5-h]quinolin-8-one

>  <PUBCHEM_IUPAC_INCHI>
InChI=1S/C17H19NO4/c1-10(2)5-6-12-15(20-4)11-7-8-13-16(22-9-21-13)14(11)18(3)17(12)19/h5,7-8H,6,9H2,1-4H3

>  <PUBCHEM_IUPAC_INCHIKEY>
VCWHRRGGVPCIEU-UHFFFAOYSA-N

>  <PUBCHEM_XLOGP3_AA>
3

>  <PUBCHEM_EXACT_MASS>
301.131

>  <PUBCHEM_MOLECULAR_FORMULA>
C17H19NO4

>  <PUBCHEM_MOLECULAR_WEIGHT>
301.342

>  <PUBCHEM_OPENEYE_CAN_SMILES>
CC(=CCC1=C(C2=C(C3=C(C=C2)OCO3)N(C1=O)C)OC)C

>  <PUBCHEM_OPENEYE_ISO_SMILES>
CC(=CCC1=C(C2=C(C3=C(C=C2)OCO3)N(C1=O)C)OC)C

>  <PUBCHEM_CACTVS_TPSA>
48

>  <PUBCHEM_MONOISOTOPIC_WEIGHT>
301.131

>  <PUBCHEM_TOTAL_CHARGE>
0

>  <PUBCHEM_HEAVY_ATOM_COUNT>
22

>  <PUBCHEM_ATOM_DEF_STEREO_COUNT>
0

>  <PUBCHEM_ATOM_UDEF_STEREO_COUNT>
0

>  <PUBCHEM_BOND_DEF_STEREO_COUNT>
0

>  <PUBCHEM_BOND_UDEF_STEREO_COUNT>
0

>  <PUBCHEM_ISOTOPIC_ATOM_COUNT>
0

>  <PUBCHEM_COMPONENT_COUNT>
1

>  <PUBCHEM_CACTVS_TAUTO_COUNT>
1

>  <PUBCHEM_COORDINATE_TYPE>
1
5
255

>  <PUBCHEM_BONDANNOTATIONS>
10  12  8
12  15  8
14  15  8
5  11  8
5  6  8
6  10  8
6  7  8
7  14  8
7  9  8
8  11  8
8  9  8

$$$$
