167673
 OpenBabel06101807152D

 42 45  0  0  0  0  0  0  0  0999 V2000
    8.1282   -1.2500    0.0000 O   0  0  0  0  0  0  0  0  0  0  0  0
    5.5301    1.2500    0.0000 O   0  0  0  0  0  0  0  0  0  0  0  0
    9.8766   -1.2846    0.0000 O   0  0  0  0  0  0  0  0  0  0  0  0
    3.7817    1.2846    0.0000 O   0  0  0  0  0  0  0  0  0  0  0  0
    8.1282    2.7500    0.0000 O   0  0  0  0  0  0  0  0  0  0  0  0
    5.5301   -2.7500    0.0000 O   0  0  0  0  0  0  0  0  0  0  0  0
    7.2622    0.2500    0.0000 C   0  0  0  0  0  0  0  0  0  0  0  0
    6.3961   -0.2500    0.0000 C   0  0  0  0  0  0  0  0  0  0  0  0
    8.9942    0.2500    0.0000 C   0  0  0  0  0  0  0  0  0  0  0  0
    4.6641   -0.2500    0.0000 C   0  0  0  0  0  0  0  0  0  0  0  0
    8.9942    1.2500    0.0000 C   0  0  0  0  0  0  0  0  0  0  0  0
    4.6641   -1.2500    0.0000 C   0  0  0  0  0  0  0  0  0  0  0  0
    5.5301    0.2500    0.0000 C   0  0  0  0  0  0  0  0  0  0  0  0
    8.1282   -0.2500    0.0000 C   0  0  0  0  0  0  0  0  0  0  0  0
    7.2622    1.2500    0.0000 C   0  0  0  0  0  0  0  0  0  0  0  0
    6.3961   -1.2500    0.0000 C   0  0  0  0  0  0  0  0  0  0  0  0
    8.1282    1.7500    0.0000 C   0  0  0  0  0  0  0  0  0  0  0  0
    5.5301   -1.7500    0.0000 C   0  0  0  0  0  0  0  0  0  0  0  0
    9.8882   -0.2847    0.0000 C   0  0  0  0  0  0  0  0  0  0  0  0
    3.7702    0.2847    0.0000 C   0  0  0  0  0  0  0  0  0  0  0  0
    9.8882    1.7847    0.0000 C   0  0  0  0  0  0  0  0  0  0  0  0
    3.7702   -1.7847    0.0000 C   0  0  0  0  0  0  0  0  0  0  0  0
   10.7942    1.2708    0.0000 C   0  0  0  0  0  0  0  0  0  0  0  0
    2.8641   -1.2708    0.0000 C   0  0  0  0  0  0  0  0  0  0  0  0
   10.7942    0.2292    0.0000 C   0  0  0  0  0  0  0  0  0  0  0  0
    2.8641   -0.2292    0.0000 C   0  0  0  0  0  0  0  0  0  0  0  0
   11.6583    1.7742    0.0000 C   0  0  0  0  0  0  0  0  0  0  0  0
    2.0000   -1.7742    0.0000 C   0  0  0  0  0  0  0  0  0  0  0  0
    6.7252    1.5600    0.0000 H   0  0  0  0  0  0  0  0  0  0  0  0
    6.9331   -1.5600    0.0000 H   0  0  0  0  0  0  0  0  0  0  0  0
    9.8810    2.4046    0.0000 H   0  0  0  0  0  0  0  0  0  0  0  0
    3.7773   -2.4046    0.0000 H   0  0  0  0  0  0  0  0  0  0  0  0
   11.3300   -0.0829    0.0000 H   0  0  0  0  0  0  0  0  0  0  0  0
    2.3284    0.0829    0.0000 H   0  0  0  0  0  0  0  0  0  0  0  0
    1.6879   -1.2384    0.0000 H   0  0  0  0  0  0  0  0  0  0  0  0
    1.4643   -2.0862    0.0000 H   0  0  0  0  0  0  0  0  0  0  0  0
    2.3121   -2.3099    0.0000 H   0  0  0  0  0  0  0  0  0  0  0  0
   11.9704    1.2384    0.0000 H   0  0  0  0  0  0  0  0  0  0  0  0
   12.1941    2.0862    0.0000 H   0  0  0  0  0  0  0  0  0  0  0  0
   11.3463    2.3099    0.0000 H   0  0  0  0  0  0  0  0  0  0  0  0
   10.4099   -1.6008    0.0000 H   0  0  0  0  0  0  0  0  0  0  0  0
    3.2484    1.6008    0.0000 H   0  0  0  0  0  0  0  0  0  0  0  0
  1 14  2  0  0  0  0
  2 13  2  0  0  0  0
  3 19  1  0  0  0  0
  3 41  1  0  0  0  0
  4 20  1  0  0  0  0
  4 42  1  0  0  0  0
  5 17  2  0  0  0  0
  6 18  2  0  0  0  0
  7  8  1  0  0  0  0
  7 14  1  0  0  0  0
  7 15  2  0  0  0  0
  8 13  1  0  0  0  0
  8 16  2  0  0  0  0
  9 11  1  0  0  0  0
  9 14  1  0  0  0  0
  9 19  2  0  0  0  0
 10 12  1  0  0  0  0
 10 13  1  0  0  0  0
 10 20  2  0  0  0  0
 11 17  1  0  0  0  0
 11 21  2  0  0  0  0
 12 18  1  0  0  0  0
 12 22  2  0  0  0  0
 15 17  1  0  0  0  0
 15 29  1  0  0  0  0
 16 18  1  0  0  0  0
 16 30  1  0  0  0  0
 19 25  1  0  0  0  0
 20 26  1  0  0  0  0
 21 23  1  0  0  0  0
 21 31  1  0  0  0  0
 22 24  1  0  0  0  0
 22 32  1  0  0  0  0
 23 25  2  0  0  0  0
 23 27  1  0  0  0  0
 24 26  2  0  0  0  0
 24 28  1  0  0  0  0
 25 33  1  0  0  0  0
 26 34  1  0  0  0  0
 27 38  1  0  0  0  0
 27 39  1  0  0  0  0
 27 40  1  0  0  0  0
 28 35  1  0  0  0  0
 28 36  1  0  0  0  0
 28 37  1  0  0  0  0
M  END
>  <PUBCHEM_COMPOUND_CID>
167673

>  <PUBCHEM_COMPOUND_CANONICALIZED>
1

>  <PUBCHEM_CACTVS_COMPLEXITY>
753

>  <PUBCHEM_CACTVS_HBOND_ACCEPTOR>
6

>  <PUBCHEM_CACTVS_HBOND_DONOR>
2

>  <PUBCHEM_CACTVS_ROTATABLE_BOND>
1

>  <PUBCHEM_CACTVS_SUBSKEYS>
AAADccB4OAAAAAAAAAAAAAAAAAAAAAAAAAAwYIEAAAAAAACBQAAAGgAACAAADASAmAAyBoAAAgCIAqBSAAACAAAkIAAAiAEGCMgIJjaCFRKAcUAk4BEImYeLyPCOwAADAAAYAACAAAYAADAAAAAAAAAAAA==

>  <PUBCHEM_IUPAC_OPENEYE_NAME>
8-hydroxy-2-(8-hydroxy-6-methyl-1,4-dioxo-2-naphthyl)-6-methyl-naphthalene-1,4-dione

>  <PUBCHEM_IUPAC_CAS_NAME>
8-hydroxy-2-(8-hydroxy-6-methyl-1,4-dioxo-2-naphthalenyl)-6-methylnaphthalene-1,4-dione

>  <PUBCHEM_IUPAC_NAME>
8-hydroxy-2-(8-hydroxy-6-methyl-1,4-dioxonaphthalen-2-yl)-6-methylnaphthalene-1,4-dione

>  <PUBCHEM_IUPAC_SYSTEMATIC_NAME>
6-methyl-2-[6-methyl-8-oxidanyl-1,4-bis(oxidanylidene)naphthalen-2-yl]-8-oxidanyl-naphthalene-1,4-dione

>  <PUBCHEM_IUPAC_TRADITIONAL_NAME>
8-hydroxy-2-(8-hydroxy-1,4-diketo-6-methyl-2-naphthyl)-6-methyl-1,4-naphthoquinone

>  <PUBCHEM_IUPAC_INCHI>
InChI=1S/C22H14O6/c1-9-3-13-15(23)7-11(21(27)19(13)17(25)5-9)12-8-16(24)14-4-10(2)6-18(26)20(14)22(12)28/h3-8,25-26H,1-2H3

>  <PUBCHEM_IUPAC_INCHIKEY>
FMQQGWMGTKBWHR-UHFFFAOYSA-N

>  <PUBCHEM_XLOGP3_AA>
3.7

>  <PUBCHEM_EXACT_MASS>
374.079

>  <PUBCHEM_MOLECULAR_FORMULA>
C22H14O6

>  <PUBCHEM_MOLECULAR_WEIGHT>
374.348

>  <PUBCHEM_OPENEYE_CAN_SMILES>
CC1=CC(=C2C(=C1)C(=O)C=C(C2=O)C3=CC(=O)C4=CC(=CC(=C4C3=O)O)C)O

>  <PUBCHEM_OPENEYE_ISO_SMILES>
CC1=CC(=C2C(=C1)C(=O)C=C(C2=O)C3=CC(=O)C4=CC(=CC(=C4C3=O)O)C)O

>  <PUBCHEM_CACTVS_TPSA>
109

>  <PUBCHEM_MONOISOTOPIC_WEIGHT>
374.079

>  <PUBCHEM_TOTAL_CHARGE>
0

>  <PUBCHEM_HEAVY_ATOM_COUNT>
28

>  <PUBCHEM_ATOM_DEF_STEREO_COUNT>
0

>  <PUBCHEM_ATOM_UDEF_STEREO_COUNT>
0

>  <PUBCHEM_BOND_DEF_STEREO_COUNT>
0

>  <PUBCHEM_BOND_UDEF_STEREO_COUNT>
0

>  <PUBCHEM_ISOTOPIC_ATOM_COUNT>
0

>  <PUBCHEM_COMPONENT_COUNT>
1

>  <PUBCHEM_CACTVS_TAUTO_COUNT>
78

>  <PUBCHEM_COORDINATE_TYPE>
1
5
255

>  <PUBCHEM_BONDANNOTATIONS>
10  12  8
10  20  8
11  21  8
12  22  8
19  25  8
20  26  8
21  23  8
22  24  8
23  25  8
24  26  8
9  11  8
9  19  8

$$$$
