171292
 OpenBabel06101807152D

 71 75  0  0  1  0  0  0  0  0999 V2000
    5.1350   -4.6862    0.0000 O   0  0  0  0  0  0  0  0  0  0  0  0
    8.6500    5.3762    0.0000 O   0  0  0  0  0  0  0  0  0  0  0  0
    6.8671   -4.6862    0.0000 O   0  0  0  0  0  0  0  0  0  0  0  0
    3.4030   -6.6862    0.0000 O   0  0  0  0  0  0  0  0  0  0  0  0
    5.1350   -7.6862    0.0000 O   0  0  0  0  0  0  0  0  0  0  0  0
   11.2500    5.8662    0.0000 O   0  0  0  0  0  0  0  0  0  0  0  0
   11.2423    3.8662    0.0000 O   0  0  0  0  0  0  0  0  0  0  0  0
    7.7782    3.8796    0.0000 O   0  0  0  0  0  0  0  0  0  0  0  0
    6.8671   -6.6862    0.0000 O   0  0  0  0  0  0  0  0  0  0  0  0
    9.5064    2.8729    0.0000 O   0  0  0  0  0  0  0  0  0  0  0  0
    2.5369   -5.1862    0.0000 O   0  0  0  0  0  0  0  0  0  0  0  0
    8.6577    7.3762    0.0000 O   0  0  0  0  0  0  0  0  0  0  0  0
    8.6230   -1.6237    0.0000 O   0  0  0  0  0  0  0  0  0  0  0  0
    6.0308   -0.1137    0.0000 O   0  0  0  0  0  0  0  0  0  0  0  0
    4.2690   -6.1862    0.0000 C   0  0  1  0  0  0  0  0  0  0  0  0
    5.1350   -6.6862    0.0000 C   0  0  1  0  0  0  0  0  0  0  0  0
   10.3820    5.3696    0.0000 C   0  0  1  0  0  0  0  0  0  0  0  0
   10.3782    4.3696    0.0000 C   0  0  1  0  0  0  0  0  0  0  0  0
    4.2690   -5.1862    0.0000 C   0  0  1  0  0  0  0  0  0  0  0  0
    6.0010   -6.1862    0.0000 C   0  0  2  0  0  0  0  0  0  0  0  0
    9.5180    5.8729    0.0000 C   0  0  1  0  0  0  0  0  0  0  0  0
    9.5102    3.8729    0.0000 C   0  0  2  0  0  0  0  0  0  0  0  0
    6.0010   -5.1862    0.0000 C   0  0  1  0  0  0  0  0  0  0  0  0
    8.6462    4.3762    0.0000 C   0  0  1  0  0  0  0  0  0  0  0  0
    3.4030   -4.6862    0.0000 C   0  0  0  0  0  0  0  0  0  0  0  0
    9.5218    6.8729    0.0000 C   0  0  0  0  0  0  0  0  0  0  0  0
    6.8671   -3.6862    0.0000 C   0  0  0  0  0  0  0  0  0  0  0  0
    7.7744    2.8796    0.0000 C   0  0  0  0  0  0  0  0  0  0  0  0
    7.7671   -3.1619    0.0000 C   0  0  0  0  0  0  0  0  0  0  0  0
    5.9670   -3.1619    0.0000 C   0  0  0  0  0  0  0  0  0  0  0  0
    6.9064    2.3829    0.0000 C   0  0  0  0  0  0  0  0  0  0  0  0
    8.6384    2.3763    0.0000 C   0  0  0  0  0  0  0  0  0  0  0  0
    7.7551   -2.1204    0.0000 C   0  0  0  0  0  0  0  0  0  0  0  0
    6.8910   -1.6170    0.0000 C   0  0  0  0  0  0  0  0  0  0  0  0
    7.7666    0.8796    0.0000 C   0  0  0  0  0  0  0  0  0  0  0  0
    5.9790   -2.1204    0.0000 C   0  0  0  0  0  0  0  0  0  0  0  0
    7.7628   -0.1204    0.0000 C   0  0  0  0  0  0  0  0  0  0  0  0
    6.9026    1.3829    0.0000 C   0  0  0  0  0  0  0  0  0  0  0  0
    8.6346    1.3763    0.0000 C   0  0  0  0  0  0  0  0  0  0  0  0
    6.8948   -0.6170    0.0000 C   0  0  0  0  0  0  0  0  0  0  0  0
    8.6269   -0.6237    0.0000 C   0  0  0  0  0  0  0  0  0  0  0  0
    4.2690   -6.8062    0.0000 H   0  0  0  0  0  0  0  0  0  0  0  0
    5.6720   -6.9962    0.0000 H   0  0  0  0  0  0  0  0  0  0  0  0
   10.9178    5.0575    0.0000 H   0  0  0  0  0  0  0  0  0  0  0  0
   10.3758    3.7496    0.0000 H   0  0  0  0  0  0  0  0  0  0  0  0
    4.2690   -4.5662    0.0000 H   0  0  0  0  0  0  0  0  0  0  0  0
    6.5380   -5.8762    0.0000 H   0  0  0  0  0  0  0  0  0  0  0  0
    8.9822    6.1850    0.0000 H   0  0  0  0  0  0  0  0  0  0  0  0
    8.9721    3.5650    0.0000 H   0  0  0  0  0  0  0  0  0  0  0  0
    6.0010   -4.5662    0.0000 H   0  0  0  0  0  0  0  0  0  0  0  0
    8.1104    4.6883    0.0000 H   0  0  0  0  0  0  0  0  0  0  0  0
    3.8015   -4.2113    0.0000 H   0  0  0  0  0  0  0  0  0  0  0  0
    3.0044   -4.2113    0.0000 H   0  0  0  0  0  0  0  0  0  0  0  0
   10.1320    6.7629    0.0000 H   0  0  0  0  0  0  0  0  0  0  0  0
    9.7361    7.4547    0.0000 H   0  0  0  0  0  0  0  0  0  0  0  0
    3.4030   -7.3062    0.0000 H   0  0  0  0  0  0  0  0  0  0  0  0
    4.5981   -7.9962    0.0000 H   0  0  0  0  0  0  0  0  0  0  0  0
   11.2524    6.4862    0.0000 H   0  0  0  0  0  0  0  0  0  0  0  0
   11.7804    4.1742    0.0000 H   0  0  0  0  0  0  0  0  0  0  0  0
    6.8671   -7.3062    0.0000 H   0  0  0  0  0  0  0  0  0  0  0  0
   10.0421    2.5608    0.0000 H   0  0  0  0  0  0  0  0  0  0  0  0
    2.0000   -4.8762    0.0000 H   0  0  0  0  0  0  0  0  0  0  0  0
    8.6601    7.9962    0.0000 H   0  0  0  0  0  0  0  0  0  0  0  0
    8.3064   -3.4678    0.0000 H   0  0  0  0  0  0  0  0  0  0  0  0
    5.4277   -3.4678    0.0000 H   0  0  0  0  0  0  0  0  0  0  0  0
    6.3707    2.6950    0.0000 H   0  0  0  0  0  0  0  0  0  0  0  0
    9.1766    2.6842    0.0000 H   0  0  0  0  0  0  0  0  0  0  0  0
    5.4470   -1.8021    0.0000 H   0  0  0  0  0  0  0  0  0  0  0  0
    6.3644    1.0750    0.0000 H   0  0  0  0  0  0  0  0  0  0  0  0
    9.1703    1.0642    0.0000 H   0  0  0  0  0  0  0  0  0  0  0  0
    9.1650   -0.3158    0.0000 H   0  0  0  0  0  0  0  0  0  0  0  0
  1 19  1  0  0  0  0
  1 23  1  0  0  0  0
  2 21  1  0  0  0  0
  2 24  1  0  0  0  0
  3 27  1  0  0  0  0
  4 56  1  0  0  0  0
  5 57  1  0  0  0  0
  6 58  1  0  0  0  0
  7 59  1  0  0  0  0
  8 28  1  0  0  0  0
  9 60  1  0  0  0  0
 10 61  1  0  0  0  0
 11 25  1  0  0  0  0
 11 62  1  0  0  0  0
 12 26  1  0  0  0  0
 12 63  1  0  0  0  0
 13 33  1  0  0  0  0
 13 41  1  0  0  0  0
 14 40  2  0  0  0  0
 15  4  1  0  0  0  0
 15 16  1  6  0  0  0
 15 42  1  0  0  0  0
 16  5  1  0  0  0  0
 16 20  1  1  0  0  0
 16 43  1  0  0  0  0
 17  6  1  0  0  0  0
 17 18  1  1  0  0  0
 17 44  1  0  0  0  0
 18  7  1  0  0  0  0
 18 22  1  6  0  0  0
 18 45  1  0  0  0  0
 19 15  1  6  0  0  0
 19 25  1  0  0  0  0
 19 46  1  0  0  0  0
 20  9  1  0  0  0  0
 20 23  1  6  0  0  0
 20 47  1  0  0  0  0
 21 17  1  1  0  0  0
 21 26  1  0  0  0  0
 21 48  1  0  0  0  0
 22 10  1  0  0  0  0
 22 24  1  1  0  0  0
 22 49  1  0  0  0  0
 23  3  1  0  0  0  0
 23 50  1  6  0  0  0
 24  8  1  0  0  0  0
 24 51  1  1  0  0  0
 25 52  1  0  0  0  0
 25 53  1  0  0  0  0
 26 54  1  0  0  0  0
 26 55  1  0  0  0  0
 27 29  2  0  0  0  0
 27 30  1  0  0  0  0
 28 31  2  0  0  0  0
 28 32  1  0  0  0  0
 29 33  1  0  0  0  0
 29 64  1  0  0  0  0
 30 36  2  0  0  0  0
 30 65  1  0  0  0  0
 31 38  1  0  0  0  0
 31 66  1  0  0  0  0
 32 39  2  0  0  0  0
 32 67  1  0  0  0  0
 33 34  2  0  0  0  0
 34 36  1  0  0  0  0
 34 40  1  0  0  0  0
 35 37  1  0  0  0  0
 35 38  2  0  0  0  0
 35 39  1  0  0  0  0
 36 68  1  0  0  0  0
 37 40  1  0  0  0  0
 37 41  2  0  0  0  0
 38 69  1  0  0  0  0
 39 70  1  0  0  0  0
 41 71  1  0  0  0  0
M  END
>  <PUBCHEM_COMPOUND_CID>
171292

>  <PUBCHEM_COMPOUND_CANONICALIZED>
1

>  <PUBCHEM_CACTVS_COMPLEXITY>
924

>  <PUBCHEM_CACTVS_HBOND_ACCEPTOR>
14

>  <PUBCHEM_CACTVS_HBOND_DONOR>
8

>  <PUBCHEM_CACTVS_ROTATABLE_BOND>
7

>  <PUBCHEM_CACTVS_SUBSKEYS>
AAADceB4PAAAAAAAAAAAAAAAAAAAAAAAAAA0aIECAAAAAACBQAAAGgAACAAADBSwmAMwDoAABgCIAqBSAAACCAAkIAAIiAEGCMgdNzaENRqieWCl4BUPqYfI7PzOIAAACAAIAABAAAAQABAAAAAAAAAAAA==

>  <PUBCHEM_IUPAC_OPENEYE_NAME>
7-[(2S,3R,4S,5S,6R)-3,4,5-trihydroxy-6-(hydroxymethyl)tetrahydropyran-2-yl]oxy-3-[4-[(2S,3R,4S,5S,6R)-3,4,5-trihydroxy-6-(hydroxymethyl)tetrahydropyran-2-yl]oxyphenyl]chromen-4-one

>  <PUBCHEM_IUPAC_CAS_NAME>
7-[[(2S,3R,4S,5S,6R)-3,4,5-trihydroxy-6-(hydroxymethyl)-2-oxanyl]oxy]-3-[4-[[(2S,3R,4S,5S,6R)-3,4,5-trihydroxy-6-(hydroxymethyl)-2-oxanyl]oxy]phenyl]-1-benzopyran-4-one

>  <PUBCHEM_IUPAC_NAME>
7-[(2S,3R,4S,5S,6R)-3,4,5-trihydroxy-6-(hydroxymethyl)oxan-2-yl]oxy-3-[4-[(2S,3R,4S,5S,6R)-3,4,5-trihydroxy-6-(hydroxymethyl)oxan-2-yl]oxyphenyl]chromen-4-one

>  <PUBCHEM_IUPAC_SYSTEMATIC_NAME>
7-[(2S,3R,4S,5S,6R)-6-(hydroxymethyl)-3,4,5-tris(oxidanyl)oxan-2-yl]oxy-3-[4-[(2S,3R,4S,5S,6R)-6-(hydroxymethyl)-3,4,5-tris(oxidanyl)oxan-2-yl]oxyphenyl]chromen-4-one

>  <PUBCHEM_IUPAC_TRADITIONAL_NAME>
7-[(2S,3R,4S,5S,6R)-3,4,5-trihydroxy-6-methylol-tetrahydropyran-2-yl]oxy-3-[4-[(2S,3R,4S,5S,6R)-3,4,5-trihydroxy-6-methylol-tetrahydropyran-2-yl]oxyphenyl]chromone

>  <PUBCHEM_IUPAC_INCHI>
InChI=1S/C27H30O14/c28-8-17-20(31)22(33)24(35)26(40-17)38-12-3-1-11(2-4-12)15-10-37-16-7-13(5-6-14(16)19(15)30)39-27-25(36)23(34)21(32)18(9-29)41-27/h1-7,10,17-18,20-29,31-36H,8-9H2/t17-,18-,20-,21-,22+,23+,24-,25-,26-,27-/m1/s1

>  <PUBCHEM_IUPAC_INCHIKEY>
VWEWSCDQMVNOJP-IPOZFMEPSA-N

>  <PUBCHEM_XLOGP3_AA>
-1.1

>  <PUBCHEM_EXACT_MASS>
578.164

>  <PUBCHEM_MOLECULAR_FORMULA>
C27H30O14

>  <PUBCHEM_MOLECULAR_WEIGHT>
578.523

>  <PUBCHEM_OPENEYE_CAN_SMILES>
C1=CC(=CC=C1C2=COC3=C(C2=O)C=CC(=C3)OC4C(C(C(C(O4)CO)O)O)O)OC5C(C(C(C(O5)CO)O)O)O

>  <PUBCHEM_OPENEYE_ISO_SMILES>
C1=CC(=CC=C1C2=COC3=C(C2=O)C=CC(=C3)O[C@H]4[C@@H]([C@H]([C@@H]([C@H](O4)CO)O)O)O)O[C@H]5[C@@H]([C@H]([C@@H]([C@H](O5)CO)O)O)O

>  <PUBCHEM_CACTVS_TPSA>
225

>  <PUBCHEM_MONOISOTOPIC_WEIGHT>
578.164

>  <PUBCHEM_TOTAL_CHARGE>
0

>  <PUBCHEM_HEAVY_ATOM_COUNT>
41

>  <PUBCHEM_ATOM_DEF_STEREO_COUNT>
10

>  <PUBCHEM_ATOM_UDEF_STEREO_COUNT>
0

>  <PUBCHEM_BOND_DEF_STEREO_COUNT>
0

>  <PUBCHEM_BOND_UDEF_STEREO_COUNT>
0

>  <PUBCHEM_ISOTOPIC_ATOM_COUNT>
0

>  <PUBCHEM_COMPONENT_COUNT>
1

>  <PUBCHEM_CACTVS_TAUTO_COUNT>
1

>  <PUBCHEM_COORDINATE_TYPE>
1
5
255

>  <PUBCHEM_BONDANNOTATIONS>
22  10  5
13  33  8
13  41  8
19  25  5
21  26  6
27  29  8
27  30  8
28  31  8
28  32  8
29  33  8
23  3  5
30  36  8
31  38  8
32  39  8
33  34  8
34  36  8
34  40  8
35  38  8
35  39  8
37  40  8
37  41  8
15  4  6
16  5  5
17  6  5
18  7  6
24  8  6
20  9  6

$$$$
