17429
 OpenBabel06101807152D

 19 19  0  0  0  0  0  0  0  0999 V2000
    2.0000   -1.7500    0.0000 O   0  0  0  0  0  0  0  0  0  0  0  0
    2.8660   -0.2500    0.0000 N   0  0  0  0  0  0  0  0  0  0  0  0
    2.8660    1.7500    0.0000 C   0  0  0  0  0  0  0  0  0  0  0  0
    3.7320    1.2500    0.0000 C   0  0  0  0  0  0  0  0  0  0  0  0
    2.0000    1.2500    0.0000 C   0  0  0  0  0  0  0  0  0  0  0  0
    2.0000    0.2500    0.0000 C   0  0  0  0  0  0  0  0  0  0  0  0
    3.7320    0.2500    0.0000 C   0  0  0  0  0  0  0  0  0  0  0  0
    2.8660   -1.2500    0.0000 C   0  0  0  0  0  0  0  0  0  0  0  0
    3.2646    2.2250    0.0000 H   0  0  0  0  0  0  0  0  0  0  0  0
    2.4675    2.2250    0.0000 H   0  0  0  0  0  0  0  0  0  0  0  0
    4.3426    1.1423    0.0000 H   0  0  0  0  0  0  0  0  0  0  0  0
    3.9441    1.8326    0.0000 H   0  0  0  0  0  0  0  0  0  0  0  0
    1.7880    1.8326    0.0000 H   0  0  0  0  0  0  0  0  0  0  0  0
    1.3894    1.1423    0.0000 H   0  0  0  0  0  0  0  0  0  0  0  0
    3.9441   -0.3326    0.0000 H   0  0  0  0  0  0  0  0  0  0  0  0
    4.3426    0.3577    0.0000 H   0  0  0  0  0  0  0  0  0  0  0  0
    1.3894    0.3577    0.0000 H   0  0  0  0  0  0  0  0  0  0  0  0
    1.7880   -0.3326    0.0000 H   0  0  0  0  0  0  0  0  0  0  0  0
    3.4030   -1.5600    0.0000 H   0  0  0  0  0  0  0  0  0  0  0  0
  1  8  2  0  0  0  0
  2  6  1  0  0  0  0
  2  7  1  0  0  0  0
  2  8  1  0  0  0  0
  3  4  1  0  0  0  0
  3  5  1  0  0  0  0
  3  9  1  0  0  0  0
  3 10  1  0  0  0  0
  4  7  1  0  0  0  0
  4 11  1  0  0  0  0
  4 12  1  0  0  0  0
  5  6  1  0  0  0  0
  5 13  1  0  0  0  0
  5 14  1  0  0  0  0
  6 17  1  0  0  0  0
  6 18  1  0  0  0  0
  7 15  1  0  0  0  0
  7 16  1  0  0  0  0
  8 19  1  0  0  0  0
M  END
>  <PUBCHEM_COMPOUND_CID>
17429

>  <PUBCHEM_COMPOUND_CANONICALIZED>
1

>  <PUBCHEM_CACTVS_COMPLEXITY>
76.6

>  <PUBCHEM_CACTVS_HBOND_ACCEPTOR>
1

>  <PUBCHEM_CACTVS_HBOND_DONOR>
0

>  <PUBCHEM_CACTVS_ROTATABLE_BOND>
0

>  <PUBCHEM_CACTVS_SUBSKEYS>
AAADccBiIAAAAAAAAAAAAAAAAAAAAAAAAAAsAAAAAAAAAAAAAAAAHgAAAAAACADBAAYAAAMAAAAIAAAAkAAAAAAAAAAAAAAIAAAAAAIAgAAEAAAABgCAAAAQAAAAAAAAAAAAAAAAAAAAAAAAAAAAAAAAAA==

>  <PUBCHEM_IUPAC_OPENEYE_NAME>
piperidine-1-carbaldehyde

>  <PUBCHEM_IUPAC_CAS_NAME>
1-piperidinecarboxaldehyde

>  <PUBCHEM_IUPAC_NAME>
piperidine-1-carbaldehyde

>  <PUBCHEM_IUPAC_SYSTEMATIC_NAME>
piperidine-1-carbaldehyde

>  <PUBCHEM_IUPAC_TRADITIONAL_NAME>
piperidine-1-carbaldehyde

>  <PUBCHEM_IUPAC_INCHI>
InChI=1S/C6H11NO/c8-6-7-4-2-1-3-5-7/h6H,1-5H2

>  <PUBCHEM_IUPAC_INCHIKEY>
FEWLNYSYJNLUOO-UHFFFAOYSA-N

>  <PUBCHEM_XLOGP3>
0

>  <PUBCHEM_EXACT_MASS>
113.084

>  <PUBCHEM_MOLECULAR_FORMULA>
C6H11NO

>  <PUBCHEM_MOLECULAR_WEIGHT>
113.16

>  <PUBCHEM_OPENEYE_CAN_SMILES>
C1CCN(CC1)C=O

>  <PUBCHEM_OPENEYE_ISO_SMILES>
C1CCN(CC1)C=O

>  <PUBCHEM_CACTVS_TPSA>
20.3

>  <PUBCHEM_MONOISOTOPIC_WEIGHT>
113.084

>  <PUBCHEM_TOTAL_CHARGE>
0

>  <PUBCHEM_HEAVY_ATOM_COUNT>
8

>  <PUBCHEM_ATOM_DEF_STEREO_COUNT>
0

>  <PUBCHEM_ATOM_UDEF_STEREO_COUNT>
0

>  <PUBCHEM_BOND_DEF_STEREO_COUNT>
0

>  <PUBCHEM_BOND_UDEF_STEREO_COUNT>
0

>  <PUBCHEM_ISOTOPIC_ATOM_COUNT>
0

>  <PUBCHEM_COMPONENT_COUNT>
1

>  <PUBCHEM_CACTVS_TAUTO_COUNT>
1

>  <PUBCHEM_COORDINATE_TYPE>
1
5
255

$$$$
