177023
 OpenBabel06101807152D

 38 43  0  0  0  0  0  0  0  0999 V2000
    4.9820    2.5564    0.0000 O   0  0  0  0  0  0  0  0  0  0  0  0
    4.5732   -2.2489    0.0000 O   0  0  0  0  0  0  0  0  0  0  0  0
    3.1278   -3.0983    0.0000 O   0  0  0  0  0  0  0  0  0  0  0  0
    8.1944   -0.2137    0.0000 O   0  0  0  0  0  0  0  0  0  0  0  0
    8.1944   -1.8232    0.0000 O   0  0  0  0  0  0  0  0  0  0  0  0
    3.3254    3.1977    0.0000 O   0  0  0  0  0  0  0  0  0  0  0  0
    4.6501   -0.0184    0.0000 C   0  0  0  0  0  0  0  0  0  0  0  0
    3.7841   -0.5184    0.0000 C   0  0  0  0  0  0  0  0  0  0  0  0
    4.6501    0.9816    0.0000 C   0  0  0  0  0  0  0  0  0  0  0  0
    2.9180   -0.0184    0.0000 C   0  0  0  0  0  0  0  0  0  0  0  0
    3.7841    1.4816    0.0000 C   0  0  0  0  0  0  0  0  0  0  0  0
    5.5161   -0.5184    0.0000 C   0  0  0  0  0  0  0  0  0  0  0  0
    3.8001   -1.5600    0.0000 C   0  0  0  0  0  0  0  0  0  0  0  0
    5.3871    1.6486    0.0000 C   0  0  0  0  0  0  0  0  0  0  0  0
    2.9180    0.9816    0.0000 C   0  0  0  0  0  0  0  0  0  0  0  0
    2.9021   -2.0877    0.0000 C   0  0  0  0  0  0  0  0  0  0  0  0
    2.0080   -0.5253    0.0000 C   0  0  0  0  0  0  0  0  0  0  0  0
    3.9933    2.4534    0.0000 C   0  0  0  0  0  0  0  0  0  0  0  0
    6.3821   -0.0184    0.0000 C   0  0  0  0  0  0  0  0  0  0  0  0
    2.0000   -1.5669    0.0000 C   0  0  0  0  0  0  0  0  0  0  0  0
    5.5161   -1.5184    0.0000 C   0  0  0  0  0  0  0  0  0  0  0  0
    7.2482   -0.5184    0.0000 C   0  0  0  0  0  0  0  0  0  0  0  0
    7.2482   -1.5184    0.0000 C   0  0  0  0  0  0  0  0  0  0  0  0
    4.1585   -3.1977    0.0000 C   0  0  0  0  0  0  0  0  0  0  0  0
    6.3821   -2.0184    0.0000 C   0  0  0  0  0  0  0  0  0  0  0  0
    8.7780   -1.0184    0.0000 C   0  0  0  0  0  0  0  0  0  0  0  0
    5.7525    1.1478    0.0000 H   0  0  0  0  0  0  0  0  0  0  0  0
    5.9236    1.9594    0.0000 H   0  0  0  0  0  0  0  0  0  0  0  0
    2.3811    1.2916    0.0000 H   0  0  0  0  0  0  0  0  0  0  0  0
    1.4747   -0.2091    0.0000 H   0  0  0  0  0  0  0  0  0  0  0  0
    6.3821    0.6016    0.0000 H   0  0  0  0  0  0  0  0  0  0  0  0
    1.4619   -1.8748    0.0000 H   0  0  0  0  0  0  0  0  0  0  0  0
    4.9792   -1.8284    0.0000 H   0  0  0  0  0  0  0  0  0  0  0  0
    4.0344   -3.8051    0.0000 H   0  0  0  0  0  0  0  0  0  0  0  0
    4.7495   -3.3849    0.0000 H   0  0  0  0  0  0  0  0  0  0  0  0
    6.3821   -2.6385    0.0000 H   0  0  0  0  0  0  0  0  0  0  0  0
    9.2389   -1.4332    0.0000 H   0  0  0  0  0  0  0  0  0  0  0  0
    9.2389   -0.6037    0.0000 H   0  0  0  0  0  0  0  0  0  0  0  0
  1 14  1  0  0  0  0
  1 18  1  0  0  0  0
  2 13  1  0  0  0  0
  2 24  1  0  0  0  0
  3 16  1  0  0  0  0
  3 24  1  0  0  0  0
  4 22  1  0  0  0  0
  4 26  1  0  0  0  0
  5 23  1  0  0  0  0
  5 26  1  0  0  0  0
  6 18  2  0  0  0  0
  7  8  2  0  0  0  0
  7  9  1  0  0  0  0
  7 12  1  0  0  0  0
  8 10  1  0  0  0  0
  8 13  1  0  0  0  0
  9 11  2  0  0  0  0
  9 14  1  0  0  0  0
 10 15  2  0  0  0  0
 10 17  1  0  0  0  0
 11 15  1  0  0  0  0
 11 18  1  0  0  0  0
 12 19  2  0  0  0  0
 12 21  1  0  0  0  0
 13 16  2  0  0  0  0
 14 27  1  0  0  0  0
 14 28  1  0  0  0  0
 15 29  1  0  0  0  0
 16 20  1  0  0  0  0
 17 20  2  0  0  0  0
 17 30  1  0  0  0  0
 19 22  1  0  0  0  0
 19 31  1  0  0  0  0
 20 32  1  0  0  0  0
 21 25  2  0  0  0  0
 21 33  1  0  0  0  0
 22 23  2  0  0  0  0
 23 25  1  0  0  0  0
 24 34  1  0  0  0  0
 24 35  1  0  0  0  0
 25 36  1  0  0  0  0
 26 37  1  0  0  0  0
 26 38  1  0  0  0  0
M  END
>  <PUBCHEM_COMPOUND_CID>
177023

>  <PUBCHEM_COMPOUND_CANONICALIZED>
1

>  <PUBCHEM_CACTVS_COMPLEXITY>
581

>  <PUBCHEM_CACTVS_HBOND_ACCEPTOR>
6

>  <PUBCHEM_CACTVS_HBOND_DONOR>
0

>  <PUBCHEM_CACTVS_ROTATABLE_BOND>
1

>  <PUBCHEM_CACTVS_SUBSKEYS>
AAADccB4OAAAAAAAAAAAAAAAAAAAASJEgAAwYMAAAAAAAEjBVAAAGgAAAAAADASgmAMwDsAABACIAiDSCAACCAAkIAAIiAEGiMgdJjKENRqiMSIkwBEOqYeK6PyO4AADAAAYQADAAAYAADCAAAAAAAAAAA==

>  <PUBCHEM_IUPAC_OPENEYE_NAME>
10-(1,3-benzodioxol-5-yl)-9H-isobenzofuro[6,5-g][1,3]benzodioxol-7-one

>  <PUBCHEM_IUPAC_CAS_NAME>
10-(1,3-benzodioxol-5-yl)-9H-isobenzofuro[6,5-g][1,3]benzodioxol-7-one

>  <PUBCHEM_IUPAC_NAME>
10-(1,3-benzodioxol-5-yl)-9H-[2]benzofuro[6,5-g][1,3]benzodioxol-7-one

>  <PUBCHEM_IUPAC_SYSTEMATIC_NAME>
10-(1,3-benzodioxol-5-yl)-9H-[2]benzofuro[6,5-g][1,3]benzodioxol-7-one

>  <PUBCHEM_IUPAC_TRADITIONAL_NAME>
10-(1,3-benzodioxol-5-yl)-9H-isobenzofuro[6,5-g][1,3]benzodioxol-7-one

>  <PUBCHEM_IUPAC_INCHI>
InChI=1S/C20H12O6/c21-20-12-5-10-2-4-15-19(26-9-24-15)18(10)17(13(12)7-22-20)11-1-3-14-16(6-11)25-8-23-14/h1-6H,7-9H2

>  <PUBCHEM_IUPAC_INCHIKEY>
JUBRYHUFFFYTGR-UHFFFAOYSA-N

>  <PUBCHEM_XLOGP3_AA>
3.8

>  <PUBCHEM_EXACT_MASS>
348.063

>  <PUBCHEM_MOLECULAR_FORMULA>
C20H12O6

>  <PUBCHEM_MOLECULAR_WEIGHT>
348.31

>  <PUBCHEM_OPENEYE_CAN_SMILES>
C1C2=C(C=C3C=CC4=C(C3=C2C5=CC6=C(C=C5)OCO6)OCO4)C(=O)O1

>  <PUBCHEM_OPENEYE_ISO_SMILES>
C1C2=C(C=C3C=CC4=C(C3=C2C5=CC6=C(C=C5)OCO6)OCO4)C(=O)O1

>  <PUBCHEM_CACTVS_TPSA>
63.2

>  <PUBCHEM_MONOISOTOPIC_WEIGHT>
348.063

>  <PUBCHEM_TOTAL_CHARGE>
0

>  <PUBCHEM_HEAVY_ATOM_COUNT>
26

>  <PUBCHEM_ATOM_DEF_STEREO_COUNT>
0

>  <PUBCHEM_ATOM_UDEF_STEREO_COUNT>
0

>  <PUBCHEM_BOND_DEF_STEREO_COUNT>
0

>  <PUBCHEM_BOND_UDEF_STEREO_COUNT>
0

>  <PUBCHEM_ISOTOPIC_ATOM_COUNT>
0

>  <PUBCHEM_COMPONENT_COUNT>
1

>  <PUBCHEM_CACTVS_TAUTO_COUNT>
1

>  <PUBCHEM_COORDINATE_TYPE>
1
5
255

>  <PUBCHEM_BONDANNOTATIONS>
10  15  8
10  17  8
11  15  8
12  19  8
12  21  8
13  16  8
16  20  8
17  20  8
19  22  8
21  25  8
22  23  8
23  25  8
7  8  8
7  9  8
8  10  8
8  13  8
9  11  8

$$$$
