177072
 OpenBabel06101807152D

 38 39  0  0  1  0  0  0  0  0999 V2000
    2.8660    1.5000    0.0000 O   0  0  0  0  0  0  0  0  0  0  0  0
    5.4641    0.0000    0.0000 C   0  0  2  0  0  0  0  0  0  0  0  0
    6.3580   -0.5347    0.0000 C   0  0  2  0  0  0  0  0  0  0  0  0
    5.4641    1.0000    0.0000 C   0  0  0  0  0  0  0  0  0  0  0  0
    7.2641   -0.0208    0.0000 C   0  0  0  0  0  0  0  0  0  0  0  0
    4.5981   -0.5000    0.0000 C   0  0  0  0  0  0  0  0  0  0  0  0
    6.3580    1.5346    0.0000 C   0  0  0  0  0  0  0  0  0  0  0  0
    7.2641    1.0208    0.0000 C   0  0  0  0  0  0  0  0  0  0  0  0
    5.4641   -1.0000    0.0000 C   0  0  0  0  0  0  0  0  0  0  0  0
    6.3465   -1.5346    0.0000 C   0  0  0  0  0  0  0  0  0  0  0  0
    3.7320    0.0000    0.0000 C   0  0  0  0  0  0  0  0  0  0  0  0
    4.5981    1.5000    0.0000 C   0  0  0  0  0  0  0  0  0  0  0  0
    3.7320    1.0000    0.0000 C   0  0  0  0  0  0  0  0  0  0  0  0
    2.8660   -0.5000    0.0000 C   0  0  0  0  0  0  0  0  0  0  0  0
    2.8660   -1.5000    0.0000 C   0  0  0  0  0  0  0  0  0  0  0  0
    2.0000    0.0000    0.0000 C   0  0  0  0  0  0  0  0  0  0  0  0
    6.8920   -0.8499    0.0000 H   0  0  0  0  0  0  0  0  0  0  0  0
    7.4732   -0.6045    0.0000 H   0  0  0  0  0  0  0  0  0  0  0  0
    7.8750    0.0852    0.0000 H   0  0  0  0  0  0  0  0  0  0  0  0
    4.1996   -0.9750    0.0000 H   0  0  0  0  0  0  0  0  0  0  0  0
    4.9966   -0.9750    0.0000 H   0  0  0  0  0  0  0  0  0  0  0  0
    6.7517    2.0136    0.0000 H   0  0  0  0  0  0  0  0  0  0  0  0
    5.9534    2.0044    0.0000 H   0  0  0  0  0  0  0  0  0  0  0  0
    7.8750    0.9147    0.0000 H   0  0  0  0  0  0  0  0  0  0  0  0
    7.4732    1.6045    0.0000 H   0  0  0  0  0  0  0  0  0  0  0  0
    4.8441   -1.0000    0.0000 H   0  0  0  0  0  0  0  0  0  0  0  0
    5.4641   -1.6200    0.0000 H   0  0  0  0  0  0  0  0  0  0  0  0
    6.0841   -1.0000    0.0000 H   0  0  0  0  0  0  0  0  0  0  0  0
    5.7265   -1.5275    0.0000 H   0  0  0  0  0  0  0  0  0  0  0  0
    6.3393   -2.1546    0.0000 H   0  0  0  0  0  0  0  0  0  0  0  0
    6.9664   -1.5418    0.0000 H   0  0  0  0  0  0  0  0  0  0  0  0
    4.5981    2.1200    0.0000 H   0  0  0  0  0  0  0  0  0  0  0  0
    2.2460   -1.5000    0.0000 H   0  0  0  0  0  0  0  0  0  0  0  0
    2.8660   -2.1200    0.0000 H   0  0  0  0  0  0  0  0  0  0  0  0
    3.4860   -1.5000    0.0000 H   0  0  0  0  0  0  0  0  0  0  0  0
    2.3100    0.5369    0.0000 H   0  0  0  0  0  0  0  0  0  0  0  0
    1.4631    0.3100    0.0000 H   0  0  0  0  0  0  0  0  0  0  0  0
    1.6900   -0.5370    0.0000 H   0  0  0  0  0  0  0  0  0  0  0  0
  1 13  2  0  0  0  0
  2  3  1  1  0  0  0
  2  4  1  0  0  0  0
  2  6  1  0  0  0  0
  2  9  1  0  0  0  0
  3  5  1  0  0  0  0
  3 10  1  0  0  0  0
  3 17  1  1  0  0  0
  4  7  1  0  0  0  0
  4 12  2  0  0  0  0
  5  8  1  0  0  0  0
  5 18  1  0  0  0  0
  5 19  1  0  0  0  0
  6 11  1  0  0  0  0
  6 20  1  0  0  0  0
  6 21  1  0  0  0  0
  7  8  1  0  0  0  0
  7 22  1  0  0  0  0
  7 23  1  0  0  0  0
  8 24  1  0  0  0  0
  8 25  1  0  0  0  0
  9 26  1  0  0  0  0
  9 27  1  0  0  0  0
  9 28  1  0  0  0  0
 10 29  1  0  0  0  0
 10 30  1  0  0  0  0
 10 31  1  0  0  0  0
 11 13  1  0  0  0  0
 11 14  2  0  0  0  0
 12 13  1  0  0  0  0
 12 32  1  0  0  0  0
 14 15  1  0  0  0  0
 14 16  1  0  0  0  0
 15 33  1  0  0  0  0
 15 34  1  0  0  0  0
 15 35  1  0  0  0  0
 16 36  1  0  0  0  0
 16 37  1  0  0  0  0
 16 38  1  0  0  0  0
M  END
>  <PUBCHEM_COMPOUND_CID>
177072

>  <PUBCHEM_COMPOUND_CANONICALIZED>
1

>  <PUBCHEM_CACTVS_COMPLEXITY>
382

>  <PUBCHEM_CACTVS_HBOND_ACCEPTOR>
1

>  <PUBCHEM_CACTVS_HBOND_DONOR>
0

>  <PUBCHEM_CACTVS_ROTATABLE_BOND>
0

>  <PUBCHEM_CACTVS_SUBSKEYS>
AAADceBwIAAAAAAAAAAAAAAAAAAAAAAAAAAwQAAAAAAAAACAAAAAGgAAAAAADwSAgAACAAAAAACIAqBSAAAAAAAgAAAACAEAAEgAABIAAQAAAAAAgAAIAQMIiMCPgAAAAAAAAAAAAAAAACAAAAAAAAAAAA==

>  <PUBCHEM_IUPAC_OPENEYE_NAME>
(4aR,5S)-3-isopropylidene-4a,5-dimethyl-5,6,7,8-tetrahydro-4H-naphthalen-2-one

>  <PUBCHEM_IUPAC_CAS_NAME>
(4aR,5S)-4a,5-dimethyl-3-propan-2-ylidene-5,6,7,8-tetrahydro-4H-naphthalen-2-one

>  <PUBCHEM_IUPAC_NAME>
(4aR,5S)-4a,5-dimethyl-3-propan-2-ylidene-5,6,7,8-tetrahydro-4H-naphthalen-2-one

>  <PUBCHEM_IUPAC_SYSTEMATIC_NAME>
(4aR,5S)-4a,5-dimethyl-3-propan-2-ylidene-5,6,7,8-tetrahydro-4H-naphthalen-2-one

>  <PUBCHEM_IUPAC_TRADITIONAL_NAME>
(4aR,5S)-3-isopropylidene-4a,5-dimethyl-5,6,7,8-tetrahydro-4H-naphthalen-2-one

>  <PUBCHEM_IUPAC_INCHI>
InChI=1S/C15H22O/c1-10(2)13-9-15(4)11(3)6-5-7-12(15)8-14(13)16/h8,11H,5-7,9H2,1-4H3/t11-,15+/m0/s1

>  <PUBCHEM_IUPAC_INCHIKEY>
DZOKWSREAZGFFC-XHDPSFHLSA-N

>  <PUBCHEM_XLOGP3_AA>
4.1

>  <PUBCHEM_EXACT_MASS>
218.167

>  <PUBCHEM_MOLECULAR_FORMULA>
C15H22O

>  <PUBCHEM_MOLECULAR_WEIGHT>
218.34

>  <PUBCHEM_OPENEYE_CAN_SMILES>
CC1CCCC2=CC(=O)C(=C(C)C)CC12C

>  <PUBCHEM_OPENEYE_ISO_SMILES>
C[C@H]1CCCC2=CC(=O)C(=C(C)C)C[C@]12C

>  <PUBCHEM_CACTVS_TPSA>
17.1

>  <PUBCHEM_MONOISOTOPIC_WEIGHT>
218.167

>  <PUBCHEM_TOTAL_CHARGE>
0

>  <PUBCHEM_HEAVY_ATOM_COUNT>
16

>  <PUBCHEM_ATOM_DEF_STEREO_COUNT>
2

>  <PUBCHEM_ATOM_UDEF_STEREO_COUNT>
0

>  <PUBCHEM_BOND_DEF_STEREO_COUNT>
0

>  <PUBCHEM_BOND_UDEF_STEREO_COUNT>
0

>  <PUBCHEM_ISOTOPIC_ATOM_COUNT>
0

>  <PUBCHEM_COMPONENT_COUNT>
1

>  <PUBCHEM_CACTVS_TAUTO_COUNT>
8

>  <PUBCHEM_COORDINATE_TYPE>
1
5
255

>  <PUBCHEM_BONDANNOTATIONS>
2  9  6
3  10  6

$$$$
