177696
 OpenBabel06101807152D

 42 44  0  0  0  0  0  0  0  0999 V2000
    6.3580   -0.2699    0.0000 O   0  0  0  0  0  0  0  0  0  0  0  0
    4.5981   -1.2352    0.0000 O   0  0  0  0  0  0  0  0  0  0  0  0
    2.8660    1.7648    0.0000 O   0  0  0  0  0  0  0  0  0  0  0  0
    4.5981    2.7648    0.0000 O   0  0  0  0  0  0  0  0  0  0  0  0
    2.8660   -0.2352    0.0000 O   0  0  0  0  0  0  0  0  0  0  0  0
    6.3465    2.7994    0.0000 O   0  0  0  0  0  0  0  0  0  0  0  0
   10.7205   -1.7694    0.0000 O   0  0  0  0  0  0  0  0  0  0  0  0
    8.9846   -2.7627    0.0000 O   0  0  0  0  0  0  0  0  0  0  0  0
    5.4641    1.2648    0.0000 C   0  0  0  0  0  0  0  0  0  0  0  0
    5.4641    0.2648    0.0000 C   0  0  0  0  0  0  0  0  0  0  0  0
    7.2641    0.2440    0.0000 C   0  0  0  0  0  0  0  0  0  0  0  0
    4.5981   -0.2352    0.0000 C   0  0  0  0  0  0  0  0  0  0  0  0
    4.5981    1.7648    0.0000 C   0  0  0  0  0  0  0  0  0  0  0  0
    6.3580    1.7994    0.0000 C   0  0  0  0  0  0  0  0  0  0  0  0
    3.7320    1.2648    0.0000 C   0  0  0  0  0  0  0  0  0  0  0  0
    8.1282   -0.2594    0.0000 C   0  0  0  0  0  0  0  0  0  0  0  0
    3.7320    0.2648    0.0000 C   0  0  0  0  0  0  0  0  0  0  0  0
    7.2641    1.2856    0.0000 C   0  0  0  0  0  0  0  0  0  0  0  0
    8.1244   -1.2594    0.0000 C   0  0  0  0  0  0  0  0  0  0  0  0
    8.9962    0.2373    0.0000 C   0  0  0  0  0  0  0  0  0  0  0  0
    8.9884   -1.7627    0.0000 C   0  0  0  0  0  0  0  0  0  0  0  0
    9.8602   -0.2661    0.0000 C   0  0  0  0  0  0  0  0  0  0  0  0
    9.8564   -1.2660    0.0000 C   0  0  0  0  0  0  0  0  0  0  0  0
    3.7320   -1.7352    0.0000 C   0  0  0  0  0  0  0  0  0  0  0  0
    2.0000    1.2648    0.0000 C   0  0  0  0  0  0  0  0  0  0  0  0
   11.5884   -1.2727    0.0000 C   0  0  0  0  0  0  0  0  0  0  0  0
    7.7998    1.5976    0.0000 H   0  0  0  0  0  0  0  0  0  0  0  0
    7.5862   -1.5673    0.0000 H   0  0  0  0  0  0  0  0  0  0  0  0
    8.9985    0.8573    0.0000 H   0  0  0  0  0  0  0  0  0  0  0  0
   10.3984    0.0419    0.0000 H   0  0  0  0  0  0  0  0  0  0  0  0
    4.0611    3.0748    0.0000 H   0  0  0  0  0  0  0  0  0  0  0  0
    2.3291    0.0748    0.0000 H   0  0  0  0  0  0  0  0  0  0  0  0
    3.4220   -1.1983    0.0000 H   0  0  0  0  0  0  0  0  0  0  0  0
    3.1951   -2.0452    0.0000 H   0  0  0  0  0  0  0  0  0  0  0  0
    4.0420   -2.2722    0.0000 H   0  0  0  0  0  0  0  0  0  0  0  0
    1.6900    1.8017    0.0000 H   0  0  0  0  0  0  0  0  0  0  0  0
    1.4631    0.9548    0.0000 H   0  0  0  0  0  0  0  0  0  0  0  0
    2.3100    0.7278    0.0000 H   0  0  0  0  0  0  0  0  0  0  0  0
    9.5203   -3.0748    0.0000 H   0  0  0  0  0  0  0  0  0  0  0  0
   11.8964   -1.8108    0.0000 H   0  0  0  0  0  0  0  0  0  0  0  0
   12.1266   -0.9648    0.0000 H   0  0  0  0  0  0  0  0  0  0  0  0
   11.2805   -0.7346    0.0000 H   0  0  0  0  0  0  0  0  0  0  0  0
  1 10  1  0  0  0  0
  1 11  1  0  0  0  0
  2 12  1  0  0  0  0
  2 24  1  0  0  0  0
  3 15  1  0  0  0  0
  3 25  1  0  0  0  0
  4 13  1  0  0  0  0
  4 31  1  0  0  0  0
  5 17  1  0  0  0  0
  5 32  1  0  0  0  0
  6 14  2  0  0  0  0
  7 23  1  0  0  0  0
  7 26  1  0  0  0  0
  8 21  1  0  0  0  0
  8 39  1  0  0  0  0
  9 10  1  0  0  0  0
  9 13  2  0  0  0  0
  9 14  1  0  0  0  0
 10 12  2  0  0  0  0
 11 16  1  0  0  0  0
 11 18  2  0  0  0  0
 12 17  1  0  0  0  0
 13 15  1  0  0  0  0
 14 18  1  0  0  0  0
 15 17  2  0  0  0  0
 16 19  2  0  0  0  0
 16 20  1  0  0  0  0
 18 27  1  0  0  0  0
 19 21  1  0  0  0  0
 19 28  1  0  0  0  0
 20 22  2  0  0  0  0
 20 29  1  0  0  0  0
 21 23  2  0  0  0  0
 22 23  1  0  0  0  0
 22 30  1  0  0  0  0
 24 33  1  0  0  0  0
 24 34  1  0  0  0  0
 24 35  1  0  0  0  0
 25 36  1  0  0  0  0
 25 37  1  0  0  0  0
 25 38  1  0  0  0  0
 26 40  1  0  0  0  0
 26 41  1  0  0  0  0
 26 42  1  0  0  0  0
M  END
>  <PUBCHEM_COMPOUND_CID>
177696

>  <PUBCHEM_COMPOUND_CANONICALIZED>
1

>  <PUBCHEM_CACTVS_COMPLEXITY>
549

>  <PUBCHEM_CACTVS_HBOND_ACCEPTOR>
8

>  <PUBCHEM_CACTVS_HBOND_DONOR>
3

>  <PUBCHEM_CACTVS_ROTATABLE_BOND>
4

>  <PUBCHEM_CACTVS_SUBSKEYS>
AAADceB4PAAAAAAAAAAAAAAAAAAAAAAAAAAwYIAAAAAAAACBQAAAGgAACAAADASAmAIyBoAABgCIAqBSAAACCAAkIAAIiAEGiMgNJzaGNRqCeWOl4BULuQfK7LzOIQABCAAIQABCAAIQABCAAAAAAAAAAA==

>  <PUBCHEM_IUPAC_OPENEYE_NAME>
5,7-dihydroxy-2-(3-hydroxy-4-methoxy-phenyl)-6,8-dimethoxy-chromen-4-one

>  <PUBCHEM_IUPAC_CAS_NAME>
5,7-dihydroxy-2-(3-hydroxy-4-methoxyphenyl)-6,8-dimethoxy-1-benzopyran-4-one

>  <PUBCHEM_IUPAC_NAME>
5,7-dihydroxy-2-(3-hydroxy-4-methoxyphenyl)-6,8-dimethoxychromen-4-one

>  <PUBCHEM_IUPAC_SYSTEMATIC_NAME>
6,8-dimethoxy-2-(4-methoxy-3-oxidanyl-phenyl)-5,7-bis(oxidanyl)chromen-4-one

>  <PUBCHEM_IUPAC_TRADITIONAL_NAME>
5,7-dihydroxy-2-(3-hydroxy-4-methoxy-phenyl)-6,8-dimethoxy-chromone

>  <PUBCHEM_IUPAC_INCHI>
InChI=1S/C18H16O8/c1-23-11-5-4-8(6-9(11)19)12-7-10(20)13-14(21)17(24-2)15(22)18(25-3)16(13)26-12/h4-7,19,21-22H,1-3H3

>  <PUBCHEM_IUPAC_INCHIKEY>
BTMNGQCCCWTUQH-UHFFFAOYSA-N

>  <PUBCHEM_XLOGP3_AA>
2.6

>  <PUBCHEM_EXACT_MASS>
360.085

>  <PUBCHEM_MOLECULAR_FORMULA>
C18H16O8

>  <PUBCHEM_MOLECULAR_WEIGHT>
360.318

>  <PUBCHEM_OPENEYE_CAN_SMILES>
COC1=C(C=C(C=C1)C2=CC(=O)C3=C(O2)C(=C(C(=C3O)OC)O)OC)O

>  <PUBCHEM_OPENEYE_ISO_SMILES>
COC1=C(C=C(C=C1)C2=CC(=O)C3=C(O2)C(=C(C(=C3O)OC)O)OC)O

>  <PUBCHEM_CACTVS_TPSA>
115

>  <PUBCHEM_MONOISOTOPIC_WEIGHT>
360.085

>  <PUBCHEM_TOTAL_CHARGE>
0

>  <PUBCHEM_HEAVY_ATOM_COUNT>
26

>  <PUBCHEM_ATOM_DEF_STEREO_COUNT>
0

>  <PUBCHEM_ATOM_UDEF_STEREO_COUNT>
0

>  <PUBCHEM_BOND_DEF_STEREO_COUNT>
0

>  <PUBCHEM_BOND_UDEF_STEREO_COUNT>
0

>  <PUBCHEM_ISOTOPIC_ATOM_COUNT>
0

>  <PUBCHEM_COMPONENT_COUNT>
1

>  <PUBCHEM_CACTVS_TAUTO_COUNT>
36

>  <PUBCHEM_COORDINATE_TYPE>
1
5
255

>  <PUBCHEM_BONDANNOTATIONS>
1  10  8
1  11  8
10  12  8
11  18  8
12  17  8
13  15  8
14  18  8
15  17  8
16  19  8
16  20  8
19  21  8
20  22  8
21  23  8
22  23  8
9  10  8
9  13  8
9  14  8

$$$$
