1781412
 OpenBabel06101807152D

 57 58  0  0  0  0  0  0  0  0999 V2000
   10.6603   -1.9400    0.0000 O   0  0  0  0  0  0  0  0  0  0  0  0
   14.1523   -1.9747    0.0000 O   0  0  0  0  0  0  0  0  0  0  0  0
   15.9224   -1.9642    0.0000 O   0  0  0  0  0  0  0  0  0  0  0  0
    6.3301   -1.4400    0.0000 C   0  0  0  0  0  0  0  0  0  0  0  0
    7.1962   -1.9400    0.0000 C   0  0  0  0  0  0  0  0  0  0  0  0
    4.5981   -0.4400    0.0000 C   0  0  0  0  0  0  0  0  0  0  0  0
    4.5981   -1.4400    0.0000 C   0  0  0  0  0  0  0  0  0  0  0  0
    5.4641   -1.9400    0.0000 C   0  0  0  0  0  0  0  0  0  0  0  0
    3.7320    0.0600    0.0000 C   0  0  0  0  0  0  0  0  0  0  0  0
    8.0622   -1.4400    0.0000 C   0  0  0  0  0  0  0  0  0  0  0  0
    3.7320   -1.9400    0.0000 C   0  0  0  0  0  0  0  0  0  0  0  0
    3.7320    1.0600    0.0000 C   0  0  0  0  0  0  0  0  0  0  0  0
    8.9282   -1.9400    0.0000 C   0  0  0  0  0  0  0  0  0  0  0  0
    8.0622   -0.4400    0.0000 C   0  0  0  0  0  0  0  0  0  0  0  0
    9.7942   -1.4400    0.0000 C   0  0  0  0  0  0  0  0  0  0  0  0
    2.8660    1.5600    0.0000 C   0  0  0  0  0  0  0  0  0  0  0  0
   11.5263   -1.4400    0.0000 C   0  0  0  0  0  0  0  0  0  0  0  0
   13.2583   -0.4400    0.0000 C   0  0  0  0  0  0  0  0  0  0  0  0
    2.8660    2.5600    0.0000 C   0  0  0  0  0  0  0  0  0  0  0  0
    2.0000    1.0600    0.0000 C   0  0  0  0  0  0  0  0  0  0  0  0
   13.2583   -1.4400    0.0000 C   0  0  0  0  0  0  0  0  0  0  0  0
   12.3923   -1.9400    0.0000 C   0  0  0  0  0  0  0  0  0  0  0  0
   11.5263   -0.4400    0.0000 C   0  0  0  0  0  0  0  0  0  0  0  0
   12.3923    0.0600    0.0000 C   0  0  0  0  0  0  0  0  0  0  0  0
   14.1523    0.0947    0.0000 C   0  0  0  0  0  0  0  0  0  0  0  0
   15.0583   -0.4192    0.0000 C   0  0  0  0  0  0  0  0  0  0  0  0
   15.0583   -1.4608    0.0000 C   0  0  0  0  0  0  0  0  0  0  0  0
    6.7287   -0.9651    0.0000 H   0  0  0  0  0  0  0  0  0  0  0  0
    5.9316   -0.9651    0.0000 H   0  0  0  0  0  0  0  0  0  0  0  0
    6.7976   -2.4150    0.0000 H   0  0  0  0  0  0  0  0  0  0  0  0
    7.5947   -2.4150    0.0000 H   0  0  0  0  0  0  0  0  0  0  0  0
    5.2087   -0.5477    0.0000 H   0  0  0  0  0  0  0  0  0  0  0  0
    4.8101    0.1426    0.0000 H   0  0  0  0  0  0  0  0  0  0  0  0
    5.4641   -2.5600    0.0000 H   0  0  0  0  0  0  0  0  0  0  0  0
    3.1215    0.1677    0.0000 H   0  0  0  0  0  0  0  0  0  0  0  0
    3.5200   -0.5226    0.0000 H   0  0  0  0  0  0  0  0  0  0  0  0
    3.4220   -1.4031    0.0000 H   0  0  0  0  0  0  0  0  0  0  0  0
    3.1951   -2.2500    0.0000 H   0  0  0  0  0  0  0  0  0  0  0  0
    4.0420   -2.4769    0.0000 H   0  0  0  0  0  0  0  0  0  0  0  0
    4.2690    1.3700    0.0000 H   0  0  0  0  0  0  0  0  0  0  0  0
    8.9282   -2.5600    0.0000 H   0  0  0  0  0  0  0  0  0  0  0  0
    8.6822   -0.4400    0.0000 H   0  0  0  0  0  0  0  0  0  0  0  0
    8.0622    0.1800    0.0000 H   0  0  0  0  0  0  0  0  0  0  0  0
    7.4422   -0.4400    0.0000 H   0  0  0  0  0  0  0  0  0  0  0  0
   10.1928   -0.9651    0.0000 H   0  0  0  0  0  0  0  0  0  0  0  0
    9.3957   -0.9651    0.0000 H   0  0  0  0  0  0  0  0  0  0  0  0
    3.4860    2.5600    0.0000 H   0  0  0  0  0  0  0  0  0  0  0  0
    2.8660    3.1800    0.0000 H   0  0  0  0  0  0  0  0  0  0  0  0
    2.2460    2.5600    0.0000 H   0  0  0  0  0  0  0  0  0  0  0  0
    1.6900    1.5969    0.0000 H   0  0  0  0  0  0  0  0  0  0  0  0
    1.4631    0.7500    0.0000 H   0  0  0  0  0  0  0  0  0  0  0  0
    2.3100    0.5231    0.0000 H   0  0  0  0  0  0  0  0  0  0  0  0
   12.3923   -2.5600    0.0000 H   0  0  0  0  0  0  0  0  0  0  0  0
   10.9893   -0.1300    0.0000 H   0  0  0  0  0  0  0  0  0  0  0  0
   12.3923    0.6800    0.0000 H   0  0  0  0  0  0  0  0  0  0  0  0
   14.1451    0.7146    0.0000 H   0  0  0  0  0  0  0  0  0  0  0  0
   15.5941   -0.1071    0.0000 H   0  0  0  0  0  0  0  0  0  0  0  0
  1 15  1  0  0  0  0
  1 17  1  0  0  0  0
  2 21  1  0  0  0  0
  2 27  1  0  0  0  0
  3 27  2  0  0  0  0
  4  5  1  0  0  0  0
  4  8  1  0  0  0  0
  4 28  1  0  0  0  0
  4 29  1  0  0  0  0
  5 10  1  0  0  0  0
  5 30  1  0  0  0  0
  5 31  1  0  0  0  0
  6  7  1  0  0  0  0
  6  9  1  0  0  0  0
  6 32  1  0  0  0  0
  6 33  1  0  0  0  0
  7  8  2  0  0  0  0
  7 11  1  0  0  0  0
  8 34  1  0  0  0  0
  9 12  1  0  0  0  0
  9 35  1  0  0  0  0
  9 36  1  0  0  0  0
 10 13  2  0  0  0  0
 10 14  1  0  0  0  0
 11 37  1  0  0  0  0
 11 38  1  0  0  0  0
 11 39  1  0  0  0  0
 12 16  2  0  0  0  0
 12 40  1  0  0  0  0
 13 15  1  0  0  0  0
 13 41  1  0  0  0  0
 14 42  1  0  0  0  0
 14 43  1  0  0  0  0
 14 44  1  0  0  0  0
 15 45  1  0  0  0  0
 15 46  1  0  0  0  0
 16 19  1  0  0  0  0
 16 20  1  0  0  0  0
 17 22  2  0  0  0  0
 17 23  1  0  0  0  0
 18 21  2  0  0  0  0
 18 24  1  0  0  0  0
 18 25  1  0  0  0  0
 19 47  1  0  0  0  0
 19 48  1  0  0  0  0
 19 49  1  0  0  0  0
 20 50  1  0  0  0  0
 20 51  1  0  0  0  0
 20 52  1  0  0  0  0
 21 22  1  0  0  0  0
 22 53  1  0  0  0  0
 23 24  2  0  0  0  0
 23 54  1  0  0  0  0
 24 55  1  0  0  0  0
 25 26  2  0  0  0  0
 25 56  1  0  0  0  0
 26 27  1  0  0  0  0
 26 57  1  0  0  0  0
M  END
>  <PUBCHEM_COMPOUND_CID>
1781412

>  <PUBCHEM_COMPOUND_CANONICALIZED>
1

>  <PUBCHEM_CACTVS_COMPLEXITY>
605

>  <PUBCHEM_CACTVS_HBOND_ACCEPTOR>
3

>  <PUBCHEM_CACTVS_HBOND_DONOR>
0

>  <PUBCHEM_CACTVS_ROTATABLE_BOND>
9

>  <PUBCHEM_CACTVS_SUBSKEYS>
AAADceB4MAAAAAAAAAAAAAAAAAAAAAAAAAAwQAAAAAAAAACBAAAAGgAAAAAADASgmAIyDoAABACIAiDSCAACCAAgIAAIiAAGCMgMJyKEMRqCOiClwBUIqYeA4CwOIAAACAAIAABAAAAQABAAAAAAAAAAAA==

>  <PUBCHEM_IUPAC_OPENEYE_NAME>
7-[(2E,6Z)-3,7,11-trimethyldodeca-2,6,10-trienoxy]chromen-2-one

>  <PUBCHEM_IUPAC_CAS_NAME>
7-[(2E,6Z)-3,7,11-trimethyldodeca-2,6,10-trienoxy]-1-benzopyran-2-one

>  <PUBCHEM_IUPAC_NAME>
7-[(2E,6Z)-3,7,11-trimethyldodeca-2,6,10-trienoxy]chromen-2-one

>  <PUBCHEM_IUPAC_SYSTEMATIC_NAME>
7-[(2E,6Z)-3,7,11-trimethyldodeca-2,6,10-trienoxy]chromen-2-one

>  <PUBCHEM_IUPAC_TRADITIONAL_NAME>
7-[(2E,6Z)-3,7,11-trimethyldodeca-2,6,10-trienoxy]coumarin

>  <PUBCHEM_IUPAC_INCHI>
InChI=1S/C24H30O3/c1-18(2)7-5-8-19(3)9-6-10-20(4)15-16-26-22-13-11-21-12-14-24(25)27-23(21)17-22/h7,9,11-15,17H,5-6,8,10,16H2,1-4H3/b19-9-,20-15+

>  <PUBCHEM_IUPAC_INCHIKEY>
GNMUGVNEWCZUAA-SGRLLCBQSA-N

>  <PUBCHEM_XLOGP3>
7.1

>  <PUBCHEM_EXACT_MASS>
366.219

>  <PUBCHEM_MOLECULAR_FORMULA>
C24H30O3

>  <PUBCHEM_MOLECULAR_WEIGHT>
366.501

>  <PUBCHEM_OPENEYE_CAN_SMILES>
CC(=CCCC(=CCCC(=CCOC1=CC2=C(C=C1)C=CC(=O)O2)C)C)C

>  <PUBCHEM_OPENEYE_ISO_SMILES>
CC(=CCC/C(=C\CC/C(=C/COC1=CC2=C(C=C1)C=CC(=O)O2)/C)/C)C

>  <PUBCHEM_CACTVS_TPSA>
35.5

>  <PUBCHEM_MONOISOTOPIC_WEIGHT>
366.219

>  <PUBCHEM_TOTAL_CHARGE>
0

>  <PUBCHEM_HEAVY_ATOM_COUNT>
27

>  <PUBCHEM_ATOM_DEF_STEREO_COUNT>
0

>  <PUBCHEM_ATOM_UDEF_STEREO_COUNT>
0

>  <PUBCHEM_BOND_DEF_STEREO_COUNT>
2

>  <PUBCHEM_BOND_UDEF_STEREO_COUNT>
0

>  <PUBCHEM_ISOTOPIC_ATOM_COUNT>
0

>  <PUBCHEM_COMPONENT_COUNT>
1

>  <PUBCHEM_CACTVS_TAUTO_COUNT>
1

>  <PUBCHEM_COORDINATE_TYPE>
1
5
255

>  <PUBCHEM_BONDANNOTATIONS>
17  22  8
17  23  8
18  21  8
18  24  8
18  25  8
2  21  8
2  27  8
21  22  8
23  24  8
25  26  8
26  27  8

$$$$
