178247
 OpenBabel06101807152D

143150  0  0  1  0  0  0  0  0999 V2000
    6.8671   -1.2891    0.0000 O   0  0  0  0  0  0  0  0  0  0  0  0
    9.3112   -0.5975    0.0000 O   0  0  0  0  0  0  0  0  0  0  0  0
    8.6424    8.0654    0.0000 O   0  0  0  0  0  0  0  0  0  0  0  0
    5.1350   -1.2891    0.0000 O   0  0  0  0  0  0  0  0  0  0  0  0
    6.8671   -3.2891    0.0000 O   0  0  0  0  0  0  0  0  0  0  0  0
    5.1350   -4.2891    0.0000 O   0  0  0  0  0  0  0  0  0  0  0  0
    3.4030   -3.2891    0.0000 O   0  0  0  0  0  0  0  0  0  0  0  0
    6.0010   -4.7891    0.0000 O   0  0  0  0  0  0  0  0  0  0  0  0
    2.5369   -1.7891    0.0000 O   0  0  0  0  0  0  0  0  0  0  0  0
    3.4030   -0.2891    0.0000 O   0  0  0  0  0  0  0  0  0  0  0  0
    8.5991   -4.2891    0.0000 O   0  0  0  0  0  0  0  0  0  0  0  0
    8.5991   -6.2891    0.0000 O   0  0  0  0  0  0  0  0  0  0  0  0
    6.8671   -7.2891    0.0000 O   0  0  0  0  0  0  0  0  0  0  0  0
    9.4651   -5.7891    0.0000 O   0  0  0  0  0  0  0  0  0  0  0  0
    5.1350   -7.2891    0.0000 O   0  0  0  0  0  0  0  0  0  0  0  0
   10.3312   -3.2891    0.0000 O   0  0  0  0  0  0  0  0  0  0  0  0
   12.0632   -4.2891    0.0000 O   0  0  0  0  0  0  0  0  0  0  0  0
   12.0632   -6.2891    0.0000 O   0  0  0  0  0  0  0  0  0  0  0  0
   11.1972   -7.7891    0.0000 O   0  0  0  0  0  0  0  0  0  0  0  0
    7.7681    3.4111    0.0000 C   0  0  3  0  0  0  0  0  0  0  0  0
    6.8920    1.8662    0.0000 C   0  0  3  0  0  0  0  0  0  0  0  0
    6.9040    2.9078    0.0000 C   0  0  3  0  0  0  0  0  0  0  0  0
    7.7643    4.4111    0.0000 C   0  0  3  0  0  0  0  0  0  0  0  0
    7.7920    1.3419    0.0000 C   0  0  3  0  0  0  0  0  0  0  0  0
    8.6801    2.9078    0.0000 C   0  0  0  0  0  0  0  0  0  0  0  0
    7.8046    0.2570    0.0000 C   0  0  3  0  0  0  0  0  0  0  0  0
    8.6921    1.8662    0.0000 C   0  0  0  0  0  0  0  0  0  0  0  0
    6.8963    4.9077    0.0000 C   0  0  0  0  0  0  0  0  0  0  0  0
    5.9421    1.3419    0.0000 C   0  0  0  0  0  0  0  0  0  0  0  0
    6.0361    3.4044    0.0000 C   0  0  0  0  0  0  0  0  0  0  0  0
    6.8762    5.9492    0.0000 C   0  0  3  0  0  0  0  0  0  0  0  0
    8.6723    4.9214    0.0000 C   0  0  0  0  0  0  0  0  0  0  0  0
    7.7722    6.4804    0.0000 C   0  0  3  0  0  0  0  0  0  0  0  0
    6.8671   -0.2891    0.0000 C   0  0  3  0  0  0  0  0  0  0  0  0
    8.7522    3.5885    0.0000 C   0  0  0  0  0  0  0  0  0  0  0  0
    6.0279    2.3695    0.0000 C   0  0  0  0  0  0  0  0  0  0  0  0
    5.9295    0.2570    0.0000 C   0  0  0  0  0  0  0  0  0  0  0  0
    8.6763    5.9630    0.0000 C   0  0  0  0  0  0  0  0  0  0  0  0
    6.0322    4.4044    0.0000 C   0  0  0  0  0  0  0  0  0  0  0  0
    8.7497    4.2412    0.0000 C   0  0  0  0  0  0  0  0  0  0  0  0
    5.9223    6.4661    0.0000 C   0  0  0  0  0  0  0  0  0  0  0  0
    8.8046    0.2647    0.0000 C   0  0  0  0  0  0  0  0  0  0  0  0
    8.3113   -0.6052    0.0000 C   0  0  0  0  0  0  0  0  0  0  0  0
    5.9014    7.5509    0.0000 C   0  0  0  0  0  0  0  0  0  0  0  0
    7.7764    7.5654    0.0000 C   0  0  0  0  0  0  0  0  0  0  0  0
    8.6324    6.9904    0.0000 C   0  0  0  0  0  0  0  0  0  0  0  0
    6.8347    8.1042    0.0000 C   0  0  0  0  0  0  0  0  0  0  0  0
    5.3881    8.4091    0.0000 C   0  0  0  0  0  0  0  0  0  0  0  0
    4.9015    7.5355    0.0000 C   0  0  0  0  0  0  0  0  0  0  0  0
    6.0010   -1.7891    0.0000 C   0  0  3  0  0  0  0  0  0  0  0  0
    6.0010   -2.7891    0.0000 C   0  0  3  0  0  0  0  0  0  0  0  0
    5.1350   -3.2891    0.0000 C   0  0  3  0  0  0  0  0  0  0  0  0
    4.2690   -1.7891    0.0000 C   0  0  3  0  0  0  0  0  0  0  0  0
    4.2690   -2.7891    0.0000 C   0  0  3  0  0  0  0  0  0  0  0  0
    6.8671   -4.2891    0.0000 C   0  0  3  0  0  0  0  0  0  0  0  0
    3.4030   -1.2891    0.0000 C   0  0  0  0  0  0  0  0  0  0  0  0
    7.7331   -4.7891    0.0000 C   0  0  3  0  0  0  0  0  0  0  0  0
    7.7331   -5.7891    0.0000 C   0  0  3  0  0  0  0  0  0  0  0  0
    6.0010   -5.7891    0.0000 C   0  0  3  0  0  0  0  0  0  0  0  0
    6.8671   -6.2891    0.0000 C   0  0  3  0  0  0  0  0  0  0  0  0
    5.1350   -6.2891    0.0000 C   0  0  0  0  0  0  0  0  0  0  0  0
    9.4651   -4.7891    0.0000 C   0  0  3  0  0  0  0  0  0  0  0  0
   10.3312   -4.2891    0.0000 C   0  0  3  0  0  0  0  0  0  0  0  0
   11.1972   -4.7891    0.0000 C   0  0  3  0  0  0  0  0  0  0  0  0
   10.3312   -6.2891    0.0000 C   0  0  3  0  0  0  0  0  0  0  0  0
   11.1972   -5.7891    0.0000 C   0  0  3  0  0  0  0  0  0  0  0  0
   10.3312   -7.2891    0.0000 C   0  0  0  0  0  0  0  0  0  0  0  0
    7.4398    2.5957    0.0000 H   0  0  0  0  0  0  0  0  0  0  0  0
    8.3314    1.0360    0.0000 H   0  0  0  0  0  0  0  0  0  0  0  0
    9.2921    2.8087    0.0000 H   0  0  0  0  0  0  0  0  0  0  0  0
    8.8824    3.4938    0.0000 H   0  0  0  0  0  0  0  0  0  0  0  0
    8.9079    1.2850    0.0000 H   0  0  0  0  0  0  0  0  0  0  0  0
    9.3017    1.9793    0.0000 H   0  0  0  0  0  0  0  0  0  0  0  0
    5.7398    1.9280    0.0000 H   0  0  0  0  0  0  0  0  0  0  0  0
    5.3300    1.2429    0.0000 H   0  0  0  0  0  0  0  0  0  0  0  0
    5.4251    3.5097    0.0000 H   0  0  0  0  0  0  0  0  0  0  0  0
    5.8263    2.8210    0.0000 H   0  0  0  0  0  0  0  0  0  0  0  0
    6.3466    5.6268    0.0000 H   0  0  0  0  0  0  0  0  0  0  0  0
    8.8791    4.3369    0.0000 H   0  0  0  0  0  0  0  0  0  0  0  0
    9.2836    5.0252    0.0000 H   0  0  0  0  0  0  0  0  0  0  0  0
    7.4046   -0.5981    0.0000 H   0  0  0  0  0  0  0  0  0  0  0  0
    8.8623    2.9784    0.0000 H   0  0  0  0  0  0  0  0  0  0  0  0
    9.3624    3.6986    0.0000 H   0  0  0  0  0  0  0  0  0  0  0  0
    8.6422    4.1987    0.0000 H   0  0  0  0  0  0  0  0  0  0  0  0
    6.3400    2.9053    0.0000 H   0  0  0  0  0  0  0  0  0  0  0  0
    5.4922    2.6816    0.0000 H   0  0  0  0  0  0  0  0  0  0  0  0
    5.7158    1.8338    0.0000 H   0  0  0  0  0  0  0  0  0  0  0  0
    5.3199    0.3701    0.0000 H   0  0  0  0  0  0  0  0  0  0  0  0
    5.7137   -0.3243    0.0000 H   0  0  0  0  0  0  0  0  0  0  0  0
    9.2868    5.8546    0.0000 H   0  0  0  0  0  0  0  0  0  0  0  0
    8.8876    6.5459    0.0000 H   0  0  0  0  0  0  0  0  0  0  0  0
    5.4941    4.7123    0.0000 H   0  0  0  0  0  0  0  0  0  0  0  0
    8.6444    3.6302    0.0000 H   0  0  0  0  0  0  0  0  0  0  0  0
    9.3607    4.1359    0.0000 H   0  0  0  0  0  0  0  0  0  0  0  0
    8.8550    4.8522    0.0000 H   0  0  0  0  0  0  0  0  0  0  0  0
    5.3095    6.5604    0.0000 H   0  0  0  0  0  0  0  0  0  0  0  0
    5.7246    5.8785    0.0000 H   0  0  0  0  0  0  0  0  0  0  0  0
    9.3855    0.4812    0.0000 H   0  0  0  0  0  0  0  0  0  0  0  0
    8.6922    0.8744    0.0000 H   0  0  0  0  0  0  0  0  0  0  0  0
    7.7767   -0.9193    0.0000 H   0  0  0  0  0  0  0  0  0  0  0  0
    8.6254   -1.1397    0.0000 H   0  0  0  0  0  0  0  0  0  0  0  0
    8.8458   -0.2910    0.0000 H   0  0  0  0  0  0  0  0  0  0  0  0
    8.9486    6.4570    0.0000 H   0  0  0  0  0  0  0  0  0  0  0  0
    9.1657    7.3066    0.0000 H   0  0  0  0  0  0  0  0  0  0  0  0
    8.3162    7.5237    0.0000 H   0  0  0  0  0  0  0  0  0  0  0  0
    7.2302    8.5817    0.0000 H   0  0  0  0  0  0  0  0  0  0  0  0
    6.4319    8.5756    0.0000 H   0  0  0  0  0  0  0  0  0  0  0  0
    4.8920    8.1554    0.0000 H   0  0  0  0  0  0  0  0  0  0  0  0
    4.2816    7.5259    0.0000 H   0  0  0  0  0  0  0  0  0  0  0  0
    5.9202    8.7274    0.0000 H   0  0  0  0  0  0  0  0  0  0  0  0
    5.0699    8.9412    0.0000 H   0  0  0  0  0  0  0  0  0  0  0  0
    4.8560    8.0909    0.0000 H   0  0  0  0  0  0  0  0  0  0  0  0
    4.9111    6.9156    0.0000 H   0  0  0  0  0  0  0  0  0  0  0  0
    6.0010   -1.1691    0.0000 H   0  0  0  0  0  0  0  0  0  0  0  0
    9.9312   -0.5927    0.0000 H   0  0  0  0  0  0  0  0  0  0  0  0
    6.0010   -3.4091    0.0000 H   0  0  0  0  0  0  0  0  0  0  0  0
    4.5981   -3.5991    0.0000 H   0  0  0  0  0  0  0  0  0  0  0  0
    4.2690   -1.1691    0.0000 H   0  0  0  0  0  0  0  0  0  0  0  0
    3.7320   -2.4791    0.0000 H   0  0  0  0  0  0  0  0  0  0  0  0
    7.4040   -3.9791    0.0000 H   0  0  0  0  0  0  0  0  0  0  0  0
    4.5981   -4.5991    0.0000 H   0  0  0  0  0  0  0  0  0  0  0  0
    3.4030   -3.9091    0.0000 H   0  0  0  0  0  0  0  0  0  0  0  0
    8.2700   -5.0991    0.0000 H   0  0  0  0  0  0  0  0  0  0  0  0
    7.7331   -6.4091    0.0000 H   0  0  0  0  0  0  0  0  0  0  0  0
    5.4641   -5.4791    0.0000 H   0  0  0  0  0  0  0  0  0  0  0  0
    6.3301   -6.5991    0.0000 H   0  0  0  0  0  0  0  0  0  0  0  0
    2.0000   -1.4791    0.0000 H   0  0  0  0  0  0  0  0  0  0  0  0
    4.9230   -5.7065    0.0000 H   0  0  0  0  0  0  0  0  0  0  0  0
    4.5244   -6.3968    0.0000 H   0  0  0  0  0  0  0  0  0  0  0  0
    9.4651   -4.1691    0.0000 H   0  0  0  0  0  0  0  0  0  0  0  0
    8.5991   -6.9091    0.0000 H   0  0  0  0  0  0  0  0  0  0  0  0
    7.4040   -7.5991    0.0000 H   0  0  0  0  0  0  0  0  0  0  0  0
   10.8681   -3.9791    0.0000 H   0  0  0  0  0  0  0  0  0  0  0  0
   11.7341   -5.0991    0.0000 H   0  0  0  0  0  0  0  0  0  0  0  0
    4.5981   -7.5991    0.0000 H   0  0  0  0  0  0  0  0  0  0  0  0
    9.7942   -6.5991    0.0000 H   0  0  0  0  0  0  0  0  0  0  0  0
   11.1972   -6.4091    0.0000 H   0  0  0  0  0  0  0  0  0  0  0  0
   10.8681   -2.9791    0.0000 H   0  0  0  0  0  0  0  0  0  0  0  0
    9.7206   -7.1815    0.0000 H   0  0  0  0  0  0  0  0  0  0  0  0
   10.1191   -7.8717    0.0000 H   0  0  0  0  0  0  0  0  0  0  0  0
   12.6002   -4.5991    0.0000 H   0  0  0  0  0  0  0  0  0  0  0  0
   12.6002   -5.9791    0.0000 H   0  0  0  0  0  0  0  0  0  0  0  0
   11.1972   -8.4091    0.0000 H   0  0  0  0  0  0  0  0  0  0  0  0
  1 34  1  0  0  0  0
  1 50  1  0  0  0  0
  2 42  1  0  0  0  0
  2115  1  0  0  0  0
  3 45  2  0  0  0  0
  4 50  1  0  0  0  0
  4 53  1  0  0  0  0
  5 51  1  0  0  0  0
  5 55  1  0  0  0  0
  6 52  1  0  0  0  0
  6121  1  0  0  0  0
  7 54  1  0  0  0  0
  7122  1  0  0  0  0
  8 55  1  0  0  0  0
  8 59  1  0  0  0  0
  9 56  1  0  0  0  0
  9127  1  0  0  0  0
 10 56  2  0  0  0  0
 11 57  1  0  0  0  0
 11 62  1  0  0  0  0
 12 58  1  0  0  0  0
 12131  1  0  0  0  0
 13 60  1  0  0  0  0
 13132  1  0  0  0  0
 14 62  1  0  0  0  0
 14 65  1  0  0  0  0
 15 61  1  0  0  0  0
 15135  1  0  0  0  0
 16 63  1  0  0  0  0
 16138  1  0  0  0  0
 17 64  1  0  0  0  0
 17141  1  0  0  0  0
 18 66  1  0  0  0  0
 18142  1  0  0  0  0
 19 67  1  0  0  0  0
 19143  1  0  0  0  0
 20 22  1  0  0  0  0
 20 23  1  0  0  0  0
 20 25  1  0  0  0  0
 20 35  1  0  0  0  0
 21 22  1  0  0  0  0
 21 24  1  0  0  0  0
 21 29  1  0  0  0  0
 21 36  1  0  0  0  0
 22 30  1  0  0  0  0
 22 68  1  0  0  0  0
 23 28  1  0  0  0  0
 23 32  1  0  0  0  0
 23 40  1  0  0  0  0
 24 26  1  0  0  0  0
 24 27  1  0  0  0  0
 24 69  1  0  0  0  0
 25 27  1  0  0  0  0
 25 70  1  0  0  0  0
 25 71  1  0  0  0  0
 26 34  1  0  0  0  0
 26 42  1  0  0  0  0
 26 43  1  0  0  0  0
 27 72  1  0  0  0  0
 27 73  1  0  0  0  0
 28 31  1  0  0  0  0
 28 39  2  0  0  0  0
 29 37  1  0  0  0  0
 29 74  1  0  0  0  0
 29 75  1  0  0  0  0
 30 39  1  0  0  0  0
 30 76  1  0  0  0  0
 30 77  1  0  0  0  0
 31 33  1  0  0  0  0
 31 41  1  0  0  0  0
 31 78  1  0  0  0  0
 32 38  1  0  0  0  0
 32 79  1  0  0  0  0
 32 80  1  0  0  0  0
 33 38  1  0  0  0  0
 33 45  1  0  0  0  0
 33 46  1  0  0  0  0
 34 37  1  0  0  0  0
 34 81  1  0  0  0  0
 35 82  1  0  0  0  0
 35 83  1  0  0  0  0
 35 84  1  0  0  0  0
 36 85  1  0  0  0  0
 36 86  1  0  0  0  0
 36 87  1  0  0  0  0
 37 88  1  0  0  0  0
 37 89  1  0  0  0  0
 38 90  1  0  0  0  0
 38 91  1  0  0  0  0
 39 92  1  0  0  0  0
 40 93  1  0  0  0  0
 40 94  1  0  0  0  0
 40 95  1  0  0  0  0
 41 44  1  0  0  0  0
 41 96  1  0  0  0  0
 41 97  1  0  0  0  0
 42 98  1  0  0  0  0
 42 99  1  0  0  0  0
 43100  1  0  0  0  0
 43101  1  0  0  0  0
 43102  1  0  0  0  0
 44 47  1  0  0  0  0
 44 48  1  0  0  0  0
 44 49  1  0  0  0  0
 45 47  1  0  0  0  0
 46103  1  0  0  0  0
 46104  1  0  0  0  0
 46105  1  0  0  0  0
 47106  1  0  0  0  0
 47107  1  0  0  0  0
 48110  1  0  0  0  0
 48111  1  0  0  0  0
 48112  1  0  0  0  0
 49108  1  0  0  0  0
 49109  1  0  0  0  0
 49113  1  0  0  0  0
 50 51  1  0  0  0  0
 50114  1  0  0  0  0
 51 52  1  0  0  0  0
 51116  1  0  0  0  0
 52 54  1  0  0  0  0
 52117  1  0  0  0  0
 53 54  1  0  0  0  0
 53 56  1  0  0  0  0
 53118  1  0  0  0  0
 54119  1  0  0  0  0
 55 57  1  0  0  0  0
 55120  1  0  0  0  0
 57 58  1  0  0  0  0
 57123  1  0  0  0  0
 58 60  1  0  0  0  0
 58124  1  0  0  0  0
 59 60  1  0  0  0  0
 59 61  1  0  0  0  0
 59125  1  0  0  0  0
 60126  1  0  0  0  0
 61128  1  0  0  0  0
 61129  1  0  0  0  0
 62 63  1  0  0  0  0
 62130  1  0  0  0  0
 63 64  1  0  0  0  0
 63133  1  0  0  0  0
 64 66  1  0  0  0  0
 64134  1  0  0  0  0
 65 66  1  0  0  0  0
 65 67  1  0  0  0  0
 65136  1  0  0  0  0
 66137  1  0  0  0  0
 67139  1  0  0  0  0
 67140  1  0  0  0  0
M  END
>  <PUBCHEM_COMPOUND_CID>
178247

>  <PUBCHEM_COMPOUND_CANONICALIZED>
1

>  <PUBCHEM_CACTVS_COMPLEXITY>
1880

>  <PUBCHEM_CACTVS_HBOND_ACCEPTOR>
19

>  <PUBCHEM_CACTVS_HBOND_DONOR>
11

>  <PUBCHEM_CACTVS_ROTATABLE_BOND>
10

>  <PUBCHEM_CACTVS_SUBSKEYS>
AAADcfB8PgAAAAAAAAAAAAAAAAAAAAAAAAA0aNGCAAAAAADAAAAAGgAACAAADxSwgAMCCAAABgCIAqDSCAIAAAAgAAAACAFAAAgREBYAAQQiQAAFoAAPAAPK7PzPgAAAAAAAAADAAAYAADAAAAAAAAAAAA==

>  <PUBCHEM_IUPAC_OPENEYE_NAME>
5-[4,5-dihydroxy-6-(hydroxymethyl)-3-[3,4,5-trihydroxy-6-(hydroxymethyl)tetrahydropyran-2-yl]oxy-tetrahydropyran-2-yl]oxy-3,4-dihydroxy-6-[[4-(hydroxymethyl)-4,6a,6b,8a,11,11,14b-heptamethyl-9-oxo-2,3,4a,5,6,7,8,10,12,12a,14,14a-dodecahydro-1H-picen-3-yl]oxy]tetrahydropyran-2-carboxylic acid

>  <PUBCHEM_IUPAC_CAS_NAME>
5-[[4,5-dihydroxy-6-(hydroxymethyl)-3-[[3,4,5-trihydroxy-6-(hydroxymethyl)-2-oxanyl]oxy]-2-oxanyl]oxy]-3,4-dihydroxy-6-[[4-(hydroxymethyl)-4,6a,6b,8a,11,11,14b-heptamethyl-9-oxo-2,3,4a,5,6,7,8,10,12,12a,14,14a-dodecahydro-1H-picen-3-yl]oxy]-2-oxanecarboxylic acid

>  <PUBCHEM_IUPAC_NAME>
5-[4,5-dihydroxy-6-(hydroxymethyl)-3-[3,4,5-trihydroxy-6-(hydroxymethyl)oxan-2-yl]oxyoxan-2-yl]oxy-3,4-dihydroxy-6-[[4-(hydroxymethyl)-4,6a,6b,8a,11,11,14b-heptamethyl-9-oxo-2,3,4a,5,6,7,8,10,12,12a,14,14a-dodecahydro-1H-picen-3-yl]oxy]oxane-2-carboxylic acid

>  <PUBCHEM_IUPAC_SYSTEMATIC_NAME>
6-[[4-(hydroxymethyl)-4,6a,6b,8a,11,11,14b-heptamethyl-9-oxidanylidene-2,3,4a,5,6,7,8,10,12,12a,14,14a-dodecahydro-1H-picen-3-yl]oxy]-5-[6-(hydroxymethyl)-3-[6-(hydroxymethyl)-3,4,5-tris(oxidanyl)oxan-2-yl]oxy-4,5-bis(oxidanyl)oxan-2-yl]oxy-3,4-bis(oxidanyl)oxane-2-carboxylic acid

>  <PUBCHEM_IUPAC_TRADITIONAL_NAME>
5-[4,5-dihydroxy-6-methylol-3-(3,4,5-trihydroxy-6-methylol-tetrahydropyran-2-yl)oxy-tetrahydropyran-2-yl]oxy-3,4-dihydroxy-6-[(9-keto-4,6a,6b,8a,11,11,14b-heptamethyl-4-methylol-2,3,4a,5,6,7,8,10,12,12a,14,14a-dodecahydro-1H-picen-3-yl)oxy]tetrahydropyran-2-carboxylic acid

>  <PUBCHEM_IUPAC_INCHI>
InChI=1S/C48H76O19/c1-43(2)16-22-21-8-9-26-45(4)12-11-28(46(5,20-51)25(45)10-13-48(26,7)47(21,6)15-14-44(22,3)27(52)17-43)64-42-38(34(58)33(57)36(65-42)39(60)61)67-41-37(32(56)30(54)24(19-50)63-41)66-40-35(59)31(55)29(53)23(18-49)62-40/h8,22-26,28-38,40-42,49-51,53-59H,9-20H2,1-7H3,(H,60,61)

>  <PUBCHEM_IUPAC_INCHIKEY>
JTXVTHCLTOUSSL-UHFFFAOYSA-N

>  <PUBCHEM_XLOGP3_AA>
1.6

>  <PUBCHEM_EXACT_MASS>
956.498

>  <PUBCHEM_MOLECULAR_FORMULA>
C48H76O19

>  <PUBCHEM_MOLECULAR_WEIGHT>
957.117

>  <PUBCHEM_OPENEYE_CAN_SMILES>
CC1(CC2C3=CCC4C5(CCC(C(C5CCC4(C3(CCC2(C(=O)C1)C)C)C)(C)CO)OC6C(C(C(C(O6)C(=O)O)O)O)OC7C(C(C(C(O7)CO)O)O)OC8C(C(C(C(O8)CO)O)O)O)C)C

>  <PUBCHEM_OPENEYE_ISO_SMILES>
CC1(CC2C3=CCC4C5(CCC(C(C5CCC4(C3(CCC2(C(=O)C1)C)C)C)(C)CO)OC6C(C(C(C(O6)C(=O)O)O)O)OC7C(C(C(C(O7)CO)O)O)OC8C(C(C(C(O8)CO)O)O)O)C)C

>  <PUBCHEM_CACTVS_TPSA>
312

>  <PUBCHEM_MONOISOTOPIC_WEIGHT>
956.498

>  <PUBCHEM_TOTAL_CHARGE>
0

>  <PUBCHEM_HEAVY_ATOM_COUNT>
67

>  <PUBCHEM_ATOM_DEF_STEREO_COUNT>
0

>  <PUBCHEM_ATOM_UDEF_STEREO_COUNT>
24

>  <PUBCHEM_BOND_DEF_STEREO_COUNT>
0

>  <PUBCHEM_BOND_UDEF_STEREO_COUNT>
0

>  <PUBCHEM_ISOTOPIC_ATOM_COUNT>
0

>  <PUBCHEM_COMPONENT_COUNT>
1

>  <PUBCHEM_CACTVS_TAUTO_COUNT>
2

>  <PUBCHEM_COORDINATE_TYPE>
1
5
255

>  <PUBCHEM_BONDANNOTATIONS>
34  1  3
50  1  3
57  11  3
62  11  3
58  12  3
60  13  3
63  16  3
64  17  3
66  18  3
20  35  3
21  36  3
22  30  3
23  40  3
24  27  3
26  43  3
31  41  3
33  46  3
51  5  3
55  5  3
53  56  3
59  61  3
52  6  3
65  67  3
54  7  3

$$$$
