178999
 OpenBabel06101807152D

 30 32  0  0  0  0  0  0  0  0999 V2000
    4.6397   -1.4994    0.0000 O   0  0  0  0  0  0  0  0  0  0  0  0
    6.0518   -2.5770    0.0000 O   0  0  0  0  0  0  0  0  0  0  0  0
    7.6913   -1.4606    0.0000 O   0  0  0  0  0  0  0  0  0  0  0  0
    3.3802    0.8942    0.0000 C   0  0  0  0  0  0  0  0  0  0  0  0
    2.3899    0.9807    0.0000 C   0  0  0  0  0  0  0  0  0  0  0  0
    3.6027   -0.0807    0.0000 C   0  0  0  0  0  0  0  0  0  0  0  0
    2.0000    0.0663    0.0000 C   0  0  0  0  0  0  0  0  0  0  0  0
    2.7480   -0.5884    0.0000 C   0  0  0  0  0  0  0  0  0  0  0  0
    4.5037   -0.5146    0.0000 C   0  0  0  0  0  0  0  0  0  0  0  0
    4.0037    1.6760    0.0000 C   0  0  0  0  0  0  0  0  0  0  0  0
    5.4047   -0.0807    0.0000 C   0  0  0  0  0  0  0  0  0  0  0  0
    5.0037    1.6760    0.0000 C   0  0  0  0  0  0  0  0  0  0  0  0
    5.6272    0.8942    0.0000 C   0  0  0  0  0  0  0  0  0  0  0  0
    6.0898   -0.8010    0.0000 C   0  0  0  0  0  0  0  0  0  0  0  0
    3.5698    2.5770    0.0000 C   0  0  0  0  0  0  0  0  0  0  0  0
    2.6567   -1.5842    0.0000 C   0  0  0  0  0  0  0  0  0  0  0  0
    5.6180   -1.6760    0.0000 C   0  0  0  0  0  0  0  0  0  0  0  0
    7.0810   -0.6685    0.0000 C   0  0  0  0  0  0  0  0  0  0  0  0
    2.5085    1.5893    0.0000 H   0  0  0  0  0  0  0  0  0  0  0  0
    1.7972    1.1626    0.0000 H   0  0  0  0  0  0  0  0  0  0  0  0
    1.4584    0.3681    0.0000 H   0  0  0  0  0  0  0  0  0  0  0  0
    1.6430   -0.4406    0.0000 H   0  0  0  0  0  0  0  0  0  0  0  0
    5.2727    2.2346    0.0000 H   0  0  0  0  0  0  0  0  0  0  0  0
    6.2316    1.0321    0.0000 H   0  0  0  0  0  0  0  0  0  0  0  0
    4.1284    2.8460    0.0000 H   0  0  0  0  0  0  0  0  0  0  0  0
    3.3008    3.1356    0.0000 H   0  0  0  0  0  0  0  0  0  0  0  0
    3.0112    2.3080    0.0000 H   0  0  0  0  0  0  0  0  0  0  0  0
    2.0937   -1.8439    0.0000 H   0  0  0  0  0  0  0  0  0  0  0  0
    3.1630   -1.9420    0.0000 H   0  0  0  0  0  0  0  0  0  0  0  0
    7.3171   -0.0952    0.0000 H   0  0  0  0  0  0  0  0  0  0  0  0
  1  9  1  0  0  0  0
  1 17  1  0  0  0  0
  2 17  2  0  0  0  0
  3 18  2  0  0  0  0
  4  5  1  0  0  0  0
  4  6  1  0  0  0  0
  4 10  2  0  0  0  0
  5  7  1  0  0  0  0
  5 19  1  0  0  0  0
  5 20  1  0  0  0  0
  6  8  1  0  0  0  0
  6  9  2  0  0  0  0
  7  8  1  0  0  0  0
  7 21  1  0  0  0  0
  7 22  1  0  0  0  0
  8 16  2  0  0  0  0
  9 11  1  0  0  0  0
 10 12  1  0  0  0  0
 10 15  1  0  0  0  0
 11 13  1  0  0  0  0
 11 14  2  0  0  0  0
 12 13  2  0  0  0  0
 12 23  1  0  0  0  0
 13 24  1  0  0  0  0
 14 17  1  0  0  0  0
 14 18  1  0  0  0  0
 15 25  1  0  0  0  0
 15 26  1  0  0  0  0
 15 27  1  0  0  0  0
 16 28  1  0  0  0  0
 16 29  1  0  0  0  0
 18 30  1  0  0  0  0
M  END
>  <PUBCHEM_COMPOUND_CID>
178999

>  <PUBCHEM_COMPOUND_CANONICALIZED>
1

>  <PUBCHEM_CACTVS_COMPLEXITY>
624

>  <PUBCHEM_CACTVS_HBOND_ACCEPTOR>
3

>  <PUBCHEM_CACTVS_HBOND_DONOR>
0

>  <PUBCHEM_CACTVS_ROTATABLE_BOND>
1

>  <PUBCHEM_CACTVS_SUBSKEYS>
AAADccBwMAAAAAAAAAAAAAAAAAAAAYIAAAAAAAAABAAAAACAAAAAGgAAAAAADASggAICCAAABACIAijSiAAACAAgIAAICAEAAEgIBAYIIQACEAAA4AAIoQIAAAAAAAAAAAAAAAAAAAAAAAAAAAAAAAAAAA==

>  <PUBCHEM_IUPAC_OPENEYE_NAME>
6-methyl-9-methylene-2-oxo-7,8-dihydroazuleno[4,5-b]furan-3-carbaldehyde

>  <PUBCHEM_IUPAC_CAS_NAME>
6-methyl-9-methylene-2-oxo-7,8-dihydroazuleno[4,5-b]furan-3-carboxaldehyde

>  <PUBCHEM_IUPAC_NAME>
6-methyl-9-methylidene-2-oxo-7,8-dihydroazuleno[4,5-b]furan-3-carbaldehyde

>  <PUBCHEM_IUPAC_SYSTEMATIC_NAME>
6-methyl-9-methylidene-2-oxidanylidene-7,8-dihydroazuleno[4,5-b]furan-3-carbaldehyde

>  <PUBCHEM_IUPAC_TRADITIONAL_NAME>
2-keto-6-methyl-9-methylene-7,8-dihydroazuleno[4,5-b]furan-3-carbaldehyde

>  <PUBCHEM_IUPAC_INCHI>
InChI=1S/C15H12O3/c1-8-3-6-11-12(7-16)15(17)18-14(11)13-9(2)4-5-10(8)13/h3,6-7H,2,4-5H2,1H3

>  <PUBCHEM_IUPAC_INCHIKEY>
PATCUDSVUMFCMB-UHFFFAOYSA-N

>  <PUBCHEM_XLOGP3_AA>
1

>  <PUBCHEM_EXACT_MASS>
240.079

>  <PUBCHEM_MOLECULAR_FORMULA>
C15H12O3

>  <PUBCHEM_MOLECULAR_WEIGHT>
240.258

>  <PUBCHEM_OPENEYE_CAN_SMILES>
CC1=C2CCC(=C)C2=C3C(=C(C(=O)O3)C=O)C=C1

>  <PUBCHEM_OPENEYE_ISO_SMILES>
CC1=C2CCC(=C)C2=C3C(=C(C(=O)O3)C=O)C=C1

>  <PUBCHEM_CACTVS_TPSA>
43.4

>  <PUBCHEM_MONOISOTOPIC_WEIGHT>
240.079

>  <PUBCHEM_TOTAL_CHARGE>
0

>  <PUBCHEM_HEAVY_ATOM_COUNT>
18

>  <PUBCHEM_ATOM_DEF_STEREO_COUNT>
0

>  <PUBCHEM_ATOM_UDEF_STEREO_COUNT>
0

>  <PUBCHEM_BOND_DEF_STEREO_COUNT>
0

>  <PUBCHEM_BOND_UDEF_STEREO_COUNT>
0

>  <PUBCHEM_ISOTOPIC_ATOM_COUNT>
0

>  <PUBCHEM_COMPONENT_COUNT>
1

>  <PUBCHEM_CACTVS_TAUTO_COUNT>
1

>  <PUBCHEM_COORDINATE_TYPE>
1
5
255

>  <PUBCHEM_BONDANNOTATIONS>
1  17  8
1  9  8
10  12  8
11  13  8
11  14  8
12  13  8
14  17  8
4  10  8
4  6  8
6  9  8

$$$$
