179399
 OpenBabel06101807152D

 37 39  0  0  0  0  0  0  0  0999 V2000
    7.3424    0.3047    0.0000 O   0  0  0  0  0  0  0  0  0  0  0  0
    3.7702    0.5347    0.0000 O   0  0  0  0  0  0  0  0  0  0  0  0
    5.5301   -2.5000    0.0000 O   0  0  0  0  0  0  0  0  0  0  0  0
    2.0000    0.5242    0.0000 O   0  0  0  0  0  0  0  0  0  0  0  0
    5.5301    1.5000    0.0000 C   0  0  0  0  0  0  0  0  0  0  0  0
    5.5301    0.5000    0.0000 C   0  0  0  0  0  0  0  0  0  0  0  0
    6.3961    0.0000    0.0000 C   0  0  0  0  0  0  0  0  0  0  0  0
    4.6641    0.0000    0.0000 C   0  0  0  0  0  0  0  0  0  0  0  0
    6.5301    1.5000    0.0000 C   0  0  0  0  0  0  0  0  0  0  0  0
    4.5301    1.5000    0.0000 C   0  0  0  0  0  0  0  0  0  0  0  0
    6.3961   -1.0000    0.0000 C   0  0  0  0  0  0  0  0  0  0  0  0
    4.6641   -1.0000    0.0000 C   0  0  0  0  0  0  0  0  0  0  0  0
    5.5301   -1.5000    0.0000 C   0  0  0  0  0  0  0  0  0  0  0  0
    5.5301    2.5000    0.0000 C   0  0  0  0  0  0  0  0  0  0  0  0
    7.3424   -1.3047    0.0000 C   0  0  0  0  0  0  0  0  0  0  0  0
    3.7702   -1.5347    0.0000 C   0  0  0  0  0  0  0  0  0  0  0  0
    7.9260   -0.5000    0.0000 C   0  0  0  0  0  0  0  0  0  0  0  0
    2.8641   -1.0208    0.0000 C   0  0  0  0  0  0  0  0  0  0  0  0
    6.3961    3.0000    0.0000 C   0  0  0  0  0  0  0  0  0  0  0  0
    2.8641    0.0208    0.0000 C   0  0  0  0  0  0  0  0  0  0  0  0
    6.3961   -3.0000    0.0000 C   0  0  0  0  0  0  0  0  0  0  0  0
    4.5301    2.1200    0.0000 H   0  0  0  0  0  0  0  0  0  0  0  0
    3.9101    1.5000    0.0000 H   0  0  0  0  0  0  0  0  0  0  0  0
    4.5301    0.8800    0.0000 H   0  0  0  0  0  0  0  0  0  0  0  0
    6.5301    0.8800    0.0000 H   0  0  0  0  0  0  0  0  0  0  0  0
    7.1501    1.5000    0.0000 H   0  0  0  0  0  0  0  0  0  0  0  0
    6.5301    2.1200    0.0000 H   0  0  0  0  0  0  0  0  0  0  0  0
    4.9932    2.8100    0.0000 H   0  0  0  0  0  0  0  0  0  0  0  0
    7.5350   -1.8940    0.0000 H   0  0  0  0  0  0  0  0  0  0  0  0
    3.7773   -2.1546    0.0000 H   0  0  0  0  0  0  0  0  0  0  0  0
    8.5460   -0.5000    0.0000 H   0  0  0  0  0  0  0  0  0  0  0  0
    2.3284   -1.3329    0.0000 H   0  0  0  0  0  0  0  0  0  0  0  0
    6.9331    2.6900    0.0000 H   0  0  0  0  0  0  0  0  0  0  0  0
    6.3961    3.6200    0.0000 H   0  0  0  0  0  0  0  0  0  0  0  0
    6.0862   -3.5369    0.0000 H   0  0  0  0  0  0  0  0  0  0  0  0
    6.9331   -3.3100    0.0000 H   0  0  0  0  0  0  0  0  0  0  0  0
    6.7062   -2.4631    0.0000 H   0  0  0  0  0  0  0  0  0  0  0  0
  1  7  1  0  0  0  0
  1 17  1  0  0  0  0
  2  8  1  0  0  0  0
  2 20  1  0  0  0  0
  3 13  1  0  0  0  0
  3 21  1  0  0  0  0
  4 20  2  0  0  0  0
  5  6  1  0  0  0  0
  5  9  1  0  0  0  0
  5 10  1  0  0  0  0
  5 14  1  0  0  0  0
  6  7  2  0  0  0  0
  6  8  1  0  0  0  0
  7 11  1  0  0  0  0
  8 12  2  0  0  0  0
  9 25  1  0  0  0  0
  9 26  1  0  0  0  0
  9 27  1  0  0  0  0
 10 22  1  0  0  0  0
 10 23  1  0  0  0  0
 10 24  1  0  0  0  0
 11 13  2  0  0  0  0
 11 15  1  0  0  0  0
 12 13  1  0  0  0  0
 12 16  1  0  0  0  0
 14 19  2  0  0  0  0
 14 28  1  0  0  0  0
 15 17  2  0  0  0  0
 15 29  1  0  0  0  0
 16 18  2  0  0  0  0
 16 30  1  0  0  0  0
 17 31  1  0  0  0  0
 18 20  1  0  0  0  0
 18 32  1  0  0  0  0
 19 33  1  0  0  0  0
 19 34  1  0  0  0  0
 21 35  1  0  0  0  0
 21 36  1  0  0  0  0
 21 37  1  0  0  0  0
M  END
>  <PUBCHEM_COMPOUND_CID>
179399

>  <PUBCHEM_COMPOUND_CANONICALIZED>
1

>  <PUBCHEM_CACTVS_COMPLEXITY>
467

>  <PUBCHEM_CACTVS_HBOND_ACCEPTOR>
4

>  <PUBCHEM_CACTVS_HBOND_DONOR>
0

>  <PUBCHEM_CACTVS_ROTATABLE_BOND>
3

>  <PUBCHEM_CACTVS_SUBSKEYS>
AAADceB4OAAAAAAAAAAAAAAAAAAAASAAAAAwQAAAAAAAAEiB8AAAGgAAAAAADgSgmAIyDsAABECIAqjSiAACCAAkIAAIiAEGCMgMJzaENBqCO2Cl4BUIqYfK7PzPoAACCAAIAABAAAQQABAAAAAAAAAAAA==

>  <PUBCHEM_IUPAC_OPENEYE_NAME>
9-(1,1-dimethylallyl)-4-methoxy-furo[3,2-g]chromen-7-one

>  <PUBCHEM_IUPAC_CAS_NAME>
4-methoxy-9-(2-methylbut-3-en-2-yl)-7-furo[3,2-g][1]benzopyranone

>  <PUBCHEM_IUPAC_NAME>
4-methoxy-9-(2-methylbut-3-en-2-yl)furo[3,2-g]chromen-7-one

>  <PUBCHEM_IUPAC_SYSTEMATIC_NAME>
4-methoxy-9-(2-methylbut-3-en-2-yl)furo[3,2-g]chromen-7-one

>  <PUBCHEM_IUPAC_TRADITIONAL_NAME>
9-(1,1-dimethylallyl)-4-methoxy-furo[3,2-g]chromen-7-one

>  <PUBCHEM_IUPAC_INCHI>
InChI=1S/C17H16O4/c1-5-17(2,3)13-15-11(8-9-20-15)14(19-4)10-6-7-12(18)21-16(10)13/h5-9H,1H2,2-4H3

>  <PUBCHEM_IUPAC_INCHIKEY>
ZPLVEUIOSKJIDT-UHFFFAOYSA-N

>  <PUBCHEM_XLOGP3_AA>
4.2

>  <PUBCHEM_EXACT_MASS>
284.105

>  <PUBCHEM_MOLECULAR_FORMULA>
C17H16O4

>  <PUBCHEM_MOLECULAR_WEIGHT>
284.311

>  <PUBCHEM_OPENEYE_CAN_SMILES>
CC(C)(C=C)C1=C2C(=C(C3=C1OC(=O)C=C3)OC)C=CO2

>  <PUBCHEM_OPENEYE_ISO_SMILES>
CC(C)(C=C)C1=C2C(=C(C3=C1OC(=O)C=C3)OC)C=CO2

>  <PUBCHEM_CACTVS_TPSA>
48.7

>  <PUBCHEM_MONOISOTOPIC_WEIGHT>
284.105

>  <PUBCHEM_TOTAL_CHARGE>
0

>  <PUBCHEM_HEAVY_ATOM_COUNT>
21

>  <PUBCHEM_ATOM_DEF_STEREO_COUNT>
0

>  <PUBCHEM_ATOM_UDEF_STEREO_COUNT>
0

>  <PUBCHEM_BOND_DEF_STEREO_COUNT>
0

>  <PUBCHEM_BOND_UDEF_STEREO_COUNT>
0

>  <PUBCHEM_ISOTOPIC_ATOM_COUNT>
0

>  <PUBCHEM_COMPONENT_COUNT>
1

>  <PUBCHEM_CACTVS_TAUTO_COUNT>
1

>  <PUBCHEM_COORDINATE_TYPE>
1
5
255

>  <PUBCHEM_BONDANNOTATIONS>
1  17  8
1  7  8
11  13  8
11  15  8
12  13  8
12  16  8
15  17  8
16  18  8
18  20  8
2  20  8
2  8  8
6  7  8
6  8  8
7  11  8
8  12  8

$$$$
