181092
 OpenBabel06101807152D

 45 47  0  0  0  0  0  0  0  0999 V2000
    6.3580   -0.1743    0.0000 O   0  0  0  0  0  0  0  0  0  0  0  0
    4.5981   -1.1396    0.0000 O   0  0  0  0  0  0  0  0  0  0  0  0
    2.8660   -0.1396    0.0000 O   0  0  0  0  0  0  0  0  0  0  0  0
    2.8660    1.8604    0.0000 O   0  0  0  0  0  0  0  0  0  0  0  0
    4.5981    2.8604    0.0000 O   0  0  0  0  0  0  0  0  0  0  0  0
    6.3465    2.8950    0.0000 O   0  0  0  0  0  0  0  0  0  0  0  0
    8.9846   -2.6671    0.0000 O   0  0  0  0  0  0  0  0  0  0  0  0
   10.7205   -1.6738    0.0000 O   0  0  0  0  0  0  0  0  0  0  0  0
    5.4641    1.3604    0.0000 C   0  0  0  0  0  0  0  0  0  0  0  0
    5.4641    0.3604    0.0000 C   0  0  0  0  0  0  0  0  0  0  0  0
    4.5981   -0.1396    0.0000 C   0  0  0  0  0  0  0  0  0  0  0  0
    4.5981    1.8604    0.0000 C   0  0  0  0  0  0  0  0  0  0  0  0
    7.2641    0.3396    0.0000 C   0  0  0  0  0  0  0  0  0  0  0  0
    3.7320    0.3604    0.0000 C   0  0  0  0  0  0  0  0  0  0  0  0
    3.7320    1.3604    0.0000 C   0  0  0  0  0  0  0  0  0  0  0  0
    6.3580    1.8951    0.0000 C   0  0  0  0  0  0  0  0  0  0  0  0
    8.1282   -0.1637    0.0000 C   0  0  0  0  0  0  0  0  0  0  0  0
    7.2641    1.3812    0.0000 C   0  0  0  0  0  0  0  0  0  0  0  0
    8.1244   -1.1637    0.0000 C   0  0  0  0  0  0  0  0  0  0  0  0
    8.9962    0.3329    0.0000 C   0  0  0  0  0  0  0  0  0  0  0  0
    8.9884   -1.6671    0.0000 C   0  0  0  0  0  0  0  0  0  0  0  0
    9.8602   -0.1704    0.0000 C   0  0  0  0  0  0  0  0  0  0  0  0
    9.8564   -1.1704    0.0000 C   0  0  0  0  0  0  0  0  0  0  0  0
    3.7320   -1.6396    0.0000 C   0  0  0  0  0  0  0  0  0  0  0  0
    2.0000    0.3604    0.0000 C   0  0  0  0  0  0  0  0  0  0  0  0
    2.0000    1.3604    0.0000 C   0  0  0  0  0  0  0  0  0  0  0  0
    9.8487   -3.1704    0.0000 C   0  0  0  0  0  0  0  0  0  0  0  0
    7.7998    1.6933    0.0000 H   0  0  0  0  0  0  0  0  0  0  0  0
    7.5862   -1.4717    0.0000 H   0  0  0  0  0  0  0  0  0  0  0  0
    8.9985    0.9529    0.0000 H   0  0  0  0  0  0  0  0  0  0  0  0
   10.3984    0.1375    0.0000 H   0  0  0  0  0  0  0  0  0  0  0  0
    4.0611    3.1704    0.0000 H   0  0  0  0  0  0  0  0  0  0  0  0
    3.4220   -1.1027    0.0000 H   0  0  0  0  0  0  0  0  0  0  0  0
    3.1951   -1.9496    0.0000 H   0  0  0  0  0  0  0  0  0  0  0  0
    4.0420   -2.1765    0.0000 H   0  0  0  0  0  0  0  0  0  0  0  0
    2.3100    0.8973    0.0000 H   0  0  0  0  0  0  0  0  0  0  0  0
    1.4631    0.6704    0.0000 H   0  0  0  0  0  0  0  0  0  0  0  0
    1.6900   -0.1765    0.0000 H   0  0  0  0  0  0  0  0  0  0  0  0
    1.6900    1.8973    0.0000 H   0  0  0  0  0  0  0  0  0  0  0  0
    1.4631    1.0504    0.0000 H   0  0  0  0  0  0  0  0  0  0  0  0
    2.3100    0.8235    0.0000 H   0  0  0  0  0  0  0  0  0  0  0  0
   11.2586   -1.3658    0.0000 H   0  0  0  0  0  0  0  0  0  0  0  0
    9.5366   -3.7061    0.0000 H   0  0  0  0  0  0  0  0  0  0  0  0
   10.3844   -3.4825    0.0000 H   0  0  0  0  0  0  0  0  0  0  0  0
   10.1607   -2.6347    0.0000 H   0  0  0  0  0  0  0  0  0  0  0  0
  1 10  1  0  0  0  0
  1 13  1  0  0  0  0
  2 11  1  0  0  0  0
  2 24  1  0  0  0  0
  3 14  1  0  0  0  0
  3 25  1  0  0  0  0
  4 15  1  0  0  0  0
  4 26  1  0  0  0  0
  5 12  1  0  0  0  0
  5 32  1  0  0  0  0
  6 16  2  0  0  0  0
  7 21  1  0  0  0  0
  7 27  1  0  0  0  0
  8 23  1  0  0  0  0
  8 42  1  0  0  0  0
  9 10  1  0  0  0  0
  9 12  2  0  0  0  0
  9 16  1  0  0  0  0
 10 11  2  0  0  0  0
 11 14  1  0  0  0  0
 12 15  1  0  0  0  0
 13 17  1  0  0  0  0
 13 18  2  0  0  0  0
 14 15  2  0  0  0  0
 16 18  1  0  0  0  0
 17 19  2  0  0  0  0
 17 20  1  0  0  0  0
 18 28  1  0  0  0  0
 19 21  1  0  0  0  0
 19 29  1  0  0  0  0
 20 22  2  0  0  0  0
 20 30  1  0  0  0  0
 21 23  2  0  0  0  0
 22 23  1  0  0  0  0
 22 31  1  0  0  0  0
 24 33  1  0  0  0  0
 24 34  1  0  0  0  0
 24 35  1  0  0  0  0
 25 36  1  0  0  0  0
 25 37  1  0  0  0  0
 25 38  1  0  0  0  0
 26 39  1  0  0  0  0
 26 40  1  0  0  0  0
 26 41  1  0  0  0  0
 27 43  1  0  0  0  0
 27 44  1  0  0  0  0
 27 45  1  0  0  0  0
M  END
>  <PUBCHEM_COMPOUND_CID>
181092

>  <PUBCHEM_COMPOUND_CANONICALIZED>
1

>  <PUBCHEM_CACTVS_COMPLEXITY>
564

>  <PUBCHEM_CACTVS_HBOND_ACCEPTOR>
8

>  <PUBCHEM_CACTVS_HBOND_DONOR>
2

>  <PUBCHEM_CACTVS_ROTATABLE_BOND>
5

>  <PUBCHEM_CACTVS_SUBSKEYS>
AAADceB4PAAAAAAAAAAAAAAAAAAAAAAAAAAwYIAAAAAAAACBQAAAGgAACAAADASAmAIyBoAABgCIAqBSAAACCAAkIAAIiAEGiMgNJzaGNRqCeWOl4BULuQfK7LzOIQABCAAIQABCAAIQABCAAAAAAAAAAA==

>  <PUBCHEM_IUPAC_OPENEYE_NAME>
5-hydroxy-2-(4-hydroxy-3-methoxy-phenyl)-6,7,8-trimethoxy-chromen-4-one

>  <PUBCHEM_IUPAC_CAS_NAME>
5-hydroxy-2-(4-hydroxy-3-methoxyphenyl)-6,7,8-trimethoxy-1-benzopyran-4-one

>  <PUBCHEM_IUPAC_NAME>
5-hydroxy-2-(4-hydroxy-3-methoxyphenyl)-6,7,8-trimethoxychromen-4-one

>  <PUBCHEM_IUPAC_SYSTEMATIC_NAME>
6,7,8-trimethoxy-2-(3-methoxy-4-oxidanyl-phenyl)-5-oxidanyl-chromen-4-one

>  <PUBCHEM_IUPAC_TRADITIONAL_NAME>
5-hydroxy-2-(4-hydroxy-3-methoxy-phenyl)-6,7,8-trimethoxy-chromone

>  <PUBCHEM_IUPAC_INCHI>
InChI=1S/C19H18O8/c1-23-13-7-9(5-6-10(13)20)12-8-11(21)14-15(22)17(24-2)19(26-4)18(25-3)16(14)27-12/h5-8,20,22H,1-4H3

>  <PUBCHEM_IUPAC_INCHIKEY>
UBZBPKARIHPOEC-UHFFFAOYSA-N

>  <PUBCHEM_XLOGP3_AA>
2.9

>  <PUBCHEM_EXACT_MASS>
374.1

>  <PUBCHEM_MOLECULAR_FORMULA>
C19H18O8

>  <PUBCHEM_MOLECULAR_WEIGHT>
374.345

>  <PUBCHEM_OPENEYE_CAN_SMILES>
COC1=C(C=CC(=C1)C2=CC(=O)C3=C(O2)C(=C(C(=C3O)OC)OC)OC)O

>  <PUBCHEM_OPENEYE_ISO_SMILES>
COC1=C(C=CC(=C1)C2=CC(=O)C3=C(O2)C(=C(C(=C3O)OC)OC)OC)O

>  <PUBCHEM_CACTVS_TPSA>
104

>  <PUBCHEM_MONOISOTOPIC_WEIGHT>
374.1

>  <PUBCHEM_TOTAL_CHARGE>
0

>  <PUBCHEM_HEAVY_ATOM_COUNT>
27

>  <PUBCHEM_ATOM_DEF_STEREO_COUNT>
0

>  <PUBCHEM_ATOM_UDEF_STEREO_COUNT>
0

>  <PUBCHEM_BOND_DEF_STEREO_COUNT>
0

>  <PUBCHEM_BOND_UDEF_STEREO_COUNT>
0

>  <PUBCHEM_ISOTOPIC_ATOM_COUNT>
0

>  <PUBCHEM_COMPONENT_COUNT>
1

>  <PUBCHEM_CACTVS_TAUTO_COUNT>
23

>  <PUBCHEM_COORDINATE_TYPE>
1
5
255

>  <PUBCHEM_BONDANNOTATIONS>
1  10  8
1  13  8
10  11  8
11  14  8
12  15  8
13  18  8
14  15  8
16  18  8
17  19  8
17  20  8
19  21  8
20  22  8
21  23  8
22  23  8
9  10  8
9  12  8
9  16  8

$$$$
