181164
 OpenBabel06101807152D

157165  0  0  1  0  0  0  0  0999 V2000
   10.8882    2.6557    0.0000 O   0  0  0  0  0  0  0  0  0  0  0  0
    9.3592    3.8876    0.0000 O   0  0  0  0  0  0  0  0  0  0  0  0
    9.4651   -5.5884    0.0000 O   0  0  0  0  0  0  0  0  0  0  0  0
    7.7331   -5.5884    0.0000 O   0  0  0  0  0  0  0  0  0  0  0  0
    9.4651   -7.5884    0.0000 O   0  0  0  0  0  0  0  0  0  0  0  0
   13.5227    5.7550    0.0000 O   0  0  0  0  0  0  0  0  0  0  0  0
    7.7331   -8.5884    0.0000 O   0  0  0  0  0  0  0  0  0  0  0  0
    6.0010   -7.5884    0.0000 O   0  0  0  0  0  0  0  0  0  0  0  0
   10.3312   -6.0884    0.0000 O   0  0  0  0  0  0  0  0  0  0  0  0
    6.0010   -4.5884    0.0000 O   0  0  0  0  0  0  0  0  0  0  0  0
   15.0202    6.6255    0.0000 O   0  0  0  0  0  0  0  0  0  0  0  0
    5.1350   -6.0884    0.0000 O   0  0  0  0  0  0  0  0  0  0  0  0
   11.1972   -8.5884    0.0000 O   0  0  0  0  0  0  0  0  0  0  0  0
   14.5279    4.0260    0.0000 O   0  0  0  0  0  0  0  0  0  0  0  0
   12.9292   -7.5884    0.0000 O   0  0  0  0  0  0  0  0  0  0  0  0
   16.5279    4.0319    0.0000 O   0  0  0  0  0  0  0  0  0  0  0  0
   12.9292   -5.5884    0.0000 O   0  0  0  0  0  0  0  0  0  0  0  0
    4.2690   -8.5884    0.0000 O   0  0  0  0  0  0  0  0  0  0  0  0
   17.5227    5.7670    0.0000 O   0  0  0  0  0  0  0  0  0  0  0  0
    2.5369   -7.5884    0.0000 O   0  0  0  0  0  0  0  0  0  0  0  0
   12.0632   -4.0884    0.0000 O   0  0  0  0  0  0  0  0  0  0  0  0
    2.5369   -5.5884    0.0000 O   0  0  0  0  0  0  0  0  0  0  0  0
   16.0150    8.3605    0.0000 O   0  0  0  0  0  0  0  0  0  0  0  0
    9.4944    0.6085    0.0000 C   0  0  3  0  0  0  0  0  0  0  0  0
   10.3623    0.1118    0.0000 C   0  0  3  0  0  0  0  0  0  0  0  0
   10.3662   -0.8882    0.0000 C   0  0  3  0  0  0  0  0  0  0  0  0
    9.6999    1.5811    0.0000 C   0  0  3  0  0  0  0  0  0  0  0  0
    9.5021   -1.3915    0.0000 C   0  0  3  0  0  0  0  0  0  0  0  0
    9.4901   -2.4331    0.0000 C   0  0  3  0  0  0  0  0  0  0  0  0
   10.6882    1.6880    0.0000 C   0  0  3  0  0  0  0  0  0  0  0  0
   11.0968    0.7817    0.0000 C   0  0  0  0  0  0  0  0  0  0  0  0
    8.6303    0.1051    0.0000 C   0  0  0  0  0  0  0  0  0  0  0  0
    8.6342   -0.8949    0.0000 C   0  0  0  0  0  0  0  0  0  0  0  0
   10.3901   -2.9574    0.0000 C   0  0  3  0  0  0  0  0  0  0  0  0
    9.2976    2.4837    0.0000 C   0  0  3  0  0  0  0  0  0  0  0  0
   11.2781   -1.3915    0.0000 C   0  0  0  0  0  0  0  0  0  0  0  0
   11.2902   -2.4331    0.0000 C   0  0  0  0  0  0  0  0  0  0  0  0
    8.6264    1.1051    0.0000 C   0  0  0  0  0  0  0  0  0  0  0  0
   10.0305    3.1465    0.0000 C   0  0  3  0  0  0  0  0  0  0  0  0
    8.5402   -2.9574    0.0000 C   0  0  0  0  0  0  0  0  0  0  0  0
   10.4027   -4.0423    0.0000 C   0  0  0  0  0  0  0  0  0  0  0  0
    8.6260   -1.9297    0.0000 C   0  0  0  0  0  0  0  0  0  0  0  0
    8.5276   -4.0423    0.0000 C   0  0  0  0  0  0  0  0  0  0  0  0
    9.4651   -4.5884    0.0000 C   0  0  3  0  0  0  0  0  0  0  0  0
    8.3192    2.6904    0.0000 C   0  0  0  0  0  0  0  0  0  0  0  0
   10.5279    4.0140    0.0000 C   0  0  0  0  0  0  0  0  0  0  0  0
   11.5279    4.0170    0.0000 C   0  0  0  0  0  0  0  0  0  0  0  0
   12.0253    4.8845    0.0000 C   0  0  3  0  0  0  0  0  0  0  0  0
    8.5991   -6.0884    0.0000 C   0  0  3  0  0  0  0  0  0  0  0  0
    8.5991   -7.0884    0.0000 C   0  0  3  0  0  0  0  0  0  0  0  0
   13.0253    4.8875    0.0000 C   0  0  0  0  0  0  0  0  0  0  0  0
   11.5228    5.7490    0.0000 C   0  0  0  0  0  0  0  0  0  0  0  0
    7.7331   -7.5884    0.0000 C   0  0  3  0  0  0  0  0  0  0  0  0
    6.8671   -6.0884    0.0000 C   0  0  3  0  0  0  0  0  0  0  0  0
    6.8671   -7.0884    0.0000 C   0  0  3  0  0  0  0  0  0  0  0  0
    6.0010   -5.5884    0.0000 C   0  0  0  0  0  0  0  0  0  0  0  0
   10.3312   -7.0884    0.0000 C   0  0  3  0  0  0  0  0  0  0  0  0
   14.5227    5.7580    0.0000 C   0  0  3  0  0  0  0  0  0  0  0  0
   11.1972   -7.5884    0.0000 C   0  0  3  0  0  0  0  0  0  0  0  0
   15.0253    4.8935    0.0000 C   0  0  3  0  0  0  0  0  0  0  0  0
    5.1350   -7.0884    0.0000 C   0  0  3  0  0  0  0  0  0  0  0  0
   12.0632   -7.0884    0.0000 C   0  0  3  0  0  0  0  0  0  0  0  0
   16.0253    4.8965    0.0000 C   0  0  3  0  0  0  0  0  0  0  0  0
   11.1972   -5.5884    0.0000 C   0  0  3  0  0  0  0  0  0  0  0  0
   12.0632   -6.0884    0.0000 C   0  0  3  0  0  0  0  0  0  0  0  0
    4.2690   -7.5884    0.0000 C   0  0  3  0  0  0  0  0  0  0  0  0
   16.0201    6.6285    0.0000 C   0  0  3  0  0  0  0  0  0  0  0  0
   16.5227    5.7640    0.0000 C   0  0  3  0  0  0  0  0  0  0  0  0
    3.4030   -7.0884    0.0000 C   0  0  3  0  0  0  0  0  0  0  0  0
   11.1972   -4.5884    0.0000 C   0  0  0  0  0  0  0  0  0  0  0  0
    4.2690   -5.5884    0.0000 C   0  0  0  0  0  0  0  0  0  0  0  0
    3.4030   -6.0884    0.0000 C   0  0  3  0  0  0  0  0  0  0  0  0
   16.5176    7.4960    0.0000 C   0  0  0  0  0  0  0  0  0  0  0  0
   11.1406   -0.2299    0.0000 H   0  0  0  0  0  0  0  0  0  0  0  0
   11.0974   -0.4547    0.0000 H   0  0  0  0  0  0  0  0  0  0  0  0
    8.8546    1.4915    0.0000 H   0  0  0  0  0  0  0  0  0  0  0  0
   10.2366   -1.8194    0.0000 H   0  0  0  0  0  0  0  0  0  0  0  0
   11.5330    1.7812    0.0000 H   0  0  0  0  0  0  0  0  0  0  0  0
   11.4642    0.2823    0.0000 H   0  0  0  0  0  0  0  0  0  0  0  0
   11.6321    1.0946    0.0000 H   0  0  0  0  0  0  0  0  0  0  0  0
    8.4160    0.6869    0.0000 H   0  0  0  0  0  0  0  0  0  0  0  0
    8.0201   -0.0049    0.0000 H   0  0  0  0  0  0  0  0  0  0  0  0
    8.0232   -0.7895    0.0000 H   0  0  0  0  0  0  0  0  0  0  0  0
    8.4244   -1.4783    0.0000 H   0  0  0  0  0  0  0  0  0  0  0  0
   11.1295   -3.3767    0.0000 H   0  0  0  0  0  0  0  0  0  0  0  0
    8.7632    1.8227    0.0000 H   0  0  0  0  0  0  0  0  0  0  0  0
   11.8902   -1.4905    0.0000 H   0  0  0  0  0  0  0  0  0  0  0  0
   11.4804   -0.8054    0.0000 H   0  0  0  0  0  0  0  0  0  0  0  0
   11.5060   -3.0143    0.0000 H   0  0  0  0  0  0  0  0  0  0  0  0
   11.8998   -2.3199    0.0000 H   0  0  0  0  0  0  0  0  0  0  0  0
    8.9344    1.6433    0.0000 H   0  0  0  0  0  0  0  0  0  0  0  0
    8.0883    1.4131    0.0000 H   0  0  0  0  0  0  0  0  0  0  0  0
    8.3185    0.5670    0.0000 H   0  0  0  0  0  0  0  0  0  0  0  0
    8.3379   -2.3713    0.0000 H   0  0  0  0  0  0  0  0  0  0  0  0
    7.9281   -3.0564    0.0000 H   0  0  0  0  0  0  0  0  0  0  0  0
   10.6185   -4.6235    0.0000 H   0  0  0  0  0  0  0  0  0  0  0  0
   11.0123   -3.9291    0.0000 H   0  0  0  0  0  0  0  0  0  0  0  0
    8.9380   -1.3940    0.0000 H   0  0  0  0  0  0  0  0  0  0  0  0
    8.0902   -1.6177    0.0000 H   0  0  0  0  0  0  0  0  0  0  0  0
    8.3139   -2.4655    0.0000 H   0  0  0  0  0  0  0  0  0  0  0  0
    7.9180   -3.9291    0.0000 H   0  0  0  0  0  0  0  0  0  0  0  0
    8.3118   -4.6235    0.0000 H   0  0  0  0  0  0  0  0  0  0  0  0
   10.2021   -5.0120    0.0000 H   0  0  0  0  0  0  0  0  0  0  0  0
    8.4473    3.2970    0.0000 H   0  0  0  0  0  0  0  0  0  0  0  0
    7.7125    2.8185    0.0000 H   0  0  0  0  0  0  0  0  0  0  0  0
    8.1910    2.0838    0.0000 H   0  0  0  0  0  0  0  0  0  0  0  0
   10.6338    4.6249    0.0000 H   0  0  0  0  0  0  0  0  0  0  0  0
    9.9447    4.2243    0.0000 H   0  0  0  0  0  0  0  0  0  0  0  0
    9.5490    4.4778    0.0000 H   0  0  0  0  0  0  0  0  0  0  0  0
   11.4221    3.4061    0.0000 H   0  0  0  0  0  0  0  0  0  0  0  0
   12.1112    3.8067    0.0000 H   0  0  0  0  0  0  0  0  0  0  0  0
   11.1753    4.8820    0.0000 H   0  0  0  0  0  0  0  0  0  0  0  0
    8.5991   -5.2384    0.0000 H   0  0  0  0  0  0  0  0  0  0  0  0
    8.5991   -7.9384    0.0000 H   0  0  0  0  0  0  0  0  0  0  0  0
   12.9195    4.2766    0.0000 H   0  0  0  0  0  0  0  0  0  0  0  0
   13.6086    4.6772    0.0000 H   0  0  0  0  0  0  0  0  0  0  0  0
   12.0588    6.0606    0.0000 H   0  0  0  0  0  0  0  0  0  0  0  0
   11.2112    6.2850    0.0000 H   0  0  0  0  0  0  0  0  0  0  0  0
   10.9868    5.4374    0.0000 H   0  0  0  0  0  0  0  0  0  0  0  0
    6.9970   -8.0134    0.0000 H   0  0  0  0  0  0  0  0  0  0  0  0
    6.8671   -5.2384    0.0000 H   0  0  0  0  0  0  0  0  0  0  0  0
    6.1309   -6.6634    0.0000 H   0  0  0  0  0  0  0  0  0  0  0  0
    5.3905   -5.4807    0.0000 H   0  0  0  0  0  0  0  0  0  0  0  0
    5.7890   -6.1710    0.0000 H   0  0  0  0  0  0  0  0  0  0  0  0
    9.5950   -6.6634    0.0000 H   0  0  0  0  0  0  0  0  0  0  0  0
    7.1962   -8.8984    0.0000 H   0  0  0  0  0  0  0  0  0  0  0  0
   14.0955    6.4928    0.0000 H   0  0  0  0  0  0  0  0  0  0  0  0
   11.9333   -8.0134    0.0000 H   0  0  0  0  0  0  0  0  0  0  0  0
   14.1753    4.8909    0.0000 H   0  0  0  0  0  0  0  0  0  0  0  0
    5.1350   -7.9384    0.0000 H   0  0  0  0  0  0  0  0  0  0  0  0
    5.4641   -4.2784    0.0000 H   0  0  0  0  0  0  0  0  0  0  0  0
   12.7993   -6.6634    0.0000 H   0  0  0  0  0  0  0  0  0  0  0  0
   15.6025    4.1591    0.0000 H   0  0  0  0  0  0  0  0  0  0  0  0
   10.4611   -5.1634    0.0000 H   0  0  0  0  0  0  0  0  0  0  0  0
   12.0632   -5.2384    0.0000 H   0  0  0  0  0  0  0  0  0  0  0  0
    3.5329   -8.0134    0.0000 H   0  0  0  0  0  0  0  0  0  0  0  0
   15.5930    7.3634    0.0000 H   0  0  0  0  0  0  0  0  0  0  0  0
   16.9499    5.0291    0.0000 H   0  0  0  0  0  0  0  0  0  0  0  0
   11.7341   -8.8984    0.0000 H   0  0  0  0  0  0  0  0  0  0  0  0
    2.6668   -6.6634    0.0000 H   0  0  0  0  0  0  0  0  0  0  0  0
   14.8395    3.4899    0.0000 H   0  0  0  0  0  0  0  0  0  0  0  0
   10.9851   -4.0058    0.0000 H   0  0  0  0  0  0  0  0  0  0  0  0
   10.5866   -4.6961    0.0000 H   0  0  0  0  0  0  0  0  0  0  0  0
    4.6675   -5.1134    0.0000 H   0  0  0  0  0  0  0  0  0  0  0  0
    3.8705   -5.1134    0.0000 H   0  0  0  0  0  0  0  0  0  0  0  0
    3.4030   -5.2384    0.0000 H   0  0  0  0  0  0  0  0  0  0  0  0
   16.9937    7.0989    0.0000 H   0  0  0  0  0  0  0  0  0  0  0  0
   16.9913    7.8960    0.0000 H   0  0  0  0  0  0  0  0  0  0  0  0
   12.9292   -8.2084    0.0000 H   0  0  0  0  0  0  0  0  0  0  0  0
   17.1479    4.0338    0.0000 H   0  0  0  0  0  0  0  0  0  0  0  0
   13.4662   -5.8984    0.0000 H   0  0  0  0  0  0  0  0  0  0  0  0
    3.7320   -8.8984    0.0000 H   0  0  0  0  0  0  0  0  0  0  0  0
   17.8311    6.3048    0.0000 H   0  0  0  0  0  0  0  0  0  0  0  0
    2.0000   -7.2784    0.0000 H   0  0  0  0  0  0  0  0  0  0  0  0
   12.6002   -4.3984    0.0000 H   0  0  0  0  0  0  0  0  0  0  0  0
    2.5369   -4.9684    0.0000 H   0  0  0  0  0  0  0  0  0  0  0  0
   16.3234    8.8984    0.0000 H   0  0  0  0  0  0  0  0  0  0  0  0
  1 30  1  0  0  0  0
  1 39  1  0  0  0  0
  2 39  1  0  0  0  0
  2109  1  0  0  0  0
  3 44  1  0  0  0  0
  3 49  1  0  0  0  0
  4 49  1  0  0  0  0
  4 54  1  0  0  0  0
  5 50  1  0  0  0  0
  5 57  1  0  0  0  0
  6 51  1  0  0  0  0
  6 58  1  0  0  0  0
  7 53  1  0  0  0  0
  7126  1  0  0  0  0
  8 55  1  0  0  0  0
  8 61  1  0  0  0  0
  9 57  1  0  0  0  0
  9 64  1  0  0  0  0
 10 56  1  0  0  0  0
 10131  1  0  0  0  0
 11 58  1  0  0  0  0
 11 67  1  0  0  0  0
 12 61  1  0  0  0  0
 12 71  1  0  0  0  0
 13 59  1  0  0  0  0
 13139  1  0  0  0  0
 14 60  1  0  0  0  0
 14141  1  0  0  0  0
 15 62  1  0  0  0  0
 15149  1  0  0  0  0
 16 63  1  0  0  0  0
 16150  1  0  0  0  0
 17 65  1  0  0  0  0
 17151  1  0  0  0  0
 18 66  1  0  0  0  0
 18152  1  0  0  0  0
 19 68  1  0  0  0  0
 19153  1  0  0  0  0
 20 69  1  0  0  0  0
 20154  1  0  0  0  0
 21 70  1  0  0  0  0
 21155  1  0  0  0  0
 22 72  1  0  0  0  0
 22156  1  0  0  0  0
 23 73  1  0  0  0  0
 23157  1  0  0  0  0
 24 25  1  0  0  0  0
 24 27  1  0  0  0  0
 24 32  1  0  0  0  0
 24 38  1  0  0  0  0
 25 26  1  0  0  0  0
 25 31  1  0  0  0  0
 25 74  1  0  0  0  0
 26 28  1  0  0  0  0
 26 36  1  0  0  0  0
 26 75  1  0  0  0  0
 27 30  1  0  0  0  0
 27 35  1  0  0  0  0
 27 76  1  0  0  0  0
 28 29  1  0  0  0  0
 28 33  1  0  0  0  0
 28 77  1  0  0  0  0
 29 34  1  0  0  0  0
 29 40  1  0  0  0  0
 29 42  1  0  0  0  0
 30 31  1  0  0  0  0
 30 78  1  0  0  0  0
 31 79  1  0  0  0  0
 31 80  1  0  0  0  0
 32 33  1  0  0  0  0
 32 81  1  0  0  0  0
 32 82  1  0  0  0  0
 33 83  1  0  0  0  0
 33 84  1  0  0  0  0
 34 37  1  0  0  0  0
 34 41  1  0  0  0  0
 34 85  1  0  0  0  0
 35 39  1  0  0  0  0
 35 45  1  0  0  0  0
 35 86  1  0  0  0  0
 36 37  1  0  0  0  0
 36 87  1  0  0  0  0
 36 88  1  0  0  0  0
 37 89  1  0  0  0  0
 37 90  1  0  0  0  0
 38 91  1  0  0  0  0
 38 92  1  0  0  0  0
 38 93  1  0  0  0  0
 39 46  1  0  0  0  0
 40 43  1  0  0  0  0
 40 94  1  0  0  0  0
 40 95  1  0  0  0  0
 41 44  1  0  0  0  0
 41 96  1  0  0  0  0
 41 97  1  0  0  0  0
 42 98  1  0  0  0  0
 42 99  1  0  0  0  0
 42100  1  0  0  0  0
 43 44  1  0  0  0  0
 43101  1  0  0  0  0
 43102  1  0  0  0  0
 44103  1  0  0  0  0
 45104  1  0  0  0  0
 45105  1  0  0  0  0
 45106  1  0  0  0  0
 46 47  1  0  0  0  0
 46107  1  0  0  0  0
 46108  1  0  0  0  0
 47 48  1  0  0  0  0
 47110  1  0  0  0  0
 47111  1  0  0  0  0
 48 51  1  0  0  0  0
 48 52  1  0  0  0  0
 48112  1  0  0  0  0
 49 50  1  0  0  0  0
 49113  1  0  0  0  0
 50 53  1  0  0  0  0
 50114  1  0  0  0  0
 51115  1  0  0  0  0
 51116  1  0  0  0  0
 52117  1  0  0  0  0
 52118  1  0  0  0  0
 52119  1  0  0  0  0
 53 55  1  0  0  0  0
 53120  1  0  0  0  0
 54 55  1  0  0  0  0
 54 56  1  0  0  0  0
 54121  1  0  0  0  0
 55122  1  0  0  0  0
 56123  1  0  0  0  0
 56124  1  0  0  0  0
 57 59  1  0  0  0  0
 57125  1  0  0  0  0
 58 60  1  0  0  0  0
 58127  1  0  0  0  0
 59 62  1  0  0  0  0
 59128  1  0  0  0  0
 60 63  1  0  0  0  0
 60129  1  0  0  0  0
 61 66  1  0  0  0  0
 61130  1  0  0  0  0
 62 65  1  0  0  0  0
 62132  1  0  0  0  0
 63 68  1  0  0  0  0
 63133  1  0  0  0  0
 64 65  1  0  0  0  0
 64 70  1  0  0  0  0
 64134  1  0  0  0  0
 65135  1  0  0  0  0
 66 69  1  0  0  0  0
 66136  1  0  0  0  0
 67 68  1  0  0  0  0
 67 73  1  0  0  0  0
 67137  1  0  0  0  0
 68138  1  0  0  0  0
 69 72  1  0  0  0  0
 69140  1  0  0  0  0
 70142  1  0  0  0  0
 70143  1  0  0  0  0
 71 72  1  0  0  0  0
 71144  1  0  0  0  0
 71145  1  0  0  0  0
 72146  1  0  0  0  0
 73147  1  0  0  0  0
 73148  1  0  0  0  0
M  END
>  <PUBCHEM_COMPOUND_CID>
181164

>  <PUBCHEM_COMPOUND_CANONICALIZED>
1

>  <PUBCHEM_CACTVS_COMPLEXITY>
1820

>  <PUBCHEM_CACTVS_HBOND_ACCEPTOR>
23

>  <PUBCHEM_CACTVS_HBOND_DONOR>
14

>  <PUBCHEM_CACTVS_ROTATABLE_BOND>
15

>  <PUBCHEM_CACTVS_SUBSKEYS>
AAADcfB8PgAAAAAAAAAAAAAAAAAAAaIAAAA0aNEiAAASAGDAAAAAGgAACAAADxSwgAMCCAAABgAAAAAAAAAAAAAAAAAAAAAAAAAREAIAAAAiQAAFAAAHAAHA4PwPgAAAAAAAAADAAAYAACAAAYAADAAAAA==

>  <PUBCHEM_IUPAC_INCHI>
InChI=1S/C50H84O23/c1-20(18-65-44-39(61)36(58)34(56)29(15-51)68-44)7-12-50(64)21(2)32-28(73-50)14-26-24-6-5-22-13-23(8-10-48(22,3)25(24)9-11-49(26,32)4)67-47-43(72-46-40(62)37(59)35(57)30(16-52)69-46)41(63)42(31(17-53)70-47)71-45-38(60)33(55)27(54)19-66-45/h20-47,51-64H,5-19H2,1-4H3

>  <PUBCHEM_IUPAC_INCHIKEY>
TUDCHFPLNJLAIG-UHFFFAOYSA-N

>  <PUBCHEM_XLOGP3_AA>
-1.4

>  <PUBCHEM_EXACT_MASS>
1052.54

>  <PUBCHEM_MOLECULAR_FORMULA>
C50H84O23

>  <PUBCHEM_MOLECULAR_WEIGHT>
1053.199

>  <PUBCHEM_OPENEYE_CAN_SMILES>
CC1C2C(CC3C2(CCC4C3CCC5C4(CCC(C5)OC6C(C(C(C(O6)CO)OC7C(C(C(CO7)O)O)O)O)OC8C(C(C(C(O8)CO)O)O)O)C)C)OC1(CCC(C)COC9C(C(C(C(O9)CO)O)O)O)O

>  <PUBCHEM_OPENEYE_ISO_SMILES>
CC1C2C(CC3C2(CCC4C3CCC5C4(CCC(C5)OC6C(C(C(C(O6)CO)OC7C(C(C(CO7)O)O)O)O)OC8C(C(C(C(O8)CO)O)O)O)C)C)OC1(CCC(C)COC9C(C(C(C(O9)CO)O)O)O)O

>  <PUBCHEM_CACTVS_TPSA>
366

>  <PUBCHEM_MONOISOTOPIC_WEIGHT>
1052.54

>  <PUBCHEM_TOTAL_CHARGE>
0

>  <PUBCHEM_HEAVY_ATOM_COUNT>
73

>  <PUBCHEM_ATOM_DEF_STEREO_COUNT>
0

>  <PUBCHEM_ATOM_UDEF_STEREO_COUNT>
31

>  <PUBCHEM_BOND_DEF_STEREO_COUNT>
0

>  <PUBCHEM_BOND_UDEF_STEREO_COUNT>
0

>  <PUBCHEM_ISOTOPIC_ATOM_COUNT>
0

>  <PUBCHEM_COMPONENT_COUNT>
1

>  <PUBCHEM_CACTVS_TAUTO_COUNT>
1

>  <PUBCHEM_COORDINATE_TYPE>
1
5
255

>  <PUBCHEM_BONDANNOTATIONS>
24  38  3
25  74  3
26  75  3
27  76  3
28  77  3
29  42  3
30  78  3
34  85  3
35  86  3
39  46  3
44  103  3
48  112  3
49  113  3
50  114  3
53  120  3
54  121  3
55  122  3
57  125  3
58  127  3
59  128  3
60  129  3
61  130  3
62  132  3
63  133  3
64  134  3
65  135  3
66  136  3
67  137  3
68  138  3
69  140  3
72  146  3

$$$$
