181681
 OpenBabel06101807152D

 52 55  0  0  1  0  0  0  0  0999 V2000
    4.6557    0.2014    0.0000 O   0  0  0  0  0  0  0  0  0  0  0  0
    7.7244    0.2014    0.0000 O   0  0  0  0  0  0  0  0  0  0  0  0
    2.6691    3.3283    0.0000 O   0  0  0  0  0  0  0  0  0  0  0  0
    5.9637    4.3988    0.0000 O   0  0  0  0  0  0  0  0  0  0  0  0
    6.4264   -3.9930    0.0000 O   0  0  0  0  0  0  0  0  0  0  0  0
    4.0074    4.8146    0.0000 O   0  0  0  0  0  0  0  0  0  0  0  0
    8.3834   -4.4054    0.0000 O   0  0  0  0  0  0  0  0  0  0  0  0
    6.1945    0.7014    0.0000 C   0  0  1  0  0  0  0  0  0  0  0  0
    6.1945   -0.2986    0.0000 C   0  0  1  0  0  0  0  0  0  0  0  0
    5.2435    1.0104    0.0000 C   0  0  1  0  0  0  0  0  0  0  0  0
    7.1407   -0.6034    0.0000 C   0  0  1  0  0  0  0  0  0  0  0  0
    5.2435   -0.6076    0.0000 C   0  0  0  0  0  0  0  0  0  0  0  0
    7.1407    1.0061    0.0000 C   0  0  0  0  0  0  0  0  0  0  0  0
    4.9344    1.9614    0.0000 C   0  0  0  0  0  0  0  0  0  0  0  0
    7.4514   -1.5539    0.0000 C   0  0  0  0  0  0  0  0  0  0  0  0
    5.6036    2.7046    0.0000 C   0  0  0  0  0  0  0  0  0  0  0  0
    3.9563    2.1694    0.0000 C   0  0  0  0  0  0  0  0  0  0  0  0
    6.7836   -2.2982    0.0000 C   0  0  0  0  0  0  0  0  0  0  0  0
    8.4299   -1.7601    0.0000 C   0  0  0  0  0  0  0  0  0  0  0  0
    3.6473    3.1204    0.0000 C   0  0  0  0  0  0  0  0  0  0  0  0
    5.2946    3.6556    0.0000 C   0  0  0  0  0  0  0  0  0  0  0  0
    7.0942   -3.2487    0.0000 C   0  0  0  0  0  0  0  0  0  0  0  0
    8.7406   -2.7106    0.0000 C   0  0  0  0  0  0  0  0  0  0  0  0
    4.3164    3.8636    0.0000 C   0  0  0  0  0  0  0  0  0  0  0  0
    8.0727   -3.4549    0.0000 C   0  0  0  0  0  0  0  0  0  0  0  0
    2.0000    2.5852    0.0000 C   0  0  0  0  0  0  0  0  0  0  0  0
    6.9418    4.1909    0.0000 C   0  0  0  0  0  0  0  0  0  0  0  0
    6.7370   -4.9435    0.0000 C   0  0  0  0  0  0  0  0  0  0  0  0
    6.1956    1.5514    0.0000 H   0  0  0  0  0  0  0  0  0  0  0  0
    6.1956   -1.1486    0.0000 H   0  0  0  0  0  0  0  0  0  0  0  0
    4.6311    1.1074    0.0000 H   0  0  0  0  0  0  0  0  0  0  0  0
    7.7532   -0.6996    0.0000 H   0  0  0  0  0  0  0  0  0  0  0  0
    4.7065   -0.9176    0.0000 H   0  0  0  0  0  0  0  0  0  0  0  0
    5.4956   -1.1740    0.0000 H   0  0  0  0  0  0  0  0  0  0  0  0
    7.6781    1.3153    0.0000 H   0  0  0  0  0  0  0  0  0  0  0  0
    6.8897    1.5730    0.0000 H   0  0  0  0  0  0  0  0  0  0  0  0
    6.2100    2.5757    0.0000 H   0  0  0  0  0  0  0  0  0  0  0  0
    3.5414    1.7086    0.0000 H   0  0  0  0  0  0  0  0  0  0  0  0
    6.1769   -2.1703    0.0000 H   0  0  0  0  0  0  0  0  0  0  0  0
    8.8440   -1.2986    0.0000 H   0  0  0  0  0  0  0  0  0  0  0  0
    9.3472   -2.8385    0.0000 H   0  0  0  0  0  0  0  0  0  0  0  0
    3.4009    4.9435    0.0000 H   0  0  0  0  0  0  0  0  0  0  0  0
    8.9901   -4.5333    0.0000 H   0  0  0  0  0  0  0  0  0  0  0  0
    1.5392    3.0000    0.0000 H   0  0  0  0  0  0  0  0  0  0  0  0
    1.5851    2.1244    0.0000 H   0  0  0  0  0  0  0  0  0  0  0  0
    2.4608    2.1703    0.0000 H   0  0  0  0  0  0  0  0  0  0  0  0
    6.8129    3.5844    0.0000 H   0  0  0  0  0  0  0  0  0  0  0  0
    7.5483    4.0620    0.0000 H   0  0  0  0  0  0  0  0  0  0  0  0
    7.0707    4.7973    0.0000 H   0  0  0  0  0  0  0  0  0  0  0  0
    6.1477   -5.1361    0.0000 H   0  0  0  0  0  0  0  0  0  0  0  0
    6.9296   -5.5328    0.0000 H   0  0  0  0  0  0  0  0  0  0  0  0
    7.3264   -4.7509    0.0000 H   0  0  0  0  0  0  0  0  0  0  0  0
  1 10  1  0  0  0  0
  1 12  1  0  0  0  0
  2 11  1  0  0  0  0
  2 13  1  0  0  0  0
  3 20  1  0  0  0  0
  3 26  1  0  0  0  0
  4 21  1  0  0  0  0
  4 27  1  0  0  0  0
  5 22  1  0  0  0  0
  5 28  1  0  0  0  0
  6 24  1  0  0  0  0
  6 42  1  0  0  0  0
  7 25  1  0  0  0  0
  7 43  1  0  0  0  0
  8  9  1  6  0  0  0
  8 13  1  0  0  0  0
  8 29  1  0  0  0  0
  9 11  1  1  0  0  0
  9 12  1  0  0  0  0
  9 30  1  0  0  0  0
 10  8  1  1  0  0  0
 10 14  1  0  0  0  0
 10 31  1  0  0  0  0
 11 15  1  0  0  0  0
 11 32  1  1  0  0  0
 12 33  1  0  0  0  0
 12 34  1  0  0  0  0
 13 35  1  0  0  0  0
 13 36  1  0  0  0  0
 14 16  2  0  0  0  0
 14 17  1  0  0  0  0
 15 18  2  0  0  0  0
 15 19  1  0  0  0  0
 16 21  1  0  0  0  0
 16 37  1  0  0  0  0
 17 20  2  0  0  0  0
 17 38  1  0  0  0  0
 18 22  1  0  0  0  0
 18 39  1  0  0  0  0
 19 23  2  0  0  0  0
 19 40  1  0  0  0  0
 20 24  1  0  0  0  0
 21 24  2  0  0  0  0
 22 25  2  0  0  0  0
 23 25  1  0  0  0  0
 23 41  1  0  0  0  0
 26 44  1  0  0  0  0
 26 45  1  0  0  0  0
 26 46  1  0  0  0  0
 27 47  1  0  0  0  0
 27 48  1  0  0  0  0
 27 49  1  0  0  0  0
 28 50  1  0  0  0  0
 28 51  1  0  0  0  0
 28 52  1  0  0  0  0
M  END
>  <PUBCHEM_COMPOUND_CID>
181681

>  <PUBCHEM_COMPOUND_CANONICALIZED>
1

>  <PUBCHEM_CACTVS_COMPLEXITY>
503

>  <PUBCHEM_CACTVS_HBOND_ACCEPTOR>
7

>  <PUBCHEM_CACTVS_HBOND_DONOR>
2

>  <PUBCHEM_CACTVS_ROTATABLE_BOND>
5

>  <PUBCHEM_CACTVS_SUBSKEYS>
AAADceB4OAAAAAAAAAAAAAAAAAAAASJAAAAwYAAAAAASAAABQAAAGgAACAAADRSgmAIyBoAABgCAAiBCAAACCAAgIAAIiAAGiIgNJyKGMRqCcCMlwBULuAfA4PwOoAABCAAAQABAAAIQAACAAAAAAAAAAA==

>  <PUBCHEM_IUPAC_OPENEYE_NAME>
4-[(3S,3aR,6S,6aR)-3-(4-hydroxy-3-methoxy-phenyl)-1,3,3a,4,6,6a-hexahydrofuro[3,4-c]furan-6-yl]-2,6-dimethoxy-phenol

>  <PUBCHEM_IUPAC_CAS_NAME>
4-[(3S,3aR,6S,6aR)-3-(4-hydroxy-3-methoxyphenyl)-1,3,3a,4,6,6a-hexahydrofuro[3,4-c]furan-6-yl]-2,6-dimethoxyphenol

>  <PUBCHEM_IUPAC_NAME>
4-[(3S,3aR,6S,6aR)-3-(4-hydroxy-3-methoxyphenyl)-1,3,3a,4,6,6a-hexahydrofuro[3,4-c]furan-6-yl]-2,6-dimethoxyphenol

>  <PUBCHEM_IUPAC_SYSTEMATIC_NAME>
4-[(3S,3aR,6S,6aR)-3-(3-methoxy-4-oxidanyl-phenyl)-1,3,3a,4,6,6a-hexahydrofuro[3,4-c]furan-6-yl]-2,6-dimethoxy-phenol

>  <PUBCHEM_IUPAC_TRADITIONAL_NAME>
4-[(3S,3aR,6S,6aR)-3-(4-hydroxy-3-methoxy-phenyl)-1,3,3a,4,6,6a-hexahydrofuro[3,4-c]furan-6-yl]-2,6-dimethoxy-phenol

>  <PUBCHEM_IUPAC_INCHI>
InChI=1S/C21H24O7/c1-24-16-6-11(4-5-15(16)22)20-13-9-28-21(14(13)10-27-20)12-7-17(25-2)19(23)18(8-12)26-3/h4-8,13-14,20-23H,9-10H2,1-3H3/t13-,14-,20+,21+/m0/s1

>  <PUBCHEM_IUPAC_INCHIKEY>
VJOBNGRIBLNUKN-BMHXQBNDSA-N

>  <PUBCHEM_XLOGP3_AA>
2.3

>  <PUBCHEM_EXACT_MASS>
388.152

>  <PUBCHEM_MOLECULAR_FORMULA>
C21H24O7

>  <PUBCHEM_MOLECULAR_WEIGHT>
388.416

>  <PUBCHEM_OPENEYE_CAN_SMILES>
COC1=CC(=CC(=C1O)OC)C2C3COC(C3CO2)C4=CC(=C(C=C4)O)OC

>  <PUBCHEM_OPENEYE_ISO_SMILES>
COC1=CC(=CC(=C1O)OC)[C@@H]2[C@H]3CO[C@@H]([C@H]3CO2)C4=CC(=C(C=C4)O)OC

>  <PUBCHEM_CACTVS_TPSA>
86.6

>  <PUBCHEM_MONOISOTOPIC_WEIGHT>
388.152

>  <PUBCHEM_TOTAL_CHARGE>
0

>  <PUBCHEM_HEAVY_ATOM_COUNT>
28

>  <PUBCHEM_ATOM_DEF_STEREO_COUNT>
4

>  <PUBCHEM_ATOM_UDEF_STEREO_COUNT>
0

>  <PUBCHEM_BOND_DEF_STEREO_COUNT>
0

>  <PUBCHEM_BOND_UDEF_STEREO_COUNT>
0

>  <PUBCHEM_ISOTOPIC_ATOM_COUNT>
0

>  <PUBCHEM_COMPONENT_COUNT>
1

>  <PUBCHEM_CACTVS_TAUTO_COUNT>
6

>  <PUBCHEM_COORDINATE_TYPE>
1
5
255

>  <PUBCHEM_BONDANNOTATIONS>
10  14  6
11  15  6
14  16  8
14  17  8
15  18  8
15  19  8
16  21  8
17  20  8
18  22  8
19  23  8
20  24  8
21  24  8
22  25  8
23  25  8
8  29  6
9  30  6

$$$$
