182073
 OpenBabel06101807152D

 25 26  0  0  0  0  0  0  0  0999 V2000
    4.6660    1.7500    0.0000 O   0  0  0  0  0  0  0  0  0  0  0  0
    6.3981   -1.2500    0.0000 O   0  0  0  0  0  0  0  0  0  0  0  0
    4.6660   -1.2500    0.0000 N   0  0  0  0  0  0  0  0  0  0  0  0
    3.8000   -0.7500    0.0000 C   0  0  0  0  0  0  0  0  0  0  0  0
    3.8000    0.2500    0.0000 C   0  0  0  0  0  0  0  0  0  0  0  0
    4.6660    0.7500    0.0000 C   0  0  0  0  0  0  0  0  0  0  0  0
    5.5321   -0.7500    0.0000 C   0  0  0  0  0  0  0  0  0  0  0  0
    2.9061   -1.2847    0.0000 C   0  0  0  0  0  0  0  0  0  0  0  0
    5.5321    0.2500    0.0000 C   0  0  0  0  0  0  0  0  0  0  0  0
    2.9061    0.7847    0.0000 C   0  0  0  0  0  0  0  0  0  0  0  0
    4.6660   -2.2500    0.0000 C   0  0  0  0  0  0  0  0  0  0  0  0
    2.0000   -0.7708    0.0000 C   0  0  0  0  0  0  0  0  0  0  0  0
    2.0000    0.2708    0.0000 C   0  0  0  0  0  0  0  0  0  0  0  0
    5.5321    2.2500    0.0000 C   0  0  0  0  0  0  0  0  0  0  0  0
    2.9132   -1.9046    0.0000 H   0  0  0  0  0  0  0  0  0  0  0  0
    6.0690    0.5600    0.0000 H   0  0  0  0  0  0  0  0  0  0  0  0
    2.9132    1.4046    0.0000 H   0  0  0  0  0  0  0  0  0  0  0  0
    4.0460   -2.2500    0.0000 H   0  0  0  0  0  0  0  0  0  0  0  0
    4.6660   -2.8700    0.0000 H   0  0  0  0  0  0  0  0  0  0  0  0
    5.2860   -2.2500    0.0000 H   0  0  0  0  0  0  0  0  0  0  0  0
    1.4643   -1.0829    0.0000 H   0  0  0  0  0  0  0  0  0  0  0  0
    1.4643    0.5829    0.0000 H   0  0  0  0  0  0  0  0  0  0  0  0
    5.8421    1.7131    0.0000 H   0  0  0  0  0  0  0  0  0  0  0  0
    6.0690    2.5600    0.0000 H   0  0  0  0  0  0  0  0  0  0  0  0
    5.2221    2.7869    0.0000 H   0  0  0  0  0  0  0  0  0  0  0  0
  1  6  1  0  0  0  0
  1 14  1  0  0  0  0
  2  7  2  0  0  0  0
  3  4  1  0  0  0  0
  3  7  1  0  0  0  0
  3 11  1  0  0  0  0
  4  5  1  0  0  0  0
  4  8  2  0  0  0  0
  5  6  1  0  0  0  0
  5 10  2  0  0  0  0
  6  9  2  0  0  0  0
  7  9  1  0  0  0  0
  8 12  1  0  0  0  0
  8 15  1  0  0  0  0
  9 16  1  0  0  0  0
 10 13  1  0  0  0  0
 10 17  1  0  0  0  0
 11 18  1  0  0  0  0
 11 19  1  0  0  0  0
 11 20  1  0  0  0  0
 12 13  2  0  0  0  0
 12 21  1  0  0  0  0
 13 22  1  0  0  0  0
 14 23  1  0  0  0  0
 14 24  1  0  0  0  0
 14 25  1  0  0  0  0
M  END
>  <PUBCHEM_COMPOUND_CID>
182073

>  <PUBCHEM_COMPOUND_CANONICALIZED>
1

>  <PUBCHEM_CACTVS_COMPLEXITY>
273

>  <PUBCHEM_CACTVS_HBOND_ACCEPTOR>
2

>  <PUBCHEM_CACTVS_HBOND_DONOR>
0

>  <PUBCHEM_CACTVS_ROTATABLE_BOND>
1

>  <PUBCHEM_CACTVS_SUBSKEYS>
AAADccByMAAAAAAAAAAAAAAAAAAAAAAAAAAwQAAAAAAAAACBAAAAHgAAAAAADAyBmAYywIMABACIAiVSUACCCAAhIgAIiAAIbMgIJiLAsZmEMAhmxgHI6QeQwCAOAAAAAAACAAAAAAAAAAQAAAAAAAAAAA==

>  <PUBCHEM_IUPAC_OPENEYE_NAME>
4-methoxy-1-methyl-quinolin-2-one

>  <PUBCHEM_IUPAC_CAS_NAME>
4-methoxy-1-methyl-2-quinolinone

>  <PUBCHEM_IUPAC_NAME>
4-methoxy-1-methylquinolin-2-one

>  <PUBCHEM_IUPAC_SYSTEMATIC_NAME>
4-methoxy-1-methyl-quinolin-2-one

>  <PUBCHEM_IUPAC_TRADITIONAL_NAME>
4-methoxy-1-methyl-carbostyril

>  <PUBCHEM_IUPAC_INCHI>
InChI=1S/C11H11NO2/c1-12-9-6-4-3-5-8(9)10(14-2)7-11(12)13/h3-7H,1-2H3

>  <PUBCHEM_IUPAC_INCHIKEY>
SPBLFONLHXBBQE-UHFFFAOYSA-N

>  <PUBCHEM_XLOGP3_AA>
1.2

>  <PUBCHEM_EXACT_MASS>
189.079

>  <PUBCHEM_MOLECULAR_FORMULA>
C11H11NO2

>  <PUBCHEM_MOLECULAR_WEIGHT>
189.214

>  <PUBCHEM_OPENEYE_CAN_SMILES>
CN1C2=CC=CC=C2C(=CC1=O)OC

>  <PUBCHEM_OPENEYE_ISO_SMILES>
CN1C2=CC=CC=C2C(=CC1=O)OC

>  <PUBCHEM_CACTVS_TPSA>
29.5

>  <PUBCHEM_MONOISOTOPIC_WEIGHT>
189.079

>  <PUBCHEM_TOTAL_CHARGE>
0

>  <PUBCHEM_HEAVY_ATOM_COUNT>
14

>  <PUBCHEM_ATOM_DEF_STEREO_COUNT>
0

>  <PUBCHEM_ATOM_UDEF_STEREO_COUNT>
0

>  <PUBCHEM_BOND_DEF_STEREO_COUNT>
0

>  <PUBCHEM_BOND_UDEF_STEREO_COUNT>
0

>  <PUBCHEM_ISOTOPIC_ATOM_COUNT>
0

>  <PUBCHEM_COMPONENT_COUNT>
1

>  <PUBCHEM_CACTVS_TAUTO_COUNT>
1

>  <PUBCHEM_COORDINATE_TYPE>
1
5
255

>  <PUBCHEM_BONDANNOTATIONS>
10  13  8
12  13  8
3  4  8
3  7  8
4  5  8
4  8  8
5  10  8
5  6  8
6  9  8
7  9  8
8  12  8

$$$$
