182241
 OpenBabel06101807152D

 45 45  0  0  1  0  0  0  0  0999 V2000
    5.5000    0.3455    0.0000 S   0  0  0  0  0  0  0  0  0  0  0  0
    4.5000   -3.1186    0.0000 S   0  0  0  0  0  0  0  0  0  0  0  0
    5.8660    1.7115    0.0000 O   0  0  0  0  0  0  0  0  0  0  0  0
    3.2680    1.2115    0.0000 O   0  0  0  0  0  0  0  0  0  0  0  0
    3.2680    3.2115    0.0000 O   0  0  0  0  0  0  0  0  0  0  0  0
    5.0000    4.2115    0.0000 O   0  0  0  0  0  0  0  0  0  0  0  0
    7.5981    2.7115    0.0000 O   0  0  0  0  0  0  0  0  0  0  0  0
    6.0000   -0.5205    0.0000 O   0  0  0  0  0  0  0  0  0  0  0  0
    5.0000   -2.2526    0.0000 O   0  0  0  0  0  0  0  0  0  0  0  0
    4.0000   -3.9846    0.0000 O   0  0  0  0  0  0  0  0  0  0  0  0
    5.3660   -3.6186    0.0000 O   0  0  0  0  0  0  0  0  0  0  0  0
    3.6340   -2.6186    0.0000 O   0  0  0  0  0  0  0  0  0  0  0  0
    4.5000   -1.3865    0.0000 N   0  0  0  0  0  0  0  0  0  0  0  0
    5.0000    1.2115    0.0000 C   0  0  2  0  0  0  0  0  0  0  0  0
    4.1340    1.7115    0.0000 C   0  0  1  0  0  0  0  0  0  0  0  0
    4.1340    2.7115    0.0000 C   0  0  2  0  0  0  0  0  0  0  0  0
    4.5000    0.3455    0.0000 C   0  0  3  0  0  0  0  0  0  0  0  0
    5.0000    3.2115    0.0000 C   0  0  1  0  0  0  0  0  0  0  0  0
    5.8660    2.7115    0.0000 C   0  0  1  0  0  0  0  0  0  0  0  0
    3.5000    0.3455    0.0000 C   0  0  0  0  0  0  0  0  0  0  0  0
    6.7320    3.2115    0.0000 C   0  0  0  0  0  0  0  0  0  0  0  0
    5.0000   -0.5205    0.0000 C   0  0  0  0  0  0  0  0  0  0  0  0
    3.0000   -0.5205    0.0000 C   0  0  0  0  0  0  0  0  0  0  0  0
    2.0000   -0.5205    0.0000 C   0  0  0  0  0  0  0  0  0  0  0  0
    4.1340    1.0915    0.0000 H   0  0  0  0  0  0  0  0  0  0  0  0
    4.1340    3.3315    0.0000 H   0  0  0  0  0  0  0  0  0  0  0  0
    4.0750    1.0816    0.0000 H   0  0  0  0  0  0  0  0  0  0  0  0
    5.5369    3.5215    0.0000 H   0  0  0  0  0  0  0  0  0  0  0  0
    6.4030    2.4015    0.0000 H   0  0  0  0  0  0  0  0  0  0  0  0
    3.6077    0.9561    0.0000 H   0  0  0  0  0  0  0  0  0  0  0  0
    2.9174    0.5576    0.0000 H   0  0  0  0  0  0  0  0  0  0  0  0
    7.1306    3.6865    0.0000 H   0  0  0  0  0  0  0  0  0  0  0  0
    6.3335    3.6865    0.0000 H   0  0  0  0  0  0  0  0  0  0  0  0
    6.1200    0.3455    0.0000 H   0  0  0  0  0  0  0  0  0  0  0  0
    2.8923   -1.1311    0.0000 H   0  0  0  0  0  0  0  0  0  0  0  0
    3.5826   -0.7326    0.0000 H   0  0  0  0  0  0  0  0  0  0  0  0
    2.7310    1.5215    0.0000 H   0  0  0  0  0  0  0  0  0  0  0  0
    3.2680    3.8315    0.0000 H   0  0  0  0  0  0  0  0  0  0  0  0
    5.5369    4.5215    0.0000 H   0  0  0  0  0  0  0  0  0  0  0  0
    2.0000    0.0995    0.0000 H   0  0  0  0  0  0  0  0  0  0  0  0
    1.3800   -0.5205    0.0000 H   0  0  0  0  0  0  0  0  0  0  0  0
    2.0000   -1.1405    0.0000 H   0  0  0  0  0  0  0  0  0  0  0  0
    3.8800   -1.3865    0.0000 H   0  0  0  0  0  0  0  0  0  0  0  0
    8.1350    3.0215    0.0000 H   0  0  0  0  0  0  0  0  0  0  0  0
    4.3100   -4.5215    0.0000 H   0  0  0  0  0  0  0  0  0  0  0  0
  1 34  1  0  0  0  0
  2  9  1  0  0  0  0
  2 10  1  0  0  0  0
  2 11  2  0  0  0  0
  2 12  2  0  0  0  0
  3 14  1  0  0  0  0
  3 19  1  0  0  0  0
  4 37  1  0  0  0  0
  5 38  1  0  0  0  0
  6 39  1  0  0  0  0
  7 21  1  0  0  0  0
  7 44  1  0  0  0  0
  8 22  2  0  0  0  0
  9 13  1  0  0  0  0
 10 45  1  0  0  0  0
 13 22  1  0  0  0  0
 13 43  1  0  0  0  0
 14  1  1  0  0  0  0
 14 15  1  1  0  0  0
 14 17  1  0  0  0  0
 15  4  1  0  0  0  0
 15 16  1  1  0  0  0
 15 25  1  0  0  0  0
 16  5  1  0  0  0  0
 16 18  1  1  0  0  0
 16 26  1  0  0  0  0
 17 20  1  0  0  0  0
 17 22  1  0  0  0  0
 17 27  1  0  0  0  0
 18  6  1  0  0  0  0
 18 19  1  6  0  0  0
 18 28  1  0  0  0  0
 19 21  1  0  0  0  0
 19 29  1  6  0  0  0
 20 23  1  0  0  0  0
 20 30  1  0  0  0  0
 20 31  1  0  0  0  0
 21 32  1  0  0  0  0
 21 33  1  0  0  0  0
 23 24  1  0  0  0  0
 23 35  1  0  0  0  0
 23 36  1  0  0  0  0
 24 40  1  0  0  0  0
 24 41  1  0  0  0  0
 24 42  1  0  0  0  0
M  END
>  <PUBCHEM_COMPOUND_CID>
182241

>  <PUBCHEM_COMPOUND_CANONICALIZED>
1

>  <PUBCHEM_CACTVS_COMPLEXITY>
537

>  <PUBCHEM_CACTVS_HBOND_ACCEPTOR>
11

>  <PUBCHEM_CACTVS_HBOND_DONOR>
7

>  <PUBCHEM_CACTVS_ROTATABLE_BOND>
7

>  <PUBCHEM_CACTVS_SUBSKEYS>
AAADceByPABgAAAAAAAAAAAAAAAAAAAAAAAkAAAAAAAAAAAAAAAAHgQUCAAADRShwAICAABQBoQIAAEQEDAAAAAAAAAgAAEAAAABEBYAgAACQAAHMAADAAH6/PTOAAAAAAAAAAAAAAAAAAAAAAAAAAAAAA==

>  <PUBCHEM_IUPAC_OPENEYE_NAME>
[2-[(2S,3R,4S,5S,6R)-3,4,5-trihydroxy-6-(hydroxymethyl)-2-sulfanyl-tetrahydropyran-2-yl]pentanoylamino] hydrogen sulfate

>  <PUBCHEM_IUPAC_CAS_NAME>
sulfuric acid [[1-oxo-2-[(2S,3R,4S,5S,6R)-3,4,5-trihydroxy-6-(hydroxymethyl)-2-mercapto-2-oxanyl]pentyl]amino] ester

>  <PUBCHEM_IUPAC_NAME>
[2-[(2S,3R,4S,5S,6R)-3,4,5-trihydroxy-6-(hydroxymethyl)-2-sulfanyloxan-2-yl]pentanoylamino] hydrogen sulfate

>  <PUBCHEM_IUPAC_SYSTEMATIC_NAME>
[2-[(2S,3R,4S,5S,6R)-6-(hydroxymethyl)-3,4,5-tris(oxidanyl)-2-sulfanyl-oxan-2-yl]pentanoylamino] hydrogen sulfate

>  <PUBCHEM_IUPAC_TRADITIONAL_NAME>
sulfuric acid [2-[(2S,3R,4S,5S,6R)-3,4,5-trihydroxy-2-mercapto-6-methylol-tetrahydropyran-2-yl]pentanoylamino] ester

>  <PUBCHEM_IUPAC_INCHI>
InChI=1S/C11H21NO10S2/c1-2-3-5(10(17)12-22-24(18,19)20)11(23)9(16)8(15)7(14)6(4-13)21-11/h5-9,13-16,23H,2-4H2,1H3,(H,12,17)(H,18,19,20)/t5?,6-,7-,8+,9-,11+/m1/s1

>  <PUBCHEM_IUPAC_INCHIKEY>
VFRHZGDYCZWLEN-FUYPYFFWSA-N

>  <PUBCHEM_XLOGP3_AA>
-2

>  <PUBCHEM_EXACT_MASS>
391.061

>  <PUBCHEM_MOLECULAR_FORMULA>
C11H21NO10S2

>  <PUBCHEM_MOLECULAR_WEIGHT>
391.406

>  <PUBCHEM_OPENEYE_CAN_SMILES>
CCCC(C(=O)NOS(=O)(=O)O)C1(C(C(C(C(O1)CO)O)O)O)S

>  <PUBCHEM_OPENEYE_ISO_SMILES>
CCCC(C(=O)NOS(=O)(=O)O)[C@@]1([C@@H]([C@H]([C@@H]([C@H](O1)CO)O)O)O)S

>  <PUBCHEM_CACTVS_TPSA>
192

>  <PUBCHEM_MONOISOTOPIC_WEIGHT>
391.061

>  <PUBCHEM_TOTAL_CHARGE>
0

>  <PUBCHEM_HEAVY_ATOM_COUNT>
24

>  <PUBCHEM_ATOM_DEF_STEREO_COUNT>
5

>  <PUBCHEM_ATOM_UDEF_STEREO_COUNT>
1

>  <PUBCHEM_BOND_DEF_STEREO_COUNT>
0

>  <PUBCHEM_BOND_UDEF_STEREO_COUNT>
0

>  <PUBCHEM_ISOTOPIC_ATOM_COUNT>
0

>  <PUBCHEM_COMPONENT_COUNT>
1

>  <PUBCHEM_CACTVS_TAUTO_COUNT>
3

>  <PUBCHEM_COORDINATE_TYPE>
1
5
255

>  <PUBCHEM_BONDANNOTATIONS>
14  1  5
17  27  3
19  21  5
15  4  6
16  5  5
18  6  6

$$$$
