183142
 OpenBabel06101807152D

 60 60  0  0  0  0  0  0  0  0999 V2000
    2.8090    4.2398    0.0000 O   0  0  0  0  0  0  0  0  0  0  0  0
    8.2539   -0.3210    0.0000 C   0  0  0  0  0  0  0  0  0  0  0  0
    9.2050   -0.6300    0.0000 C   0  0  0  0  0  0  0  0  0  0  0  0
    8.0460    0.6571    0.0000 C   0  0  0  0  0  0  0  0  0  0  0  0
    9.4129   -1.6082    0.0000 C   0  0  0  0  0  0  0  0  0  0  0  0
    7.0949    0.9661    0.0000 C   0  0  0  0  0  0  0  0  0  0  0  0
   10.3639   -1.9172    0.0000 C   0  0  0  0  0  0  0  0  0  0  0  0
    6.8870    1.9443    0.0000 C   0  0  0  0  0  0  0  0  0  0  0  0
   10.5718   -2.8954    0.0000 C   0  0  0  0  0  0  0  0  0  0  0  0
    5.9360    2.2533    0.0000 C   0  0  0  0  0  0  0  0  0  0  0  0
   11.5229   -3.2044    0.0000 C   0  0  0  0  0  0  0  0  0  0  0  0
    5.7281    3.2315    0.0000 C   0  0  0  0  0  0  0  0  0  0  0  0
   11.7308   -4.1825    0.0000 C   0  0  0  0  0  0  0  0  0  0  0  0
    4.7770    3.5405    0.0000 C   0  0  0  0  0  0  0  0  0  0  0  0
   12.6819   -4.4915    0.0000 C   0  0  0  0  0  0  0  0  0  0  0  0
    4.5691    4.5186    0.0000 C   0  0  0  0  0  0  0  0  0  0  0  0
   12.8898   -5.4697    0.0000 C   0  0  0  0  0  0  0  0  0  0  0  0
    3.6180    4.8276    0.0000 C   0  0  0  0  0  0  0  0  0  0  0  0
   13.8408   -5.7787    0.0000 C   0  0  0  0  0  0  0  0  0  0  0  0
    3.3090    5.7787    0.0000 C   0  0  0  0  0  0  0  0  0  0  0  0
    2.3090    5.7787    0.0000 C   0  0  0  0  0  0  0  0  0  0  0  0
    2.0000    4.8276    0.0000 C   0  0  0  0  0  0  0  0  0  0  0  0
    7.6343   -0.3427    0.0000 H   0  0  0  0  0  0  0  0  0  0  0  0
    8.1676   -0.9350    0.0000 H   0  0  0  0  0  0  0  0  0  0  0  0
    9.8246   -0.6084    0.0000 H   0  0  0  0  0  0  0  0  0  0  0  0
    9.2912   -0.0161    0.0000 H   0  0  0  0  0  0  0  0  0  0  0  0
    8.6656    0.6788    0.0000 H   0  0  0  0  0  0  0  0  0  0  0  0
    8.1323    1.2711    0.0000 H   0  0  0  0  0  0  0  0  0  0  0  0
    8.7932   -1.6298    0.0000 H   0  0  0  0  0  0  0  0  0  0  0  0
    9.3266   -2.2222    0.0000 H   0  0  0  0  0  0  0  0  0  0  0  0
    6.4753    0.9445    0.0000 H   0  0  0  0  0  0  0  0  0  0  0  0
    7.0086    0.3522    0.0000 H   0  0  0  0  0  0  0  0  0  0  0  0
   10.9836   -1.8956    0.0000 H   0  0  0  0  0  0  0  0  0  0  0  0
   10.4502   -1.3032    0.0000 H   0  0  0  0  0  0  0  0  0  0  0  0
    7.5066    1.9659    0.0000 H   0  0  0  0  0  0  0  0  0  0  0  0
    6.9733    2.5583    0.0000 H   0  0  0  0  0  0  0  0  0  0  0  0
    9.9522   -2.9170    0.0000 H   0  0  0  0  0  0  0  0  0  0  0  0
   10.4856   -3.5093    0.0000 H   0  0  0  0  0  0  0  0  0  0  0  0
    5.3164    2.2317    0.0000 H   0  0  0  0  0  0  0  0  0  0  0  0
    5.8497    1.6393    0.0000 H   0  0  0  0  0  0  0  0  0  0  0  0
   12.1425   -3.1827    0.0000 H   0  0  0  0  0  0  0  0  0  0  0  0
   11.6092   -2.5904    0.0000 H   0  0  0  0  0  0  0  0  0  0  0  0
    6.3477    3.2531    0.0000 H   0  0  0  0  0  0  0  0  0  0  0  0
    5.8144    3.8454    0.0000 H   0  0  0  0  0  0  0  0  0  0  0  0
   11.1112   -4.2042    0.0000 H   0  0  0  0  0  0  0  0  0  0  0  0
   11.6445   -4.7965    0.0000 H   0  0  0  0  0  0  0  0  0  0  0  0
    4.1574    3.5188    0.0000 H   0  0  0  0  0  0  0  0  0  0  0  0
    4.6907    2.9265    0.0000 H   0  0  0  0  0  0  0  0  0  0  0  0
   13.3015   -4.4699    0.0000 H   0  0  0  0  0  0  0  0  0  0  0  0
   12.7682   -3.8776    0.0000 H   0  0  0  0  0  0  0  0  0  0  0  0
    5.1887    4.5403    0.0000 H   0  0  0  0  0  0  0  0  0  0  0  0
    4.6554    5.1326    0.0000 H   0  0  0  0  0  0  0  0  0  0  0  0
   12.2702   -5.4913    0.0000 H   0  0  0  0  0  0  0  0  0  0  0  0
   12.8035   -6.0836    0.0000 H   0  0  0  0  0  0  0  0  0  0  0  0
   13.6492   -6.3684    0.0000 H   0  0  0  0  0  0  0  0  0  0  0  0
   14.4305   -5.9703    0.0000 H   0  0  0  0  0  0  0  0  0  0  0  0
   14.0324   -5.1890    0.0000 H   0  0  0  0  0  0  0  0  0  0  0  0
    3.6734    6.2803    0.0000 H   0  0  0  0  0  0  0  0  0  0  0  0
    1.9446    6.2803    0.0000 H   0  0  0  0  0  0  0  0  0  0  0  0
    1.4103    4.6360    0.0000 H   0  0  0  0  0  0  0  0  0  0  0  0
  1 18  1  0  0  0  0
  1 22  1  0  0  0  0
  2  3  1  0  0  0  0
  2  4  1  0  0  0  0
  2 23  1  0  0  0  0
  2 24  1  0  0  0  0
  3  5  1  0  0  0  0
  3 25  1  0  0  0  0
  3 26  1  0  0  0  0
  4  6  1  0  0  0  0
  4 27  1  0  0  0  0
  4 28  1  0  0  0  0
  5  7  1  0  0  0  0
  5 29  1  0  0  0  0
  5 30  1  0  0  0  0
  6  8  1  0  0  0  0
  6 31  1  0  0  0  0
  6 32  1  0  0  0  0
  7  9  1  0  0  0  0
  7 33  1  0  0  0  0
  7 34  1  0  0  0  0
  8 10  1  0  0  0  0
  8 35  1  0  0  0  0
  8 36  1  0  0  0  0
  9 11  1  0  0  0  0
  9 37  1  0  0  0  0
  9 38  1  0  0  0  0
 10 12  1  0  0  0  0
 10 39  1  0  0  0  0
 10 40  1  0  0  0  0
 11 13  1  0  0  0  0
 11 41  1  0  0  0  0
 11 42  1  0  0  0  0
 12 14  1  0  0  0  0
 12 43  1  0  0  0  0
 12 44  1  0  0  0  0
 13 15  1  0  0  0  0
 13 45  1  0  0  0  0
 13 46  1  0  0  0  0
 14 16  1  0  0  0  0
 14 47  1  0  0  0  0
 14 48  1  0  0  0  0
 15 17  1  0  0  0  0
 15 49  1  0  0  0  0
 15 50  1  0  0  0  0
 16 18  1  0  0  0  0
 16 51  1  0  0  0  0
 16 52  1  0  0  0  0
 17 19  1  0  0  0  0
 17 53  1  0  0  0  0
 17 54  1  0  0  0  0
 18 20  2  0  0  0  0
 19 55  1  0  0  0  0
 19 56  1  0  0  0  0
 19 57  1  0  0  0  0
 20 21  1  0  0  0  0
 20 58  1  0  0  0  0
 21 22  2  0  0  0  0
 21 59  1  0  0  0  0
 22 60  1  0  0  0  0
M  END
>  <PUBCHEM_COMPOUND_CID>
183142

>  <PUBCHEM_COMPOUND_CANONICALIZED>
1

>  <PUBCHEM_CACTVS_COMPLEXITY>
214

>  <PUBCHEM_CACTVS_HBOND_ACCEPTOR>
1

>  <PUBCHEM_CACTVS_HBOND_DONOR>
0

>  <PUBCHEM_CACTVS_ROTATABLE_BOND>
16

>  <PUBCHEM_CACTVS_SUBSKEYS>
AAADcfB4IAAAAAAAAAAAAAAAAAAAASAAAAAAAAAAAAAAAAABgAAAGgAAAAAACASgkAIyBIAABECIAKhSgAACCAAkIAAIiAEGCMgMJjKENRqCGSCkwBEIqYeIyKCAAAAAAAAAAAAAAAAAAAAAAAAAAAAAAA==

>  <PUBCHEM_IUPAC_OPENEYE_NAME>
2-heptadecylfuran

>  <PUBCHEM_IUPAC_CAS_NAME>
2-heptadecylfuran

>  <PUBCHEM_IUPAC_NAME>
2-heptadecylfuran

>  <PUBCHEM_IUPAC_SYSTEMATIC_NAME>
2-heptadecylfuran

>  <PUBCHEM_IUPAC_TRADITIONAL_NAME>
2-heptadecylfuran

>  <PUBCHEM_IUPAC_INCHI>
InChI=1S/C21H38O/c1-2-3-4-5-6-7-8-9-10-11-12-13-14-15-16-18-21-19-17-20-22-21/h17,19-20H,2-16,18H2,1H3

>  <PUBCHEM_IUPAC_INCHIKEY>
ZDPKHSYNGVAHHN-UHFFFAOYSA-N

>  <PUBCHEM_XLOGP3>
10.2

>  <PUBCHEM_EXACT_MASS>
306.292

>  <PUBCHEM_MOLECULAR_FORMULA>
C21H38O

>  <PUBCHEM_MOLECULAR_WEIGHT>
306.534

>  <PUBCHEM_OPENEYE_CAN_SMILES>
CCCCCCCCCCCCCCCCCC1=CC=CO1

>  <PUBCHEM_OPENEYE_ISO_SMILES>
CCCCCCCCCCCCCCCCCC1=CC=CO1

>  <PUBCHEM_CACTVS_TPSA>
13.1

>  <PUBCHEM_MONOISOTOPIC_WEIGHT>
306.292

>  <PUBCHEM_TOTAL_CHARGE>
0

>  <PUBCHEM_HEAVY_ATOM_COUNT>
22

>  <PUBCHEM_ATOM_DEF_STEREO_COUNT>
0

>  <PUBCHEM_ATOM_UDEF_STEREO_COUNT>
0

>  <PUBCHEM_BOND_DEF_STEREO_COUNT>
0

>  <PUBCHEM_BOND_UDEF_STEREO_COUNT>
0

>  <PUBCHEM_ISOTOPIC_ATOM_COUNT>
0

>  <PUBCHEM_COMPONENT_COUNT>
1

>  <PUBCHEM_CACTVS_TAUTO_COUNT>
1

>  <PUBCHEM_COORDINATE_TYPE>
1
5
255

>  <PUBCHEM_BONDANNOTATIONS>
1  18  8
1  22  8
18  20  8
20  21  8
21  22  8

$$$$
