18324563
 OpenBabel06101807152D

 42 41  0  0  1  0  0  0  0  0999 V2000
    6.8671    0.6550    0.0000 O   0  0  0  0  0  0  0  0  0  0  0  0
    3.4030    1.6550    0.0000 O   0  0  0  0  0  0  0  0  0  0  0  0
    4.2690    3.1550    0.0000 O   0  0  0  0  0  0  0  0  0  0  0  0
   11.1972    2.1550    0.0000 O   0  0  0  0  0  0  0  0  0  0  0  0
   10.3312    0.6550    0.0000 O   0  0  0  0  0  0  0  0  0  0  0  0
    6.0010    2.1550    0.0000 N   0  0  0  0  0  0  0  0  0  0  0  0
    9.4651    3.1550    0.0000 N   0  0  0  0  0  0  0  0  0  0  0  0
    3.4030   -1.3450    0.0000 N   0  0  0  0  0  0  0  0  0  0  0  0
    2.5369   -2.8450    0.0000 N   0  0  0  0  0  0  0  0  0  0  0  0
    4.2690   -2.8450    0.0000 N   0  0  0  0  0  0  0  0  0  0  0  0
    5.1350    1.6550    0.0000 C   0  0  3  0  0  0  0  0  0  0  0  0
    5.1350    0.6550    0.0000 C   0  0  0  0  0  0  0  0  0  0  0  0
    4.2690    0.1550    0.0000 C   0  0  0  0  0  0  0  0  0  0  0  0
    7.7331    2.1550    0.0000 C   0  0  0  0  0  0  0  0  0  0  0  0
    8.5991    1.6550    0.0000 C   0  0  0  0  0  0  0  0  0  0  0  0
    6.8671    1.6550    0.0000 C   0  0  0  0  0  0  0  0  0  0  0  0
    9.4651    2.1550    0.0000 C   0  0  3  0  0  0  0  0  0  0  0  0
    4.2690   -0.8450    0.0000 C   0  0  0  0  0  0  0  0  0  0  0  0
    4.2690    2.1550    0.0000 C   0  0  0  0  0  0  0  0  0  0  0  0
   10.3312    1.6550    0.0000 C   0  0  0  0  0  0  0  0  0  0  0  0
    3.4030   -2.3450    0.0000 C   0  0  0  0  0  0  0  0  0  0  0  0
    5.1350    2.2750    0.0000 H   0  0  0  0  0  0  0  0  0  0  0  0
    5.3471    0.0724    0.0000 H   0  0  0  0  0  0  0  0  0  0  0  0
    5.7456    0.7627    0.0000 H   0  0  0  0  0  0  0  0  0  0  0  0
    4.0569    0.7376    0.0000 H   0  0  0  0  0  0  0  0  0  0  0  0
    3.6584    0.0473    0.0000 H   0  0  0  0  0  0  0  0  0  0  0  0
    8.1316    2.6300    0.0000 H   0  0  0  0  0  0  0  0  0  0  0  0
    7.3346    2.6300    0.0000 H   0  0  0  0  0  0  0  0  0  0  0  0
    8.2006    1.1800    0.0000 H   0  0  0  0  0  0  0  0  0  0  0  0
    8.9976    1.1800    0.0000 H   0  0  0  0  0  0  0  0  0  0  0  0
    6.0010    2.7750    0.0000 H   0  0  0  0  0  0  0  0  0  0  0  0
   10.0021    2.4650    0.0000 H   0  0  0  0  0  0  0  0  0  0  0  0
    4.4810   -1.4276    0.0000 H   0  0  0  0  0  0  0  0  0  0  0  0
    4.8796   -0.7373    0.0000 H   0  0  0  0  0  0  0  0  0  0  0  0
   10.0021    3.4650    0.0000 H   0  0  0  0  0  0  0  0  0  0  0  0
    8.9282    3.4650    0.0000 H   0  0  0  0  0  0  0  0  0  0  0  0
    2.8660    1.9650    0.0000 H   0  0  0  0  0  0  0  0  0  0  0  0
   11.7341    1.8450    0.0000 H   0  0  0  0  0  0  0  0  0  0  0  0
    2.5369   -3.4650    0.0000 H   0  0  0  0  0  0  0  0  0  0  0  0
    2.0000   -2.5350    0.0000 H   0  0  0  0  0  0  0  0  0  0  0  0
    4.2690   -3.4650    0.0000 H   0  0  0  0  0  0  0  0  0  0  0  0
    4.8059   -2.5350    0.0000 H   0  0  0  0  0  0  0  0  0  0  0  0
  1 16  2  0  0  0  0
  2 19  1  0  0  0  0
  2 37  1  0  0  0  0
  3 19  2  0  0  0  0
  4 20  1  0  0  0  0
  4 38  1  0  0  0  0
  5 20  2  0  0  0  0
  6 11  1  0  0  0  0
  6 16  1  0  0  0  0
  6 31  1  0  0  0  0
  7 17  1  0  0  0  0
  7 35  1  0  0  0  0
  7 36  1  0  0  0  0
  8 18  1  0  0  0  0
  8 21  2  0  0  0  0
  9 21  1  0  0  0  0
  9 39  1  0  0  0  0
  9 40  1  0  0  0  0
 10 21  1  0  0  0  0
 10 41  1  0  0  0  0
 10 42  1  0  0  0  0
 11 12  1  0  0  0  0
 11 19  1  0  0  0  0
 11 22  1  0  0  0  0
 12 13  1  0  0  0  0
 12 23  1  0  0  0  0
 12 24  1  0  0  0  0
 13 18  1  0  0  0  0
 13 25  1  0  0  0  0
 13 26  1  0  0  0  0
 14 15  1  0  0  0  0
 14 16  1  0  0  0  0
 14 27  1  0  0  0  0
 14 28  1  0  0  0  0
 15 17  1  0  0  0  0
 15 29  1  0  0  0  0
 15 30  1  0  0  0  0
 17 20  1  0  0  0  0
 17 32  1  0  0  0  0
 18 33  1  0  0  0  0
 18 34  1  0  0  0  0
M  END
>  <PUBCHEM_COMPOUND_CID>
18324563

>  <PUBCHEM_COMPOUND_CANONICALIZED>
1

>  <PUBCHEM_CACTVS_COMPLEXITY>
408

>  <PUBCHEM_CACTVS_HBOND_ACCEPTOR>
7

>  <PUBCHEM_CACTVS_HBOND_DONOR>
6

>  <PUBCHEM_CACTVS_ROTATABLE_BOND>
10

>  <PUBCHEM_CACTVS_SUBSKEYS>
AAADceBzuAAAAAAAAAAAAAAAAAAAAAAAAAAAAAAAAAAAAAAAAAAAHgAQCAAACCjBgAQBCALAAgAoAAGQPAAAAAEAAAAAAIGIAAACABIAgCAEQAAEFgCQAACcFwIAAAAAAAAAAAAAAAAAAAAAAAAAAAAAAA==

>  <PUBCHEM_IUPAC_OPENEYE_NAME>
2-amino-5-[(1-carboxy-4-guanidino-butyl)amino]-5-oxo-pentanoic acid

>  <PUBCHEM_IUPAC_CAS_NAME>
2-amino-5-[[1-carboxy-4-(diaminomethylideneamino)butyl]amino]-5-oxopentanoic acid

>  <PUBCHEM_IUPAC_NAME>
2-amino-5-[[1-carboxy-4-(diaminomethylideneamino)butyl]amino]-5-oxopentanoic acid

>  <PUBCHEM_IUPAC_SYSTEMATIC_NAME>
2-azanyl-5-[[5-[bis(azanyl)methylideneamino]-1-oxidanyl-1-oxidanylidene-pentan-2-yl]amino]-5-oxidanylidene-pentanoic acid

>  <PUBCHEM_IUPAC_TRADITIONAL_NAME>
2-amino-5-[(1-carboxy-4-guanidino-butyl)amino]-5-keto-valeric acid

>  <PUBCHEM_IUPAC_INCHI>
InChI=1S/C11H21N5O5/c12-6(9(18)19)3-4-8(17)16-7(10(20)21)2-1-5-15-11(13)14/h6-7H,1-5,12H2,(H,16,17)(H,18,19)(H,20,21)(H4,13,14,15)

>  <PUBCHEM_IUPAC_INCHIKEY>
AKAHWGGIUSJNNM-UHFFFAOYSA-N

>  <PUBCHEM_XLOGP3_AA>
-5

>  <PUBCHEM_EXACT_MASS>
303.154

>  <PUBCHEM_MOLECULAR_FORMULA>
C11H21N5O5

>  <PUBCHEM_MOLECULAR_WEIGHT>
303.319

>  <PUBCHEM_OPENEYE_CAN_SMILES>
C(CC(C(=O)O)NC(=O)CCC(C(=O)O)N)CN=C(N)N

>  <PUBCHEM_OPENEYE_ISO_SMILES>
C(CC(C(=O)O)NC(=O)CCC(C(=O)O)N)CN=C(N)N

>  <PUBCHEM_CACTVS_TPSA>
194

>  <PUBCHEM_MONOISOTOPIC_WEIGHT>
303.154

>  <PUBCHEM_TOTAL_CHARGE>
0

>  <PUBCHEM_HEAVY_ATOM_COUNT>
21

>  <PUBCHEM_ATOM_DEF_STEREO_COUNT>
0

>  <PUBCHEM_ATOM_UDEF_STEREO_COUNT>
2

>  <PUBCHEM_BOND_DEF_STEREO_COUNT>
0

>  <PUBCHEM_BOND_UDEF_STEREO_COUNT>
0

>  <PUBCHEM_ISOTOPIC_ATOM_COUNT>
0

>  <PUBCHEM_COMPONENT_COUNT>
1

>  <PUBCHEM_CACTVS_TAUTO_COUNT>
4

>  <PUBCHEM_COORDINATE_TYPE>
1
5
255

>  <PUBCHEM_BONDANNOTATIONS>
11  12  3
17  7  3

$$$$
