18467
 OpenBabel06101807152D

 14 14  0  0  0  0  0  0  0  0999 V2000
    2.8660   -1.0000    0.0000 O   0  0  0  0  0  0  0  0  0  0  0  0
    4.5981   -1.0000    0.0000 N   0  0  0  0  0  0  0  0  0  0  0  0
    4.5981    1.0000    0.0000 N   0  0  0  0  0  0  0  0  0  0  0  0
    3.7320   -0.5000    0.0000 C   0  0  0  0  0  0  0  0  0  0  0  0
    3.7320    0.5000    0.0000 C   0  0  0  0  0  0  0  0  0  0  0  0
    5.4641   -0.5000    0.0000 C   0  0  0  0  0  0  0  0  0  0  0  0
    5.4641    0.5000    0.0000 C   0  0  0  0  0  0  0  0  0  0  0  0
    2.0000   -0.5000    0.0000 C   0  0  0  0  0  0  0  0  0  0  0  0
    3.1951    0.8100    0.0000 H   0  0  0  0  0  0  0  0  0  0  0  0
    6.0010   -0.8100    0.0000 H   0  0  0  0  0  0  0  0  0  0  0  0
    6.0010    0.8100    0.0000 H   0  0  0  0  0  0  0  0  0  0  0  0
    2.3100    0.0369    0.0000 H   0  0  0  0  0  0  0  0  0  0  0  0
    1.4631   -0.1900    0.0000 H   0  0  0  0  0  0  0  0  0  0  0  0
    1.6900   -1.0369    0.0000 H   0  0  0  0  0  0  0  0  0  0  0  0
  1  4  1  0  0  0  0
  1  8  1  0  0  0  0
  2  4  2  0  0  0  0
  2  6  1  0  0  0  0
  3  5  2  0  0  0  0
  3  7  1  0  0  0  0
  4  5  1  0  0  0  0
  5  9  1  0  0  0  0
  6  7  2  0  0  0  0
  6 10  1  0  0  0  0
  7 11  1  0  0  0  0
  8 12  1  0  0  0  0
  8 13  1  0  0  0  0
  8 14  1  0  0  0  0
M  END
>  <PUBCHEM_COMPOUND_CID>
18467

>  <PUBCHEM_COMPOUND_CANONICALIZED>
1

>  <PUBCHEM_CACTVS_COMPLEXITY>
67.4

>  <PUBCHEM_CACTVS_HBOND_ACCEPTOR>
3

>  <PUBCHEM_CACTVS_HBOND_DONOR>
0

>  <PUBCHEM_CACTVS_ROTATABLE_BOND>
1

>  <PUBCHEM_CACTVS_SUBSKEYS>
AAADcYBjIAAAAAAAAAAAAAAAAAAAAAAAAAAsAAAAAAAAAAABgAAAHgAAAAAAAADBggYuhBIIFACgABAnRAQAiCQRUiAIQAAbMAAGQEAAAAARAAAAAACQAAAAAAAAAAAAAAAAAAAAAAAAAAAAAAAAAAAAAA==

>  <PUBCHEM_IUPAC_OPENEYE_NAME>
2-methoxypyrazine

>  <PUBCHEM_IUPAC_CAS_NAME>
2-methoxypyrazine

>  <PUBCHEM_IUPAC_NAME>
2-methoxypyrazine

>  <PUBCHEM_IUPAC_SYSTEMATIC_NAME>
2-methoxypyrazine

>  <PUBCHEM_IUPAC_TRADITIONAL_NAME>
2-methoxypyrazine

>  <PUBCHEM_IUPAC_INCHI>
InChI=1S/C5H6N2O/c1-8-5-4-6-2-3-7-5/h2-4H,1H3

>  <PUBCHEM_IUPAC_INCHIKEY>
WKSXRWSOSLGSTN-UHFFFAOYSA-N

>  <PUBCHEM_XLOGP3>
0.7

>  <PUBCHEM_EXACT_MASS>
110.048

>  <PUBCHEM_MOLECULAR_FORMULA>
C5H6N2O

>  <PUBCHEM_MOLECULAR_WEIGHT>
110.116

>  <PUBCHEM_OPENEYE_CAN_SMILES>
COC1=NC=CN=C1

>  <PUBCHEM_OPENEYE_ISO_SMILES>
COC1=NC=CN=C1

>  <PUBCHEM_CACTVS_TPSA>
35

>  <PUBCHEM_MONOISOTOPIC_WEIGHT>
110.048

>  <PUBCHEM_TOTAL_CHARGE>
0

>  <PUBCHEM_HEAVY_ATOM_COUNT>
8

>  <PUBCHEM_ATOM_DEF_STEREO_COUNT>
0

>  <PUBCHEM_ATOM_UDEF_STEREO_COUNT>
0

>  <PUBCHEM_BOND_DEF_STEREO_COUNT>
0

>  <PUBCHEM_BOND_UDEF_STEREO_COUNT>
0

>  <PUBCHEM_ISOTOPIC_ATOM_COUNT>
0

>  <PUBCHEM_COMPONENT_COUNT>
1

>  <PUBCHEM_CACTVS_TAUTO_COUNT>
1

>  <PUBCHEM_COORDINATE_TYPE>
1
5
255

>  <PUBCHEM_BONDANNOTATIONS>
2  4  8
2  6  8
3  5  8
3  7  8
4  5  8
6  7  8

$$$$
