185995
 OpenBabel06101807152D

 72 76  0  0  1  0  0  0  0  0999 V2000
    6.3301   -0.9050    0.0000 O   0  0  0  0  0  0  0  0  0  0  0  0
    7.1962    1.5950    0.0000 O   0  0  0  0  0  0  0  0  0  0  0  0
    4.5981   -0.9050    0.0000 O   0  0  0  0  0  0  0  0  0  0  0  0
    4.5981    0.0950    0.0000 O   0  0  0  0  0  0  0  0  0  0  0  0
    4.5981    2.0950    0.0000 O   0  0  0  0  0  0  0  0  0  0  0  0
    6.3301   -2.9050    0.0000 O   0  0  0  0  0  0  0  0  0  0  0  0
    4.5981   -3.9050    0.0000 O   0  0  0  0  0  0  0  0  0  0  0  0
    2.8660   -2.9050    0.0000 O   0  0  0  0  0  0  0  0  0  0  0  0
    5.4641    3.5950    0.0000 O   0  0  0  0  0  0  0  0  0  0  0  0
    2.0000   -1.4050    0.0000 O   0  0  0  0  0  0  0  0  0  0  0  0
    8.9282    1.5950    0.0000 O   0  0  0  0  0  0  0  0  0  0  0  0
    7.1962   -1.4050    0.0000 O   0  0  0  0  0  0  0  0  0  0  0  0
   10.6882   -1.4397    0.0000 O   0  0  0  0  0  0  0  0  0  0  0  0
   10.6766    1.6296    0.0000 O   0  0  0  0  0  0  0  0  0  0  0  0
   15.0506   -2.9392    0.0000 O   0  0  0  0  0  0  0  0  0  0  0  0
    6.3301    0.0950    0.0000 C   0  0  2  0  0  0  0  0  0  0  0  0
    5.4641    0.5950    0.0000 C   0  0  2  0  0  0  0  0  0  0  0  0
    7.1962    0.5950    0.0000 C   0  0  2  0  0  0  0  0  0  0  0  0
    5.4641    1.5950    0.0000 C   0  0  1  0  0  0  0  0  0  0  0  0
    6.3301    2.0950    0.0000 C   0  0  1  0  0  0  0  0  0  0  0  0
    5.4641   -1.4050    0.0000 C   0  0  2  0  0  0  0  0  0  0  0  0
    5.4641   -2.4050    0.0000 C   0  0  1  0  0  0  0  0  0  0  0  0
    4.5981   -2.9050    0.0000 C   0  0  2  0  0  0  0  0  0  0  0  0
    3.7320   -2.4050    0.0000 C   0  0  1  0  0  0  0  0  0  0  0  0
    3.7320   -1.4050    0.0000 C   0  0  1  0  0  0  0  0  0  0  0  0
    8.0622    0.0950    0.0000 C   0  0  0  0  0  0  0  0  0  0  0  0
    6.3301    3.0950    0.0000 C   0  0  0  0  0  0  0  0  0  0  0  0
    2.8660   -0.9050    0.0000 C   0  0  0  0  0  0  0  0  0  0  0  0
    8.9282    0.5950    0.0000 C   0  0  0  0  0  0  0  0  0  0  0  0
    8.0622   -0.9050    0.0000 C   0  0  0  0  0  0  0  0  0  0  0  0
    9.7942    0.0950    0.0000 C   0  0  0  0  0  0  0  0  0  0  0  0
    8.9282   -1.4050    0.0000 C   0  0  0  0  0  0  0  0  0  0  0  0
    9.7942   -0.9050    0.0000 C   0  0  0  0  0  0  0  0  0  0  0  0
   10.6882    0.6297    0.0000 C   0  0  0  0  0  0  0  0  0  0  0  0
   11.5942    0.1158    0.0000 C   0  0  0  0  0  0  0  0  0  0  0  0
   11.5942   -0.9258    0.0000 C   0  0  0  0  0  0  0  0  0  0  0  0
   12.4583   -1.4292    0.0000 C   0  0  0  0  0  0  0  0  0  0  0  0
   13.3263   -0.9325    0.0000 C   0  0  0  0  0  0  0  0  0  0  0  0
   12.4545   -2.4291    0.0000 C   0  0  0  0  0  0  0  0  0  0  0  0
   14.1904   -1.4358    0.0000 C   0  0  0  0  0  0  0  0  0  0  0  0
   13.3186   -2.9325    0.0000 C   0  0  0  0  0  0  0  0  0  0  0  0
   14.1865   -2.4358    0.0000 C   0  0  0  0  0  0  0  0  0  0  0  0
    6.8671   -0.2150    0.0000 H   0  0  0  0  0  0  0  0  0  0  0  0
    4.9272    0.9050    0.0000 H   0  0  0  0  0  0  0  0  0  0  0  0
    7.9323    1.0200    0.0000 H   0  0  0  0  0  0  0  0  0  0  0  0
    5.4641    2.2150    0.0000 H   0  0  0  0  0  0  0  0  0  0  0  0
    6.8671    2.4050    0.0000 H   0  0  0  0  0  0  0  0  0  0  0  0
    5.4641   -0.7850    0.0000 H   0  0  0  0  0  0  0  0  0  0  0  0
    5.4641   -3.0250    0.0000 H   0  0  0  0  0  0  0  0  0  0  0  0
    4.0611   -3.2150    0.0000 H   0  0  0  0  0  0  0  0  0  0  0  0
    3.1951   -2.0950    0.0000 H   0  0  0  0  0  0  0  0  0  0  0  0
    3.7320   -0.7850    0.0000 H   0  0  0  0  0  0  0  0  0  0  0  0
    6.9407    2.9873    0.0000 H   0  0  0  0  0  0  0  0  0  0  0  0
    6.5422    3.6776    0.0000 H   0  0  0  0  0  0  0  0  0  0  0  0
    3.2646   -0.4301    0.0000 H   0  0  0  0  0  0  0  0  0  0  0  0
    2.4675   -0.4301    0.0000 H   0  0  0  0  0  0  0  0  0  0  0  0
    4.0611    0.4050    0.0000 H   0  0  0  0  0  0  0  0  0  0  0  0
    4.0611    1.7850    0.0000 H   0  0  0  0  0  0  0  0  0  0  0  0
    6.8671   -2.5950    0.0000 H   0  0  0  0  0  0  0  0  0  0  0  0
    5.1350   -4.2150    0.0000 H   0  0  0  0  0  0  0  0  0  0  0  0
    2.8660   -3.5250    0.0000 H   0  0  0  0  0  0  0  0  0  0  0  0
    8.9282   -2.0250    0.0000 H   0  0  0  0  0  0  0  0  0  0  0  0
    5.4641    4.2150    0.0000 H   0  0  0  0  0  0  0  0  0  0  0  0
    2.0000   -2.0250    0.0000 H   0  0  0  0  0  0  0  0  0  0  0  0
    9.4651    1.9050    0.0000 H   0  0  0  0  0  0  0  0  0  0  0  0
    7.1962   -2.0250    0.0000 H   0  0  0  0  0  0  0  0  0  0  0  0
   12.1300    0.4279    0.0000 H   0  0  0  0  0  0  0  0  0  0  0  0
   13.3287   -0.3125    0.0000 H   0  0  0  0  0  0  0  0  0  0  0  0
   11.9163   -2.7371    0.0000 H   0  0  0  0  0  0  0  0  0  0  0  0
   14.7285   -1.1279    0.0000 H   0  0  0  0  0  0  0  0  0  0  0  0
   13.3162   -3.5525    0.0000 H   0  0  0  0  0  0  0  0  0  0  0  0
   15.5887   -2.6312    0.0000 H   0  0  0  0  0  0  0  0  0  0  0  0
  2 18  1  0  0  0  0
  2 20  1  0  0  0  0
  3 21  1  0  0  0  0
  3 25  1  0  0  0  0
  4 57  1  0  0  0  0
  5 58  1  0  0  0  0
  6 59  1  0  0  0  0
  7 60  1  0  0  0  0
  8 61  1  0  0  0  0
  9 27  1  0  0  0  0
  9 63  1  0  0  0  0
 10 28  1  0  0  0  0
 10 64  1  0  0  0  0
 11 29  1  0  0  0  0
 11 65  1  0  0  0  0
 12 30  1  0  0  0  0
 12 66  1  0  0  0  0
 13 33  1  0  0  0  0
 13 36  1  0  0  0  0
 14 34  2  0  0  0  0
 15 42  1  0  0  0  0
 15 72  1  0  0  0  0
 16  1  1  0  0  0  0
 16 17  1  1  0  0  0
 16 43  1  0  0  0  0
 17  4  1  0  0  0  0
 17 19  1  1  0  0  0
 17 44  1  0  0  0  0
 18 16  1  6  0  0  0
 18 26  1  0  0  0  0
 18 45  1  0  0  0  0
 19  5  1  0  0  0  0
 19 20  1  6  0  0  0
 19 46  1  0  0  0  0
 20 27  1  0  0  0  0
 20 47  1  6  0  0  0
 21  1  1  0  0  0  0
 21 22  1  6  0  0  0
 21 48  1  0  0  0  0
 22  6  1  0  0  0  0
 22 23  1  6  0  0  0
 22 49  1  0  0  0  0
 23  7  1  0  0  0  0
 23 24  1  1  0  0  0
 23 50  1  0  0  0  0
 24  8  1  0  0  0  0
 24 25  1  6  0  0  0
 24 51  1  0  0  0  0
 25 28  1  0  0  0  0
 25 52  1  6  0  0  0
 26 29  2  0  0  0  0
 26 30  1  0  0  0  0
 27 53  1  0  0  0  0
 27 54  1  0  0  0  0
 28 55  1  0  0  0  0
 28 56  1  0  0  0  0
 29 31  1  0  0  0  0
 30 32  2  0  0  0  0
 31 33  2  0  0  0  0
 31 34  1  0  0  0  0
 32 33  1  0  0  0  0
 32 62  1  0  0  0  0
 34 35  1  0  0  0  0
 35 36  2  0  0  0  0
 35 67  1  0  0  0  0
 36 37  1  0  0  0  0
 37 38  2  0  0  0  0
 37 39  1  0  0  0  0
 38 40  1  0  0  0  0
 38 68  1  0  0  0  0
 39 41  2  0  0  0  0
 39 69  1  0  0  0  0
 40 42  2  0  0  0  0
 40 70  1  0  0  0  0
 41 42  1  0  0  0  0
 41 71  1  0  0  0  0
M  END
>  <PUBCHEM_COMPOUND_CID>
185995

>  <PUBCHEM_COMPOUND_CANONICALIZED>
1

>  <PUBCHEM_CACTVS_COMPLEXITY>
971

>  <PUBCHEM_CACTVS_HBOND_ACCEPTOR>
15

>  <PUBCHEM_CACTVS_HBOND_DONOR>
10

>  <PUBCHEM_CACTVS_ROTATABLE_BOND>
6

>  <PUBCHEM_CACTVS_SUBSKEYS>
AAADceB4PAAAAAAAAAAAAAAAAAAAAAAAAAA0aIECAAAAAACBQAAAGgAACAAADBSwmAMwDoAABgCIAqBSAAACCAAkIAAIiAEGCMgdNzaGNRqieWCl4BUPuQfI7PzOIAACCAAIAABAAAQQABAAAAAAAAAAAA==

>  <PUBCHEM_IUPAC_OPENEYE_NAME>
6-[(2S,3R,4S,5S,6R)-4,5-dihydroxy-6-(hydroxymethyl)-3-[(2S,3R,4S,5S,6R)-3,4,5-trihydroxy-6-(hydroxymethyl)tetrahydropyran-2-yl]oxy-tetrahydropyran-2-yl]-5,7-dihydroxy-2-(4-hydroxyphenyl)chromen-4-one

>  <PUBCHEM_IUPAC_CAS_NAME>
6-[(2S,3R,4S,5S,6R)-4,5-dihydroxy-6-(hydroxymethyl)-3-[[(2S,3R,4S,5S,6R)-3,4,5-trihydroxy-6-(hydroxymethyl)-2-oxanyl]oxy]-2-oxanyl]-5,7-dihydroxy-2-(4-hydroxyphenyl)-1-benzopyran-4-one

>  <PUBCHEM_IUPAC_NAME>
6-[(2S,3R,4S,5S,6R)-4,5-dihydroxy-6-(hydroxymethyl)-3-[(2S,3R,4S,5S,6R)-3,4,5-trihydroxy-6-(hydroxymethyl)oxan-2-yl]oxyoxan-2-yl]-5,7-dihydroxy-2-(4-hydroxyphenyl)chromen-4-one

>  <PUBCHEM_IUPAC_SYSTEMATIC_NAME>
6-[(2S,3R,4S,5S,6R)-6-(hydroxymethyl)-3-[(2S,3R,4S,5S,6R)-6-(hydroxymethyl)-3,4,5-tris(oxidanyl)oxan-2-yl]oxy-4,5-bis(oxidanyl)oxan-2-yl]-2-(4-hydroxyphenyl)-5,7-bis(oxidanyl)chromen-4-one

>  <PUBCHEM_IUPAC_TRADITIONAL_NAME>
6-[(2S,3R,4S,5S,6R)-4,5-dihydroxy-6-methylol-3-[(2S,3R,4S,5S,6R)-3,4,5-trihydroxy-6-methylol-tetrahydropyran-2-yl]oxy-tetrahydropyran-2-yl]-5,7-dihydroxy-2-(4-hydroxyphenyl)chromone

>  <PUBCHEM_IUPAC_INCHI>
InChI=1S/C27H30O15/c28-7-15-20(34)23(37)26(42-27-24(38)22(36)19(33)16(8-29)41-27)25(40-15)18-12(32)6-14-17(21(18)35)11(31)5-13(39-14)9-1-3-10(30)4-2-9/h1-6,15-16,19-20,22-30,32-38H,7-8H2/t15-,16-,19-,20-,22+,23+,24-,25+,26-,27+/m1/s1

>  <PUBCHEM_IUPAC_INCHIKEY>
RQTTXGQDIROLTQ-FASGCTRLSA-N

>  <PUBCHEM_XLOGP3_AA>
-1.4

>  <PUBCHEM_EXACT_MASS>
594.158

>  <PUBCHEM_MOLECULAR_FORMULA>
C27H30O15

>  <PUBCHEM_MOLECULAR_WEIGHT>
594.522

>  <PUBCHEM_OPENEYE_CAN_SMILES>
C1=CC(=CC=C1C2=CC(=O)C3=C(C(=C(C=C3O2)O)C4C(C(C(C(O4)CO)O)O)OC5C(C(C(C(O5)CO)O)O)O)O)O

>  <PUBCHEM_OPENEYE_ISO_SMILES>
C1=CC(=CC=C1C2=CC(=O)C3=C(C(=C(C=C3O2)O)[C@H]4[C@@H]([C@H]([C@@H]([C@H](O4)CO)O)O)O[C@H]5[C@@H]([C@H]([C@@H]([C@H](O5)CO)O)O)O)O)O

>  <PUBCHEM_CACTVS_TPSA>
256

>  <PUBCHEM_MONOISOTOPIC_WEIGHT>
594.158

>  <PUBCHEM_TOTAL_CHARGE>
0

>  <PUBCHEM_HEAVY_ATOM_COUNT>
42

>  <PUBCHEM_ATOM_DEF_STEREO_COUNT>
10

>  <PUBCHEM_ATOM_UDEF_STEREO_COUNT>
0

>  <PUBCHEM_BOND_DEF_STEREO_COUNT>
0

>  <PUBCHEM_BOND_UDEF_STEREO_COUNT>
0

>  <PUBCHEM_ISOTOPIC_ATOM_COUNT>
0

>  <PUBCHEM_COMPONENT_COUNT>
1

>  <PUBCHEM_CACTVS_TAUTO_COUNT>
57

>  <PUBCHEM_COORDINATE_TYPE>
1
5
255

>  <PUBCHEM_BONDANNOTATIONS>
16  1  6
21  1  5
13  33  8
13  36  8
18  45  6
20  27  5
25  28  5
26  29  8
26  30  8
29  31  8
30  32  8
31  33  8
31  34  8
32  33  8
34  35  8
35  36  8
37  38  8
37  39  8
38  40  8
39  41  8
17  4  5
40  42  8
41  42  8
19  5  6
22  6  6
23  7  5
24  8  6

$$$$
