18615526
 OpenBabel06101807152D

 43 44  0  0  1  0  0  0  0  0999 V2000
    3.5836   -1.1950    0.0000 O   0  0  0  0  0  0  0  0  0  0  0  0
    5.5695    1.5946    0.0000 O   0  0  0  0  0  0  0  0  0  0  0  0
    2.0000   -0.3902    0.0000 O   0  0  0  0  0  0  0  0  0  0  0  0
    3.8638    1.8954    0.0000 O   0  0  0  0  0  0  0  0  0  0  0  0
    4.5298    0.1098    0.0000 C   0  0  3  0  0  0  0  0  0  0  0  0
    4.5298   -0.8902    0.0000 C   0  0  3  0  0  0  0  0  0  0  0  0
    5.3958    0.6098    0.0000 C   0  0  3  0  0  0  0  0  0  0  0  0
    5.3958   -1.3902    0.0000 C   0  0  0  0  0  0  0  0  0  0  0  0
    3.5836    0.4145    0.0000 C   0  0  0  0  0  0  0  0  0  0  0  0
    5.6547   -2.3562    0.0000 C   0  0  0  0  0  0  0  0  0  0  0  0
    6.2029    1.0757    0.0000 C   0  0  0  0  0  0  0  0  0  0  0  0
    3.0000   -0.3902    0.0000 C   0  0  0  0  0  0  0  0  0  0  0  0
    7.0689    0.5757    0.0000 C   0  0  0  0  0  0  0  0  0  0  0  0
    7.0689   -0.4243    0.0000 C   0  0  0  0  0  0  0  0  0  0  0  0
    6.3618   -1.1314    0.0000 C   0  0  0  0  0  0  0  0  0  0  0  0
    6.6206   -2.0973    0.0000 C   0  0  0  0  0  0  0  0  0  0  0  0
    3.2729    1.3650    0.0000 C   0  0  0  0  0  0  0  0  0  0  0  0
    5.1547   -3.2222    0.0000 C   0  0  0  0  0  0  0  0  0  0  0  0
    7.9349    1.0757    0.0000 C   0  0  0  0  0  0  0  0  0  0  0  0
    4.8035    2.2374    0.0000 C   0  0  0  0  0  0  0  0  0  0  0  0
    4.9771    3.2222    0.0000 C   0  0  0  0  0  0  0  0  0  0  0  0
    4.4642    0.7263    0.0000 H   0  0  0  0  0  0  0  0  0  0  0  0
    4.4642   -1.5067    0.0000 H   0  0  0  0  0  0  0  0  0  0  0  0
    4.8880    0.9654    0.0000 H   0  0  0  0  0  0  0  0  0  0  0  0
    6.0158   -1.3902    0.0000 H   0  0  0  0  0  0  0  0  0  0  0  0
    5.5563   -0.7914    0.0000 H   0  0  0  0  0  0  0  0  0  0  0  0
    6.2731    1.6917    0.0000 H   0  0  0  0  0  0  0  0  0  0  0  0
    7.3789   -0.9612    0.0000 H   0  0  0  0  0  0  0  0  0  0  0  0
    7.6678   -0.2638    0.0000 H   0  0  0  0  0  0  0  0  0  0  0  0
    6.0062   -0.6235    0.0000 H   0  0  0  0  0  0  0  0  0  0  0  0
    5.7999   -1.3934    0.0000 H   0  0  0  0  0  0  0  0  0  0  0  0
    7.1575   -2.4073    0.0000 H   0  0  0  0  0  0  0  0  0  0  0  0
    3.6870    1.8265    0.0000 H   0  0  0  0  0  0  0  0  0  0  0  0
    2.6663    1.4929    0.0000 H   0  0  0  0  0  0  0  0  0  0  0  0
    4.6177   -2.9122    0.0000 H   0  0  0  0  0  0  0  0  0  0  0  0
    4.8447   -3.7591    0.0000 H   0  0  0  0  0  0  0  0  0  0  0  0
    5.6916   -3.5322    0.0000 H   0  0  0  0  0  0  0  0  0  0  0  0
    8.2449    0.5388    0.0000 H   0  0  0  0  0  0  0  0  0  0  0  0
    8.4718    1.3857    0.0000 H   0  0  0  0  0  0  0  0  0  0  0  0
    7.6249    1.6126    0.0000 H   0  0  0  0  0  0  0  0  0  0  0  0
    5.5877    3.1145    0.0000 H   0  0  0  0  0  0  0  0  0  0  0  0
    5.0848    3.8328    0.0000 H   0  0  0  0  0  0  0  0  0  0  0  0
    4.3665    3.3298    0.0000 H   0  0  0  0  0  0  0  0  0  0  0  0
  1  6  1  0  0  0  0
  1 12  1  0  0  0  0
  2  7  1  0  0  0  0
  2 20  1  0  0  0  0
  3 12  2  0  0  0  0
  4 20  2  0  0  0  0
  5  6  1  0  0  0  0
  5  7  1  0  0  0  0
  5  9  1  0  0  0  0
  5 22  1  0  0  0  0
  6  8  1  0  0  0  0
  6 23  1  0  0  0  0
  7 11  1  0  0  0  0
  7 24  1  0  0  0  0
  8 10  1  0  0  0  0
  8 25  1  0  0  0  0
  8 26  1  0  0  0  0
  9 12  1  0  0  0  0
  9 17  2  0  0  0  0
 10 16  2  0  0  0  0
 10 18  1  0  0  0  0
 11 13  2  0  0  0  0
 11 27  1  0  0  0  0
 13 14  1  0  0  0  0
 13 19  1  0  0  0  0
 14 15  1  0  0  0  0
 14 28  1  0  0  0  0
 14 29  1  0  0  0  0
 15 16  1  0  0  0  0
 15 30  1  0  0  0  0
 15 31  1  0  0  0  0
 16 32  1  0  0  0  0
 17 33  1  0  0  0  0
 17 34  1  0  0  0  0
 18 35  1  0  0  0  0
 18 36  1  0  0  0  0
 18 37  1  0  0  0  0
 19 38  1  0  0  0  0
 19 39  1  0  0  0  0
 19 40  1  0  0  0  0
 20 21  1  0  0  0  0
 21 41  1  0  0  0  0
 21 42  1  0  0  0  0
 21 43  1  0  0  0  0
M  END
>  <PUBCHEM_COMPOUND_CID>
18615526

>  <PUBCHEM_COMPOUND_CANONICALIZED>
1

>  <PUBCHEM_CACTVS_COMPLEXITY>
527

>  <PUBCHEM_CACTVS_HBOND_ACCEPTOR>
4

>  <PUBCHEM_CACTVS_HBOND_DONOR>
0

>  <PUBCHEM_CACTVS_ROTATABLE_BOND>
2

>  <PUBCHEM_CACTVS_SUBSKEYS>
AAADceB4OAAAAAAAAAAAAAAAAAAAASAAAAAAAAAAAAAAAACAAAAAGgAAAAAADRSggAICCAAABACIAiDSCAAAAAAgAAAACAEAAEgABBIAIQACEAAFwAAIIIPKyCCOAAAAAAAAAAAAAAAAAAAAAAAAAAAAAA==

>  <PUBCHEM_IUPAC_OPENEYE_NAME>
[(5Z,9Z)-6,10-dimethyl-3-methylene-2-oxo-3a,4,7,8,11,11a-hexahydrocyclodeca[b]furan-4-yl] acetate

>  <PUBCHEM_IUPAC_CAS_NAME>
acetic acid [(5Z,9Z)-6,10-dimethyl-3-methylene-2-oxo-3a,4,7,8,11,11a-hexahydrocyclodeca[b]furan-4-yl] ester

>  <PUBCHEM_IUPAC_NAME>
[(5Z,9Z)-6,10-dimethyl-3-methylidene-2-oxo-3a,4,7,8,11,11a-hexahydrocyclodeca[b]furan-4-yl] acetate

>  <PUBCHEM_IUPAC_SYSTEMATIC_NAME>
[(5Z,9Z)-6,10-dimethyl-3-methylidene-2-oxidanylidene-3a,4,7,8,11,11a-hexahydrocyclodeca[b]furan-4-yl] ethanoate

>  <PUBCHEM_IUPAC_TRADITIONAL_NAME>
acetic acid [(5Z,9Z)-2-keto-6,10-dimethyl-3-methylene-3a,4,7,8,11,11a-hexahydrocyclodeca[b]furan-4-yl] ester

>  <PUBCHEM_IUPAC_INCHI>
InChI=1S/C17H22O4/c1-10-6-5-7-11(2)9-15-16(12(3)17(19)21-15)14(8-10)20-13(4)18/h7-8,14-16H,3,5-6,9H2,1-2,4H3/b10-8-,11-7-

>  <PUBCHEM_IUPAC_INCHIKEY>
ORJVLIMAQARNOU-ACBQZUGDSA-N

>  <PUBCHEM_XLOGP3_AA>
2.4

>  <PUBCHEM_EXACT_MASS>
290.152

>  <PUBCHEM_MOLECULAR_FORMULA>
C17H22O4

>  <PUBCHEM_MOLECULAR_WEIGHT>
290.359

>  <PUBCHEM_OPENEYE_CAN_SMILES>
CC1=CC(C2C(CC(=CCC1)C)OC(=O)C2=C)OC(=O)C

>  <PUBCHEM_OPENEYE_ISO_SMILES>
C/C/1=C/C(C2C(C/C(=C\CC1)/C)OC(=O)C2=C)OC(=O)C

>  <PUBCHEM_CACTVS_TPSA>
52.6

>  <PUBCHEM_MONOISOTOPIC_WEIGHT>
290.152

>  <PUBCHEM_TOTAL_CHARGE>
0

>  <PUBCHEM_HEAVY_ATOM_COUNT>
21

>  <PUBCHEM_ATOM_DEF_STEREO_COUNT>
0

>  <PUBCHEM_ATOM_UDEF_STEREO_COUNT>
3

>  <PUBCHEM_BOND_DEF_STEREO_COUNT>
2

>  <PUBCHEM_BOND_UDEF_STEREO_COUNT>
0

>  <PUBCHEM_ISOTOPIC_ATOM_COUNT>
0

>  <PUBCHEM_COMPONENT_COUNT>
1

>  <PUBCHEM_CACTVS_TAUTO_COUNT>
1

>  <PUBCHEM_COORDINATE_TYPE>
1
5
255

>  <PUBCHEM_BONDANNOTATIONS>
7  2  3
5  9  3
6  8  3

$$$$
