18688993
 OpenBabel06101807152D

 50 50  0  0  1  0  0  0  0  0999 V2000
    4.2690   -1.3450    0.0000 O   0  0  0  0  0  0  0  0  0  0  0  0
    6.0010   -1.3450    0.0000 O   0  0  0  0  0  0  0  0  0  0  0  0
    4.2690   -4.3450    0.0000 O   0  0  0  0  0  0  0  0  0  0  0  0
    2.5369   -3.3450    0.0000 O   0  0  0  0  0  0  0  0  0  0  0  0
    6.0010   -3.3450    0.0000 O   0  0  0  0  0  0  0  0  0  0  0  0
    2.5369   -0.3450    0.0000 O   0  0  0  0  0  0  0  0  0  0  0  0
    4.2690   -3.3450    0.0000 C   0  0  3  0  0  0  0  0  0  0  0  0
    3.4030   -2.8450    0.0000 C   0  0  3  0  0  0  0  0  0  0  0  0
    5.1350   -2.8450    0.0000 C   0  0  3  0  0  0  0  0  0  0  0  0
    3.4030   -1.8450    0.0000 C   0  0  3  0  0  0  0  0  0  0  0  0
    5.1350   -1.8450    0.0000 C   0  0  3  0  0  0  0  0  0  0  0  0
    2.5369   -1.3450    0.0000 C   0  0  0  0  0  0  0  0  0  0  0  0
    6.0010   -0.3450    0.0000 C   0  0  0  0  0  0  0  0  0  0  0  0
    6.8671    0.1550    0.0000 C   0  0  0  0  0  0  0  0  0  0  0  0
    6.8671    1.1550    0.0000 C   0  0  0  0  0  0  0  0  0  0  0  0
    6.0010    1.6550    0.0000 C   0  0  0  0  0  0  0  0  0  0  0  0
    6.0010    2.6550    0.0000 C   0  0  0  0  0  0  0  0  0  0  0  0
    7.7331    1.6550    0.0000 C   0  0  0  0  0  0  0  0  0  0  0  0
    5.1350    3.1550    0.0000 C   0  0  0  0  0  0  0  0  0  0  0  0
    5.1350    4.1550    0.0000 C   0  0  0  0  0  0  0  0  0  0  0  0
    4.2690    4.6550    0.0000 C   0  0  0  0  0  0  0  0  0  0  0  0
    6.0010    4.6550    0.0000 C   0  0  0  0  0  0  0  0  0  0  0  0
    4.8059   -3.6550    0.0000 H   0  0  0  0  0  0  0  0  0  0  0  0
    3.4030   -3.4650    0.0000 H   0  0  0  0  0  0  0  0  0  0  0  0
    5.6720   -2.5350    0.0000 H   0  0  0  0  0  0  0  0  0  0  0  0
    3.4030   -1.2250    0.0000 H   0  0  0  0  0  0  0  0  0  0  0  0
    5.1350   -1.2250    0.0000 H   0  0  0  0  0  0  0  0  0  0  0  0
    1.9264   -1.2373    0.0000 H   0  0  0  0  0  0  0  0  0  0  0  0
    2.3249   -1.9276    0.0000 H   0  0  0  0  0  0  0  0  0  0  0  0
    3.7320   -4.6550    0.0000 H   0  0  0  0  0  0  0  0  0  0  0  0
    2.0000   -3.0350    0.0000 H   0  0  0  0  0  0  0  0  0  0  0  0
    6.5380   -3.0350    0.0000 H   0  0  0  0  0  0  0  0  0  0  0  0
    5.7890    0.2376    0.0000 H   0  0  0  0  0  0  0  0  0  0  0  0
    5.3905   -0.4527    0.0000 H   0  0  0  0  0  0  0  0  0  0  0  0
    2.0000   -0.0350    0.0000 H   0  0  0  0  0  0  0  0  0  0  0  0
    7.4040   -0.1550    0.0000 H   0  0  0  0  0  0  0  0  0  0  0  0
    5.3905    1.7627    0.0000 H   0  0  0  0  0  0  0  0  0  0  0  0
    5.7890    1.0724    0.0000 H   0  0  0  0  0  0  0  0  0  0  0  0
    6.6116    2.5473    0.0000 H   0  0  0  0  0  0  0  0  0  0  0  0
    6.2131    3.2376    0.0000 H   0  0  0  0  0  0  0  0  0  0  0  0
    8.0431    1.1181    0.0000 H   0  0  0  0  0  0  0  0  0  0  0  0
    8.2700    1.9650    0.0000 H   0  0  0  0  0  0  0  0  0  0  0  0
    7.4231    2.1919    0.0000 H   0  0  0  0  0  0  0  0  0  0  0  0
    4.5981    2.8450    0.0000 H   0  0  0  0  0  0  0  0  0  0  0  0
    6.3110    4.1181    0.0000 H   0  0  0  0  0  0  0  0  0  0  0  0
    6.5380    4.9650    0.0000 H   0  0  0  0  0  0  0  0  0  0  0  0
    5.6910    5.1919    0.0000 H   0  0  0  0  0  0  0  0  0  0  0  0
    4.5790    5.1919    0.0000 H   0  0  0  0  0  0  0  0  0  0  0  0
    3.7320    4.9650    0.0000 H   0  0  0  0  0  0  0  0  0  0  0  0
    3.9590    4.1181    0.0000 H   0  0  0  0  0  0  0  0  0  0  0  0
  1 10  1  0  0  0  0
  1 11  1  0  0  0  0
  2 11  1  0  0  0  0
  2 13  1  0  0  0  0
  3  7  1  0  0  0  0
  3 30  1  0  0  0  0
  4  8  1  0  0  0  0
  4 31  1  0  0  0  0
  5  9  1  0  0  0  0
  5 32  1  0  0  0  0
  6 12  1  0  0  0  0
  6 35  1  0  0  0  0
  7  8  1  0  0  0  0
  7  9  1  0  0  0  0
  7 23  1  0  0  0  0
  8 10  1  0  0  0  0
  8 24  1  0  0  0  0
  9 11  1  0  0  0  0
  9 25  1  0  0  0  0
 10 12  1  0  0  0  0
 10 26  1  0  0  0  0
 11 27  1  0  0  0  0
 12 28  1  0  0  0  0
 12 29  1  0  0  0  0
 13 14  1  0  0  0  0
 13 33  1  0  0  0  0
 13 34  1  0  0  0  0
 14 15  2  0  0  0  0
 14 36  1  0  0  0  0
 15 16  1  0  0  0  0
 15 18  1  0  0  0  0
 16 17  1  0  0  0  0
 16 37  1  0  0  0  0
 16 38  1  0  0  0  0
 17 19  1  0  0  0  0
 17 39  1  0  0  0  0
 17 40  1  0  0  0  0
 18 41  1  0  0  0  0
 18 42  1  0  0  0  0
 18 43  1  0  0  0  0
 19 20  2  0  0  0  0
 19 44  1  0  0  0  0
 20 21  1  0  0  0  0
 20 22  1  0  0  0  0
 21 48  1  0  0  0  0
 21 49  1  0  0  0  0
 21 50  1  0  0  0  0
 22 45  1  0  0  0  0
 22 46  1  0  0  0  0
 22 47  1  0  0  0  0
M  END
>  <PUBCHEM_COMPOUND_CID>
18688993

>  <PUBCHEM_COMPOUND_CANONICALIZED>
1

>  <PUBCHEM_CACTVS_COMPLEXITY>
388

>  <PUBCHEM_CACTVS_HBOND_ACCEPTOR>
6

>  <PUBCHEM_CACTVS_HBOND_DONOR>
4

>  <PUBCHEM_CACTVS_ROTATABLE_BOND>
7

>  <PUBCHEM_CACTVS_SUBSKEYS>
AAADceB4OAAAAAAAAAAAAAAAAAAAAAAAAAAkAAAAAAAAAAAAAAAAGgAACAAADBSwgAMCCAAABgCAAiBCAAAAAAAgAAAACAAAAAgRFAIAIQAiUAAFgAAPIAPAYAwAAAAAAAAAAAAAAAAAAAAAAAAAAAAAAA==

>  <PUBCHEM_IUPAC_OPENEYE_NAME>
2-[(2Z)-3,7-dimethylocta-2,6-dienoxy]-6-(hydroxymethyl)tetrahydropyran-3,4,5-triol

>  <PUBCHEM_IUPAC_CAS_NAME>
2-[(2Z)-3,7-dimethylocta-2,6-dienoxy]-6-(hydroxymethyl)oxane-3,4,5-triol

>  <PUBCHEM_IUPAC_NAME>
2-[(2Z)-3,7-dimethylocta-2,6-dienoxy]-6-(hydroxymethyl)oxane-3,4,5-triol

>  <PUBCHEM_IUPAC_SYSTEMATIC_NAME>
2-[(2Z)-3,7-dimethylocta-2,6-dienoxy]-6-(hydroxymethyl)oxane-3,4,5-triol

>  <PUBCHEM_IUPAC_TRADITIONAL_NAME>
2-[(2Z)-3,7-dimethylocta-2,6-dienoxy]-6-methylol-tetrahydropyran-3,4,5-triol

>  <PUBCHEM_IUPAC_INCHI>
InChI=1S/C16H28O6/c1-10(2)5-4-6-11(3)7-8-21-16-15(20)14(19)13(18)12(9-17)22-16/h5,7,12-20H,4,6,8-9H2,1-3H3/b11-7-

>  <PUBCHEM_IUPAC_INCHIKEY>
RMMXLHZEVYNSJO-XFFZJAGNSA-N

>  <PUBCHEM_XLOGP3>
1.2

>  <PUBCHEM_EXACT_MASS>
316.189

>  <PUBCHEM_MOLECULAR_FORMULA>
C16H28O6

>  <PUBCHEM_MOLECULAR_WEIGHT>
316.394

>  <PUBCHEM_OPENEYE_CAN_SMILES>
CC(=CCCC(=CCOC1C(C(C(C(O1)CO)O)O)O)C)C

>  <PUBCHEM_OPENEYE_ISO_SMILES>
CC(=CCC/C(=C\COC1C(C(C(C(O1)CO)O)O)O)/C)C

>  <PUBCHEM_CACTVS_TPSA>
99.4

>  <PUBCHEM_MONOISOTOPIC_WEIGHT>
316.189

>  <PUBCHEM_TOTAL_CHARGE>
0

>  <PUBCHEM_HEAVY_ATOM_COUNT>
22

>  <PUBCHEM_ATOM_DEF_STEREO_COUNT>
0

>  <PUBCHEM_ATOM_UDEF_STEREO_COUNT>
5

>  <PUBCHEM_BOND_DEF_STEREO_COUNT>
1

>  <PUBCHEM_BOND_UDEF_STEREO_COUNT>
0

>  <PUBCHEM_ISOTOPIC_ATOM_COUNT>
0

>  <PUBCHEM_COMPONENT_COUNT>
1

>  <PUBCHEM_CACTVS_TAUTO_COUNT>
1

>  <PUBCHEM_COORDINATE_TYPE>
1
5
255

>  <PUBCHEM_BONDANNOTATIONS>
10  12  3
11  2  3
7  3  3
8  4  3
9  5  3

$$$$
