18688995
 OpenBabel06101807152D

 67 68  0  0  1  0  0  0  0  0999 V2000
    8.1986   -1.3450    0.0000 O   0  0  0  0  0  0  0  0  0  0  0  0
    4.6870   -0.2517    0.0000 O   0  0  0  0  0  0  0  0  0  0  0  0
    6.4666   -0.3450    0.0000 O   0  0  0  0  0  0  0  0  0  0  0  0
    6.4666   -3.3450    0.0000 O   0  0  0  0  0  0  0  0  0  0  0  0
    9.9307   -1.3450    0.0000 O   0  0  0  0  0  0  0  0  0  0  0  0
    8.1986   -4.3450    0.0000 O   0  0  0  0  0  0  0  0  0  0  0  0
    9.9307   -3.3450    0.0000 O   0  0  0  0  0  0  0  0  0  0  0  0
    6.2392    1.8186    0.0000 O   0  0  0  0  0  0  0  0  0  0  0  0
    4.1111    2.2710    0.0000 O   0  0  0  0  0  0  0  0  0  0  0  0
    2.6166   -0.5267    0.0000 O   0  0  0  0  0  0  0  0  0  0  0  0
    7.3326   -1.8450    0.0000 C   0  0  3  0  0  0  0  0  0  0  0  0
    7.3326   -2.8450    0.0000 C   0  0  3  0  0  0  0  0  0  0  0  0
    8.1986   -3.3450    0.0000 C   0  0  3  0  0  0  0  0  0  0  0  0
    9.0646   -2.8450    0.0000 C   0  0  3  0  0  0  0  0  0  0  0  0
    5.6005    0.1550    0.0000 C   0  0  3  0  0  0  0  0  0  0  0  0
    5.4960    1.1495    0.0000 C   0  0  3  0  0  0  0  0  0  0  0  0
    4.5179    1.3574    0.0000 C   0  0  3  0  0  0  0  0  0  0  0  0
    4.0179    0.4914    0.0000 C   0  0  3  0  0  0  0  0  0  0  0  0
    9.0646   -1.8450    0.0000 C   0  0  3  0  0  0  0  0  0  0  0  0
    6.4666   -1.3450    0.0000 C   0  0  0  0  0  0  0  0  0  0  0  0
    3.0233    0.3869    0.0000 C   0  0  0  0  0  0  0  0  0  0  0  0
    9.9307   -0.3450    0.0000 C   0  0  0  0  0  0  0  0  0  0  0  0
   10.7967    0.1550    0.0000 C   0  0  0  0  0  0  0  0  0  0  0  0
   10.7967    1.1550    0.0000 C   0  0  0  0  0  0  0  0  0  0  0  0
    9.9307    1.6550    0.0000 C   0  0  0  0  0  0  0  0  0  0  0  0
   11.6627    1.6550    0.0000 C   0  0  0  0  0  0  0  0  0  0  0  0
    9.9307    2.6550    0.0000 C   0  0  0  0  0  0  0  0  0  0  0  0
    9.0646    3.1550    0.0000 C   0  0  0  0  0  0  0  0  0  0  0  0
    9.0646    4.1550    0.0000 C   0  0  0  0  0  0  0  0  0  0  0  0
    9.9307    4.6550    0.0000 C   0  0  0  0  0  0  0  0  0  0  0  0
    8.1986    4.6550    0.0000 C   0  0  0  0  0  0  0  0  0  0  0  0
    7.3326   -1.2250    0.0000 H   0  0  0  0  0  0  0  0  0  0  0  0
    6.7956   -2.5350    0.0000 H   0  0  0  0  0  0  0  0  0  0  0  0
    7.6617   -3.6550    0.0000 H   0  0  0  0  0  0  0  0  0  0  0  0
    9.6016   -2.5350    0.0000 H   0  0  0  0  0  0  0  0  0  0  0  0
    5.5681   -0.4642    0.0000 H   0  0  0  0  0  0  0  0  0  0  0  0
    6.0748    0.9273    0.0000 H   0  0  0  0  0  0  0  0  0  0  0  0
    4.9080    1.8393    0.0000 H   0  0  0  0  0  0  0  0  0  0  0  0
    3.7957   -0.0874    0.0000 H   0  0  0  0  0  0  0  0  0  0  0  0
    9.0646   -1.2250    0.0000 H   0  0  0  0  0  0  0  0  0  0  0  0
    5.8560   -1.2373    0.0000 H   0  0  0  0  0  0  0  0  0  0  0  0
    6.2545   -1.9276    0.0000 H   0  0  0  0  0  0  0  0  0  0  0  0
    3.0666    1.0054    0.0000 H   0  0  0  0  0  0  0  0  0  0  0  0
    2.4218    0.5369    0.0000 H   0  0  0  0  0  0  0  0  0  0  0  0
    5.9296   -3.0350    0.0000 H   0  0  0  0  0  0  0  0  0  0  0  0
    7.6617   -4.6550    0.0000 H   0  0  0  0  0  0  0  0  0  0  0  0
   10.4676   -3.0350    0.0000 H   0  0  0  0  0  0  0  0  0  0  0  0
    6.1102    2.4251    0.0000 H   0  0  0  0  0  0  0  0  0  0  0  0
    3.4945    2.3358    0.0000 H   0  0  0  0  0  0  0  0  0  0  0  0
    9.7186    0.2376    0.0000 H   0  0  0  0  0  0  0  0  0  0  0  0
    9.3201   -0.4527    0.0000 H   0  0  0  0  0  0  0  0  0  0  0  0
    2.0000   -0.5915    0.0000 H   0  0  0  0  0  0  0  0  0  0  0  0
   11.3336   -0.1550    0.0000 H   0  0  0  0  0  0  0  0  0  0  0  0
    9.3201    1.7627    0.0000 H   0  0  0  0  0  0  0  0  0  0  0  0
    9.7186    1.0724    0.0000 H   0  0  0  0  0  0  0  0  0  0  0  0
   11.9727    1.1181    0.0000 H   0  0  0  0  0  0  0  0  0  0  0  0
   12.1997    1.9650    0.0000 H   0  0  0  0  0  0  0  0  0  0  0  0
   11.3527    2.1919    0.0000 H   0  0  0  0  0  0  0  0  0  0  0  0
   10.5412    2.5473    0.0000 H   0  0  0  0  0  0  0  0  0  0  0  0
   10.1427    3.2376    0.0000 H   0  0  0  0  0  0  0  0  0  0  0  0
    8.5277    2.8450    0.0000 H   0  0  0  0  0  0  0  0  0  0  0  0
   10.2407    4.1181    0.0000 H   0  0  0  0  0  0  0  0  0  0  0  0
   10.4676    4.9650    0.0000 H   0  0  0  0  0  0  0  0  0  0  0  0
    9.6207    5.1919    0.0000 H   0  0  0  0  0  0  0  0  0  0  0  0
    8.5086    5.1919    0.0000 H   0  0  0  0  0  0  0  0  0  0  0  0
    7.6617    4.9650    0.0000 H   0  0  0  0  0  0  0  0  0  0  0  0
    7.8886    4.1181    0.0000 H   0  0  0  0  0  0  0  0  0  0  0  0
  1 11  1  0  0  0  0
  1 19  1  0  0  0  0
  2 15  1  0  0  0  0
  2 18  1  0  0  0  0
  3 15  1  0  0  0  0
  3 20  1  0  0  0  0
  4 12  1  0  0  0  0
  4 45  1  0  0  0  0
  5 19  1  0  0  0  0
  5 22  1  0  0  0  0
  6 13  1  0  0  0  0
  6 46  1  0  0  0  0
  7 14  1  0  0  0  0
  7 47  1  0  0  0  0
  8 16  1  0  0  0  0
  8 48  1  0  0  0  0
  9 17  1  0  0  0  0
  9 49  1  0  0  0  0
 10 21  1  0  0  0  0
 10 52  1  0  0  0  0
 11 12  1  0  0  0  0
 11 20  1  0  0  0  0
 11 32  1  0  0  0  0
 12 13  1  0  0  0  0
 12 33  1  0  0  0  0
 13 14  1  0  0  0  0
 13 34  1  0  0  0  0
 14 19  1  0  0  0  0
 14 35  1  0  0  0  0
 15 16  1  0  0  0  0
 15 36  1  0  0  0  0
 16 17  1  0  0  0  0
 16 37  1  0  0  0  0
 17 18  1  0  0  0  0
 17 38  1  0  0  0  0
 18 21  1  0  0  0  0
 18 39  1  0  0  0  0
 19 40  1  0  0  0  0
 20 41  1  0  0  0  0
 20 42  1  0  0  0  0
 21 43  1  0  0  0  0
 21 44  1  0  0  0  0
 22 23  1  0  0  0  0
 22 50  1  0  0  0  0
 22 51  1  0  0  0  0
 23 24  2  0  0  0  0
 23 53  1  0  0  0  0
 24 25  1  0  0  0  0
 24 26  1  0  0  0  0
 25 27  1  0  0  0  0
 25 54  1  0  0  0  0
 25 55  1  0  0  0  0
 26 56  1  0  0  0  0
 26 57  1  0  0  0  0
 26 58  1  0  0  0  0
 27 28  1  0  0  0  0
 27 59  1  0  0  0  0
 27 60  1  0  0  0  0
 28 29  2  0  0  0  0
 28 61  1  0  0  0  0
 29 30  1  0  0  0  0
 29 31  1  0  0  0  0
 30 62  1  0  0  0  0
 30 63  1  0  0  0  0
 30 64  1  0  0  0  0
 31 65  1  0  0  0  0
 31 66  1  0  0  0  0
 31 67  1  0  0  0  0
M  END
>  <PUBCHEM_COMPOUND_CID>
18688995

>  <PUBCHEM_COMPOUND_CANONICALIZED>
1

>  <PUBCHEM_CACTVS_COMPLEXITY>
605

>  <PUBCHEM_CACTVS_HBOND_ACCEPTOR>
10

>  <PUBCHEM_CACTVS_HBOND_DONOR>
6

>  <PUBCHEM_CACTVS_ROTATABLE_BOND>
10

>  <PUBCHEM_CACTVS_SUBSKEYS>
AAADcfB4PAAAAAAAAAAAAAAAAAAAASAAAAAkAAAAAAAAAAAAAAAAGgAACAAADBSwgAMCCAAABgCAAiBCAAAAAAAgAAAACAAAAAgRFAIAIQAiUAAFgAAPIAPAYAwAAAAAAAAAAAAAAAAAAAAAAAAAAAAAAA==

>  <PUBCHEM_IUPAC_OPENEYE_NAME>
2-[[3,4-dihydroxy-5-(hydroxymethyl)tetrahydrofuran-2-yl]oxymethyl]-6-[(2Z)-3,7-dimethylocta-2,6-dienoxy]tetrahydropyran-3,4,5-triol

>  <PUBCHEM_IUPAC_CAS_NAME>
2-[[3,4-dihydroxy-5-(hydroxymethyl)-2-oxolanyl]oxymethyl]-6-[(2Z)-3,7-dimethylocta-2,6-dienoxy]oxane-3,4,5-triol

>  <PUBCHEM_IUPAC_NAME>
2-[[3,4-dihydroxy-5-(hydroxymethyl)oxolan-2-yl]oxymethyl]-6-[(2Z)-3,7-dimethylocta-2,6-dienoxy]oxane-3,4,5-triol

>  <PUBCHEM_IUPAC_SYSTEMATIC_NAME>
2-[(2Z)-3,7-dimethylocta-2,6-dienoxy]-6-[[5-(hydroxymethyl)-3,4-bis(oxidanyl)oxolan-2-yl]oxymethyl]oxane-3,4,5-triol

>  <PUBCHEM_IUPAC_TRADITIONAL_NAME>
2-[(3,4-dihydroxy-5-methylol-tetrahydrofuran-2-yl)oxymethyl]-6-[(2Z)-3,7-dimethylocta-2,6-dienoxy]tetrahydropyran-3,4,5-triol

>  <PUBCHEM_IUPAC_INCHI>
InChI=1S/C21H36O10/c1-11(2)5-4-6-12(3)7-8-28-20-19(27)17(25)16(24)14(31-20)10-29-21-18(26)15(23)13(9-22)30-21/h5,7,13-27H,4,6,8-10H2,1-3H3/b12-7-

>  <PUBCHEM_IUPAC_INCHIKEY>
AWDKYYYAAQQLEF-GHXNOFRVSA-N

>  <PUBCHEM_XLOGP3_AA>
-0.2

>  <PUBCHEM_EXACT_MASS>
448.231

>  <PUBCHEM_MOLECULAR_FORMULA>
C21H36O10

>  <PUBCHEM_MOLECULAR_WEIGHT>
448.509

>  <PUBCHEM_OPENEYE_CAN_SMILES>
CC(=CCCC(=CCOC1C(C(C(C(O1)COC2C(C(C(O2)CO)O)O)O)O)O)C)C

>  <PUBCHEM_OPENEYE_ISO_SMILES>
CC(=CCC/C(=C\COC1C(C(C(C(O1)COC2C(C(C(O2)CO)O)O)O)O)O)/C)C

>  <PUBCHEM_CACTVS_TPSA>
158

>  <PUBCHEM_MONOISOTOPIC_WEIGHT>
448.231

>  <PUBCHEM_TOTAL_CHARGE>
0

>  <PUBCHEM_HEAVY_ATOM_COUNT>
31

>  <PUBCHEM_ATOM_DEF_STEREO_COUNT>
0

>  <PUBCHEM_ATOM_UDEF_STEREO_COUNT>
9

>  <PUBCHEM_BOND_DEF_STEREO_COUNT>
1

>  <PUBCHEM_BOND_UDEF_STEREO_COUNT>
0

>  <PUBCHEM_ISOTOPIC_ATOM_COUNT>
0

>  <PUBCHEM_COMPONENT_COUNT>
1

>  <PUBCHEM_CACTVS_TAUTO_COUNT>
1

>  <PUBCHEM_COORDINATE_TYPE>
1
5
255

>  <PUBCHEM_BONDANNOTATIONS>
11  20  3
18  21  3
15  3  3
12  4  3
19  5  3
13  6  3
14  7  3
16  8  3
17  9  3

$$$$
