189168
 OpenBabel06101807152D

 36 39  0  0  0  0  0  0  0  0999 V2000
    3.7782    1.3036    0.0000 O   0  0  0  0  0  0  0  0  0  0  0  0
    5.5442    2.3414    0.0000 O   0  0  0  0  0  0  0  0  0  0  0  0
    8.1630   -0.2772    0.0000 O   0  0  0  0  0  0  0  0  0  0  0  0
    8.1118   -2.2576    0.0000 O   0  0  0  0  0  0  0  0  0  0  0  0
    6.3903   -2.2248    0.0000 N   0  0  0  0  0  0  0  0  0  0  0  0
    5.5321   -0.7278    0.0000 C   0  0  0  0  0  0  0  0  0  0  0  0
    4.6660   -0.2278    0.0000 C   0  0  0  0  0  0  0  0  0  0  0  0
    5.5321   -1.7278    0.0000 C   0  0  0  0  0  0  0  0  0  0  0  0
    3.8000   -0.7278    0.0000 C   0  0  0  0  0  0  0  0  0  0  0  0
    6.4421   -0.2210    0.0000 C   0  0  0  0  0  0  0  0  0  0  0  0
    3.8000   -1.7278    0.0000 C   0  0  0  0  0  0  0  0  0  0  0  0
    4.6500    0.8137    0.0000 C   0  0  0  0  0  0  0  0  0  0  0  0
    4.6660   -2.2278    0.0000 C   0  0  0  0  0  0  0  0  0  0  0  0
    6.4501    0.8206    0.0000 C   0  0  0  0  0  0  0  0  0  0  0  0
    5.5480    1.3414    0.0000 C   0  0  0  0  0  0  0  0  0  0  0  0
    7.2814   -0.7492    0.0000 C   0  0  0  0  0  0  0  0  0  0  0  0
    2.9061   -0.1932    0.0000 C   0  0  0  0  0  0  0  0  0  0  0  0
    7.2558   -1.7406    0.0000 C   0  0  0  0  0  0  0  0  0  0  0  0
    2.9061   -2.2625    0.0000 C   0  0  0  0  0  0  0  0  0  0  0  0
    2.0000   -0.7070    0.0000 C   0  0  0  0  0  0  0  0  0  0  0  0
    2.0000   -1.7486    0.0000 C   0  0  0  0  0  0  0  0  0  0  0  0
    3.7667    2.3036    0.0000 C   0  0  0  0  0  0  0  0  0  0  0  0
    6.4082    2.8448    0.0000 C   0  0  0  0  0  0  0  0  0  0  0  0
    4.6660   -2.8478    0.0000 H   0  0  0  0  0  0  0  0  0  0  0  0
    6.9882    1.1285    0.0000 H   0  0  0  0  0  0  0  0  0  0  0  0
    6.3857   -2.8448    0.0000 H   0  0  0  0  0  0  0  0  0  0  0  0
    2.9132    0.4268    0.0000 H   0  0  0  0  0  0  0  0  0  0  0  0
    2.9132   -2.8825    0.0000 H   0  0  0  0  0  0  0  0  0  0  0  0
    1.4643   -0.3950    0.0000 H   0  0  0  0  0  0  0  0  0  0  0  0
    1.4643   -2.0607    0.0000 H   0  0  0  0  0  0  0  0  0  0  0  0
    4.3866    2.3107    0.0000 H   0  0  0  0  0  0  0  0  0  0  0  0
    3.7595    2.9235    0.0000 H   0  0  0  0  0  0  0  0  0  0  0  0
    3.1467    2.2964    0.0000 H   0  0  0  0  0  0  0  0  0  0  0  0
    6.7203    2.3090    0.0000 H   0  0  0  0  0  0  0  0  0  0  0  0
    6.9440    3.1568    0.0000 H   0  0  0  0  0  0  0  0  0  0  0  0
    6.0962    3.3805    0.0000 H   0  0  0  0  0  0  0  0  0  0  0  0
  1 12  1  0  0  0  0
  1 22  1  0  0  0  0
  2 15  1  0  0  0  0
  2 23  1  0  0  0  0
  3 16  2  0  0  0  0
  4 18  2  0  0  0  0
  5  8  1  0  0  0  0
  5 18  1  0  0  0  0
  5 26  1  0  0  0  0
  6  7  2  0  0  0  0
  6  8  1  0  0  0  0
  6 10  1  0  0  0  0
  7  9  1  0  0  0  0
  7 12  1  0  0  0  0
  8 13  2  0  0  0  0
  9 11  1  0  0  0  0
  9 17  2  0  0  0  0
 10 14  2  0  0  0  0
 10 16  1  0  0  0  0
 11 13  1  0  0  0  0
 11 19  2  0  0  0  0
 12 15  2  0  0  0  0
 13 24  1  0  0  0  0
 14 15  1  0  0  0  0
 14 25  1  0  0  0  0
 16 18  1  0  0  0  0
 17 20  1  0  0  0  0
 17 27  1  0  0  0  0
 19 21  1  0  0  0  0
 19 28  1  0  0  0  0
 20 21  2  0  0  0  0
 20 29  1  0  0  0  0
 21 30  1  0  0  0  0
 22 31  1  0  0  0  0
 22 32  1  0  0  0  0
 22 33  1  0  0  0  0
 23 34  1  0  0  0  0
 23 35  1  0  0  0  0
 23 36  1  0  0  0  0
M  END
>  <PUBCHEM_COMPOUND_CID>
189168

>  <PUBCHEM_COMPOUND_CANONICALIZED>
1

>  <PUBCHEM_CACTVS_COMPLEXITY>
507

>  <PUBCHEM_CACTVS_HBOND_ACCEPTOR>
4

>  <PUBCHEM_CACTVS_HBOND_DONOR>
1

>  <PUBCHEM_CACTVS_ROTATABLE_BOND>
2

>  <PUBCHEM_CACTVS_SUBSKEYS>
AAADccB6OAAAAAAAAAAAAAAAAAAAAAAAAAA8YMEAAAAAAADxVAAAHgAQAAAADAyBmAIyxsLABACIAqVSUACCCAAlIgAIiAGG7MgNJjLEtbuEMSpk1BHK6Ye+3fPe6AADQAAaQADQAAaAADSAAAAAAAAAAA==

>  <PUBCHEM_IUPAC_INCHI>
InChI=1S/C18H13NO4/c1-22-13-8-11-14-12(19-18(21)16(11)20)7-9-5-3-4-6-10(9)15(14)17(13)23-2/h3-8H,1-2H3,(H,19,21)

>  <PUBCHEM_IUPAC_INCHIKEY>
BAGGDUOPTSQTHD-UHFFFAOYSA-N

>  <PUBCHEM_XLOGP3_AA>
3.2

>  <PUBCHEM_EXACT_MASS>
307.084

>  <PUBCHEM_MOLECULAR_FORMULA>
C18H13NO4

>  <PUBCHEM_MOLECULAR_WEIGHT>
307.305

>  <PUBCHEM_OPENEYE_CAN_SMILES>
COC1=C(C2=C3C(=C1)C(=O)C(=O)NC3=CC4=CC=CC=C42)OC

>  <PUBCHEM_OPENEYE_ISO_SMILES>
COC1=C(C2=C3C(=C1)C(=O)C(=O)NC3=CC4=CC=CC=C42)OC

>  <PUBCHEM_CACTVS_TPSA>
64.6

>  <PUBCHEM_MONOISOTOPIC_WEIGHT>
307.084

>  <PUBCHEM_TOTAL_CHARGE>
0

>  <PUBCHEM_HEAVY_ATOM_COUNT>
23

>  <PUBCHEM_ATOM_DEF_STEREO_COUNT>
0

>  <PUBCHEM_ATOM_UDEF_STEREO_COUNT>
0

>  <PUBCHEM_BOND_DEF_STEREO_COUNT>
0

>  <PUBCHEM_BOND_UDEF_STEREO_COUNT>
0

>  <PUBCHEM_ISOTOPIC_ATOM_COUNT>
0

>  <PUBCHEM_COMPONENT_COUNT>
1

>  <PUBCHEM_CACTVS_TAUTO_COUNT>
2

>  <PUBCHEM_COORDINATE_TYPE>
1
5
255

>  <PUBCHEM_BONDANNOTATIONS>
10  14  8
11  13  8
11  19  8
12  15  8
14  15  8
17  20  8
19  21  8
20  21  8
6  10  8
6  7  8
6  8  8
7  12  8
7  9  8
8  13  8
9  11  8
9  17  8

$$$$
