189151
 OpenBabel06101807152D

 39 42  0  0  0  0  0  0  0  0999 V2000
    3.7782    1.4936    0.0000 O   0  0  0  0  0  0  0  0  0  0  0  0
    5.5442    2.5314    0.0000 O   0  0  0  0  0  0  0  0  0  0  0  0
    8.1630   -0.0872    0.0000 O   0  0  0  0  0  0  0  0  0  0  0  0
    8.1118   -2.0676    0.0000 O   0  0  0  0  0  0  0  0  0  0  0  0
    6.3903   -2.0348    0.0000 N   0  0  0  0  0  0  0  0  0  0  0  0
    5.5321   -0.5378    0.0000 C   0  0  0  0  0  0  0  0  0  0  0  0
    4.6660   -0.0378    0.0000 C   0  0  0  0  0  0  0  0  0  0  0  0
    5.5321   -1.5378    0.0000 C   0  0  0  0  0  0  0  0  0  0  0  0
    3.8000   -0.5378    0.0000 C   0  0  0  0  0  0  0  0  0  0  0  0
    6.4421   -0.0310    0.0000 C   0  0  0  0  0  0  0  0  0  0  0  0
    3.8000   -1.5378    0.0000 C   0  0  0  0  0  0  0  0  0  0  0  0
    4.6660   -2.0378    0.0000 C   0  0  0  0  0  0  0  0  0  0  0  0
    4.6500    1.0037    0.0000 C   0  0  0  0  0  0  0  0  0  0  0  0
    6.4501    1.0106    0.0000 C   0  0  0  0  0  0  0  0  0  0  0  0
    7.2814   -0.5592    0.0000 C   0  0  0  0  0  0  0  0  0  0  0  0
    5.5480    1.5314    0.0000 C   0  0  0  0  0  0  0  0  0  0  0  0
    7.2558   -1.5506    0.0000 C   0  0  0  0  0  0  0  0  0  0  0  0
    2.9061   -0.0032    0.0000 C   0  0  0  0  0  0  0  0  0  0  0  0
    2.9061   -2.0725    0.0000 C   0  0  0  0  0  0  0  0  0  0  0  0
    6.3829   -3.0348    0.0000 C   0  0  0  0  0  0  0  0  0  0  0  0
    2.0000   -0.5170    0.0000 C   0  0  0  0  0  0  0  0  0  0  0  0
    2.0000   -1.5587    0.0000 C   0  0  0  0  0  0  0  0  0  0  0  0
    3.7667    2.4936    0.0000 C   0  0  0  0  0  0  0  0  0  0  0  0
    6.4082    3.0348    0.0000 C   0  0  0  0  0  0  0  0  0  0  0  0
    4.6660   -2.6578    0.0000 H   0  0  0  0  0  0  0  0  0  0  0  0
    6.9882    1.3185    0.0000 H   0  0  0  0  0  0  0  0  0  0  0  0
    2.9132    0.6168    0.0000 H   0  0  0  0  0  0  0  0  0  0  0  0
    2.9132   -2.6925    0.0000 H   0  0  0  0  0  0  0  0  0  0  0  0
    5.7629   -3.0302    0.0000 H   0  0  0  0  0  0  0  0  0  0  0  0
    6.3783   -3.6547    0.0000 H   0  0  0  0  0  0  0  0  0  0  0  0
    7.0029   -3.0393    0.0000 H   0  0  0  0  0  0  0  0  0  0  0  0
    1.4643   -0.2050    0.0000 H   0  0  0  0  0  0  0  0  0  0  0  0
    1.4643   -1.8707    0.0000 H   0  0  0  0  0  0  0  0  0  0  0  0
    4.3866    2.5007    0.0000 H   0  0  0  0  0  0  0  0  0  0  0  0
    3.7595    3.1135    0.0000 H   0  0  0  0  0  0  0  0  0  0  0  0
    3.1467    2.4864    0.0000 H   0  0  0  0  0  0  0  0  0  0  0  0
    6.7203    2.4990    0.0000 H   0  0  0  0  0  0  0  0  0  0  0  0
    6.9440    3.3468    0.0000 H   0  0  0  0  0  0  0  0  0  0  0  0
    6.0962    3.5705    0.0000 H   0  0  0  0  0  0  0  0  0  0  0  0
  1 13  1  0  0  0  0
  1 23  1  0  0  0  0
  2 16  1  0  0  0  0
  2 24  1  0  0  0  0
  3 15  2  0  0  0  0
  4 17  2  0  0  0  0
  5  8  1  0  0  0  0
  5 17  1  0  0  0  0
  5 20  1  0  0  0  0
  6  7  2  0  0  0  0
  6  8  1  0  0  0  0
  6 10  1  0  0  0  0
  7  9  1  0  0  0  0
  7 13  1  0  0  0  0
  8 12  2  0  0  0  0
  9 11  1  0  0  0  0
  9 18  2  0  0  0  0
 10 14  2  0  0  0  0
 10 15  1  0  0  0  0
 11 12  1  0  0  0  0
 11 19  2  0  0  0  0
 12 25  1  0  0  0  0
 13 16  2  0  0  0  0
 14 16  1  0  0  0  0
 14 26  1  0  0  0  0
 15 17  1  0  0  0  0
 18 21  1  0  0  0  0
 18 27  1  0  0  0  0
 19 22  1  0  0  0  0
 19 28  1  0  0  0  0
 20 29  1  0  0  0  0
 20 30  1  0  0  0  0
 20 31  1  0  0  0  0
 21 22  2  0  0  0  0
 21 32  1  0  0  0  0
 22 33  1  0  0  0  0
 23 34  1  0  0  0  0
 23 35  1  0  0  0  0
 23 36  1  0  0  0  0
 24 37  1  0  0  0  0
 24 38  1  0  0  0  0
 24 39  1  0  0  0  0
M  END
>  <PUBCHEM_COMPOUND_CID>
189151

>  <PUBCHEM_COMPOUND_CANONICALIZED>
1

>  <PUBCHEM_CACTVS_COMPLEXITY>
536

>  <PUBCHEM_CACTVS_HBOND_ACCEPTOR>
4

>  <PUBCHEM_CACTVS_HBOND_DONOR>
0

>  <PUBCHEM_CACTVS_ROTATABLE_BOND>
2

>  <PUBCHEM_CACTVS_SUBSKEYS>
AAADccB6OAAAAAAAAAAAAAAAAAAAAAAAAAA8YMEAAAAAAADxVAAAHgAAAAAADAyBmAYyxsMABACIAqVSUACCCAAlIgAIiAGO7MgNJjLEtbuEMSpkxhHK6Ye+3fPe6AADQAAaQADQAAaAADSAAAAAAAAAAA==

>  <PUBCHEM_IUPAC_INCHI>
InChI=1S/C19H15NO4/c1-20-13-8-10-6-4-5-7-11(10)16-15(13)12(17(21)19(20)22)9-14(23-2)18(16)24-3/h4-9H,1-3H3

>  <PUBCHEM_IUPAC_INCHIKEY>
AFKGBLKLNRDQFN-UHFFFAOYSA-N

>  <PUBCHEM_XLOGP3_AA>
3.3

>  <PUBCHEM_EXACT_MASS>
321.1

>  <PUBCHEM_MOLECULAR_FORMULA>
C19H15NO4

>  <PUBCHEM_MOLECULAR_WEIGHT>
321.332

>  <PUBCHEM_OPENEYE_CAN_SMILES>
CN1C2=CC3=CC=CC=C3C4=C2C(=CC(=C4OC)OC)C(=O)C1=O

>  <PUBCHEM_OPENEYE_ISO_SMILES>
CN1C2=CC3=CC=CC=C3C4=C2C(=CC(=C4OC)OC)C(=O)C1=O

>  <PUBCHEM_CACTVS_TPSA>
55.8

>  <PUBCHEM_MONOISOTOPIC_WEIGHT>
321.1

>  <PUBCHEM_TOTAL_CHARGE>
0

>  <PUBCHEM_HEAVY_ATOM_COUNT>
24

>  <PUBCHEM_ATOM_DEF_STEREO_COUNT>
0

>  <PUBCHEM_ATOM_UDEF_STEREO_COUNT>
0

>  <PUBCHEM_BOND_DEF_STEREO_COUNT>
0

>  <PUBCHEM_BOND_UDEF_STEREO_COUNT>
0

>  <PUBCHEM_ISOTOPIC_ATOM_COUNT>
0

>  <PUBCHEM_COMPONENT_COUNT>
1

>  <PUBCHEM_CACTVS_TAUTO_COUNT>
1

>  <PUBCHEM_COORDINATE_TYPE>
1
5
255

>  <PUBCHEM_BONDANNOTATIONS>
10  14  8
11  12  8
11  19  8
13  16  8
14  16  8
18  21  8
19  22  8
21  22  8
6  10  8
6  7  8
6  8  8
7  13  8
7  9  8
8  12  8
9  11  8
9  18  8

$$$$
