189690
 OpenBabel06101807152D

 18 20  0  0  0  0  0  0  0  0999 V2000
    6.1391   -0.4377    0.0000 S   0  0  0  0  0  0  0  0  0  0  0  0
    5.0274    1.0997    0.0000 N   0  0  0  0  0  0  0  0  0  0  0  0
    5.8311   -1.3829    0.0000 N   0  0  0  0  0  0  0  0  0  0  0  0
    3.7183    0.1487    0.0000 C   0  0  0  0  0  0  0  0  0  0  0  0
    4.5274   -0.4391    0.0000 C   0  0  0  0  0  0  0  0  0  0  0  0
    4.0274    1.0997    0.0000 C   0  0  0  0  0  0  0  0  0  0  0  0
    5.3364    0.1487    0.0000 C   0  0  0  0  0  0  0  0  0  0  0  0
    4.8370   -1.3837    0.0000 C   0  0  0  0  0  0  0  0  0  0  0  0
    2.7029   -0.0836    0.0000 C   0  0  0  0  0  0  0  0  0  0  0  0
    3.3424    1.8845    0.0000 C   0  0  0  0  0  0  0  0  0  0  0  0
    2.0000    0.6851    0.0000 C   0  0  0  0  0  0  0  0  0  0  0  0
    2.3219    1.6758    0.0000 C   0  0  0  0  0  0  0  0  0  0  0  0
    4.4734   -1.8860    0.0000 H   0  0  0  0  0  0  0  0  0  0  0  0
    2.5182   -0.6754    0.0000 H   0  0  0  0  0  0  0  0  0  0  0  0
    3.5408    2.4719    0.0000 H   0  0  0  0  0  0  0  0  0  0  0  0
    6.1955   -1.8845    0.0000 H   0  0  0  0  0  0  0  0  0  0  0  0
    1.3940    0.5539    0.0000 H   0  0  0  0  0  0  0  0  0  0  0  0
    1.9088    2.1381    0.0000 H   0  0  0  0  0  0  0  0  0  0  0  0
  1  3  1  0  0  0  0
  1  7  1  0  0  0  0
  2  6  1  0  0  0  0
  2  7  2  0  0  0  0
  3  8  1  0  0  0  0
  3 16  1  0  0  0  0
  4  5  1  0  0  0  0
  4  6  1  0  0  0  0
  4  9  2  0  0  0  0
  5  7  1  0  0  0  0
  5  8  2  0  0  0  0
  6 10  2  0  0  0  0
  8 13  1  0  0  0  0
  9 11  1  0  0  0  0
  9 14  1  0  0  0  0
 10 12  1  0  0  0  0
 10 15  1  0  0  0  0
 11 12  2  0  0  0  0
 11 17  1  0  0  0  0
 12 18  1  0  0  0  0
M  END
>  <PUBCHEM_COMPOUND_CID>
189690

>  <PUBCHEM_COMPOUND_CANONICALIZED>
1

>  <PUBCHEM_CACTVS_COMPLEXITY>
185

>  <PUBCHEM_CACTVS_HBOND_ACCEPTOR>
2

>  <PUBCHEM_CACTVS_HBOND_DONOR>
1

>  <PUBCHEM_CACTVS_ROTATABLE_BOND>
0

>  <PUBCHEM_CACTVS_SUBSKEYS>
AAADcYBzAABAAAAAAAAAAAAAAAAAAWLAAAAwAAAAAAAWAFgBwAAAHAQQQAAADAjBXgQ8wfJJEACkAzRnRACD0DAhAigImbAwZJgIIOLA0dGEJAxggADIyAcQgMAOgAAAAAACAAAAAAAAAAQAAAAAAAAAAA==

>  <PUBCHEM_IUPAC_OPENEYE_NAME>
2H-isothiazolo[5,4-b]indole

>  <PUBCHEM_IUPAC_CAS_NAME>
2H-isothiazolo[5,4-b]indole

>  <PUBCHEM_IUPAC_NAME>
2H-[1,2]thiazolo[5,4-b]indole

>  <PUBCHEM_IUPAC_SYSTEMATIC_NAME>
2H-[1,2]thiazolo[5,4-b]indole

>  <PUBCHEM_IUPAC_TRADITIONAL_NAME>
2H-isothiazol[5,4-b]indole

>  <PUBCHEM_IUPAC_INCHI>
InChI=1S/C9H6N2S/c1-2-4-8-6(3-1)7-5-10-12-9(7)11-8/h1-5,10H

>  <PUBCHEM_IUPAC_INCHIKEY>
YPQKRKAUPLJHDT-UHFFFAOYSA-N

>  <PUBCHEM_XLOGP3_AA>
3.1

>  <PUBCHEM_EXACT_MASS>
174.025

>  <PUBCHEM_MOLECULAR_FORMULA>
C9H6N2S

>  <PUBCHEM_MOLECULAR_WEIGHT>
174.221

>  <PUBCHEM_OPENEYE_CAN_SMILES>
C1=CC=C2C(=C1)C3=CNSC3=N2

>  <PUBCHEM_OPENEYE_ISO_SMILES>
C1=CC=C2C(=C1)C3=CNSC3=N2

>  <PUBCHEM_CACTVS_TPSA>
56.9

>  <PUBCHEM_MONOISOTOPIC_WEIGHT>
174.025

>  <PUBCHEM_TOTAL_CHARGE>
0

>  <PUBCHEM_HEAVY_ATOM_COUNT>
12

>  <PUBCHEM_ATOM_DEF_STEREO_COUNT>
0

>  <PUBCHEM_ATOM_UDEF_STEREO_COUNT>
0

>  <PUBCHEM_BOND_DEF_STEREO_COUNT>
0

>  <PUBCHEM_BOND_UDEF_STEREO_COUNT>
0

>  <PUBCHEM_ISOTOPIC_ATOM_COUNT>
0

>  <PUBCHEM_COMPONENT_COUNT>
1

>  <PUBCHEM_CACTVS_TAUTO_COUNT>
2

>  <PUBCHEM_COORDINATE_TYPE>
1
5
255

>  <PUBCHEM_BONDANNOTATIONS>
1  3  8
1  7  8
10  12  8
11  12  8
2  6  8
2  7  8
3  8  8
4  5  8
4  6  8
4  9  8
5  8  8
6  10  8
9  11  8

$$$$
