18971349
 OpenBabel06101807152D

 15 15  0  0  1  0  0  0  0  0999 V2000
    4.4467   -1.6307    0.0000 S   0  0  0  0  0  0  0  0  0  0  0  0
    6.2068   -1.3519    0.0000 S   0  0  0  0  0  0  0  0  0  0  0  0
    2.3644    0.6126    0.0000 O   0  0  0  0  0  0  0  0  0  0  0  0
    3.7657    1.6307    0.0000 O   0  0  0  0  0  0  0  0  0  0  0  0
    3.9467   -0.0919    0.0000 C   0  0  3  0  0  0  0  0  0  0  0  0
    4.9467   -0.0919    0.0000 C   0  0  0  0  0  0  0  0  0  0  0  0
    3.6377   -1.0429    0.0000 C   0  0  0  0  0  0  0  0  0  0  0  0
    5.2558   -1.0429    0.0000 C   0  0  0  0  0  0  0  0  0  0  0  0
    3.3590    0.7172    0.0000 C   0  0  0  0  0  0  0  0  0  0  0  0
    3.3344   -0.1888    0.0000 H   0  0  0  0  0  0  0  0  0  0  0  0
    5.5532    0.0370    0.0000 H   0  0  0  0  0  0  0  0  0  0  0  0
    4.8819    0.5247    0.0000 H   0  0  0  0  0  0  0  0  0  0  0  0
    3.0713   -0.7907    0.0000 H   0  0  0  0  0  0  0  0  0  0  0  0
    3.3277   -1.5798    0.0000 H   0  0  0  0  0  0  0  0  0  0  0  0
    2.0000    1.1142    0.0000 H   0  0  0  0  0  0  0  0  0  0  0  0
  1  7  1  0  0  0  0
  1  8  1  0  0  0  0
  2  8  2  0  0  0  0
  3  9  1  0  0  0  0
  3 15  1  0  0  0  0
  4  9  2  0  0  0  0
  5  6  1  0  0  0  0
  5  7  1  0  0  0  0
  5  9  1  0  0  0  0
  5 10  1  0  0  0  0
  6  8  1  0  0  0  0
  6 11  1  0  0  0  0
  6 12  1  0  0  0  0
  7 13  1  0  0  0  0
  7 14  1  0  0  0  0
M  END
>  <PUBCHEM_COMPOUND_CID>
18971349

>  <PUBCHEM_COMPOUND_CANONICALIZED>
1

>  <PUBCHEM_CACTVS_COMPLEXITY>
155

>  <PUBCHEM_CACTVS_HBOND_ACCEPTOR>
4

>  <PUBCHEM_CACTVS_HBOND_DONOR>
1

>  <PUBCHEM_CACTVS_ROTATABLE_BOND>
1

>  <PUBCHEM_CACTVS_SUBSKEYS>
AAADcYBgMABgAAAAAAAAAAAAAAAAASAAAAAAAAAAAAAAAAAAAAAAGgQACAAADQCEwACACAAAAggMAACQCAAAAAAAABAAAAEAAAAAABAgAAAAQAAEAAAgAAAAAAAIAAAAAAAAAAAAAAAAAAAAAAAAAAAAAA==

>  <PUBCHEM_IUPAC_OPENEYE_NAME>
5-thioxotetrahydrothiophene-3-carboxylic acid

>  <PUBCHEM_IUPAC_CAS_NAME>
5-sulfanylidene-3-thiolanecarboxylic acid

>  <PUBCHEM_IUPAC_NAME>
5-sulfanylidenethiolane-3-carboxylic acid

>  <PUBCHEM_IUPAC_SYSTEMATIC_NAME>
5-sulfanylidenethiolane-3-carboxylic acid

>  <PUBCHEM_IUPAC_TRADITIONAL_NAME>
5-thioxotetrahydrothiophene-3-carboxylic acid

>  <PUBCHEM_IUPAC_INCHI>
InChI=1S/C5H6O2S2/c6-5(7)3-1-4(8)9-2-3/h3H,1-2H2,(H,6,7)

>  <PUBCHEM_IUPAC_INCHIKEY>
NLNFPVLIHKVQGW-UHFFFAOYSA-N

>  <PUBCHEM_XLOGP3_AA>
0.5

>  <PUBCHEM_EXACT_MASS>
161.981

>  <PUBCHEM_MOLECULAR_FORMULA>
C5H6O2S2

>  <PUBCHEM_MOLECULAR_WEIGHT>
162.221

>  <PUBCHEM_OPENEYE_CAN_SMILES>
C1C(CSC1=S)C(=O)O

>  <PUBCHEM_OPENEYE_ISO_SMILES>
C1C(CSC1=S)C(=O)O

>  <PUBCHEM_CACTVS_TPSA>
94.7

>  <PUBCHEM_MONOISOTOPIC_WEIGHT>
161.981

>  <PUBCHEM_TOTAL_CHARGE>
0

>  <PUBCHEM_HEAVY_ATOM_COUNT>
9

>  <PUBCHEM_ATOM_DEF_STEREO_COUNT>
0

>  <PUBCHEM_ATOM_UDEF_STEREO_COUNT>
1

>  <PUBCHEM_BOND_DEF_STEREO_COUNT>
0

>  <PUBCHEM_BOND_UDEF_STEREO_COUNT>
0

>  <PUBCHEM_ISOTOPIC_ATOM_COUNT>
0

>  <PUBCHEM_COMPONENT_COUNT>
1

>  <PUBCHEM_CACTVS_TAUTO_COUNT>
2

>  <PUBCHEM_COORDINATE_TYPE>
1
5
255

>  <PUBCHEM_BONDANNOTATIONS>
5  9  3

$$$$
