192490
 OpenBabel06101807152D

 48 50  0  0  0  0  0  0  0  0999 V2000
    6.0682    0.3246    0.0000 O   0  0  0  0  0  0  0  0  0  0  0  0
    7.8003    2.3246    0.0000 O   0  0  0  0  0  0  0  0  0  0  0  0
   10.3984    0.8246    0.0000 O   0  0  0  0  0  0  0  0  0  0  0  0
   10.3984   -1.1754    0.0000 O   0  0  0  0  0  0  0  0  0  0  0  0
    6.0682    3.3246    0.0000 O   0  0  0  0  0  0  0  0  0  0  0  0
    4.3198    3.3592    0.0000 O   0  0  0  0  0  0  0  0  0  0  0  0
    2.5381    2.3488    0.0000 O   0  0  0  0  0  0  0  0  0  0  0  0
    7.8003    0.3246    0.0000 C   0  0  0  0  0  0  0  0  0  0  0  0
    7.8003   -0.6754    0.0000 C   0  0  0  0  0  0  0  0  0  0  0  0
    6.9343    0.8246    0.0000 C   0  0  0  0  0  0  0  0  0  0  0  0
    6.9343   -1.1754    0.0000 C   0  0  0  0  0  0  0  0  0  0  0  0
    5.2022    1.8246    0.0000 C   0  0  0  0  0  0  0  0  0  0  0  0
    6.9343    1.8246    0.0000 C   0  0  0  0  0  0  0  0  0  0  0  0
    5.2022    0.8246    0.0000 C   0  0  0  0  0  0  0  0  0  0  0  0
    8.6663    0.8246    0.0000 C   0  0  0  0  0  0  0  0  0  0  0  0
    8.6663   -1.1754    0.0000 C   0  0  0  0  0  0  0  0  0  0  0  0
    6.0682    2.3246    0.0000 C   0  0  0  0  0  0  0  0  0  0  0  0
    9.5323    0.3246    0.0000 C   0  0  0  0  0  0  0  0  0  0  0  0
    9.5323   -0.6754    0.0000 C   0  0  0  0  0  0  0  0  0  0  0  0
    6.9343   -2.1754    0.0000 C   0  0  0  0  0  0  0  0  0  0  0  0
    4.3083    2.3593    0.0000 C   0  0  0  0  0  0  0  0  0  0  0  0
    4.3083    0.2899    0.0000 C   0  0  0  0  0  0  0  0  0  0  0  0
    3.4022    1.8454    0.0000 C   0  0  0  0  0  0  0  0  0  0  0  0
    6.0682   -2.6754    0.0000 C   0  0  0  0  0  0  0  0  0  0  0  0
    3.4022    0.8038    0.0000 C   0  0  0  0  0  0  0  0  0  0  0  0
    6.0682   -3.6754    0.0000 C   0  0  0  0  0  0  0  0  0  0  0  0
    5.2022   -2.1754    0.0000 C   0  0  0  0  0  0  0  0  0  0  0  0
    7.8003    3.3246    0.0000 C   0  0  0  0  0  0  0  0  0  0  0  0
    6.7222   -0.5928    0.0000 H   0  0  0  0  0  0  0  0  0  0  0  0
    6.3237   -1.2830    0.0000 H   0  0  0  0  0  0  0  0  0  0  0  0
    8.6663    1.4446    0.0000 H   0  0  0  0  0  0  0  0  0  0  0  0
    8.6663   -1.7954    0.0000 H   0  0  0  0  0  0  0  0  0  0  0  0
    7.4712   -2.4854    0.0000 H   0  0  0  0  0  0  0  0  0  0  0  0
    4.3154   -0.3300    0.0000 H   0  0  0  0  0  0  0  0  0  0  0  0
    2.8665    0.4917    0.0000 H   0  0  0  0  0  0  0  0  0  0  0  0
    5.4482   -3.6754    0.0000 H   0  0  0  0  0  0  0  0  0  0  0  0
    5.5122   -1.6385    0.0000 H   0  0  0  0  0  0  0  0  0  0  0  0
    4.6653   -1.8654    0.0000 H   0  0  0  0  0  0  0  0  0  0  0  0
    4.8922   -2.7123    0.0000 H   0  0  0  0  0  0  0  0  0  0  0  0
    6.0682   -4.2954    0.0000 H   0  0  0  0  0  0  0  0  0  0  0  0
    6.6882   -3.6754    0.0000 H   0  0  0  0  0  0  0  0  0  0  0  0
   10.9353    0.5146    0.0000 H   0  0  0  0  0  0  0  0  0  0  0  0
   10.3984   -1.7954    0.0000 H   0  0  0  0  0  0  0  0  0  0  0  0
    8.4203    3.3246    0.0000 H   0  0  0  0  0  0  0  0  0  0  0  0
    7.8003    3.9446    0.0000 H   0  0  0  0  0  0  0  0  0  0  0  0
    7.1803    3.3246    0.0000 H   0  0  0  0  0  0  0  0  0  0  0  0
    3.7865    3.6754    0.0000 H   0  0  0  0  0  0  0  0  0  0  0  0
    2.0000    2.0408    0.0000 H   0  0  0  0  0  0  0  0  0  0  0  0
  1 10  1  0  0  0  0
  1 14  1  0  0  0  0
  2 13  1  0  0  0  0
  2 28  1  0  0  0  0
  3 18  1  0  0  0  0
  3 42  1  0  0  0  0
  4 19  1  0  0  0  0
  4 43  1  0  0  0  0
  5 17  2  0  0  0  0
  6 21  1  0  0  0  0
  6 47  1  0  0  0  0
  7 23  1  0  0  0  0
  7 48  1  0  0  0  0
  8  9  1  0  0  0  0
  8 10  1  0  0  0  0
  8 15  2  0  0  0  0
  9 11  1  0  0  0  0
  9 16  2  0  0  0  0
 10 13  2  0  0  0  0
 11 20  1  0  0  0  0
 11 29  1  0  0  0  0
 11 30  1  0  0  0  0
 12 14  2  0  0  0  0
 12 17  1  0  0  0  0
 12 21  1  0  0  0  0
 13 17  1  0  0  0  0
 14 22  1  0  0  0  0
 15 18  1  0  0  0  0
 15 31  1  0  0  0  0
 16 19  1  0  0  0  0
 16 32  1  0  0  0  0
 18 19  2  0  0  0  0
 20 24  2  0  0  0  0
 20 33  1  0  0  0  0
 21 23  2  0  0  0  0
 22 25  2  0  0  0  0
 22 34  1  0  0  0  0
 23 25  1  0  0  0  0
 24 26  1  0  0  0  0
 24 27  1  0  0  0  0
 25 35  1  0  0  0  0
 26 36  1  0  0  0  0
 26 40  1  0  0  0  0
 26 41  1  0  0  0  0
 27 37  1  0  0  0  0
 27 38  1  0  0  0  0
 27 39  1  0  0  0  0
 28 44  1  0  0  0  0
 28 45  1  0  0  0  0
 28 46  1  0  0  0  0
M  END
>  <PUBCHEM_COMPOUND_CID>
192490

>  <PUBCHEM_COMPOUND_CANONICALIZED>
1

>  <PUBCHEM_CACTVS_COMPLEXITY>
651

>  <PUBCHEM_CACTVS_HBOND_ACCEPTOR>
7

>  <PUBCHEM_CACTVS_HBOND_DONOR>
4

>  <PUBCHEM_CACTVS_ROTATABLE_BOND>
4

>  <PUBCHEM_CACTVS_SUBSKEYS>
AAADceB4OAAAAAAAAAAAAAAAAAAAAAAAAAAwYIAAAAAAAACBQAAAGgAACAAADASAmAIyBoAABgCIAqBSAAICCAAkIAAIiAFGiMgNJzaGNR6CeWGl4BUJuQfK6LyOoQABCAAYQABCAAIQADCAAAAAAAAAAA==

>  <PUBCHEM_IUPAC_OPENEYE_NAME>
2-[4,5-dihydroxy-2-(3-methylbut-2-enyl)phenyl]-5,6-dihydroxy-3-methoxy-chromen-4-one

>  <PUBCHEM_IUPAC_CAS_NAME>
2-[4,5-dihydroxy-2-(3-methylbut-2-enyl)phenyl]-5,6-dihydroxy-3-methoxy-1-benzopyran-4-one

>  <PUBCHEM_IUPAC_NAME>
2-[4,5-dihydroxy-2-(3-methylbut-2-enyl)phenyl]-5,6-dihydroxy-3-methoxychromen-4-one

>  <PUBCHEM_IUPAC_SYSTEMATIC_NAME>
3-methoxy-2-[2-(3-methylbut-2-enyl)-4,5-bis(oxidanyl)phenyl]-5,6-bis(oxidanyl)chromen-4-one

>  <PUBCHEM_IUPAC_TRADITIONAL_NAME>
2-[4,5-dihydroxy-2-(3-methylbut-2-enyl)phenyl]-5,6-dihydroxy-3-methoxy-chromone

>  <PUBCHEM_IUPAC_INCHI>
InChI=1S/C21H20O7/c1-10(2)4-5-11-8-14(23)15(24)9-12(11)20-21(27-3)19(26)17-16(28-20)7-6-13(22)18(17)25/h4,6-9,22-25H,5H2,1-3H3

>  <PUBCHEM_IUPAC_INCHIKEY>
QSIXTSXIETZHGN-UHFFFAOYSA-N

>  <PUBCHEM_XLOGP3_AA>
4.4

>  <PUBCHEM_EXACT_MASS>
384.121

>  <PUBCHEM_MOLECULAR_FORMULA>
C21H20O7

>  <PUBCHEM_MOLECULAR_WEIGHT>
384.384

>  <PUBCHEM_OPENEYE_CAN_SMILES>
CC(=CCC1=CC(=C(C=C1C2=C(C(=O)C3=C(O2)C=CC(=C3O)O)OC)O)O)C

>  <PUBCHEM_OPENEYE_ISO_SMILES>
CC(=CCC1=CC(=C(C=C1C2=C(C(=O)C3=C(O2)C=CC(=C3O)O)OC)O)O)C

>  <PUBCHEM_CACTVS_TPSA>
116

>  <PUBCHEM_MONOISOTOPIC_WEIGHT>
384.121

>  <PUBCHEM_TOTAL_CHARGE>
0

>  <PUBCHEM_HEAVY_ATOM_COUNT>
28

>  <PUBCHEM_ATOM_DEF_STEREO_COUNT>
0

>  <PUBCHEM_ATOM_UDEF_STEREO_COUNT>
0

>  <PUBCHEM_BOND_DEF_STEREO_COUNT>
0

>  <PUBCHEM_BOND_UDEF_STEREO_COUNT>
0

>  <PUBCHEM_ISOTOPIC_ATOM_COUNT>
0

>  <PUBCHEM_COMPONENT_COUNT>
1

>  <PUBCHEM_CACTVS_TAUTO_COUNT>
506

>  <PUBCHEM_COORDINATE_TYPE>
1
5
255

>  <PUBCHEM_BONDANNOTATIONS>
1  10  8
1  14  8
10  13  8
12  14  8
12  17  8
12  21  8
13  17  8
14  22  8
15  18  8
16  19  8
18  19  8
21  23  8
22  25  8
23  25  8
8  15  8
8  9  8
9  16  8

$$$$
