193484
 OpenBabel06101807152D

 69 68  0  0  1  0  0  0  0  0999 V2000
   19.3205   -1.0950    0.0000 O   0  0  0  0  0  0  0  0  0  0  0  0
   21.0526   -0.0950    0.0000 O   0  0  0  0  0  0  0  0  0  0  0  0
   20.1865    1.4050    0.0000 O   0  0  0  0  0  0  0  0  0  0  0  0
   11.5263    0.4050    0.0000 C   0  0  0  0  0  0  0  0  0  0  0  0
   10.6603   -0.0950    0.0000 C   0  0  0  0  0  0  0  0  0  0  0  0
   12.3923   -0.0950    0.0000 C   0  0  0  0  0  0  0  0  0  0  0  0
    9.7942    0.4050    0.0000 C   0  0  0  0  0  0  0  0  0  0  0  0
   13.2583    0.4050    0.0000 C   0  0  0  0  0  0  0  0  0  0  0  0
    8.9282   -0.0950    0.0000 C   0  0  0  0  0  0  0  0  0  0  0  0
   14.1244   -0.0950    0.0000 C   0  0  0  0  0  0  0  0  0  0  0  0
    8.0622    0.4050    0.0000 C   0  0  0  0  0  0  0  0  0  0  0  0
    7.1962   -0.0950    0.0000 C   0  0  0  0  0  0  0  0  0  0  0  0
   14.9904    0.4050    0.0000 C   0  0  0  0  0  0  0  0  0  0  0  0
    6.3301    0.4050    0.0000 C   0  0  0  0  0  0  0  0  0  0  0  0
   15.8564   -0.0950    0.0000 C   0  0  0  0  0  0  0  0  0  0  0  0
    5.4641   -0.0950    0.0000 C   0  0  0  0  0  0  0  0  0  0  0  0
   16.7224    0.4050    0.0000 C   0  0  0  0  0  0  0  0  0  0  0  0
    4.5981    0.4050    0.0000 C   0  0  0  0  0  0  0  0  0  0  0  0
   17.5885   -0.0950    0.0000 C   0  0  0  0  0  0  0  0  0  0  0  0
    3.7320   -0.0950    0.0000 C   0  0  0  0  0  0  0  0  0  0  0  0
   18.4545    0.4050    0.0000 C   0  0  0  0  0  0  0  0  0  0  0  0
    2.8660    0.4050    0.0000 C   0  0  0  0  0  0  0  0  0  0  0  0
   19.3205   -0.0950    0.0000 C   0  0  3  0  0  0  0  0  0  0  0  0
    2.0000   -0.0950    0.0000 C   0  0  0  0  0  0  0  0  0  0  0  0
   20.1865    0.4050    0.0000 C   0  0  0  0  0  0  0  0  0  0  0  0
   11.9248    0.8799    0.0000 H   0  0  0  0  0  0  0  0  0  0  0  0
   11.1278    0.8799    0.0000 H   0  0  0  0  0  0  0  0  0  0  0  0
   10.2617   -0.5699    0.0000 H   0  0  0  0  0  0  0  0  0  0  0  0
   11.0588   -0.5699    0.0000 H   0  0  0  0  0  0  0  0  0  0  0  0
   11.9938   -0.5699    0.0000 H   0  0  0  0  0  0  0  0  0  0  0  0
   12.7908   -0.5699    0.0000 H   0  0  0  0  0  0  0  0  0  0  0  0
   10.1928    0.8799    0.0000 H   0  0  0  0  0  0  0  0  0  0  0  0
    9.3957    0.8799    0.0000 H   0  0  0  0  0  0  0  0  0  0  0  0
   13.6569    0.8799    0.0000 H   0  0  0  0  0  0  0  0  0  0  0  0
   12.8598    0.8799    0.0000 H   0  0  0  0  0  0  0  0  0  0  0  0
    8.5297   -0.5699    0.0000 H   0  0  0  0  0  0  0  0  0  0  0  0
    9.3267   -0.5699    0.0000 H   0  0  0  0  0  0  0  0  0  0  0  0
   13.7258   -0.5699    0.0000 H   0  0  0  0  0  0  0  0  0  0  0  0
   14.5229   -0.5699    0.0000 H   0  0  0  0  0  0  0  0  0  0  0  0
    8.4607    0.8799    0.0000 H   0  0  0  0  0  0  0  0  0  0  0  0
    7.6636    0.8799    0.0000 H   0  0  0  0  0  0  0  0  0  0  0  0
    6.7976   -0.5699    0.0000 H   0  0  0  0  0  0  0  0  0  0  0  0
    7.5947   -0.5699    0.0000 H   0  0  0  0  0  0  0  0  0  0  0  0
   15.3889    0.8799    0.0000 H   0  0  0  0  0  0  0  0  0  0  0  0
   14.5919    0.8799    0.0000 H   0  0  0  0  0  0  0  0  0  0  0  0
    6.7287    0.8799    0.0000 H   0  0  0  0  0  0  0  0  0  0  0  0
    5.9316    0.8799    0.0000 H   0  0  0  0  0  0  0  0  0  0  0  0
   15.4579   -0.5699    0.0000 H   0  0  0  0  0  0  0  0  0  0  0  0
   16.2549   -0.5699    0.0000 H   0  0  0  0  0  0  0  0  0  0  0  0
    5.0656   -0.5699    0.0000 H   0  0  0  0  0  0  0  0  0  0  0  0
    5.8626   -0.5699    0.0000 H   0  0  0  0  0  0  0  0  0  0  0  0
   17.1210    0.8799    0.0000 H   0  0  0  0  0  0  0  0  0  0  0  0
   16.3239    0.8799    0.0000 H   0  0  0  0  0  0  0  0  0  0  0  0
    4.9966    0.8799    0.0000 H   0  0  0  0  0  0  0  0  0  0  0  0
    4.1996    0.8799    0.0000 H   0  0  0  0  0  0  0  0  0  0  0  0
   17.1899   -0.5699    0.0000 H   0  0  0  0  0  0  0  0  0  0  0  0
   17.9870   -0.5699    0.0000 H   0  0  0  0  0  0  0  0  0  0  0  0
    3.3335   -0.5699    0.0000 H   0  0  0  0  0  0  0  0  0  0  0  0
    4.1306   -0.5699    0.0000 H   0  0  0  0  0  0  0  0  0  0  0  0
   18.8530    0.8799    0.0000 H   0  0  0  0  0  0  0  0  0  0  0  0
   18.0560    0.8799    0.0000 H   0  0  0  0  0  0  0  0  0  0  0  0
    3.2646    0.8799    0.0000 H   0  0  0  0  0  0  0  0  0  0  0  0
    2.4675    0.8799    0.0000 H   0  0  0  0  0  0  0  0  0  0  0  0
   20.0566   -0.5200    0.0000 H   0  0  0  0  0  0  0  0  0  0  0  0
    1.6900    0.4419    0.0000 H   0  0  0  0  0  0  0  0  0  0  0  0
    1.4631   -0.4050    0.0000 H   0  0  0  0  0  0  0  0  0  0  0  0
    2.3100   -0.6319    0.0000 H   0  0  0  0  0  0  0  0  0  0  0  0
   18.7836   -1.4050    0.0000 H   0  0  0  0  0  0  0  0  0  0  0  0
   21.5895    0.2150    0.0000 H   0  0  0  0  0  0  0  0  0  0  0  0
  1 23  1  0  0  0  0
  1 68  1  0  0  0  0
  2 25  1  0  0  0  0
  2 69  1  0  0  0  0
  3 25  2  0  0  0  0
  4  5  1  0  0  0  0
  4  6  1  0  0  0  0
  4 26  1  0  0  0  0
  4 27  1  0  0  0  0
  5  7  1  0  0  0  0
  5 28  1  0  0  0  0
  5 29  1  0  0  0  0
  6  8  1  0  0  0  0
  6 30  1  0  0  0  0
  6 31  1  0  0  0  0
  7  9  1  0  0  0  0
  7 32  1  0  0  0  0
  7 33  1  0  0  0  0
  8 10  1  0  0  0  0
  8 34  1  0  0  0  0
  8 35  1  0  0  0  0
  9 11  1  0  0  0  0
  9 36  1  0  0  0  0
  9 37  1  0  0  0  0
 10 13  1  0  0  0  0
 10 38  1  0  0  0  0
 10 39  1  0  0  0  0
 11 12  1  0  0  0  0
 11 40  1  0  0  0  0
 11 41  1  0  0  0  0
 12 14  1  0  0  0  0
 12 42  1  0  0  0  0
 12 43  1  0  0  0  0
 13 15  1  0  0  0  0
 13 44  1  0  0  0  0
 13 45  1  0  0  0  0
 14 16  1  0  0  0  0
 14 46  1  0  0  0  0
 14 47  1  0  0  0  0
 15 17  1  0  0  0  0
 15 48  1  0  0  0  0
 15 49  1  0  0  0  0
 16 18  1  0  0  0  0
 16 50  1  0  0  0  0
 16 51  1  0  0  0  0
 17 19  1  0  0  0  0
 17 52  1  0  0  0  0
 17 53  1  0  0  0  0
 18 20  1  0  0  0  0
 18 54  1  0  0  0  0
 18 55  1  0  0  0  0
 19 21  1  0  0  0  0
 19 56  1  0  0  0  0
 19 57  1  0  0  0  0
 20 22  1  0  0  0  0
 20 58  1  0  0  0  0
 20 59  1  0  0  0  0
 21 23  1  0  0  0  0
 21 60  1  0  0  0  0
 21 61  1  0  0  0  0
 22 24  1  0  0  0  0
 22 62  1  0  0  0  0
 22 63  1  0  0  0  0
 23 25  1  0  0  0  0
 23 64  1  0  0  0  0
 24 65  1  0  0  0  0
 24 66  1  0  0  0  0
 24 67  1  0  0  0  0
M  END
>  <PUBCHEM_COMPOUND_CID>
193484

>  <PUBCHEM_COMPOUND_CANONICALIZED>
1

>  <PUBCHEM_CACTVS_COMPLEXITY>
278

>  <PUBCHEM_CACTVS_HBOND_ACCEPTOR>
3

>  <PUBCHEM_CACTVS_HBOND_DONOR>
2

>  <PUBCHEM_CACTVS_ROTATABLE_BOND>
20

>  <PUBCHEM_CACTVS_SUBSKEYS>
AAADcfB4MAAAAAAAAAAAAAAAAAAAAAAAAAAAAAAAAAAAAAAAAAAAGgAACAAACBSggAICCAAAAgAIAACQCAIAAAAAAAAAAAFAAAABEBIAAAAAQAAEAAABAAGIyKCAAAAAAAAAAAAAAAAAAAAAAAAAAAAAAA==

>  <PUBCHEM_IUPAC_OPENEYE_NAME>
2-hydroxydocosanoic acid

>  <PUBCHEM_IUPAC_CAS_NAME>
2-hydroxydocosanoic acid

>  <PUBCHEM_IUPAC_NAME>
2-hydroxydocosanoic acid

>  <PUBCHEM_IUPAC_SYSTEMATIC_NAME>
2-oxidanyldocosanoic acid

>  <PUBCHEM_IUPAC_TRADITIONAL_NAME>
2-hydroxybehenic acid

>  <PUBCHEM_IUPAC_INCHI>
InChI=1S/C22H44O3/c1-2-3-4-5-6-7-8-9-10-11-12-13-14-15-16-17-18-19-20-21(23)22(24)25/h21,23H,2-20H2,1H3,(H,24,25)

>  <PUBCHEM_IUPAC_INCHIKEY>
RPGJJWLCCOPDAZ-UHFFFAOYSA-N

>  <PUBCHEM_XLOGP3_AA>
9.6

>  <PUBCHEM_EXACT_MASS>
356.329

>  <PUBCHEM_MOLECULAR_FORMULA>
C22H44O3

>  <PUBCHEM_MOLECULAR_WEIGHT>
356.591

>  <PUBCHEM_OPENEYE_CAN_SMILES>
CCCCCCCCCCCCCCCCCCCCC(C(=O)O)O

>  <PUBCHEM_OPENEYE_ISO_SMILES>
CCCCCCCCCCCCCCCCCCCCC(C(=O)O)O

>  <PUBCHEM_CACTVS_TPSA>
57.5

>  <PUBCHEM_MONOISOTOPIC_WEIGHT>
356.329

>  <PUBCHEM_TOTAL_CHARGE>
0

>  <PUBCHEM_HEAVY_ATOM_COUNT>
25

>  <PUBCHEM_ATOM_DEF_STEREO_COUNT>
0

>  <PUBCHEM_ATOM_UDEF_STEREO_COUNT>
1

>  <PUBCHEM_BOND_DEF_STEREO_COUNT>
0

>  <PUBCHEM_BOND_UDEF_STEREO_COUNT>
0

>  <PUBCHEM_ISOTOPIC_ATOM_COUNT>
0

>  <PUBCHEM_COMPONENT_COUNT>
1

>  <PUBCHEM_CACTVS_TAUTO_COUNT>
1

>  <PUBCHEM_COORDINATE_TYPE>
1
5
255

>  <PUBCHEM_BONDANNOTATIONS>
23  64  3

$$$$
