19361066
 OpenBabel06101807152D

 19 18  0  0  1  0  0  0  0  0999 V2000
    6.8671    0.5000    0.0000 O   0  5  0  0  0  0  0  0  0  0  0  0
    6.0010    2.0000    0.0000 O   0  0  0  0  0  0  0  0  0  0  0  0
    6.0010   -2.0000    0.0000 O   0  5  0  0  0  0  0  0  0  0  0  0
    6.8671   -0.5000    0.0000 O   0  0  0  0  0  0  0  0  0  0  0  0
    4.2690    1.0000    0.0000 N   0  0  0  0  0  0  0  0  0  0  0  0
    2.5369    1.0000    0.0000 N   0  0  0  0  0  0  0  0  0  0  0  0
    3.4030   -0.5000    0.0000 N   0  0  0  0  0  0  0  0  0  0  0  0
    5.1350    0.5000    0.0000 C   0  0  3  0  0  0  0  0  0  0  0  0
    5.1350   -0.5000    0.0000 C   0  0  0  0  0  0  0  0  0  0  0  0
    6.0010    1.0000    0.0000 C   0  0  0  0  0  0  0  0  0  0  0  0
    6.0010   -1.0000    0.0000 C   0  0  0  0  0  0  0  0  0  0  0  0
    3.4030    0.5000    0.0000 C   0  0  0  0  0  0  0  0  0  0  0  0
    5.1350    1.1200    0.0000 H   0  0  0  0  0  0  0  0  0  0  0  0
    4.5244   -0.3923    0.0000 H   0  0  0  0  0  0  0  0  0  0  0  0
    4.9230   -1.0826    0.0000 H   0  0  0  0  0  0  0  0  0  0  0  0
    2.0000    0.6900    0.0000 H   0  0  0  0  0  0  0  0  0  0  0  0
    2.5369    1.6200    0.0000 H   0  0  0  0  0  0  0  0  0  0  0  0
    2.8660   -0.8100    0.0000 H   0  0  0  0  0  0  0  0  0  0  0  0
    3.9399   -0.8100    0.0000 H   0  0  0  0  0  0  0  0  0  0  0  0
  1 10  1  0  0  0  0
  2 10  2  0  0  0  0
  3 11  1  0  0  0  0
  4 11  2  0  0  0  0
  5  8  1  0  0  0  0
  5 12  2  0  0  0  0
  6 12  1  0  0  0  0
  6 16  1  0  0  0  0
  6 17  1  0  0  0  0
  7 12  1  0  0  0  0
  7 18  1  0  0  0  0
  7 19  1  0  0  0  0
  8  9  1  0  0  0  0
  8 10  1  0  0  0  0
  8 13  1  0  0  0  0
  9 11  1  0  0  0  0
  9 14  1  0  0  0  0
  9 15  1  0  0  0  0
M  CHG  2   1  -1   3  -1
M  END
>  <PUBCHEM_COMPOUND_CID>
19361066

>  <PUBCHEM_COMPOUND_CANONICALIZED>
1

>  <PUBCHEM_CACTVS_COMPLEXITY>
210

>  <PUBCHEM_CACTVS_HBOND_ACCEPTOR>
5

>  <PUBCHEM_CACTVS_HBOND_DONOR>
2

>  <PUBCHEM_CACTVS_ROTATABLE_BOND>
2

>  <PUBCHEM_CACTVS_SUBSKEYS>
AAADcYBjOAAAAAAAAAAAAAAAAAAAAAAAAAAAAAAAAAAAAAAAAAAAHgAQAAAACCjBgAQBCAJAAAAoAACQLAAAAAEAAAAAAAGAAAACABgAAAAAAAAGAAAAAABDAAAAAAAAAAAAAAAAAAAAAAAAAAAAAAAAAA==

>  <PUBCHEM_IUPAC_OPENEYE_NAME>
2-guanidinobutanedioate

>  <PUBCHEM_IUPAC_CAS_NAME>
2-(diaminomethylideneamino)butanedioate

>  <PUBCHEM_IUPAC_NAME>
2-(diaminomethylideneamino)butanedioate

>  <PUBCHEM_IUPAC_SYSTEMATIC_NAME>
2-[bis(azanyl)methylideneamino]butanedioate

>  <PUBCHEM_IUPAC_TRADITIONAL_NAME>
2-guanidinosuccinate

>  <PUBCHEM_IUPAC_INCHI>
InChI=1S/C5H9N3O4/c6-5(7)8-2(4(11)12)1-3(9)10/h2H,1H2,(H,9,10)(H,11,12)(H4,6,7,8)/p-2

>  <PUBCHEM_IUPAC_INCHIKEY>
VVHOUVWJCQOYGG-UHFFFAOYSA-L

>  <PUBCHEM_XLOGP3_AA>
-0.7

>  <PUBCHEM_EXACT_MASS>
173.044

>  <PUBCHEM_MOLECULAR_FORMULA>
C5H7N3O4-2

>  <PUBCHEM_MOLECULAR_WEIGHT>
173.128

>  <PUBCHEM_OPENEYE_CAN_SMILES>
C(C(C(=O)[O-])N=C(N)N)C(=O)[O-]

>  <PUBCHEM_OPENEYE_ISO_SMILES>
C(C(C(=O)[O-])N=C(N)N)C(=O)[O-]

>  <PUBCHEM_CACTVS_TPSA>
145

>  <PUBCHEM_MONOISOTOPIC_WEIGHT>
173.044

>  <PUBCHEM_TOTAL_CHARGE>
-2

>  <PUBCHEM_HEAVY_ATOM_COUNT>
12

>  <PUBCHEM_ATOM_DEF_STEREO_COUNT>
0

>  <PUBCHEM_ATOM_UDEF_STEREO_COUNT>
1

>  <PUBCHEM_BOND_DEF_STEREO_COUNT>
0

>  <PUBCHEM_BOND_UDEF_STEREO_COUNT>
0

>  <PUBCHEM_ISOTOPIC_ATOM_COUNT>
0

>  <PUBCHEM_COMPONENT_COUNT>
1

>  <PUBCHEM_CACTVS_TAUTO_COUNT>
2

>  <PUBCHEM_COORDINATE_TYPE>
1
5
255

>  <PUBCHEM_BONDANNOTATIONS>
8  9  3

$$$$
