19427643
 OpenBabel06101807152D

 45 48  0  0  0  0  0  0  0  0999 V2000
    1.7320    6.4280    0.0000 O   0  0  0  0  0  0  0  0  0  0  0  0
    8.4760    3.6200    0.0000 O   0  0  0  0  0  0  0  0  0  0  0  0
    8.4760    9.2360    0.0000 O   0  0  0  0  0  0  0  0  0  0  0  0
    0.0000    3.4280    0.0000 O   0  0  0  0  0  0  0  0  0  0  0  0
    6.7440    0.6200    0.0000 O   0  0  0  0  0  0  0  0  0  0  0  0
    6.7440    6.2360    0.0000 O   0  0  0  0  0  0  0  0  0  0  0  0
    3.5443    5.2328    0.0000 N   0  0  0  0  0  0  0  0  0  0  0  0
   10.2883    2.4247    0.0000 N   0  0  0  0  0  0  0  0  0  0  0  0
   10.2883    8.0408    0.0000 N   0  0  0  0  0  0  0  0  0  0  0  0
    1.7320    3.4280    0.0000 N   0  0  0  0  0  0  0  0  0  0  0  0
    8.4760    0.6200    0.0000 N   0  0  0  0  0  0  0  0  0  0  0  0
    8.4760    6.2360    0.0000 N   0  0  0  0  0  0  0  0  0  0  0  0
    0.8660    4.9280    0.0000 N   0  0  0  0  0  0  0  0  0  0  0  0
    7.6100    2.1200    0.0000 N   0  0  0  0  0  0  0  0  0  0  0  0
    7.6100    7.7360    0.0000 N   0  0  0  0  0  0  0  0  0  0  0  0
   10.2883    6.4313    0.0000 N   0  0  0  0  0  0  0  0  0  0  0  0
   10.2883    0.8153    0.0000 N   0  0  0  0  0  0  0  0  0  0  0  0
    3.5443    3.6233    0.0000 N   0  0  0  0  0  0  0  0  0  0  0  0
    2.5981    4.9280    0.0000 C   0  0  0  0  0  0  0  0  0  0  0  0
    9.3420    2.1200    0.0000 C   0  0  0  0  0  0  0  0  0  0  0  0
    9.3420    7.7360    0.0000 C   0  0  0  0  0  0  0  0  0  0  0  0
    2.5981    3.9280    0.0000 C   0  0  0  0  0  0  0  0  0  0  0  0
    9.3420    1.1200    0.0000 C   0  0  0  0  0  0  0  0  0  0  0  0
    9.3420    6.7360    0.0000 C   0  0  0  0  0  0  0  0  0  0  0  0
    1.7320    5.4280    0.0000 C   0  0  0  0  0  0  0  0  0  0  0  0
    8.4760    2.6200    0.0000 C   0  0  0  0  0  0  0  0  0  0  0  0
    8.4760    8.2360    0.0000 C   0  0  0  0  0  0  0  0  0  0  0  0
    0.8660    3.9280    0.0000 C   0  0  0  0  0  0  0  0  0  0  0  0
    7.6100    1.1200    0.0000 C   0  0  0  0  0  0  0  0  0  0  0  0
    7.6100    6.7360    0.0000 C   0  0  0  0  0  0  0  0  0  0  0  0
    4.1279    4.4280    0.0000 C   0  0  0  0  0  0  0  0  0  0  0  0
   10.8719    1.6200    0.0000 C   0  0  0  0  0  0  0  0  0  0  0  0
   10.8719    7.2360    0.0000 C   0  0  0  0  0  0  0  0  0  0  0  0
   10.4809    8.6301    0.0000 H   0  0  0  0  0  0  0  0  0  0  0  0
   10.4809    3.0140    0.0000 H   0  0  0  0  0  0  0  0  0  0  0  0
    3.7369    5.8221    0.0000 H   0  0  0  0  0  0  0  0  0  0  0  0
    8.4760    5.6161    0.0000 H   0  0  0  0  0  0  0  0  0  0  0  0
    8.4760    0.0000    0.0000 H   0  0  0  0  0  0  0  0  0  0  0  0
    1.7320    2.8080    0.0000 H   0  0  0  0  0  0  0  0  0  0  0  0
    7.0730    8.0460    0.0000 H   0  0  0  0  0  0  0  0  0  0  0  0
    7.0730    2.4300    0.0000 H   0  0  0  0  0  0  0  0  0  0  0  0
    0.3291    5.2380    0.0000 H   0  0  0  0  0  0  0  0  0  0  0  0
   11.4919    7.2360    0.0000 H   0  0  0  0  0  0  0  0  0  0  0  0
   11.4919    1.6200    0.0000 H   0  0  0  0  0  0  0  0  0  0  0  0
    4.7479    4.4280    0.0000 H   0  0  0  0  0  0  0  0  0  0  0  0
  1 25  2  0  0  0  0
  2 26  2  0  0  0  0
  3 27  2  0  0  0  0
  4 28  2  0  0  0  0
  5 29  2  0  0  0  0
  6 30  2  0  0  0  0
  7 19  1  0  0  0  0
  7 31  1  0  0  0  0
  7 36  1  0  0  0  0
  8 20  1  0  0  0  0
  8 32  1  0  0  0  0
  8 35  1  0  0  0  0
  9 21  1  0  0  0  0
  9 33  1  0  0  0  0
  9 34  1  0  0  0  0
 10 22  1  0  0  0  0
 10 28  1  0  0  0  0
 10 39  1  0  0  0  0
 11 23  1  0  0  0  0
 11 29  1  0  0  0  0
 11 38  1  0  0  0  0
 12 24  1  0  0  0  0
 12 30  1  0  0  0  0
 12 37  1  0  0  0  0
 13 25  1  0  0  0  0
 13 28  1  0  0  0  0
 13 42  1  0  0  0  0
 14 26  1  0  0  0  0
 14 29  1  0  0  0  0
 14 41  1  0  0  0  0
 15 27  1  0  0  0  0
 15 30  1  0  0  0  0
 15 40  1  0  0  0  0
 16 24  1  0  0  0  0
 16 33  2  0  0  0  0
 17 23  1  0  0  0  0
 17 32  2  0  0  0  0
 18 22  1  0  0  0  0
 18 31  2  0  0  0  0
 19 22  2  0  0  0  0
 19 25  1  0  0  0  0
 20 23  2  0  0  0  0
 20 26  1  0  0  0  0
 21 24  2  0  0  0  0
 21 27  1  0  0  0  0
 31 45  1  0  0  0  0
 32 44  1  0  0  0  0
 33 43  1  0  0  0  0
M  END
>  <PUBCHEM_COMPOUND_CID>
19427643

>  <PUBCHEM_COMPOUND_CANONICALIZED>
1

>  <PUBCHEM_CACTVS_COMPLEXITY>
217

>  <PUBCHEM_CACTVS_HBOND_ACCEPTOR>
9

>  <PUBCHEM_CACTVS_HBOND_DONOR>
9

>  <PUBCHEM_CACTVS_ROTATABLE_BOND>
0

>  <PUBCHEM_CACTVS_SUBSKEYS>
AAADccBz+AAAAAAAAAAAAAAAAAAAAWLFgAAsWLAAAAAAAFgB+AAAHgAQAAAACAgBlgQFsBbJkACoAQdxdACAgC2XEKABUYGoVECASAhASCAUAIgIBSJAAGAAAAAAAAAAAAAAAAAAAAAAAAAAAAAAAAAAAA==

>  <PUBCHEM_IUPAC_OPENEYE_NAME>
3,7-dihydropurine-2,6-dione

>  <PUBCHEM_IUPAC_CAS_NAME>
3,7-dihydropurine-2,6-dione

>  <PUBCHEM_IUPAC_NAME>
3,7-dihydropurine-2,6-dione

>  <PUBCHEM_IUPAC_SYSTEMATIC_NAME>
3,7-dihydropurine-2,6-dione

>  <PUBCHEM_IUPAC_TRADITIONAL_NAME>
xanthine

>  <PUBCHEM_IUPAC_INCHI>
InChI=1S/3C5H4N4O2/c3*10-4-2-3(7-1-6-2)8-5(11)9-4/h3*1H,(H3,6,7,8,9,10,11)

>  <PUBCHEM_IUPAC_INCHIKEY>
KPILEYHQAXBFOG-UHFFFAOYSA-N

>  <PUBCHEM_EXACT_MASS>
456.1

>  <PUBCHEM_MOLECULAR_FORMULA>
C15H12N12O6

>  <PUBCHEM_MOLECULAR_WEIGHT>
456.339

>  <PUBCHEM_OPENEYE_CAN_SMILES>
C1=NC2=C(N1)C(=O)NC(=O)N2.C1=NC2=C(N1)C(=O)NC(=O)N2.C1=NC2=C(N1)C(=O)NC(=O)N2

>  <PUBCHEM_OPENEYE_ISO_SMILES>
C1=NC2=C(N1)C(=O)NC(=O)N2.C1=NC2=C(N1)C(=O)NC(=O)N2.C1=NC2=C(N1)C(=O)NC(=O)N2

>  <PUBCHEM_CACTVS_TPSA>
261

>  <PUBCHEM_MONOISOTOPIC_WEIGHT>
456.1

>  <PUBCHEM_TOTAL_CHARGE>
0

>  <PUBCHEM_HEAVY_ATOM_COUNT>
33

>  <PUBCHEM_ATOM_DEF_STEREO_COUNT>
0

>  <PUBCHEM_ATOM_UDEF_STEREO_COUNT>
0

>  <PUBCHEM_BOND_DEF_STEREO_COUNT>
0

>  <PUBCHEM_BOND_UDEF_STEREO_COUNT>
0

>  <PUBCHEM_ISOTOPIC_ATOM_COUNT>
0

>  <PUBCHEM_COMPONENT_COUNT>
3

>  <PUBCHEM_CACTVS_TAUTO_COUNT>
1001

>  <PUBCHEM_COORDINATE_TYPE>
1
5
255

>  <PUBCHEM_BONDANNOTATIONS>
10  22  8
10  28  8
11  23  8
11  29  8
12  24  8
12  30  8
13  25  8
13  28  8
14  26  8
14  29  8
15  27  8
15  30  8
16  24  8
16  33  8
17  23  8
17  32  8
18  22  8
18  31  8
19  22  8
19  25  8
20  23  8
20  26  8
21  24  8
21  27  8
7  19  8
7  31  8
8  20  8
8  32  8
9  21  8
9  33  8

$$$$
