19603
 OpenBabel06101807152D

 30 30  0  0  0  0  0  0  0  0999 V2000
    2.8090    1.0219    0.0000 O   0  0  0  0  0  0  0  0  0  0  0  0
    5.7281    0.0135    0.0000 C   0  0  0  0  0  0  0  0  0  0  0  0
    5.9360   -0.9646    0.0000 C   0  0  0  0  0  0  0  0  0  0  0  0
    4.7770    0.3226    0.0000 C   0  0  0  0  0  0  0  0  0  0  0  0
    6.8870   -1.2736    0.0000 C   0  0  0  0  0  0  0  0  0  0  0  0
    4.5691    1.3007    0.0000 C   0  0  0  0  0  0  0  0  0  0  0  0
    7.0949   -2.2518    0.0000 C   0  0  0  0  0  0  0  0  0  0  0  0
    3.6180    1.6097    0.0000 C   0  0  0  0  0  0  0  0  0  0  0  0
    8.0460   -2.5608    0.0000 C   0  0  0  0  0  0  0  0  0  0  0  0
    3.3090    2.5608    0.0000 C   0  0  0  0  0  0  0  0  0  0  0  0
    2.3090    2.5608    0.0000 C   0  0  0  0  0  0  0  0  0  0  0  0
    2.0000    1.6097    0.0000 C   0  0  0  0  0  0  0  0  0  0  0  0
    6.3477    0.0352    0.0000 H   0  0  0  0  0  0  0  0  0  0  0  0
    5.8144    0.6275    0.0000 H   0  0  0  0  0  0  0  0  0  0  0  0
    5.3164   -0.9862    0.0000 H   0  0  0  0  0  0  0  0  0  0  0  0
    5.8497   -1.5786    0.0000 H   0  0  0  0  0  0  0  0  0  0  0  0
    4.1574    0.3009    0.0000 H   0  0  0  0  0  0  0  0  0  0  0  0
    4.6907   -0.2914    0.0000 H   0  0  0  0  0  0  0  0  0  0  0  0
    7.5066   -1.2520    0.0000 H   0  0  0  0  0  0  0  0  0  0  0  0
    6.9733   -0.6597    0.0000 H   0  0  0  0  0  0  0  0  0  0  0  0
    5.1887    1.3224    0.0000 H   0  0  0  0  0  0  0  0  0  0  0  0
    4.6554    1.9147    0.0000 H   0  0  0  0  0  0  0  0  0  0  0  0
    6.4753   -2.2734    0.0000 H   0  0  0  0  0  0  0  0  0  0  0  0
    7.0086   -2.8657    0.0000 H   0  0  0  0  0  0  0  0  0  0  0  0
    7.8544   -3.1504    0.0000 H   0  0  0  0  0  0  0  0  0  0  0  0
    8.6356   -2.7524    0.0000 H   0  0  0  0  0  0  0  0  0  0  0  0
    8.2376   -1.9711    0.0000 H   0  0  0  0  0  0  0  0  0  0  0  0
    3.6734    3.0624    0.0000 H   0  0  0  0  0  0  0  0  0  0  0  0
    1.9446    3.0624    0.0000 H   0  0  0  0  0  0  0  0  0  0  0  0
    1.4103    1.4181    0.0000 H   0  0  0  0  0  0  0  0  0  0  0  0
  1  8  1  0  0  0  0
  1 12  1  0  0  0  0
  2  3  1  0  0  0  0
  2  4  1  0  0  0  0
  2 13  1  0  0  0  0
  2 14  1  0  0  0  0
  3  5  1  0  0  0  0
  3 15  1  0  0  0  0
  3 16  1  0  0  0  0
  4  6  1  0  0  0  0
  4 17  1  0  0  0  0
  4 18  1  0  0  0  0
  5  7  1  0  0  0  0
  5 19  1  0  0  0  0
  5 20  1  0  0  0  0
  6  8  1  0  0  0  0
  6 21  1  0  0  0  0
  6 22  1  0  0  0  0
  7  9  1  0  0  0  0
  7 23  1  0  0  0  0
  7 24  1  0  0  0  0
  8 10  2  0  0  0  0
  9 25  1  0  0  0  0
  9 26  1  0  0  0  0
  9 27  1  0  0  0  0
 10 11  1  0  0  0  0
 10 28  1  0  0  0  0
 11 12  2  0  0  0  0
 11 29  1  0  0  0  0
 12 30  1  0  0  0  0
M  END
>  <PUBCHEM_COMPOUND_CID>
19603

>  <PUBCHEM_COMPOUND_CANONICALIZED>
1

>  <PUBCHEM_CACTVS_COMPLEXITY>
101

>  <PUBCHEM_CACTVS_HBOND_ACCEPTOR>
1

>  <PUBCHEM_CACTVS_HBOND_DONOR>
0

>  <PUBCHEM_CACTVS_ROTATABLE_BOND>
6

>  <PUBCHEM_CACTVS_SUBSKEYS>
AAADceBwIAAAAAAAAAAAAAAAAAAAASAAAAAAAAAAAAAAAAABgAAAGgAAAAAACASgkAIyBIAABECIAKhSgAACCAAkIAAIiAEGCMgMJjKENRqCGSCkwBEIqYeIyKCAAAAAAAAAAAAAAAAAAAAAAAAAAAAAAA==

>  <PUBCHEM_IUPAC_OPENEYE_NAME>
2-heptylfuran

>  <PUBCHEM_IUPAC_CAS_NAME>
2-heptylfuran

>  <PUBCHEM_IUPAC_NAME>
2-heptylfuran

>  <PUBCHEM_IUPAC_SYSTEMATIC_NAME>
2-heptylfuran

>  <PUBCHEM_IUPAC_TRADITIONAL_NAME>
2-heptylfuran

>  <PUBCHEM_IUPAC_INCHI>
InChI=1S/C11H18O/c1-2-3-4-5-6-8-11-9-7-10-12-11/h7,9-10H,2-6,8H2,1H3

>  <PUBCHEM_IUPAC_INCHIKEY>
BHTUFJXTYNLISA-UHFFFAOYSA-N

>  <PUBCHEM_XLOGP3>
4.7

>  <PUBCHEM_EXACT_MASS>
166.136

>  <PUBCHEM_MOLECULAR_FORMULA>
C11H18O

>  <PUBCHEM_MOLECULAR_WEIGHT>
166.264

>  <PUBCHEM_OPENEYE_CAN_SMILES>
CCCCCCCC1=CC=CO1

>  <PUBCHEM_OPENEYE_ISO_SMILES>
CCCCCCCC1=CC=CO1

>  <PUBCHEM_CACTVS_TPSA>
13.1

>  <PUBCHEM_MONOISOTOPIC_WEIGHT>
166.136

>  <PUBCHEM_TOTAL_CHARGE>
0

>  <PUBCHEM_HEAVY_ATOM_COUNT>
12

>  <PUBCHEM_ATOM_DEF_STEREO_COUNT>
0

>  <PUBCHEM_ATOM_UDEF_STEREO_COUNT>
0

>  <PUBCHEM_BOND_DEF_STEREO_COUNT>
0

>  <PUBCHEM_BOND_UDEF_STEREO_COUNT>
0

>  <PUBCHEM_ISOTOPIC_ATOM_COUNT>
0

>  <PUBCHEM_COMPONENT_COUNT>
1

>  <PUBCHEM_CACTVS_TAUTO_COUNT>
1

>  <PUBCHEM_COORDINATE_TYPE>
1
5
255

>  <PUBCHEM_BONDANNOTATIONS>
1  12  8
1  8  8
10  11  8
11  12  8
8  10  8

$$$$
