19660
 OpenBabel06101807152D

  4  3  0  0  0  0  0  0  0  0999 V2000
    3.7320    0.7500    0.0000 O   0  5  0  0  0  0  0  0  0  0  0  0
    2.0000    0.7500    0.0000 O   0  5  0  0  0  0  0  0  0  0  0  0
    2.8660   -0.7500    0.0000 O   0  0  0  0  0  0  0  0  0  0  0  0
    2.8660    0.2500    0.0000 C   0  0  0  0  0  0  0  0  0  0  0  0
  1  4  1  0  0  0  0
  2  4  1  0  0  0  0
  3  4  2  0  0  0  0
M  CHG  2   1  -1   2  -1
M  END
>  <PUBCHEM_COMPOUND_CID>
19660

>  <PUBCHEM_COMPOUND_CANONICALIZED>
1

>  <PUBCHEM_CACTVS_COMPLEXITY>
18.8

>  <PUBCHEM_CACTVS_HBOND_ACCEPTOR>
3

>  <PUBCHEM_CACTVS_HBOND_DONOR>
0

>  <PUBCHEM_CACTVS_ROTATABLE_BOND>
0

>  <PUBCHEM_CACTVS_SUBSKEYS>
AAADcQAAMAAAAAAAAAAAAAAAAAAAAAAAAAAAAAAAAAAAAAAAAAAAAgAAAAAAAAAAAAAACAAAAAAIAAAACAAAAAAAAAAAAAAAAAAAAAAAAAAAAAAAAAAAAAAAAAAAAAAAAAAAAAAAAAAAAAAAAAAAAAAAAA==

>  <PUBCHEM_IUPAC_OPENEYE_NAME>
carbonate

>  <PUBCHEM_IUPAC_CAS_NAME>
carbonate

>  <PUBCHEM_IUPAC_NAME>
carbonate

>  <PUBCHEM_IUPAC_SYSTEMATIC_NAME>
carbonate

>  <PUBCHEM_IUPAC_TRADITIONAL_NAME>
carbonate

>  <PUBCHEM_IUPAC_INCHI>
InChI=1S/CH2O3/c2-1(3)4/h(H2,2,3,4)/p-2

>  <PUBCHEM_IUPAC_INCHIKEY>
BVKZGUZCCUSVTD-UHFFFAOYSA-L

>  <PUBCHEM_XLOGP3_AA>
1.2

>  <PUBCHEM_EXACT_MASS>
59.985

>  <PUBCHEM_MOLECULAR_FORMULA>
CO3-2

>  <PUBCHEM_MOLECULAR_WEIGHT>
60.008

>  <PUBCHEM_OPENEYE_CAN_SMILES>
C(=O)([O-])[O-]

>  <PUBCHEM_OPENEYE_ISO_SMILES>
C(=O)([O-])[O-]

>  <PUBCHEM_CACTVS_TPSA>
63.2

>  <PUBCHEM_MONOISOTOPIC_WEIGHT>
59.985

>  <PUBCHEM_TOTAL_CHARGE>
-2

>  <PUBCHEM_HEAVY_ATOM_COUNT>
4

>  <PUBCHEM_ATOM_DEF_STEREO_COUNT>
0

>  <PUBCHEM_ATOM_UDEF_STEREO_COUNT>
0

>  <PUBCHEM_BOND_DEF_STEREO_COUNT>
0

>  <PUBCHEM_BOND_UDEF_STEREO_COUNT>
0

>  <PUBCHEM_ISOTOPIC_ATOM_COUNT>
0

>  <PUBCHEM_COMPONENT_COUNT>
1

>  <PUBCHEM_CACTVS_TAUTO_COUNT>
1

>  <PUBCHEM_COORDINATE_TYPE>
1
5
255

$$$$
