196980
 OpenBabel06101807152D

 28 30  0  0  0  0  0  0  0  0999 V2000
    8.2103   -1.5374    0.0000 O   0  0  0  0  0  0  0  0  0  0  0  0
    6.3981    1.2673    0.0000 O   0  0  0  0  0  0  0  0  0  0  0  0
    2.8680   -1.7568    0.0000 O   0  0  0  0  0  0  0  0  0  0  0  0
    6.3981   -1.7327    0.0000 N   0  0  0  0  0  0  0  0  0  0  0  0
    5.5320   -0.2327    0.0000 C   0  0  0  0  0  0  0  0  0  0  0  0
    6.3981    0.2673    0.0000 C   0  0  0  0  0  0  0  0  0  0  0  0
    7.2641   -0.2327    0.0000 C   0  0  0  0  0  0  0  0  0  0  0  0
    5.5320   -1.2327    0.0000 C   0  0  0  0  0  0  0  0  0  0  0  0
    7.2641   -1.2327    0.0000 C   0  0  0  0  0  0  0  0  0  0  0  0
    4.6381    0.3020    0.0000 C   0  0  0  0  0  0  0  0  0  0  0  0
    4.6381   -1.7673    0.0000 C   0  0  0  0  0  0  0  0  0  0  0  0
    8.2103    0.0721    0.0000 C   0  0  0  0  0  0  0  0  0  0  0  0
    3.7320   -1.2535    0.0000 C   0  0  0  0  0  0  0  0  0  0  0  0
    3.7320   -0.2119    0.0000 C   0  0  0  0  0  0  0  0  0  0  0  0
    8.7939   -0.7327    0.0000 C   0  0  0  0  0  0  0  0  0  0  0  0
    7.2641    1.7673    0.0000 C   0  0  0  0  0  0  0  0  0  0  0  0
    2.0000   -1.2602    0.0000 C   0  0  0  0  0  0  0  0  0  0  0  0
    4.6453    0.9220    0.0000 H   0  0  0  0  0  0  0  0  0  0  0  0
    4.6453   -2.3873    0.0000 H   0  0  0  0  0  0  0  0  0  0  0  0
    8.4029    0.6614    0.0000 H   0  0  0  0  0  0  0  0  0  0  0  0
    3.1963    0.1002    0.0000 H   0  0  0  0  0  0  0  0  0  0  0  0
    9.4139   -0.7327    0.0000 H   0  0  0  0  0  0  0  0  0  0  0  0
    7.5741    1.2304    0.0000 H   0  0  0  0  0  0  0  0  0  0  0  0
    7.8010    2.0773    0.0000 H   0  0  0  0  0  0  0  0  0  0  0  0
    6.9541    2.3043    0.0000 H   0  0  0  0  0  0  0  0  0  0  0  0
    2.3079   -0.7220    0.0000 H   0  0  0  0  0  0  0  0  0  0  0  0
    1.4619   -0.9522    0.0000 H   0  0  0  0  0  0  0  0  0  0  0  0
    1.6921   -1.7983    0.0000 H   0  0  0  0  0  0  0  0  0  0  0  0
  1  9  1  0  0  0  0
  1 15  1  0  0  0  0
  2  6  1  0  0  0  0
  2 16  1  0  0  0  0
  3 13  1  0  0  0  0
  3 17  1  0  0  0  0
  4  8  1  0  0  0  0
  4  9  2  0  0  0  0
  5  6  1  0  0  0  0
  5  8  2  0  0  0  0
  5 10  1  0  0  0  0
  6  7  2  0  0  0  0
  7  9  1  0  0  0  0
  7 12  1  0  0  0  0
  8 11  1  0  0  0  0
 10 14  2  0  0  0  0
 10 18  1  0  0  0  0
 11 13  2  0  0  0  0
 11 19  1  0  0  0  0
 12 15  2  0  0  0  0
 12 20  1  0  0  0  0
 13 14  1  0  0  0  0
 14 21  1  0  0  0  0
 15 22  1  0  0  0  0
 16 23  1  0  0  0  0
 16 24  1  0  0  0  0
 16 25  1  0  0  0  0
 17 26  1  0  0  0  0
 17 27  1  0  0  0  0
 17 28  1  0  0  0  0
M  END
>  <PUBCHEM_COMPOUND_CID>
196980

>  <PUBCHEM_COMPOUND_CANONICALIZED>
1

>  <PUBCHEM_CACTVS_COMPLEXITY>
273

>  <PUBCHEM_CACTVS_HBOND_ACCEPTOR>
4

>  <PUBCHEM_CACTVS_HBOND_DONOR>
0

>  <PUBCHEM_CACTVS_ROTATABLE_BOND>
2

>  <PUBCHEM_CACTVS_SUBSKEYS>
AAADccByMAAAAAAAAAAAAAAAAAAAASAAAAA8QAAAAAAAAFix/gAAHgAAAAAADAyhngIyxvIIFECoAy1y1ACCiCAtIiAImCE2bNgMJ/bEtZuOOWjn5B3I6Yf++f+eIAAAAgACAABAAAAEAAQAAAAAAAAAAA==

>  <PUBCHEM_IUPAC_OPENEYE_NAME>
4,7-dimethoxyfuro[2,3-b]quinoline

>  <PUBCHEM_IUPAC_CAS_NAME>
4,7-dimethoxyfuro[2,3-b]quinoline

>  <PUBCHEM_IUPAC_NAME>
4,7-dimethoxyfuro[2,3-b]quinoline

>  <PUBCHEM_IUPAC_SYSTEMATIC_NAME>
4,7-dimethoxyfuro[2,3-b]quinoline

>  <PUBCHEM_IUPAC_TRADITIONAL_NAME>
4,7-dimethoxyfuro[2,3-b]quinoline

>  <PUBCHEM_IUPAC_INCHI>
InChI=1S/C13H11NO3/c1-15-8-3-4-9-11(7-8)14-13-10(5-6-17-13)12(9)16-2/h3-7H,1-2H3

>  <PUBCHEM_IUPAC_INCHIKEY>
TWGHMXOYRUTQOL-UHFFFAOYSA-N

>  <PUBCHEM_XLOGP3_AA>
2.9

>  <PUBCHEM_EXACT_MASS>
229.074

>  <PUBCHEM_MOLECULAR_FORMULA>
C13H11NO3

>  <PUBCHEM_MOLECULAR_WEIGHT>
229.235

>  <PUBCHEM_OPENEYE_CAN_SMILES>
COC1=CC2=C(C=C1)C(=C3C=COC3=N2)OC

>  <PUBCHEM_OPENEYE_ISO_SMILES>
COC1=CC2=C(C=C1)C(=C3C=COC3=N2)OC

>  <PUBCHEM_CACTVS_TPSA>
44.5

>  <PUBCHEM_MONOISOTOPIC_WEIGHT>
229.074

>  <PUBCHEM_TOTAL_CHARGE>
0

>  <PUBCHEM_HEAVY_ATOM_COUNT>
17

>  <PUBCHEM_ATOM_DEF_STEREO_COUNT>
0

>  <PUBCHEM_ATOM_UDEF_STEREO_COUNT>
0

>  <PUBCHEM_BOND_DEF_STEREO_COUNT>
0

>  <PUBCHEM_BOND_UDEF_STEREO_COUNT>
0

>  <PUBCHEM_ISOTOPIC_ATOM_COUNT>
0

>  <PUBCHEM_COMPONENT_COUNT>
1

>  <PUBCHEM_CACTVS_TAUTO_COUNT>
1

>  <PUBCHEM_COORDINATE_TYPE>
1
5
255

>  <PUBCHEM_BONDANNOTATIONS>
1  15  8
1  9  8
10  14  8
11  13  8
12  15  8
13  14  8
4  8  8
4  9  8
5  10  8
5  6  8
5  8  8
6  7  8
7  12  8
7  9  8
8  11  8

$$$$
