20055192
 OpenBabel06101807152D

 75 74  0  0  0  0  0  0  0  0999 V2000
    2.0000    0.2500    0.0000 O   0  0  0  0  0  0  0  0  0  0  0  0
   21.0526    0.2500    0.0000 C   0  0  0  0  0  0  0  0  0  0  0  0
   21.9186   -0.2500    0.0000 C   0  0  0  0  0  0  0  0  0  0  0  0
   20.1865   -0.2500    0.0000 C   0  0  0  0  0  0  0  0  0  0  0  0
   22.7846    0.2500    0.0000 C   0  0  0  0  0  0  0  0  0  0  0  0
   23.6506   -0.2500    0.0000 C   0  0  0  0  0  0  0  0  0  0  0  0
   20.1865   -1.2500    0.0000 C   0  0  0  0  0  0  0  0  0  0  0  0
   19.3205    0.2500    0.0000 C   0  0  0  0  0  0  0  0  0  0  0  0
   24.5167    0.2500    0.0000 C   0  0  0  0  0  0  0  0  0  0  0  0
   23.6506   -1.2500    0.0000 C   0  0  0  0  0  0  0  0  0  0  0  0
   18.4545   -0.2500    0.0000 C   0  0  0  0  0  0  0  0  0  0  0  0
   17.5885    0.2500    0.0000 C   0  0  0  0  0  0  0  0  0  0  0  0
   16.7224   -0.2500    0.0000 C   0  0  0  0  0  0  0  0  0  0  0  0
   15.8564    0.2500    0.0000 C   0  0  0  0  0  0  0  0  0  0  0  0
   16.7224   -1.2500    0.0000 C   0  0  0  0  0  0  0  0  0  0  0  0
   14.9904   -0.2500    0.0000 C   0  0  0  0  0  0  0  0  0  0  0  0
   13.2583   -0.2500    0.0000 C   0  0  0  0  0  0  0  0  0  0  0  0
   14.1244    0.2500    0.0000 C   0  0  0  0  0  0  0  0  0  0  0  0
   12.3923    0.2500    0.0000 C   0  0  0  0  0  0  0  0  0  0  0  0
   13.2583   -1.2500    0.0000 C   0  0  0  0  0  0  0  0  0  0  0  0
    8.9282    0.2500    0.0000 C   0  0  0  0  0  0  0  0  0  0  0  0
   11.5263   -0.2500    0.0000 C   0  0  0  0  0  0  0  0  0  0  0  0
    9.7942   -0.2500    0.0000 C   0  0  0  0  0  0  0  0  0  0  0  0
   10.6603    0.2500    0.0000 C   0  0  0  0  0  0  0  0  0  0  0  0
    8.0622   -0.2500    0.0000 C   0  0  0  0  0  0  0  0  0  0  0  0
    8.9282    1.2500    0.0000 C   0  0  0  0  0  0  0  0  0  0  0  0
    7.1962    0.2500    0.0000 C   0  0  0  0  0  0  0  0  0  0  0  0
    5.4641    0.2500    0.0000 C   0  0  0  0  0  0  0  0  0  0  0  0
    6.3301   -0.2500    0.0000 C   0  0  0  0  0  0  0  0  0  0  0  0
    5.4641    1.2500    0.0000 C   0  0  0  0  0  0  0  0  0  0  0  0
    4.5981   -0.2500    0.0000 C   0  0  0  0  0  0  0  0  0  0  0  0
    3.7320    0.2500    0.0000 C   0  0  0  0  0  0  0  0  0  0  0  0
    2.8660   -0.2500    0.0000 C   0  0  0  0  0  0  0  0  0  0  0  0
   21.4511    0.7249    0.0000 H   0  0  0  0  0  0  0  0  0  0  0  0
   20.6540    0.7249    0.0000 H   0  0  0  0  0  0  0  0  0  0  0  0
   21.5201   -0.7249    0.0000 H   0  0  0  0  0  0  0  0  0  0  0  0
   22.3171   -0.7249    0.0000 H   0  0  0  0  0  0  0  0  0  0  0  0
   22.7846    0.8700    0.0000 H   0  0  0  0  0  0  0  0  0  0  0  0
   19.5665   -1.2500    0.0000 H   0  0  0  0  0  0  0  0  0  0  0  0
   20.1865   -1.8700    0.0000 H   0  0  0  0  0  0  0  0  0  0  0  0
   20.8065   -1.2500    0.0000 H   0  0  0  0  0  0  0  0  0  0  0  0
   19.3205    0.8700    0.0000 H   0  0  0  0  0  0  0  0  0  0  0  0
   24.8267   -0.2869    0.0000 H   0  0  0  0  0  0  0  0  0  0  0  0
   25.0536    0.5600    0.0000 H   0  0  0  0  0  0  0  0  0  0  0  0
   24.2067    0.7869    0.0000 H   0  0  0  0  0  0  0  0  0  0  0  0
   23.0306   -1.2500    0.0000 H   0  0  0  0  0  0  0  0  0  0  0  0
   23.6506   -1.8700    0.0000 H   0  0  0  0  0  0  0  0  0  0  0  0
   24.2706   -1.2500    0.0000 H   0  0  0  0  0  0  0  0  0  0  0  0
   18.4545   -0.8700    0.0000 H   0  0  0  0  0  0  0  0  0  0  0  0
   17.5885    0.8700    0.0000 H   0  0  0  0  0  0  0  0  0  0  0  0
   15.8564    0.8700    0.0000 H   0  0  0  0  0  0  0  0  0  0  0  0
   16.1024   -1.2500    0.0000 H   0  0  0  0  0  0  0  0  0  0  0  0
   16.7224   -1.8700    0.0000 H   0  0  0  0  0  0  0  0  0  0  0  0
   17.3424   -1.2500    0.0000 H   0  0  0  0  0  0  0  0  0  0  0  0
   14.9904   -0.8700    0.0000 H   0  0  0  0  0  0  0  0  0  0  0  0
   14.1244    0.8700    0.0000 H   0  0  0  0  0  0  0  0  0  0  0  0
   12.3923    0.8700    0.0000 H   0  0  0  0  0  0  0  0  0  0  0  0
   12.6383   -1.2500    0.0000 H   0  0  0  0  0  0  0  0  0  0  0  0
   13.2583   -1.8700    0.0000 H   0  0  0  0  0  0  0  0  0  0  0  0
   13.8783   -1.2500    0.0000 H   0  0  0  0  0  0  0  0  0  0  0  0
   11.5263   -0.8700    0.0000 H   0  0  0  0  0  0  0  0  0  0  0  0
    9.7942   -0.8700    0.0000 H   0  0  0  0  0  0  0  0  0  0  0  0
   10.6603    0.8700    0.0000 H   0  0  0  0  0  0  0  0  0  0  0  0
    8.0622   -0.8700    0.0000 H   0  0  0  0  0  0  0  0  0  0  0  0
    9.5482    1.2500    0.0000 H   0  0  0  0  0  0  0  0  0  0  0  0
    8.9282    1.8700    0.0000 H   0  0  0  0  0  0  0  0  0  0  0  0
    8.3082    1.2500    0.0000 H   0  0  0  0  0  0  0  0  0  0  0  0
    7.1962    0.8700    0.0000 H   0  0  0  0  0  0  0  0  0  0  0  0
    6.3301   -0.8700    0.0000 H   0  0  0  0  0  0  0  0  0  0  0  0
    6.0841    1.2500    0.0000 H   0  0  0  0  0  0  0  0  0  0  0  0
    5.4641    1.8700    0.0000 H   0  0  0  0  0  0  0  0  0  0  0  0
    4.8441    1.2500    0.0000 H   0  0  0  0  0  0  0  0  0  0  0  0
    4.5981   -0.8700    0.0000 H   0  0  0  0  0  0  0  0  0  0  0  0
    3.7320    0.8700    0.0000 H   0  0  0  0  0  0  0  0  0  0  0  0
    2.8660   -0.8700    0.0000 H   0  0  0  0  0  0  0  0  0  0  0  0
  1 33  2  0  0  0  0
  2  3  1  0  0  0  0
  2  4  1  0  0  0  0
  2 34  1  0  0  0  0
  2 35  1  0  0  0  0
  3  5  1  0  0  0  0
  3 36  1  0  0  0  0
  3 37  1  0  0  0  0
  4  7  1  0  0  0  0
  4  8  2  0  0  0  0
  5  6  2  0  0  0  0
  5 38  1  0  0  0  0
  6  9  1  0  0  0  0
  6 10  1  0  0  0  0
  7 39  1  0  0  0  0
  7 40  1  0  0  0  0
  7 41  1  0  0  0  0
  8 11  1  0  0  0  0
  8 42  1  0  0  0  0
  9 43  1  0  0  0  0
  9 44  1  0  0  0  0
  9 45  1  0  0  0  0
 10 46  1  0  0  0  0
 10 47  1  0  0  0  0
 10 48  1  0  0  0  0
 11 12  2  0  0  0  0
 11 49  1  0  0  0  0
 12 13  1  0  0  0  0
 12 50  1  0  0  0  0
 13 14  2  0  0  0  0
 13 15  1  0  0  0  0
 14 16  1  0  0  0  0
 14 51  1  0  0  0  0
 15 52  1  0  0  0  0
 15 53  1  0  0  0  0
 15 54  1  0  0  0  0
 16 18  2  0  0  0  0
 16 55  1  0  0  0  0
 17 18  1  0  0  0  0
 17 19  2  0  0  0  0
 17 20  1  0  0  0  0
 18 56  1  0  0  0  0
 19 22  1  0  0  0  0
 19 57  1  0  0  0  0
 20 58  1  0  0  0  0
 20 59  1  0  0  0  0
 20 60  1  0  0  0  0
 21 23  2  0  0  0  0
 21 25  1  0  0  0  0
 21 26  1  0  0  0  0
 22 24  2  0  0  0  0
 22 61  1  0  0  0  0
 23 24  1  0  0  0  0
 23 62  1  0  0  0  0
 24 63  1  0  0  0  0
 25 27  2  0  0  0  0
 25 64  1  0  0  0  0
 26 65  1  0  0  0  0
 26 66  1  0  0  0  0
 26 67  1  0  0  0  0
 27 29  1  0  0  0  0
 27 68  1  0  0  0  0
 28 29  2  0  0  0  0
 28 30  1  0  0  0  0
 28 31  1  0  0  0  0
 29 69  1  0  0  0  0
 30 70  1  0  0  0  0
 30 71  1  0  0  0  0
 30 72  1  0  0  0  0
 31 32  2  0  0  0  0
 31 73  1  0  0  0  0
 32 33  1  0  0  0  0
 32 74  1  0  0  0  0
 33 75  1  0  0  0  0
M  END
>  <PUBCHEM_COMPOUND_CID>
20055192

>  <PUBCHEM_COMPOUND_CANONICALIZED>
1

>  <PUBCHEM_CACTVS_COMPLEXITY>
925

>  <PUBCHEM_CACTVS_HBOND_ACCEPTOR>
1

>  <PUBCHEM_CACTVS_HBOND_DONOR>
0

>  <PUBCHEM_CACTVS_ROTATABLE_BOND>
13

>  <PUBCHEM_CACTVS_SUBSKEYS>
AAADcfB8IAAAAAAAAAAAAAAAAAAAAAAAAAAAAAAAAAAAAAAAAAAAGgAAAAAADACggAICAAAAAACIAihSgAAAAAAgAAAICAAAAEgIAAIAAQAAAAAAgAAIgYIAAAAAAAAAAAAAAAAAAAAAAAAAAAAAAAAAAA==

>  <PUBCHEM_IUPAC_OPENEYE_NAME>
(2E,4E,6E,8E,10E,12E,14E,16E,18E,20E)-4,8,13,17,21,25-hexamethylhexacosa-2,4,6,8,10,12,14,16,18,20,24-undecaenal

>  <PUBCHEM_IUPAC_CAS_NAME>
(2E,4E,6E,8E,10E,12E,14E,16E,18E,20E)-4,8,13,17,21,25-hexamethylhexacosa-2,4,6,8,10,12,14,16,18,20,24-undecaenal

>  <PUBCHEM_IUPAC_NAME>
(2E,4E,6E,8E,10E,12E,14E,16E,18E,20E)-4,8,13,17,21,25-hexamethylhexacosa-2,4,6,8,10,12,14,16,18,20,24-undecaenal

>  <PUBCHEM_IUPAC_SYSTEMATIC_NAME>
(2E,4E,6E,8E,10E,12E,14E,16E,18E,20E)-4,8,13,17,21,25-hexamethylhexacosa-2,4,6,8,10,12,14,16,18,20,24-undecaenal

>  <PUBCHEM_IUPAC_TRADITIONAL_NAME>
(2E,4E,6E,8E,10E,12E,14E,16E,18E,20E)-4,8,13,17,21,25-hexamethylhexacosa-2,4,6,8,10,12,14,16,18,20,24-undecaenal

>  <PUBCHEM_IUPAC_INCHI>
InChI=1S/C32H42O/c1-27(2)15-10-18-30(5)21-13-23-31(6)22-11-19-28(3)16-8-9-17-29(4)20-12-24-32(7)25-14-26-33/h8-9,11-17,19-26H,10,18H2,1-7H3/b9-8+,19-11+,20-12+,23-13+,25-14+,28-16+,29-17+,30-21+,31-22+,32-24+

>  <PUBCHEM_IUPAC_INCHIKEY>
ZXEPHOYZDSLBJV-CQOAVJQGSA-N

>  <PUBCHEM_XLOGP3_AA>
11.3

>  <PUBCHEM_EXACT_MASS>
442.324

>  <PUBCHEM_MOLECULAR_FORMULA>
C32H42O

>  <PUBCHEM_MOLECULAR_WEIGHT>
442.687

>  <PUBCHEM_OPENEYE_CAN_SMILES>
CC(=CCCC(=CC=CC(=CC=CC(=CC=CC=C(C)C=CC=C(C)C=CC=O)C)C)C)C

>  <PUBCHEM_OPENEYE_ISO_SMILES>
CC(=CCC/C(=C/C=C/C(=C/C=C/C(=C/C=C/C=C(\C)/C=C/C=C(\C)/C=C/C=O)/C)/C)/C)C

>  <PUBCHEM_CACTVS_TPSA>
17.1

>  <PUBCHEM_MONOISOTOPIC_WEIGHT>
442.324

>  <PUBCHEM_TOTAL_CHARGE>
0

>  <PUBCHEM_HEAVY_ATOM_COUNT>
33

>  <PUBCHEM_ATOM_DEF_STEREO_COUNT>
0

>  <PUBCHEM_ATOM_UDEF_STEREO_COUNT>
0

>  <PUBCHEM_BOND_DEF_STEREO_COUNT>
10

>  <PUBCHEM_BOND_UDEF_STEREO_COUNT>
0

>  <PUBCHEM_ISOTOPIC_ATOM_COUNT>
0

>  <PUBCHEM_COMPONENT_COUNT>
1

>  <PUBCHEM_CACTVS_TAUTO_COUNT>
1

>  <PUBCHEM_COORDINATE_TYPE>
1
5
255

$$$$
