20055197
 OpenBabel06101807152D

100 99  0  0  0  0  0  0  0  0999 V2000
    7.1962    1.2500    0.0000 O   0  0  0  0  0  0  0  0  0  0  0  0
   23.6506   -1.2500    0.0000 O   0  0  0  0  0  0  0  0  0  0  0  0
    2.8660    0.7500    0.0000 O   0  0  0  0  0  0  0  0  0  0  0  0
   27.9808   -0.7500    0.0000 O   0  0  0  0  0  0  0  0  0  0  0  0
    6.3301   -0.2500    0.0000 C   0  0  0  0  0  0  0  0  0  0  0  0
   24.5167    0.2500    0.0000 C   0  0  0  0  0  0  0  0  0  0  0  0
    5.4641   -0.7500    0.0000 C   0  0  0  0  0  0  0  0  0  0  0  0
   25.3827    0.7500    0.0000 C   0  0  0  0  0  0  0  0  0  0  0  0
   26.2487    0.2500    0.0000 C   0  0  0  0  0  0  0  0  0  0  0  0
    4.5981   -0.2500    0.0000 C   0  0  0  0  0  0  0  0  0  0  0  0
    5.8301    0.6160    0.0000 C   0  0  0  0  0  0  0  0  0  0  0  0
    6.8301   -1.1160    0.0000 C   0  0  0  0  0  0  0  0  0  0  0  0
   25.0167   -0.6160    0.0000 C   0  0  0  0  0  0  0  0  0  0  0  0
   24.0167    1.1160    0.0000 C   0  0  0  0  0  0  0  0  0  0  0  0
    7.1962    0.2500    0.0000 C   0  0  0  0  0  0  0  0  0  0  0  0
   23.6506   -0.2500    0.0000 C   0  0  0  0  0  0  0  0  0  0  0  0
    3.7320   -0.7500    0.0000 C   0  0  0  0  0  0  0  0  0  0  0  0
   27.1147    0.7500    0.0000 C   0  0  0  0  0  0  0  0  0  0  0  0
    8.0622   -0.2500    0.0000 C   0  0  0  0  0  0  0  0  0  0  0  0
   22.7846    0.2500    0.0000 C   0  0  0  0  0  0  0  0  0  0  0  0
   27.9808    0.2500    0.0000 C   0  0  0  0  0  0  0  0  0  0  0  0
    2.8660   -0.2500    0.0000 C   0  0  0  0  0  0  0  0  0  0  0  0
    8.9282    0.2500    0.0000 C   0  0  0  0  0  0  0  0  0  0  0  0
   21.9186   -0.2500    0.0000 C   0  0  0  0  0  0  0  0  0  0  0  0
    2.0000   -0.7500    0.0000 C   0  0  0  0  0  0  0  0  0  0  0  0
   28.8468    0.7500    0.0000 C   0  0  0  0  0  0  0  0  0  0  0  0
    9.7942   -0.2500    0.0000 C   0  0  0  0  0  0  0  0  0  0  0  0
   21.0526    0.2500    0.0000 C   0  0  0  0  0  0  0  0  0  0  0  0
    9.7942   -1.2500    0.0000 C   0  0  0  0  0  0  0  0  0  0  0  0
   21.0526    1.2500    0.0000 C   0  0  0  0  0  0  0  0  0  0  0  0
   10.6603    0.2500    0.0000 C   0  0  0  0  0  0  0  0  0  0  0  0
   20.1865   -0.2500    0.0000 C   0  0  0  0  0  0  0  0  0  0  0  0
   11.5263   -0.2500    0.0000 C   0  0  0  0  0  0  0  0  0  0  0  0
   19.3205    0.2500    0.0000 C   0  0  0  0  0  0  0  0  0  0  0  0
   12.3923    0.2500    0.0000 C   0  0  0  0  0  0  0  0  0  0  0  0
   18.4545   -0.2500    0.0000 C   0  0  0  0  0  0  0  0  0  0  0  0
   17.5885    0.2500    0.0000 C   0  0  0  0  0  0  0  0  0  0  0  0
   13.2583   -0.2500    0.0000 C   0  0  0  0  0  0  0  0  0  0  0  0
   14.1244    0.2500    0.0000 C   0  0  0  0  0  0  0  0  0  0  0  0
   16.7224   -0.2500    0.0000 C   0  0  0  0  0  0  0  0  0  0  0  0
   17.5885    1.2500    0.0000 C   0  0  0  0  0  0  0  0  0  0  0  0
   13.2583   -1.2500    0.0000 C   0  0  0  0  0  0  0  0  0  0  0  0
   14.9904   -0.2500    0.0000 C   0  0  0  0  0  0  0  0  0  0  0  0
   15.8564    0.2500    0.0000 C   0  0  0  0  0  0  0  0  0  0  0  0
   25.7812    1.2250    0.0000 H   0  0  0  0  0  0  0  0  0  0  0  0
   24.9842    1.2250    0.0000 H   0  0  0  0  0  0  0  0  0  0  0  0
    5.0656   -1.2250    0.0000 H   0  0  0  0  0  0  0  0  0  0  0  0
    5.8626   -1.2250    0.0000 H   0  0  0  0  0  0  0  0  0  0  0  0
   25.8502   -0.2249    0.0000 H   0  0  0  0  0  0  0  0  0  0  0  0
   26.6472   -0.2249    0.0000 H   0  0  0  0  0  0  0  0  0  0  0  0
    4.9966    0.2249    0.0000 H   0  0  0  0  0  0  0  0  0  0  0  0
    4.1996    0.2249    0.0000 H   0  0  0  0  0  0  0  0  0  0  0  0
   24.5536    1.4260    0.0000 H   0  0  0  0  0  0  0  0  0  0  0  0
   23.7067    1.6530    0.0000 H   0  0  0  0  0  0  0  0  0  0  0  0
   23.4797    0.8060    0.0000 H   0  0  0  0  0  0  0  0  0  0  0  0
    6.3671    0.9260    0.0000 H   0  0  0  0  0  0  0  0  0  0  0  0
    5.5201    1.1530    0.0000 H   0  0  0  0  0  0  0  0  0  0  0  0
    5.2932    0.3060    0.0000 H   0  0  0  0  0  0  0  0  0  0  0  0
    6.2932   -1.4260    0.0000 H   0  0  0  0  0  0  0  0  0  0  0  0
    7.1401   -1.6530    0.0000 H   0  0  0  0  0  0  0  0  0  0  0  0
    7.3671   -0.8060    0.0000 H   0  0  0  0  0  0  0  0  0  0  0  0
   24.4797   -0.9260    0.0000 H   0  0  0  0  0  0  0  0  0  0  0  0
   25.3267   -1.1530    0.0000 H   0  0  0  0  0  0  0  0  0  0  0  0
   25.5536   -0.3060    0.0000 H   0  0  0  0  0  0  0  0  0  0  0  0
   27.5133    1.2250    0.0000 H   0  0  0  0  0  0  0  0  0  0  0  0
   26.7162    1.2250    0.0000 H   0  0  0  0  0  0  0  0  0  0  0  0
    3.3335   -1.2250    0.0000 H   0  0  0  0  0  0  0  0  0  0  0  0
    4.1306   -1.2250    0.0000 H   0  0  0  0  0  0  0  0  0  0  0  0
    8.0622   -0.8700    0.0000 H   0  0  0  0  0  0  0  0  0  0  0  0
   22.7846    0.8700    0.0000 H   0  0  0  0  0  0  0  0  0  0  0  0
   21.9186   -0.8700    0.0000 H   0  0  0  0  0  0  0  0  0  0  0  0
    8.9282    0.8700    0.0000 H   0  0  0  0  0  0  0  0  0  0  0  0
   29.1568    0.2131    0.0000 H   0  0  0  0  0  0  0  0  0  0  0  0
   29.3837    1.0600    0.0000 H   0  0  0  0  0  0  0  0  0  0  0  0
   28.5368    1.2869    0.0000 H   0  0  0  0  0  0  0  0  0  0  0  0
    1.6900   -0.2131    0.0000 H   0  0  0  0  0  0  0  0  0  0  0  0
    1.4631   -1.0600    0.0000 H   0  0  0  0  0  0  0  0  0  0  0  0
    2.3100   -1.2869    0.0000 H   0  0  0  0  0  0  0  0  0  0  0  0
   21.6726    1.2500    0.0000 H   0  0  0  0  0  0  0  0  0  0  0  0
   21.0526    1.8700    0.0000 H   0  0  0  0  0  0  0  0  0  0  0  0
   20.4326    1.2500    0.0000 H   0  0  0  0  0  0  0  0  0  0  0  0
    9.1742   -1.2500    0.0000 H   0  0  0  0  0  0  0  0  0  0  0  0
    9.7942   -1.8700    0.0000 H   0  0  0  0  0  0  0  0  0  0  0  0
   10.4142   -1.2500    0.0000 H   0  0  0  0  0  0  0  0  0  0  0  0
   20.1865   -0.8700    0.0000 H   0  0  0  0  0  0  0  0  0  0  0  0
   10.6603    0.8700    0.0000 H   0  0  0  0  0  0  0  0  0  0  0  0
   19.3205    0.8700    0.0000 H   0  0  0  0  0  0  0  0  0  0  0  0
   11.5263   -0.8700    0.0000 H   0  0  0  0  0  0  0  0  0  0  0  0
   18.4545   -0.8700    0.0000 H   0  0  0  0  0  0  0  0  0  0  0  0
   12.3923    0.8700    0.0000 H   0  0  0  0  0  0  0  0  0  0  0  0
   16.7224   -0.8700    0.0000 H   0  0  0  0  0  0  0  0  0  0  0  0
   14.1244    0.8700    0.0000 H   0  0  0  0  0  0  0  0  0  0  0  0
   18.2085    1.2500    0.0000 H   0  0  0  0  0  0  0  0  0  0  0  0
   17.5885    1.8700    0.0000 H   0  0  0  0  0  0  0  0  0  0  0  0
   16.9685    1.2500    0.0000 H   0  0  0  0  0  0  0  0  0  0  0  0
   12.6383   -1.2500    0.0000 H   0  0  0  0  0  0  0  0  0  0  0  0
   13.2583   -1.8700    0.0000 H   0  0  0  0  0  0  0  0  0  0  0  0
   13.8783   -1.2500    0.0000 H   0  0  0  0  0  0  0  0  0  0  0  0
   14.9904   -0.8700    0.0000 H   0  0  0  0  0  0  0  0  0  0  0  0
   15.8564    0.8700    0.0000 H   0  0  0  0  0  0  0  0  0  0  0  0
  1 15  2  0  0  0  0
  2 16  2  0  0  0  0
  3 22  2  0  0  0  0
  4 21  2  0  0  0  0
  5  7  1  0  0  0  0
  5 11  1  0  0  0  0
  5 12  1  0  0  0  0
  5 15  1  0  0  0  0
  6  8  1  0  0  0  0
  6 13  1  0  0  0  0
  6 14  1  0  0  0  0
  6 16  1  0  0  0  0
  7 10  1  0  0  0  0
  7 47  1  0  0  0  0
  7 48  1  0  0  0  0
  8  9  1  0  0  0  0
  8 45  1  0  0  0  0
  8 46  1  0  0  0  0
  9 18  1  0  0  0  0
  9 49  1  0  0  0  0
  9 50  1  0  0  0  0
 10 17  1  0  0  0  0
 10 51  1  0  0  0  0
 10 52  1  0  0  0  0
 11 56  1  0  0  0  0
 11 57  1  0  0  0  0
 11 58  1  0  0  0  0
 12 59  1  0  0  0  0
 12 60  1  0  0  0  0
 12 61  1  0  0  0  0
 13 62  1  0  0  0  0
 13 63  1  0  0  0  0
 13 64  1  0  0  0  0
 14 53  1  0  0  0  0
 14 54  1  0  0  0  0
 14 55  1  0  0  0  0
 15 19  1  0  0  0  0
 16 20  1  0  0  0  0
 17 22  1  0  0  0  0
 17 67  1  0  0  0  0
 17 68  1  0  0  0  0
 18 21  1  0  0  0  0
 18 65  1  0  0  0  0
 18 66  1  0  0  0  0
 19 23  2  0  0  0  0
 19 69  1  0  0  0  0
 20 24  2  0  0  0  0
 20 70  1  0  0  0  0
 21 26  1  0  0  0  0
 22 25  1  0  0  0  0
 23 27  1  0  0  0  0
 23 72  1  0  0  0  0
 24 28  1  0  0  0  0
 24 71  1  0  0  0  0
 25 76  1  0  0  0  0
 25 77  1  0  0  0  0
 25 78  1  0  0  0  0
 26 73  1  0  0  0  0
 26 74  1  0  0  0  0
 26 75  1  0  0  0  0
 27 29  1  0  0  0  0
 27 31  2  0  0  0  0
 28 30  1  0  0  0  0
 28 32  2  0  0  0  0
 29 82  1  0  0  0  0
 29 83  1  0  0  0  0
 29 84  1  0  0  0  0
 30 79  1  0  0  0  0
 30 80  1  0  0  0  0
 30 81  1  0  0  0  0
 31 33  1  0  0  0  0
 31 86  1  0  0  0  0
 32 34  1  0  0  0  0
 32 85  1  0  0  0  0
 33 35  2  0  0  0  0
 33 88  1  0  0  0  0
 34 36  2  0  0  0  0
 34 87  1  0  0  0  0
 35 38  1  0  0  0  0
 35 90  1  0  0  0  0
 36 37  1  0  0  0  0
 36 89  1  0  0  0  0
 37 40  2  0  0  0  0
 37 41  1  0  0  0  0
 38 39  2  0  0  0  0
 38 42  1  0  0  0  0
 39 43  1  0  0  0  0
 39 92  1  0  0  0  0
 40 44  1  0  0  0  0
 40 91  1  0  0  0  0
 41 93  1  0  0  0  0
 41 94  1  0  0  0  0
 41 95  1  0  0  0  0
 42 96  1  0  0  0  0
 42 97  1  0  0  0  0
 42 98  1  0  0  0  0
 43 44  2  0  0  0  0
 43 99  1  0  0  0  0
 44100  1  0  0  0  0
M  END
>  <PUBCHEM_COMPOUND_CID>
20055197

>  <PUBCHEM_COMPOUND_CANONICALIZED>
1

>  <PUBCHEM_CACTVS_COMPLEXITY>
1170

>  <PUBCHEM_CACTVS_HBOND_ACCEPTOR>
4

>  <PUBCHEM_CACTVS_HBOND_DONOR>
0

>  <PUBCHEM_CACTVS_ROTATABLE_BOND>
20

>  <PUBCHEM_CACTVS_SUBSKEYS>
AAADcfB8OAAAAAAAAAAAAAAAAAAAAAAAAAAAAAAAAAAAAAAAAAAAGgAAAAAADgSAgAACAAAAAACIAqBSAAAAAAAgAAAICAEAAEgIABIAAQAAAAAAgAAIgYMIiMCPAAAAAAAAAAAAAAAAAAAAAAAAAAAAAA==

>  <PUBCHEM_IUPAC_OPENEYE_NAME>
(8E,10E,12E,14E,16E,18E,20E,22E,24E)-6,6,10,14,19,23,27,27-octamethyldotriaconta-8,10,12,14,16,18,20,22,24-nonaene-2,7,26,31-tetrone

>  <PUBCHEM_IUPAC_CAS_NAME>
(8E,10E,12E,14E,16E,18E,20E,22E,24E)-6,6,10,14,19,23,27,27-octamethyldotriaconta-8,10,12,14,16,18,20,22,24-nonaene-2,7,26,31-tetrone

>  <PUBCHEM_IUPAC_NAME>
(8E,10E,12E,14E,16E,18E,20E,22E,24E)-6,6,10,14,19,23,27,27-octamethyldotriaconta-8,10,12,14,16,18,20,22,24-nonaene-2,7,26,31-tetrone

>  <PUBCHEM_IUPAC_SYSTEMATIC_NAME>
(8E,10E,12E,14E,16E,18E,20E,22E,24E)-6,6,10,14,19,23,27,27-octamethyldotriaconta-8,10,12,14,16,18,20,22,24-nonaene-2,7,26,31-tetrone

>  <PUBCHEM_IUPAC_TRADITIONAL_NAME>
(8E,10E,12E,14E,16E,18E,20E,22E,24E)-6,6,10,14,19,23,27,27-octamethyldotriaconta-8,10,12,14,16,18,20,22,24-nonaene-2,7,26,31-tetrone

>  <PUBCHEM_IUPAC_INCHI>
InChI=1S/C40H56O4/c1-31(19-13-21-33(3)25-27-37(43)39(7,8)29-15-23-35(5)41)17-11-12-18-32(2)20-14-22-34(4)26-28-38(44)40(9,10)30-16-24-36(6)42/h11-14,17-22,25-28H,15-16,23-24,29-30H2,1-10H3/b12-11+,19-13+,20-14+,27-25+,28-26+,31-17+,32-18+,33-21+,34-22+

>  <PUBCHEM_IUPAC_INCHIKEY>
UQKVQNUNGXYNOJ-JLTXGRSLSA-N

>  <PUBCHEM_XLOGP3_AA>
10

>  <PUBCHEM_EXACT_MASS>
600.418

>  <PUBCHEM_MOLECULAR_FORMULA>
C40H56O4

>  <PUBCHEM_MOLECULAR_WEIGHT>
600.884

>  <PUBCHEM_OPENEYE_CAN_SMILES>
CC(=O)CCCC(C)(C)C(=O)C=CC(=CC=CC(=CC=CC=C(C)C=CC=C(C)C=CC(=O)C(C)(C)CCCC(=O)C)C)C

>  <PUBCHEM_OPENEYE_ISO_SMILES>
CC(=O)CCCC(C(=O)/C=C/C(=C/C=C/C(=C/C=C/C=C(/C=C/C=C(/C=C/C(=O)C(CCCC(=O)C)(C)C)\C)\C)/C)/C)(C)C

>  <PUBCHEM_CACTVS_TPSA>
68.3

>  <PUBCHEM_MONOISOTOPIC_WEIGHT>
600.418

>  <PUBCHEM_TOTAL_CHARGE>
0

>  <PUBCHEM_HEAVY_ATOM_COUNT>
44

>  <PUBCHEM_ATOM_DEF_STEREO_COUNT>
0

>  <PUBCHEM_ATOM_UDEF_STEREO_COUNT>
0

>  <PUBCHEM_BOND_DEF_STEREO_COUNT>
9

>  <PUBCHEM_BOND_UDEF_STEREO_COUNT>
0

>  <PUBCHEM_ISOTOPIC_ATOM_COUNT>
0

>  <PUBCHEM_COMPONENT_COUNT>
1

>  <PUBCHEM_CACTVS_TAUTO_COUNT>
6

>  <PUBCHEM_COORDINATE_TYPE>
1
5
255

$$$$
