20216915
 OpenBabel06101807152D

 15 14  0  0  1  0  0  0  0  0999 V2000
    2.8660    0.2500    0.0000 S   0  0  3  0  0  0  0  0  0  0  0  0
    3.7320    0.7500    0.0000 S   0  0  0  0  0  0  0  0  0  0  0  0
    2.8660   -0.7500    0.0000 O   0  0  0  0  0  0  0  0  0  0  0  0
    4.5981    0.2500    0.0000 C   0  0  0  0  0  0  0  0  0  0  0  0
    2.0000    0.7500    0.0000 C   0  0  0  0  0  0  0  0  0  0  0  0
    5.4641    0.7500    0.0000 C   0  0  0  0  0  0  0  0  0  0  0  0
    6.3301    0.2500    0.0000 C   0  0  0  0  0  0  0  0  0  0  0  0
    4.1996   -0.2249    0.0000 H   0  0  0  0  0  0  0  0  0  0  0  0
    4.9966   -0.2249    0.0000 H   0  0  0  0  0  0  0  0  0  0  0  0
    2.3100    1.2869    0.0000 H   0  0  0  0  0  0  0  0  0  0  0  0
    1.4631    1.0600    0.0000 H   0  0  0  0  0  0  0  0  0  0  0  0
    1.6900    0.2131    0.0000 H   0  0  0  0  0  0  0  0  0  0  0  0
    5.4641    1.3700    0.0000 H   0  0  0  0  0  0  0  0  0  0  0  0
    6.3301   -0.3700    0.0000 H   0  0  0  0  0  0  0  0  0  0  0  0
    6.8671    0.5600    0.0000 H   0  0  0  0  0  0  0  0  0  0  0  0
  1  2  1  0  0  0  0
  1  3  2  0  0  0  0
  1  5  1  0  0  0  0
  2  4  1  0  0  0  0
  4  6  1  0  0  0  0
  4  8  1  0  0  0  0
  4  9  1  0  0  0  0
  5 10  1  0  0  0  0
  5 11  1  0  0  0  0
  5 12  1  0  0  0  0
  6  7  2  0  0  0  0
  6 13  1  0  0  0  0
  7 14  1  0  0  0  0
  7 15  1  0  0  0  0
M  END
>  <PUBCHEM_COMPOUND_CID>
20216915

>  <PUBCHEM_COMPOUND_CANONICALIZED>
1

>  <PUBCHEM_CACTVS_COMPLEXITY>
79.8

>  <PUBCHEM_CACTVS_HBOND_ACCEPTOR>
3

>  <PUBCHEM_CACTVS_HBOND_DONOR>
0

>  <PUBCHEM_CACTVS_ROTATABLE_BOND>
3

>  <PUBCHEM_CACTVS_SUBSKEYS>
AAADccBgIABgAAAAAAAAAAAAAAAAAAAAAAAAAAAAAAAAAAAAAAAAGAQAAAAACACEQACCAAAAAAKAACBCAEAAAAAAAAAIAAAAAAAAAAAAAQAAAAAAAAAAAAAAAAAAAAAAAAAAAAAAAAAAAAAAAAAAAAAAAA==

>  <PUBCHEM_IUPAC_OPENEYE_NAME>
3-methylsulfinylsulfanylprop-1-ene

>  <PUBCHEM_IUPAC_CAS_NAME>
3-(methylsulfinylthio)-1-propene

>  <PUBCHEM_IUPAC_NAME>
3-methylsulfinylsulfanylprop-1-ene

>  <PUBCHEM_IUPAC_SYSTEMATIC_NAME>
3-methylsulfinylsulfanylprop-1-ene

>  <PUBCHEM_IUPAC_TRADITIONAL_NAME>
3-(methylsulfinylthio)prop-1-ene

>  <PUBCHEM_IUPAC_INCHI>
InChI=1S/C4H8OS2/c1-3-4-6-7(2)5/h3H,1,4H2,2H3

>  <PUBCHEM_IUPAC_INCHIKEY>
BBZQGJLFMJHRSD-UHFFFAOYSA-N

>  <PUBCHEM_XLOGP3_AA>
0.6

>  <PUBCHEM_EXACT_MASS>
136.002

>  <PUBCHEM_MOLECULAR_FORMULA>
C4H8OS2

>  <PUBCHEM_MOLECULAR_WEIGHT>
136.227

>  <PUBCHEM_OPENEYE_CAN_SMILES>
CS(=O)SCC=C

>  <PUBCHEM_OPENEYE_ISO_SMILES>
CS(=O)SCC=C

>  <PUBCHEM_CACTVS_TPSA>
61.6

>  <PUBCHEM_MONOISOTOPIC_WEIGHT>
136.002

>  <PUBCHEM_TOTAL_CHARGE>
0

>  <PUBCHEM_HEAVY_ATOM_COUNT>
7

>  <PUBCHEM_ATOM_DEF_STEREO_COUNT>
0

>  <PUBCHEM_ATOM_UDEF_STEREO_COUNT>
1

>  <PUBCHEM_BOND_DEF_STEREO_COUNT>
0

>  <PUBCHEM_BOND_UDEF_STEREO_COUNT>
0

>  <PUBCHEM_ISOTOPIC_ATOM_COUNT>
0

>  <PUBCHEM_COMPONENT_COUNT>
1

>  <PUBCHEM_CACTVS_TAUTO_COUNT>
1

>  <PUBCHEM_COORDINATE_TYPE>
1
5
255

>  <PUBCHEM_BONDANNOTATIONS>
1  5  3

$$$$
