20391236
 OpenBabel06101807152D

 58 57  0  0  0  0  0  0  0  0999 V2000
   15.3564    0.8175    0.0000 O   0  0  0  0  0  0  0  0  0  0  0  0
   16.3564   -0.9145    0.0000 O   0  0  0  0  0  0  0  0  0  0  0  0
   17.5885   -0.0485    0.0000 O   0  0  0  0  0  0  0  0  0  0  0  0
   16.7224    1.4515    0.0000 O   0  0  0  0  0  0  0  0  0  0  0  0
    9.7942   -0.5485    0.0000 C   0  0  0  0  0  0  0  0  0  0  0  0
    8.9282   -0.0485    0.0000 C   0  0  0  0  0  0  0  0  0  0  0  0
   10.6603   -0.0485    0.0000 C   0  0  0  0  0  0  0  0  0  0  0  0
    8.0622   -0.5485    0.0000 C   0  0  0  0  0  0  0  0  0  0  0  0
   11.5263   -0.5485    0.0000 C   0  0  0  0  0  0  0  0  0  0  0  0
    7.1962   -0.0485    0.0000 C   0  0  0  0  0  0  0  0  0  0  0  0
   12.3923   -0.0485    0.0000 C   0  0  0  0  0  0  0  0  0  0  0  0
    6.3301   -0.5485    0.0000 C   0  0  0  0  0  0  0  0  0  0  0  0
   13.2583   -0.5485    0.0000 C   0  0  0  0  0  0  0  0  0  0  0  0
    5.4641   -0.0485    0.0000 C   0  0  0  0  0  0  0  0  0  0  0  0
   14.1244   -0.0485    0.0000 C   0  0  0  0  0  0  0  0  0  0  0  0
    4.5981   -0.5485    0.0000 C   0  0  0  0  0  0  0  0  0  0  0  0
   14.9904   -0.5485    0.0000 C   0  0  0  0  0  0  0  0  0  0  0  0
    3.7320   -0.0485    0.0000 C   0  0  0  0  0  0  0  0  0  0  0  0
   15.8564   -0.0485    0.0000 C   0  0  0  0  0  0  0  0  0  0  0  0
    2.8660   -0.5485    0.0000 C   0  0  0  0  0  0  0  0  0  0  0  0
    2.0000   -0.0485    0.0000 C   0  0  0  0  0  0  0  0  0  0  0  0
   16.7224    0.4515    0.0000 C   0  0  0  0  0  0  0  0  0  0  0  0
    9.3957   -1.0235    0.0000 H   0  0  0  0  0  0  0  0  0  0  0  0
   10.1928   -1.0235    0.0000 H   0  0  0  0  0  0  0  0  0  0  0  0
    9.3267    0.4264    0.0000 H   0  0  0  0  0  0  0  0  0  0  0  0
    8.5297    0.4264    0.0000 H   0  0  0  0  0  0  0  0  0  0  0  0
   11.0588    0.4264    0.0000 H   0  0  0  0  0  0  0  0  0  0  0  0
   10.2617    0.4264    0.0000 H   0  0  0  0  0  0  0  0  0  0  0  0
    7.6636   -1.0235    0.0000 H   0  0  0  0  0  0  0  0  0  0  0  0
    8.4607   -1.0235    0.0000 H   0  0  0  0  0  0  0  0  0  0  0  0
   11.1278   -1.0235    0.0000 H   0  0  0  0  0  0  0  0  0  0  0  0
   11.9248   -1.0235    0.0000 H   0  0  0  0  0  0  0  0  0  0  0  0
    7.5947    0.4264    0.0000 H   0  0  0  0  0  0  0  0  0  0  0  0
    6.7976    0.4264    0.0000 H   0  0  0  0  0  0  0  0  0  0  0  0
   12.7908    0.4264    0.0000 H   0  0  0  0  0  0  0  0  0  0  0  0
   11.9938    0.4264    0.0000 H   0  0  0  0  0  0  0  0  0  0  0  0
    5.9316   -1.0235    0.0000 H   0  0  0  0  0  0  0  0  0  0  0  0
    6.7287   -1.0235    0.0000 H   0  0  0  0  0  0  0  0  0  0  0  0
   12.8598   -1.0235    0.0000 H   0  0  0  0  0  0  0  0  0  0  0  0
   13.6569   -1.0235    0.0000 H   0  0  0  0  0  0  0  0  0  0  0  0
    5.8626    0.4264    0.0000 H   0  0  0  0  0  0  0  0  0  0  0  0
    5.0656    0.4264    0.0000 H   0  0  0  0  0  0  0  0  0  0  0  0
   14.5229    0.4264    0.0000 H   0  0  0  0  0  0  0  0  0  0  0  0
   13.7258    0.4264    0.0000 H   0  0  0  0  0  0  0  0  0  0  0  0
    4.1996   -1.0235    0.0000 H   0  0  0  0  0  0  0  0  0  0  0  0
    4.9966   -1.0235    0.0000 H   0  0  0  0  0  0  0  0  0  0  0  0
   14.5919   -1.0235    0.0000 H   0  0  0  0  0  0  0  0  0  0  0  0
   15.3889   -1.0235    0.0000 H   0  0  0  0  0  0  0  0  0  0  0  0
    4.1306    0.4264    0.0000 H   0  0  0  0  0  0  0  0  0  0  0  0
    3.3335    0.4264    0.0000 H   0  0  0  0  0  0  0  0  0  0  0  0
    2.4675   -1.0235    0.0000 H   0  0  0  0  0  0  0  0  0  0  0  0
    3.2646   -1.0235    0.0000 H   0  0  0  0  0  0  0  0  0  0  0  0
    2.3100    0.4884    0.0000 H   0  0  0  0  0  0  0  0  0  0  0  0
    1.4631    0.2615    0.0000 H   0  0  0  0  0  0  0  0  0  0  0  0
    1.6900   -0.5855    0.0000 H   0  0  0  0  0  0  0  0  0  0  0  0
   14.7364    0.8175    0.0000 H   0  0  0  0  0  0  0  0  0  0  0  0
   16.0464   -1.4515    0.0000 H   0  0  0  0  0  0  0  0  0  0  0  0
   18.1254    0.2615    0.0000 H   0  0  0  0  0  0  0  0  0  0  0  0
  1 19  1  0  0  0  0
  1 56  1  0  0  0  0
  2 19  1  0  0  0  0
  2 57  1  0  0  0  0
  3 22  1  0  0  0  0
  3 58  1  0  0  0  0
  4 22  2  0  0  0  0
  5  6  1  0  0  0  0
  5  7  1  0  0  0  0
  5 23  1  0  0  0  0
  5 24  1  0  0  0  0
  6  8  1  0  0  0  0
  6 25  1  0  0  0  0
  6 26  1  0  0  0  0
  7  9  1  0  0  0  0
  7 27  1  0  0  0  0
  7 28  1  0  0  0  0
  8 10  1  0  0  0  0
  8 29  1  0  0  0  0
  8 30  1  0  0  0  0
  9 11  1  0  0  0  0
  9 31  1  0  0  0  0
  9 32  1  0  0  0  0
 10 12  1  0  0  0  0
 10 33  1  0  0  0  0
 10 34  1  0  0  0  0
 11 13  1  0  0  0  0
 11 35  1  0  0  0  0
 11 36  1  0  0  0  0
 12 14  1  0  0  0  0
 12 37  1  0  0  0  0
 12 38  1  0  0  0  0
 13 15  1  0  0  0  0
 13 39  1  0  0  0  0
 13 40  1  0  0  0  0
 14 16  1  0  0  0  0
 14 41  1  0  0  0  0
 14 42  1  0  0  0  0
 15 17  1  0  0  0  0
 15 43  1  0  0  0  0
 15 44  1  0  0  0  0
 16 18  1  0  0  0  0
 16 45  1  0  0  0  0
 16 46  1  0  0  0  0
 17 19  1  0  0  0  0
 17 47  1  0  0  0  0
 17 48  1  0  0  0  0
 18 20  1  0  0  0  0
 18 49  1  0  0  0  0
 18 50  1  0  0  0  0
 19 22  1  0  0  0  0
 20 21  1  0  0  0  0
 20 51  1  0  0  0  0
 20 52  1  0  0  0  0
 21 53  1  0  0  0  0
 21 54  1  0  0  0  0
 21 55  1  0  0  0  0
M  END
>  <PUBCHEM_COMPOUND_CID>
20391236

>  <PUBCHEM_COMPOUND_CANONICALIZED>
1

>  <PUBCHEM_CACTVS_COMPLEXITY>
264

>  <PUBCHEM_CACTVS_HBOND_ACCEPTOR>
4

>  <PUBCHEM_CACTVS_HBOND_DONOR>
3

>  <PUBCHEM_CACTVS_ROTATABLE_BOND>
16

>  <PUBCHEM_CACTVS_SUBSKEYS>
AAADcfB4OAAAAAAAAAAAAAAAAAAAAAAAAAAAAAAAAAAAAAAAAAAAGgAACAAACASAgAACCAAAAgAIAACQCAIAAAAAAAAAAAFAAAABABIAAAAAQAAEAAABAAGIyKCAAAAAAAAAAAAAAAAAAAAAAAAAAAAAAA==

>  <PUBCHEM_IUPAC_OPENEYE_NAME>
2,2-dihydroxyoctadecanoic acid

>  <PUBCHEM_IUPAC_CAS_NAME>
2,2-dihydroxyoctadecanoic acid

>  <PUBCHEM_IUPAC_NAME>
2,2-dihydroxyoctadecanoic acid

>  <PUBCHEM_IUPAC_SYSTEMATIC_NAME>
2,2-bis(oxidanyl)octadecanoic acid

>  <PUBCHEM_IUPAC_TRADITIONAL_NAME>
2,2-dihydroxystearic acid

>  <PUBCHEM_IUPAC_INCHI>
InChI=1S/C18H36O4/c1-2-3-4-5-6-7-8-9-10-11-12-13-14-15-16-18(21,22)17(19)20/h21-22H,2-16H2,1H3,(H,19,20)

>  <PUBCHEM_IUPAC_INCHIKEY>
SXNBVULTHKFMNO-UHFFFAOYSA-N

>  <PUBCHEM_XLOGP3_AA>
6.7

>  <PUBCHEM_EXACT_MASS>
316.261

>  <PUBCHEM_MOLECULAR_FORMULA>
C18H36O4

>  <PUBCHEM_MOLECULAR_WEIGHT>
316.482

>  <PUBCHEM_OPENEYE_CAN_SMILES>
CCCCCCCCCCCCCCCCC(C(=O)O)(O)O

>  <PUBCHEM_OPENEYE_ISO_SMILES>
CCCCCCCCCCCCCCCCC(C(=O)O)(O)O

>  <PUBCHEM_CACTVS_TPSA>
77.8

>  <PUBCHEM_MONOISOTOPIC_WEIGHT>
316.261

>  <PUBCHEM_TOTAL_CHARGE>
0

>  <PUBCHEM_HEAVY_ATOM_COUNT>
22

>  <PUBCHEM_ATOM_DEF_STEREO_COUNT>
0

>  <PUBCHEM_ATOM_UDEF_STEREO_COUNT>
0

>  <PUBCHEM_BOND_DEF_STEREO_COUNT>
0

>  <PUBCHEM_BOND_UDEF_STEREO_COUNT>
0

>  <PUBCHEM_ISOTOPIC_ATOM_COUNT>
0

>  <PUBCHEM_COMPONENT_COUNT>
1

>  <PUBCHEM_CACTVS_TAUTO_COUNT>
1

>  <PUBCHEM_COORDINATE_TYPE>
1
5
255

$$$$
