20407213
 OpenBabel06101807152D

160164  0  0  1  0  0  0  0  0999 V2000
   13.3565   -1.3762    0.0000 O   0  0  0  0  0  0  0  0  0  0  0  0
   13.1454    2.2478    0.0000 O   0  0  0  0  0  0  0  0  0  0  0  0
   11.1887   -4.2880    0.0000 O   0  0  0  0  0  0  0  0  0  0  0  0
   10.6543    4.8882    0.0000 O   0  0  0  0  0  0  0  0  0  0  0  0
    7.6565   -5.1252    0.0000 O   0  0  0  0  0  0  0  0  0  0  0  0
    7.0487    5.3097    0.0000 O   0  0  0  0  0  0  0  0  0  0  0  0
    4.0158    3.3149    0.0000 O   0  0  0  0  0  0  0  0  0  0  0  0
    4.4125   -3.4960    0.0000 O   0  0  0  0  0  0  0  0  0  0  0  0
    2.9746   -0.1628    0.0000 O   0  0  0  0  0  0  0  0  0  0  0  0
   12.0024   -2.0076    0.0000 N   0  0  0  0  0  0  0  0  0  0  0  0
   12.5140    0.8937    0.0000 N   0  0  0  0  0  0  0  0  0  0  0  0
    9.7456   -3.9014    0.0000 N   0  0  0  0  0  0  0  0  0  0  0  0
   11.0410    3.4451    0.0000 N   0  0  0  0  0  0  0  0  0  0  0  0
    8.2726    4.4527    0.0000 N   0  0  0  0  0  0  0  0  0  0  0  0
    6.7995   -3.9014    0.0000 N   0  0  0  0  0  0  0  0  0  0  0  0
    5.5041    3.4451    0.0000 N   0  0  0  0  0  0  0  0  0  0  0  0
    4.5427   -2.0076    0.0000 N   0  0  0  0  0  0  0  0  0  0  0  0
    4.0311    0.8937    0.0000 N   0  0  0  0  0  0  0  0  0  0  0  0
   12.5722   -0.1046    0.0000 C   0  0  3  0  0  0  0  0  0  0  0  0
   13.5345   -0.3538    0.0000 C   0  0  0  0  0  0  0  0  0  0  0  0
   11.4053   -2.8098    0.0000 C   0  0  1  0  0  0  0  0  0  0  0  0
   14.0703    0.4835    0.0000 C   0  0  0  0  0  0  0  0  0  0  0  0
   13.4409    1.2529    0.0000 C   0  0  0  0  0  0  0  0  0  0  0  0
   12.3985   -1.0894    0.0000 C   0  0  0  0  0  0  0  0  0  0  0  0
   11.9823   -3.6192    0.0000 C   0  0  0  0  0  0  0  0  0  0  0  0
   12.9434   -2.3282    0.0000 C   0  0  0  0  0  0  0  0  0  0  0  0
   12.9310   -3.3222    0.0000 C   0  0  0  0  0  0  0  0  0  0  0  0
   12.2272    1.8517    0.0000 C   0  0  0  0  0  0  0  0  0  0  0  0
   11.7272    2.7177    0.0000 C   0  0  2  0  0  0  0  0  0  0  0  0
   10.6392   -3.4526    0.0000 C   0  0  0  0  0  0  0  0  0  0  0  0
   12.5293    3.3149    0.0000 C   0  0  0  0  0  0  0  0  0  0  0  0
   12.4132    4.3081    0.0000 C   0  0  0  0  0  0  0  0  0  0  0  0
    8.7726   -4.1320    0.0000 C   0  0  1  0  0  0  0  0  0  0  0  0
   10.2055    3.9946    0.0000 C   0  0  0  0  0  0  0  0  0  0  0  0
    9.2658    4.3366    0.0000 C   0  0  1  0  0  0  0  0  0  0  0  0
   13.2154    4.9053    0.0000 C   0  0  0  0  0  0  0  0  0  0  0  0
   11.4950    4.7042    0.0000 C   0  0  0  0  0  0  0  0  0  0  0  0
    8.8886   -5.1252    0.0000 C   0  0  0  0  0  0  0  0  0  0  0  0
    9.4964    5.3097    0.0000 C   0  0  0  0  0  0  0  0  0  0  0  0
    7.7726   -4.1320    0.0000 C   0  0  0  0  0  0  0  0  0  0  0  0
    8.7690    5.9959    0.0000 C   0  0  0  0  0  0  0  0  0  0  0  0
    6.3396    3.9946    0.0000 C   0  0  1  0  0  0  0  0  0  0  0  0
    9.8069   -5.5213    0.0000 C   0  0  0  0  0  0  0  0  0  0  0  0
    5.8908    4.8882    0.0000 C   0  0  2  0  0  0  0  0  0  0  0  0
    7.2793    4.3366    0.0000 C   0  0  0  0  0  0  0  0  0  0  0  0
    5.9059   -3.4526    0.0000 C   0  0  2  0  0  0  0  0  0  0  0  0
    8.9997    6.9689    0.0000 C   0  0  0  0  0  0  0  0  0  0  0  0
    7.8110    5.7091    0.0000 C   0  0  0  0  0  0  0  0  0  0  0  0
    4.8925    4.9464    0.0000 C   0  0  0  0  0  0  0  0  0  0  0  0
    4.3179    1.8517    0.0000 C   0  0  2  0  0  0  0  0  0  0  0  0
    6.4403    5.7237    0.0000 C   0  0  0  0  0  0  0  0  0  0  0  0
    4.1466   -1.0894    0.0000 C   0  0  1  0  0  0  0  0  0  0  0  0
    5.3564   -4.2880    0.0000 C   0  0  0  0  0  0  0  0  0  0  0  0
    4.8179    2.7177    0.0000 C   0  0  0  0  0  0  0  0  0  0  0  0
    3.3997    2.2478    0.0000 C   0  0  0  0  0  0  0  0  0  0  0  0
    9.9230   -6.5145    0.0000 C   0  0  0  0  0  0  0  0  0  0  0  0
   10.6090   -4.9241    0.0000 C   0  0  0  0  0  0  0  0  0  0  0  0
    5.1398   -2.8098    0.0000 C   0  0  0  0  0  0  0  0  0  0  0  0
    3.1886   -1.3762    0.0000 C   0  0  0  0  0  0  0  0  0  0  0  0
    3.9730   -0.1046    0.0000 C   0  0  0  0  0  0  0  0  0  0  0  0
    2.9580   -2.3493    0.0000 C   0  0  0  0  0  0  0  0  0  0  0  0
    4.4437    5.8400    0.0000 C   0  0  0  0  0  0  0  0  0  0  0  0
    5.8052   -5.1817    0.0000 C   0  0  0  0  0  0  0  0  0  0  0  0
   10.8412   -6.9106    0.0000 C   0  0  0  0  0  0  0  0  0  0  0  0
   11.5272   -5.3202    0.0000 C   0  0  0  0  0  0  0  0  0  0  0  0
    2.5976    1.6506    0.0000 C   0  0  0  0  0  0  0  0  0  0  0  0
    3.2836    3.2410    0.0000 C   0  0  0  0  0  0  0  0  0  0  0  0
   11.6433   -6.3134    0.0000 C   0  0  0  0  0  0  0  0  0  0  0  0
    2.0000   -2.6361    0.0000 C   0  0  0  0  0  0  0  0  0  0  0  0
    3.6854   -3.0355    0.0000 C   0  0  0  0  0  0  0  0  0  0  0  0
    5.2557   -6.0172    0.0000 C   0  0  0  0  0  0  0  0  0  0  0  0
    6.8035   -5.2398    0.0000 C   0  0  0  0  0  0  0  0  0  0  0  0
    5.7045   -6.9108    0.0000 C   0  0  0  0  0  0  0  0  0  0  0  0
    7.2523   -6.1334    0.0000 C   0  0  0  0  0  0  0  0  0  0  0  0
    6.7028   -6.9689    0.0000 C   0  0  0  0  0  0  0  0  0  0  0  0
   11.7236   -0.0552    0.0000 H   0  0  0  0  0  0  0  0  0  0  0  0
   13.3169   -0.9344    0.0000 H   0  0  0  0  0  0  0  0  0  0  0  0
   14.0890   -0.6313    0.0000 H   0  0  0  0  0  0  0  0  0  0  0  0
   10.7870   -2.2265    0.0000 H   0  0  0  0  0  0  0  0  0  0  0  0
   14.5545    0.0963    0.0000 H   0  0  0  0  0  0  0  0  0  0  0  0
   14.5063    0.9243    0.0000 H   0  0  0  0  0  0  0  0  0  0  0  0
   13.9594    1.5929    0.0000 H   0  0  0  0  0  0  0  0  0  0  0  0
   13.1573    1.8043    0.0000 H   0  0  0  0  0  0  0  0  0  0  0  0
   11.4424   -3.9241    0.0000 H   0  0  0  0  0  0  0  0  0  0  0  0
   12.2287   -4.1882    0.0000 H   0  0  0  0  0  0  0  0  0  0  0  0
   13.5591   -2.4011    0.0000 H   0  0  0  0  0  0  0  0  0  0  0  0
   13.0806   -1.7236    0.0000 H   0  0  0  0  0  0  0  0  0  0  0  0
   13.0530   -3.9301    0.0000 H   0  0  0  0  0  0  0  0  0  0  0  0
   13.5483   -3.2648    0.0000 H   0  0  0  0  0  0  0  0  0  0  0  0
   11.7813    3.3354    0.0000 H   0  0  0  0  0  0  0  0  0  0  0  0
   12.8076    2.7608    0.0000 H   0  0  0  0  0  0  0  0  0  0  0  0
   13.1233    3.4927    0.0000 H   0  0  0  0  0  0  0  0  0  0  0  0
   12.3413    4.9239    0.0000 H   0  0  0  0  0  0  0  0  0  0  0  0
    9.9576   -4.4840    0.0000 H   0  0  0  0  0  0  0  0  0  0  0  0
   11.4395    3.9200    0.0000 H   0  0  0  0  0  0  0  0  0  0  0  0
    9.2804   -4.4876    0.0000 H   0  0  0  0  0  0  0  0  0  0  0  0
    8.9102    4.8445    0.0000 H   0  0  0  0  0  0  0  0  0  0  0  0
   13.5856    4.4079    0.0000 H   0  0  0  0  0  0  0  0  0  0  0  0
   13.7127    5.2755    0.0000 H   0  0  0  0  0  0  0  0  0  0  0  0
   12.8451    5.4026    0.0000 H   0  0  0  0  0  0  0  0  0  0  0  0
   11.7406    5.2735    0.0000 H   0  0  0  0  0  0  0  0  0  0  0  0
   10.9257    4.9498    0.0000 H   0  0  0  0  0  0  0  0  0  0  0  0
   11.2495    4.1349    0.0000 H   0  0  0  0  0  0  0  0  0  0  0  0
    8.2697   -5.0892    0.0000 H   0  0  0  0  0  0  0  0  0  0  0  0
    8.7457   -5.7285    0.0000 H   0  0  0  0  0  0  0  0  0  0  0  0
   10.0657    5.0641    0.0000 H   0  0  0  0  0  0  0  0  0  0  0  0
    9.8371    5.8276    0.0000 H   0  0  0  0  0  0  0  0  0  0  0  0
    8.3181    6.4214    0.0000 H   0  0  0  0  0  0  0  0  0  0  0  0
    8.2726    5.0727    0.0000 H   0  0  0  0  0  0  0  0  0  0  0  0
    5.5186    4.2146    0.0000 H   0  0  0  0  0  0  0  0  0  0  0  0
    6.5098    4.8522    0.0000 H   0  0  0  0  0  0  0  0  0  0  0  0
    6.5875   -4.4840    0.0000 H   0  0  0  0  0  0  0  0  0  0  0  0
    6.0664   -4.0514    0.0000 H   0  0  0  0  0  0  0  0  0  0  0  0
    9.6029    6.8260    0.0000 H   0  0  0  0  0  0  0  0  0  0  0  0
    9.1426    7.5722    0.0000 H   0  0  0  0  0  0  0  0  0  0  0  0
    8.3964    7.1119    0.0000 H   0  0  0  0  0  0  0  0  0  0  0  0
    7.6332    6.3030    0.0000 H   0  0  0  0  0  0  0  0  0  0  0  0
    7.2171    5.5313    0.0000 H   0  0  0  0  0  0  0  0  0  0  0  0
    7.9889    5.1151    0.0000 H   0  0  0  0  0  0  0  0  0  0  0  0
    5.1056    3.9200    0.0000 H   0  0  0  0  0  0  0  0  0  0  0  0
    4.2986    4.7686    0.0000 H   0  0  0  0  0  0  0  0  0  0  0  0
    4.9645    4.3306    0.0000 H   0  0  0  0  0  0  0  0  0  0  0  0
    3.7560    1.5897    0.0000 H   0  0  0  0  0  0  0  0  0  0  0  0
    6.9583    5.3830    0.0000 H   0  0  0  0  0  0  0  0  0  0  0  0
    6.7810    6.2417    0.0000 H   0  0  0  0  0  0  0  0  0  0  0  0
    5.9223    6.0644    0.0000 H   0  0  0  0  0  0  0  0  0  0  0  0
    3.8846   -1.6513    0.0000 H   0  0  0  0  0  0  0  0  0  0  0  0
    4.9054   -3.8626    0.0000 H   0  0  0  0  0  0  0  0  0  0  0  0
    4.8590   -4.6583    0.0000 H   0  0  0  0  0  0  0  0  0  0  0  0
    3.8970    2.6180    0.0000 H   0  0  0  0  0  0  0  0  0  0  0  0
    9.4256   -6.8848    0.0000 H   0  0  0  0  0  0  0  0  0  0  0  0
   10.5370   -4.3083    0.0000 H   0  0  0  0  0  0  0  0  0  0  0  0
    3.1166   -0.7604    0.0000 H   0  0  0  0  0  0  0  0  0  0  0  0
    2.5697   -1.3402    0.0000 H   0  0  0  0  0  0  0  0  0  0  0  0
    4.0057   -2.3176    0.0000 H   0  0  0  0  0  0  0  0  0  0  0  0
    3.4205    1.0014    0.0000 H   0  0  0  0  0  0  0  0  0  0  0  0
    3.5519   -2.1715    0.0000 H   0  0  0  0  0  0  0  0  0  0  0  0
    4.9978    6.1182    0.0000 H   0  0  0  0  0  0  0  0  0  0  0  0
    4.1655    6.3940    0.0000 H   0  0  0  0  0  0  0  0  0  0  0  0
    3.8897    5.5617    0.0000 H   0  0  0  0  0  0  0  0  0  0  0  0
    3.8994    3.3130    0.0000 H   0  0  0  0  0  0  0  0  0  0  0  0
    3.2116    3.8568    0.0000 H   0  0  0  0  0  0  0  0  0  0  0  0
    2.6678    3.1690    0.0000 H   0  0  0  0  0  0  0  0  0  0  0  0
    2.2273    2.1479    0.0000 H   0  0  0  0  0  0  0  0  0  0  0  0
    2.1002    1.2804    0.0000 H   0  0  0  0  0  0  0  0  0  0  0  0
    2.9678    1.1533    0.0000 H   0  0  0  0  0  0  0  0  0  0  0  0
   10.9132   -7.5264    0.0000 H   0  0  0  0  0  0  0  0  0  0  0  0
   12.0245   -4.9500    0.0000 H   0  0  0  0  0  0  0  0  0  0  0  0
   12.2126   -6.5590    0.0000 H   0  0  0  0  0  0  0  0  0  0  0  0
    3.2599   -3.4865    0.0000 H   0  0  0  0  0  0  0  0  0  0  0  0
    4.1363   -3.4610    0.0000 H   0  0  0  0  0  0  0  0  0  0  0  0
    4.1108   -2.5845    0.0000 H   0  0  0  0  0  0  0  0  0  0  0  0
    1.8222   -2.0421    0.0000 H   0  0  0  0  0  0  0  0  0  0  0  0
    1.4060   -2.8139    0.0000 H   0  0  0  0  0  0  0  0  0  0  0  0
    2.1778   -3.2300    0.0000 H   0  0  0  0  0  0  0  0  0  0  0  0
    4.6367   -5.9811    0.0000 H   0  0  0  0  0  0  0  0  0  0  0  0
    7.1442   -4.7218    0.0000 H   0  0  0  0  0  0  0  0  0  0  0  0
    5.3638   -7.4288    0.0000 H   0  0  0  0  0  0  0  0  0  0  0  0
    7.8712   -6.1695    0.0000 H   0  0  0  0  0  0  0  0  0  0  0  0
    6.9810   -7.5230    0.0000 H   0  0  0  0  0  0  0  0  0  0  0  0
  1 24  2  0  0  0  0
  2 28  2  0  0  0  0
  3 30  2  0  0  0  0
  4 34  2  0  0  0  0
  5 40  2  0  0  0  0
  6 45  2  0  0  0  0
  7 54  2  0  0  0  0
  8 58  2  0  0  0  0
  9 60  2  0  0  0  0
 10 21  1  0  0  0  0
 10 24  1  0  0  0  0
 10 26  1  0  0  0  0
 11 19  1  0  0  0  0
 11 23  1  0  0  0  0
 11 28  1  0  0  0  0
 12 30  1  0  0  0  0
 12 33  1  0  0  0  0
 12 94  1  0  0  0  0
 13 29  1  0  0  0  0
 13 34  1  0  0  0  0
 13 95  1  0  0  0  0
 14 35  1  0  0  0  0
 14 45  1  0  0  0  0
 14109  1  0  0  0  0
 15 40  1  0  0  0  0
 15 46  1  0  0  0  0
 15112  1  0  0  0  0
 16 42  1  0  0  0  0
 16 54  1  0  0  0  0
 16120  1  0  0  0  0
 17 52  1  0  0  0  0
 17 58  1  0  0  0  0
 17135  1  0  0  0  0
 18 50  1  0  0  0  0
 18 60  1  0  0  0  0
 18136  1  0  0  0  0
 19 20  1  0  0  0  0
 19 24  1  0  0  0  0
 19 76  1  0  0  0  0
 20 22  1  0  0  0  0
 20 77  1  0  0  0  0
 20 78  1  0  0  0  0
 21 25  1  0  0  0  0
 21 30  1  0  0  0  0
 21 79  1  6  0  0  0
 22 23  1  0  0  0  0
 22 80  1  0  0  0  0
 22 81  1  0  0  0  0
 23 82  1  0  0  0  0
 23 83  1  0  0  0  0
 25 27  1  0  0  0  0
 25 84  1  0  0  0  0
 25 85  1  0  0  0  0
 26 27  1  0  0  0  0
 26 86  1  0  0  0  0
 26 87  1  0  0  0  0
 27 88  1  0  0  0  0
 27 89  1  0  0  0  0
 28 29  1  0  0  0  0
 29 31  1  0  0  0  0
 29 90  1  6  0  0  0
 31 32  1  0  0  0  0
 31 91  1  0  0  0  0
 31 92  1  0  0  0  0
 32 36  1  0  0  0  0
 32 37  1  0  0  0  0
 32 93  1  0  0  0  0
 33 38  1  0  0  0  0
 33 40  1  0  0  0  0
 33 96  1  6  0  0  0
 34 35  1  0  0  0  0
 35 39  1  0  0  0  0
 35 97  1  1  0  0  0
 36 98  1  0  0  0  0
 36 99  1  0  0  0  0
 36100  1  0  0  0  0
 37101  1  0  0  0  0
 37102  1  0  0  0  0
 37103  1  0  0  0  0
 38 43  1  0  0  0  0
 38104  1  0  0  0  0
 38105  1  0  0  0  0
 39 41  1  0  0  0  0
 39106  1  0  0  0  0
 39107  1  0  0  0  0
 41 47  1  0  0  0  0
 41 48  1  0  0  0  0
 41108  1  0  0  0  0
 42 44  1  0  0  0  0
 42 45  1  0  0  0  0
 42110  1  6  0  0  0
 43 56  2  0  0  0  0
 43 57  1  0  0  0  0
 44 49  1  0  0  0  0
 44 51  1  0  0  0  0
 44111  1  1  0  0  0
 46 53  1  0  0  0  0
 46 58  1  0  0  0  0
 46113  1  1  0  0  0
 47114  1  0  0  0  0
 47115  1  0  0  0  0
 47116  1  0  0  0  0
 48117  1  0  0  0  0
 48118  1  0  0  0  0
 48119  1  0  0  0  0
 49 62  1  0  0  0  0
 49121  1  0  0  0  0
 49122  1  0  0  0  0
 50 54  1  0  0  0  0
 50 55  1  0  0  0  0
 50123  1  6  0  0  0
 51124  1  0  0  0  0
 51125  1  0  0  0  0
 51126  1  0  0  0  0
 52 59  1  0  0  0  0
 52 60  1  0  0  0  0
 52127  1  6  0  0  0
 53 63  1  0  0  0  0
 53128  1  0  0  0  0
 53129  1  0  0  0  0
 55 66  1  0  0  0  0
 55 67  1  0  0  0  0
 55130  1  0  0  0  0
 56 64  1  0  0  0  0
 56131  1  0  0  0  0
 57 65  2  0  0  0  0
 57132  1  0  0  0  0
 59 61  1  0  0  0  0
 59133  1  0  0  0  0
 59134  1  0  0  0  0
 61 69  1  0  0  0  0
 61 70  1  0  0  0  0
 61137  1  0  0  0  0
 62138  1  0  0  0  0
 62139  1  0  0  0  0
 62140  1  0  0  0  0
 63 71  2  0  0  0  0
 63 72  1  0  0  0  0
 64 68  2  0  0  0  0
 64147  1  0  0  0  0
 65 68  1  0  0  0  0
 65148  1  0  0  0  0
 66144  1  0  0  0  0
 66145  1  0  0  0  0
 66146  1  0  0  0  0
 67141  1  0  0  0  0
 67142  1  0  0  0  0
 67143  1  0  0  0  0
 68149  1  0  0  0  0
 69153  1  0  0  0  0
 69154  1  0  0  0  0
 69155  1  0  0  0  0
 70150  1  0  0  0  0
 70151  1  0  0  0  0
 70152  1  0  0  0  0
 71 73  1  0  0  0  0
 71156  1  0  0  0  0
 72 74  2  0  0  0  0
 72157  1  0  0  0  0
 73 75  2  0  0  0  0
 73158  1  0  0  0  0
 74 75  1  0  0  0  0
 74159  1  0  0  0  0
 75160  1  0  0  0  0
M  END
>  <PUBCHEM_COMPOUND_CID>
20407213

>  <PUBCHEM_COMPOUND_CANONICALIZED>
1

>  <PUBCHEM_CACTVS_COMPLEXITY>
1970

>  <PUBCHEM_CACTVS_HBOND_ACCEPTOR>
9

>  <PUBCHEM_CACTVS_HBOND_DONOR>
7

>  <PUBCHEM_CACTVS_ROTATABLE_BOND>
13

>  <PUBCHEM_CACTVS_SUBSKEYS>
AAADcfB//AAAAAAAAAAAAAAAAAAAAWLAAAAwYAAAAAAAAAABQAAAHgAQAAAADSjBmAQyAIPAAACIAiFSEAACAAAgAAAIiIGIAIgIYDKAkTGUIAAglgCIiAcYiYCOAAAAAAAAAAAAAAAAAAAAAAAAAAAAAA==

>  <PUBCHEM_IUPAC_INCHI>
InChI=1S/C57H85N9O9/c1-11-37(10)48-55(73)61-40(28-33(2)3)49(67)62-44(30-35(6)7)56(74)66-27-19-25-46(66)57(75)65-26-18-24-45(65)53(71)60-43(32-39-22-16-13-17-23-39)51(69)59-42(31-38-20-14-12-15-21-38)50(68)58-41(29-34(4)5)52(70)63-47(36(8)9)54(72)64-48/h12-17,20-23,33-37,40-48H,11,18-19,24-32H2,1-10H3,(H,58,68)(H,59,69)(H,60,71)(H,61,73)(H,62,67)(H,63,70)(H,64,72)/t37-,40+,41-,42+,43-,44-,45-,46?,47-,48-/m0/s1

>  <PUBCHEM_IUPAC_INCHIKEY>
DTEHCBOGAUCOJT-KZUCXXACSA-N

>  <PUBCHEM_XLOGP3_AA>
7.8

>  <PUBCHEM_EXACT_MASS>
1039.647

>  <PUBCHEM_MOLECULAR_FORMULA>
C57H85N9O9

>  <PUBCHEM_MOLECULAR_WEIGHT>
1040.361

>  <PUBCHEM_OPENEYE_CAN_SMILES>
CCC(C)C1C(=O)NC(C(=O)NC(C(=O)N2CCCC2C(=O)N3CCCC3C(=O)NC(C(=O)NC(C(=O)NC(C(=O)NC(C(=O)N1)C(C)C)CC(C)C)CC4=CC=CC=C4)CC5=CC=CC=C5)CC(C)C)CC(C)C

>  <PUBCHEM_OPENEYE_ISO_SMILES>
CC[C@H](C)[C@H]1C(=O)N[C@@H](C(=O)N[C@H](C(=O)N2CCCC2C(=O)N3CCC[C@H]3C(=O)N[C@H](C(=O)N[C@@H](C(=O)N[C@H](C(=O)N[C@H](C(=O)N1)C(C)C)CC(C)C)CC4=CC=CC=C4)CC5=CC=CC=C5)CC(C)C)CC(C)C

>  <PUBCHEM_CACTVS_TPSA>
244

>  <PUBCHEM_MONOISOTOPIC_WEIGHT>
1039.647

>  <PUBCHEM_TOTAL_CHARGE>
0

>  <PUBCHEM_HEAVY_ATOM_COUNT>
75

>  <PUBCHEM_ATOM_DEF_STEREO_COUNT>
9

>  <PUBCHEM_ATOM_UDEF_STEREO_COUNT>
1

>  <PUBCHEM_BOND_DEF_STEREO_COUNT>
0

>  <PUBCHEM_BOND_UDEF_STEREO_COUNT>
0

>  <PUBCHEM_ISOTOPIC_ATOM_COUNT>
0

>  <PUBCHEM_COMPONENT_COUNT>
1

>  <PUBCHEM_CACTVS_TAUTO_COUNT>
1001

>  <PUBCHEM_COORDINATE_TYPE>
1
5
255

>  <PUBCHEM_BONDANNOTATIONS>
19  76  3
21  79  6
29  31  5
33  38  5
35  39  6
42  110  6
43  56  8
43  57  8
44  51  6
46  53  6
50  55  5
52  59  5
56  64  8
57  65  8
63  71  8
63  72  8
64  68  8
65  68  8
71  73  8
72  74  8
73  75  8
74  75  8

$$$$
