20758205
 OpenBabel06101807152D

 72 74  0  0  1  0  0  0  0  0999 V2000
    8.0622   -0.5950    0.0000 O   0  0  0  0  0  0  0  0  0  0  0  0
    6.3301   -2.5950    0.0000 O   0  0  0  0  0  0  0  0  0  0  0  0
    9.7942   -0.5950    0.0000 O   0  0  0  0  0  0  0  0  0  0  0  0
    5.4641   -1.0950    0.0000 O   0  0  0  0  0  0  0  0  0  0  0  0
   10.6603    1.9050    0.0000 O   0  0  0  0  0  0  0  0  0  0  0  0
    8.0622   -3.5950    0.0000 O   0  0  0  0  0  0  0  0  0  0  0  0
    9.7942   -2.5950    0.0000 O   0  0  0  0  0  0  0  0  0  0  0  0
    2.8660   -0.5950    0.0000 O   0  0  0  0  0  0  0  0  0  0  0  0
    8.0622    0.4050    0.0000 O   0  0  0  0  0  0  0  0  0  0  0  0
    4.5981   -3.5950    0.0000 O   0  0  0  0  0  0  0  0  0  0  0  0
    2.8660   -2.5950    0.0000 O   0  0  0  0  0  0  0  0  0  0  0  0
    8.0622    2.4050    0.0000 O   0  0  0  0  0  0  0  0  0  0  0  0
    9.7942    3.4050    0.0000 O   0  0  0  0  0  0  0  0  0  0  0  0
    6.3301    0.4050    0.0000 O   0  0  0  0  0  0  0  0  0  0  0  0
   12.3923    0.9050    0.0000 O   0  0  0  0  0  0  0  0  0  0  0  0
    3.7320    0.9050    0.0000 O   0  0  0  0  0  0  0  0  0  0  0  0
    7.1962   -2.0950    0.0000 C   0  0  3  0  0  0  0  0  0  0  0  0
    8.0622   -2.5950    0.0000 C   0  0  3  0  0  0  0  0  0  0  0  0
    8.9282   -2.0950    0.0000 C   0  0  3  0  0  0  0  0  0  0  0  0
    7.1962   -1.0950    0.0000 C   0  0  3  0  0  0  0  0  0  0  0  0
    8.9282   -1.0950    0.0000 C   0  0  3  0  0  0  0  0  0  0  0  0
    9.7942    0.4050    0.0000 C   0  0  3  0  0  0  0  0  0  0  0  0
    5.4641   -2.0950    0.0000 C   0  0  3  0  0  0  0  0  0  0  0  0
    8.9282    0.9050    0.0000 C   0  0  3  0  0  0  0  0  0  0  0  0
    4.5981   -2.5950    0.0000 C   0  0  3  0  0  0  0  0  0  0  0  0
   10.6603    0.9050    0.0000 C   0  0  3  0  0  0  0  0  0  0  0  0
    3.7320   -2.0950    0.0000 C   0  0  3  0  0  0  0  0  0  0  0  0
    3.7320   -1.0950    0.0000 C   0  0  3  0  0  0  0  0  0  0  0  0
    4.5981   -0.5950    0.0000 C   0  0  3  0  0  0  0  0  0  0  0  0
    8.9282    1.9050    0.0000 C   0  0  3  0  0  0  0  0  0  0  0  0
    9.7942    2.4050    0.0000 C   0  0  3  0  0  0  0  0  0  0  0  0
    6.3301   -0.5950    0.0000 C   0  0  0  0  0  0  0  0  0  0  0  0
   11.5263    0.4050    0.0000 C   0  0  0  0  0  0  0  0  0  0  0  0
    4.5981    0.4050    0.0000 C   0  0  0  0  0  0  0  0  0  0  0  0
    2.0000   -1.0950    0.0000 C   0  0  0  0  0  0  0  0  0  0  0  0
   10.6603    3.9050    0.0000 C   0  0  0  0  0  0  0  0  0  0  0  0
    6.6592   -1.7850    0.0000 H   0  0  0  0  0  0  0  0  0  0  0  0
    7.5252   -2.9050    0.0000 H   0  0  0  0  0  0  0  0  0  0  0  0
    9.4651   -1.7850    0.0000 H   0  0  0  0  0  0  0  0  0  0  0  0
    7.1962   -0.4750    0.0000 H   0  0  0  0  0  0  0  0  0  0  0  0
    8.9282   -0.4750    0.0000 H   0  0  0  0  0  0  0  0  0  0  0  0
    9.2573    0.0950    0.0000 H   0  0  0  0  0  0  0  0  0  0  0  0
    5.4641   -2.7150    0.0000 H   0  0  0  0  0  0  0  0  0  0  0  0
    8.3913    1.2150    0.0000 H   0  0  0  0  0  0  0  0  0  0  0  0
    4.0611   -2.9050    0.0000 H   0  0  0  0  0  0  0  0  0  0  0  0
   11.1972    1.2150    0.0000 H   0  0  0  0  0  0  0  0  0  0  0  0
    3.1951   -1.7850    0.0000 H   0  0  0  0  0  0  0  0  0  0  0  0
    3.7320   -0.4750    0.0000 H   0  0  0  0  0  0  0  0  0  0  0  0
    5.1350   -0.2850    0.0000 H   0  0  0  0  0  0  0  0  0  0  0  0
    8.9282    2.5250    0.0000 H   0  0  0  0  0  0  0  0  0  0  0  0
   10.3312    2.7150    0.0000 H   0  0  0  0  0  0  0  0  0  0  0  0
    5.7196   -0.4873    0.0000 H   0  0  0  0  0  0  0  0  0  0  0  0
    6.1181   -1.1776    0.0000 H   0  0  0  0  0  0  0  0  0  0  0  0
   11.1278   -0.0699    0.0000 H   0  0  0  0  0  0  0  0  0  0  0  0
   11.9248   -0.0699    0.0000 H   0  0  0  0  0  0  0  0  0  0  0  0
    8.5991   -3.9050    0.0000 H   0  0  0  0  0  0  0  0  0  0  0  0
    5.2087    0.2973    0.0000 H   0  0  0  0  0  0  0  0  0  0  0  0
    4.8101    0.9876    0.0000 H   0  0  0  0  0  0  0  0  0  0  0  0
   10.3312   -2.2850    0.0000 H   0  0  0  0  0  0  0  0  0  0  0  0
    7.5252    0.7150    0.0000 H   0  0  0  0  0  0  0  0  0  0  0  0
    4.0611   -3.9050    0.0000 H   0  0  0  0  0  0  0  0  0  0  0  0
    2.3291   -2.2850    0.0000 H   0  0  0  0  0  0  0  0  0  0  0  0
    8.0622    3.0250    0.0000 H   0  0  0  0  0  0  0  0  0  0  0  0
    5.7932    0.7150    0.0000 H   0  0  0  0  0  0  0  0  0  0  0  0
    1.6900   -0.5581    0.0000 H   0  0  0  0  0  0  0  0  0  0  0  0
    1.4631   -1.4050    0.0000 H   0  0  0  0  0  0  0  0  0  0  0  0
    2.3100   -1.6319    0.0000 H   0  0  0  0  0  0  0  0  0  0  0  0
   12.9292    0.5950    0.0000 H   0  0  0  0  0  0  0  0  0  0  0  0
    3.7320    1.5250    0.0000 H   0  0  0  0  0  0  0  0  0  0  0  0
   10.9703    3.3681    0.0000 H   0  0  0  0  0  0  0  0  0  0  0  0
   11.1972    4.2150    0.0000 H   0  0  0  0  0  0  0  0  0  0  0  0
   10.3503    4.4419    0.0000 H   0  0  0  0  0  0  0  0  0  0  0  0
  1 20  1  0  0  0  0
  1 21  1  0  0  0  0
  2 17  1  0  0  0  0
  2 23  1  0  0  0  0
  3 21  1  0  0  0  0
  3 22  1  0  0  0  0
  4 23  1  0  0  0  0
  4 29  1  0  0  0  0
  5 26  1  0  0  0  0
  5 31  1  0  0  0  0
  6 18  1  0  0  0  0
  6 56  1  0  0  0  0
  7 19  1  0  0  0  0
  7 59  1  0  0  0  0
  8 28  1  0  0  0  0
  8 35  1  0  0  0  0
  9 24  1  0  0  0  0
  9 60  1  0  0  0  0
 10 25  1  0  0  0  0
 10 61  1  0  0  0  0
 11 27  1  0  0  0  0
 11 62  1  0  0  0  0
 12 30  1  0  0  0  0
 12 63  1  0  0  0  0
 13 31  1  0  0  0  0
 13 36  1  0  0  0  0
 14 32  1  0  0  0  0
 14 64  1  0  0  0  0
 15 33  1  0  0  0  0
 15 68  1  0  0  0  0
 16 34  1  0  0  0  0
 16 69  1  0  0  0  0
 17 18  1  0  0  0  0
 17 20  1  0  0  0  0
 17 37  1  0  0  0  0
 18 19  1  0  0  0  0
 18 38  1  0  0  0  0
 19 21  1  0  0  0  0
 19 39  1  0  0  0  0
 20 32  1  0  0  0  0
 20 40  1  0  0  0  0
 21 41  1  0  0  0  0
 22 24  1  0  0  0  0
 22 26  1  0  0  0  0
 22 42  1  0  0  0  0
 23 25  1  0  0  0  0
 23 43  1  0  0  0  0
 24 30  1  0  0  0  0
 24 44  1  0  0  0  0
 25 27  1  0  0  0  0
 25 45  1  0  0  0  0
 26 33  1  0  0  0  0
 26 46  1  0  0  0  0
 27 28  1  0  0  0  0
 27 47  1  0  0  0  0
 28 29  1  0  0  0  0
 28 48  1  0  0  0  0
 29 34  1  0  0  0  0
 29 49  1  0  0  0  0
 30 31  1  0  0  0  0
 30 50  1  0  0  0  0
 31 51  1  0  0  0  0
 32 52  1  0  0  0  0
 32 53  1  0  0  0  0
 33 54  1  0  0  0  0
 33 55  1  0  0  0  0
 34 57  1  0  0  0  0
 34 58  1  0  0  0  0
 35 65  1  0  0  0  0
 35 66  1  0  0  0  0
 35 67  1  0  0  0  0
 36 70  1  0  0  0  0
 36 71  1  0  0  0  0
 36 72  1  0  0  0  0
M  END
>  <PUBCHEM_COMPOUND_CID>
20758205

>  <PUBCHEM_COMPOUND_CANONICALIZED>
1

>  <PUBCHEM_CACTVS_COMPLEXITY>
672

>  <PUBCHEM_CACTVS_HBOND_ACCEPTOR>
16

>  <PUBCHEM_CACTVS_HBOND_DONOR>
9

>  <PUBCHEM_CACTVS_ROTATABLE_BOND>
9

>  <PUBCHEM_CACTVS_SUBSKEYS>
AAADcfB4PgAAAAAAAAAAAAAAAAAAAAAAAAAkSJAAAAAAAAAAAAAAGgAACAAACBSwgAMCCAAABgAAAAAAAAAAAAAAAAAAAAAAAAAREAIAAAAiQAAFAAAHAAHAYAwAAAAAAAAAAAAAAAAAAAAAAAAAAAAAAA==

>  <PUBCHEM_IUPAC_OPENEYE_NAME>
2-[6-[4,5-dihydroxy-2-(hydroxymethyl)-6-methoxy-tetrahydropyran-3-yl]oxy-4,5-dihydroxy-2-(hydroxymethyl)tetrahydropyran-3-yl]oxy-6-(hydroxymethyl)-5-methoxy-tetrahydropyran-3,4-diol

>  <PUBCHEM_IUPAC_CAS_NAME>
2-[[6-[[4,5-dihydroxy-2-(hydroxymethyl)-6-methoxy-3-oxanyl]oxy]-4,5-dihydroxy-2-(hydroxymethyl)-3-oxanyl]oxy]-6-(hydroxymethyl)-5-methoxyoxane-3,4-diol

>  <PUBCHEM_IUPAC_NAME>
2-[6-[4,5-dihydroxy-2-(hydroxymethyl)-6-methoxyoxan-3-yl]oxy-4,5-dihydroxy-2-(hydroxymethyl)oxan-3-yl]oxy-6-(hydroxymethyl)-5-methoxyoxane-3,4-diol

>  <PUBCHEM_IUPAC_SYSTEMATIC_NAME>
6-(hydroxymethyl)-2-[2-(hydroxymethyl)-6-[2-(hydroxymethyl)-6-methoxy-4,5-bis(oxidanyl)oxan-3-yl]oxy-4,5-bis(oxidanyl)oxan-3-yl]oxy-5-methoxy-oxane-3,4-diol

>  <PUBCHEM_IUPAC_TRADITIONAL_NAME>
2-[6-(4,5-dihydroxy-6-methoxy-2-methylol-tetrahydropyran-3-yl)oxy-4,5-dihydroxy-2-methylol-tetrahydropyran-3-yl]oxy-5-methoxy-6-methylol-tetrahydropyran-3,4-diol

>  <PUBCHEM_IUPAC_INCHI>
InChI=1S/C20H36O16/c1-30-15-6(3-21)33-19(13(28)9(15)24)36-17-8(5-23)34-20(14(29)11(17)26)35-16-7(4-22)32-18(31-2)12(27)10(16)25/h6-29H,3-5H2,1-2H3

>  <PUBCHEM_IUPAC_INCHIKEY>
HYRUXGRHTJRKNG-UHFFFAOYSA-N

>  <PUBCHEM_XLOGP3_AA>
-6.4

>  <PUBCHEM_EXACT_MASS>
532.2

>  <PUBCHEM_MOLECULAR_FORMULA>
C20H36O16

>  <PUBCHEM_MOLECULAR_WEIGHT>
532.492

>  <PUBCHEM_OPENEYE_CAN_SMILES>
COC1C(OC(C(C1O)O)OC2C(OC(C(C2O)O)OC3C(OC(C(C3O)O)OC)CO)CO)CO

>  <PUBCHEM_OPENEYE_ISO_SMILES>
COC1C(OC(C(C1O)O)OC2C(OC(C(C2O)O)OC3C(OC(C(C3O)O)OC)CO)CO)CO

>  <PUBCHEM_CACTVS_TPSA>
247

>  <PUBCHEM_MONOISOTOPIC_WEIGHT>
532.2

>  <PUBCHEM_TOTAL_CHARGE>
0

>  <PUBCHEM_HEAVY_ATOM_COUNT>
36

>  <PUBCHEM_ATOM_DEF_STEREO_COUNT>
0

>  <PUBCHEM_ATOM_UDEF_STEREO_COUNT>
15

>  <PUBCHEM_BOND_DEF_STEREO_COUNT>
0

>  <PUBCHEM_BOND_UDEF_STEREO_COUNT>
0

>  <PUBCHEM_ISOTOPIC_ATOM_COUNT>
0

>  <PUBCHEM_COMPONENT_COUNT>
1

>  <PUBCHEM_CACTVS_TAUTO_COUNT>
1

>  <PUBCHEM_COORDINATE_TYPE>
1
5
255

>  <PUBCHEM_BONDANNOTATIONS>
25  10  3
27  11  3
30  12  3
31  13  3
17  2  3
23  2  3
20  32  3
26  33  3
29  34  3
21  3  3
22  3  3
18  6  3
19  7  3
28  8  3
24  9  3

$$$$
