21159064
 OpenBabel06101807152D

 39 39  0  0  0  0  0  0  0  0999 V2000
    5.3710   -0.8711    0.0000 C   0  0  0  0  0  0  0  0  0  0  0  0
    4.7162   -1.6268    0.0000 C   0  0  0  0  0  0  0  0  0  0  0  0
    5.5133    0.1188    0.0000 C   0  0  0  0  0  0  0  0  0  0  0  0
    5.6981   -1.8160    0.0000 C   0  0  0  0  0  0  0  0  0  0  0  0
    6.3608   -1.0134    0.0000 C   0  0  0  0  0  0  0  0  0  0  0  0
    2.1423   -0.8711    0.0000 C   0  0  0  0  0  0  0  0  0  0  0  0
    3.7567   -1.9085    0.0000 C   0  0  0  0  0  0  0  0  0  0  0  0
    2.0000    0.1188    0.0000 C   0  0  0  0  0  0  0  0  0  0  0  0
    2.7972   -1.6268    0.0000 C   0  0  0  0  0  0  0  0  0  0  0  0
    2.4154    1.0284    0.0000 C   0  0  0  0  0  0  0  0  0  0  0  0
    4.2567    1.5690    0.0000 C   0  0  0  0  0  0  0  0  0  0  0  0
    5.0979    1.0284    0.0000 C   0  0  0  0  0  0  0  0  0  0  0  0
    3.2567    1.5690    0.0000 C   0  0  0  0  0  0  0  0  0  0  0  0
    2.2565   -2.4681    0.0000 C   0  0  0  0  0  0  0  0  0  0  0  0
    2.9749    2.5285    0.0000 C   0  0  0  0  0  0  0  0  0  0  0  0
    4.6867   -2.2461    0.0000 H   0  0  0  0  0  0  0  0  0  0  0  0
    4.3810   -1.1052    0.0000 H   0  0  0  0  0  0  0  0  0  0  0  0
    6.1270    0.2070    0.0000 H   0  0  0  0  0  0  0  0  0  0  0  0
    5.1122   -2.0188    0.0000 H   0  0  0  0  0  0  0  0  0  0  0  0
    5.9009   -2.4019    0.0000 H   0  0  0  0  0  0  0  0  0  0  0  0
    6.2840   -1.6133    0.0000 H   0  0  0  0  0  0  0  0  0  0  0  0
    6.2726   -1.6271    0.0000 H   0  0  0  0  0  0  0  0  0  0  0  0
    6.9745   -1.1016    0.0000 H   0  0  0  0  0  0  0  0  0  0  0  0
    6.4491   -0.3997    0.0000 H   0  0  0  0  0  0  0  0  0  0  0  0
    1.5335   -0.7537    0.0000 H   0  0  0  0  0  0  0  0  0  0  0  0
    2.7063   -0.6135    0.0000 H   0  0  0  0  0  0  0  0  0  0  0  0
    3.7567   -2.5285    0.0000 H   0  0  0  0  0  0  0  0  0  0  0  0
    1.5513    0.5466    0.0000 H   0  0  0  0  0  0  0  0  0  0  0  0
    2.6137    0.0305    0.0000 H   0  0  0  0  0  0  0  0  0  0  0  0
    2.2692    1.6309    0.0000 H   0  0  0  0  0  0  0  0  0  0  0  0
    2.8840    0.6224    0.0000 H   0  0  0  0  0  0  0  0  0  0  0  0
    4.7440    1.9523    0.0000 H   0  0  0  0  0  0  0  0  0  0  0  0
    4.0820    0.9742    0.0000 H   0  0  0  0  0  0  0  0  0  0  0  0
    5.5665    1.4344    0.0000 H   0  0  0  0  0  0  0  0  0  0  0  0
    1.7350   -2.1329    0.0000 H   0  0  0  0  0  0  0  0  0  0  0  0
    1.9213   -2.9896    0.0000 H   0  0  0  0  0  0  0  0  0  0  0  0
    2.7781   -2.8032    0.0000 H   0  0  0  0  0  0  0  0  0  0  0  0
    3.4028    2.9772    0.0000 H   0  0  0  0  0  0  0  0  0  0  0  0
    2.3724    2.6747    0.0000 H   0  0  0  0  0  0  0  0  0  0  0  0
  1  2  1  0  0  0  0
  1  3  1  0  0  0  0
  1  4  1  0  0  0  0
  1  5  1  0  0  0  0
  2  7  1  0  0  0  0
  2 16  1  0  0  0  0
  2 17  1  0  0  0  0
  3 12  2  0  0  0  0
  3 18  1  0  0  0  0
  4 19  1  0  0  0  0
  4 20  1  0  0  0  0
  4 21  1  0  0  0  0
  5 22  1  0  0  0  0
  5 23  1  0  0  0  0
  5 24  1  0  0  0  0
  6  8  1  0  0  0  0
  6  9  1  0  0  0  0
  6 25  1  0  0  0  0
  6 26  1  0  0  0  0
  7  9  2  0  0  0  0
  7 27  1  0  0  0  0
  8 10  1  0  0  0  0
  8 28  1  0  0  0  0
  8 29  1  0  0  0  0
  9 14  1  0  0  0  0
 10 13  1  0  0  0  0
 10 30  1  0  0  0  0
 10 31  1  0  0  0  0
 11 12  1  0  0  0  0
 11 13  1  0  0  0  0
 11 32  1  0  0  0  0
 11 33  1  0  0  0  0
 12 34  1  0  0  0  0
 13 15  2  0  0  0  0
 14 35  1  0  0  0  0
 14 36  1  0  0  0  0
 14 37  1  0  0  0  0
 15 38  1  0  0  0  0
 15 39  1  0  0  0  0
M  END
>  <PUBCHEM_COMPOUND_CID>
21159064

>  <PUBCHEM_COMPOUND_CANONICALIZED>
1

>  <PUBCHEM_CACTVS_COMPLEXITY>
276

>  <PUBCHEM_CACTVS_HBOND_ACCEPTOR>
0

>  <PUBCHEM_CACTVS_HBOND_DONOR>
0

>  <PUBCHEM_CACTVS_ROTATABLE_BOND>
0

>  <PUBCHEM_CACTVS_SUBSKEYS>
AAADceBwAAAAAAAAAAAAAAAAAAAAAAAAAAAAAAAAAAAAAAAAAAAAGAAAAAAADgCAAAACAAAAAACAAiBCAAAAAAAgAAAICAAAAAgAAAIAAQAAAAAAgAAIAAMAgIAJAAAAAAAAAAAAAAAAAAAAAAAAAAAAAA==

>  <PUBCHEM_IUPAC_OPENEYE_NAME>
(1Z,5Z)-1,4,4-trimethyl-8-methylene-cycloundeca-1,5-diene

>  <PUBCHEM_IUPAC_CAS_NAME>
(1Z,5Z)-1,4,4-trimethyl-8-methylenecycloundeca-1,5-diene

>  <PUBCHEM_IUPAC_NAME>
(1Z,5Z)-1,4,4-trimethyl-8-methylidenecycloundeca-1,5-diene

>  <PUBCHEM_IUPAC_SYSTEMATIC_NAME>
(1Z,5Z)-1,4,4-trimethyl-8-methylidene-cycloundeca-1,5-diene

>  <PUBCHEM_IUPAC_TRADITIONAL_NAME>
(1Z,5Z)-1,4,4-trimethyl-8-methylene-cycloundeca-1,5-diene

>  <PUBCHEM_IUPAC_INCHI>
InChI=1S/C15H24/c1-13-7-5-8-14(2)10-12-15(3,4)11-6-9-13/h6,10-11H,1,5,7-9,12H2,2-4H3/b11-6-,14-10-

>  <PUBCHEM_IUPAC_INCHIKEY>
HAVYZKHVTLAPDZ-PRUKLFJYSA-N

>  <PUBCHEM_XLOGP3_AA>
4.8

>  <PUBCHEM_EXACT_MASS>
204.188

>  <PUBCHEM_MOLECULAR_FORMULA>
C15H24

>  <PUBCHEM_MOLECULAR_WEIGHT>
204.357

>  <PUBCHEM_OPENEYE_CAN_SMILES>
CC1=CCC(C=CCC(=C)CCC1)(C)C

>  <PUBCHEM_OPENEYE_ISO_SMILES>
C/C/1=C/CC(/C=C\CC(=C)CCC1)(C)C

>  <PUBCHEM_CACTVS_TPSA>
0

>  <PUBCHEM_MONOISOTOPIC_WEIGHT>
204.188

>  <PUBCHEM_TOTAL_CHARGE>
0

>  <PUBCHEM_HEAVY_ATOM_COUNT>
15

>  <PUBCHEM_ATOM_DEF_STEREO_COUNT>
0

>  <PUBCHEM_ATOM_UDEF_STEREO_COUNT>
0

>  <PUBCHEM_BOND_DEF_STEREO_COUNT>
2

>  <PUBCHEM_BOND_UDEF_STEREO_COUNT>
0

>  <PUBCHEM_ISOTOPIC_ATOM_COUNT>
0

>  <PUBCHEM_COMPONENT_COUNT>
1

>  <PUBCHEM_CACTVS_TAUTO_COUNT>
1

>  <PUBCHEM_COORDINATE_TYPE>
1
5
255

$$$$
