21222
 OpenBabel06101807152D

 40 43  0  0  0  0  0  0  0  0999 V2000
    5.5103    1.4952    0.0000 O   0  0  0  0  0  0  0  0  0  0  0  0
    7.2762    2.5330    0.0000 O   0  0  0  0  0  0  0  0  0  0  0  0
    6.3981   -3.0363    0.0000 O   0  0  0  0  0  0  0  0  0  0  0  0
    2.8680   -0.0121    0.0000 O   0  0  0  0  0  0  0  0  0  0  0  0
    2.8680   -2.0604    0.0000 O   0  0  0  0  0  0  0  0  0  0  0  0
    8.1223   -2.0332    0.0000 N   0  0  0  0  0  0  0  0  0  0  0  0
    6.3981   -0.0363    0.0000 C   0  0  0  0  0  0  0  0  0  0  0  0
    7.2641   -0.5363    0.0000 C   0  0  0  0  0  0  0  0  0  0  0  0
    5.5320   -0.5363    0.0000 C   0  0  0  0  0  0  0  0  0  0  0  0
    5.5320   -1.5363    0.0000 C   0  0  0  0  0  0  0  0  0  0  0  0
    7.2641   -1.5363    0.0000 C   0  0  0  0  0  0  0  0  0  0  0  0
    8.1741   -0.0294    0.0000 C   0  0  0  0  0  0  0  0  0  0  0  0
    6.3820    1.0052    0.0000 C   0  0  0  0  0  0  0  0  0  0  0  0
    6.3981   -2.0363    0.0000 C   0  0  0  0  0  0  0  0  0  0  0  0
    7.2800    1.5330    0.0000 C   0  0  0  0  0  0  0  0  0  0  0  0
    8.1821    1.0122    0.0000 C   0  0  0  0  0  0  0  0  0  0  0  0
    4.6381   -0.0016    0.0000 C   0  0  0  0  0  0  0  0  0  0  0  0
    4.6381   -2.0710    0.0000 C   0  0  0  0  0  0  0  0  0  0  0  0
    9.0134   -0.5577    0.0000 C   0  0  0  0  0  0  0  0  0  0  0  0
    3.7320   -0.5155    0.0000 C   0  0  0  0  0  0  0  0  0  0  0  0
    3.7320   -1.5571    0.0000 C   0  0  0  0  0  0  0  0  0  0  0  0
    8.9878   -1.5490    0.0000 C   0  0  0  0  0  0  0  0  0  0  0  0
    5.4987    2.4951    0.0000 C   0  0  0  0  0  0  0  0  0  0  0  0
    8.1403    3.0363    0.0000 C   0  0  0  0  0  0  0  0  0  0  0  0
    2.0000   -0.5088    0.0000 C   0  0  0  0  0  0  0  0  0  0  0  0
    8.7203    1.3201    0.0000 H   0  0  0  0  0  0  0  0  0  0  0  0
    4.6453    0.6183    0.0000 H   0  0  0  0  0  0  0  0  0  0  0  0
    4.6453   -2.6909    0.0000 H   0  0  0  0  0  0  0  0  0  0  0  0
    9.5600   -0.2650    0.0000 H   0  0  0  0  0  0  0  0  0  0  0  0
    9.5185   -1.8696    0.0000 H   0  0  0  0  0  0  0  0  0  0  0  0
    6.1187    2.5023    0.0000 H   0  0  0  0  0  0  0  0  0  0  0  0
    5.4915    3.1151    0.0000 H   0  0  0  0  0  0  0  0  0  0  0  0
    4.8787    2.4879    0.0000 H   0  0  0  0  0  0  0  0  0  0  0  0
    2.8703   -2.6804    0.0000 H   0  0  0  0  0  0  0  0  0  0  0  0
    8.4523    2.5006    0.0000 H   0  0  0  0  0  0  0  0  0  0  0  0
    8.6760    3.3484    0.0000 H   0  0  0  0  0  0  0  0  0  0  0  0
    7.8282    3.5720    0.0000 H   0  0  0  0  0  0  0  0  0  0  0  0
    1.6921    0.0293    0.0000 H   0  0  0  0  0  0  0  0  0  0  0  0
    1.4619   -0.8167    0.0000 H   0  0  0  0  0  0  0  0  0  0  0  0
    2.3079   -1.0469    0.0000 H   0  0  0  0  0  0  0  0  0  0  0  0
  1 13  1  0  0  0  0
  1 23  1  0  0  0  0
  2 15  1  0  0  0  0
  2 24  1  0  0  0  0
  3 14  2  0  0  0  0
  4 20  1  0  0  0  0
  4 25  1  0  0  0  0
  5 21  1  0  0  0  0
  5 34  1  0  0  0  0
  6 11  2  0  0  0  0
  6 22  1  0  0  0  0
  7  8  2  0  0  0  0
  7  9  1  0  0  0  0
  7 13  1  0  0  0  0
  8 11  1  0  0  0  0
  8 12  1  0  0  0  0
  9 10  1  0  0  0  0
  9 17  2  0  0  0  0
 10 14  1  0  0  0  0
 10 18  2  0  0  0  0
 11 14  1  0  0  0  0
 12 16  2  0  0  0  0
 12 19  1  0  0  0  0
 13 15  2  0  0  0  0
 15 16  1  0  0  0  0
 16 26  1  0  0  0  0
 17 20  1  0  0  0  0
 17 27  1  0  0  0  0
 18 21  1  0  0  0  0
 18 28  1  0  0  0  0
 19 22  2  0  0  0  0
 19 29  1  0  0  0  0
 20 21  2  0  0  0  0
 22 30  1  0  0  0  0
 23 31  1  0  0  0  0
 23 32  1  0  0  0  0
 23 33  1  0  0  0  0
 24 35  1  0  0  0  0
 24 36  1  0  0  0  0
 24 37  1  0  0  0  0
 25 38  1  0  0  0  0
 25 39  1  0  0  0  0
 25 40  1  0  0  0  0
M  END
>  <PUBCHEM_COMPOUND_CID>
21222

>  <PUBCHEM_COMPOUND_CANONICALIZED>
1

>  <PUBCHEM_CACTVS_COMPLEXITY>
514

>  <PUBCHEM_CACTVS_HBOND_ACCEPTOR>
6

>  <PUBCHEM_CACTVS_HBOND_DONOR>
1

>  <PUBCHEM_CACTVS_ROTATABLE_BOND>
3

>  <PUBCHEM_CACTVS_SUBSKEYS>
AAADccB6OAAAAAAAAAAAAAAAAAAAAAAAAAA8YMEAAAAAAADx9AAAHgAACAAADAzBngY+htIIFgCoA7R3RACCiCA3IiAI2CG+7NgNJnLGtbuEcStkwBHL+Ye6/P/OoAADAAAYQADQAAaAADSAAAAAAAAAAA==

>  <PUBCHEM_IUPAC_INCHI>
InChI=1S/C19H15NO5/c1-23-13-8-10-11(7-12(13)21)18(22)17-15-9(4-5-20-17)6-14(24-2)19(25-3)16(10)15/h4-8,21H,1-3H3

>  <PUBCHEM_IUPAC_INCHIKEY>
VITQCDLNBVTCJS-UHFFFAOYSA-N

>  <PUBCHEM_XLOGP3_AA>
3.1

>  <PUBCHEM_EXACT_MASS>
337.095

>  <PUBCHEM_MOLECULAR_FORMULA>
C19H15NO5

>  <PUBCHEM_MOLECULAR_WEIGHT>
337.331

>  <PUBCHEM_OPENEYE_CAN_SMILES>
COC1=C(C2=C3C(=C1)C=CN=C3C(=O)C4=CC(=C(C=C42)OC)O)OC

>  <PUBCHEM_OPENEYE_ISO_SMILES>
COC1=C(C2=C3C(=C1)C=CN=C3C(=O)C4=CC(=C(C=C42)OC)O)OC

>  <PUBCHEM_CACTVS_TPSA>
77.9

>  <PUBCHEM_MONOISOTOPIC_WEIGHT>
337.095

>  <PUBCHEM_TOTAL_CHARGE>
0

>  <PUBCHEM_HEAVY_ATOM_COUNT>
25

>  <PUBCHEM_ATOM_DEF_STEREO_COUNT>
0

>  <PUBCHEM_ATOM_UDEF_STEREO_COUNT>
0

>  <PUBCHEM_BOND_DEF_STEREO_COUNT>
0

>  <PUBCHEM_BOND_UDEF_STEREO_COUNT>
0

>  <PUBCHEM_ISOTOPIC_ATOM_COUNT>
0

>  <PUBCHEM_COMPONENT_COUNT>
1

>  <PUBCHEM_CACTVS_TAUTO_COUNT>
4

>  <PUBCHEM_COORDINATE_TYPE>
1
5
255

>  <PUBCHEM_BONDANNOTATIONS>
10  18  8
12  16  8
12  19  8
13  15  8
15  16  8
17  20  8
18  21  8
19  22  8
20  21  8
6  11  8
6  22  8
7  13  8
7  8  8
8  11  8
8  12  8
9  10  8
9  17  8

$$$$
