213522
 OpenBabel06101807152D

 27 27  0  0  1  0  0  0  0  0999 V2000
    2.5369   -0.6900    0.0000 O   0  0  0  0  0  0  0  0  0  0  0  0
    6.0010   -0.6900    0.0000 N   0  0  0  0  0  0  0  0  0  0  0  0
    5.1350   -0.1900    0.0000 C   0  0  2  0  0  0  0  0  0  0  0  0
    5.1350    0.8100    0.0000 C   0  0  0  0  0  0  0  0  0  0  0  0
    6.0010    1.3100    0.0000 C   0  0  0  0  0  0  0  0  0  0  0  0
    4.2690   -0.6900    0.0000 C   0  0  0  0  0  0  0  0  0  0  0  0
    6.8671    0.8100    0.0000 C   0  0  0  0  0  0  0  0  0  0  0  0
    6.8671   -0.1900    0.0000 C   0  0  0  0  0  0  0  0  0  0  0  0
    3.4030   -0.1900    0.0000 C   0  0  1  0  0  0  0  0  0  0  0  0
    3.4030    0.8100    0.0000 C   0  0  0  0  0  0  0  0  0  0  0  0
    5.1350   -0.8100    0.0000 H   0  0  0  0  0  0  0  0  0  0  0  0
    4.9230    1.3926    0.0000 H   0  0  0  0  0  0  0  0  0  0  0  0
    4.5244    0.7023    0.0000 H   0  0  0  0  0  0  0  0  0  0  0  0
    6.3996    1.7850    0.0000 H   0  0  0  0  0  0  0  0  0  0  0  0
    5.6025    1.7850    0.0000 H   0  0  0  0  0  0  0  0  0  0  0  0
    3.8705   -1.1650    0.0000 H   0  0  0  0  0  0  0  0  0  0  0  0
    4.6675   -1.1650    0.0000 H   0  0  0  0  0  0  0  0  0  0  0  0
    7.4776    0.7023    0.0000 H   0  0  0  0  0  0  0  0  0  0  0  0
    7.0791    1.3926    0.0000 H   0  0  0  0  0  0  0  0  0  0  0  0
    7.0791   -0.7726    0.0000 H   0  0  0  0  0  0  0  0  0  0  0  0
    7.4776   -0.0823    0.0000 H   0  0  0  0  0  0  0  0  0  0  0  0
    6.0010   -1.3100    0.0000 H   0  0  0  0  0  0  0  0  0  0  0  0
    3.4030   -0.8100    0.0000 H   0  0  0  0  0  0  0  0  0  0  0  0
    4.0230    0.8100    0.0000 H   0  0  0  0  0  0  0  0  0  0  0  0
    3.4030    1.4300    0.0000 H   0  0  0  0  0  0  0  0  0  0  0  0
    2.7830    0.8100    0.0000 H   0  0  0  0  0  0  0  0  0  0  0  0
    2.0000   -0.3800    0.0000 H   0  0  0  0  0  0  0  0  0  0  0  0
  1 27  1  0  0  0  0
  2  3  1  0  0  0  0
  2  8  1  0  0  0  0
  2 22  1  0  0  0  0
  3  4  1  0  0  0  0
  3  6  1  0  0  0  0
  3 11  1  6  0  0  0
  4  5  1  0  0  0  0
  4 12  1  0  0  0  0
  4 13  1  0  0  0  0
  5  7  1  0  0  0  0
  5 14  1  0  0  0  0
  5 15  1  0  0  0  0
  6  9  1  0  0  0  0
  6 16  1  0  0  0  0
  6 17  1  0  0  0  0
  7  8  1  0  0  0  0
  7 18  1  0  0  0  0
  7 19  1  0  0  0  0
  8 20  1  0  0  0  0
  8 21  1  0  0  0  0
  9  1  1  0  0  0  0
  9 10  1  0  0  0  0
  9 23  1  1  0  0  0
 10 24  1  0  0  0  0
 10 25  1  0  0  0  0
 10 26  1  0  0  0  0
M  END
>  <PUBCHEM_COMPOUND_CID>
213522

>  <PUBCHEM_COMPOUND_CANONICALIZED>
1

>  <PUBCHEM_CACTVS_COMPLEXITY>
95.3

>  <PUBCHEM_CACTVS_HBOND_ACCEPTOR>
2

>  <PUBCHEM_CACTVS_HBOND_DONOR>
2

>  <PUBCHEM_CACTVS_ROTATABLE_BOND>
2

>  <PUBCHEM_CACTVS_SUBSKEYS>
AAADceByIAAAAAAAAAAAAAAAAAAAAAAAAAAsAAAAAAAAAAAAAAAAHgAQCAAACDzhgAYCAALAAgAAAAAAAAAAAAAAAAAAAIAIAAAAEAIAgAAEQAAGEACAAAGQwKAAAAAAAAAAAAAAAAAAAAAAAAAAAAAAAA==

>  <PUBCHEM_IUPAC_OPENEYE_NAME>
(2R)-1-[(2R)-2-piperidyl]propan-2-ol

>  <PUBCHEM_IUPAC_CAS_NAME>
(2R)-1-[(2R)-2-piperidinyl]-2-propanol

>  <PUBCHEM_IUPAC_NAME>
(2R)-1-[(2R)-piperidin-2-yl]propan-2-ol

>  <PUBCHEM_IUPAC_SYSTEMATIC_NAME>
(2R)-1-[(2R)-piperidin-2-yl]propan-2-ol

>  <PUBCHEM_IUPAC_TRADITIONAL_NAME>
(2R)-1-[(2R)-2-piperidyl]propan-2-ol

>  <PUBCHEM_IUPAC_INCHI>
InChI=1S/C8H17NO/c1-7(10)6-8-4-2-3-5-9-8/h7-10H,2-6H2,1H3/t7-,8-/m1/s1

>  <PUBCHEM_IUPAC_INCHIKEY>
GFKFBLJVPWRDEL-HTQZYQBOSA-N

>  <PUBCHEM_XLOGP3_AA>
0.8

>  <PUBCHEM_EXACT_MASS>
143.131

>  <PUBCHEM_MOLECULAR_FORMULA>
C8H17NO

>  <PUBCHEM_MOLECULAR_WEIGHT>
143.23

>  <PUBCHEM_OPENEYE_CAN_SMILES>
CC(CC1CCCCN1)O

>  <PUBCHEM_OPENEYE_ISO_SMILES>
C[C@H](C[C@H]1CCCCN1)O

>  <PUBCHEM_CACTVS_TPSA>
32.3

>  <PUBCHEM_MONOISOTOPIC_WEIGHT>
143.131

>  <PUBCHEM_TOTAL_CHARGE>
0

>  <PUBCHEM_HEAVY_ATOM_COUNT>
10

>  <PUBCHEM_ATOM_DEF_STEREO_COUNT>
2

>  <PUBCHEM_ATOM_UDEF_STEREO_COUNT>
0

>  <PUBCHEM_BOND_DEF_STEREO_COUNT>
0

>  <PUBCHEM_BOND_UDEF_STEREO_COUNT>
0

>  <PUBCHEM_ISOTOPIC_ATOM_COUNT>
0

>  <PUBCHEM_COMPONENT_COUNT>
1

>  <PUBCHEM_CACTVS_TAUTO_COUNT>
1

>  <PUBCHEM_COORDINATE_TYPE>
1
5
255

>  <PUBCHEM_BONDANNOTATIONS>
9  1  6
3  6  5

$$$$
