213591
 OpenBabel06101807152D

 41 42  0  0  1  0  0  0  0  0999 V2000
    5.3781   -1.9843    0.0000 O   0  0  0  0  0  0  0  0  0  0  0  0
    6.6030    0.5598    0.0000 O   0  0  0  0  0  0  0  0  0  0  0  0
    2.3090   -2.6566    0.0000 O   0  0  0  0  0  0  0  0  0  0  0  0
    9.6640    2.4650    0.0000 O   0  0  0  0  0  0  0  0  0  0  0  0
    6.1871   -1.3965    0.0000 C   0  0  3  0  0  0  0  0  0  0  0  0
    5.8781   -0.4454    0.0000 C   0  0  0  0  0  0  0  0  0  0  0  0
    4.8781   -0.4454    0.0000 C   0  0  0  0  0  0  0  0  0  0  0  0
    4.5691   -1.3965    0.0000 C   0  0  3  0  0  0  0  0  0  0  0  0
    7.1382   -1.0875    0.0000 C   0  0  0  0  0  0  0  0  0  0  0  0
    6.7749   -2.2055    0.0000 C   0  0  0  0  0  0  0  0  0  0  0  0
    3.6180   -1.7055    0.0000 C   0  0  0  0  0  0  0  0  0  0  0  0
    7.3461   -0.1093    0.0000 C   0  0  0  0  0  0  0  0  0  0  0  0
    8.2972    0.1997    0.0000 C   0  0  0  0  0  0  0  0  0  0  0  0
    8.5051    1.1778    0.0000 C   0  0  3  0  0  0  0  0  0  0  0  0
    2.8090   -1.1177    0.0000 C   0  0  0  0  0  0  0  0  0  0  0  0
    3.3090   -2.6566    0.0000 C   0  0  0  0  0  0  0  0  0  0  0  0
    9.4561    1.4868    0.0000 C   0  0  0  0  0  0  0  0  0  0  0  0
    7.7619    1.8470    0.0000 C   0  0  0  0  0  0  0  0  0  0  0  0
    2.0000   -1.7055    0.0000 C   0  0  0  0  0  0  0  0  0  0  0  0
    6.4846   -0.3165    0.0000 H   0  0  0  0  0  0  0  0  0  0  0  0
    5.8133    0.1712    0.0000 H   0  0  0  0  0  0  0  0  0  0  0  0
    4.9429    0.1712    0.0000 H   0  0  0  0  0  0  0  0  0  0  0  0
    4.2717   -0.3165    0.0000 H   0  0  0  0  0  0  0  0  0  0  0  0
    3.9680   -0.7955    0.0000 H   0  0  0  0  0  0  0  0  0  0  0  0
    7.2245   -1.7014    0.0000 H   0  0  0  0  0  0  0  0  0  0  0  0
    7.7578   -1.1091    0.0000 H   0  0  0  0  0  0  0  0  0  0  0  0
    6.2733   -2.5700    0.0000 H   0  0  0  0  0  0  0  0  0  0  0  0
    7.1393   -2.7071    0.0000 H   0  0  0  0  0  0  0  0  0  0  0  0
    7.2765   -1.8411    0.0000 H   0  0  0  0  0  0  0  0  0  0  0  0
    8.3834   -0.4143    0.0000 H   0  0  0  0  0  0  0  0  0  0  0  0
    8.9168    0.1780    0.0000 H   0  0  0  0  0  0  0  0  0  0  0  0
    8.6818    2.0093    0.0000 H   0  0  0  0  0  0  0  0  0  0  0  0
    2.8090   -0.4977    0.0000 H   0  0  0  0  0  0  0  0  0  0  0  0
    3.6734   -3.1582    0.0000 H   0  0  0  0  0  0  0  0  0  0  0  0
    9.5424    0.8729    0.0000 H   0  0  0  0  0  0  0  0  0  0  0  0
   10.0757    1.4652    0.0000 H   0  0  0  0  0  0  0  0  0  0  0  0
    8.1768    2.3077    0.0000 H   0  0  0  0  0  0  0  0  0  0  0  0
    7.3012    2.2618    0.0000 H   0  0  0  0  0  0  0  0  0  0  0  0
    7.3471    1.3862    0.0000 H   0  0  0  0  0  0  0  0  0  0  0  0
    1.4103   -1.5139    0.0000 H   0  0  0  0  0  0  0  0  0  0  0  0
   10.2537    2.6566    0.0000 H   0  0  0  0  0  0  0  0  0  0  0  0
  1  5  1  0  0  0  0
  1  8  1  0  0  0  0
  2 12  2  0  0  0  0
  3 16  1  0  0  0  0
  3 19  1  0  0  0  0
  4 17  1  0  0  0  0
  4 41  1  0  0  0  0
  5  6  1  0  0  0  0
  5  9  1  0  0  0  0
  5 10  1  0  0  0  0
  6  7  1  0  0  0  0
  6 20  1  0  0  0  0
  6 21  1  0  0  0  0
  7  8  1  0  0  0  0
  7 22  1  0  0  0  0
  7 23  1  0  0  0  0
  8 11  1  0  0  0  0
  8 24  1  0  0  0  0
  9 12  1  0  0  0  0
  9 25  1  0  0  0  0
  9 26  1  0  0  0  0
 10 27  1  0  0  0  0
 10 28  1  0  0  0  0
 10 29  1  0  0  0  0
 11 15  1  0  0  0  0
 11 16  2  0  0  0  0
 12 13  1  0  0  0  0
 13 14  1  0  0  0  0
 13 30  1  0  0  0  0
 13 31  1  0  0  0  0
 14 17  1  0  0  0  0
 14 18  1  0  0  0  0
 14 32  1  0  0  0  0
 15 19  2  0  0  0  0
 15 33  1  0  0  0  0
 16 34  1  0  0  0  0
 17 35  1  0  0  0  0
 17 36  1  0  0  0  0
 18 37  1  0  0  0  0
 18 38  1  0  0  0  0
 18 39  1  0  0  0  0
 19 40  1  0  0  0  0
M  END
>  <PUBCHEM_COMPOUND_CID>
213591

>  <PUBCHEM_COMPOUND_CANONICALIZED>
1

>  <PUBCHEM_CACTVS_COMPLEXITY>
317

>  <PUBCHEM_CACTVS_HBOND_ACCEPTOR>
4

>  <PUBCHEM_CACTVS_HBOND_DONOR>
1

>  <PUBCHEM_CACTVS_ROTATABLE_BOND>
6

>  <PUBCHEM_CACTVS_SUBSKEYS>
AAADceBwOAAAAAAAAAAAAAAAAAAAASJAAAAAAAAAAAAAAAABgAAAGgAACAAADVSgmAIyBIAABkCIAqhSgAACCAAkIAAIiAEGCMgMNxYENQqCWSCl4BEIKYPKyPCOAAAAAAAAAAAAAAAAAAAAAAAAAAAAAA==

>  <PUBCHEM_IUPAC_OPENEYE_NAME>
1-[5-(3-furyl)-2-methyl-tetrahydrofuran-2-yl]-5-hydroxy-4-methyl-pentan-2-one

>  <PUBCHEM_IUPAC_CAS_NAME>
1-[5-(3-furanyl)-2-methyl-2-oxolanyl]-5-hydroxy-4-methyl-2-pentanone

>  <PUBCHEM_IUPAC_NAME>
1-[5-(furan-3-yl)-2-methyloxolan-2-yl]-5-hydroxy-4-methylpentan-2-one

>  <PUBCHEM_IUPAC_SYSTEMATIC_NAME>
1-[5-(furan-3-yl)-2-methyl-oxolan-2-yl]-4-methyl-5-oxidanyl-pentan-2-one

>  <PUBCHEM_IUPAC_TRADITIONAL_NAME>
1-[5-(3-furyl)-2-methyl-tetrahydrofuran-2-yl]-5-hydroxy-4-methyl-pentan-2-one

>  <PUBCHEM_IUPAC_INCHI>
InChI=1S/C15H22O4/c1-11(9-16)7-13(17)8-15(2)5-3-14(19-15)12-4-6-18-10-12/h4,6,10-11,14,16H,3,5,7-9H2,1-2H3

>  <PUBCHEM_IUPAC_INCHIKEY>
LKVKWNDXOWODLO-UHFFFAOYSA-N

>  <PUBCHEM_XLOGP3_AA>
1.1

>  <PUBCHEM_EXACT_MASS>
266.152

>  <PUBCHEM_MOLECULAR_FORMULA>
C15H22O4

>  <PUBCHEM_MOLECULAR_WEIGHT>
266.337

>  <PUBCHEM_OPENEYE_CAN_SMILES>
CC(CC(=O)CC1(CCC(O1)C2=COC=C2)C)CO

>  <PUBCHEM_OPENEYE_ISO_SMILES>
CC(CC(=O)CC1(CCC(O1)C2=COC=C2)C)CO

>  <PUBCHEM_CACTVS_TPSA>
59.7

>  <PUBCHEM_MONOISOTOPIC_WEIGHT>
266.152

>  <PUBCHEM_TOTAL_CHARGE>
0

>  <PUBCHEM_HEAVY_ATOM_COUNT>
19

>  <PUBCHEM_ATOM_DEF_STEREO_COUNT>
0

>  <PUBCHEM_ATOM_UDEF_STEREO_COUNT>
3

>  <PUBCHEM_BOND_DEF_STEREO_COUNT>
0

>  <PUBCHEM_BOND_UDEF_STEREO_COUNT>
0

>  <PUBCHEM_ISOTOPIC_ATOM_COUNT>
0

>  <PUBCHEM_COMPONENT_COUNT>
1

>  <PUBCHEM_CACTVS_TAUTO_COUNT>
3

>  <PUBCHEM_COORDINATE_TYPE>
1
5
255

>  <PUBCHEM_BONDANNOTATIONS>
11  15  8
11  16  8
14  32  3
15  19  8
3  16  8
3  19  8
5  10  3
8  24  3

$$$$
