21576545
 OpenBabel06101807152D

 42 44  0  0  0  0  0  0  0  0999 V2000
    6.4144    2.0346    0.0000 O   0  0  0  0  0  0  0  0  0  0  0  0
    6.4144   -2.0346    0.0000 O   0  0  0  0  0  0  0  0  0  0  0  0
    4.6660    2.0000    0.0000 O   0  0  0  0  0  0  0  0  0  0  0  0
    4.6660   -2.0000    0.0000 O   0  0  0  0  0  0  0  0  0  0  0  0
    5.5321    0.5000    0.0000 C   0  0  0  0  0  0  0  0  0  0  0  0
    7.3321    0.5208    0.0000 C   0  0  0  0  0  0  0  0  0  0  0  0
    5.5321   -0.5000    0.0000 C   0  0  0  0  0  0  0  0  0  0  0  0
    8.1962    1.0241    0.0000 C   0  0  0  0  0  0  0  0  0  0  0  0
    6.4260    1.0347    0.0000 C   0  0  0  0  0  0  0  0  0  0  0  0
    3.8000    0.5000    0.0000 C   0  0  0  0  0  0  0  0  0  0  0  0
    6.4260   -1.0347    0.0000 C   0  0  0  0  0  0  0  0  0  0  0  0
    3.8000   -0.5000    0.0000 C   0  0  0  0  0  0  0  0  0  0  0  0
    4.6660    1.0000    0.0000 C   0  0  0  0  0  0  0  0  0  0  0  0
    7.3321   -0.5208    0.0000 C   0  0  0  0  0  0  0  0  0  0  0  0
    9.0641    0.5275    0.0000 C   0  0  0  0  0  0  0  0  0  0  0  0
    4.6660   -1.0000    0.0000 C   0  0  0  0  0  0  0  0  0  0  0  0
    2.9061    1.0347    0.0000 C   0  0  0  0  0  0  0  0  0  0  0  0
    2.9061   -1.0347    0.0000 C   0  0  0  0  0  0  0  0  0  0  0  0
    9.9282    1.0308    0.0000 C   0  0  0  0  0  0  0  0  0  0  0  0
    2.0000    0.5208    0.0000 C   0  0  0  0  0  0  0  0  0  0  0  0
    2.0000   -0.5208    0.0000 C   0  0  0  0  0  0  0  0  0  0  0  0
   10.7961    0.5342    0.0000 C   0  0  0  0  0  0  0  0  0  0  0  0
   11.6602    1.0375    0.0000 C   0  0  0  0  0  0  0  0  0  0  0  0
   10.8000   -0.4658    0.0000 C   0  0  0  0  0  0  0  0  0  0  0  0
    8.5929    1.5006    0.0000 H   0  0  0  0  0  0  0  0  0  0  0  0
    7.7958    1.4976    0.0000 H   0  0  0  0  0  0  0  0  0  0  0  0
    7.8678   -0.8329    0.0000 H   0  0  0  0  0  0  0  0  0  0  0  0
    8.6674    0.0510    0.0000 H   0  0  0  0  0  0  0  0  0  0  0  0
    9.4645    0.0541    0.0000 H   0  0  0  0  0  0  0  0  0  0  0  0
    2.9132    1.6546    0.0000 H   0  0  0  0  0  0  0  0  0  0  0  0
    9.9258    1.6508    0.0000 H   0  0  0  0  0  0  0  0  0  0  0  0
    2.9132   -1.6546    0.0000 H   0  0  0  0  0  0  0  0  0  0  0  0
    1.4643    0.8329    0.0000 H   0  0  0  0  0  0  0  0  0  0  0  0
    1.4643   -0.8329    0.0000 H   0  0  0  0  0  0  0  0  0  0  0  0
    6.9478    2.3508    0.0000 H   0  0  0  0  0  0  0  0  0  0  0  0
    6.9478   -2.3508    0.0000 H   0  0  0  0  0  0  0  0  0  0  0  0
   11.9723    0.5018    0.0000 H   0  0  0  0  0  0  0  0  0  0  0  0
   10.1800   -0.4682    0.0000 H   0  0  0  0  0  0  0  0  0  0  0  0
   10.8024   -1.0858    0.0000 H   0  0  0  0  0  0  0  0  0  0  0  0
   11.4200   -0.4634    0.0000 H   0  0  0  0  0  0  0  0  0  0  0  0
   12.1960    1.3496    0.0000 H   0  0  0  0  0  0  0  0  0  0  0  0
   11.3482    1.5732    0.0000 H   0  0  0  0  0  0  0  0  0  0  0  0
  1  9  1  0  0  0  0
  1 35  1  0  0  0  0
  2 11  1  0  0  0  0
  2 36  1  0  0  0  0
  3 13  2  0  0  0  0
  4 16  2  0  0  0  0
  5  7  1  0  0  0  0
  5  9  2  0  0  0  0
  5 13  1  0  0  0  0
  6  8  1  0  0  0  0
  6  9  1  0  0  0  0
  6 14  2  0  0  0  0
  7 11  2  0  0  0  0
  7 16  1  0  0  0  0
  8 15  1  0  0  0  0
  8 25  1  0  0  0  0
  8 26  1  0  0  0  0
 10 12  1  0  0  0  0
 10 13  1  0  0  0  0
 10 17  2  0  0  0  0
 11 14  1  0  0  0  0
 12 16  1  0  0  0  0
 12 18  2  0  0  0  0
 14 27  1  0  0  0  0
 15 19  1  0  0  0  0
 15 28  1  0  0  0  0
 15 29  1  0  0  0  0
 17 20  1  0  0  0  0
 17 30  1  0  0  0  0
 18 21  1  0  0  0  0
 18 32  1  0  0  0  0
 19 22  2  0  0  0  0
 19 31  1  0  0  0  0
 20 21  2  0  0  0  0
 20 33  1  0  0  0  0
 21 34  1  0  0  0  0
 22 23  1  0  0  0  0
 22 24  1  0  0  0  0
 23 37  1  0  0  0  0
 23 41  1  0  0  0  0
 23 42  1  0  0  0  0
 24 38  1  0  0  0  0
 24 39  1  0  0  0  0
 24 40  1  0  0  0  0
M  END
>  <PUBCHEM_COMPOUND_CID>
21576545

>  <PUBCHEM_COMPOUND_CANONICALIZED>
1

>  <PUBCHEM_CACTVS_COMPLEXITY>
534

>  <PUBCHEM_CACTVS_HBOND_ACCEPTOR>
4

>  <PUBCHEM_CACTVS_HBOND_DONOR>
2

>  <PUBCHEM_CACTVS_ROTATABLE_BOND>
3

>  <PUBCHEM_CACTVS_SUBSKEYS>
AAADceB4OAAAAAAAAAAAAAAAAAAAAAAAAAAwYMAAAAAAAADBQAAAGgAACAAADASAmAAyBoAAAgCIAqBSAAACAAAkIAAIiAEGCMgIJjaCFRKAcUAk4BEImYfLyPCOwQADAAAYAACCAAYAADAAAAAAAAAAAA==

>  <PUBCHEM_IUPAC_OPENEYE_NAME>
1,4-dihydroxy-2-(4-methylpent-3-enyl)anthracene-9,10-dione

>  <PUBCHEM_IUPAC_CAS_NAME>
1,4-dihydroxy-2-(4-methylpent-3-enyl)anthracene-9,10-dione

>  <PUBCHEM_IUPAC_NAME>
1,4-dihydroxy-2-(4-methylpent-3-enyl)anthracene-9,10-dione

>  <PUBCHEM_IUPAC_SYSTEMATIC_NAME>
2-(4-methylpent-3-enyl)-1,4-bis(oxidanyl)anthracene-9,10-dione

>  <PUBCHEM_IUPAC_TRADITIONAL_NAME>
1,4-dihydroxy-2-(4-methylpent-3-enyl)-9,10-anthraquinone

>  <PUBCHEM_IUPAC_INCHI>
InChI=1S/C20H18O4/c1-11(2)6-5-7-12-10-15(21)16-17(18(12)22)20(24)14-9-4-3-8-13(14)19(16)23/h3-4,6,8-10,21-22H,5,7H2,1-2H3

>  <PUBCHEM_IUPAC_INCHIKEY>
HYYBBHOZHJSIKO-UHFFFAOYSA-N

>  <PUBCHEM_XLOGP3_AA>
5.5

>  <PUBCHEM_EXACT_MASS>
322.121

>  <PUBCHEM_MOLECULAR_FORMULA>
C20H18O4

>  <PUBCHEM_MOLECULAR_WEIGHT>
322.36

>  <PUBCHEM_OPENEYE_CAN_SMILES>
CC(=CCCC1=CC(=C2C(=C1O)C(=O)C3=CC=CC=C3C2=O)O)C

>  <PUBCHEM_OPENEYE_ISO_SMILES>
CC(=CCCC1=CC(=C2C(=C1O)C(=O)C3=CC=CC=C3C2=O)O)C

>  <PUBCHEM_CACTVS_TPSA>
74.6

>  <PUBCHEM_MONOISOTOPIC_WEIGHT>
322.121

>  <PUBCHEM_TOTAL_CHARGE>
0

>  <PUBCHEM_HEAVY_ATOM_COUNT>
24

>  <PUBCHEM_ATOM_DEF_STEREO_COUNT>
0

>  <PUBCHEM_ATOM_UDEF_STEREO_COUNT>
0

>  <PUBCHEM_BOND_DEF_STEREO_COUNT>
0

>  <PUBCHEM_BOND_UDEF_STEREO_COUNT>
0

>  <PUBCHEM_ISOTOPIC_ATOM_COUNT>
0

>  <PUBCHEM_COMPONENT_COUNT>
1

>  <PUBCHEM_CACTVS_TAUTO_COUNT>
94

>  <PUBCHEM_COORDINATE_TYPE>
1
5
255

>  <PUBCHEM_BONDANNOTATIONS>
10  12  8
10  17  8
11  14  8
12  18  8
17  20  8
18  21  8
20  21  8
5  7  8
5  9  8
6  14  8
6  9  8
7  11  8

$$$$
