21576542
 OpenBabel06101807152D

 98 99  0  0  0  0  0  0  0  0999 V2000
    8.0622   -1.9127    0.0000 O   0  0  0  0  0  0  0  0  0  0  0  0
    8.9838    3.3139    0.0000 O   0  0  0  0  0  0  0  0  0  0  0  0
    4.5981    0.0873    0.0000 O   0  0  0  0  0  0  0  0  0  0  0  0
    5.0446    2.6194    0.0000 O   0  0  0  0  0  0  0  0  0  0  0  0
    4.5981   -1.9127    0.0000 O   0  0  0  0  0  0  0  0  0  0  0  0
    5.7286    4.4987    0.0000 O   0  0  0  0  0  0  0  0  0  0  0  0
    8.0622    0.0873    0.0000 O   0  0  0  0  0  0  0  0  0  0  0  0
    8.2997    1.4346    0.0000 O   0  0  0  0  0  0  0  0  0  0  0  0
   10.0098    6.1330    0.0000 C   0  0  0  0  0  0  0  0  0  0  0  0
    4.5981   -4.9127    0.0000 C   0  0  0  0  0  0  0  0  0  0  0  0
    4.5981   -5.9127    0.0000 C   0  0  0  0  0  0  0  0  0  0  0  0
   10.3519    7.0727    0.0000 C   0  0  0  0  0  0  0  0  0  0  0  0
    9.0250    5.9594    0.0000 C   0  0  0  0  0  0  0  0  0  0  0  0
    5.4641   -4.4127    0.0000 C   0  0  0  0  0  0  0  0  0  0  0  0
    3.7320   -6.4127    0.0000 C   0  0  0  0  0  0  0  0  0  0  0  0
   11.3367    7.2464    0.0000 C   0  0  0  0  0  0  0  0  0  0  0  0
    5.4641   -3.4127    0.0000 C   0  0  0  0  0  0  0  0  0  0  0  0
    8.6830    5.0197    0.0000 C   0  0  0  0  0  0  0  0  0  0  0  0
    3.7320   -7.4127    0.0000 C   0  0  0  0  0  0  0  0  0  0  0  0
   11.6787    8.1861    0.0000 C   0  0  0  0  0  0  0  0  0  0  0  0
    7.6982    4.8460    0.0000 C   0  0  0  0  0  0  0  0  0  0  0  0
    6.3301   -2.9127    0.0000 C   0  0  0  0  0  0  0  0  0  0  0  0
    6.3301    1.0873    0.0000 C   0  0  3  0  0  0  0  0  0  0  0  0
    2.8660   -7.9127    0.0000 C   0  0  0  0  0  0  0  0  0  0  0  0
   12.6635    8.3597    0.0000 C   0  0  0  0  0  0  0  0  0  0  0  0
    6.3301   -1.9127    0.0000 C   0  0  0  0  0  0  0  0  0  0  0  0
    7.3562    3.9063    0.0000 C   0  0  0  0  0  0  0  0  0  0  0  0
    6.6722    2.0270    0.0000 C   0  0  0  0  0  0  0  0  0  0  0  0
    6.3301    0.0873    0.0000 C   0  0  0  0  0  0  0  0  0  0  0  0
    2.8660   -8.9127    0.0000 C   0  0  0  0  0  0  0  0  0  0  0  0
   13.0055    9.2994    0.0000 C   0  0  0  0  0  0  0  0  0  0  0  0
    7.1962   -1.4127    0.0000 C   0  0  0  0  0  0  0  0  0  0  0  0
    7.9990    3.1403    0.0000 C   0  0  0  0  0  0  0  0  0  0  0  0
    5.4641   -0.4127    0.0000 C   0  0  0  0  0  0  0  0  0  0  0  0
    6.0294    2.7930    0.0000 C   0  0  0  0  0  0  0  0  0  0  0  0
    6.3714    3.7327    0.0000 C   0  0  0  0  0  0  0  0  0  0  0  0
    5.4641   -1.4127    0.0000 C   0  0  0  0  0  0  0  0  0  0  0  0
    7.1962   -0.4127    0.0000 C   0  0  0  0  0  0  0  0  0  0  0  0
    7.6570    2.2006    0.0000 C   0  0  0  0  0  0  0  0  0  0  0  0
    5.4641    1.5873    0.0000 C   0  0  0  0  0  0  0  0  0  0  0  0
    2.0000   -9.4127    0.0000 C   0  0  0  0  0  0  0  0  0  0  0  0
   13.9903    9.4730    0.0000 C   0  0  0  0  0  0  0  0  0  0  0  0
   14.3323   10.4127    0.0000 C   0  0  0  0  0  0  0  0  0  0  0  0
    2.0000  -10.4127    0.0000 C   0  0  0  0  0  0  0  0  0  0  0  0
   10.0098    5.5130    0.0000 H   0  0  0  0  0  0  0  0  0  0  0  0
   10.6204    6.0254    0.0000 H   0  0  0  0  0  0  0  0  0  0  0  0
    4.3860   -4.3301    0.0000 H   0  0  0  0  0  0  0  0  0  0  0  0
    3.9875   -5.0204    0.0000 H   0  0  0  0  0  0  0  0  0  0  0  0
   10.3519    7.6927    0.0000 H   0  0  0  0  0  0  0  0  0  0  0  0
    9.7413    7.1804    0.0000 H   0  0  0  0  0  0  0  0  0  0  0  0
    4.8101   -6.4954    0.0000 H   0  0  0  0  0  0  0  0  0  0  0  0
    5.2087   -5.8051    0.0000 H   0  0  0  0  0  0  0  0  0  0  0  0
    5.6762   -4.9954    0.0000 H   0  0  0  0  0  0  0  0  0  0  0  0
    6.0747   -4.3051    0.0000 H   0  0  0  0  0  0  0  0  0  0  0  0
    9.0250    6.5794    0.0000 H   0  0  0  0  0  0  0  0  0  0  0  0
    8.4145    6.0670    0.0000 H   0  0  0  0  0  0  0  0  0  0  0  0
    3.5200   -5.8301    0.0000 H   0  0  0  0  0  0  0  0  0  0  0  0
    3.1215   -6.5204    0.0000 H   0  0  0  0  0  0  0  0  0  0  0  0
   11.3367    6.6264    0.0000 H   0  0  0  0  0  0  0  0  0  0  0  0
   11.9473    7.1387    0.0000 H   0  0  0  0  0  0  0  0  0  0  0  0
    8.6830    4.3997    0.0000 H   0  0  0  0  0  0  0  0  0  0  0  0
    9.2936    4.9120    0.0000 H   0  0  0  0  0  0  0  0  0  0  0  0
    5.2520   -2.8301    0.0000 H   0  0  0  0  0  0  0  0  0  0  0  0
    4.8535   -3.5204    0.0000 H   0  0  0  0  0  0  0  0  0  0  0  0
    3.9441   -7.9954    0.0000 H   0  0  0  0  0  0  0  0  0  0  0  0
    4.3426   -7.3051    0.0000 H   0  0  0  0  0  0  0  0  0  0  0  0
   11.6787    8.8061    0.0000 H   0  0  0  0  0  0  0  0  0  0  0  0
   11.0681    8.2937    0.0000 H   0  0  0  0  0  0  0  0  0  0  0  0
    6.5422   -3.4954    0.0000 H   0  0  0  0  0  0  0  0  0  0  0  0
    6.9407   -2.8051    0.0000 H   0  0  0  0  0  0  0  0  0  0  0  0
    7.6982    5.4660    0.0000 H   0  0  0  0  0  0  0  0  0  0  0  0
    7.0876    4.9537    0.0000 H   0  0  0  0  0  0  0  0  0  0  0  0
    5.7932    0.7773    0.0000 H   0  0  0  0  0  0  0  0  0  0  0  0
    2.6540   -7.3301    0.0000 H   0  0  0  0  0  0  0  0  0  0  0  0
    2.2554   -8.0204    0.0000 H   0  0  0  0  0  0  0  0  0  0  0  0
   12.6635    7.7397    0.0000 H   0  0  0  0  0  0  0  0  0  0  0  0
   13.2741    8.2520    0.0000 H   0  0  0  0  0  0  0  0  0  0  0  0
   13.0055    9.9194    0.0000 H   0  0  0  0  0  0  0  0  0  0  0  0
   12.3949    9.4071    0.0000 H   0  0  0  0  0  0  0  0  0  0  0  0
    3.0781   -9.4954    0.0000 H   0  0  0  0  0  0  0  0  0  0  0  0
    3.4766   -8.8051    0.0000 H   0  0  0  0  0  0  0  0  0  0  0  0
    5.7741    2.1242    0.0000 H   0  0  0  0  0  0  0  0  0  0  0  0
    4.9272    1.8973    0.0000 H   0  0  0  0  0  0  0  0  0  0  0  0
    5.1541    1.0503    0.0000 H   0  0  0  0  0  0  0  0  0  0  0  0
    1.7880   -8.8301    0.0000 H   0  0  0  0  0  0  0  0  0  0  0  0
   13.9903    8.8530    0.0000 H   0  0  0  0  0  0  0  0  0  0  0  0
   14.6009    9.3654    0.0000 H   0  0  0  0  0  0  0  0  0  0  0  0
    1.3894   -9.5204    0.0000 H   0  0  0  0  0  0  0  0  0  0  0  0
    1.3800  -10.4127    0.0000 H   0  0  0  0  0  0  0  0  0  0  0  0
    2.0000  -11.0327    0.0000 H   0  0  0  0  0  0  0  0  0  0  0  0
    2.6200  -10.4127    0.0000 H   0  0  0  0  0  0  0  0  0  0  0  0
   14.9150   10.2007    0.0000 H   0  0  0  0  0  0  0  0  0  0  0  0
   14.5444   10.9953    0.0000 H   0  0  0  0  0  0  0  0  0  0  0  0
   13.7497   10.6248    0.0000 H   0  0  0  0  0  0  0  0  0  0  0  0
    4.6460    3.0943    0.0000 H   0  0  0  0  0  0  0  0  0  0  0  0
    4.0611   -0.2227    0.0000 H   0  0  0  0  0  0  0  0  0  0  0  0
    8.0622   -2.5327    0.0000 H   0  0  0  0  0  0  0  0  0  0  0  0
    9.3823    2.8390    0.0000 H   0  0  0  0  0  0  0  0  0  0  0  0
  1 32  1  0  0  0  0
  1 97  1  0  0  0  0
  2 33  1  0  0  0  0
  2 98  1  0  0  0  0
  3 34  1  0  0  0  0
  3 96  1  0  0  0  0
  4 35  1  0  0  0  0
  4 95  1  0  0  0  0
  5 37  2  0  0  0  0
  6 36  2  0  0  0  0
  7 38  2  0  0  0  0
  8 39  2  0  0  0  0
  9 12  1  0  0  0  0
  9 13  1  0  0  0  0
  9 45  1  0  0  0  0
  9 46  1  0  0  0  0
 10 11  1  0  0  0  0
 10 14  1  0  0  0  0
 10 47  1  0  0  0  0
 10 48  1  0  0  0  0
 11 15  1  0  0  0  0
 11 51  1  0  0  0  0
 11 52  1  0  0  0  0
 12 16  1  0  0  0  0
 12 49  1  0  0  0  0
 12 50  1  0  0  0  0
 13 18  1  0  0  0  0
 13 55  1  0  0  0  0
 13 56  1  0  0  0  0
 14 17  1  0  0  0  0
 14 53  1  0  0  0  0
 14 54  1  0  0  0  0
 15 19  1  0  0  0  0
 15 57  1  0  0  0  0
 15 58  1  0  0  0  0
 16 20  1  0  0  0  0
 16 59  1  0  0  0  0
 16 60  1  0  0  0  0
 17 22  1  0  0  0  0
 17 63  1  0  0  0  0
 17 64  1  0  0  0  0
 18 21  1  0  0  0  0
 18 61  1  0  0  0  0
 18 62  1  0  0  0  0
 19 24  1  0  0  0  0
 19 65  1  0  0  0  0
 19 66  1  0  0  0  0
 20 25  1  0  0  0  0
 20 67  1  0  0  0  0
 20 68  1  0  0  0  0
 21 27  1  0  0  0  0
 21 71  1  0  0  0  0
 21 72  1  0  0  0  0
 22 26  1  0  0  0  0
 22 69  1  0  0  0  0
 22 70  1  0  0  0  0
 23 28  1  0  0  0  0
 23 29  1  0  0  0  0
 23 40  1  0  0  0  0
 23 73  1  0  0  0  0
 24 30  1  0  0  0  0
 24 74  1  0  0  0  0
 24 75  1  0  0  0  0
 25 31  1  0  0  0  0
 25 76  1  0  0  0  0
 25 77  1  0  0  0  0
 26 32  2  0  0  0  0
 26 37  1  0  0  0  0
 27 33  2  0  0  0  0
 27 36  1  0  0  0  0
 28 35  2  0  0  0  0
 28 39  1  0  0  0  0
 29 34  2  0  0  0  0
 29 38  1  0  0  0  0
 30 41  1  0  0  0  0
 30 80  1  0  0  0  0
 30 81  1  0  0  0  0
 31 42  1  0  0  0  0
 31 78  1  0  0  0  0
 31 79  1  0  0  0  0
 32 38  1  0  0  0  0
 33 39  1  0  0  0  0
 34 37  1  0  0  0  0
 35 36  1  0  0  0  0
 40 82  1  0  0  0  0
 40 83  1  0  0  0  0
 40 84  1  0  0  0  0
 41 44  1  0  0  0  0
 41 85  1  0  0  0  0
 41 88  1  0  0  0  0
 42 43  1  0  0  0  0
 42 86  1  0  0  0  0
 42 87  1  0  0  0  0
 43 92  1  0  0  0  0
 43 93  1  0  0  0  0
 43 94  1  0  0  0  0
 44 89  1  0  0  0  0
 44 90  1  0  0  0  0
 44 91  1  0  0  0  0
M  END
>  <PUBCHEM_COMPOUND_CID>
21576542

>  <PUBCHEM_COMPOUND_CANONICALIZED>
1

>  <PUBCHEM_CACTVS_COMPLEXITY>
1080

>  <PUBCHEM_CACTVS_HBOND_ACCEPTOR>
8

>  <PUBCHEM_CACTVS_HBOND_DONOR>
4

>  <PUBCHEM_CACTVS_ROTATABLE_BOND>
22

>  <PUBCHEM_CACTVS_SUBSKEYS>
AAADcfB8PAAAAAAAAAAAAAAAAAAAAAAAAAAgQAAAAAAAAAAAAAAAGgAACAAADQSAgAACAAAAAgCIAoBQAAIAAAAgIAAACAFAAEgAABIAAAAAQAAEwAAIAQOIyqCuAAAAAAAAAAAAAAAAAAAAAAAAAAAAAA==

>  <PUBCHEM_IUPAC_OPENEYE_NAME>
2-[1-(2,5-dihydroxy-3,6-dioxo-4-undecyl-cyclohexa-1,4-dien-1-yl)ethyl]-3,6-dihydroxy-5-undecyl-1,4-benzoquinone

>  <PUBCHEM_IUPAC_CAS_NAME>
2-[1-(2,5-dihydroxy-3,6-dioxo-4-undecyl-1-cyclohexa-1,4-dienyl)ethyl]-3,6-dihydroxy-5-undecylcyclohexa-2,5-diene-1,4-dione

>  <PUBCHEM_IUPAC_NAME>
2-[1-(2,5-dihydroxy-3,6-dioxo-4-undecylcyclohexa-1,4-dien-1-yl)ethyl]-3,6-dihydroxy-5-undecylcyclohexa-2,5-diene-1,4-dione

>  <PUBCHEM_IUPAC_SYSTEMATIC_NAME>
2-[1-[2,5-bis(oxidanyl)-3,6-bis(oxidanylidene)-4-undecyl-cyclohexa-1,4-dien-1-yl]ethyl]-3,6-bis(oxidanyl)-5-undecyl-cyclohexa-2,5-diene-1,4-dione

>  <PUBCHEM_IUPAC_TRADITIONAL_NAME>
2-[1-(2,5-dihydroxy-3,6-diketo-4-undecyl-cyclohexa-1,4-dien-1-yl)ethyl]-3,6-dihydroxy-5-undecyl-p-benzoquinone

>  <PUBCHEM_IUPAC_INCHI>
InChI=1S/C36H54O8/c1-4-6-8-10-12-14-16-18-20-22-25-29(37)33(41)27(34(42)30(25)38)24(3)28-35(43)31(39)26(32(40)36(28)44)23-21-19-17-15-13-11-9-7-5-2/h24,37,39,42,44H,4-23H2,1-3H3

>  <PUBCHEM_IUPAC_INCHIKEY>
DHSDUZQMIDNCKR-UHFFFAOYSA-N

>  <PUBCHEM_XLOGP3_AA>
11.2

>  <PUBCHEM_EXACT_MASS>
614.382

>  <PUBCHEM_MOLECULAR_FORMULA>
C36H54O8

>  <PUBCHEM_MOLECULAR_WEIGHT>
614.82

>  <PUBCHEM_OPENEYE_CAN_SMILES>
CCCCCCCCCCCC1=C(C(=O)C(=C(C1=O)O)C(C)C2=C(C(=O)C(=C(C2=O)O)CCCCCCCCCCC)O)O

>  <PUBCHEM_OPENEYE_ISO_SMILES>
CCCCCCCCCCCC1=C(C(=O)C(=C(C1=O)O)C(C)C2=C(C(=O)C(=C(C2=O)O)CCCCCCCCCCC)O)O

>  <PUBCHEM_CACTVS_TPSA>
149

>  <PUBCHEM_MONOISOTOPIC_WEIGHT>
614.382

>  <PUBCHEM_TOTAL_CHARGE>
0

>  <PUBCHEM_HEAVY_ATOM_COUNT>
44

>  <PUBCHEM_ATOM_DEF_STEREO_COUNT>
0

>  <PUBCHEM_ATOM_UDEF_STEREO_COUNT>
0

>  <PUBCHEM_BOND_DEF_STEREO_COUNT>
0

>  <PUBCHEM_BOND_UDEF_STEREO_COUNT>
0

>  <PUBCHEM_ISOTOPIC_ATOM_COUNT>
0

>  <PUBCHEM_COMPONENT_COUNT>
1

>  <PUBCHEM_CACTVS_TAUTO_COUNT>
1001

>  <PUBCHEM_COORDINATE_TYPE>
1
5
255

$$$$
