21579116
 OpenBabel06101807152D

 66 70  0  0  1  0  0  0  0  0999 V2000
    8.5991   -0.8864    0.0000 O   0  0  0  0  0  0  0  0  0  0  0  0
   10.3312   -0.8864    0.0000 O   0  0  0  0  0  0  0  0  0  0  0  0
    6.8671   -2.8864    0.0000 O   0  0  0  0  0  0  0  0  0  0  0  0
    8.5991   -3.8864    0.0000 O   0  0  0  0  0  0  0  0  0  0  0  0
   10.3312   -2.8864    0.0000 O   0  0  0  0  0  0  0  0  0  0  0  0
    6.0010   -1.3864    0.0000 O   0  0  0  0  0  0  0  0  0  0  0  0
   12.6015    0.4720    0.0000 O   0  3  0  0  0  0  0  0  0  0  0  0
    9.9209    2.6934    0.0000 O   0  0  0  0  0  0  0  0  0  0  0  0
    5.1350    0.1136    0.0000 O   0  0  0  0  0  0  0  0  0  0  0  0
   13.2383    3.9443    0.0000 O   0  0  0  0  0  0  0  0  0  0  0  0
   14.6124   -2.5207    0.0000 O   0  0  0  0  0  0  0  0  0  0  0  0
    7.9548    3.0045    0.0000 O   0  0  0  0  0  0  0  0  0  0  0  0
   13.3268   -4.0528    0.0000 O   0  0  0  0  0  0  0  0  0  0  0  0
    7.6878    1.2933    0.0000 O   0  0  0  0  0  0  0  0  0  0  0  0
    2.5369   -1.3864    0.0000 O   0  0  0  0  0  0  0  0  0  0  0  0
    3.4030    0.1136    0.0000 O   0  0  0  0  0  0  0  0  0  0  0  0
    7.7331   -2.3864    0.0000 C   0  0  1  0  0  0  0  0  0  0  0  0
    8.5991   -2.8864    0.0000 C   0  0  1  0  0  0  0  0  0  0  0  0
    7.7331   -1.3864    0.0000 C   0  0  1  0  0  0  0  0  0  0  0  0
    9.4651   -2.3864    0.0000 C   0  0  2  0  0  0  0  0  0  0  0  0
    9.4651   -1.3864    0.0000 C   0  0  1  0  0  0  0  0  0  0  0  0
    6.8671   -0.8864    0.0000 C   0  0  0  0  0  0  0  0  0  0  0  0
   10.9740   -0.1204    0.0000 C   0  0  0  0  0  0  0  0  0  0  0  0
   10.6319    0.8193    0.0000 C   0  0  0  0  0  0  0  0  0  0  0  0
   11.9588   -0.2940    0.0000 C   0  0  0  0  0  0  0  0  0  0  0  0
   11.2747    1.5854    0.0000 C   0  0  0  0  0  0  0  0  0  0  0  0
   12.2595    1.4117    0.0000 C   0  0  0  0  0  0  0  0  0  0  0  0
   10.9034    2.5586    0.0000 C   0  0  0  0  0  0  0  0  0  0  0  0
    9.6551    0.9903    0.0000 C   0  0  0  0  0  0  0  0  0  0  0  0
   12.3008   -1.2337    0.0000 C   0  0  0  0  0  0  0  0  0  0  0  0
    5.1350   -0.8864    0.0000 C   0  0  0  0  0  0  0  0  0  0  0  0
   12.9413    2.1992    0.0000 C   0  0  0  0  0  0  0  0  0  0  0  0
    9.3033    1.9175    0.0000 C   0  0  0  0  0  0  0  0  0  0  0  0
   11.5668    3.3616    0.0000 C   0  0  0  0  0  0  0  0  0  0  0  0
   12.5926    3.1808    0.0000 C   0  0  0  0  0  0  0  0  0  0  0  0
   13.2856   -1.4074    0.0000 C   0  0  0  0  0  0  0  0  0  0  0  0
   11.6580   -1.9998    0.0000 C   0  0  0  0  0  0  0  0  0  0  0  0
    4.2690   -1.3864    0.0000 C   0  0  0  0  0  0  0  0  0  0  0  0
   13.6276   -2.3471    0.0000 C   0  0  0  0  0  0  0  0  0  0  0  0
    8.3153    2.0717    0.0000 C   0  0  0  0  0  0  0  0  0  0  0  0
   12.0000   -2.9395    0.0000 C   0  0  0  0  0  0  0  0  0  0  0  0
   12.9848   -3.1131    0.0000 C   0  0  0  0  0  0  0  0  0  0  0  0
    3.4030   -0.8864    0.0000 C   0  0  0  0  0  0  0  0  0  0  0  0
    7.7331   -3.0064    0.0000 H   0  0  0  0  0  0  0  0  0  0  0  0
    9.1360   -3.1964    0.0000 H   0  0  0  0  0  0  0  0  0  0  0  0
    7.7331   -0.7664    0.0000 H   0  0  0  0  0  0  0  0  0  0  0  0
   10.0021   -2.0764    0.0000 H   0  0  0  0  0  0  0  0  0  0  0  0
    9.4651   -0.7664    0.0000 H   0  0  0  0  0  0  0  0  0  0  0  0
    7.2656   -0.4115    0.0000 H   0  0  0  0  0  0  0  0  0  0  0  0
    6.4685   -0.4115    0.0000 H   0  0  0  0  0  0  0  0  0  0  0  0
    6.8671   -3.5064    0.0000 H   0  0  0  0  0  0  0  0  0  0  0  0
    8.0622   -4.1964    0.0000 H   0  0  0  0  0  0  0  0  0  0  0  0
   10.3312   -3.5064    0.0000 H   0  0  0  0  0  0  0  0  0  0  0  0
    9.2601    0.5124    0.0000 H   0  0  0  0  0  0  0  0  0  0  0  0
   13.5506    2.0845    0.0000 H   0  0  0  0  0  0  0  0  0  0  0  0
   11.3525    3.9434    0.0000 H   0  0  0  0  0  0  0  0  0  0  0  0
   13.6841   -0.9324    0.0000 H   0  0  0  0  0  0  0  0  0  0  0  0
   11.0474   -1.8921    0.0000 H   0  0  0  0  0  0  0  0  0  0  0  0
    3.8705   -1.8614    0.0000 H   0  0  0  0  0  0  0  0  0  0  0  0
    4.6675   -1.8614    0.0000 H   0  0  0  0  0  0  0  0  0  0  0  0
   11.6015   -3.4144    0.0000 H   0  0  0  0  0  0  0  0  0  0  0  0
   13.0285    4.5277    0.0000 H   0  0  0  0  0  0  0  0  0  0  0  0
   15.0109   -2.0458    0.0000 H   0  0  0  0  0  0  0  0  0  0  0  0
    8.3439    3.4872    0.0000 H   0  0  0  0  0  0  0  0  0  0  0  0
   12.9283   -4.5277    0.0000 H   0  0  0  0  0  0  0  0  0  0  0  0
    2.0000   -1.0764    0.0000 H   0  0  0  0  0  0  0  0  0  0  0  0
  1 19  1  0  0  0  0
  1 21  1  0  0  0  0
  2 23  1  0  0  0  0
  3 51  1  0  0  0  0
  4 52  1  0  0  0  0
  5 53  1  0  0  0  0
  6 22  1  0  0  0  0
  6 31  1  0  0  0  0
  7 25  2  0  0  0  0
  7 27  1  0  0  0  0
  8 28  1  0  0  0  0
  8 33  1  0  0  0  0
  9 31  2  0  0  0  0
 10 35  1  0  0  0  0
 10 62  1  0  0  0  0
 11 39  1  0  0  0  0
 11 63  1  0  0  0  0
 12 40  1  0  0  0  0
 12 64  1  0  0  0  0
 13 42  1  0  0  0  0
 13 65  1  0  0  0  0
 14 40  2  0  0  0  0
 15 43  1  0  0  0  0
 15 66  1  0  0  0  0
 16 43  2  0  0  0  0
 17  3  1  0  0  0  0
 17 18  1  6  0  0  0
 17 44  1  0  0  0  0
 18  4  1  0  0  0  0
 18 20  1  1  0  0  0
 18 45  1  0  0  0  0
 19 17  1  6  0  0  0
 19 22  1  0  0  0  0
 19 46  1  0  0  0  0
 20  5  1  0  0  0  0
 20 21  1  6  0  0  0
 20 47  1  0  0  0  0
 21  2  1  0  0  0  0
 21 48  1  6  0  0  0
 22 49  1  0  0  0  0
 22 50  1  0  0  0  0
 23 24  2  0  0  0  0
 23 25  1  0  0  0  0
 24 26  1  0  0  0  0
 24 29  1  0  0  0  0
 25 30  1  0  0  0  0
 26 27  2  0  0  0  0
 26 28  1  0  0  0  0
 27 32  1  0  0  0  0
 28 34  2  0  0  0  0
 29 33  2  0  0  0  0
 29 54  1  0  0  0  0
 30 36  2  0  0  0  0
 30 37  1  0  0  0  0
 31 38  1  0  0  0  0
 32 35  2  0  0  0  0
 32 55  1  0  0  0  0
 33 40  1  0  0  0  0
 34 35  1  0  0  0  0
 34 56  1  0  0  0  0
 36 39  1  0  0  0  0
 36 57  1  0  0  0  0
 37 41  2  0  0  0  0
 37 58  1  0  0  0  0
 38 43  1  0  0  0  0
 38 59  1  0  0  0  0
 38 60  1  0  0  0  0
 39 42  2  0  0  0  0
 41 42  1  0  0  0  0
 41 61  1  0  0  0  0
M  CHG  1   7   1
M  END
>  <PUBCHEM_COMPOUND_CID>
21579116

>  <PUBCHEM_COMPOUND_CANONICALIZED>
1

>  <PUBCHEM_CACTVS_COMPLEXITY>
1080

>  <PUBCHEM_CACTVS_HBOND_ACCEPTOR>
15

>  <PUBCHEM_CACTVS_HBOND_DONOR>
8

>  <PUBCHEM_CACTVS_ROTATABLE_BOND>
9

>  <PUBCHEM_CACTVS_SUBSKEYS>
AAADceB4PgAAAAAAAAAAAAAAAAAAAAAAAAA0aIECAAAAAACR9AAAGgAACAAADBSwmAMwDsAABkCIAqDSCAICCAAkIAAIiAFGiMgdNzaONR6ieWOl4BUPuYfK7PzOoAABCAAIQABAAAIQABCAAAAAAAAAAA==

>  <PUBCHEM_IUPAC_INCHI>
InChI=1S/C27H22O16/c28-10-4-14-20-11(6-16(40-14)26(37)38)25(24(41-15(20)5-10)9-1-2-12(29)13(30)3-9)43-27-23(36)22(35)21(34)17(42-27)8-39-19(33)7-18(31)32/h1-6,17,21-23,27,34-36H,7-8H2,(H4-,28,29,30,31,32,37,38)/p+1/t17-,21-,22+,23-,27+/m1/s1

>  <PUBCHEM_IUPAC_INCHIKEY>
QYGZGEVHEDPHDA-VFTFQOQOSA-O

>  <PUBCHEM_EXACT_MASS>
603.099

>  <PUBCHEM_MOLECULAR_FORMULA>
C27H23O16+

>  <PUBCHEM_MOLECULAR_WEIGHT>
603.465

>  <PUBCHEM_OPENEYE_CAN_SMILES>
C1=CC(=C(C=C1C2=[O+]C3=CC(=CC4=C3C(=C2OC5C(C(C(C(O5)COC(=O)CC(=O)O)O)O)O)C=C(O4)C(=O)O)O)O)O

>  <PUBCHEM_OPENEYE_ISO_SMILES>
C1=CC(=C(C=C1C2=[O+]C3=CC(=CC4=C3C(=C2O[C@H]5[C@@H]([C@H]([C@@H]([C@H](O5)COC(=O)CC(=O)O)O)O)O)C=C(O4)C(=O)O)O)O)O

>  <PUBCHEM_CACTVS_TPSA>
251

>  <PUBCHEM_MONOISOTOPIC_WEIGHT>
603.099

>  <PUBCHEM_TOTAL_CHARGE>
1

>  <PUBCHEM_HEAVY_ATOM_COUNT>
43

>  <PUBCHEM_ATOM_DEF_STEREO_COUNT>
5

>  <PUBCHEM_ATOM_UDEF_STEREO_COUNT>
0

>  <PUBCHEM_BOND_DEF_STEREO_COUNT>
0

>  <PUBCHEM_BOND_UDEF_STEREO_COUNT>
0

>  <PUBCHEM_ISOTOPIC_ATOM_COUNT>
0

>  <PUBCHEM_COMPONENT_COUNT>
1

>  <PUBCHEM_CACTVS_TAUTO_COUNT>
103

>  <PUBCHEM_COORDINATE_TYPE>
1
5
255

>  <PUBCHEM_BONDANNOTATIONS>
19  22  5
21  2  5
23  24  8
23  25  8
24  26  8
26  27  8
26  28  8
27  32  8
28  34  8
17  3  6
30  36  8
30  37  8
32  35  8
34  35  8
36  39  8
37  41  8
39  42  8
18  4  5
41  42  8
20  5  6
7  25  8
7  27  8

$$$$
