21579191
 OpenBabel06101807152D

 85 91  0  0  1  0  0  0  0  0999 V2000
    5.1350   -3.7323    0.0000 O   0  0  0  0  0  0  0  0  0  0  0  0
    8.7588    2.6425    0.0000 O   0  0  0  0  0  0  0  0  0  0  0  0
    6.8671   -3.7323    0.0000 O   0  0  0  0  0  0  0  0  0  0  0  0
    6.1480    2.2136    0.0000 O   0  0  0  0  0  0  0  0  0  0  0  0
    5.1350   -6.7323    0.0000 O   0  0  0  0  0  0  0  0  0  0  0  0
    7.7551   -1.1664    0.0000 O   0  3  0  0  0  0  0  0  0  0  0  0
    3.4030   -5.7323    0.0000 O   0  0  0  0  0  0  0  0  0  0  0  0
    6.8671   -5.7323    0.0000 O   0  0  0  0  0  0  0  0  0  0  0  0
    2.5369   -4.2323    0.0000 O   0  0  0  0  0  0  0  0  0  0  0  0
    5.3256    1.5971    0.0000 O   0  0  0  0  0  0  0  0  0  0  0  0
    8.6283   -1.0307    0.0000 O   0  0  0  0  0  0  0  0  0  0  0  0
    4.2470   -1.1731    0.0000 O   0  0  0  0  0  0  0  0  0  0  0  0
   11.4872    0.4023    0.0000 O   0  0  0  0  0  0  0  0  0  0  0  0
    8.3617    6.2261    0.0000 O   0  0  0  0  0  0  0  0  0  0  0  0
    6.3907    6.5658    0.0000 O   0  0  0  0  0  0  0  0  0  0  0  0
   11.2465   -4.1812    0.0000 O   0  0  0  0  0  0  0  0  0  0  0  0
    7.4791    1.1054    0.0000 C   0  0  1  0  0  0  0  0  0  0  0  0
    7.1335    2.0438    0.0000 C   0  0  2  0  0  0  0  0  0  0  0  0
    7.7733    2.8123    0.0000 C   0  0  1  0  0  0  0  0  0  0  0  0
    5.1350   -5.7323    0.0000 C   0  0  1  0  0  0  0  0  0  0  0  0
    4.2690   -5.2323    0.0000 C   0  0  1  0  0  0  0  0  0  0  0  0
    6.0010   -5.2323    0.0000 C   0  0  2  0  0  0  0  0  0  0  0  0
    8.4646    0.9356    0.0000 C   0  0  0  0  0  0  0  0  0  0  0  0
    4.2690   -4.2323    0.0000 C   0  0  1  0  0  0  0  0  0  0  0  0
    6.8393    0.3369    0.0000 C   0  0  0  0  0  0  0  0  0  0  0  0
    6.0010   -4.2323    0.0000 C   0  0  1  0  0  0  0  0  0  0  0  0
    9.1044    1.7041    0.0000 C   0  0  0  0  0  0  0  0  0  0  0  0
    6.8431   -0.6631    0.0000 C   0  0  0  0  0  0  0  0  0  0  0  0
    7.4277    3.7507    0.0000 C   0  0  0  0  0  0  0  0  0  0  0  0
    3.4030   -3.7323    0.0000 C   0  0  0  0  0  0  0  0  0  0  0  0
    5.9713    0.8336    0.0000 C   0  0  0  0  0  0  0  0  0  0  0  0
    8.8095   -0.0473    0.0000 C   0  0  0  0  0  0  0  0  0  0  0  0
    5.9790   -1.1664    0.0000 C   0  0  0  0  0  0  0  0  0  0  0  0
    6.8671   -2.7323    0.0000 C   0  0  0  0  0  0  0  0  0  0  0  0
   10.1335    1.5430    0.0000 C   0  0  0  0  0  0  0  0  0  0  0  0
    5.9670   -2.2080    0.0000 C   0  0  0  0  0  0  0  0  0  0  0  0
    7.7671   -2.2080    0.0000 C   0  0  0  0  0  0  0  0  0  0  0  0
    5.1111   -0.6698    0.0000 C   0  0  0  0  0  0  0  0  0  0  0  0
    5.1072    0.3302    0.0000 C   0  0  0  0  0  0  0  0  0  0  0  0
    9.8346   -0.2321    0.0000 C   0  0  0  0  0  0  0  0  0  0  0  0
    8.0675    4.5192    0.0000 C   0  0  0  0  0  0  0  0  0  0  0  0
    6.4422    3.9205    0.0000 C   0  0  0  0  0  0  0  0  0  0  0  0
   10.5011    0.5684    0.0000 C   0  0  0  0  0  0  0  0  0  0  0  0
    8.6370   -2.7013    0.0000 C   0  0  0  0  0  0  0  0  0  0  0  0
    7.7218    5.4576    0.0000 C   0  0  0  0  0  0  0  0  0  0  0  0
    6.0966    4.8589    0.0000 C   0  0  0  0  0  0  0  0  0  0  0  0
    6.7364    5.6274    0.0000 C   0  0  0  0  0  0  0  0  0  0  0  0
    9.4991   -2.1946    0.0000 C   0  0  0  0  0  0  0  0  0  0  0  0
    8.6447   -3.7012    0.0000 C   0  0  0  0  0  0  0  0  0  0  0  0
   10.3690   -2.6879    0.0000 C   0  0  0  0  0  0  0  0  0  0  0  0
    9.5145   -4.1946    0.0000 C   0  0  0  0  0  0  0  0  0  0  0  0
   10.3767   -3.6879    0.0000 C   0  0  0  0  0  0  0  0  0  0  0  0
    6.6415    1.2498    0.0000 H   0  0  0  0  0  0  0  0  0  0  0  0
    6.9192    2.6256    0.0000 H   0  0  0  0  0  0  0  0  0  0  0  0
    8.1700    3.2888    0.0000 H   0  0  0  0  0  0  0  0  0  0  0  0
    5.6720   -6.0423    0.0000 H   0  0  0  0  0  0  0  0  0  0  0  0
    4.2690   -5.8523    0.0000 H   0  0  0  0  0  0  0  0  0  0  0  0
    6.5380   -4.9223    0.0000 H   0  0  0  0  0  0  0  0  0  0  0  0
    4.2690   -3.6123    0.0000 H   0  0  0  0  0  0  0  0  0  0  0  0
    6.0010   -3.6123    0.0000 H   0  0  0  0  0  0  0  0  0  0  0  0
    3.8015   -3.2573    0.0000 H   0  0  0  0  0  0  0  0  0  0  0  0
    3.0044   -3.2573    0.0000 H   0  0  0  0  0  0  0  0  0  0  0  0
    5.9337    2.7954    0.0000 H   0  0  0  0  0  0  0  0  0  0  0  0
   10.5247    2.0241    0.0000 H   0  0  0  0  0  0  0  0  0  0  0  0
    5.4277   -2.5138    0.0000 H   0  0  0  0  0  0  0  0  0  0  0  0
    4.5691    0.6382    0.0000 H   0  0  0  0  0  0  0  0  0  0  0  0
    4.5981   -7.0423    0.0000 H   0  0  0  0  0  0  0  0  0  0  0  0
    3.4030   -6.3523    0.0000 H   0  0  0  0  0  0  0  0  0  0  0  0
    6.8671   -6.3523    0.0000 H   0  0  0  0  0  0  0  0  0  0  0  0
   10.0466   -0.8147    0.0000 H   0  0  0  0  0  0  0  0  0  0  0  0
    8.6785    4.4139    0.0000 H   0  0  0  0  0  0  0  0  0  0  0  0
    6.0455    3.4440    0.0000 H   0  0  0  0  0  0  0  0  0  0  0  0
    5.4856    4.9642    0.0000 H   0  0  0  0  0  0  0  0  0  0  0  0
    2.0000   -3.9223    0.0000 H   0  0  0  0  0  0  0  0  0  0  0  0
    4.7154    1.4871    0.0000 H   0  0  0  0  0  0  0  0  0  0  0  0
    9.1002   -1.4329    0.0000 H   0  0  0  0  0  0  0  0  0  0  0  0
    3.7089   -0.8652    0.0000 H   0  0  0  0  0  0  0  0  0  0  0  0
    9.4944   -1.5746    0.0000 H   0  0  0  0  0  0  0  0  0  0  0  0
    8.1102   -4.0154    0.0000 H   0  0  0  0  0  0  0  0  0  0  0  0
   11.8820    0.8803    0.0000 H   0  0  0  0  0  0  0  0  0  0  0  0
    8.9727    6.1208    0.0000 H   0  0  0  0  0  0  0  0  0  0  0  0
   10.9035   -2.3738    0.0000 H   0  0  0  0  0  0  0  0  0  0  0  0
    9.5193   -4.8145    0.0000 H   0  0  0  0  0  0  0  0  0  0  0  0
    6.7874    7.0423    0.0000 H   0  0  0  0  0  0  0  0  0  0  0  0
   11.2513   -4.8012    0.0000 H   0  0  0  0  0  0  0  0  0  0  0  0
  1 24  1  0  0  0  0
  1 26  1  0  0  0  0
  2 19  1  0  0  0  0
  2 27  1  0  0  0  0
  3 34  1  0  0  0  0
  4 63  1  0  0  0  0
  5 67  1  0  0  0  0
  6 28  2  0  0  0  0
  6 37  1  0  0  0  0
  7 68  1  0  0  0  0
  8 69  1  0  0  0  0
  9 30  1  0  0  0  0
  9 74  1  0  0  0  0
 10 31  1  0  0  0  0
 10 75  1  0  0  0  0
 11 32  1  0  0  0  0
 11 76  1  0  0  0  0
 12 38  1  0  0  0  0
 12 77  1  0  0  0  0
 13 43  1  0  0  0  0
 13 80  1  0  0  0  0
 14 45  1  0  0  0  0
 14 81  1  0  0  0  0
 15 47  1  0  0  0  0
 15 84  1  0  0  0  0
 16 52  1  0  0  0  0
 16 85  1  0  0  0  0
 17 18  1  1  0  0  0
 17 23  1  0  0  0  0
 17 25  1  0  0  0  0
 17 53  1  0  0  0  0
 18  4  1  0  0  0  0
 18 19  1  1  0  0  0
 18 54  1  0  0  0  0
 19 29  1  0  0  0  0
 19 55  1  6  0  0  0
 20  5  1  0  0  0  0
 20 21  1  6  0  0  0
 20 56  1  0  0  0  0
 21  7  1  0  0  0  0
 21 24  1  1  0  0  0
 21 57  1  0  0  0  0
 22  8  1  0  0  0  0
 22 20  1  1  0  0  0
 22 58  1  0  0  0  0
 23 27  1  0  0  0  0
 23 32  2  0  0  0  0
 24 30  1  0  0  0  0
 24 59  1  6  0  0  0
 25 28  1  0  0  0  0
 25 31  2  0  0  0  0
 26  3  1  0  0  0  0
 26 22  1  6  0  0  0
 26 60  1  0  0  0  0
 27 35  2  0  0  0  0
 28 33  1  0  0  0  0
 29 41  2  0  0  0  0
 29 42  1  0  0  0  0
 30 61  1  0  0  0  0
 30 62  1  0  0  0  0
 31 39  1  0  0  0  0
 32 40  1  0  0  0  0
 33 36  2  0  0  0  0
 33 38  1  0  0  0  0
 34 36  1  0  0  0  0
 34 37  2  0  0  0  0
 35 43  1  0  0  0  0
 35 64  1  0  0  0  0
 36 65  1  0  0  0  0
 37 44  1  0  0  0  0
 38 39  2  0  0  0  0
 39 66  1  0  0  0  0
 40 43  2  0  0  0  0
 40 70  1  0  0  0  0
 41 45  1  0  0  0  0
 41 71  1  0  0  0  0
 42 46  2  0  0  0  0
 42 72  1  0  0  0  0
 44 48  2  0  0  0  0
 44 49  1  0  0  0  0
 45 47  2  0  0  0  0
 46 47  1  0  0  0  0
 46 73  1  0  0  0  0
 48 50  1  0  0  0  0
 48 78  1  0  0  0  0
 49 51  2  0  0  0  0
 49 79  1  0  0  0  0
 50 52  2  0  0  0  0
 50 82  1  0  0  0  0
 51 52  1  0  0  0  0
 51 83  1  0  0  0  0
M  CHG  1   6   1
M  END
>  <PUBCHEM_COMPOUND_CID>
21579191

>  <PUBCHEM_COMPOUND_CANONICALIZED>
1

>  <PUBCHEM_CACTVS_COMPLEXITY>
1180

>  <PUBCHEM_CACTVS_HBOND_ACCEPTOR>
15

>  <PUBCHEM_CACTVS_HBOND_DONOR>
12

>  <PUBCHEM_CACTVS_ROTATABLE_BOND>
6

>  <PUBCHEM_CACTVS_SUBSKEYS>
AAADcfB8PgAAAAAAAAAAAAAAAAAAAAAAAAA0aNGCAAAAAACR9AAAGgAACAAADRSwmAMwDsAABkCIAqBSAAICCAAkIAAIiAFGiMgdNzaGNR6ieWOl4BUPuYfK7PzOoAADCAAIQABAAAYQABCAAAAAAAAAAA==

>  <PUBCHEM_IUPAC_OPENEYE_NAME>
(2R,3R,4S)-4-[5,7-dihydroxy-2-(4-hydroxyphenyl)-3-[(2S,3R,4S,5S,6R)-3,4,5-trihydroxy-6-(hydroxymethyl)tetrahydropyran-2-yl]oxy-chromenylium-8-yl]-2-(3,4-dihydroxyphenyl)chromane-3,5,7-triol

>  <PUBCHEM_IUPAC_CAS_NAME>
(2R,3R,4S)-4-[5,7-dihydroxy-2-(4-hydroxyphenyl)-3-[[(2S,3R,4S,5S,6R)-3,4,5-trihydroxy-6-(hydroxymethyl)-2-oxanyl]oxy]-1-benzopyrylium-8-yl]-2-(3,4-dihydroxyphenyl)-3,4-dihydro-2H-1-benzopyran-3,5,7-triol

>  <PUBCHEM_IUPAC_NAME>
(2R,3R,4S)-4-[5,7-dihydroxy-2-(4-hydroxyphenyl)-3-[(2S,3R,4S,5S,6R)-3,4,5-trihydroxy-6-(hydroxymethyl)oxan-2-yl]oxychromenylium-8-yl]-2-(3,4-dihydroxyphenyl)-3,4-dihydro-2H-chromene-3,5,7-triol

>  <PUBCHEM_IUPAC_SYSTEMATIC_NAME>
(2R,3R,4S)-2-[3,4-bis(oxidanyl)phenyl]-4-[3-[(2S,3R,4S,5S,6R)-6-(hydroxymethyl)-3,4,5-tris(oxidanyl)oxan-2-yl]oxy-2-(4-hydroxyphenyl)-5,7-bis(oxidanyl)chromenylium-8-yl]-3,4-dihydro-2H-chromene-3,5,7-triol

>  <PUBCHEM_IUPAC_TRADITIONAL_NAME>
(2R,3R,4S)-4-[5,7-dihydroxy-2-(4-hydroxyphenyl)-3-[(2S,3R,4S,5S,6R)-3,4,5-trihydroxy-6-methylol-tetrahydropyran-2-yl]oxy-1-benzopyrylium-8-yl]-2-(3,4-dihydroxyphenyl)chroman-3,5,7-triol

>  <PUBCHEM_IUPAC_INCHI>
InChI=1S/C36H32O16/c37-12-25-29(45)31(47)32(48)36(51-25)50-24-10-17-19(41)11-22(44)27(35(17)52-33(24)13-1-4-15(38)5-2-13)28-26-21(43)8-16(39)9-23(26)49-34(30(28)46)14-3-6-18(40)20(42)7-14/h1-11,25,28-32,34,36-37,45-48H,12H2,(H6-,38,39,40,41,42,43,44)/p+1/t25-,28+,29-,30-,31+,32-,34-,36-/m1/s1

>  <PUBCHEM_IUPAC_INCHIKEY>
GYFCZBFMXPYBAY-KRNRNQEZSA-O

>  <PUBCHEM_EXACT_MASS>
721.177

>  <PUBCHEM_MOLECULAR_FORMULA>
C36H33O16+

>  <PUBCHEM_MOLECULAR_WEIGHT>
721.644

>  <PUBCHEM_OPENEYE_CAN_SMILES>
C1=CC(=CC=C1C2=C(C=C3C(=CC(=C(C3=[O+]2)C4C(C(OC5=CC(=CC(=C45)O)O)C6=CC(=C(C=C6)O)O)O)O)O)OC7C(C(C(C(O7)CO)O)O)O)O

>  <PUBCHEM_OPENEYE_ISO_SMILES>
C1=CC(=CC=C1C2=C(C=C3C(=CC(=C(C3=[O+]2)[C@H]4[C@H]([C@H](OC5=CC(=CC(=C45)O)O)C6=CC(=C(C=C6)O)O)O)O)O)O[C@H]7[C@@H]([C@H]([C@@H]([C@H](O7)CO)O)O)O)O

>  <PUBCHEM_CACTVS_TPSA>
271

>  <PUBCHEM_MONOISOTOPIC_WEIGHT>
721.177

>  <PUBCHEM_TOTAL_CHARGE>
1

>  <PUBCHEM_HEAVY_ATOM_COUNT>
52

>  <PUBCHEM_ATOM_DEF_STEREO_COUNT>
8

>  <PUBCHEM_ATOM_UDEF_STEREO_COUNT>
0

>  <PUBCHEM_BOND_DEF_STEREO_COUNT>
0

>  <PUBCHEM_BOND_UDEF_STEREO_COUNT>
0

>  <PUBCHEM_ISOTOPIC_ATOM_COUNT>
0

>  <PUBCHEM_COMPONENT_COUNT>
1

>  <PUBCHEM_CACTVS_TAUTO_COUNT>
990

>  <PUBCHEM_COORDINATE_TYPE>
1
5
255

>  <PUBCHEM_BONDANNOTATIONS>
17  53  6
19  29  5
23  27  8
23  32  8
24  30  5
25  28  8
25  31  8
27  35  8
28  33  8
29  41  8
29  42  8
26  3  5
31  39  8
32  40  8
33  36  8
33  38  8
34  36  8
34  37  8
35  43  8
38  39  8
18  4  5
40  43  8
41  45  8
42  46  8
44  48  8
44  49  8
45  47  8
46  47  8
48  50  8
49  51  8
20  5  5
50  52  8
51  52  8
6  28  8
6  37  8
21  7  6
22  8  6

$$$$
