21591149
 OpenBabel06101807152D

 51 52  0  0  0  0  0  0  0  0999 V2000
    3.7320   -0.6550    0.0000 O   0  0  0  0  0  0  0  0  0  0  0  0
    5.4641   -3.6550    0.0000 O   0  0  0  0  0  0  0  0  0  0  0  0
    7.1962   -0.6550    0.0000 O   0  0  0  0  0  0  0  0  0  0  0  0
    7.1962    0.3450    0.0000 O   0  0  0  0  0  0  0  0  0  0  0  0
    8.0622    1.8450    0.0000 O   0  0  0  0  0  0  0  0  0  0  0  0
    6.3301    4.8450    0.0000 O   0  0  0  0  0  0  0  0  0  0  0  0
    4.5981   -2.1550    0.0000 C   0  0  0  0  0  0  0  0  0  0  0  0
    5.4641   -0.6550    0.0000 C   0  0  0  0  0  0  0  0  0  0  0  0
    4.5981   -1.1550    0.0000 C   0  0  0  0  0  0  0  0  0  0  0  0
    5.4641    0.3450    0.0000 C   0  0  0  0  0  0  0  0  0  0  0  0
    3.7320   -2.6550    0.0000 C   0  0  0  0  0  0  0  0  0  0  0  0
    5.4641   -2.6550    0.0000 C   0  0  0  0  0  0  0  0  0  0  0  0
    6.3301   -1.1550    0.0000 C   0  0  0  0  0  0  0  0  0  0  0  0
    6.3301   -2.1550    0.0000 C   0  0  0  0  0  0  0  0  0  0  0  0
    6.3301    0.8450    0.0000 C   0  0  0  0  0  0  0  0  0  0  0  0
    3.7320   -3.6550    0.0000 C   0  0  0  0  0  0  0  0  0  0  0  0
    6.3301    1.8450    0.0000 C   0  0  0  0  0  0  0  0  0  0  0  0
    2.8660   -4.1550    0.0000 C   0  0  0  0  0  0  0  0  0  0  0  0
    7.1962    2.3450    0.0000 C   0  0  0  0  0  0  0  0  0  0  0  0
    5.4641    2.3450    0.0000 C   0  0  0  0  0  0  0  0  0  0  0  0
    2.8660   -1.1550    0.0000 C   0  0  0  0  0  0  0  0  0  0  0  0
    2.8660   -5.1550    0.0000 C   0  0  0  0  0  0  0  0  0  0  0  0
    2.0000   -3.6550    0.0000 C   0  0  0  0  0  0  0  0  0  0  0  0
    7.1962    3.3450    0.0000 C   0  0  0  0  0  0  0  0  0  0  0  0
    6.3301   -4.1550    0.0000 C   0  0  0  0  0  0  0  0  0  0  0  0
    5.4641    3.3450    0.0000 C   0  0  0  0  0  0  0  0  0  0  0  0
    6.3301    3.8450    0.0000 C   0  0  0  0  0  0  0  0  0  0  0  0
    5.2520    0.9276    0.0000 H   0  0  0  0  0  0  0  0  0  0  0  0
    4.8535    0.2373    0.0000 H   0  0  0  0  0  0  0  0  0  0  0  0
    3.5200   -2.0724    0.0000 H   0  0  0  0  0  0  0  0  0  0  0  0
    3.1215   -2.7627    0.0000 H   0  0  0  0  0  0  0  0  0  0  0  0
    6.8671   -2.4650    0.0000 H   0  0  0  0  0  0  0  0  0  0  0  0
    4.2690   -3.9650    0.0000 H   0  0  0  0  0  0  0  0  0  0  0  0
    4.9272    2.0350    0.0000 H   0  0  0  0  0  0  0  0  0  0  0  0
    7.7331   -0.9650    0.0000 H   0  0  0  0  0  0  0  0  0  0  0  0
    2.5560   -0.6181    0.0000 H   0  0  0  0  0  0  0  0  0  0  0  0
    2.3291   -1.4650    0.0000 H   0  0  0  0  0  0  0  0  0  0  0  0
    3.1760   -1.6919    0.0000 H   0  0  0  0  0  0  0  0  0  0  0  0
    2.2460   -5.1550    0.0000 H   0  0  0  0  0  0  0  0  0  0  0  0
    2.3100   -3.1181    0.0000 H   0  0  0  0  0  0  0  0  0  0  0  0
    1.4631   -3.3450    0.0000 H   0  0  0  0  0  0  0  0  0  0  0  0
    1.6900   -4.1919    0.0000 H   0  0  0  0  0  0  0  0  0  0  0  0
    2.8660   -5.7750    0.0000 H   0  0  0  0  0  0  0  0  0  0  0  0
    3.4860   -5.1550    0.0000 H   0  0  0  0  0  0  0  0  0  0  0  0
    7.7331    3.6550    0.0000 H   0  0  0  0  0  0  0  0  0  0  0  0
    6.0201   -4.6919    0.0000 H   0  0  0  0  0  0  0  0  0  0  0  0
    6.8671   -4.4650    0.0000 H   0  0  0  0  0  0  0  0  0  0  0  0
    6.6401   -3.6181    0.0000 H   0  0  0  0  0  0  0  0  0  0  0  0
    4.9272    3.6550    0.0000 H   0  0  0  0  0  0  0  0  0  0  0  0
    8.5991    2.1550    0.0000 H   0  0  0  0  0  0  0  0  0  0  0  0
    5.7932    5.1550    0.0000 H   0  0  0  0  0  0  0  0  0  0  0  0
  1  9  1  0  0  0  0
  1 21  1  0  0  0  0
  2 12  1  0  0  0  0
  2 25  1  0  0  0  0
  3 13  1  0  0  0  0
  3 35  1  0  0  0  0
  4 15  2  0  0  0  0
  5 19  1  0  0  0  0
  5 50  1  0  0  0  0
  6 27  1  0  0  0  0
  6 51  1  0  0  0  0
  7  9  1  0  0  0  0
  7 11  1  0  0  0  0
  7 12  2  0  0  0  0
  8  9  2  0  0  0  0
  8 10  1  0  0  0  0
  8 13  1  0  0  0  0
 10 15  1  0  0  0  0
 10 28  1  0  0  0  0
 10 29  1  0  0  0  0
 11 16  1  0  0  0  0
 11 30  1  0  0  0  0
 11 31  1  0  0  0  0
 12 14  1  0  0  0  0
 13 14  2  0  0  0  0
 14 32  1  0  0  0  0
 15 17  1  0  0  0  0
 16 18  2  0  0  0  0
 16 33  1  0  0  0  0
 17 19  2  0  0  0  0
 17 20  1  0  0  0  0
 18 22  1  0  0  0  0
 18 23  1  0  0  0  0
 19 24  1  0  0  0  0
 20 26  2  0  0  0  0
 20 34  1  0  0  0  0
 21 36  1  0  0  0  0
 21 37  1  0  0  0  0
 21 38  1  0  0  0  0
 22 39  1  0  0  0  0
 22 43  1  0  0  0  0
 22 44  1  0  0  0  0
 23 40  1  0  0  0  0
 23 41  1  0  0  0  0
 23 42  1  0  0  0  0
 24 27  2  0  0  0  0
 24 45  1  0  0  0  0
 25 46  1  0  0  0  0
 25 47  1  0  0  0  0
 25 48  1  0  0  0  0
 26 27  1  0  0  0  0
 26 49  1  0  0  0  0
M  END
>  <PUBCHEM_COMPOUND_CID>
21591149

>  <PUBCHEM_COMPOUND_CANONICALIZED>
1

>  <PUBCHEM_CACTVS_COMPLEXITY>
515

>  <PUBCHEM_CACTVS_HBOND_ACCEPTOR>
6

>  <PUBCHEM_CACTVS_HBOND_DONOR>
3

>  <PUBCHEM_CACTVS_ROTATABLE_BOND>
7

>  <PUBCHEM_CACTVS_SUBSKEYS>
AAADceB4OAAAAAAAAAAAAAAAAAAAAAAAAAAwYAAAAAAAAAABQAAAGgAACAAADASAmAIyBoAABgCIAqBSAAACCAAkIAAIiAEGCMgMJzaGNRqAcWAl4BUIuYeK7PzOIAACCAAIAABAAAQQABAAAAAAAAAAAA==

>  <PUBCHEM_IUPAC_OPENEYE_NAME>
1-(2,4-dihydroxyphenyl)-2-[6-hydroxy-2,4-dimethoxy-3-(3-methylbut-2-enyl)phenyl]ethanone

>  <PUBCHEM_IUPAC_CAS_NAME>
1-(2,4-dihydroxyphenyl)-2-[6-hydroxy-2,4-dimethoxy-3-(3-methylbut-2-enyl)phenyl]ethanone

>  <PUBCHEM_IUPAC_NAME>
1-(2,4-dihydroxyphenyl)-2-[6-hydroxy-2,4-dimethoxy-3-(3-methylbut-2-enyl)phenyl]ethanone

>  <PUBCHEM_IUPAC_SYSTEMATIC_NAME>
1-[2,4-bis(oxidanyl)phenyl]-2-[2,4-dimethoxy-3-(3-methylbut-2-enyl)-6-oxidanyl-phenyl]ethanone

>  <PUBCHEM_IUPAC_TRADITIONAL_NAME>
1-(2,4-dihydroxyphenyl)-2-[6-hydroxy-2,4-dimethoxy-3-(3-methylbut-2-enyl)phenyl]ethanone

>  <PUBCHEM_IUPAC_INCHI>
InChI=1S/C21H24O6/c1-12(2)5-7-15-20(26-3)11-19(25)16(21(15)27-4)10-18(24)14-8-6-13(22)9-17(14)23/h5-6,8-9,11,22-23,25H,7,10H2,1-4H3

>  <PUBCHEM_IUPAC_INCHIKEY>
LXLBPEZCZLGOGJ-UHFFFAOYSA-N

>  <PUBCHEM_XLOGP3_AA>
4.6

>  <PUBCHEM_EXACT_MASS>
372.157

>  <PUBCHEM_MOLECULAR_FORMULA>
C21H24O6

>  <PUBCHEM_MOLECULAR_WEIGHT>
372.417

>  <PUBCHEM_OPENEYE_CAN_SMILES>
CC(=CCC1=C(C(=C(C=C1OC)O)CC(=O)C2=C(C=C(C=C2)O)O)OC)C

>  <PUBCHEM_OPENEYE_ISO_SMILES>
CC(=CCC1=C(C(=C(C=C1OC)O)CC(=O)C2=C(C=C(C=C2)O)O)OC)C

>  <PUBCHEM_CACTVS_TPSA>
96.2

>  <PUBCHEM_MONOISOTOPIC_WEIGHT>
372.157

>  <PUBCHEM_TOTAL_CHARGE>
0

>  <PUBCHEM_HEAVY_ATOM_COUNT>
27

>  <PUBCHEM_ATOM_DEF_STEREO_COUNT>
0

>  <PUBCHEM_ATOM_UDEF_STEREO_COUNT>
0

>  <PUBCHEM_BOND_DEF_STEREO_COUNT>
0

>  <PUBCHEM_BOND_UDEF_STEREO_COUNT>
0

>  <PUBCHEM_ISOTOPIC_ATOM_COUNT>
0

>  <PUBCHEM_COMPONENT_COUNT>
1

>  <PUBCHEM_CACTVS_TAUTO_COUNT>
97

>  <PUBCHEM_COORDINATE_TYPE>
1
5
255

>  <PUBCHEM_BONDANNOTATIONS>
12  14  8
13  14  8
17  19  8
17  20  8
19  24  8
20  26  8
24  27  8
26  27  8
7  12  8
7  9  8
8  13  8
8  9  8

$$$$
