21602048
 OpenBabel06101807152D

 46 47  0  0  0  0  0  0  0  0999 V2000
    3.7601   -2.2200    0.0000 O   0  0  0  0  0  0  0  0  0  0  0  0
   14.0182   -0.0396    0.0000 O   0  0  0  0  0  0  0  0  0  0  0  0
    2.0000   -1.9413    0.0000 O   0  0  0  0  0  0  0  0  0  0  0  0
   15.5128    0.9310    0.0000 O   0  0  0  0  0  0  0  0  0  0  0  0
    8.9086   -1.2210    0.0000 N   0  0  0  0  0  0  0  0  0  0  0  0
    9.6517   -0.5519    0.0000 C   0  0  0  0  0  0  0  0  0  0  0  0
    7.9575   -0.9120    0.0000 C   0  0  0  0  0  0  0  0  0  0  0  0
    7.2144   -1.5812    0.0000 C   0  0  0  0  0  0  0  0  0  0  0  0
   10.6028   -0.8609    0.0000 C   0  0  0  0  0  0  0  0  0  0  0  0
    6.2633   -1.2721    0.0000 C   0  0  0  0  0  0  0  0  0  0  0  0
   11.3459   -0.1918    0.0000 C   0  0  0  0  0  0  0  0  0  0  0  0
    5.5202   -1.9413    0.0000 C   0  0  0  0  0  0  0  0  0  0  0  0
   12.2970   -0.5008    0.0000 C   0  0  0  0  0  0  0  0  0  0  0  0
   13.0401    0.1683    0.0000 C   0  0  0  0  0  0  0  0  0  0  0  0
    4.5691   -1.6322    0.0000 C   0  0  0  0  0  0  0  0  0  0  0  0
    4.2601   -0.6812    0.0000 C   0  0  0  0  0  0  0  0  0  0  0  0
   12.9356    1.1628    0.0000 C   0  0  0  0  0  0  0  0  0  0  0  0
    3.2601   -0.6812    0.0000 C   0  0  0  0  0  0  0  0  0  0  0  0
   13.8491    1.5696    0.0000 C   0  0  0  0  0  0  0  0  0  0  0  0
    2.9511   -1.6322    0.0000 C   0  0  0  0  0  0  0  0  0  0  0  0
   14.5182    0.8264    0.0000 C   0  0  0  0  0  0  0  0  0  0  0  0
    2.6723    0.1278    0.0000 C   0  0  0  0  0  0  0  0  0  0  0  0
   14.0570    2.5477    0.0000 C   0  0  0  0  0  0  0  0  0  0  0  0
    9.9428   -0.0045    0.0000 H   0  0  0  0  0  0  0  0  0  0  0  0
    9.1631   -0.1702    0.0000 H   0  0  0  0  0  0  0  0  0  0  0  0
    8.2486   -0.3646    0.0000 H   0  0  0  0  0  0  0  0  0  0  0  0
    7.4689   -0.5303    0.0000 H   0  0  0  0  0  0  0  0  0  0  0  0
   10.3117   -1.4084    0.0000 H   0  0  0  0  0  0  0  0  0  0  0  0
   11.0913   -1.2426    0.0000 H   0  0  0  0  0  0  0  0  0  0  0  0
    6.9233   -2.1286    0.0000 H   0  0  0  0  0  0  0  0  0  0  0  0
    7.7029   -1.9629    0.0000 H   0  0  0  0  0  0  0  0  0  0  0  0
    9.0374   -1.8275    0.0000 H   0  0  0  0  0  0  0  0  0  0  0  0
    6.5544   -0.7247    0.0000 H   0  0  0  0  0  0  0  0  0  0  0  0
    5.7747   -0.8904    0.0000 H   0  0  0  0  0  0  0  0  0  0  0  0
   11.6370    0.3556    0.0000 H   0  0  0  0  0  0  0  0  0  0  0  0
   10.8573    0.1899    0.0000 H   0  0  0  0  0  0  0  0  0  0  0  0
   12.4259   -1.1073    0.0000 H   0  0  0  0  0  0  0  0  0  0  0  0
    5.6490   -2.5477    0.0000 H   0  0  0  0  0  0  0  0  0  0  0  0
   12.3986    1.4728    0.0000 H   0  0  0  0  0  0  0  0  0  0  0  0
    4.6245   -0.1796    0.0000 H   0  0  0  0  0  0  0  0  0  0  0  0
   14.6635    2.4188    0.0000 H   0  0  0  0  0  0  0  0  0  0  0  0
   14.1859    3.1542    0.0000 H   0  0  0  0  0  0  0  0  0  0  0  0
   13.4506    2.6766    0.0000 H   0  0  0  0  0  0  0  0  0  0  0  0
    3.1739    0.4922    0.0000 H   0  0  0  0  0  0  0  0  0  0  0  0
    2.3079    0.6294    0.0000 H   0  0  0  0  0  0  0  0  0  0  0  0
    2.1707   -0.2366    0.0000 H   0  0  0  0  0  0  0  0  0  0  0  0
  1 15  1  0  0  0  0
  1 20  1  0  0  0  0
  2 14  1  0  0  0  0
  2 21  1  0  0  0  0
  3 20  2  0  0  0  0
  4 21  2  0  0  0  0
  5  6  1  0  0  0  0
  5  7  1  0  0  0  0
  5 32  1  0  0  0  0
  6  9  1  0  0  0  0
  6 24  1  0  0  0  0
  6 25  1  0  0  0  0
  7  8  1  0  0  0  0
  7 26  1  0  0  0  0
  7 27  1  0  0  0  0
  8 10  1  0  0  0  0
  8 30  1  0  0  0  0
  8 31  1  0  0  0  0
  9 11  1  0  0  0  0
  9 28  1  0  0  0  0
  9 29  1  0  0  0  0
 10 12  1  0  0  0  0
 10 33  1  0  0  0  0
 10 34  1  0  0  0  0
 11 13  1  0  0  0  0
 11 35  1  0  0  0  0
 11 36  1  0  0  0  0
 12 15  2  0  0  0  0
 12 38  1  0  0  0  0
 13 14  2  0  0  0  0
 13 37  1  0  0  0  0
 14 17  1  0  0  0  0
 15 16  1  0  0  0  0
 16 18  2  0  0  0  0
 16 40  1  0  0  0  0
 17 19  2  0  0  0  0
 17 39  1  0  0  0  0
 18 20  1  0  0  0  0
 18 22  1  0  0  0  0
 19 21  1  0  0  0  0
 19 23  1  0  0  0  0
 22 44  1  0  0  0  0
 22 45  1  0  0  0  0
 22 46  1  0  0  0  0
 23 41  1  0  0  0  0
 23 42  1  0  0  0  0
 23 43  1  0  0  0  0
M  END
>  <PUBCHEM_COMPOUND_CID>
21602048

>  <PUBCHEM_COMPOUND_CANONICALIZED>
1

>  <PUBCHEM_CACTVS_COMPLEXITY>
544

>  <PUBCHEM_CACTVS_HBOND_ACCEPTOR>
5

>  <PUBCHEM_CACTVS_HBOND_DONOR>
1

>  <PUBCHEM_CACTVS_ROTATABLE_BOND>
8

>  <PUBCHEM_CACTVS_SUBSKEYS>
AAADceB6OAAAAAAAAAAAAAAAAAAAAQIAAAAAAAAAAAAAAAAAAAAAHgAQAAAADATBgAQCCALABACIAiDSCAAACAAgIAAACIEIAEgIBAAAoQAGEAAAkACIoYIAAAAAAAAAAAAAAAAAAAAAAAAAAAAAAAAAAA==

>  <PUBCHEM_IUPAC_OPENEYE_NAME>
(5E)-3-methyl-5-[4-[[(4E)-4-(4-methyl-5-oxo-2-furylidene)butyl]amino]butylidene]furan-2-one

>  <PUBCHEM_IUPAC_CAS_NAME>
(5E)-3-methyl-5-[4-[[(4E)-4-(4-methyl-5-oxo-2-furanylidene)butyl]amino]butylidene]-2-furanone

>  <PUBCHEM_IUPAC_NAME>
(5E)-3-methyl-5-[4-[[(4E)-4-(4-methyl-5-oxofuran-2-ylidene)butyl]amino]butylidene]furan-2-one

>  <PUBCHEM_IUPAC_SYSTEMATIC_NAME>
(5E)-3-methyl-5-[4-[[(4E)-4-(4-methyl-5-oxidanylidene-furan-2-ylidene)butyl]amino]butylidene]furan-2-one

>  <PUBCHEM_IUPAC_TRADITIONAL_NAME>
(5E)-5-[4-[[(4E)-4-(5-keto-4-methyl-2-furylidene)butyl]amino]butylidene]-3-methyl-furan-2-one

>  <PUBCHEM_IUPAC_INCHI>
InChI=1S/C18H23NO4/c1-13-11-15(22-17(13)20)7-3-5-9-19-10-6-4-8-16-12-14(2)18(21)23-16/h7-8,11-12,19H,3-6,9-10H2,1-2H3/b15-7+,16-8+

>  <PUBCHEM_IUPAC_INCHIKEY>
UFHQEIRNGIAWOB-BGPOSVGRSA-N

>  <PUBCHEM_XLOGP3_AA>
2.8

>  <PUBCHEM_EXACT_MASS>
317.163

>  <PUBCHEM_MOLECULAR_FORMULA>
C18H23NO4

>  <PUBCHEM_MOLECULAR_WEIGHT>
317.385

>  <PUBCHEM_OPENEYE_CAN_SMILES>
CC1=CC(=CCCCNCCCC=C2C=C(C(=O)O2)C)OC1=O

>  <PUBCHEM_OPENEYE_ISO_SMILES>
CC1=C/C(=C\CCCNCCC/C=C\2/OC(=O)C(=C2)C)/OC1=O

>  <PUBCHEM_CACTVS_TPSA>
64.6

>  <PUBCHEM_MONOISOTOPIC_WEIGHT>
317.163

>  <PUBCHEM_TOTAL_CHARGE>
0

>  <PUBCHEM_HEAVY_ATOM_COUNT>
23

>  <PUBCHEM_ATOM_DEF_STEREO_COUNT>
0

>  <PUBCHEM_ATOM_UDEF_STEREO_COUNT>
0

>  <PUBCHEM_BOND_DEF_STEREO_COUNT>
2

>  <PUBCHEM_BOND_UDEF_STEREO_COUNT>
0

>  <PUBCHEM_ISOTOPIC_ATOM_COUNT>
0

>  <PUBCHEM_COMPONENT_COUNT>
1

>  <PUBCHEM_CACTVS_TAUTO_COUNT>
6

>  <PUBCHEM_COORDINATE_TYPE>
1
5
255

$$$$
