21629804
 OpenBabel06101807152D

128139  0  0  1  0  0  0  0  0999 V2000
   13.3119   -0.9699    0.0000 O   0  0  0  0  0  0  0  0  0  0  0  0
    9.0428   -0.3236    0.0000 O   0  0  0  0  0  0  0  0  0  0  0  0
   13.5597   -0.1291    0.0000 O   0  0  0  0  0  0  0  0  0  0  0  0
   10.1121   -0.9820    0.0000 O   0  0  0  0  0  0  0  0  0  0  0  0
   13.0749    1.5633    0.0000 O   0  0  0  0  0  0  0  0  0  0  0  0
   13.5749    0.6972    0.0000 O   0  0  0  0  0  0  0  0  0  0  0  0
   11.7089    2.1972    0.0000 O   0  0  0  0  0  0  0  0  0  0  0  0
    7.9003   -0.0954    0.0000 O   0  0  0  0  0  0  0  0  0  0  0  0
   11.2899    2.7256    0.0000 O   0  0  0  0  0  0  0  0  0  0  0  0
    9.9605   -1.8374    0.0000 O   0  0  0  0  0  0  0  0  0  0  0  0
    9.6464   -2.3067    0.0000 O   0  0  0  0  0  0  0  0  0  0  0  0
   14.3391   -2.9088    0.0000 O   0  0  0  0  0  0  0  0  0  0  0  0
    7.9834    1.6019    0.0000 O   0  0  0  0  0  0  0  0  0  0  0  0
   10.4515   -2.7740    0.0000 O   0  0  0  0  0  0  0  0  0  0  0  0
   13.1529   -4.5711    0.0000 O   0  0  0  0  0  0  0  0  0  0  0  0
   12.2785    5.2544    0.0000 O   0  0  0  0  0  0  0  0  0  0  0  0
    7.4760   -1.5281    0.0000 O   0  0  0  0  0  0  0  0  0  0  0  0
    8.6244    5.0062    0.0000 O   0  0  0  0  0  0  0  0  0  0  0  0
    6.9858   -1.5127    0.0000 O   0  0  0  0  0  0  0  0  0  0  0  0
   10.2293   -3.9377    0.0000 O   0  0  0  0  0  0  0  0  0  0  0  0
    5.8809   -0.4821    0.0000 O   0  0  0  0  0  0  0  0  0  0  0  0
   14.2421    6.1294    0.0000 O   0  0  0  0  0  0  0  0  0  0  0  0
   15.7542    4.8204    0.0000 O   0  0  0  0  0  0  0  0  0  0  0  0
    4.1326    1.5101    0.0000 O   0  0  0  0  0  0  0  0  0  0  0  0
    7.3437    2.9998    0.0000 O   0  0  0  0  0  0  0  0  0  0  0  0
    3.5579    0.6994    0.0000 O   0  0  0  0  0  0  0  0  0  0  0  0
    5.3043    3.1902    0.0000 O   0  0  0  0  0  0  0  0  0  0  0  0
    2.3605   -0.9624    0.0000 O   0  0  0  0  0  0  0  0  0  0  0  0
    3.2154   -2.8238    0.0000 O   0  0  0  0  0  0  0  0  0  0  0  0
    7.2251   -5.9312    0.0000 O   0  0  0  0  0  0  0  0  0  0  0  0
    6.0591   -2.6692    0.0000 O   0  0  0  0  0  0  0  0  0  0  0  0
    5.7004   -4.6368    0.0000 O   0  0  0  0  0  0  0  0  0  0  0  0
   11.7089   -0.8028    0.0000 C   0  0  2  0  0  0  0  0  0  0  0  0
   12.5749   -0.3028    0.0000 C   0  0  1  0  0  0  0  0  0  0  0  0
    9.9489    1.2319    0.0000 C   0  0  2  0  0  0  0  0  0  0  0  0
   10.8429    0.6972    0.0000 C   0  0  0  0  0  0  0  0  0  0  0  0
   10.8429   -0.3028    0.0000 C   0  0  0  0  0  0  0  0  0  0  0  0
    9.0428    0.7180    0.0000 C   0  0  1  0  0  0  0  0  0  0  0  0
   12.5749    0.6972    0.0000 C   0  0  0  0  0  0  0  0  0  0  0  0
   11.9181   -1.7746    0.0000 C   0  0  0  0  0  0  0  0  0  0  0  0
    9.5626   -0.1413    0.0000 C   0  0  2  0  0  0  0  0  0  0  0  0
   11.7089    1.1972    0.0000 C   0  0  0  0  0  0  0  0  0  0  0  0
   12.9068   -1.8776    0.0000 C   0  0  0  0  0  0  0  0  0  0  0  0
    9.6178    2.1755    0.0000 C   0  0  0  0  0  0  0  0  0  0  0  0
    9.9489   -0.8374    0.0000 C   0  0  0  0  0  0  0  0  0  0  0  0
    8.7161   -0.6737    0.0000 C   0  0  1  0  0  0  0  0  0  0  0  0
   11.2973   -2.6034    0.0000 C   0  0  0  0  0  0  0  0  0  0  0  0
   10.2694    2.9340    0.0000 C   0  0  0  0  0  0  0  0  0  0  0  0
   13.3433   -2.8166    0.0000 C   0  0  0  0  0  0  0  0  0  0  0  0
   10.6906   -1.8030    0.0000 C   0  0  0  0  0  0  0  0  0  0  0  0
    8.8841   -1.6595    0.0000 C   0  0  1  0  0  0  0  0  0  0  0  0
    8.6350    2.3605    0.0000 C   0  0  0  0  0  0  0  0  0  0  0  0
   11.7120   -3.5522    0.0000 C   0  0  0  0  0  0  0  0  0  0  0  0
    9.9383    3.8776    0.0000 C   0  0  0  0  0  0  0  0  0  0  0  0
   12.7419   -3.6595    0.0000 C   0  0  0  0  0  0  0  0  0  0  0  0
   10.6047    4.6781    0.0000 C   0  0  0  0  0  0  0  0  0  0  0  0
   11.9747    3.5104    0.0000 C   0  0  1  0  0  0  0  0  0  0  0  0
   11.6298    4.4933    0.0000 C   0  0  1  0  0  0  0  0  0  0  0  0
    8.3039    3.3041    0.0000 C   0  0  0  0  0  0  0  0  0  0  0  0
    8.9555    4.0626    0.0000 C   0  0  0  0  0  0  0  0  0  0  0  0
    8.1143   -2.2978    0.0000 C   0  0  0  0  0  0  0  0  0  0  0  0
   12.9196    3.8379    0.0000 C   0  0  0  0  0  0  0  0  0  0  0  0
    6.9916   -0.5128    0.0000 C   0  0  0  0  0  0  0  0  0  0  0  0
    9.4670   -3.2905    0.0000 C   0  0  0  0  0  0  0  0  0  0  0  0
    6.5742    0.3960    0.0000 C   0  0  0  0  0  0  0  0  0  0  0  0
   13.1084    4.8199    0.0000 C   0  0  0  0  0  0  0  0  0  0  0  0
   13.6756    3.1834    0.0000 C   0  0  0  0  0  0  0  0  0  0  0  0
    6.4133   -1.3286    0.0000 C   0  0  0  0  0  0  0  0  0  0  0  0
    5.5786    0.4889    0.0000 C   0  0  0  0  0  0  0  0  0  0  0  0
    8.5254   -3.6271    0.0000 C   0  0  0  0  0  0  0  0  0  0  0  0
   14.0533    5.1474    0.0000 C   0  0  0  0  0  0  0  0  0  0  0  0
   14.6205    3.5109    0.0000 C   0  0  0  0  0  0  0  0  0  0  0  0
    5.4176   -1.2356    0.0000 C   0  0  0  0  0  0  0  0  0  0  0  0
    5.0002   -0.3269    0.0000 C   0  0  0  0  0  0  0  0  0  0  0  0
    7.1897    1.2364    0.0000 C   0  0  0  0  0  0  0  0  0  0  0  0
   14.8093    4.4929    0.0000 C   0  0  0  0  0  0  0  0  0  0  0  0
    5.1293    1.4287    0.0000 C   0  0  0  0  0  0  0  0  0  0  0  0
    6.7622    2.1863    0.0000 C   0  0  0  0  0  0  0  0  0  0  0  0
    3.9647   -0.2141    0.0000 C   0  0  0  0  0  0  0  0  0  0  0  0
    7.7631   -2.9799    0.0000 C   0  0  0  0  0  0  0  0  0  0  0  0
    8.3460   -4.6109    0.0000 C   0  0  0  0  0  0  0  0  0  0  0  0
    5.7251    2.2831    0.0000 C   0  0  0  0  0  0  0  0  0  0  0  0
    4.8284   -2.0946    0.0000 C   0  0  0  0  0  0  0  0  0  0  0  0
    3.3558   -1.0592    0.0000 C   0  0  0  0  0  0  0  0  0  0  0  0
    3.7905   -2.0058    0.0000 C   0  0  0  0  0  0  0  0  0  0  0  0
    7.4044   -4.9475    0.0000 C   0  0  0  0  0  0  0  0  0  0  0  0
    6.8214   -3.3164    0.0000 C   0  0  0  0  0  0  0  0  0  0  0  0
    6.6421   -4.3002    0.0000 C   0  0  0  0  0  0  0  0  0  0  0  0
   10.9728   -1.2278    0.0000 H   0  0  0  0  0  0  0  0  0  0  0  0
   10.6074    1.7694    0.0000 H   0  0  0  0  0  0  0  0  0  0  0  0
    8.3084    1.1459    0.0000 H   0  0  0  0  0  0  0  0  0  0  0  0
   10.2822    0.3112    0.0000 H   0  0  0  0  0  0  0  0  0  0  0  0
    9.4922   -1.0206    0.0000 H   0  0  0  0  0  0  0  0  0  0  0  0
   13.9582   -0.6041    0.0000 H   0  0  0  0  0  0  0  0  0  0  0  0
    9.4228   -1.3526    0.0000 H   0  0  0  0  0  0  0  0  0  0  0  0
   13.8849    1.2342    0.0000 H   0  0  0  0  0  0  0  0  0  0  0  0
   13.0749    2.1833    0.0000 H   0  0  0  0  0  0  0  0  0  0  0  0
   11.3461   -4.0526    0.0000 H   0  0  0  0  0  0  0  0  0  0  0  0
   10.8175    5.2605    0.0000 H   0  0  0  0  0  0  0  0  0  0  0  0
   10.0674    4.9874    0.0000 H   0  0  0  0  0  0  0  0  0  0  0  0
   12.3215    2.9965    0.0000 H   0  0  0  0  0  0  0  0  0  0  0  0
   11.4211    5.0771    0.0000 H   0  0  0  0  0  0  0  0  0  0  0  0
    7.6946    3.4188    0.0000 H   0  0  0  0  0  0  0  0  0  0  0  0
    7.6371   -2.6936    0.0000 H   0  0  0  0  0  0  0  0  0  0  0  0
    8.5101   -2.7751    0.0000 H   0  0  0  0  0  0  0  0  0  0  0  0
   14.5983   -3.4720    0.0000 H   0  0  0  0  0  0  0  0  0  0  0  0
    7.5131    2.0059    0.0000 H   0  0  0  0  0  0  0  0  0  0  0  0
   13.7698   -4.6330    0.0000 H   0  0  0  0  0  0  0  0  0  0  0  0
   12.0709    5.8386    0.0000 H   0  0  0  0  0  0  0  0  0  0  0  0
    8.0151    5.1210    0.0000 H   0  0  0  0  0  0  0  0  0  0  0  0
   12.6397    5.2257    0.0000 H   0  0  0  0  0  0  0  0  0  0  0  0
   13.5586    2.5746    0.0000 H   0  0  0  0  0  0  0  0  0  0  0  0
   15.0892    3.1051    0.0000 H   0  0  0  0  0  0  0  0  0  0  0  0
    7.8063    1.1716    0.0000 H   0  0  0  0  0  0  0  0  0  0  0  0
    7.8743   -2.3700    0.0000 H   0  0  0  0  0  0  0  0  0  0  0  0
    8.8186   -5.0121    0.0000 H   0  0  0  0  0  0  0  0  0  0  0  0
    5.0936   -2.6550    0.0000 H   0  0  0  0  0  0  0  0  0  0  0  0
   14.8279    6.3325    0.0000 H   0  0  0  0  0  0  0  0  0  0  0  0
   16.2229    4.4146    0.0000 H   0  0  0  0  0  0  0  0  0  0  0  0
    3.8674    2.0705    0.0000 H   0  0  0  0  0  0  0  0  0  0  0  0
    7.0871    3.5643    0.0000 H   0  0  0  0  0  0  0  0  0  0  0  0
    2.9413    0.7642    0.0000 H   0  0  0  0  0  0  0  0  0  0  0  0
    4.6867    3.2454    0.0000 H   0  0  0  0  0  0  0  0  0  0  0  0
    2.0000   -1.4669    0.0000 H   0  0  0  0  0  0  0  0  0  0  0  0
    3.4763   -3.3862    0.0000 H   0  0  0  0  0  0  0  0  0  0  0  0
    7.6976   -6.3325    0.0000 H   0  0  0  0  0  0  0  0  0  0  0  0
    5.4753   -2.8779    0.0000 H   0  0  0  0  0  0  0  0  0  0  0  0
    5.5892   -5.2468    0.0000 H   0  0  0  0  0  0  0  0  0  0  0  0
  1 34  1  0  0  0  0
  1 43  1  0  0  0  0
  2 38  1  0  0  0  0
  2 45  1  0  0  0  0
  3 94  1  0  0  0  0
  4 41  1  0  0  0  0
  4 50  1  0  0  0  0
  5 39  1  0  0  0  0
  5 97  1  0  0  0  0
  6 39  1  0  0  0  0
  6 96  1  0  0  0  0
  7 42  2  0  0  0  0
  8 46  1  0  0  0  0
  8 63  1  0  0  0  0
  9 48  1  0  0  0  0
  9 57  1  0  0  0  0
 10 45  2  0  0  0  0
 11 64  1  0  0  0  0
 12 49  1  0  0  0  0
 12106  1  0  0  0  0
 13 52  1  0  0  0  0
 13107  1  0  0  0  0
 14 50  2  0  0  0  0
 15 55  1  0  0  0  0
 15108  1  0  0  0  0
 16109  1  0  0  0  0
 17 61  1  0  0  0  0
 17 68  1  0  0  0  0
 18 60  1  0  0  0  0
 18110  1  0  0  0  0
 19 63  2  0  0  0  0
 20 64  2  0  0  0  0
 21 68  2  0  0  0  0
 22 71  1  0  0  0  0
 22118  1  0  0  0  0
 23 76  1  0  0  0  0
 23119  1  0  0  0  0
 24 77  1  0  0  0  0
 24120  1  0  0  0  0
 25 78  1  0  0  0  0
 25121  1  0  0  0  0
 26 79  1  0  0  0  0
 26122  1  0  0  0  0
 27 82  1  0  0  0  0
 27123  1  0  0  0  0
 28 84  1  0  0  0  0
 28124  1  0  0  0  0
 29 85  1  0  0  0  0
 29125  1  0  0  0  0
 30 86  1  0  0  0  0
 30126  1  0  0  0  0
 31 87  1  0  0  0  0
 31127  1  0  0  0  0
 32 88  1  0  0  0  0
 32128  1  0  0  0  0
 33 34  1  6  0  0  0
 33 37  1  0  0  0  0
 33 40  1  0  0  0  0
 33 89  1  0  0  0  0
 34  3  1  6  0  0  0
 34 39  1  0  0  0  0
 35 36  1  0  0  0  0
 35 38  1  1  0  0  0
 35 44  1  0  0  0  0
 35 90  1  0  0  0  0
 36 37  2  0  0  0  0
 36 42  1  0  0  0  0
 37 45  1  0  0  0  0
 38 41  1  6  0  0  0
 38 91  1  0  0  0  0
 39 42  1  0  0  0  0
 40 43  2  0  0  0  0
 40 47  1  0  0  0  0
 41 46  1  0  0  0  0
 41 92  1  6  0  0  0
 43 49  1  0  0  0  0
 44 48  1  0  0  0  0
 44 52  2  0  0  0  0
 46 51  1  1  0  0  0
 46 93  1  0  0  0  0
 47 50  1  0  0  0  0
 47 53  2  0  0  0  0
 48 54  2  0  0  0  0
 49 55  2  0  0  0  0
 51 11  1  0  0  0  0
 51 61  1  0  0  0  0
 51 95  1  1  0  0  0
 52 59  1  0  0  0  0
 53 55  1  0  0  0  0
 53 98  1  0  0  0  0
 54 56  1  0  0  0  0
 54 60  1  0  0  0  0
 56 58  1  0  0  0  0
 56 99  1  0  0  0  0
 56100  1  0  0  0  0
 57 58  1  6  0  0  0
 57 62  1  0  0  0  0
 57101  1  0  0  0  0
 58 16  1  0  0  0  0
 58102  1  1  0  0  0
 59 60  2  0  0  0  0
 59103  1  0  0  0  0
 61104  1  0  0  0  0
 61105  1  0  0  0  0
 62 66  2  0  0  0  0
 62 67  1  0  0  0  0
 63 65  1  0  0  0  0
 64 70  1  0  0  0  0
 65 69  1  0  0  0  0
 65 75  2  0  0  0  0
 66 71  1  0  0  0  0
 66111  1  0  0  0  0
 67 72  2  0  0  0  0
 67112  1  0  0  0  0
 68 73  1  0  0  0  0
 69 74  1  0  0  0  0
 69 77  2  0  0  0  0
 70 80  2  0  0  0  0
 70 81  1  0  0  0  0
 71 76  2  0  0  0  0
 72 76  1  0  0  0  0
 72113  1  0  0  0  0
 73 74  1  0  0  0  0
 73 83  2  0  0  0  0
 74 79  2  0  0  0  0
 75 78  1  0  0  0  0
 75114  1  0  0  0  0
 77 82  1  0  0  0  0
 78 82  2  0  0  0  0
 79 84  1  0  0  0  0
 80 87  1  0  0  0  0
 80115  1  0  0  0  0
 81 86  2  0  0  0  0
 81116  1  0  0  0  0
 83 85  1  0  0  0  0
 83117  1  0  0  0  0
 84 85  2  0  0  0  0
 86 88  1  0  0  0  0
 87 88  2  0  0  0  0
M  END
>  <PUBCHEM_COMPOUND_CID>
21629804

>  <PUBCHEM_COMPOUND_CANONICALIZED>
0

>  <PUBCHEM_CACTVS_COMPLEXITY>
2770

>  <PUBCHEM_CACTVS_HBOND_ACCEPTOR>
32

>  <PUBCHEM_CACTVS_HBOND_DONOR>
19

>  <PUBCHEM_CACTVS_ROTATABLE_BOND>
6

>  <PUBCHEM_CACTVS_SUBSKEYS>
AAADcfB8PgAAAAAAAAAAAAAAAAAAASAAAAA0YMGDAAAAAEiRVAAAGgAACAAADRSgmAIwDoAABgCIAqDSCAICCAAkIAAIiAFGiMgdNzaGNRqCeSOl4BUPuYfK7PzOoAADCAAYQABAAAYQADCAAAAAAAAAAA==

>  <PUBCHEM_IUPAC_INCHI>
InChI=1S/C56H40O32/c57-18-2-1-12(3-20(18)59)43-27(66)6-14-19(58)10-21(60)32(44(14)84-43)33-34-35-36-31-17(9-26(65)40(70)46(31)88-56(36,81)55(79,80)49(34)73)53(77)87-48(47(33)86-54(35)78)45-28(83-50(74)13-4-22(61)37(67)23(62)5-13)11-82-51(75)15-7-24(63)38(68)41(71)29(15)30-16(52(76)85-45)8-25(64)39(69)42(30)72/h1-5,7-10,27-28,33,36,43,45,47-48,57-72,79-81H,6,11H2/t27-,28+,33+,36-,43+,45+,47-,48-,56-/m0/s1

>  <PUBCHEM_IUPAC_INCHIKEY>
DOMGXWDOTMOBEH-IFNRHMFZSA-N

>  <PUBCHEM_XLOGP3_AA>
0.6

>  <PUBCHEM_EXACT_MASS>
1224.15

>  <PUBCHEM_MOLECULAR_FORMULA>
C56H40O32

>  <PUBCHEM_MOLECULAR_WEIGHT>
1224.904

>  <PUBCHEM_OPENEYE_CAN_SMILES>
C1C(C(OC2=C1C(=CC(=C2C3C4C(OC(=O)C5=CC(=C(C6=C5C7C(=C3C(=O)C(C7(O6)O)(O)O)C(=O)O4)O)O)C8C(COC(=O)C9=CC(=C(C(=C9C1=C(C(=C(C=C1C(=O)O8)O)O)O)O)O)O)OC(=O)C1=CC(=C(C(=C1)O)O)O)O)O)C1=CC(=C(C=C1)O)O)O

>  <PUBCHEM_OPENEYE_ISO_SMILES>
C1[C@@H]([C@H](OC2=C1C(=CC(=C2[C@H]3[C@H]4[C@@H](OC(=O)C5=CC(=C(C6=C5[C@H]7C(=C3C(=O)C([C@]7(O6)O)(O)O)C(=O)O4)O)O)[C@H]8[C@@H](COC(=O)C9=CC(=C(C(=C9C1=C(C(=C(C=C1C(=O)O8)O)O)O)O)O)O)OC(=O)C1=CC(=C(C(=C1)O)O)O)O)O)C1=CC(=C(C=C1)O)O)O

>  <PUBCHEM_CACTVS_TPSA>
551

>  <PUBCHEM_MONOISOTOPIC_WEIGHT>
1224.15

>  <PUBCHEM_TOTAL_CHARGE>
0

>  <PUBCHEM_HEAVY_ATOM_COUNT>
88

>  <PUBCHEM_ATOM_DEF_STEREO_COUNT>
9

>  <PUBCHEM_ATOM_UDEF_STEREO_COUNT>
0

>  <PUBCHEM_BOND_DEF_STEREO_COUNT>
0

>  <PUBCHEM_BOND_UDEF_STEREO_COUNT>
0

>  <PUBCHEM_ISOTOPIC_ATOM_COUNT>
0

>  <PUBCHEM_COMPONENT_COUNT>
1

>  <PUBCHEM_CACTVS_TAUTO_COUNT>
970

>  <PUBCHEM_COORDINATE_TYPE>
1
5
255

>  <PUBCHEM_BONDANNOTATIONS>
51  11  6
58  16  6
34  3  6
33  89  6
35  90  5
38  91  6
40  43  8
40  47  8
41  92  6
43  49  8
44  48  8
44  52  8
46  93  6
47  53  8
48  54  8
49  55  8
52  59  8
53  55  8
54  60  8
57  62  5
59  60  8
62  66  8
62  67  8
65  69  8
65  75  8
66  71  8
67  72  8
69  77  8
70  80  8
70  81  8
71  76  8
72  76  8
73  74  8
73  83  8
74  79  8
75  78  8
77  82  8
78  82  8
79  84  8
80  87  8
81  86  8
83  85  8
84  85  8
86  88  8
87  88  8

$$$$
