21637213
 OpenBabel06101807152D

 58 60  0  0  1  0  0  0  0  0999 V2000
    8.5782   -2.9068    0.0000 O   0  0  0  0  0  0  0  0  0  0  0  0
    6.8298   -3.9414    0.0000 O   0  0  0  0  0  0  0  0  0  0  0  0
    6.8530    2.1277    0.0000 O   0  0  0  0  0  0  0  0  0  0  0  0
    6.0043    3.6376    0.0000 O   0  0  0  0  0  0  0  0  0  0  0  0
    2.5405    3.6777    0.0000 O   0  0  0  0  0  0  0  0  0  0  0  0
    9.4443   -2.4068    0.0000 C   0  0  3  0  0  0  0  0  0  0  0  0
   10.4443   -2.4068    0.0000 C   0  0  0  0  0  0  0  0  0  0  0  0
    9.4443   -1.4068    0.0000 C   0  0  0  0  0  0  0  0  0  0  0  0
    7.7122   -1.4068    0.0000 C   0  0  0  0  0  0  0  0  0  0  0  0
    9.9443   -3.2728    0.0000 C   0  0  0  0  0  0  0  0  0  0  0  0
    7.7122   -2.4068    0.0000 C   0  0  0  0  0  0  0  0  0  0  0  0
   10.9443   -1.5408    0.0000 C   0  0  0  0  0  0  0  0  0  0  0  0
    8.5782   -0.9068    0.0000 C   0  0  0  0  0  0  0  0  0  0  0  0
    6.8183   -0.8721    0.0000 C   0  0  0  0  0  0  0  0  0  0  0  0
    6.8298    0.1278    0.0000 C   0  0  0  0  0  0  0  0  0  0  0  0
    6.8183   -2.9414    0.0000 C   0  0  0  0  0  0  0  0  0  0  0  0
    5.9122   -1.3860    0.0000 C   0  0  0  0  0  0  0  0  0  0  0  0
   11.9443   -1.5408    0.0000 C   0  0  0  0  0  0  0  0  0  0  0  0
    5.9697    0.6378    0.0000 C   0  0  0  0  0  0  0  0  0  0  0  0
    5.9122   -2.4276    0.0000 C   0  0  0  0  0  0  0  0  0  0  0  0
   12.4443   -0.6747    0.0000 C   0  0  0  0  0  0  0  0  0  0  0  0
    5.9812    1.6377    0.0000 C   0  0  0  0  0  0  0  0  0  0  0  0
    5.1210    2.1477    0.0000 C   0  0  0  0  0  0  0  0  0  0  0  0
   13.4443   -0.6747    0.0000 C   0  0  0  0  0  0  0  0  0  0  0  0
   11.9443    0.1913    0.0000 C   0  0  0  0  0  0  0  0  0  0  0  0
    5.1326    3.1476    0.0000 C   0  0  0  0  0  0  0  0  0  0  0  0
    4.2493    1.6578    0.0000 C   0  0  0  0  0  0  0  0  0  0  0  0
    4.2724    3.6576    0.0000 C   0  0  0  0  0  0  0  0  0  0  0  0
    3.3891    2.1677    0.0000 C   0  0  0  0  0  0  0  0  0  0  0  0
    3.4007    3.1677    0.0000 C   0  0  0  0  0  0  0  0  0  0  0  0
   10.3366   -3.0174    0.0000 H   0  0  0  0  0  0  0  0  0  0  0  0
   11.0269   -2.6188    0.0000 H   0  0  0  0  0  0  0  0  0  0  0  0
    9.9812   -1.0968    0.0000 H   0  0  0  0  0  0  0  0  0  0  0  0
    9.4073   -3.5828    0.0000 H   0  0  0  0  0  0  0  0  0  0  0  0
   10.2543   -3.8097    0.0000 H   0  0  0  0  0  0  0  0  0  0  0  0
   10.4812   -2.9628    0.0000 H   0  0  0  0  0  0  0  0  0  0  0  0
   11.0519   -0.9302    0.0000 H   0  0  0  0  0  0  0  0  0  0  0  0
   10.3617   -1.3287    0.0000 H   0  0  0  0  0  0  0  0  0  0  0  0
    8.5782   -0.2868    0.0000 H   0  0  0  0  0  0  0  0  0  0  0  0
    7.4392    0.0131    0.0000 H   0  0  0  0  0  0  0  0  0  0  0  0
    7.0486    0.7079    0.0000 H   0  0  0  0  0  0  0  0  0  0  0  0
    5.3765   -1.0739    0.0000 H   0  0  0  0  0  0  0  0  0  0  0  0
   12.2543   -2.0777    0.0000 H   0  0  0  0  0  0  0  0  0  0  0  0
    5.3604    0.7525    0.0000 H   0  0  0  0  0  0  0  0  0  0  0  0
    5.7509    0.0577    0.0000 H   0  0  0  0  0  0  0  0  0  0  0  0
    5.3765   -2.7397    0.0000 H   0  0  0  0  0  0  0  0  0  0  0  0
    6.2965   -4.2576    0.0000 H   0  0  0  0  0  0  0  0  0  0  0  0
   13.4443   -1.2947    0.0000 H   0  0  0  0  0  0  0  0  0  0  0  0
   12.4812    0.5013    0.0000 H   0  0  0  0  0  0  0  0  0  0  0  0
   11.6343    0.7282    0.0000 H   0  0  0  0  0  0  0  0  0  0  0  0
   11.4073   -0.1187    0.0000 H   0  0  0  0  0  0  0  0  0  0  0  0
   14.0643   -0.6747    0.0000 H   0  0  0  0  0  0  0  0  0  0  0  0
   13.4443   -0.0547    0.0000 H   0  0  0  0  0  0  0  0  0  0  0  0
    4.2421    1.0378    0.0000 H   0  0  0  0  0  0  0  0  0  0  0  0
    4.2796    4.2776    0.0000 H   0  0  0  0  0  0  0  0  0  0  0  0
    2.8486    1.8640    0.0000 H   0  0  0  0  0  0  0  0  0  0  0  0
    6.0115    4.2576    0.0000 H   0  0  0  0  0  0  0  0  0  0  0  0
    2.0000    3.3739    0.0000 H   0  0  0  0  0  0  0  0  0  0  0  0
  1  6  1  0  0  0  0
  1 11  1  0  0  0  0
  2 16  1  0  0  0  0
  2 47  1  0  0  0  0
  3 22  2  0  0  0  0
  4 26  1  0  0  0  0
  4 57  1  0  0  0  0
  5 30  1  0  0  0  0
  5 58  1  0  0  0  0
  6  7  1  0  0  0  0
  6  8  1  0  0  0  0
  6 10  1  0  0  0  0
  7 12  1  0  0  0  0
  7 31  1  0  0  0  0
  7 32  1  0  0  0  0
  8 13  2  0  0  0  0
  8 33  1  0  0  0  0
  9 11  1  0  0  0  0
  9 13  1  0  0  0  0
  9 14  2  0  0  0  0
 10 34  1  0  0  0  0
 10 35  1  0  0  0  0
 10 36  1  0  0  0  0
 11 16  2  0  0  0  0
 12 18  1  0  0  0  0
 12 37  1  0  0  0  0
 12 38  1  0  0  0  0
 13 39  1  0  0  0  0
 14 15  1  0  0  0  0
 14 17  1  0  0  0  0
 15 19  1  0  0  0  0
 15 40  1  0  0  0  0
 15 41  1  0  0  0  0
 16 20  1  0  0  0  0
 17 20  2  0  0  0  0
 17 42  1  0  0  0  0
 18 21  2  0  0  0  0
 18 43  1  0  0  0  0
 19 22  1  0  0  0  0
 19 44  1  0  0  0  0
 19 45  1  0  0  0  0
 20 46  1  0  0  0  0
 21 24  1  0  0  0  0
 21 25  1  0  0  0  0
 22 23  1  0  0  0  0
 23 26  2  0  0  0  0
 23 27  1  0  0  0  0
 24 48  1  0  0  0  0
 24 52  1  0  0  0  0
 24 53  1  0  0  0  0
 25 49  1  0  0  0  0
 25 50  1  0  0  0  0
 25 51  1  0  0  0  0
 26 28  1  0  0  0  0
 27 29  2  0  0  0  0
 27 54  1  0  0  0  0
 28 30  2  0  0  0  0
 28 55  1  0  0  0  0
 29 30  1  0  0  0  0
 29 56  1  0  0  0  0
M  END
>  <PUBCHEM_COMPOUND_CID>
21637213

>  <PUBCHEM_COMPOUND_CANONICALIZED>
1

>  <PUBCHEM_CACTVS_COMPLEXITY>
652

>  <PUBCHEM_CACTVS_HBOND_ACCEPTOR>
5

>  <PUBCHEM_CACTVS_HBOND_DONOR>
3

>  <PUBCHEM_CACTVS_ROTATABLE_BOND>
7

>  <PUBCHEM_CACTVS_SUBSKEYS>
AAADceB4OAAAAAAAAAAAAAAAAAAAAAAAAAAwYIAAAAAAAACBQAAAGgAACAAADESAmAAyBoAABgCIAqBSAAACCAAkIAAIiAEGiMgNJzaGNRqCeWOl4BULuYeI7PTOoAABCAAYQABAAAIQADCAAAAAAAAAAA==

>  <PUBCHEM_IUPAC_OPENEYE_NAME>
1-(2,4-dihydroxyphenyl)-3-[8-hydroxy-2-methyl-2-(4-methylpent-3-enyl)chromen-5-yl]propan-1-one

>  <PUBCHEM_IUPAC_CAS_NAME>
1-(2,4-dihydroxyphenyl)-3-[8-hydroxy-2-methyl-2-(4-methylpent-3-enyl)-1-benzopyran-5-yl]-1-propanone

>  <PUBCHEM_IUPAC_NAME>
1-(2,4-dihydroxyphenyl)-3-[8-hydroxy-2-methyl-2-(4-methylpent-3-enyl)chromen-5-yl]propan-1-one

>  <PUBCHEM_IUPAC_SYSTEMATIC_NAME>
1-[2,4-bis(oxidanyl)phenyl]-3-[2-methyl-2-(4-methylpent-3-enyl)-8-oxidanyl-chromen-5-yl]propan-1-one

>  <PUBCHEM_IUPAC_TRADITIONAL_NAME>
1-(2,4-dihydroxyphenyl)-3-[8-hydroxy-2-methyl-2-(4-methylpent-3-enyl)chromen-5-yl]propan-1-one

>  <PUBCHEM_IUPAC_INCHI>
InChI=1S/C25H28O5/c1-16(2)5-4-13-25(3)14-12-19-17(7-11-22(28)24(19)30-25)6-10-21(27)20-9-8-18(26)15-23(20)29/h5,7-9,11-12,14-15,26,28-29H,4,6,10,13H2,1-3H3

>  <PUBCHEM_IUPAC_INCHIKEY>
NZEMOONSVTXJCP-UHFFFAOYSA-N

>  <PUBCHEM_XLOGP3_AA>
5.9

>  <PUBCHEM_EXACT_MASS>
408.194

>  <PUBCHEM_MOLECULAR_FORMULA>
C25H28O5

>  <PUBCHEM_MOLECULAR_WEIGHT>
408.494

>  <PUBCHEM_OPENEYE_CAN_SMILES>
CC(=CCCC1(C=CC2=C(C=CC(=C2O1)O)CCC(=O)C3=C(C=C(C=C3)O)O)C)C

>  <PUBCHEM_OPENEYE_ISO_SMILES>
CC(=CCCC1(C=CC2=C(C=CC(=C2O1)O)CCC(=O)C3=C(C=C(C=C3)O)O)C)C

>  <PUBCHEM_CACTVS_TPSA>
87

>  <PUBCHEM_MONOISOTOPIC_WEIGHT>
408.194

>  <PUBCHEM_TOTAL_CHARGE>
0

>  <PUBCHEM_HEAVY_ATOM_COUNT>
30

>  <PUBCHEM_ATOM_DEF_STEREO_COUNT>
0

>  <PUBCHEM_ATOM_UDEF_STEREO_COUNT>
1

>  <PUBCHEM_BOND_DEF_STEREO_COUNT>
0

>  <PUBCHEM_BOND_UDEF_STEREO_COUNT>
0

>  <PUBCHEM_ISOTOPIC_ATOM_COUNT>
0

>  <PUBCHEM_COMPONENT_COUNT>
1

>  <PUBCHEM_CACTVS_TAUTO_COUNT>
42

>  <PUBCHEM_COORDINATE_TYPE>
1
5
255

>  <PUBCHEM_BONDANNOTATIONS>
11  16  8
14  17  8
16  20  8
17  20  8
23  26  8
23  27  8
26  28  8
27  29  8
28  30  8
29  30  8
6  10  3
9  11  8
9  14  8

$$$$
