21637680
 OpenBabel06101807152D

 74 76  0  0  0  0  0  0  0  0999 V2000
   11.5542   -1.8797    0.0000 O   0  0  0  0  0  0  0  0  0  0  0  0
    9.7942   -2.8450    0.0000 O   0  0  0  0  0  0  0  0  0  0  0  0
    6.3301   -1.8450    0.0000 O   0  0  0  0  0  0  0  0  0  0  0  0
    2.8660   -1.8450    0.0000 O   0  0  0  0  0  0  0  0  0  0  0  0
   12.4603   -1.3658    0.0000 C   0  0  0  0  0  0  0  0  0  0  0  0
   12.4603   -0.3242    0.0000 C   0  0  0  0  0  0  0  0  0  0  0  0
   11.5542    0.1897    0.0000 C   0  0  0  0  0  0  0  0  0  0  0  0
   10.6603   -0.3450    0.0000 C   0  0  0  0  0  0  0  0  0  0  0  0
   10.6603   -1.3450    0.0000 C   0  0  0  0  0  0  0  0  0  0  0  0
    9.7942    0.1550    0.0000 C   0  0  0  0  0  0  0  0  0  0  0  0
    8.9282   -0.3450    0.0000 C   0  0  0  0  0  0  0  0  0  0  0  0
   13.4603   -1.3697    0.0000 C   0  0  0  0  0  0  0  0  0  0  0  0
   12.9569   -2.2338    0.0000 C   0  0  0  0  0  0  0  0  0  0  0  0
    8.0622    0.1550    0.0000 C   0  0  0  0  0  0  0  0  0  0  0  0
    9.7942   -1.8450    0.0000 C   0  0  0  0  0  0  0  0  0  0  0  0
    9.7942    1.1550    0.0000 C   0  0  0  0  0  0  0  0  0  0  0  0
    8.9282   -1.3450    0.0000 C   0  0  0  0  0  0  0  0  0  0  0  0
    7.1962   -0.3450    0.0000 C   0  0  0  0  0  0  0  0  0  0  0  0
    6.3301    0.1550    0.0000 C   0  0  0  0  0  0  0  0  0  0  0  0
    5.4641   -0.3450    0.0000 C   0  0  0  0  0  0  0  0  0  0  0  0
    2.8660    0.1550    0.0000 C   0  0  0  0  0  0  0  0  0  0  0  0
    8.9282    1.6550    0.0000 C   0  0  0  0  0  0  0  0  0  0  0  0
    3.7320   -0.3450    0.0000 C   0  0  0  0  0  0  0  0  0  0  0  0
    4.5981    0.1550    0.0000 C   0  0  0  0  0  0  0  0  0  0  0  0
    5.4641   -1.3450    0.0000 C   0  0  0  0  0  0  0  0  0  0  0  0
    3.7320   -1.3450    0.0000 C   0  0  0  0  0  0  0  0  0  0  0  0
    3.3660    1.0210    0.0000 C   0  0  0  0  0  0  0  0  0  0  0  0
    2.3660   -0.7110    0.0000 C   0  0  0  0  0  0  0  0  0  0  0  0
    8.9282    2.6550    0.0000 C   0  0  0  0  0  0  0  0  0  0  0  0
    4.5981   -1.8450    0.0000 C   0  0  0  0  0  0  0  0  0  0  0  0
    2.0000    0.6550    0.0000 C   0  0  0  0  0  0  0  0  0  0  0  0
    8.0622    3.1550    0.0000 C   0  0  0  0  0  0  0  0  0  0  0  0
    9.7942    3.1550    0.0000 C   0  0  0  0  0  0  0  0  0  0  0  0
    2.0000    1.6550    0.0000 C   0  0  0  0  0  0  0  0  0  0  0  0
   13.0711   -0.4303    0.0000 H   0  0  0  0  0  0  0  0  0  0  0  0
   12.6693    0.2595    0.0000 H   0  0  0  0  0  0  0  0  0  0  0  0
   11.9478    0.6687    0.0000 H   0  0  0  0  0  0  0  0  0  0  0  0
   11.1496    0.6594    0.0000 H   0  0  0  0  0  0  0  0  0  0  0  0
   12.4188   -2.5417    0.0000 H   0  0  0  0  0  0  0  0  0  0  0  0
   13.2648   -2.7719    0.0000 H   0  0  0  0  0  0  0  0  0  0  0  0
   13.4950   -1.9258    0.0000 H   0  0  0  0  0  0  0  0  0  0  0  0
   13.4579   -1.9897    0.0000 H   0  0  0  0  0  0  0  0  0  0  0  0
   14.0803   -1.3721    0.0000 H   0  0  0  0  0  0  0  0  0  0  0  0
   13.4626   -0.7497    0.0000 H   0  0  0  0  0  0  0  0  0  0  0  0
    8.4607    0.6299    0.0000 H   0  0  0  0  0  0  0  0  0  0  0  0
    7.6636    0.6299    0.0000 H   0  0  0  0  0  0  0  0  0  0  0  0
   10.4048    1.0473    0.0000 H   0  0  0  0  0  0  0  0  0  0  0  0
   10.0063    1.7376    0.0000 H   0  0  0  0  0  0  0  0  0  0  0  0
    8.3913   -1.6550    0.0000 H   0  0  0  0  0  0  0  0  0  0  0  0
    6.7976   -0.8199    0.0000 H   0  0  0  0  0  0  0  0  0  0  0  0
    7.5947   -0.8199    0.0000 H   0  0  0  0  0  0  0  0  0  0  0  0
    6.7287    0.6299    0.0000 H   0  0  0  0  0  0  0  0  0  0  0  0
    5.9316    0.6299    0.0000 H   0  0  0  0  0  0  0  0  0  0  0  0
    8.3913    1.3450    0.0000 H   0  0  0  0  0  0  0  0  0  0  0  0
    4.5981    0.7750    0.0000 H   0  0  0  0  0  0  0  0  0  0  0  0
    9.2573   -3.1550    0.0000 H   0  0  0  0  0  0  0  0  0  0  0  0
    1.8291   -0.4010    0.0000 H   0  0  0  0  0  0  0  0  0  0  0  0
    2.0560   -1.2480    0.0000 H   0  0  0  0  0  0  0  0  0  0  0  0
    2.9030   -1.0210    0.0000 H   0  0  0  0  0  0  0  0  0  0  0  0
    3.9030    0.7110    0.0000 H   0  0  0  0  0  0  0  0  0  0  0  0
    3.6760    1.5580    0.0000 H   0  0  0  0  0  0  0  0  0  0  0  0
    2.8291    1.3310    0.0000 H   0  0  0  0  0  0  0  0  0  0  0  0
    4.5981   -2.4650    0.0000 H   0  0  0  0  0  0  0  0  0  0  0  0
    1.4631    0.3450    0.0000 H   0  0  0  0  0  0  0  0  0  0  0  0
   10.1042    2.6181    0.0000 H   0  0  0  0  0  0  0  0  0  0  0  0
    8.3722    3.6919    0.0000 H   0  0  0  0  0  0  0  0  0  0  0  0
    7.5252    3.4650    0.0000 H   0  0  0  0  0  0  0  0  0  0  0  0
    7.7522    2.6181    0.0000 H   0  0  0  0  0  0  0  0  0  0  0  0
   10.3312    3.4650    0.0000 H   0  0  0  0  0  0  0  0  0  0  0  0
    9.4842    3.6919    0.0000 H   0  0  0  0  0  0  0  0  0  0  0  0
    6.3301   -2.4650    0.0000 H   0  0  0  0  0  0  0  0  0  0  0  0
    2.5369    1.9650    0.0000 H   0  0  0  0  0  0  0  0  0  0  0  0
    1.4631    1.9650    0.0000 H   0  0  0  0  0  0  0  0  0  0  0  0
    2.8660   -2.4650    0.0000 H   0  0  0  0  0  0  0  0  0  0  0  0
  1  5  1  0  0  0  0
  1  9  1  0  0  0  0
  2 15  1  0  0  0  0
  2 56  1  0  0  0  0
  3 25  1  0  0  0  0
  3 71  1  0  0  0  0
  4 26  1  0  0  0  0
  4 74  1  0  0  0  0
  5  6  1  0  0  0  0
  5 12  1  0  0  0  0
  5 13  1  0  0  0  0
  6  7  1  0  0  0  0
  6 35  1  0  0  0  0
  6 36  1  0  0  0  0
  7  8  1  0  0  0  0
  7 37  1  0  0  0  0
  7 38  1  0  0  0  0
  8  9  1  0  0  0  0
  8 10  2  0  0  0  0
  9 15  2  0  0  0  0
 10 11  1  0  0  0  0
 10 16  1  0  0  0  0
 11 14  1  0  0  0  0
 11 17  2  0  0  0  0
 12 42  1  0  0  0  0
 12 43  1  0  0  0  0
 12 44  1  0  0  0  0
 13 39  1  0  0  0  0
 13 40  1  0  0  0  0
 13 41  1  0  0  0  0
 14 18  1  0  0  0  0
 14 45  1  0  0  0  0
 14 46  1  0  0  0  0
 15 17  1  0  0  0  0
 16 22  1  0  0  0  0
 16 47  1  0  0  0  0
 16 48  1  0  0  0  0
 17 49  1  0  0  0  0
 18 19  1  0  0  0  0
 18 50  1  0  0  0  0
 18 51  1  0  0  0  0
 19 20  1  0  0  0  0
 19 52  1  0  0  0  0
 19 53  1  0  0  0  0
 20 24  2  0  0  0  0
 20 25  1  0  0  0  0
 21 23  1  0  0  0  0
 21 27  1  0  0  0  0
 21 28  1  0  0  0  0
 21 31  1  0  0  0  0
 22 29  2  0  0  0  0
 22 54  1  0  0  0  0
 23 24  1  0  0  0  0
 23 26  2  0  0  0  0
 24 55  1  0  0  0  0
 25 30  2  0  0  0  0
 26 30  1  0  0  0  0
 27 60  1  0  0  0  0
 27 61  1  0  0  0  0
 27 62  1  0  0  0  0
 28 57  1  0  0  0  0
 28 58  1  0  0  0  0
 28 59  1  0  0  0  0
 29 32  1  0  0  0  0
 29 33  1  0  0  0  0
 30 63  1  0  0  0  0
 31 34  2  0  0  0  0
 31 64  1  0  0  0  0
 32 66  1  0  0  0  0
 32 67  1  0  0  0  0
 32 68  1  0  0  0  0
 33 65  1  0  0  0  0
 33 69  1  0  0  0  0
 33 70  1  0  0  0  0
 34 72  1  0  0  0  0
 34 73  1  0  0  0  0
M  END
>  <PUBCHEM_COMPOUND_CID>
21637680

>  <PUBCHEM_COMPOUND_CANONICALIZED>
1

>  <PUBCHEM_CACTVS_COMPLEXITY>
707

>  <PUBCHEM_CACTVS_HBOND_ACCEPTOR>
4

>  <PUBCHEM_CACTVS_HBOND_DONOR>
3

>  <PUBCHEM_CACTVS_ROTATABLE_BOND>
8

>  <PUBCHEM_CACTVS_SUBSKEYS>
AAADcfB4OAAAAAAAAAAAAAAAAAAAAAAAAAA0YIAAAAAAAACRQAAAGgAACAAADkSAmAAyBoAABgCAAiBCAAACCAAgIAAIiAAGiIgNJyKGMRqCeCOlwBULuAeA4PQPoAADCAAYQABAAAYQADCAAAAAAAAAAA==

>  <PUBCHEM_IUPAC_OPENEYE_NAME>
4-(1,1-dimethylallyl)-6-[3-[8-hydroxy-2,2-dimethyl-5-(3-methylbut-2-enyl)chroman-6-yl]propyl]benzene-1,3-diol

>  <PUBCHEM_IUPAC_CAS_NAME>
4-[3-[8-hydroxy-2,2-dimethyl-5-(3-methylbut-2-enyl)-3,4-dihydro-2H-1-benzopyran-6-yl]propyl]-6-(2-methylbut-3-en-2-yl)benzene-1,3-diol

>  <PUBCHEM_IUPAC_NAME>
4-[3-[8-hydroxy-2,2-dimethyl-5-(3-methylbut-2-enyl)-3,4-dihydrochromen-6-yl]propyl]-6-(2-methylbut-3-en-2-yl)benzene-1,3-diol

>  <PUBCHEM_IUPAC_SYSTEMATIC_NAME>
4-[3-[2,2-dimethyl-5-(3-methylbut-2-enyl)-8-oxidanyl-3,4-dihydrochromen-6-yl]propyl]-6-(2-methylbut-3-en-2-yl)benzene-1,3-diol

>  <PUBCHEM_IUPAC_TRADITIONAL_NAME>
4-(1,1-dimethylallyl)-6-[3-[8-hydroxy-2,2-dimethyl-5-(3-methylbut-2-enyl)chroman-6-yl]propyl]resorcinol

>  <PUBCHEM_IUPAC_INCHI>
InChI=1S/C30H40O4/c1-8-29(4,5)24-16-21(25(31)18-26(24)32)11-9-10-20-17-27(33)28-23(14-15-30(6,7)34-28)22(20)13-12-19(2)3/h8,12,16-18,31-33H,1,9-11,13-15H2,2-7H3

>  <PUBCHEM_IUPAC_INCHIKEY>
ADFDRHICFIZUNK-UHFFFAOYSA-N

>  <PUBCHEM_XLOGP3_AA>
8.5

>  <PUBCHEM_EXACT_MASS>
464.293

>  <PUBCHEM_MOLECULAR_FORMULA>
C30H40O4

>  <PUBCHEM_MOLECULAR_WEIGHT>
464.646

>  <PUBCHEM_OPENEYE_CAN_SMILES>
CC(=CCC1=C2CCC(OC2=C(C=C1CCCC3=CC(=C(C=C3O)O)C(C)(C)C=C)O)(C)C)C

>  <PUBCHEM_OPENEYE_ISO_SMILES>
CC(=CCC1=C2CCC(OC2=C(C=C1CCCC3=CC(=C(C=C3O)O)C(C)(C)C=C)O)(C)C)C

>  <PUBCHEM_CACTVS_TPSA>
69.9

>  <PUBCHEM_MONOISOTOPIC_WEIGHT>
464.293

>  <PUBCHEM_TOTAL_CHARGE>
0

>  <PUBCHEM_HEAVY_ATOM_COUNT>
34

>  <PUBCHEM_ATOM_DEF_STEREO_COUNT>
0

>  <PUBCHEM_ATOM_UDEF_STEREO_COUNT>
0

>  <PUBCHEM_BOND_DEF_STEREO_COUNT>
0

>  <PUBCHEM_BOND_UDEF_STEREO_COUNT>
0

>  <PUBCHEM_ISOTOPIC_ATOM_COUNT>
0

>  <PUBCHEM_COMPONENT_COUNT>
1

>  <PUBCHEM_CACTVS_TAUTO_COUNT>
153

>  <PUBCHEM_COORDINATE_TYPE>
1
5
255

>  <PUBCHEM_BONDANNOTATIONS>
10  11  8
11  17  8
15  17  8
20  24  8
20  25  8
23  24  8
23  26  8
25  30  8
26  30  8
8  10  8
8  9  8
9  15  8

$$$$
