21637579
 OpenBabel06101807152D

 89 95  0  0  1  0  0  0  0  0999 V2000
    7.2690   -2.6647    0.0000 O   0  0  0  0  0  0  0  0  0  0  0  0
    8.1457   -1.1402    0.0000 O   0  0  0  0  0  0  0  0  0  0  0  0
    9.8777    0.8598    0.0000 O   0  0  0  0  0  0  0  0  0  0  0  0
    6.8220    2.3689    0.0000 O   0  0  0  0  0  0  0  0  0  0  0  0
    4.6653   -2.1948    0.0000 O   0  0  0  0  0  0  0  0  0  0  0  0
    4.6884   -4.1947    0.0000 O   0  0  0  0  0  0  0  0  0  0  0  0
    6.4319   -5.1746    0.0000 O   0  0  0  0  0  0  0  0  0  0  0  0
    6.0546    1.8381    0.0000 O   0  0  0  0  0  0  0  0  0  0  0  0
    4.6155   -1.1643    0.0000 O   0  0  0  0  0  0  0  0  0  0  0  0
    8.1639   -5.1545    0.0000 O   0  0  0  0  0  0  0  0  0  0  0  0
    5.8628    4.9090    0.0000 O   0  0  0  0  0  0  0  0  0  0  0  0
   10.4122    1.6312    0.0000 O   0  0  0  0  0  0  0  0  0  0  0  0
    9.5137    4.6186    0.0000 O   0  0  0  0  0  0  0  0  0  0  0  0
   10.7437   -3.6402    0.0000 O   0  0  0  0  0  0  0  0  0  0  0  0
   12.4758   -2.6402    0.0000 O   0  0  0  0  0  0  0  0  0  0  0  0
    2.8866    4.3339    0.0000 O   0  0  0  0  0  0  0  0  0  0  0  0
    2.2098    2.4520    0.0000 O   0  0  0  0  0  0  0  0  0  0  0  0
    8.1457    0.8598    0.0000 C   0  0  2  0  0  0  0  0  0  0  0  0
    6.3972   -2.1748    0.0000 C   0  0  2  0  0  0  0  0  0  0  0  0
    9.0117    0.3598    0.0000 C   0  0  2  0  0  0  0  0  0  0  0  0
    5.5371   -2.6848    0.0000 C   0  0  1  0  0  0  0  0  0  0  0  0
    7.2796    0.3598    0.0000 C   0  0  0  0  0  0  0  0  0  0  0  0
    6.3857   -1.1748    0.0000 C   0  0  0  0  0  0  0  0  0  0  0  0
    9.0117   -0.6402    0.0000 C   0  0  1  0  0  0  0  0  0  0  0  0
    5.5486   -3.6847    0.0000 C   0  0  2  0  0  0  0  0  0  0  0  0
    7.2796   -0.6402    0.0000 C   0  0  0  0  0  0  0  0  0  0  0  0
    6.4204   -4.1746    0.0000 C   0  0  1  0  0  0  0  0  0  0  0  0
    7.2806   -3.6647    0.0000 C   0  0  1  0  0  0  0  0  0  0  0  0
    8.4877    1.7995    0.0000 C   0  0  0  0  0  0  0  0  0  0  0  0
    7.8449    2.5656    0.0000 C   0  0  0  0  0  0  0  0  0  0  0  0
    6.3857    0.8945    0.0000 C   0  0  0  0  0  0  0  0  0  0  0  0
    5.4796   -0.6610    0.0000 C   0  0  0  0  0  0  0  0  0  0  0  0
    8.1869    3.5052    0.0000 C   0  0  0  0  0  0  0  0  0  0  0  0
    9.8777   -1.1402    0.0000 C   0  0  0  0  0  0  0  0  0  0  0  0
    7.5298    4.3134    0.0000 C   0  0  0  0  0  0  0  0  0  0  0  0
    8.1523   -4.1546    0.0000 C   0  0  0  0  0  0  0  0  0  0  0  0
    6.5026    4.1405    0.0000 C   0  0  2  0  0  0  0  0  0  0  0  0
    6.1463    3.1616    0.0000 C   0  0  1  0  0  0  0  0  0  0  0  0
    9.4725    1.9732    0.0000 C   0  0  0  0  0  0  0  0  0  0  0  0
    5.4796    0.3806    0.0000 C   0  0  0  0  0  0  0  0  0  0  0  0
    9.1717    3.6789    0.0000 C   0  0  0  0  0  0  0  0  0  0  0  0
    9.8145    2.9129    0.0000 C   0  0  0  0  0  0  0  0  0  0  0  0
    9.8777   -2.1402    0.0000 C   0  0  0  0  0  0  0  0  0  0  0  0
    5.1622    2.9842    0.0000 C   0  0  0  0  0  0  0  0  0  0  0  0
   10.7437   -0.6402    0.0000 C   0  0  0  0  0  0  0  0  0  0  0  0
   10.7437   -2.6402    0.0000 C   0  0  0  0  0  0  0  0  0  0  0  0
   11.6098   -1.1402    0.0000 C   0  0  0  0  0  0  0  0  0  0  0  0
    4.5164    3.7478    0.0000 C   0  0  0  0  0  0  0  0  0  0  0  0
    4.8238    2.0433    0.0000 C   0  0  0  0  0  0  0  0  0  0  0  0
   11.6098   -2.1402    0.0000 C   0  0  0  0  0  0  0  0  0  0  0  0
    3.5323    3.5703    0.0000 C   0  0  0  0  0  0  0  0  0  0  0  0
    3.8397    1.8658    0.0000 C   0  0  0  0  0  0  0  0  0  0  0  0
    3.1940    2.6294    0.0000 C   0  0  0  0  0  0  0  0  0  0  0  0
    8.9444    1.1505    0.0000 H   0  0  0  0  0  0  0  0  0  0  0  0
    5.6563   -1.7583    0.0000 H   0  0  0  0  0  0  0  0  0  0  0  0
    9.5486    0.0498    0.0000 H   0  0  0  0  0  0  0  0  0  0  0  0
    5.0038   -3.0009    0.0000 H   0  0  0  0  0  0  0  0  0  0  0  0
    9.0117   -1.2602    0.0000 H   0  0  0  0  0  0  0  0  0  0  0  0
    5.5558   -4.3046    0.0000 H   0  0  0  0  0  0  0  0  0  0  0  0
    6.9609   -4.4784    0.0000 H   0  0  0  0  0  0  0  0  0  0  0  0
    7.8139   -3.3485    0.0000 H   0  0  0  0  0  0  0  0  0  0  0  0
    8.0706    4.6165    0.0000 H   0  0  0  0  0  0  0  0  0  0  0  0
    7.3237    4.8982    0.0000 H   0  0  0  0  0  0  0  0  0  0  0  0
    8.7641   -4.2552    0.0000 H   0  0  0  0  0  0  0  0  0  0  0  0
    8.3576   -3.5696    0.0000 H   0  0  0  0  0  0  0  0  0  0  0  0
    5.8918    4.0340    0.0000 H   0  0  0  0  0  0  0  0  0  0  0  0
    5.9376    2.5778    0.0000 H   0  0  0  0  0  0  0  0  0  0  0  0
    4.9439    0.6927    0.0000 H   0  0  0  0  0  0  0  0  0  0  0  0
   10.4146    0.5498    0.0000 H   0  0  0  0  0  0  0  0  0  0  0  0
    4.1320   -2.5110    0.0000 H   0  0  0  0  0  0  0  0  0  0  0  0
    4.6956   -4.8146    0.0000 H   0  0  0  0  0  0  0  0  0  0  0  0
   10.4251    3.0205    0.0000 H   0  0  0  0  0  0  0  0  0  0  0  0
    5.8986   -5.4908    0.0000 H   0  0  0  0  0  0  0  0  0  0  0  0
    9.3408   -2.4502    0.0000 H   0  0  0  0  0  0  0  0  0  0  0  0
   10.7437   -0.0202    0.0000 H   0  0  0  0  0  0  0  0  0  0  0  0
    5.4453    1.9528    0.0000 H   0  0  0  0  0  0  0  0  0  0  0  0
    4.0774   -0.8564    0.0000 H   0  0  0  0  0  0  0  0  0  0  0  0
    8.7044   -5.4583    0.0000 H   0  0  0  0  0  0  0  0  0  0  0  0
    6.0770    5.4908    0.0000 H   0  0  0  0  0  0  0  0  0  0  0  0
   10.8871    2.0297    0.0000 H   0  0  0  0  0  0  0  0  0  0  0  0
   12.1467   -0.8302    0.0000 H   0  0  0  0  0  0  0  0  0  0  0  0
    4.7262    4.3312    0.0000 H   0  0  0  0  0  0  0  0  0  0  0  0
    5.2242    1.5699    0.0000 H   0  0  0  0  0  0  0  0  0  0  0  0
   10.1243    4.7263    0.0000 H   0  0  0  0  0  0  0  0  0  0  0  0
    3.6299    1.2824    0.0000 H   0  0  0  0  0  0  0  0  0  0  0  0
   11.2807   -3.9502    0.0000 H   0  0  0  0  0  0  0  0  0  0  0  0
   13.0127   -2.3302    0.0000 H   0  0  0  0  0  0  0  0  0  0  0  0
    2.2764    4.2239    0.0000 H   0  0  0  0  0  0  0  0  0  0  0  0
    2.0000    1.8685    0.0000 H   0  0  0  0  0  0  0  0  0  0  0  0
  1 19  1  0  0  0  0
  1 28  1  0  0  0  0
  2 24  1  0  0  0  0
  2 26  1  0  0  0  0
  3 69  1  0  0  0  0
  4 30  1  0  0  0  0
  4 38  1  0  0  0  0
  5 70  1  0  0  0  0
  6 71  1  0  0  0  0
  7 73  1  0  0  0  0
  8 31  1  0  0  0  0
  8 76  1  0  0  0  0
  9 32  1  0  0  0  0
  9 77  1  0  0  0  0
 10 36  1  0  0  0  0
 10 78  1  0  0  0  0
 11 79  1  0  0  0  0
 12 39  1  0  0  0  0
 12 80  1  0  0  0  0
 13 41  1  0  0  0  0
 13 84  1  0  0  0  0
 14 46  1  0  0  0  0
 14 86  1  0  0  0  0
 15 50  1  0  0  0  0
 15 87  1  0  0  0  0
 16 51  1  0  0  0  0
 16 88  1  0  0  0  0
 17 53  1  0  0  0  0
 17 89  1  0  0  0  0
 18 20  1  6  0  0  0
 18 22  1  0  0  0  0
 18 29  1  0  0  0  0
 18 54  1  0  0  0  0
 19 21  1  6  0  0  0
 19 23  1  0  0  0  0
 19 55  1  0  0  0  0
 20  3  1  0  0  0  0
 20 24  1  1  0  0  0
 20 56  1  0  0  0  0
 21  5  1  0  0  0  0
 21 25  1  1  0  0  0
 21 57  1  0  0  0  0
 22 26  2  0  0  0  0
 22 31  1  0  0  0  0
 23 26  1  0  0  0  0
 23 32  2  0  0  0  0
 24 34  1  0  0  0  0
 24 58  1  6  0  0  0
 25  6  1  0  0  0  0
 25 27  1  6  0  0  0
 25 59  1  0  0  0  0
 27  7  1  0  0  0  0
 27 28  1  1  0  0  0
 27 60  1  0  0  0  0
 28 36  1  0  0  0  0
 28 61  1  1  0  0  0
 29 30  1  0  0  0  0
 29 39  2  0  0  0  0
 30 33  2  0  0  0  0
 31 40  2  0  0  0  0
 32 40  1  0  0  0  0
 33 35  1  0  0  0  0
 33 41  1  0  0  0  0
 34 43  2  0  0  0  0
 34 45  1  0  0  0  0
 35 37  1  0  0  0  0
 35 62  1  0  0  0  0
 35 63  1  0  0  0  0
 36 64  1  0  0  0  0
 36 65  1  0  0  0  0
 37 11  1  0  0  0  0
 37 38  1  6  0  0  0
 37 66  1  0  0  0  0
 38 44  1  0  0  0  0
 38 67  1  1  0  0  0
 39 42  1  0  0  0  0
 40 68  1  0  0  0  0
 41 42  2  0  0  0  0
 42 72  1  0  0  0  0
 43 46  1  0  0  0  0
 43 74  1  0  0  0  0
 44 48  2  0  0  0  0
 44 49  1  0  0  0  0
 45 47  2  0  0  0  0
 45 75  1  0  0  0  0
 46 50  2  0  0  0  0
 47 50  1  0  0  0  0
 47 81  1  0  0  0  0
 48 51  1  0  0  0  0
 48 82  1  0  0  0  0
 49 52  2  0  0  0  0
 49 83  1  0  0  0  0
 51 53  2  0  0  0  0
 52 53  1  0  0  0  0
 52 85  1  0  0  0  0
M  END
>  <PUBCHEM_COMPOUND_CID>
21637579

>  <PUBCHEM_COMPOUND_CANONICALIZED>
1

>  <PUBCHEM_CACTVS_COMPLEXITY>
1230

>  <PUBCHEM_CACTVS_HBOND_ACCEPTOR>
17

>  <PUBCHEM_CACTVS_HBOND_DONOR>
14

>  <PUBCHEM_CACTVS_ROTATABLE_BOND>
5

>  <PUBCHEM_CACTVS_SUBSKEYS>
AAADcfB8PgAAAAAAAAAAAAAAAAAAAAAAAAA0aNGCAAAAAACRVAAAGgAACAAADRSgmAIwBoAABgCAAiBCAAACCAAgIAAIiAAGiIgNNyKGMRqCeCGlwBULuAfA4PwOoAADCAAIQABAAAYQABCAAAAAAAAAAA==

>  <PUBCHEM_IUPAC_OPENEYE_NAME>
(2R,3R,4S)-2-(3,4-dihydroxyphenyl)-4-[(2R,3R)-2-(3,4-dihydroxyphenyl)-3,5,7-trihydroxy-chroman-8-yl]-8-[(2S,3R,4R,5S,6R)-3,4,5-trihydroxy-6-(hydroxymethyl)tetrahydropyran-2-yl]chromane-3,5,7-triol

>  <PUBCHEM_IUPAC_CAS_NAME>
(2R,3R,4S)-2-(3,4-dihydroxyphenyl)-4-[(2R,3R)-2-(3,4-dihydroxyphenyl)-3,5,7-trihydroxy-3,4-dihydro-2H-1-benzopyran-8-yl]-8-[(2S,3R,4R,5S,6R)-3,4,5-trihydroxy-6-(hydroxymethyl)-2-oxanyl]-3,4-dihydro-2H-1-benzopyran-3,5,7-triol

>  <PUBCHEM_IUPAC_NAME>
(2R,3R,4S)-2-(3,4-dihydroxyphenyl)-4-[(2R,3R)-2-(3,4-dihydroxyphenyl)-3,5,7-trihydroxy-3,4-dihydro-2H-chromen-8-yl]-8-[(2S,3R,4R,5S,6R)-3,4,5-trihydroxy-6-(hydroxymethyl)oxan-2-yl]-3,4-dihydro-2H-chromene-3,5,7-triol

>  <PUBCHEM_IUPAC_SYSTEMATIC_NAME>
(2R,3R,4S)-2-[3,4-bis(oxidanyl)phenyl]-4-[(2R,3R)-2-[3,4-bis(oxidanyl)phenyl]-3,5,7-tris(oxidanyl)-3,4-dihydro-2H-chromen-8-yl]-8-[(2S,3R,4R,5S,6R)-6-(hydroxymethyl)-3,4,5-tris(oxidanyl)oxan-2-yl]-3,4-dihydro-2H-chromene-3,5,7-triol

>  <PUBCHEM_IUPAC_TRADITIONAL_NAME>
(2R,3R,4S)-2-(3,4-dihydroxyphenyl)-4-[(2R,3R)-2-(3,4-dihydroxyphenyl)-3,5,7-trihydroxy-chroman-8-yl]-8-[(2S,3R,4R,5S,6R)-3,4,5-trihydroxy-6-methylol-tetrahydropyran-2-yl]chroman-3,5,7-triol

>  <PUBCHEM_IUPAC_INCHI>
InChI=1S/C36H36O17/c37-10-23-28(47)30(49)31(50)36(51-23)26-21(45)9-20(44)25-27(29(48)33(53-35(25)26)12-2-4-15(39)18(42)6-12)24-19(43)8-16(40)13-7-22(46)32(52-34(13)24)11-1-3-14(38)17(41)5-11/h1-6,8-9,22-23,27-33,36-50H,7,10H2/t22-,23-,27+,28-,29-,30+,31-,32-,33-,36+/m1/s1

>  <PUBCHEM_IUPAC_INCHIKEY>
JBDZOCOBUGXPJW-LYGYLKCLSA-N

>  <PUBCHEM_XLOGP3_AA>
-0.1

>  <PUBCHEM_EXACT_MASS>
740.195

>  <PUBCHEM_MOLECULAR_FORMULA>
C36H36O17

>  <PUBCHEM_MOLECULAR_WEIGHT>
740.667

>  <PUBCHEM_OPENEYE_CAN_SMILES>
C1C(C(OC2=C1C(=CC(=C2C3C(C(OC4=C3C(=CC(=C4C5C(C(C(C(O5)CO)O)O)O)O)O)C6=CC(=C(C=C6)O)O)O)O)O)C7=CC(=C(C=C7)O)O)O

>  <PUBCHEM_OPENEYE_ISO_SMILES>
C1[C@H]([C@H](OC2=C1C(=CC(=C2[C@@H]3[C@H]([C@H](OC4=C3C(=CC(=C4[C@H]5[C@@H]([C@H]([C@@H]([C@H](O5)CO)O)O)O)O)O)C6=CC(=C(C=C6)O)O)O)O)O)C7=CC(=C(C=C7)O)O)O

>  <PUBCHEM_CACTVS_TPSA>
311

>  <PUBCHEM_MONOISOTOPIC_WEIGHT>
740.195

>  <PUBCHEM_TOTAL_CHARGE>
0

>  <PUBCHEM_HEAVY_ATOM_COUNT>
53

>  <PUBCHEM_ATOM_DEF_STEREO_COUNT>
10

>  <PUBCHEM_ATOM_UDEF_STEREO_COUNT>
0

>  <PUBCHEM_BOND_DEF_STEREO_COUNT>
0

>  <PUBCHEM_BOND_UDEF_STEREO_COUNT>
0

>  <PUBCHEM_ISOTOPIC_ATOM_COUNT>
0

>  <PUBCHEM_COMPONENT_COUNT>
1

>  <PUBCHEM_CACTVS_TAUTO_COUNT>
986

>  <PUBCHEM_COORDINATE_TYPE>
1
5
255

>  <PUBCHEM_BONDANNOTATIONS>
37  11  6
18  54  5
19  55  5
22  26  8
22  31  8
23  26  8
23  32  8
24  34  5
28  36  6
29  30  8
29  39  8
20  3  5
30  33  8
31  40  8
32  40  8
33  41  8
34  43  8
34  45  8
38  44  6
39  42  8
41  42  8
43  46  8
44  48  8
44  49  8
45  47  8
46  50  8
47  50  8
48  51  8
49  52  8
21  5  5
51  53  8
52  53  8
25  6  6
27  7  5

$$$$
