21674154
 OpenBabel06101807152D

 74 79  0  0  1  0  0  0  0  0999 V2000
    6.3181   -1.3501    0.0000 O   0  0  0  0  0  0  0  0  0  0  0  0
    8.0502   -1.3501    0.0000 O   0  0  0  0  0  0  0  0  0  0  0  0
    6.3181   -4.3501    0.0000 O   0  0  0  0  0  0  0  0  0  0  0  0
    4.5861   -3.3501    0.0000 O   0  0  0  0  0  0  0  0  0  0  0  0
    8.0502   -3.3501    0.0000 O   0  0  0  0  0  0  0  0  0  0  0  0
    3.7201   -1.8501    0.0000 O   0  0  0  0  0  0  0  0  0  0  0  0
    9.7190    0.7029    0.0000 O   0  3  0  0  0  0  0  0  0  0  0  0
    6.4403    1.8735    0.0000 O   0  0  0  0  0  0  0  0  0  0  0  0
    9.1298    4.1836    0.0000 O   0  0  0  0  0  0  0  0  0  0  0  0
    9.9786   -3.6482    0.0000 O   0  0  0  0  0  0  0  0  0  0  0  0
   12.6322   -1.4216    0.0000 O   0  0  0  0  0  0  0  0  0  0  0  0
   11.9482   -3.3009    0.0000 O   0  0  0  0  0  0  0  0  0  0  0  0
    2.8474    2.0537    0.0000 O   0  0  0  0  0  0  0  0  0  0  0  0
    2.2005    0.1613    0.0000 O   0  0  0  0  0  0  0  0  0  0  0  0
    6.3181   -3.3501    0.0000 C   0  0  1  0  0  0  0  0  0  0  0  0
    5.4521   -2.8501    0.0000 C   0  0  1  0  0  0  0  0  0  0  0  0
    7.1842   -2.8501    0.0000 C   0  0  2  0  0  0  0  0  0  0  0  0
    5.4521   -1.8501    0.0000 C   0  0  1  0  0  0  0  0  0  0  0  0
    7.1842   -1.8501    0.0000 C   0  0  1  0  0  0  0  0  0  0  0  0
    4.5861   -1.3501    0.0000 C   0  0  0  0  0  0  0  0  0  0  0  0
    8.3922   -0.4104    0.0000 C   0  0  0  0  0  0  0  0  0  0  0  0
    7.7494    0.3556    0.0000 C   0  0  0  0  0  0  0  0  0  0  0  0
    9.3770   -0.2368    0.0000 C   0  0  0  0  0  0  0  0  0  0  0  0
    8.0914    1.2953    0.0000 C   0  0  0  0  0  0  0  0  0  0  0  0
    9.0762    1.4690    0.0000 C   0  0  0  0  0  0  0  0  0  0  0  0
    6.7730    0.1822    0.0000 C   0  0  0  0  0  0  0  0  0  0  0  0
    7.4097    2.0828    0.0000 C   0  0  0  0  0  0  0  0  0  0  0  0
   10.0198   -1.0028    0.0000 C   0  0  0  0  0  0  0  0  0  0  0  0
    6.1253    0.9332    0.0000 C   0  0  0  0  0  0  0  0  0  0  0  0
    9.4476    2.4422    0.0000 C   0  0  0  0  0  0  0  0  0  0  0  0
    7.7584    3.0644    0.0000 C   0  0  0  0  0  0  0  0  0  0  0  0
    8.7842    3.2452    0.0000 C   0  0  0  0  0  0  0  0  0  0  0  0
   11.0046   -0.8292    0.0000 C   0  0  0  0  0  0  0  0  0  0  0  0
    9.6778   -1.9425    0.0000 C   0  0  0  0  0  0  0  0  0  0  0  0
    5.1441    0.7402    0.0000 C   0  0  0  0  0  0  0  0  0  0  0  0
   10.3206   -2.7085    0.0000 C   0  0  0  0  0  0  0  0  0  0  0  0
   11.6474   -1.5952    0.0000 C   0  0  0  0  0  0  0  0  0  0  0  0
   11.3054   -2.5349    0.0000 C   0  0  0  0  0  0  0  0  0  0  0  0
    4.4864    1.4934    0.0000 C   0  0  0  0  0  0  0  0  0  0  0  0
    4.8207   -0.2060    0.0000 C   0  0  0  0  0  0  0  0  0  0  0  0
    3.5052    1.3004    0.0000 C   0  0  0  0  0  0  0  0  0  0  0  0
    3.8395   -0.3990    0.0000 C   0  0  0  0  0  0  0  0  0  0  0  0
    3.1818    0.3543    0.0000 C   0  0  0  0  0  0  0  0  0  0  0  0
    8.9938   -3.8219    0.0000 C   0  0  0  0  0  0  0  0  0  0  0  0
   12.9742   -0.4819    0.0000 C   0  0  0  0  0  0  0  0  0  0  0  0
    6.8551   -3.6601    0.0000 H   0  0  0  0  0  0  0  0  0  0  0  0
    5.4521   -3.4701    0.0000 H   0  0  0  0  0  0  0  0  0  0  0  0
    7.7211   -2.5401    0.0000 H   0  0  0  0  0  0  0  0  0  0  0  0
    5.4521   -1.2301    0.0000 H   0  0  0  0  0  0  0  0  0  0  0  0
    7.1842   -1.2301    0.0000 H   0  0  0  0  0  0  0  0  0  0  0  0
    4.9846   -0.8752    0.0000 H   0  0  0  0  0  0  0  0  0  0  0  0
    4.1876   -0.8752    0.0000 H   0  0  0  0  0  0  0  0  0  0  0  0
    5.7812   -4.6601    0.0000 H   0  0  0  0  0  0  0  0  0  0  0  0
    4.5861   -3.9701    0.0000 H   0  0  0  0  0  0  0  0  0  0  0  0
    8.0502   -3.9701    0.0000 H   0  0  0  0  0  0  0  0  0  0  0  0
    3.7201   -2.4701    0.0000 H   0  0  0  0  0  0  0  0  0  0  0  0
    6.5653   -0.4020    0.0000 H   0  0  0  0  0  0  0  0  0  0  0  0
   10.0593    2.5428    0.0000 H   0  0  0  0  0  0  0  0  0  0  0  0
    7.3580    3.5378    0.0000 H   0  0  0  0  0  0  0  0  0  0  0  0
   11.2167   -0.2465    0.0000 H   0  0  0  0  0  0  0  0  0  0  0  0
    9.0672   -2.0502    0.0000 H   0  0  0  0  0  0  0  0  0  0  0  0
    4.6869    2.0801    0.0000 H   0  0  0  0  0  0  0  0  0  0  0  0
    5.2285   -0.6730    0.0000 H   0  0  0  0  0  0  0  0  0  0  0  0
    8.7331    4.6601    0.0000 H   0  0  0  0  0  0  0  0  0  0  0  0
    3.6390   -0.9857    0.0000 H   0  0  0  0  0  0  0  0  0  0  0  0
   11.7361   -3.8836    0.0000 H   0  0  0  0  0  0  0  0  0  0  0  0
    8.8861   -3.2113    0.0000 H   0  0  0  0  0  0  0  0  0  0  0  0
    8.3832   -3.9295    0.0000 H   0  0  0  0  0  0  0  0  0  0  0  0
    9.1014   -4.4325    0.0000 H   0  0  0  0  0  0  0  0  0  0  0  0
   13.5568   -0.6939    0.0000 H   0  0  0  0  0  0  0  0  0  0  0  0
   13.1863    0.1007    0.0000 H   0  0  0  0  0  0  0  0  0  0  0  0
   12.3916   -0.2698    0.0000 H   0  0  0  0  0  0  0  0  0  0  0  0
    2.2391    1.9340    0.0000 H   0  0  0  0  0  0  0  0  0  0  0  0
    2.0000   -0.4254    0.0000 H   0  0  0  0  0  0  0  0  0  0  0  0
  1 18  1  0  0  0  0
  1 19  1  0  0  0  0
  2 21  1  0  0  0  0
  3 53  1  0  0  0  0
  4 54  1  0  0  0  0
  5 55  1  0  0  0  0
  6 20  1  0  0  0  0
  6 56  1  0  0  0  0
  7 23  2  0  0  0  0
  7 25  1  0  0  0  0
  8 27  1  0  0  0  0
  8 29  1  0  0  0  0
  9 32  1  0  0  0  0
  9 64  1  0  0  0  0
 10 36  1  0  0  0  0
 10 44  1  0  0  0  0
 11 37  1  0  0  0  0
 11 45  1  0  0  0  0
 12 38  1  0  0  0  0
 12 66  1  0  0  0  0
 13 41  1  0  0  0  0
 13 73  1  0  0  0  0
 14 43  1  0  0  0  0
 14 74  1  0  0  0  0
 15  3  1  0  0  0  0
 15 16  1  6  0  0  0
 15 46  1  0  0  0  0
 16  4  1  0  0  0  0
 16 18  1  1  0  0  0
 16 47  1  0  0  0  0
 17  5  1  0  0  0  0
 17 15  1  1  0  0  0
 17 48  1  0  0  0  0
 18 20  1  0  0  0  0
 18 49  1  6  0  0  0
 19  2  1  0  0  0  0
 19 17  1  6  0  0  0
 19 50  1  0  0  0  0
 20 51  1  0  0  0  0
 20 52  1  0  0  0  0
 21 22  2  0  0  0  0
 21 23  1  0  0  0  0
 22 24  1  0  0  0  0
 22 26  1  0  0  0  0
 23 28  1  0  0  0  0
 24 25  2  0  0  0  0
 24 27  1  0  0  0  0
 25 30  1  0  0  0  0
 26 29  2  0  0  0  0
 26 57  1  0  0  0  0
 27 31  2  0  0  0  0
 28 33  2  0  0  0  0
 28 34  1  0  0  0  0
 29 35  1  0  0  0  0
 30 32  2  0  0  0  0
 30 58  1  0  0  0  0
 31 32  1  0  0  0  0
 31 59  1  0  0  0  0
 33 37  1  0  0  0  0
 33 60  1  0  0  0  0
 34 36  2  0  0  0  0
 34 61  1  0  0  0  0
 35 39  2  0  0  0  0
 35 40  1  0  0  0  0
 36 38  1  0  0  0  0
 37 38  2  0  0  0  0
 39 41  1  0  0  0  0
 39 62  1  0  0  0  0
 40 42  2  0  0  0  0
 40 63  1  0  0  0  0
 41 43  2  0  0  0  0
 42 43  1  0  0  0  0
 42 65  1  0  0  0  0
 44 67  1  0  0  0  0
 44 68  1  0  0  0  0
 44 69  1  0  0  0  0
 45 70  1  0  0  0  0
 45 71  1  0  0  0  0
 45 72  1  0  0  0  0
M  CHG  1   7   1
M  END
>  <PUBCHEM_COMPOUND_CID>
21674154

>  <PUBCHEM_COMPOUND_CANONICALIZED>
1

>  <PUBCHEM_CACTVS_COMPLEXITY>
1020

>  <PUBCHEM_CACTVS_HBOND_ACCEPTOR>
13

>  <PUBCHEM_CACTVS_HBOND_DONOR>
8

>  <PUBCHEM_CACTVS_ROTATABLE_BOND>
7

>  <PUBCHEM_CACTVS_SUBSKEYS>
AAADceB4PAAAAAAAAAAAAAAAAAAAAAAAAAA0aMECAAAAAACR9AAAGgAACAAADBSwmAMyDsAABkCIAqBSAAICCAAkIAAIiAFGiMgdNzaGNR6ieWOl4BUPuYfK7PzOoAABCAAIQABAAAIQABCAAAAAAAAAAA==

>  <PUBCHEM_IUPAC_INCHI>
InChI=1S/C31H28O14/c1-40-21-6-13(7-22(41-2)25(21)36)29-30(45-31-28(39)27(38)26(37)23(11-32)44-31)15-10-18(12-3-4-16(34)17(35)5-12)42-19-8-14(33)9-20(43-29)24(15)19/h3-10,23,26-28,31-32,37-39H,11H2,1-2H3,(H3-,33,34,35,36)/p+1/t23-,26-,27+,28-,31+/m1/s1

>  <PUBCHEM_IUPAC_INCHIKEY>
RFTHDRVOYDHSOC-BGXVWEPQSA-O

>  <PUBCHEM_EXACT_MASS>
625.156

>  <PUBCHEM_MOLECULAR_FORMULA>
C31H29O14+

>  <PUBCHEM_MOLECULAR_WEIGHT>
625.559

>  <PUBCHEM_OPENEYE_CAN_SMILES>
COC1=CC(=CC(=C1O)OC)C2=[O+]C3=CC(=CC4=C3C(=C2OC5C(C(C(C(O5)CO)O)O)O)C=C(O4)C6=CC(=C(C=C6)O)O)O

>  <PUBCHEM_OPENEYE_ISO_SMILES>
COC1=CC(=CC(=C1O)OC)C2=[O+]C3=CC(=CC4=C3C(=C2O[C@H]5[C@@H]([C@H]([C@@H]([C@H](O5)CO)O)O)O)C=C(O4)C6=CC(=C(C=C6)O)O)O

>  <PUBCHEM_CACTVS_TPSA>
209

>  <PUBCHEM_MONOISOTOPIC_WEIGHT>
625.156

>  <PUBCHEM_TOTAL_CHARGE>
1

>  <PUBCHEM_HEAVY_ATOM_COUNT>
45

>  <PUBCHEM_ATOM_DEF_STEREO_COUNT>
5

>  <PUBCHEM_ATOM_UDEF_STEREO_COUNT>
0

>  <PUBCHEM_BOND_DEF_STEREO_COUNT>
0

>  <PUBCHEM_BOND_UDEF_STEREO_COUNT>
0

>  <PUBCHEM_ISOTOPIC_ATOM_COUNT>
0

>  <PUBCHEM_COMPONENT_COUNT>
1

>  <PUBCHEM_CACTVS_TAUTO_COUNT>
369

>  <PUBCHEM_COORDINATE_TYPE>
1
5
255

>  <PUBCHEM_BONDANNOTATIONS>
18  20  5
19  2  5
21  22  8
21  23  8
22  24  8
24  25  8
24  27  8
25  30  8
27  31  8
28  33  8
28  34  8
15  3  5
30  32  8
31  32  8
33  37  8
34  36  8
35  39  8
35  40  8
36  38  8
37  38  8
39  41  8
16  4  6
40  42  8
41  43  8
42  43  8
17  5  6
7  23  8
7  25  8

$$$$
