21672078
 OpenBabel06101807152D

 64 68  0  0  0  0  0  0  0  0999 V2000
    6.3496   -3.6578    0.0000 O   0  0  0  0  0  0  0  0  0  0  0  0
    6.3739    0.4964    0.0000 O   0  0  0  0  0  0  0  0  0  0  0  0
    8.1052    3.6506    0.0000 O   0  0  0  0  0  0  0  0  0  0  0  0
    4.5879   -2.5487    0.0000 O   0  0  0  0  0  0  0  0  0  0  0  0
    8.9720   -1.0036    0.0000 O   0  0  0  0  0  0  0  0  0  0  0  0
    9.8761    0.4933    0.0000 O   0  0  0  0  0  0  0  0  0  0  0  0
    7.2892   -4.2003    0.0000 C   0  0  0  0  0  0  0  0  0  0  0  0
    8.2246   -3.6506    0.0000 C   0  0  0  0  0  0  0  0  0  0  0  0
    8.2079   -2.5657    0.0000 C   0  0  0  0  0  0  0  0  0  0  0  0
    7.2560   -2.0451    0.0000 C   0  0  0  0  0  0  0  0  0  0  0  0
    6.3579   -2.5728    0.0000 C   0  0  0  0  0  0  0  0  0  0  0  0
    7.2399   -1.0036    0.0000 C   0  0  0  0  0  0  0  0  0  0  0  0
    7.7925   -5.0644    0.0000 C   0  0  0  0  0  0  0  0  0  0  0  0
    6.7925   -5.0682    0.0000 C   0  0  0  0  0  0  0  0  0  0  0  0
    6.3739   -0.5036    0.0000 C   0  0  0  0  0  0  0  0  0  0  0  0
    5.4639   -1.0104    0.0000 C   0  0  0  0  0  0  0  0  0  0  0  0
    5.4558   -2.0520    0.0000 C   0  0  0  0  0  0  0  0  0  0  0  0
    8.1059   -0.5036    0.0000 C   0  0  0  0  0  0  0  0  0  0  0  0
    8.1059    0.4964    0.0000 C   0  0  0  0  0  0  0  0  0  0  0  0
    7.2399    0.9964    0.0000 C   0  0  0  0  0  0  0  0  0  0  0  0
    4.6037   -0.5004    0.0000 C   0  0  0  0  0  0  0  0  0  0  0  0
    9.0159    1.0033    0.0000 C   0  0  0  0  0  0  0  0  0  0  0  0
    9.0239    2.0449    0.0000 C   0  0  0  0  0  0  0  0  0  0  0  0
    9.0406    4.2003    0.0000 C   0  0  0  0  0  0  0  0  0  0  0  0
    8.1219    2.5657    0.0000 C   0  0  0  0  0  0  0  0  0  0  0  0
    7.2238    2.0379    0.0000 C   0  0  0  0  0  0  0  0  0  0  0  0
    9.9718    2.5728    0.0000 C   0  0  0  0  0  0  0  0  0  0  0  0
    9.9802    3.6578    0.0000 C   0  0  0  0  0  0  0  0  0  0  0  0
    3.7319   -0.9904    0.0000 C   0  0  0  0  0  0  0  0  0  0  0  0
    9.5372    5.0682    0.0000 C   0  0  0  0  0  0  0  0  0  0  0  0
    8.5372    5.0644    0.0000 C   0  0  0  0  0  0  0  0  0  0  0  0
    2.8718   -0.4804    0.0000 C   0  0  0  0  0  0  0  0  0  0  0  0
    2.0000   -0.9704    0.0000 C   0  0  0  0  0  0  0  0  0  0  0  0
    2.8833    0.5195    0.0000 C   0  0  0  0  0  0  0  0  0  0  0  0
    8.4426   -4.2310    0.0000 H   0  0  0  0  0  0  0  0  0  0  0  0
    8.8338   -3.5351    0.0000 H   0  0  0  0  0  0  0  0  0  0  0  0
    8.8203   -2.6624    0.0000 H   0  0  0  0  0  0  0  0  0  0  0  0
    8.4079   -1.9788    0.0000 H   0  0  0  0  0  0  0  0  0  0  0  0
    7.2568   -5.3764    0.0000 H   0  0  0  0  0  0  0  0  0  0  0  0
    8.1046   -5.6001    0.0000 H   0  0  0  0  0  0  0  0  0  0  0  0
    8.3283   -4.7523    0.0000 H   0  0  0  0  0  0  0  0  0  0  0  0
    6.2544   -4.7603    0.0000 H   0  0  0  0  0  0  0  0  0  0  0  0
    6.4846   -5.6064    0.0000 H   0  0  0  0  0  0  0  0  0  0  0  0
    7.3307   -5.3762    0.0000 H   0  0  0  0  0  0  0  0  0  0  0  0
    5.0077   -0.0301    0.0000 H   0  0  0  0  0  0  0  0  0  0  0  0
    4.2107   -0.0209    0.0000 H   0  0  0  0  0  0  0  0  0  0  0  0
    6.6834    2.3417    0.0000 H   0  0  0  0  0  0  0  0  0  0  0  0
   10.5052    2.2566    0.0000 H   0  0  0  0  0  0  0  0  0  0  0  0
   10.5183    3.9657    0.0000 H   0  0  0  0  0  0  0  0  0  0  0  0
    4.5855   -3.1687    0.0000 H   0  0  0  0  0  0  0  0  0  0  0  0
    3.7248   -1.6103    0.0000 H   0  0  0  0  0  0  0  0  0  0  0  0
    9.0730    5.3764    0.0000 H   0  0  0  0  0  0  0  0  0  0  0  0
   10.0754    4.7603    0.0000 H   0  0  0  0  0  0  0  0  0  0  0  0
    9.8452    5.6064    0.0000 H   0  0  0  0  0  0  0  0  0  0  0  0
    8.9991    5.3762    0.0000 H   0  0  0  0  0  0  0  0  0  0  0  0
    8.2252    5.6001    0.0000 H   0  0  0  0  0  0  0  0  0  0  0  0
    8.0015    4.7523    0.0000 H   0  0  0  0  0  0  0  0  0  0  0  0
   10.4166    0.7971    0.0000 H   0  0  0  0  0  0  0  0  0  0  0  0
    1.6962   -0.4299    0.0000 H   0  0  0  0  0  0  0  0  0  0  0  0
    3.5033    0.5124    0.0000 H   0  0  0  0  0  0  0  0  0  0  0  0
    2.8905    1.1395    0.0000 H   0  0  0  0  0  0  0  0  0  0  0  0
    2.2634    0.5267    0.0000 H   0  0  0  0  0  0  0  0  0  0  0  0
    1.4595   -1.2741    0.0000 H   0  0  0  0  0  0  0  0  0  0  0  0
    2.3038   -1.5108    0.0000 H   0  0  0  0  0  0  0  0  0  0  0  0
  1  7  1  0  0  0  0
  1 11  1  0  0  0  0
  2 15  1  0  0  0  0
  2 20  1  0  0  0  0
  3 24  1  0  0  0  0
  3 25  1  0  0  0  0
  4 17  1  0  0  0  0
  4 50  1  0  0  0  0
  5 18  2  0  0  0  0
  6 22  1  0  0  0  0
  6 58  1  0  0  0  0
  7  8  1  0  0  0  0
  7 13  1  0  0  0  0
  7 14  1  0  0  0  0
  8  9  1  0  0  0  0
  8 35  1  0  0  0  0
  8 36  1  0  0  0  0
  9 10  1  0  0  0  0
  9 37  1  0  0  0  0
  9 38  1  0  0  0  0
 10 11  1  0  0  0  0
 10 12  2  0  0  0  0
 11 17  2  0  0  0  0
 12 15  1  0  0  0  0
 12 18  1  0  0  0  0
 13 39  1  0  0  0  0
 13 40  1  0  0  0  0
 13 41  1  0  0  0  0
 14 42  1  0  0  0  0
 14 43  1  0  0  0  0
 14 44  1  0  0  0  0
 15 16  2  0  0  0  0
 16 17  1  0  0  0  0
 16 21  1  0  0  0  0
 18 19  1  0  0  0  0
 19 20  1  0  0  0  0
 19 22  2  0  0  0  0
 20 26  2  0  0  0  0
 21 29  1  0  0  0  0
 21 45  1  0  0  0  0
 21 46  1  0  0  0  0
 22 23  1  0  0  0  0
 23 25  2  0  0  0  0
 23 27  1  0  0  0  0
 24 28  1  0  0  0  0
 24 30  1  0  0  0  0
 24 31  1  0  0  0  0
 25 26  1  0  0  0  0
 26 47  1  0  0  0  0
 27 28  2  0  0  0  0
 27 48  1  0  0  0  0
 28 49  1  0  0  0  0
 29 32  2  0  0  0  0
 29 51  1  0  0  0  0
 30 53  1  0  0  0  0
 30 54  1  0  0  0  0
 30 55  1  0  0  0  0
 31 52  1  0  0  0  0
 31 56  1  0  0  0  0
 31 57  1  0  0  0  0
 32 33  1  0  0  0  0
 32 34  1  0  0  0  0
 33 59  1  0  0  0  0
 33 63  1  0  0  0  0
 33 64  1  0  0  0  0
 34 60  1  0  0  0  0
 34 61  1  0  0  0  0
 34 62  1  0  0  0  0
M  END
>  <PUBCHEM_COMPOUND_CID>
21672078

>  <PUBCHEM_COMPOUND_CANONICALIZED>
1

>  <PUBCHEM_CACTVS_COMPLEXITY>
870

>  <PUBCHEM_CACTVS_HBOND_ACCEPTOR>
6

>  <PUBCHEM_CACTVS_HBOND_DONOR>
2

>  <PUBCHEM_CACTVS_ROTATABLE_BOND>
2

>  <PUBCHEM_CACTVS_SUBSKEYS>
AAADceB4OAAAAAAAAAAAAAAAAAAAAAAAAAA0aIECAAAAAACRQAAAGgAACAAADESAmAAyBoAABgCIAqBSAAACCAAkIAAIiAEGiMgNJzaGNRqCeWOl4BULuQfK7PzO4QADCAAYQADCAAYQADCAAAAAAAAAAA==

>  <PUBCHEM_IUPAC_INCHI>
InChI=1S/C28H30O6/c1-14(2)7-8-17-23(30)26-16(10-12-28(5,6)34-26)20-24(31)21-19(32-25(17)20)13-18-15(22(21)29)9-11-27(3,4)33-18/h7,9,11,13,29-30H,8,10,12H2,1-6H3

>  <PUBCHEM_IUPAC_INCHIKEY>
CTTYZRNOKDZJRY-UHFFFAOYSA-N

>  <PUBCHEM_XLOGP3_AA>
6.6

>  <PUBCHEM_EXACT_MASS>
462.204

>  <PUBCHEM_MOLECULAR_FORMULA>
C28H30O6

>  <PUBCHEM_MOLECULAR_WEIGHT>
462.542

>  <PUBCHEM_OPENEYE_CAN_SMILES>
CC(=CCC1=C2C(=C3CCC(OC3=C1O)(C)C)C(=O)C4=C(C5=C(C=C4O2)OC(C=C5)(C)C)O)C

>  <PUBCHEM_OPENEYE_ISO_SMILES>
CC(=CCC1=C2C(=C3CCC(OC3=C1O)(C)C)C(=O)C4=C(C5=C(C=C4O2)OC(C=C5)(C)C)O)C

>  <PUBCHEM_CACTVS_TPSA>
85.2

>  <PUBCHEM_MONOISOTOPIC_WEIGHT>
462.204

>  <PUBCHEM_TOTAL_CHARGE>
0

>  <PUBCHEM_HEAVY_ATOM_COUNT>
34

>  <PUBCHEM_ATOM_DEF_STEREO_COUNT>
0

>  <PUBCHEM_ATOM_UDEF_STEREO_COUNT>
0

>  <PUBCHEM_BOND_DEF_STEREO_COUNT>
0

>  <PUBCHEM_BOND_UDEF_STEREO_COUNT>
0

>  <PUBCHEM_ISOTOPIC_ATOM_COUNT>
0

>  <PUBCHEM_COMPONENT_COUNT>
1

>  <PUBCHEM_CACTVS_TAUTO_COUNT>
57

>  <PUBCHEM_COORDINATE_TYPE>
1
5
255

>  <PUBCHEM_BONDANNOTATIONS>
10  11  8
10  12  8
11  17  8
12  15  8
12  18  8
15  16  8
16  17  8
18  19  8
19  20  8
19  22  8
2  15  8
2  20  8
20  26  8
22  23  8
23  25  8
25  26  8

$$$$
