21676157
 OpenBabel06101807152D

 59 62  0  0  0  0  0  0  0  0999 V2000
    3.9061   -0.1897    0.0000 O   0  0  0  0  0  0  0  0  0  0  0  0
    7.4260   -0.1897    0.0000 O   0  0  0  0  0  0  0  0  0  0  0  0
    5.6660    2.8450    0.0000 O   0  0  0  0  0  0  0  0  0  0  0  0
    9.1962    1.8692    0.0000 O   0  0  0  0  0  0  0  0  0  0  0  0
    7.4144    2.8796    0.0000 O   0  0  0  0  0  0  0  0  0  0  0  0
   10.0525   -2.6825    0.0000 O   0  0  0  0  0  0  0  0  0  0  0  0
   11.7884   -1.6892    0.0000 O   0  0  0  0  0  0  0  0  0  0  0  0
    3.0000    0.3242    0.0000 C   0  0  0  0  0  0  0  0  0  0  0  0
    4.8000    0.3450    0.0000 C   0  0  0  0  0  0  0  0  0  0  0  0
    5.6660   -0.1550    0.0000 C   0  0  0  0  0  0  0  0  0  0  0  0
    4.8000    1.3450    0.0000 C   0  0  0  0  0  0  0  0  0  0  0  0
    6.5320    0.3450    0.0000 C   0  0  0  0  0  0  0  0  0  0  0  0
    6.5320    1.3450    0.0000 C   0  0  0  0  0  0  0  0  0  0  0  0
    3.0000    1.3658    0.0000 C   0  0  0  0  0  0  0  0  0  0  0  0
    5.6660    1.8450    0.0000 C   0  0  0  0  0  0  0  0  0  0  0  0
    3.9061    1.8797    0.0000 C   0  0  0  0  0  0  0  0  0  0  0  0
    5.6660   -1.1550    0.0000 C   0  0  0  0  0  0  0  0  0  0  0  0
    2.0000    0.3203    0.0000 C   0  0  0  0  0  0  0  0  0  0  0  0
    2.5033   -0.5438    0.0000 C   0  0  0  0  0  0  0  0  0  0  0  0
    7.4260    1.8797    0.0000 C   0  0  0  0  0  0  0  0  0  0  0  0
    8.3321    0.3242    0.0000 C   0  0  0  0  0  0  0  0  0  0  0  0
    8.3321    1.3658    0.0000 C   0  0  0  0  0  0  0  0  0  0  0  0
    4.8000   -1.6550    0.0000 C   0  0  0  0  0  0  0  0  0  0  0  0
    9.1962   -0.1792    0.0000 C   0  0  0  0  0  0  0  0  0  0  0  0
    4.8000   -2.6550    0.0000 C   0  0  0  0  0  0  0  0  0  0  0  0
    9.1923   -1.1791    0.0000 C   0  0  0  0  0  0  0  0  0  0  0  0
   10.0641    0.3175    0.0000 C   0  0  0  0  0  0  0  0  0  0  0  0
    3.9340   -3.1550    0.0000 C   0  0  0  0  0  0  0  0  0  0  0  0
    5.6660   -3.1550    0.0000 C   0  0  0  0  0  0  0  0  0  0  0  0
   10.0564   -1.6825    0.0000 C   0  0  0  0  0  0  0  0  0  0  0  0
   10.9282   -0.1858    0.0000 C   0  0  0  0  0  0  0  0  0  0  0  0
    9.1923    2.8691    0.0000 C   0  0  0  0  0  0  0  0  0  0  0  0
   10.9243   -1.1858    0.0000 C   0  0  0  0  0  0  0  0  0  0  0  0
    2.4643    1.6779    0.0000 H   0  0  0  0  0  0  0  0  0  0  0  0
    3.9132    2.4996    0.0000 H   0  0  0  0  0  0  0  0  0  0  0  0
    5.8781   -1.7376    0.0000 H   0  0  0  0  0  0  0  0  0  0  0  0
    6.2766   -1.0473    0.0000 H   0  0  0  0  0  0  0  0  0  0  0  0
    1.9976    0.9403    0.0000 H   0  0  0  0  0  0  0  0  0  0  0  0
    1.3800    0.3179    0.0000 H   0  0  0  0  0  0  0  0  0  0  0  0
    2.0024   -0.2997    0.0000 H   0  0  0  0  0  0  0  0  0  0  0  0
    1.9652   -0.2358    0.0000 H   0  0  0  0  0  0  0  0  0  0  0  0
    2.1954   -1.0819    0.0000 H   0  0  0  0  0  0  0  0  0  0  0  0
    3.0415   -0.8517    0.0000 H   0  0  0  0  0  0  0  0  0  0  0  0
    4.2631   -1.3450    0.0000 H   0  0  0  0  0  0  0  0  0  0  0  0
    5.1291    3.1550    0.0000 H   0  0  0  0  0  0  0  0  0  0  0  0
    8.6542   -1.4871    0.0000 H   0  0  0  0  0  0  0  0  0  0  0  0
   10.0665    0.9375    0.0000 H   0  0  0  0  0  0  0  0  0  0  0  0
    3.6240   -2.6181    0.0000 H   0  0  0  0  0  0  0  0  0  0  0  0
    5.3560   -3.6919    0.0000 H   0  0  0  0  0  0  0  0  0  0  0  0
    6.2030   -3.4650    0.0000 H   0  0  0  0  0  0  0  0  0  0  0  0
    5.9760   -2.6181    0.0000 H   0  0  0  0  0  0  0  0  0  0  0  0
    3.3970   -3.4650    0.0000 H   0  0  0  0  0  0  0  0  0  0  0  0
    4.2440   -3.6919    0.0000 H   0  0  0  0  0  0  0  0  0  0  0  0
   11.4663    0.1221    0.0000 H   0  0  0  0  0  0  0  0  0  0  0  0
    9.8123    2.8715    0.0000 H   0  0  0  0  0  0  0  0  0  0  0  0
    9.1899    3.4891    0.0000 H   0  0  0  0  0  0  0  0  0  0  0  0
    8.5723    2.8668    0.0000 H   0  0  0  0  0  0  0  0  0  0  0  0
   10.5883   -2.9945    0.0000 H   0  0  0  0  0  0  0  0  0  0  0  0
   12.3266   -1.3812    0.0000 H   0  0  0  0  0  0  0  0  0  0  0  0
  1  8  1  0  0  0  0
  1  9  1  0  0  0  0
  2 12  1  0  0  0  0
  2 21  1  0  0  0  0
  3 15  1  0  0  0  0
  3 45  1  0  0  0  0
  4 22  1  0  0  0  0
  4 32  1  0  0  0  0
  5 20  2  0  0  0  0
  6 30  1  0  0  0  0
  6 58  1  0  0  0  0
  7 33  1  0  0  0  0
  7 59  1  0  0  0  0
  8 14  1  0  0  0  0
  8 18  1  0  0  0  0
  8 19  1  0  0  0  0
  9 10  2  0  0  0  0
  9 11  1  0  0  0  0
 10 12  1  0  0  0  0
 10 17  1  0  0  0  0
 11 15  2  0  0  0  0
 11 16  1  0  0  0  0
 12 13  2  0  0  0  0
 13 15  1  0  0  0  0
 13 20  1  0  0  0  0
 14 16  2  0  0  0  0
 14 34  1  0  0  0  0
 16 35  1  0  0  0  0
 17 23  1  0  0  0  0
 17 36  1  0  0  0  0
 17 37  1  0  0  0  0
 18 38  1  0  0  0  0
 18 39  1  0  0  0  0
 18 40  1  0  0  0  0
 19 41  1  0  0  0  0
 19 42  1  0  0  0  0
 19 43  1  0  0  0  0
 20 22  1  0  0  0  0
 21 22  2  0  0  0  0
 21 24  1  0  0  0  0
 23 25  2  0  0  0  0
 23 44  1  0  0  0  0
 24 26  2  0  0  0  0
 24 27  1  0  0  0  0
 25 28  1  0  0  0  0
 25 29  1  0  0  0  0
 26 30  1  0  0  0  0
 26 46  1  0  0  0  0
 27 31  2  0  0  0  0
 27 47  1  0  0  0  0
 28 48  1  0  0  0  0
 28 52  1  0  0  0  0
 28 53  1  0  0  0  0
 29 49  1  0  0  0  0
 29 50  1  0  0  0  0
 29 51  1  0  0  0  0
 30 33  2  0  0  0  0
 31 33  1  0  0  0  0
 31 54  1  0  0  0  0
 32 55  1  0  0  0  0
 32 56  1  0  0  0  0
 32 57  1  0  0  0  0
M  END
>  <PUBCHEM_COMPOUND_CID>
21676157

>  <PUBCHEM_COMPOUND_CANONICALIZED>
1

>  <PUBCHEM_CACTVS_COMPLEXITY>
853

>  <PUBCHEM_CACTVS_HBOND_ACCEPTOR>
7

>  <PUBCHEM_CACTVS_HBOND_DONOR>
3

>  <PUBCHEM_CACTVS_ROTATABLE_BOND>
4

>  <PUBCHEM_CACTVS_SUBSKEYS>
AAADceB4OAAAAAAAAAAAAAAAAAAAAAAAAAAwYIEAAAAAAACBQAAAGgAACAAADESAmAIyBoAABgCIAqBSAAICCAAkIAAIiAFGiMgNJzaGNR6CeWGl4BUJuQfI7PzOIAADCAAIQABAAAYQABCAAAAAAAAAAA==

>  <PUBCHEM_IUPAC_OPENEYE_NAME>
8-(3,4-dihydroxyphenyl)-5-hydroxy-7-methoxy-2,2-dimethyl-10-(3-methylbut-2-enyl)pyrano[3,2-g]chromen-6-one

>  <PUBCHEM_IUPAC_CAS_NAME>
8-(3,4-dihydroxyphenyl)-5-hydroxy-7-methoxy-2,2-dimethyl-10-(3-methylbut-2-enyl)-6-pyrano[3,2-g][1]benzopyranone

>  <PUBCHEM_IUPAC_NAME>
8-(3,4-dihydroxyphenyl)-5-hydroxy-7-methoxy-2,2-dimethyl-10-(3-methylbut-2-enyl)pyrano[3,2-g]chromen-6-one

>  <PUBCHEM_IUPAC_SYSTEMATIC_NAME>
8-[3,4-bis(oxidanyl)phenyl]-7-methoxy-2,2-dimethyl-10-(3-methylbut-2-enyl)-5-oxidanyl-pyrano[3,2-g]chromen-6-one

>  <PUBCHEM_IUPAC_TRADITIONAL_NAME>
8-(3,4-dihydroxyphenyl)-5-hydroxy-7-methoxy-2,2-dimethyl-10-(3-methylbut-2-enyl)pyrano[3,2-g]chromen-6-one

>  <PUBCHEM_IUPAC_INCHI>
InChI=1S/C26H26O7/c1-13(2)6-8-16-23-15(10-11-26(3,4)33-23)20(29)19-21(30)25(31-5)22(32-24(16)19)14-7-9-17(27)18(28)12-14/h6-7,9-12,27-29H,8H2,1-5H3

>  <PUBCHEM_IUPAC_INCHIKEY>
TZNGSVFGJAHTSV-UHFFFAOYSA-N

>  <PUBCHEM_XLOGP3_AA>
5.7

>  <PUBCHEM_EXACT_MASS>
450.168

>  <PUBCHEM_MOLECULAR_FORMULA>
C26H26O7

>  <PUBCHEM_MOLECULAR_WEIGHT>
450.487

>  <PUBCHEM_OPENEYE_CAN_SMILES>
CC(=CCC1=C2C(=C(C3=C1OC(=C(C3=O)OC)C4=CC(=C(C=C4)O)O)O)C=CC(O2)(C)C)C

>  <PUBCHEM_OPENEYE_ISO_SMILES>
CC(=CCC1=C2C(=C(C3=C1OC(=C(C3=O)OC)C4=CC(=C(C=C4)O)O)O)C=CC(O2)(C)C)C

>  <PUBCHEM_CACTVS_TPSA>
105

>  <PUBCHEM_MONOISOTOPIC_WEIGHT>
450.168

>  <PUBCHEM_TOTAL_CHARGE>
0

>  <PUBCHEM_HEAVY_ATOM_COUNT>
33

>  <PUBCHEM_ATOM_DEF_STEREO_COUNT>
0

>  <PUBCHEM_ATOM_UDEF_STEREO_COUNT>
0

>  <PUBCHEM_BOND_DEF_STEREO_COUNT>
0

>  <PUBCHEM_BOND_UDEF_STEREO_COUNT>
0

>  <PUBCHEM_ISOTOPIC_ATOM_COUNT>
0

>  <PUBCHEM_COMPONENT_COUNT>
1

>  <PUBCHEM_CACTVS_TAUTO_COUNT>
68

>  <PUBCHEM_COORDINATE_TYPE>
1
5
255

>  <PUBCHEM_BONDANNOTATIONS>
10  12  8
11  15  8
12  13  8
13  15  8
13  20  8
2  12  8
2  21  8
20  22  8
21  22  8
24  26  8
24  27  8
26  30  8
27  31  8
30  33  8
31  33  8
9  10  8
9  11  8

$$$$
