21680430
 OpenBabel06101807152D

 42 43  0  0  0  0  0  0  0  0999 V2000
    2.8660   -1.0950    0.0000 O   0  0  0  0  0  0  0  0  0  0  0  0
    7.1962    0.4050    0.0000 O   0  0  0  0  0  0  0  0  0  0  0  0
    8.9282    3.4050    0.0000 O   0  0  0  0  0  0  0  0  0  0  0  0
    6.3301   -1.0950    0.0000 O   0  0  0  0  0  0  0  0  0  0  0  0
    4.5981   -4.0950    0.0000 O   0  0  0  0  0  0  0  0  0  0  0  0
    3.7320    0.4050    0.0000 O   0  0  0  0  0  0  0  0  0  0  0  0
    4.5981   -1.0950    0.0000 C   0  0  0  0  0  0  0  0  0  0  0  0
    6.3301    1.9050    0.0000 C   0  0  0  0  0  0  0  0  0  0  0  0
    3.7320   -1.5950    0.0000 C   0  0  0  0  0  0  0  0  0  0  0  0
    7.1962    1.4050    0.0000 C   0  0  0  0  0  0  0  0  0  0  0  0
    5.4641   -1.5950    0.0000 C   0  0  0  0  0  0  0  0  0  0  0  0
    4.5981   -0.0950    0.0000 C   0  0  0  0  0  0  0  0  0  0  0  0
    5.4641    1.4050    0.0000 C   0  0  0  0  0  0  0  0  0  0  0  0
    6.3301    2.9050    0.0000 C   0  0  0  0  0  0  0  0  0  0  0  0
    5.4641    0.4050    0.0000 C   0  0  0  0  0  0  0  0  0  0  0  0
    8.0622    1.9050    0.0000 C   0  0  0  0  0  0  0  0  0  0  0  0
    3.7320   -2.5950    0.0000 C   0  0  0  0  0  0  0  0  0  0  0  0
    8.0622    2.9050    0.0000 C   0  0  0  0  0  0  0  0  0  0  0  0
    5.4641   -2.5950    0.0000 C   0  0  0  0  0  0  0  0  0  0  0  0
    7.1962    3.4050    0.0000 C   0  0  0  0  0  0  0  0  0  0  0  0
    4.5981   -3.0950    0.0000 C   0  0  0  0  0  0  0  0  0  0  0  0
    2.0000   -1.5950    0.0000 C   0  0  0  0  0  0  0  0  0  0  0  0
    8.0622   -0.0950    0.0000 C   0  0  0  0  0  0  0  0  0  0  0  0
    8.9282    4.4050    0.0000 C   0  0  0  0  0  0  0  0  0  0  0  0
    4.9272    1.7150    0.0000 H   0  0  0  0  0  0  0  0  0  0  0  0
    5.7932    3.2150    0.0000 H   0  0  0  0  0  0  0  0  0  0  0  0
    6.0010    0.0950    0.0000 H   0  0  0  0  0  0  0  0  0  0  0  0
    8.5991    1.5950    0.0000 H   0  0  0  0  0  0  0  0  0  0  0  0
    3.1951   -2.9050    0.0000 H   0  0  0  0  0  0  0  0  0  0  0  0
    6.0010   -2.9050    0.0000 H   0  0  0  0  0  0  0  0  0  0  0  0
    7.1962    4.0250    0.0000 H   0  0  0  0  0  0  0  0  0  0  0  0
    6.8671   -1.4050    0.0000 H   0  0  0  0  0  0  0  0  0  0  0  0
    1.6900   -1.0581    0.0000 H   0  0  0  0  0  0  0  0  0  0  0  0
    1.4631   -1.9050    0.0000 H   0  0  0  0  0  0  0  0  0  0  0  0
    2.3100   -2.1319    0.0000 H   0  0  0  0  0  0  0  0  0  0  0  0
    7.7522   -0.6319    0.0000 H   0  0  0  0  0  0  0  0  0  0  0  0
    8.5991   -0.4050    0.0000 H   0  0  0  0  0  0  0  0  0  0  0  0
    8.3722    0.4419    0.0000 H   0  0  0  0  0  0  0  0  0  0  0  0
    5.1350   -4.4050    0.0000 H   0  0  0  0  0  0  0  0  0  0  0  0
    9.5482    4.4050    0.0000 H   0  0  0  0  0  0  0  0  0  0  0  0
    8.9282    5.0250    0.0000 H   0  0  0  0  0  0  0  0  0  0  0  0
    8.3082    4.4050    0.0000 H   0  0  0  0  0  0  0  0  0  0  0  0
  1  9  1  0  0  0  0
  1 22  1  0  0  0  0
  2 10  1  0  0  0  0
  2 23  1  0  0  0  0
  3 18  1  0  0  0  0
  3 24  1  0  0  0  0
  4 11  1  0  0  0  0
  4 32  1  0  0  0  0
  5 21  1  0  0  0  0
  5 39  1  0  0  0  0
  6 12  2  0  0  0  0
  7  9  1  0  0  0  0
  7 11  2  0  0  0  0
  7 12  1  0  0  0  0
  8 10  2  0  0  0  0
  8 13  1  0  0  0  0
  8 14  1  0  0  0  0
  9 17  2  0  0  0  0
 10 16  1  0  0  0  0
 11 19  1  0  0  0  0
 12 15  1  0  0  0  0
 13 15  2  0  0  0  0
 13 25  1  0  0  0  0
 14 20  2  0  0  0  0
 14 26  1  0  0  0  0
 15 27  1  0  0  0  0
 16 18  2  0  0  0  0
 16 28  1  0  0  0  0
 17 21  1  0  0  0  0
 17 29  1  0  0  0  0
 18 20  1  0  0  0  0
 19 21  2  0  0  0  0
 19 30  1  0  0  0  0
 20 31  1  0  0  0  0
 22 33  1  0  0  0  0
 22 34  1  0  0  0  0
 22 35  1  0  0  0  0
 23 36  1  0  0  0  0
 23 37  1  0  0  0  0
 23 38  1  0  0  0  0
 24 40  1  0  0  0  0
 24 41  1  0  0  0  0
 24 42  1  0  0  0  0
M  END
>  <PUBCHEM_COMPOUND_CID>
21680430

>  <PUBCHEM_COMPOUND_CANONICALIZED>
1

>  <PUBCHEM_CACTVS_COMPLEXITY>
437

>  <PUBCHEM_CACTVS_HBOND_ACCEPTOR>
6

>  <PUBCHEM_CACTVS_HBOND_DONOR>
2

>  <PUBCHEM_CACTVS_ROTATABLE_BOND>
6

>  <PUBCHEM_CACTVS_SUBSKEYS>
AAADceB4OAAAAAAAAAAAAAAAAAAAAAAAAAAwYAAAAAAAAAABQAAAGgAACAAADASAmAIyBoAABgCIAqBSAAACCAAkIAAIiAEGCMgMJzaGNRqAcWAl4BUIuYeI7KzOIAAACAAIAABAAAAQABAAAAAAAAAAAA==

>  <PUBCHEM_IUPAC_OPENEYE_NAME>
(E)-1-(2,4-dihydroxy-6-methoxy-phenyl)-3-(2,4-dimethoxyphenyl)prop-2-en-1-one

>  <PUBCHEM_IUPAC_CAS_NAME>
(E)-1-(2,4-dihydroxy-6-methoxyphenyl)-3-(2,4-dimethoxyphenyl)-2-propen-1-one

>  <PUBCHEM_IUPAC_NAME>
(E)-1-(2,4-dihydroxy-6-methoxyphenyl)-3-(2,4-dimethoxyphenyl)prop-2-en-1-one

>  <PUBCHEM_IUPAC_SYSTEMATIC_NAME>
(E)-3-(2,4-dimethoxyphenyl)-1-[2-methoxy-4,6-bis(oxidanyl)phenyl]prop-2-en-1-one

>  <PUBCHEM_IUPAC_TRADITIONAL_NAME>
(E)-1-(2,4-dihydroxy-6-methoxy-phenyl)-3-(2,4-dimethoxyphenyl)prop-2-en-1-one

>  <PUBCHEM_IUPAC_INCHI>
InChI=1S/C18H18O6/c1-22-13-6-4-11(16(10-13)23-2)5-7-14(20)18-15(21)8-12(19)9-17(18)24-3/h4-10,19,21H,1-3H3/b7-5+

>  <PUBCHEM_IUPAC_INCHIKEY>
CWMMCBXYWVPWJL-FNORWQNLSA-N

>  <PUBCHEM_XLOGP3_AA>
3.4

>  <PUBCHEM_EXACT_MASS>
330.11

>  <PUBCHEM_MOLECULAR_FORMULA>
C18H18O6

>  <PUBCHEM_MOLECULAR_WEIGHT>
330.336

>  <PUBCHEM_OPENEYE_CAN_SMILES>
COC1=CC(=C(C=C1)C=CC(=O)C2=C(C=C(C=C2OC)O)O)OC

>  <PUBCHEM_OPENEYE_ISO_SMILES>
COC1=CC(=C(C=C1)/C=C/C(=O)C2=C(C=C(C=C2OC)O)O)OC

>  <PUBCHEM_CACTVS_TPSA>
85.2

>  <PUBCHEM_MONOISOTOPIC_WEIGHT>
330.11

>  <PUBCHEM_TOTAL_CHARGE>
0

>  <PUBCHEM_HEAVY_ATOM_COUNT>
24

>  <PUBCHEM_ATOM_DEF_STEREO_COUNT>
0

>  <PUBCHEM_ATOM_UDEF_STEREO_COUNT>
0

>  <PUBCHEM_BOND_DEF_STEREO_COUNT>
1

>  <PUBCHEM_BOND_UDEF_STEREO_COUNT>
0

>  <PUBCHEM_ISOTOPIC_ATOM_COUNT>
0

>  <PUBCHEM_COMPONENT_COUNT>
1

>  <PUBCHEM_CACTVS_TAUTO_COUNT>
12

>  <PUBCHEM_COORDINATE_TYPE>
1
5
255

>  <PUBCHEM_BONDANNOTATIONS>
10  16  8
11  19  8
14  20  8
16  18  8
17  21  8
18  20  8
19  21  8
7  11  8
7  9  8
8  10  8
8  14  8
9  17  8

$$$$
