21721909
 OpenBabel06101807152D

 56 58  0  0  0  0  0  0  0  0999 V2000
    6.0682   -2.6900    0.0000 O   0  0  0  0  0  0  0  0  0  0  0  0
    6.0682    0.3100    0.0000 O   0  0  0  0  0  0  0  0  0  0  0  0
    6.9343   -4.1900    0.0000 O   0  0  0  0  0  0  0  0  0  0  0  0
    2.5381   -2.7142    0.0000 O   0  0  0  0  0  0  0  0  0  0  0  0
   10.3984   -4.1900    0.0000 O   0  0  0  0  0  0  0  0  0  0  0  0
    6.9343   -1.1900    0.0000 C   0  0  0  0  0  0  0  0  0  0  0  0
    7.8003   -0.6900    0.0000 C   0  0  0  0  0  0  0  0  0  0  0  0
    6.9343   -2.1900    0.0000 C   0  0  0  0  0  0  0  0  0  0  0  0
    8.6663    0.8100    0.0000 C   0  0  0  0  0  0  0  0  0  0  0  0
    8.6663    1.8100    0.0000 C   0  0  0  0  0  0  0  0  0  0  0  0
    7.8003    0.3100    0.0000 C   0  0  0  0  0  0  0  0  0  0  0  0
    6.0682   -0.6900    0.0000 C   0  0  0  0  0  0  0  0  0  0  0  0
    5.2022   -1.1900    0.0000 C   0  0  0  0  0  0  0  0  0  0  0  0
    5.2022   -2.1900    0.0000 C   0  0  0  0  0  0  0  0  0  0  0  0
    9.5323    2.3100    0.0000 C   0  0  0  0  0  0  0  0  0  0  0  0
    7.8003   -2.6900    0.0000 C   0  0  0  0  0  0  0  0  0  0  0  0
    9.5323    0.3100    0.0000 C   0  0  0  0  0  0  0  0  0  0  0  0
    4.3083   -0.6553    0.0000 C   0  0  0  0  0  0  0  0  0  0  0  0
    4.3083   -2.7247    0.0000 C   0  0  0  0  0  0  0  0  0  0  0  0
    9.5323    3.3100    0.0000 C   0  0  0  0  0  0  0  0  0  0  0  0
    7.8003   -3.6900    0.0000 C   0  0  0  0  0  0  0  0  0  0  0  0
    8.6663   -2.1900    0.0000 C   0  0  0  0  0  0  0  0  0  0  0  0
    3.4022   -2.2108    0.0000 C   0  0  0  0  0  0  0  0  0  0  0  0
    3.4022   -1.1692    0.0000 C   0  0  0  0  0  0  0  0  0  0  0  0
   10.3984    3.8100    0.0000 C   0  0  0  0  0  0  0  0  0  0  0  0
    8.6663   -4.1900    0.0000 C   0  0  0  0  0  0  0  0  0  0  0  0
    9.5323   -2.6900    0.0000 C   0  0  0  0  0  0  0  0  0  0  0  0
    9.5323   -3.6900    0.0000 C   0  0  0  0  0  0  0  0  0  0  0  0
   10.3984    4.8100    0.0000 C   0  0  0  0  0  0  0  0  0  0  0  0
   11.2644    3.3100    0.0000 C   0  0  0  0  0  0  0  0  0  0  0  0
    8.0124   -1.2726    0.0000 H   0  0  0  0  0  0  0  0  0  0  0  0
    8.4109   -0.5823    0.0000 H   0  0  0  0  0  0  0  0  0  0  0  0
    8.4543    2.3926    0.0000 H   0  0  0  0  0  0  0  0  0  0  0  0
    8.0558    1.7023    0.0000 H   0  0  0  0  0  0  0  0  0  0  0  0
    7.2634    0.6200    0.0000 H   0  0  0  0  0  0  0  0  0  0  0  0
    9.7444    1.7274    0.0000 H   0  0  0  0  0  0  0  0  0  0  0  0
   10.1429    2.4177    0.0000 H   0  0  0  0  0  0  0  0  0  0  0  0
    9.2224   -0.2269    0.0000 H   0  0  0  0  0  0  0  0  0  0  0  0
   10.0693    0.0000    0.0000 H   0  0  0  0  0  0  0  0  0  0  0  0
    9.8424    0.8469    0.0000 H   0  0  0  0  0  0  0  0  0  0  0  0
    4.3154   -0.0354    0.0000 H   0  0  0  0  0  0  0  0  0  0  0  0
    4.3154   -3.3446    0.0000 H   0  0  0  0  0  0  0  0  0  0  0  0
    8.9954    3.6200    0.0000 H   0  0  0  0  0  0  0  0  0  0  0  0
    8.6663   -1.5700    0.0000 H   0  0  0  0  0  0  0  0  0  0  0  0
    2.8665   -0.8571    0.0000 H   0  0  0  0  0  0  0  0  0  0  0  0
    8.6663   -4.8100    0.0000 H   0  0  0  0  0  0  0  0  0  0  0  0
   10.0693   -2.3800    0.0000 H   0  0  0  0  0  0  0  0  0  0  0  0
   11.0184    4.8100    0.0000 H   0  0  0  0  0  0  0  0  0  0  0  0
   10.9544    2.7731    0.0000 H   0  0  0  0  0  0  0  0  0  0  0  0
   11.8013    3.0000    0.0000 H   0  0  0  0  0  0  0  0  0  0  0  0
   11.5744    3.8469    0.0000 H   0  0  0  0  0  0  0  0  0  0  0  0
   10.3984    5.4300    0.0000 H   0  0  0  0  0  0  0  0  0  0  0  0
    9.7784    4.8100    0.0000 H   0  0  0  0  0  0  0  0  0  0  0  0
    6.9343   -4.8100    0.0000 H   0  0  0  0  0  0  0  0  0  0  0  0
    2.0000   -2.4062    0.0000 H   0  0  0  0  0  0  0  0  0  0  0  0
   10.9353   -3.8800    0.0000 H   0  0  0  0  0  0  0  0  0  0  0  0
  1  8  1  0  0  0  0
  1 14  1  0  0  0  0
  2 12  2  0  0  0  0
  3 21  1  0  0  0  0
  3 54  1  0  0  0  0
  4 23  1  0  0  0  0
  4 55  1  0  0  0  0
  5 28  1  0  0  0  0
  5 56  1  0  0  0  0
  6  7  1  0  0  0  0
  6  8  2  0  0  0  0
  6 12  1  0  0  0  0
  7 11  1  0  0  0  0
  7 31  1  0  0  0  0
  7 32  1  0  0  0  0
  8 16  1  0  0  0  0
  9 10  1  0  0  0  0
  9 11  2  0  0  0  0
  9 17  1  0  0  0  0
 10 15  1  0  0  0  0
 10 33  1  0  0  0  0
 10 34  1  0  0  0  0
 11 35  1  0  0  0  0
 12 13  1  0  0  0  0
 13 14  2  0  0  0  0
 13 18  1  0  0  0  0
 14 19  1  0  0  0  0
 15 20  1  0  0  0  0
 15 36  1  0  0  0  0
 15 37  1  0  0  0  0
 16 21  2  0  0  0  0
 16 22  1  0  0  0  0
 17 38  1  0  0  0  0
 17 39  1  0  0  0  0
 17 40  1  0  0  0  0
 18 24  2  0  0  0  0
 18 41  1  0  0  0  0
 19 23  2  0  0  0  0
 19 42  1  0  0  0  0
 20 25  2  0  0  0  0
 20 43  1  0  0  0  0
 21 26  1  0  0  0  0
 22 27  2  0  0  0  0
 22 44  1  0  0  0  0
 23 24  1  0  0  0  0
 24 45  1  0  0  0  0
 25 29  1  0  0  0  0
 25 30  1  0  0  0  0
 26 28  2  0  0  0  0
 26 46  1  0  0  0  0
 27 28  1  0  0  0  0
 27 47  1  0  0  0  0
 29 48  1  0  0  0  0
 29 52  1  0  0  0  0
 29 53  1  0  0  0  0
 30 49  1  0  0  0  0
 30 50  1  0  0  0  0
 30 51  1  0  0  0  0
M  END
>  <PUBCHEM_COMPOUND_CID>
21721909

>  <PUBCHEM_COMPOUND_CANONICALIZED>
1

>  <PUBCHEM_CACTVS_COMPLEXITY>
715

>  <PUBCHEM_CACTVS_HBOND_ACCEPTOR>
5

>  <PUBCHEM_CACTVS_HBOND_DONOR>
3

>  <PUBCHEM_CACTVS_ROTATABLE_BOND>
6

>  <PUBCHEM_CACTVS_SUBSKEYS>
AAADceB4OAAAAAAAAAAAAAAAAAAAAAAAAAAwYIAAAAAAAACBQAAAGgAACAAADASAmAAyBoAABgCIAqBSAAACCAAkIAAIiAEGCMgMJzaGNRqCeWCl4BUIuYeI7KzOIAAACAAIAABAAAAQABAAAAAAAAAAAA==

>  <PUBCHEM_IUPAC_OPENEYE_NAME>
2-(2,4-dihydroxyphenyl)-3-[(2E)-3,7-dimethylocta-2,6-dienyl]-7-hydroxy-chromen-4-one

>  <PUBCHEM_IUPAC_CAS_NAME>
2-(2,4-dihydroxyphenyl)-3-[(2E)-3,7-dimethylocta-2,6-dienyl]-7-hydroxy-1-benzopyran-4-one

>  <PUBCHEM_IUPAC_NAME>
2-(2,4-dihydroxyphenyl)-3-[(2E)-3,7-dimethylocta-2,6-dienyl]-7-hydroxychromen-4-one

>  <PUBCHEM_IUPAC_SYSTEMATIC_NAME>
2-[2,4-bis(oxidanyl)phenyl]-3-[(2E)-3,7-dimethylocta-2,6-dienyl]-7-oxidanyl-chromen-4-one

>  <PUBCHEM_IUPAC_TRADITIONAL_NAME>
2-(2,4-dihydroxyphenyl)-3-[(2E)-3,7-dimethylocta-2,6-dienyl]-7-hydroxy-chromone

>  <PUBCHEM_IUPAC_INCHI>
InChI=1S/C25H26O5/c1-15(2)5-4-6-16(3)7-10-21-24(29)20-12-9-18(27)14-23(20)30-25(21)19-11-8-17(26)13-22(19)28/h5,7-9,11-14,26-28H,4,6,10H2,1-3H3/b16-7+

>  <PUBCHEM_IUPAC_INCHIKEY>
VEQHJLTWOODSMA-FRKPEAEDSA-N

>  <PUBCHEM_XLOGP3_AA>
5.9

>  <PUBCHEM_EXACT_MASS>
406.178

>  <PUBCHEM_MOLECULAR_FORMULA>
C25H26O5

>  <PUBCHEM_MOLECULAR_WEIGHT>
406.478

>  <PUBCHEM_OPENEYE_CAN_SMILES>
CC(=CCCC(=CCC1=C(OC2=C(C1=O)C=CC(=C2)O)C3=C(C=C(C=C3)O)O)C)C

>  <PUBCHEM_OPENEYE_ISO_SMILES>
CC(=CCC/C(=C/CC1=C(OC2=C(C1=O)C=CC(=C2)O)C3=C(C=C(C=C3)O)O)/C)C

>  <PUBCHEM_CACTVS_TPSA>
87

>  <PUBCHEM_MONOISOTOPIC_WEIGHT>
406.178

>  <PUBCHEM_TOTAL_CHARGE>
0

>  <PUBCHEM_HEAVY_ATOM_COUNT>
30

>  <PUBCHEM_ATOM_DEF_STEREO_COUNT>
0

>  <PUBCHEM_ATOM_UDEF_STEREO_COUNT>
0

>  <PUBCHEM_BOND_DEF_STEREO_COUNT>
1

>  <PUBCHEM_BOND_UDEF_STEREO_COUNT>
0

>  <PUBCHEM_ISOTOPIC_ATOM_COUNT>
0

>  <PUBCHEM_COMPONENT_COUNT>
1

>  <PUBCHEM_CACTVS_TAUTO_COUNT>
72

>  <PUBCHEM_COORDINATE_TYPE>
1
5
255

>  <PUBCHEM_BONDANNOTATIONS>
1  14  8
1  8  8
12  13  8
13  14  8
13  18  8
14  19  8
16  21  8
16  22  8
18  24  8
19  23  8
21  26  8
22  27  8
23  24  8
26  28  8
27  28  8
6  12  8
6  8  8

$$$$
