21722171
 OpenBabel06101807152D

 39 41  0  0  0  0  0  0  0  0999 V2000
   10.7404    0.6497    0.0000 O   0  0  0  0  0  0  0  0  0  0  0  0
   10.7404   -0.9597    0.0000 O   0  0  0  0  0  0  0  0  0  0  0  0
    3.7320    1.8450    0.0000 O   0  0  0  0  0  0  0  0  0  0  0  0
    2.0000   -1.1550    0.0000 O   0  0  0  0  0  0  0  0  0  0  0  0
    6.3301    0.3450    0.0000 C   0  0  0  0  0  0  0  0  0  0  0  0
    7.1962    0.8450    0.0000 C   0  0  0  0  0  0  0  0  0  0  0  0
    5.4641    0.8450    0.0000 C   0  0  0  0  0  0  0  0  0  0  0  0
    8.0622    0.3450    0.0000 C   0  0  0  0  0  0  0  0  0  0  0  0
    4.5981    0.3450    0.0000 C   0  0  0  0  0  0  0  0  0  0  0  0
    8.9282    0.8450    0.0000 C   0  0  0  0  0  0  0  0  0  0  0  0
    8.0622   -0.6550    0.0000 C   0  0  0  0  0  0  0  0  0  0  0  0
    9.7942    0.3450    0.0000 C   0  0  0  0  0  0  0  0  0  0  0  0
    9.7942   -0.6550    0.0000 C   0  0  0  0  0  0  0  0  0  0  0  0
    3.7320    0.8450    0.0000 C   0  0  0  0  0  0  0  0  0  0  0  0
    8.9282   -1.1550    0.0000 C   0  0  0  0  0  0  0  0  0  0  0  0
    4.5981   -0.6550    0.0000 C   0  0  0  0  0  0  0  0  0  0  0  0
   11.3241   -0.1550    0.0000 C   0  0  0  0  0  0  0  0  0  0  0  0
    2.8660    0.3450    0.0000 C   0  0  0  0  0  0  0  0  0  0  0  0
    3.7320   -1.1550    0.0000 C   0  0  0  0  0  0  0  0  0  0  0  0
    2.8660   -0.6550    0.0000 C   0  0  0  0  0  0  0  0  0  0  0  0
    2.0000   -2.1550    0.0000 C   0  0  0  0  0  0  0  0  0  0  0  0
    5.9316   -0.1299    0.0000 H   0  0  0  0  0  0  0  0  0  0  0  0
    6.7287   -0.1299    0.0000 H   0  0  0  0  0  0  0  0  0  0  0  0
    7.5947    1.3200    0.0000 H   0  0  0  0  0  0  0  0  0  0  0  0
    6.7976    1.3200    0.0000 H   0  0  0  0  0  0  0  0  0  0  0  0
    5.8626    1.3200    0.0000 H   0  0  0  0  0  0  0  0  0  0  0  0
    5.0656    1.3200    0.0000 H   0  0  0  0  0  0  0  0  0  0  0  0
    8.9282    1.4650    0.0000 H   0  0  0  0  0  0  0  0  0  0  0  0
    7.5252   -0.9650    0.0000 H   0  0  0  0  0  0  0  0  0  0  0  0
    8.9282   -1.7750    0.0000 H   0  0  0  0  0  0  0  0  0  0  0  0
    5.1350   -0.9650    0.0000 H   0  0  0  0  0  0  0  0  0  0  0  0
   11.7849   -0.5697    0.0000 H   0  0  0  0  0  0  0  0  0  0  0  0
   11.7849    0.2597    0.0000 H   0  0  0  0  0  0  0  0  0  0  0  0
    2.3291    0.6550    0.0000 H   0  0  0  0  0  0  0  0  0  0  0  0
    3.7320   -1.7750    0.0000 H   0  0  0  0  0  0  0  0  0  0  0  0
    3.1951    2.1550    0.0000 H   0  0  0  0  0  0  0  0  0  0  0  0
    1.3800   -2.1550    0.0000 H   0  0  0  0  0  0  0  0  0  0  0  0
    2.0000   -2.7750    0.0000 H   0  0  0  0  0  0  0  0  0  0  0  0
    2.6200   -2.1550    0.0000 H   0  0  0  0  0  0  0  0  0  0  0  0
  1 12  1  0  0  0  0
  1 17  1  0  0  0  0
  2 13  1  0  0  0  0
  2 17  1  0  0  0  0
  3 14  1  0  0  0  0
  3 36  1  0  0  0  0
  4 20  1  0  0  0  0
  4 21  1  0  0  0  0
  5  6  1  0  0  0  0
  5  7  1  0  0  0  0
  5 22  1  0  0  0  0
  5 23  1  0  0  0  0
  6  8  1  0  0  0  0
  6 24  1  0  0  0  0
  6 25  1  0  0  0  0
  7  9  1  0  0  0  0
  7 26  1  0  0  0  0
  7 27  1  0  0  0  0
  8 10  2  0  0  0  0
  8 11  1  0  0  0  0
  9 14  2  0  0  0  0
  9 16  1  0  0  0  0
 10 12  1  0  0  0  0
 10 28  1  0  0  0  0
 11 15  2  0  0  0  0
 11 29  1  0  0  0  0
 12 13  2  0  0  0  0
 13 15  1  0  0  0  0
 14 18  1  0  0  0  0
 15 30  1  0  0  0  0
 16 19  2  0  0  0  0
 16 31  1  0  0  0  0
 17 32  1  0  0  0  0
 17 33  1  0  0  0  0
 18 20  2  0  0  0  0
 18 34  1  0  0  0  0
 19 20  1  0  0  0  0
 19 35  1  0  0  0  0
 21 37  1  0  0  0  0
 21 38  1  0  0  0  0
 21 39  1  0  0  0  0
M  END
>  <PUBCHEM_COMPOUND_CID>
21722171

>  <PUBCHEM_COMPOUND_CANONICALIZED>
1

>  <PUBCHEM_CACTVS_COMPLEXITY>
322

>  <PUBCHEM_CACTVS_HBOND_ACCEPTOR>
4

>  <PUBCHEM_CACTVS_HBOND_DONOR>
1

>  <PUBCHEM_CACTVS_ROTATABLE_BOND>
5

>  <PUBCHEM_CACTVS_SUBSKEYS>
AAADceB4OAAAAAAAAAAAAAAAAAAAASAAAAAwYAAAAAAAAEgBQAAAGgAACAAADASAmAMyDoAABgCAAiBCAAACCAAgIAAIiAAGiIgdJyKGMRqgcCIlwBUOuAeA4PwOIAABCAAIQABAAAIQABCAAAAAAAAAAA==

>  <PUBCHEM_IUPAC_OPENEYE_NAME>
2-[3-(1,3-benzodioxol-5-yl)propyl]-5-methoxy-phenol

>  <PUBCHEM_IUPAC_CAS_NAME>
2-[3-(1,3-benzodioxol-5-yl)propyl]-5-methoxyphenol

>  <PUBCHEM_IUPAC_NAME>
2-[3-(1,3-benzodioxol-5-yl)propyl]-5-methoxyphenol

>  <PUBCHEM_IUPAC_SYSTEMATIC_NAME>
2-[3-(1,3-benzodioxol-5-yl)propyl]-5-methoxy-phenol

>  <PUBCHEM_IUPAC_TRADITIONAL_NAME>
2-[3-(1,3-benzodioxol-5-yl)propyl]-5-methoxy-phenol

>  <PUBCHEM_IUPAC_INCHI>
InChI=1S/C17H18O4/c1-19-14-7-6-13(15(18)10-14)4-2-3-12-5-8-16-17(9-12)21-11-20-16/h5-10,18H,2-4,11H2,1H3

>  <PUBCHEM_IUPAC_INCHIKEY>
NJMMBJPOBWRSGZ-UHFFFAOYSA-N

>  <PUBCHEM_XLOGP3_AA>
4.1

>  <PUBCHEM_EXACT_MASS>
286.121

>  <PUBCHEM_MOLECULAR_FORMULA>
C17H18O4

>  <PUBCHEM_MOLECULAR_WEIGHT>
286.327

>  <PUBCHEM_OPENEYE_CAN_SMILES>
COC1=CC(=C(C=C1)CCCC2=CC3=C(C=C2)OCO3)O

>  <PUBCHEM_OPENEYE_ISO_SMILES>
COC1=CC(=C(C=C1)CCCC2=CC3=C(C=C2)OCO3)O

>  <PUBCHEM_CACTVS_TPSA>
47.9

>  <PUBCHEM_MONOISOTOPIC_WEIGHT>
286.121

>  <PUBCHEM_TOTAL_CHARGE>
0

>  <PUBCHEM_HEAVY_ATOM_COUNT>
21

>  <PUBCHEM_ATOM_DEF_STEREO_COUNT>
0

>  <PUBCHEM_ATOM_UDEF_STEREO_COUNT>
0

>  <PUBCHEM_BOND_DEF_STEREO_COUNT>
0

>  <PUBCHEM_BOND_UDEF_STEREO_COUNT>
0

>  <PUBCHEM_ISOTOPIC_ATOM_COUNT>
0

>  <PUBCHEM_COMPONENT_COUNT>
1

>  <PUBCHEM_CACTVS_TAUTO_COUNT>
3

>  <PUBCHEM_COORDINATE_TYPE>
1
5
255

>  <PUBCHEM_BONDANNOTATIONS>
10  12  8
11  15  8
12  13  8
13  15  8
14  18  8
16  19  8
18  20  8
19  20  8
8  10  8
8  11  8
9  14  8
9  16  8

$$$$
