21728333
 OpenBabel06101807152D

 39 41  0  0  0  0  0  0  0  0999 V2000
    2.5381   -0.0411    0.0000 O   0  0  0  0  0  0  0  0  0  0  0  0
    8.7202    1.4799    0.0000 O   0  0  0  0  0  0  0  0  0  0  0  0
    5.1916    1.4593    0.0000 O   0  0  0  0  0  0  0  0  0  0  0  0
    6.9343   -1.5652    0.0000 C   0  0  0  0  0  0  0  0  0  0  0  0
    6.0682   -2.0652    0.0000 C   0  0  0  0  0  0  0  0  0  0  0  0
    6.9343   -0.5652    0.0000 C   0  0  0  0  0  0  0  0  0  0  0  0
    5.2022   -0.5652    0.0000 C   0  0  0  0  0  0  0  0  0  0  0  0
    5.2022   -1.5652    0.0000 C   0  0  0  0  0  0  0  0  0  0  0  0
    6.0682   -0.0652    0.0000 C   0  0  0  0  0  0  0  0  0  0  0  0
    4.3083   -0.0306    0.0000 C   0  0  0  0  0  0  0  0  0  0  0  0
    7.8443   -0.0584    0.0000 C   0  0  0  0  0  0  0  0  0  0  0  0
    4.3083   -2.0999    0.0000 C   0  0  0  0  0  0  0  0  0  0  0  0
    6.0522    0.9763    0.0000 C   0  0  0  0  0  0  0  0  0  0  0  0
    3.4022   -1.5860    0.0000 C   0  0  0  0  0  0  0  0  0  0  0  0
    3.4022   -0.5444    0.0000 C   0  0  0  0  0  0  0  0  0  0  0  0
    7.8523    0.9832    0.0000 C   0  0  0  0  0  0  0  0  0  0  0  0
    6.9502    1.5040    0.0000 C   0  0  0  0  0  0  0  0  0  0  0  0
    8.7045   -0.5684    0.0000 C   0  0  0  0  0  0  0  0  0  0  0  0
    4.3198    0.9694    0.0000 C   0  0  0  0  0  0  0  0  0  0  0  0
    2.5381   -2.0894    0.0000 C   0  0  0  0  0  0  0  0  0  0  0  0
    3.4597    1.4794    0.0000 C   0  0  0  0  0  0  0  0  0  0  0  0
    7.1463   -2.1478    0.0000 H   0  0  0  0  0  0  0  0  0  0  0  0
    7.5449   -1.4576    0.0000 H   0  0  0  0  0  0  0  0  0  0  0  0
    5.6697   -2.5402    0.0000 H   0  0  0  0  0  0  0  0  0  0  0  0
    6.4668   -2.5402    0.0000 H   0  0  0  0  0  0  0  0  0  0  0  0
    4.3154   -2.7198    0.0000 H   0  0  0  0  0  0  0  0  0  0  0  0
    5.5117    1.2801    0.0000 H   0  0  0  0  0  0  0  0  0  0  0  0
    6.9478    2.1240    0.0000 H   0  0  0  0  0  0  0  0  0  0  0  0
    8.3883   -1.1017    0.0000 H   0  0  0  0  0  0  0  0  0  0  0  0
    9.2378   -0.8845    0.0000 H   0  0  0  0  0  0  0  0  0  0  0  0
    9.0206   -0.0350    0.0000 H   0  0  0  0  0  0  0  0  0  0  0  0
    2.2261   -1.5536    0.0000 H   0  0  0  0  0  0  0  0  0  0  0  0
    2.0024   -2.4014    0.0000 H   0  0  0  0  0  0  0  0  0  0  0  0
    2.8502   -2.6251    0.0000 H   0  0  0  0  0  0  0  0  0  0  0  0
    3.7758    2.0127    0.0000 H   0  0  0  0  0  0  0  0  0  0  0  0
    2.9263    1.7955    0.0000 H   0  0  0  0  0  0  0  0  0  0  0  0
    3.1435    0.9460    0.0000 H   0  0  0  0  0  0  0  0  0  0  0  0
    2.0000   -0.3490    0.0000 H   0  0  0  0  0  0  0  0  0  0  0  0
    8.7226    2.0999    0.0000 H   0  0  0  0  0  0  0  0  0  0  0  0
  1 15  1  0  0  0  0
  1 38  1  0  0  0  0
  2 16  1  0  0  0  0
  2 39  1  0  0  0  0
  3 19  2  0  0  0  0
  4  5  1  0  0  0  0
  4  6  1  0  0  0  0
  4 22  1  0  0  0  0
  4 23  1  0  0  0  0
  5  8  1  0  0  0  0
  5 24  1  0  0  0  0
  5 25  1  0  0  0  0
  6  9  2  0  0  0  0
  6 11  1  0  0  0  0
  7  8  2  0  0  0  0
  7  9  1  0  0  0  0
  7 10  1  0  0  0  0
  8 12  1  0  0  0  0
  9 13  1  0  0  0  0
 10 15  2  0  0  0  0
 10 19  1  0  0  0  0
 11 16  2  0  0  0  0
 11 18  1  0  0  0  0
 12 14  2  0  0  0  0
 12 26  1  0  0  0  0
 13 17  2  0  0  0  0
 13 27  1  0  0  0  0
 14 15  1  0  0  0  0
 14 20  1  0  0  0  0
 16 17  1  0  0  0  0
 17 28  1  0  0  0  0
 18 29  1  0  0  0  0
 18 30  1  0  0  0  0
 18 31  1  0  0  0  0
 19 21  1  0  0  0  0
 20 32  1  0  0  0  0
 20 33  1  0  0  0  0
 20 34  1  0  0  0  0
 21 35  1  0  0  0  0
 21 36  1  0  0  0  0
 21 37  1  0  0  0  0
M  END
>  <PUBCHEM_COMPOUND_CID>
21728333

>  <PUBCHEM_COMPOUND_CANONICALIZED>
1

>  <PUBCHEM_CACTVS_COMPLEXITY>
407

>  <PUBCHEM_CACTVS_HBOND_ACCEPTOR>
3

>  <PUBCHEM_CACTVS_HBOND_DONOR>
2

>  <PUBCHEM_CACTVS_ROTATABLE_BOND>
1

>  <PUBCHEM_CACTVS_SUBSKEYS>
AAADceB4MAAAAAAAAAAAAAAAAAAAAAAAAAAwYMAAAAAAAADBQAAAGgAACAAADASAmAAyBoAAAgCIAqBSAAACAAAkIAAIiAEGCMgIJjaCFRKAcUAk4BEImQeIyPCO4AADAAAYAADAAAYAADAAAAAAAAAAAA==

>  <PUBCHEM_IUPAC_OPENEYE_NAME>
1-(3,7-dihydroxy-2,8-dimethyl-9,10-dihydrophenanthren-4-yl)ethanone

>  <PUBCHEM_IUPAC_CAS_NAME>
1-(3,7-dihydroxy-2,8-dimethyl-9,10-dihydrophenanthren-4-yl)ethanone

>  <PUBCHEM_IUPAC_NAME>
1-(3,7-dihydroxy-2,8-dimethyl-9,10-dihydrophenanthren-4-yl)ethanone

>  <PUBCHEM_IUPAC_SYSTEMATIC_NAME>
1-[2,8-dimethyl-3,7-bis(oxidanyl)-9,10-dihydrophenanthren-4-yl]ethanone

>  <PUBCHEM_IUPAC_TRADITIONAL_NAME>
1-(3,7-dihydroxy-2,8-dimethyl-9,10-dihydrophenanthren-4-yl)ethanone

>  <PUBCHEM_IUPAC_INCHI>
InChI=1S/C18H18O3/c1-9-8-12-4-5-13-10(2)15(20)7-6-14(13)17(12)16(11(3)19)18(9)21/h6-8,20-21H,4-5H2,1-3H3

>  <PUBCHEM_IUPAC_INCHIKEY>
KDADJLHRXRSXQU-UHFFFAOYSA-N

>  <PUBCHEM_XLOGP3_AA>
4.1

>  <PUBCHEM_EXACT_MASS>
282.126

>  <PUBCHEM_MOLECULAR_FORMULA>
C18H18O3

>  <PUBCHEM_MOLECULAR_WEIGHT>
282.339

>  <PUBCHEM_OPENEYE_CAN_SMILES>
CC1=C(C(=C2C(=C1)CCC3=C2C=CC(=C3C)O)C(=O)C)O

>  <PUBCHEM_OPENEYE_ISO_SMILES>
CC1=C(C(=C2C(=C1)CCC3=C2C=CC(=C3C)O)C(=O)C)O

>  <PUBCHEM_CACTVS_TPSA>
57.5

>  <PUBCHEM_MONOISOTOPIC_WEIGHT>
282.126

>  <PUBCHEM_TOTAL_CHARGE>
0

>  <PUBCHEM_HEAVY_ATOM_COUNT>
21

>  <PUBCHEM_ATOM_DEF_STEREO_COUNT>
0

>  <PUBCHEM_ATOM_UDEF_STEREO_COUNT>
0

>  <PUBCHEM_BOND_DEF_STEREO_COUNT>
0

>  <PUBCHEM_BOND_UDEF_STEREO_COUNT>
0

>  <PUBCHEM_ISOTOPIC_ATOM_COUNT>
0

>  <PUBCHEM_COMPONENT_COUNT>
1

>  <PUBCHEM_CACTVS_TAUTO_COUNT>
120

>  <PUBCHEM_COORDINATE_TYPE>
1
5
255

>  <PUBCHEM_BONDANNOTATIONS>
10  15  8
11  16  8
12  14  8
13  17  8
14  15  8
16  17  8
6  11  8
6  9  8
7  10  8
7  8  8
8  12  8
9  13  8

$$$$
