21721973
 OpenBabel06101807152D

 61 64  0  0  1  0  0  0  0  0999 V2000
    5.1350   -1.0846    0.0000 O   0  0  0  0  0  0  0  0  0  0  0  0
    5.1350   -4.0846    0.0000 O   0  0  0  0  0  0  0  0  0  0  0  0
    6.8671   -3.0846    0.0000 O   0  0  0  0  0  0  0  0  0  0  0  0
    3.4030   -3.0846    0.0000 O   0  0  0  0  0  0  0  0  0  0  0  0
    6.8671   -1.0846    0.0000 O   0  0  0  0  0  0  0  0  0  0  0  0
    2.5369   -1.5846    0.0000 O   0  0  0  0  0  0  0  0  0  0  0  0
    3.4030   -4.0846    0.0000 O   0  0  0  0  0  0  0  0  0  0  0  0
    6.0010   -4.5846    0.0000 O   0  0  0  0  0  0  0  0  0  0  0  0
    8.6230    1.9779    0.0000 O   0  0  0  0  0  0  0  0  0  0  0  0
    5.1208    1.9946    0.0000 O   0  0  0  0  0  0  0  0  0  0  0  0
    6.0308    3.4880    0.0000 O   0  0  0  0  0  0  0  0  0  0  0  0
   12.0987    4.9646    0.0000 O   0  0  0  0  0  0  0  0  0  0  0  0
    5.1350   -3.0846    0.0000 C   0  0  1  0  0  0  0  0  0  0  0  0
    4.2690   -2.5846    0.0000 C   0  0  1  0  0  0  0  0  0  0  0  0
    6.0010   -2.5846    0.0000 C   0  0  2  0  0  0  0  0  0  0  0  0
    4.2690   -1.5846    0.0000 C   0  0  1  0  0  0  0  0  0  0  0  0
    6.0010   -1.5846    0.0000 C   0  0  1  0  0  0  0  0  0  0  0  0
    3.4030   -1.0846    0.0000 C   0  0  0  0  0  0  0  0  0  0  0  0
    6.8671   -0.0846    0.0000 C   0  0  0  0  0  0  0  0  0  0  0  0
    4.2690   -4.5846    0.0000 C   0  0  0  0  0  0  0  0  0  0  0  0
    6.8671   -4.0846    0.0000 C   0  0  0  0  0  0  0  0  0  0  0  0
    7.7671    0.4397    0.0000 C   0  0  0  0  0  0  0  0  0  0  0  0
    5.9670    0.4397    0.0000 C   0  0  0  0  0  0  0  0  0  0  0  0
    4.2690   -5.5846    0.0000 C   0  0  0  0  0  0  0  0  0  0  0  0
    7.7551    1.4813    0.0000 C   0  0  0  0  0  0  0  0  0  0  0  0
    7.7331   -4.5846    0.0000 C   0  0  0  0  0  0  0  0  0  0  0  0
    6.8910    1.9846    0.0000 C   0  0  0  0  0  0  0  0  0  0  0  0
    5.9790    1.4813    0.0000 C   0  0  0  0  0  0  0  0  0  0  0  0
    6.8948    2.9846    0.0000 C   0  0  0  0  0  0  0  0  0  0  0  0
    8.6269    2.9779    0.0000 C   0  0  0  0  0  0  0  0  0  0  0  0
    7.7628    3.4813    0.0000 C   0  0  0  0  0  0  0  0  0  0  0  0
    9.4948    3.4746    0.0000 C   0  0  0  0  0  0  0  0  0  0  0  0
   10.3589    2.9713    0.0000 C   0  0  0  0  0  0  0  0  0  0  0  0
    9.4987    4.4746    0.0000 C   0  0  0  0  0  0  0  0  0  0  0  0
   11.2269    3.4679    0.0000 C   0  0  0  0  0  0  0  0  0  0  0  0
   10.3666    4.9713    0.0000 C   0  0  0  0  0  0  0  0  0  0  0  0
   11.2307    4.4679    0.0000 C   0  0  0  0  0  0  0  0  0  0  0  0
    5.6720   -3.3946    0.0000 H   0  0  0  0  0  0  0  0  0  0  0  0
    4.2690   -3.2046    0.0000 H   0  0  0  0  0  0  0  0  0  0  0  0
    6.5380   -2.2746    0.0000 H   0  0  0  0  0  0  0  0  0  0  0  0
    4.2690   -0.9646    0.0000 H   0  0  0  0  0  0  0  0  0  0  0  0
    6.0010   -0.9646    0.0000 H   0  0  0  0  0  0  0  0  0  0  0  0
    3.8015   -0.6096    0.0000 H   0  0  0  0  0  0  0  0  0  0  0  0
    3.0044   -0.6096    0.0000 H   0  0  0  0  0  0  0  0  0  0  0  0
    2.8660   -2.7746    0.0000 H   0  0  0  0  0  0  0  0  0  0  0  0
    2.0000   -1.2746    0.0000 H   0  0  0  0  0  0  0  0  0  0  0  0
    8.3064    0.1339    0.0000 H   0  0  0  0  0  0  0  0  0  0  0  0
    5.4277    0.1339    0.0000 H   0  0  0  0  0  0  0  0  0  0  0  0
    3.6490   -5.5846    0.0000 H   0  0  0  0  0  0  0  0  0  0  0  0
    4.2690   -6.2046    0.0000 H   0  0  0  0  0  0  0  0  0  0  0  0
    4.8890   -5.5846    0.0000 H   0  0  0  0  0  0  0  0  0  0  0  0
    7.4231   -5.1215    0.0000 H   0  0  0  0  0  0  0  0  0  0  0  0
    8.2700   -4.8946    0.0000 H   0  0  0  0  0  0  0  0  0  0  0  0
    8.0431   -4.0476    0.0000 H   0  0  0  0  0  0  0  0  0  0  0  0
    7.7652    4.1013    0.0000 H   0  0  0  0  0  0  0  0  0  0  0  0
    4.5792    1.6929    0.0000 H   0  0  0  0  0  0  0  0  0  0  0  0
   10.3565    2.3513    0.0000 H   0  0  0  0  0  0  0  0  0  0  0  0
    8.9630    4.7866    0.0000 H   0  0  0  0  0  0  0  0  0  0  0  0
   11.7626    3.1558    0.0000 H   0  0  0  0  0  0  0  0  0  0  0  0
   10.3690    5.5912    0.0000 H   0  0  0  0  0  0  0  0  0  0  0  0
   12.1011    5.5846    0.0000 H   0  0  0  0  0  0  0  0  0  0  0  0
  1 16  1  0  0  0  0
  1 17  1  0  0  0  0
  2 20  1  0  0  0  0
  3 21  1  0  0  0  0
  4 45  1  0  0  0  0
  5 19  1  0  0  0  0
  6 18  1  0  0  0  0
  6 46  1  0  0  0  0
  7 20  2  0  0  0  0
  8 21  2  0  0  0  0
  9 25  1  0  0  0  0
  9 30  1  0  0  0  0
 10 28  1  0  0  0  0
 10 56  1  0  0  0  0
 11 29  2  0  0  0  0
 12 37  1  0  0  0  0
 12 61  1  0  0  0  0
 13  2  1  0  0  0  0
 13 14  1  6  0  0  0
 13 38  1  0  0  0  0
 14  4  1  0  0  0  0
 14 16  1  1  0  0  0
 14 39  1  0  0  0  0
 15  3  1  0  0  0  0
 15 13  1  1  0  0  0
 15 40  1  0  0  0  0
 16 18  1  0  0  0  0
 16 41  1  6  0  0  0
 17  5  1  0  0  0  0
 17 15  1  6  0  0  0
 17 42  1  0  0  0  0
 18 43  1  0  0  0  0
 18 44  1  0  0  0  0
 19 22  1  0  0  0  0
 19 23  2  0  0  0  0
 20 24  1  0  0  0  0
 21 26  1  0  0  0  0
 22 25  2  0  0  0  0
 22 47  1  0  0  0  0
 23 28  1  0  0  0  0
 23 48  1  0  0  0  0
 24 49  1  0  0  0  0
 24 50  1  0  0  0  0
 24 51  1  0  0  0  0
 25 27  1  0  0  0  0
 26 52  1  0  0  0  0
 26 53  1  0  0  0  0
 26 54  1  0  0  0  0
 27 28  2  0  0  0  0
 27 29  1  0  0  0  0
 29 31  1  0  0  0  0
 30 31  2  0  0  0  0
 30 32  1  0  0  0  0
 31 55  1  0  0  0  0
 32 33  2  0  0  0  0
 32 34  1  0  0  0  0
 33 35  1  0  0  0  0
 33 57  1  0  0  0  0
 34 36  2  0  0  0  0
 34 58  1  0  0  0  0
 35 37  2  0  0  0  0
 35 59  1  0  0  0  0
 36 37  1  0  0  0  0
 36 60  1  0  0  0  0
M  END
>  <PUBCHEM_COMPOUND_CID>
21721973

>  <PUBCHEM_COMPOUND_CANONICALIZED>
1

>  <PUBCHEM_CACTVS_COMPLEXITY>
881

>  <PUBCHEM_CACTVS_HBOND_ACCEPTOR>
12

>  <PUBCHEM_CACTVS_HBOND_DONOR>
4

>  <PUBCHEM_CACTVS_ROTATABLE_BOND>
8

>  <PUBCHEM_CACTVS_SUBSKEYS>
AAADceB4PAAAAAAAAAAAAAAAAAAAAAAAAAA0YIEAAAAAAACBQAAAGgAACAAADBSwmAMyDoAABgCIAqDSCAACCAAkIAAIiAEGCMgdNzaGNRqieWCl4BUPuQfI7KzOIAAACAAIAABAAAAQABAAAAAAAAAAAA==

>  <PUBCHEM_IUPAC_OPENEYE_NAME>
[(2S,3R,4S,5R,6R)-3-acetoxy-5-hydroxy-2-[5-hydroxy-2-(4-hydroxyphenyl)-4-oxo-chromen-7-yl]oxy-6-(hydroxymethyl)tetrahydropyran-4-yl] acetate

>  <PUBCHEM_IUPAC_CAS_NAME>
acetic acid [(2S,3R,4S,5R,6R)-3-acetyloxy-5-hydroxy-2-[[5-hydroxy-2-(4-hydroxyphenyl)-4-oxo-1-benzopyran-7-yl]oxy]-6-(hydroxymethyl)-4-oxanyl] ester

>  <PUBCHEM_IUPAC_NAME>
[(2S,3R,4S,5R,6R)-3-acetyloxy-5-hydroxy-2-[5-hydroxy-2-(4-hydroxyphenyl)-4-oxochromen-7-yl]oxy-6-(hydroxymethyl)oxan-4-yl] acetate

>  <PUBCHEM_IUPAC_SYSTEMATIC_NAME>
[(2R,3R,4S,5R,6S)-5-acetyloxy-2-(hydroxymethyl)-6-[2-(4-hydroxyphenyl)-5-oxidanyl-4-oxidanylidene-chromen-7-yl]oxy-3-oxidanyl-oxan-4-yl] ethanoate

>  <PUBCHEM_IUPAC_TRADITIONAL_NAME>
acetic acid [(2S,3R,4S,5R,6R)-3-acetoxy-5-hydroxy-2-[5-hydroxy-2-(4-hydroxyphenyl)-4-keto-chromen-7-yl]oxy-6-methylol-tetrahydropyran-4-yl] ester

>  <PUBCHEM_IUPAC_INCHI>
InChI=1S/C25H24O12/c1-11(27)33-23-22(32)20(10-26)37-25(24(23)34-12(2)28)35-15-7-16(30)21-17(31)9-18(36-19(21)8-15)13-3-5-14(29)6-4-13/h3-9,20,22-26,29-30,32H,10H2,1-2H3/t20-,22-,23+,24-,25-/m1/s1

>  <PUBCHEM_IUPAC_INCHIKEY>
RLRNEHZJFFGOEN-PRDVQWLOSA-N

>  <PUBCHEM_XLOGP3>
1.1

>  <PUBCHEM_EXACT_MASS>
516.127

>  <PUBCHEM_MOLECULAR_FORMULA>
C25H24O12

>  <PUBCHEM_MOLECULAR_WEIGHT>
516.455

>  <PUBCHEM_OPENEYE_CAN_SMILES>
CC(=O)OC1C(C(OC(C1OC(=O)C)OC2=CC(=C3C(=C2)OC(=CC3=O)C4=CC=C(C=C4)O)O)CO)O

>  <PUBCHEM_OPENEYE_ISO_SMILES>
CC(=O)O[C@H]1[C@@H]([C@H](O[C@H]([C@@H]1OC(=O)C)OC2=CC(=C3C(=C2)OC(=CC3=O)C4=CC=C(C=C4)O)O)CO)O

>  <PUBCHEM_CACTVS_TPSA>
178

>  <PUBCHEM_MONOISOTOPIC_WEIGHT>
516.127

>  <PUBCHEM_TOTAL_CHARGE>
0

>  <PUBCHEM_HEAVY_ATOM_COUNT>
37

>  <PUBCHEM_ATOM_DEF_STEREO_COUNT>
5

>  <PUBCHEM_ATOM_UDEF_STEREO_COUNT>
0

>  <PUBCHEM_BOND_DEF_STEREO_COUNT>
0

>  <PUBCHEM_BOND_UDEF_STEREO_COUNT>
0

>  <PUBCHEM_ISOTOPIC_ATOM_COUNT>
0

>  <PUBCHEM_COMPONENT_COUNT>
1

>  <PUBCHEM_CACTVS_TAUTO_COUNT>
24

>  <PUBCHEM_COORDINATE_TYPE>
1
5
255

>  <PUBCHEM_BONDANNOTATIONS>
16  18  5
19  22  8
19  23  8
13  2  5
22  25  8
23  28  8
25  27  8
27  28  8
27  29  8
29  31  8
15  3  6
30  31  8
32  33  8
32  34  8
33  35  8
34  36  8
35  37  8
36  37  8
14  4  6
17  5  5
9  25  8
9  30  8

$$$$
