21780519
 OpenBabel06101807152D

 25 25  0  0  0  0  0  0  0  0999 V2000
    7.7331   -1.0600    0.0000 O   0  0  0  0  0  0  0  0  0  0  0  0
    3.4030   -1.5600    0.0000 O   0  0  0  0  0  0  0  0  0  0  0  0
    5.1350   -1.5600    0.0000 N   0  0  0  0  0  0  0  0  0  0  0  0
    5.1350    0.4400    0.0000 N   0  0  0  0  0  0  0  0  0  0  0  0
    3.4030    0.4400    0.0000 N   0  0  0  0  0  0  0  0  0  0  0  0
    2.5369    1.9400    0.0000 N   0  0  0  0  0  0  0  0  0  0  0  0
    4.2690    1.9400    0.0000 N   0  0  0  0  0  0  0  0  0  0  0  0
    6.0010   -1.0600    0.0000 C   0  0  0  0  0  0  0  0  0  0  0  0
    4.2690   -1.0600    0.0000 C   0  0  0  0  0  0  0  0  0  0  0  0
    6.8671   -1.5600    0.0000 C   0  0  0  0  0  0  0  0  0  0  0  0
    5.1350   -2.5600    0.0000 C   0  0  0  0  0  0  0  0  0  0  0  0
    6.0010   -0.0600    0.0000 C   0  0  0  0  0  0  0  0  0  0  0  0
    4.2690   -0.0600    0.0000 C   0  0  0  0  0  0  0  0  0  0  0  0
    3.4030    1.4400    0.0000 C   0  0  0  0  0  0  0  0  0  0  0  0
    6.4685   -2.0349    0.0000 H   0  0  0  0  0  0  0  0  0  0  0  0
    7.2656   -2.0349    0.0000 H   0  0  0  0  0  0  0  0  0  0  0  0
    4.5150   -2.5600    0.0000 H   0  0  0  0  0  0  0  0  0  0  0  0
    5.1350   -3.1800    0.0000 H   0  0  0  0  0  0  0  0  0  0  0  0
    5.7550   -2.5600    0.0000 H   0  0  0  0  0  0  0  0  0  0  0  0
    6.5380    0.2500    0.0000 H   0  0  0  0  0  0  0  0  0  0  0  0
    8.2700   -1.3700    0.0000 H   0  0  0  0  0  0  0  0  0  0  0  0
    4.2690    2.5600    0.0000 H   0  0  0  0  0  0  0  0  0  0  0  0
    4.8059    1.6300    0.0000 H   0  0  0  0  0  0  0  0  0  0  0  0
    2.5369    2.5600    0.0000 H   0  0  0  0  0  0  0  0  0  0  0  0
    2.0000    1.6300    0.0000 H   0  0  0  0  0  0  0  0  0  0  0  0
  1 10  1  0  0  0  0
  1 21  1  0  0  0  0
  2  9  2  0  0  0  0
  3  8  1  0  0  0  0
  3  9  1  0  0  0  0
  3 11  1  0  0  0  0
  4 12  1  0  0  0  0
  4 13  2  0  0  0  0
  5 13  1  0  0  0  0
  5 14  2  0  0  0  0
  6 14  1  0  0  0  0
  6 24  1  0  0  0  0
  6 25  1  0  0  0  0
  7 14  1  0  0  0  0
  7 22  1  0  0  0  0
  7 23  1  0  0  0  0
  8 10  1  0  0  0  0
  8 12  2  0  0  0  0
  9 13  1  0  0  0  0
 10 15  1  0  0  0  0
 10 16  1  0  0  0  0
 11 17  1  0  0  0  0
 11 18  1  0  0  0  0
 11 19  1  0  0  0  0
 12 20  1  0  0  0  0
M  END
>  <PUBCHEM_COMPOUND_CID>
21780519

>  <PUBCHEM_COMPOUND_CANONICALIZED>
1

>  <PUBCHEM_CACTVS_COMPLEXITY>
340

>  <PUBCHEM_CACTVS_HBOND_ACCEPTOR>
3

>  <PUBCHEM_CACTVS_HBOND_DONOR>
3

>  <PUBCHEM_CACTVS_ROTATABLE_BOND>
2

>  <PUBCHEM_CACTVS_SUBSKEYS>
AAADccBjsAAAAAAAAAAAAAAAAAAAAAAAAAAgAAAAAAAAAAAAAAAAHgAQCAAACAjhgAYDAANAAgCoAAd2dAAAAAEAAgAAAACIAAACVAAAAQAQAAAABgCQEAAAAAAAAAAAAAAAAAAAAAAAAAAAAAAAAAAAAA==

>  <PUBCHEM_IUPAC_OPENEYE_NAME>
2-[5-(hydroxymethyl)-4-methyl-3-oxo-pyrazin-2-yl]guanidine

>  <PUBCHEM_IUPAC_CAS_NAME>
2-[5-(hydroxymethyl)-4-methyl-3-oxo-2-pyrazinyl]guanidine

>  <PUBCHEM_IUPAC_NAME>
2-[5-(hydroxymethyl)-4-methyl-3-oxopyrazin-2-yl]guanidine

>  <PUBCHEM_IUPAC_SYSTEMATIC_NAME>
2-[5-(hydroxymethyl)-4-methyl-3-oxidanylidene-pyrazin-2-yl]guanidine

>  <PUBCHEM_IUPAC_TRADITIONAL_NAME>
2-(3-keto-4-methyl-5-methylol-pyrazin-2-yl)guanidine

>  <PUBCHEM_IUPAC_INCHI>
InChI=1S/C7H11N5O2/c1-12-4(3-13)2-10-5(6(12)14)11-7(8)9/h2,13H,3H2,1H3,(H4,8,9,10,11)

>  <PUBCHEM_IUPAC_INCHIKEY>
XZOSNHNAQRVGSZ-UHFFFAOYSA-N

>  <PUBCHEM_XLOGP3_AA>
-2.5

>  <PUBCHEM_EXACT_MASS>
197.091

>  <PUBCHEM_MOLECULAR_FORMULA>
C7H11N5O2

>  <PUBCHEM_MOLECULAR_WEIGHT>
197.198

>  <PUBCHEM_OPENEYE_CAN_SMILES>
CN1C(=CN=C(C1=O)N=C(N)N)CO

>  <PUBCHEM_OPENEYE_ISO_SMILES>
CN1C(=CN=C(C1=O)N=C(N)N)CO

>  <PUBCHEM_CACTVS_TPSA>
117

>  <PUBCHEM_MONOISOTOPIC_WEIGHT>
197.091

>  <PUBCHEM_TOTAL_CHARGE>
0

>  <PUBCHEM_HEAVY_ATOM_COUNT>
14

>  <PUBCHEM_ATOM_DEF_STEREO_COUNT>
0

>  <PUBCHEM_ATOM_UDEF_STEREO_COUNT>
0

>  <PUBCHEM_BOND_DEF_STEREO_COUNT>
0

>  <PUBCHEM_BOND_UDEF_STEREO_COUNT>
0

>  <PUBCHEM_ISOTOPIC_ATOM_COUNT>
0

>  <PUBCHEM_COMPONENT_COUNT>
1

>  <PUBCHEM_CACTVS_TAUTO_COUNT>
3

>  <PUBCHEM_COORDINATE_TYPE>
1
5
255

>  <PUBCHEM_BONDANNOTATIONS>
3  8  8
3  9  8
4  12  8
4  13  8
8  12  8
9  13  8

$$$$
