2180
 OpenBabel06101807152D

 59 61  0  0  1  0  0  0  0  0999 V2000
    7.7331    0.5000    0.0000 O   0  0  0  0  0  0  0  0  0  0  0  0
    4.2690   -0.5000    0.0000 O   0  0  0  0  0  0  0  0  0  0  0  0
    6.0010   -0.5000    0.0000 O   0  0  0  0  0  0  0  0  0  0  0  0
    6.0010    2.5000    0.0000 O   0  0  0  0  0  0  0  0  0  0  0  0
    9.4651    0.5000    0.0000 O   0  0  0  0  0  0  0  0  0  0  0  0
    7.7331    3.5000    0.0000 O   0  0  0  0  0  0  0  0  0  0  0  0
    6.0010   -2.5000    0.0000 O   0  0  0  0  0  0  0  0  0  0  0  0
    9.4651    2.5000    0.0000 O   0  0  0  0  0  0  0  0  0  0  0  0
    4.2690   -3.5000    0.0000 O   0  0  0  0  0  0  0  0  0  0  0  0
    2.5369   -2.5000    0.0000 O   0  0  0  0  0  0  0  0  0  0  0  0
    2.5369    0.5000    0.0000 O   0  0  0  0  0  0  0  0  0  0  0  0
    7.7331   -1.5000    0.0000 N   0  0  0  0  0  0  0  0  0  0  0  0
    6.8671    1.0000    0.0000 C   0  0  3  0  0  0  0  0  0  0  0  0
    6.8671    2.0000    0.0000 C   0  0  3  0  0  0  0  0  0  0  0  0
    7.7331    2.5000    0.0000 C   0  0  3  0  0  0  0  0  0  0  0  0
    5.1350   -2.0000    0.0000 C   0  0  3  0  0  0  0  0  0  0  0  0
    8.5991    2.0000    0.0000 C   0  0  3  0  0  0  0  0  0  0  0  0
    4.2690   -2.5000    0.0000 C   0  0  3  0  0  0  0  0  0  0  0  0
    5.1350   -1.0000    0.0000 C   0  0  3  0  0  0  0  0  0  0  0  0
    3.4030   -2.0000    0.0000 C   0  0  3  0  0  0  0  0  0  0  0  0
    3.4030   -1.0000    0.0000 C   0  0  3  0  0  0  0  0  0  0  0  0
    8.5991    1.0000    0.0000 C   0  0  3  0  0  0  0  0  0  0  0  0
    6.0010    0.5000    0.0000 C   0  0  0  0  0  0  0  0  0  0  0  0
    2.5369   -0.5000    0.0000 C   0  0  0  0  0  0  0  0  0  0  0  0
    9.4651   -0.5000    0.0000 C   0  0  3  0  0  0  0  0  0  0  0  0
   10.3312   -1.0000    0.0000 C   0  0  0  0  0  0  0  0  0  0  0  0
    8.5991   -1.0000    0.0000 C   0  0  0  0  0  0  0  0  0  0  0  0
   10.3312   -2.0000    0.0000 C   0  0  0  0  0  0  0  0  0  0  0  0
   11.1972   -0.5000    0.0000 C   0  0  0  0  0  0  0  0  0  0  0  0
   11.1972   -2.5000    0.0000 C   0  0  0  0  0  0  0  0  0  0  0  0
   12.0632   -1.0000    0.0000 C   0  0  0  0  0  0  0  0  0  0  0  0
   12.0632   -2.0000    0.0000 C   0  0  0  0  0  0  0  0  0  0  0  0
    6.8671    0.1500    0.0000 H   0  0  0  0  0  0  0  0  0  0  0  0
    6.1309    1.5750    0.0000 H   0  0  0  0  0  0  0  0  0  0  0  0
    6.9970    2.9250    0.0000 H   0  0  0  0  0  0  0  0  0  0  0  0
    5.1350   -2.8500    0.0000 H   0  0  0  0  0  0  0  0  0  0  0  0
    8.5991    2.8500    0.0000 H   0  0  0  0  0  0  0  0  0  0  0  0
    3.5329   -2.9250    0.0000 H   0  0  0  0  0  0  0  0  0  0  0  0
    5.1350   -0.1500    0.0000 H   0  0  0  0  0  0  0  0  0  0  0  0
    2.6668   -1.5750    0.0000 H   0  0  0  0  0  0  0  0  0  0  0  0
    3.4030   -0.1500    0.0000 H   0  0  0  0  0  0  0  0  0  0  0  0
    8.5991    0.1500    0.0000 H   0  0  0  0  0  0  0  0  0  0  0  0
    5.7890    1.0826    0.0000 H   0  0  0  0  0  0  0  0  0  0  0  0
    5.3905    0.3923    0.0000 H   0  0  0  0  0  0  0  0  0  0  0  0
    1.9264   -0.3923    0.0000 H   0  0  0  0  0  0  0  0  0  0  0  0
    2.3249   -1.0826    0.0000 H   0  0  0  0  0  0  0  0  0  0  0  0
    6.0010    3.1200    0.0000 H   0  0  0  0  0  0  0  0  0  0  0  0
    8.2700    3.8100    0.0000 H   0  0  0  0  0  0  0  0  0  0  0  0
    6.5380   -2.1900    0.0000 H   0  0  0  0  0  0  0  0  0  0  0  0
   10.0021    2.1900    0.0000 H   0  0  0  0  0  0  0  0  0  0  0  0
    3.7320   -3.8100    0.0000 H   0  0  0  0  0  0  0  0  0  0  0  0
    2.0000   -2.1900    0.0000 H   0  0  0  0  0  0  0  0  0  0  0  0
   10.2013   -0.0750    0.0000 H   0  0  0  0  0  0  0  0  0  0  0  0
    2.0000    0.8100    0.0000 H   0  0  0  0  0  0  0  0  0  0  0  0
    9.7942   -2.3100    0.0000 H   0  0  0  0  0  0  0  0  0  0  0  0
   11.1972    0.1200    0.0000 H   0  0  0  0  0  0  0  0  0  0  0  0
   11.1972   -3.1200    0.0000 H   0  0  0  0  0  0  0  0  0  0  0  0
   12.6002   -0.6900    0.0000 H   0  0  0  0  0  0  0  0  0  0  0  0
   12.6002   -2.3100    0.0000 H   0  0  0  0  0  0  0  0  0  0  0  0
  1 13  1  0  0  0  0
  1 22  1  0  0  0  0
  2 19  1  0  0  0  0
  2 21  1  0  0  0  0
  3 19  1  0  0  0  0
  3 23  1  0  0  0  0
  4 14  1  0  0  0  0
  4 47  1  0  0  0  0
  5 22  1  0  0  0  0
  5 25  1  0  0  0  0
  6 15  1  0  0  0  0
  6 48  1  0  0  0  0
  7 16  1  0  0  0  0
  7 49  1  0  0  0  0
  8 17  1  0  0  0  0
  8 50  1  0  0  0  0
  9 18  1  0  0  0  0
  9 51  1  0  0  0  0
 10 20  1  0  0  0  0
 10 52  1  0  0  0  0
 11 24  1  0  0  0  0
 11 54  1  0  0  0  0
 12 27  3  0  0  0  0
 13 14  1  0  0  0  0
 13 23  1  0  0  0  0
 13 33  1  0  0  0  0
 14 15  1  0  0  0  0
 14 34  1  0  0  0  0
 15 17  1  0  0  0  0
 15 35  1  0  0  0  0
 16 18  1  0  0  0  0
 16 19  1  0  0  0  0
 16 36  1  0  0  0  0
 17 22  1  0  0  0  0
 17 37  1  0  0  0  0
 18 20  1  0  0  0  0
 18 38  1  0  0  0  0
 19 39  1  0  0  0  0
 20 21  1  0  0  0  0
 20 40  1  0  0  0  0
 21 24  1  0  0  0  0
 21 41  1  0  0  0  0
 22 42  1  0  0  0  0
 23 43  1  0  0  0  0
 23 44  1  0  0  0  0
 24 45  1  0  0  0  0
 24 46  1  0  0  0  0
 25 26  1  0  0  0  0
 25 27  1  0  0  0  0
 25 53  1  0  0  0  0
 26 28  2  0  0  0  0
 26 29  1  0  0  0  0
 28 30  1  0  0  0  0
 28 55  1  0  0  0  0
 29 31  2  0  0  0  0
 29 56  1  0  0  0  0
 30 32  2  0  0  0  0
 30 57  1  0  0  0  0
 31 32  1  0  0  0  0
 31 58  1  0  0  0  0
 32 59  1  0  0  0  0
M  END
>  <PUBCHEM_COMPOUND_CID>
2180

>  <PUBCHEM_COMPOUND_CANONICALIZED>
1

>  <PUBCHEM_CACTVS_COMPLEXITY>
638

>  <PUBCHEM_CACTVS_HBOND_ACCEPTOR>
12

>  <PUBCHEM_CACTVS_HBOND_DONOR>
7

>  <PUBCHEM_CACTVS_ROTATABLE_BOND>
7

>  <PUBCHEM_CACTVS_SUBSKEYS>
AAADceB6PAAAAAAAAAAAAAAAAAAAAAAAAAA0SIAAAAAAAAABAAAAHgAACAAADBSxmAMwCIAABgCQBiBCAAACAAAgAAAIiAAACIgZtiKAMRiicAAlwAEPqA/A4KwOAAAAAAAAAAAAAAAAAAAAAAAAAAAAAA==

>  <PUBCHEM_IUPAC_OPENEYE_NAME>
2-phenyl-2-[3,4,5-trihydroxy-6-[[3,4,5-trihydroxy-6-(hydroxymethyl)tetrahydropyran-2-yl]oxymethyl]tetrahydropyran-2-yl]oxy-acetonitrile

>  <PUBCHEM_IUPAC_CAS_NAME>
2-phenyl-2-[[3,4,5-trihydroxy-6-[[3,4,5-trihydroxy-6-(hydroxymethyl)-2-oxanyl]oxymethyl]-2-oxanyl]oxy]acetonitrile

>  <PUBCHEM_IUPAC_NAME>
2-phenyl-2-[3,4,5-trihydroxy-6-[[3,4,5-trihydroxy-6-(hydroxymethyl)oxan-2-yl]oxymethyl]oxan-2-yl]oxyacetonitrile

>  <PUBCHEM_IUPAC_SYSTEMATIC_NAME>
2-[6-[[6-(hydroxymethyl)-3,4,5-tris(oxidanyl)oxan-2-yl]oxymethyl]-3,4,5-tris(oxidanyl)oxan-2-yl]oxy-2-phenyl-ethanenitrile

>  <PUBCHEM_IUPAC_TRADITIONAL_NAME>
2-phenyl-2-[3,4,5-trihydroxy-6-[(3,4,5-trihydroxy-6-methylol-tetrahydropyran-2-yl)oxymethyl]tetrahydropyran-2-yl]oxy-acetonitrile

>  <PUBCHEM_IUPAC_INCHI>
InChI=1S/C20H27NO11/c21-6-10(9-4-2-1-3-5-9)30-20-18(28)16(26)14(24)12(32-20)8-29-19-17(27)15(25)13(23)11(7-22)31-19/h1-5,10-20,22-28H,7-8H2

>  <PUBCHEM_IUPAC_INCHIKEY>
XUCIJNAGGSZNQT-UHFFFAOYSA-N

>  <PUBCHEM_XLOGP3_AA>
-2.7

>  <PUBCHEM_EXACT_MASS>
457.158

>  <PUBCHEM_MOLECULAR_FORMULA>
C20H27NO11

>  <PUBCHEM_MOLECULAR_WEIGHT>
457.432

>  <PUBCHEM_OPENEYE_CAN_SMILES>
C1=CC=C(C=C1)C(C#N)OC2C(C(C(C(O2)COC3C(C(C(C(O3)CO)O)O)O)O)O)O

>  <PUBCHEM_OPENEYE_ISO_SMILES>
C1=CC=C(C=C1)C(C#N)OC2C(C(C(C(O2)COC3C(C(C(C(O3)CO)O)O)O)O)O)O

>  <PUBCHEM_CACTVS_TPSA>
202

>  <PUBCHEM_MONOISOTOPIC_WEIGHT>
457.158

>  <PUBCHEM_TOTAL_CHARGE>
0

>  <PUBCHEM_HEAVY_ATOM_COUNT>
32

>  <PUBCHEM_ATOM_DEF_STEREO_COUNT>
0

>  <PUBCHEM_ATOM_UDEF_STEREO_COUNT>
11

>  <PUBCHEM_BOND_DEF_STEREO_COUNT>
0

>  <PUBCHEM_BOND_UDEF_STEREO_COUNT>
0

>  <PUBCHEM_ISOTOPIC_ATOM_COUNT>
0

>  <PUBCHEM_COMPONENT_COUNT>
1

>  <PUBCHEM_CACTVS_TAUTO_COUNT>
1

>  <PUBCHEM_COORDINATE_TYPE>
1
5
255

>  <PUBCHEM_BONDANNOTATIONS>
13  33  3
14  34  3
15  35  3
16  36  3
17  37  3
18  38  3
19  39  3
20  40  3
21  41  3
22  42  3
25  53  3
26  28  8
26  29  8
28  30  8
29  31  8
30  32  8
31  32  8

$$$$
