21883788
 OpenBabel06101807152D

 12  9  0  0  0  0  0  0  0  0999 V2000
    2.5369    0.2500    0.0000 O   0  5  0  0  0  0  0  0  0  0  0  0
    6.8671   -0.2500    0.0000 O   0  5  0  0  0  0  0  0  0  0  0  0
    3.4030   -1.2500    0.0000 O   0  0  0  0  0  0  0  0  0  0  0  0
    6.0010    1.2500    0.0000 O   0  0  0  0  0  0  0  0  0  0  0  0
    4.2690    0.2500    0.0000 C   0  0  0  0  0  0  0  0  0  0  0  0
    5.1350   -0.2500    0.0000 C   0  0  0  0  0  0  0  0  0  0  0  0
    3.4030   -0.2500    0.0000 C   0  0  0  0  0  0  0  0  0  0  0  0
    6.0010    0.2500    0.0000 C   0  0  0  0  0  0  0  0  0  0  0  0
    4.2690    0.8700    0.0000 H   0  0  0  0  0  0  0  0  0  0  0  0
    5.1350   -0.8700    0.0000 H   0  0  0  0  0  0  0  0  0  0  0  0
    2.0000   -0.0600    0.0000 H   0  3  0  0  0  0  0  0  0  0  0  0
    7.4040    0.0600    0.0000 H   0  3  0  0  0  0  0  0  0  0  0  0
  1  7  1  0  0  0  0
  2  8  1  0  0  0  0
  3  7  2  0  0  0  0
  4  8  2  0  0  0  0
  5  6  2  0  0  0  0
  5  7  1  0  0  0  0
  5  9  1  0  0  0  0
  6  8  1  0  0  0  0
  6 10  1  0  0  0  0
M  CHG  4   1  -1   2  -1  11   1  12   1
M  END
>  <PUBCHEM_COMPOUND_CID>
21883788

>  <PUBCHEM_COMPOUND_CANONICALIZED>
1

>  <PUBCHEM_CACTVS_COMPLEXITY>
108

>  <PUBCHEM_CACTVS_HBOND_ACCEPTOR>
4

>  <PUBCHEM_CACTVS_HBOND_DONOR>
2

>  <PUBCHEM_CACTVS_ROTATABLE_BOND>
0

>  <PUBCHEM_CACTVS_SUBSKEYS>
AAADcYBgOAAAAAAAAAAAAAAAAAAAAAAAAAAAAAAAAAAAAAAAAAAAGgAAAAAACACAgAAACAAAAACIACDSCAAAAAAAAAAICAAAAEAABAAAAAAAEAAAAAAAAYAAAAAAAAAAAAAAAAAAAAAAAAAAAAAAAAAAAA==

>  <PUBCHEM_IUPAC_OPENEYE_NAME>
(E)-but-2-enedioate;hydron

>  <PUBCHEM_IUPAC_CAS_NAME>
(E)-2-butenedioate;hydron

>  <PUBCHEM_IUPAC_NAME>
(E)-but-2-enedioate;hydron

>  <PUBCHEM_IUPAC_SYSTEMATIC_NAME>
(E)-but-2-enedioate;hydron

>  <PUBCHEM_IUPAC_TRADITIONAL_NAME>
hydron;fumarate

>  <PUBCHEM_IUPAC_INCHI>
InChI=1S/C4H4O4/c5-3(6)1-2-4(7)8/h1-2H,(H,5,6)(H,7,8)/b2-1+

>  <PUBCHEM_IUPAC_INCHIKEY>
VZCYOOQTPOCHFL-OWOJBTEDSA-N

>  <PUBCHEM_EXACT_MASS>
116.011

>  <PUBCHEM_MOLECULAR_FORMULA>
C4H4O4

>  <PUBCHEM_MOLECULAR_WEIGHT>
116.072

>  <PUBCHEM_OPENEYE_CAN_SMILES>
[H+].[H+].C(=CC(=O)[O-])C(=O)[O-]

>  <PUBCHEM_OPENEYE_ISO_SMILES>
[H+].[H+].C(=C/C(=O)[O-])\C(=O)[O-]

>  <PUBCHEM_CACTVS_TPSA>
80.3

>  <PUBCHEM_MONOISOTOPIC_WEIGHT>
116.011

>  <PUBCHEM_TOTAL_CHARGE>
0

>  <PUBCHEM_HEAVY_ATOM_COUNT>
8

>  <PUBCHEM_ATOM_DEF_STEREO_COUNT>
0

>  <PUBCHEM_ATOM_UDEF_STEREO_COUNT>
0

>  <PUBCHEM_BOND_DEF_STEREO_COUNT>
1

>  <PUBCHEM_BOND_UDEF_STEREO_COUNT>
0

>  <PUBCHEM_ISOTOPIC_ATOM_COUNT>
0

>  <PUBCHEM_COMPONENT_COUNT>
3

>  <PUBCHEM_CACTVS_TAUTO_COUNT>
1

>  <PUBCHEM_COORDINATE_TYPE>
1
5
255

$$$$
