21924842
 OpenBabel06101807152D

 41 42  0  0  1  0  0  0  0  0999 V2000
    6.0010   -1.0000    0.0000 O   0  0  0  0  0  0  0  0  0  0  0  0
    4.2690    1.0000    0.0000 O   0  0  0  0  0  0  0  0  0  0  0  0
    6.8671    0.5000    0.0000 O   0  0  0  0  0  0  0  0  0  0  0  0
    4.2690   -2.0000    0.0000 O   0  0  0  0  0  0  0  0  0  0  0  0
    2.5369   -1.0000    0.0000 O   0  0  0  0  0  0  0  0  0  0  0  0
    6.0010    1.0000    0.0000 O   0  0  0  0  0  0  0  0  0  0  0  0
    7.7331   -2.0000    0.0000 O   0  0  0  0  0  0  0  0  0  0  0  0
    9.4651   -1.0000    0.0000 O   0  0  0  0  0  0  0  0  0  0  0  0
    9.4651    1.0000    0.0000 O   0  0  0  0  0  0  0  0  0  0  0  0
    2.5369    2.0000    0.0000 O   0  0  0  0  0  0  0  0  0  0  0  0
    5.1350   -0.5000    0.0000 C   0  0  3  0  0  0  0  0  0  0  0  0
    4.2690   -1.0000    0.0000 C   0  0  3  0  0  0  0  0  0  0  0  0
    3.4030   -0.5000    0.0000 C   0  0  3  0  0  0  0  0  0  0  0  0
    3.4030    0.5000    0.0000 C   0  0  3  0  0  0  0  0  0  0  0  0
    5.1350    0.5000    0.0000 C   0  0  3  0  0  0  0  0  0  0  0  0
    6.8671   -0.5000    0.0000 C   0  0  3  0  0  0  0  0  0  0  0  0
    7.7331   -1.0000    0.0000 C   0  0  3  0  0  0  0  0  0  0  0  0
    8.5991   -0.5000    0.0000 C   0  0  3  0  0  0  0  0  0  0  0  0
    8.5991    0.5000    0.0000 C   0  0  3  0  0  0  0  0  0  0  0  0
    7.7331    1.0000    0.0000 C   0  0  0  0  0  0  0  0  0  0  0  0
    2.5369    1.0000    0.0000 C   0  0  0  0  0  0  0  0  0  0  0  0
    5.1350   -1.3500    0.0000 H   0  0  0  0  0  0  0  0  0  0  0  0
    3.5329   -1.4250    0.0000 H   0  0  0  0  0  0  0  0  0  0  0  0
    2.6668   -0.0750    0.0000 H   0  0  0  0  0  0  0  0  0  0  0  0
    3.4030    1.3500    0.0000 H   0  0  0  0  0  0  0  0  0  0  0  0
    5.1350    1.3500    0.0000 H   0  0  0  0  0  0  0  0  0  0  0  0
    6.8671   -1.3500    0.0000 H   0  0  0  0  0  0  0  0  0  0  0  0
    8.4692   -1.4250    0.0000 H   0  0  0  0  0  0  0  0  0  0  0  0
    9.3352   -0.0750    0.0000 H   0  0  0  0  0  0  0  0  0  0  0  0
    8.5991    1.3500    0.0000 H   0  0  0  0  0  0  0  0  0  0  0  0
    8.1316    1.4750    0.0000 H   0  0  0  0  0  0  0  0  0  0  0  0
    7.3346    1.4750    0.0000 H   0  0  0  0  0  0  0  0  0  0  0  0
    1.9264    1.1077    0.0000 H   0  0  0  0  0  0  0  0  0  0  0  0
    2.3249    0.4174    0.0000 H   0  0  0  0  0  0  0  0  0  0  0  0
    3.7320   -2.3100    0.0000 H   0  0  0  0  0  0  0  0  0  0  0  0
    2.0000   -0.6900    0.0000 H   0  0  0  0  0  0  0  0  0  0  0  0
    6.0010    1.6200    0.0000 H   0  0  0  0  0  0  0  0  0  0  0  0
    8.2700   -2.3100    0.0000 H   0  0  0  0  0  0  0  0  0  0  0  0
   10.0021   -0.6900    0.0000 H   0  0  0  0  0  0  0  0  0  0  0  0
    9.4651    1.6200    0.0000 H   0  0  0  0  0  0  0  0  0  0  0  0
    2.0000    2.3100    0.0000 H   0  0  0  0  0  0  0  0  0  0  0  0
  1 11  1  0  0  0  0
  1 16  1  0  0  0  0
  2 14  1  0  0  0  0
  2 15  1  0  0  0  0
  3 16  1  0  0  0  0
  3 20  1  0  0  0  0
  4 12  1  0  0  0  0
  4 35  1  0  0  0  0
  5 13  1  0  0  0  0
  5 36  1  0  0  0  0
  6 15  1  0  0  0  0
  6 37  1  0  0  0  0
  7 17  1  0  0  0  0
  7 38  1  0  0  0  0
  8 18  1  0  0  0  0
  8 39  1  0  0  0  0
  9 19  1  0  0  0  0
  9 40  1  0  0  0  0
 10 21  1  0  0  0  0
 10 41  1  0  0  0  0
 11 12  1  0  0  0  0
 11 15  1  0  0  0  0
 11 22  1  0  0  0  0
 12 13  1  0  0  0  0
 12 23  1  0  0  0  0
 13 14  1  0  0  0  0
 13 24  1  0  0  0  0
 14 21  1  0  0  0  0
 14 25  1  0  0  0  0
 15 26  1  0  0  0  0
 16 17  1  0  0  0  0
 16 27  1  0  0  0  0
 17 18  1  0  0  0  0
 17 28  1  0  0  0  0
 18 19  1  0  0  0  0
 18 29  1  0  0  0  0
 19 20  1  0  0  0  0
 19 30  1  0  0  0  0
 20 31  1  0  0  0  0
 20 32  1  0  0  0  0
 21 33  1  0  0  0  0
 21 34  1  0  0  0  0
M  END
>  <PUBCHEM_COMPOUND_CID>
21924842

>  <PUBCHEM_COMPOUND_CANONICALIZED>
1

>  <PUBCHEM_CACTVS_COMPLEXITY>
341

>  <PUBCHEM_CACTVS_HBOND_ACCEPTOR>
10

>  <PUBCHEM_CACTVS_HBOND_DONOR>
7

>  <PUBCHEM_CACTVS_ROTATABLE_BOND>
3

>  <PUBCHEM_CACTVS_SUBSKEYS>
AAADceBwPAAAAAAAAAAAAAAAAAAAAAAAAAAkSAAAAAAAAAAAAAAAGgAACAAACBSwgAMACAAABgAAAAAAAAAAAAAAAAAAAAAAAAAREAIAAAAiQAAFAAAHAAHAYAwAAAAAAAAAAAAAAAAAAAAAAAAAAAAAAA==

>  <PUBCHEM_IUPAC_OPENEYE_NAME>
6-(hydroxymethyl)-3-(3,4,5-trihydroxytetrahydropyran-2-yl)oxy-tetrahydropyran-2,4,5-triol

>  <PUBCHEM_IUPAC_CAS_NAME>
6-(hydroxymethyl)-3-[(3,4,5-trihydroxy-2-oxanyl)oxy]oxane-2,4,5-triol

>  <PUBCHEM_IUPAC_NAME>
6-(hydroxymethyl)-3-(3,4,5-trihydroxyoxan-2-yl)oxyoxane-2,4,5-triol

>  <PUBCHEM_IUPAC_SYSTEMATIC_NAME>
6-(hydroxymethyl)-3-[3,4,5-tris(oxidanyl)oxan-2-yl]oxy-oxane-2,4,5-triol

>  <PUBCHEM_IUPAC_TRADITIONAL_NAME>
6-methylol-3-(3,4,5-trihydroxytetrahydropyran-2-yl)oxy-tetrahydropyran-2,4,5-triol

>  <PUBCHEM_IUPAC_INCHI>
InChI=1S/C11H20O10/c12-1-4-6(15)7(16)9(10(18)20-4)21-11-8(17)5(14)3(13)2-19-11/h3-18H,1-2H2

>  <PUBCHEM_IUPAC_INCHIKEY>
BUEBVQCTEJTADB-UHFFFAOYSA-N

>  <PUBCHEM_XLOGP3_AA>
-4.1

>  <PUBCHEM_EXACT_MASS>
312.106

>  <PUBCHEM_MOLECULAR_FORMULA>
C11H20O10

>  <PUBCHEM_MOLECULAR_WEIGHT>
312.271

>  <PUBCHEM_OPENEYE_CAN_SMILES>
C1C(C(C(C(O1)OC2C(C(C(OC2O)CO)O)O)O)O)O

>  <PUBCHEM_OPENEYE_ISO_SMILES>
C1C(C(C(C(O1)OC2C(C(C(OC2O)CO)O)O)O)O)O

>  <PUBCHEM_CACTVS_TPSA>
169

>  <PUBCHEM_MONOISOTOPIC_WEIGHT>
312.106

>  <PUBCHEM_TOTAL_CHARGE>
0

>  <PUBCHEM_HEAVY_ATOM_COUNT>
21

>  <PUBCHEM_ATOM_DEF_STEREO_COUNT>
0

>  <PUBCHEM_ATOM_UDEF_STEREO_COUNT>
9

>  <PUBCHEM_BOND_DEF_STEREO_COUNT>
0

>  <PUBCHEM_BOND_UDEF_STEREO_COUNT>
0

>  <PUBCHEM_ISOTOPIC_ATOM_COUNT>
0

>  <PUBCHEM_COMPONENT_COUNT>
1

>  <PUBCHEM_CACTVS_TAUTO_COUNT>
1

>  <PUBCHEM_COORDINATE_TYPE>
1
5
255

>  <PUBCHEM_BONDANNOTATIONS>
11  22  3
12  23  3
13  24  3
14  25  3
15  26  3
16  27  3
17  28  3
18  29  3
19  30  3

$$$$
