21952380
 OpenBabel06101807152D

 14 11  0  0  0  0  0  0  0  0999 V2000
    2.5369    0.2500    0.0000 O   0  5  0  0  0  0  0  0  0  0  0  0
    6.8671   -0.2500    0.0000 O   0  5  0  0  0  0  0  0  0  0  0  0
    3.4030   -1.2500    0.0000 O   0  0  0  0  0  0  0  0  0  0  0  0
    6.0010    1.2500    0.0000 O   0  0  0  0  0  0  0  0  0  0  0  0
    4.2690    0.2500    0.0000 C   0  0  0  0  0  0  0  0  0  0  0  0
    5.1350   -0.2500    0.0000 C   0  0  0  0  0  0  0  0  0  0  0  0
    3.4030   -0.2500    0.0000 C   0  0  0  0  0  0  0  0  0  0  0  0
    6.0010    0.2500    0.0000 C   0  0  0  0  0  0  0  0  0  0  0  0
    4.6675    0.7249    0.0000 H   0  0  0  0  0  0  0  0  0  0  0  0
    3.8705    0.7249    0.0000 H   0  0  0  0  0  0  0  0  0  0  0  0
    4.7365   -0.7249    0.0000 H   0  0  0  0  0  0  0  0  0  0  0  0
    5.5335   -0.7249    0.0000 H   0  0  0  0  0  0  0  0  0  0  0  0
    2.0000   -0.0600    0.0000 H   0  3  0  0  0  0  0  0  0  0  0  0
    7.4040    0.0600    0.0000 H   0  3  0  0  0  0  0  0  0  0  0  0
  1  7  1  0  0  0  0
  2  8  1  0  0  0  0
  3  7  2  0  0  0  0
  4  8  2  0  0  0  0
  5  6  1  0  0  0  0
  5  7  1  0  0  0  0
  5  9  1  0  0  0  0
  5 10  1  0  0  0  0
  6  8  1  0  0  0  0
  6 11  1  0  0  0  0
  6 12  1  0  0  0  0
M  CHG  4   1  -1   2  -1  13   1  14   1
M  END
>  <PUBCHEM_COMPOUND_CID>
21952380

>  <PUBCHEM_COMPOUND_CANONICALIZED>
1

>  <PUBCHEM_CACTVS_COMPLEXITY>
81.6

>  <PUBCHEM_CACTVS_HBOND_ACCEPTOR>
4

>  <PUBCHEM_CACTVS_HBOND_DONOR>
2

>  <PUBCHEM_CACTVS_ROTATABLE_BOND>
1

>  <PUBCHEM_CACTVS_SUBSKEYS>
AAADcYBgOAAAAAAAAAAAAAAAAAAAAAAAAAAAAAAAAAAAAAAAAAAAGgAAAAAACACAgAAACAAAAAAIAACQCAAAAAAAAAAAAAEAAAAAABAAAAAAAAAEAAAAAABDAAAAAAAAAAAAAAAAAAAAAAAAAAAAAAAAAA==

>  <PUBCHEM_IUPAC_OPENEYE_NAME>
butanedioate;hydron

>  <PUBCHEM_IUPAC_CAS_NAME>
butanedioate;hydron

>  <PUBCHEM_IUPAC_NAME>
butanedioate;hydron

>  <PUBCHEM_IUPAC_SYSTEMATIC_NAME>
butanedioate;hydron

>  <PUBCHEM_IUPAC_TRADITIONAL_NAME>
hydron;succinate

>  <PUBCHEM_IUPAC_INCHI>
InChI=1S/C4H6O4/c5-3(6)1-2-4(7)8/h1-2H2,(H,5,6)(H,7,8)

>  <PUBCHEM_IUPAC_INCHIKEY>
KDYFGRWQOYBRFD-UHFFFAOYSA-N

>  <PUBCHEM_EXACT_MASS>
118.027

>  <PUBCHEM_MOLECULAR_FORMULA>
C4H6O4

>  <PUBCHEM_MOLECULAR_WEIGHT>
118.088

>  <PUBCHEM_OPENEYE_CAN_SMILES>
[H+].[H+].C(CC(=O)[O-])C(=O)[O-]

>  <PUBCHEM_OPENEYE_ISO_SMILES>
[H+].[H+].C(CC(=O)[O-])C(=O)[O-]

>  <PUBCHEM_CACTVS_TPSA>
80.3

>  <PUBCHEM_MONOISOTOPIC_WEIGHT>
118.027

>  <PUBCHEM_TOTAL_CHARGE>
0

>  <PUBCHEM_HEAVY_ATOM_COUNT>
8

>  <PUBCHEM_ATOM_DEF_STEREO_COUNT>
0

>  <PUBCHEM_ATOM_UDEF_STEREO_COUNT>
0

>  <PUBCHEM_BOND_DEF_STEREO_COUNT>
0

>  <PUBCHEM_BOND_UDEF_STEREO_COUNT>
0

>  <PUBCHEM_ISOTOPIC_ATOM_COUNT>
0

>  <PUBCHEM_COMPONENT_COUNT>
3

>  <PUBCHEM_CACTVS_TAUTO_COUNT>
1

>  <PUBCHEM_COORDINATE_TYPE>
1
5
255

$$$$
