21980959
 OpenBabel06101807152D

  8  6  0  0  0  0  0  0  0  0999 V2000
    3.7320    0.7500    0.0000 O   0  5  0  0  0  0  0  0  0  0  0  0
    2.8660   -0.7500    0.0000 O   0  0  0  0  0  0  0  0  0  0  0  0
    2.0000    0.7500    0.0000 C   0  0  0  0  0  0  0  0  0  0  0  0
    2.8660    0.2500    0.0000 C   0  0  0  0  0  0  0  0  0  0  0  0
    2.3100    1.2869    0.0000 H   0  0  0  0  0  0  0  0  0  0  0  0
    1.4631    1.0600    0.0000 H   0  0  0  0  0  0  0  0  0  0  0  0
    1.6900    0.2131    0.0000 H   0  0  0  0  0  0  0  0  0  0  0  0
    4.2690    0.4400    0.0000 H   0  3  0  0  0  0  0  0  0  0  0  0
  1  4  1  0  0  0  0
  2  4  2  0  0  0  0
  3  4  1  0  0  0  0
  3  5  1  0  0  0  0
  3  6  1  0  0  0  0
  3  7  1  0  0  0  0
M  CHG  2   1  -1   8   1
M  END
>  <PUBCHEM_COMPOUND_CID>
21980959

>  <PUBCHEM_COMPOUND_CANONICALIZED>
1

>  <PUBCHEM_CACTVS_COMPLEXITY>
25.5

>  <PUBCHEM_CACTVS_HBOND_ACCEPTOR>
2

>  <PUBCHEM_CACTVS_HBOND_DONOR>
1

>  <PUBCHEM_CACTVS_ROTATABLE_BOND>
0

>  <PUBCHEM_CACTVS_SUBSKEYS>
AAADcYBAMAAAAAAAAAAAAAAAAAAAAAAAAAAAAAAAAAAAAAAAAAAAGgAAAAAAAACAgAACCAAAAAAIAACQCAAAAAAAAAAAAAAAAAAAAAAAAAAAAAAAAAAAAAAAAAAAAAAAAAAAAAAAAAAAAAAAAAAAAAAAAA==

>  <PUBCHEM_IUPAC_OPENEYE_NAME>
hydron;acetate

>  <PUBCHEM_IUPAC_CAS_NAME>
hydron;acetate

>  <PUBCHEM_IUPAC_NAME>
hydron;acetate

>  <PUBCHEM_IUPAC_SYSTEMATIC_NAME>
hydron;ethanoate

>  <PUBCHEM_IUPAC_TRADITIONAL_NAME>
hydron;acetate

>  <PUBCHEM_IUPAC_INCHI>
InChI=1S/C2H4O2/c1-2(3)4/h1H3,(H,3,4)

>  <PUBCHEM_IUPAC_INCHIKEY>
QTBSBXVTEAMEQO-UHFFFAOYSA-N

>  <PUBCHEM_EXACT_MASS>
60.021

>  <PUBCHEM_MOLECULAR_FORMULA>
C2H4O2

>  <PUBCHEM_MOLECULAR_WEIGHT>
60.052

>  <PUBCHEM_OPENEYE_CAN_SMILES>
[H+].CC(=O)[O-]

>  <PUBCHEM_OPENEYE_ISO_SMILES>
[H+].CC(=O)[O-]

>  <PUBCHEM_CACTVS_TPSA>
40.1

>  <PUBCHEM_MONOISOTOPIC_WEIGHT>
60.021

>  <PUBCHEM_TOTAL_CHARGE>
0

>  <PUBCHEM_HEAVY_ATOM_COUNT>
4

>  <PUBCHEM_ATOM_DEF_STEREO_COUNT>
0

>  <PUBCHEM_ATOM_UDEF_STEREO_COUNT>
0

>  <PUBCHEM_BOND_DEF_STEREO_COUNT>
0

>  <PUBCHEM_BOND_UDEF_STEREO_COUNT>
0

>  <PUBCHEM_ISOTOPIC_ATOM_COUNT>
0

>  <PUBCHEM_COMPONENT_COUNT>
2

>  <PUBCHEM_CACTVS_TAUTO_COUNT>
1

>  <PUBCHEM_COORDINATE_TYPE>
1
5
255

$$$$
