22261310
 OpenBabel06101807152D

 52 55  0  0  1  0  0  0  0  0999 V2000
    5.1350   -2.5475    0.0000 O   0  0  0  0  0  0  0  0  0  0  0  0
    6.8671   -2.5475    0.0000 O   0  0  0  0  0  0  0  0  0  0  0  0
    5.1350   -5.5475    0.0000 O   0  0  0  0  0  0  0  0  0  0  0  0
    3.4030   -4.5475    0.0000 O   0  0  0  0  0  0  0  0  0  0  0  0
    6.8671   -4.5475    0.0000 O   0  0  0  0  0  0  0  0  0  0  0  0
    2.5369   -3.0475    0.0000 O   0  0  0  0  0  0  0  0  0  0  0  0
    8.4701    0.6196    0.0000 O   0  0  0  0  0  0  0  0  0  0  0  0
    5.1350    0.4525    0.0000 O   0  0  0  0  0  0  0  0  0  0  0  0
    6.4084    2.1686    0.0000 O   0  0  0  0  0  0  0  0  0  0  0  0
    8.5650    5.8575    0.0000 O   0  0  0  0  0  0  0  0  0  0  0  0
    6.5650    5.8575    0.0000 O   0  0  0  0  0  0  0  0  0  0  0  0
    5.1350   -4.5475    0.0000 C   0  0  3  0  0  0  0  0  0  0  0  0
    4.2690   -4.0475    0.0000 C   0  0  3  0  0  0  0  0  0  0  0  0
    6.0010   -4.0475    0.0000 C   0  0  3  0  0  0  0  0  0  0  0  0
    4.2690   -3.0475    0.0000 C   0  0  3  0  0  0  0  0  0  0  0  0
    6.0010   -3.0475    0.0000 C   0  0  3  0  0  0  0  0  0  0  0  0
    3.4030   -2.5475    0.0000 C   0  0  0  0  0  0  0  0  0  0  0  0
    6.8671   -1.5475    0.0000 C   0  0  0  0  0  0  0  0  0  0  0  0
    7.7331   -1.0475    0.0000 C   0  0  0  0  0  0  0  0  0  0  0  0
    6.0010   -1.0475    0.0000 C   0  0  0  0  0  0  0  0  0  0  0  0
    7.7331   -0.0475    0.0000 C   0  0  0  0  0  0  0  0  0  0  0  0
    6.8671    0.4525    0.0000 C   0  0  0  0  0  0  0  0  0  0  0  0
    6.0010   -0.0475    0.0000 C   0  0  0  0  0  0  0  0  0  0  0  0
    7.0763    1.4243    0.0000 C   0  0  0  0  0  0  0  0  0  0  0  0
    8.0650    1.5274    0.0000 C   0  0  0  0  0  0  0  0  0  0  0  0
    8.5650    2.3934    0.0000 C   0  0  0  0  0  0  0  0  0  0  0  0
    8.0650    3.2594    0.0000 C   0  0  0  0  0  0  0  0  0  0  0  0
    8.5650    4.1254    0.0000 C   0  0  0  0  0  0  0  0  0  0  0  0
    7.0650    3.2594    0.0000 C   0  0  0  0  0  0  0  0  0  0  0  0
    8.0650    4.9915    0.0000 C   0  0  0  0  0  0  0  0  0  0  0  0
    6.5650    4.1254    0.0000 C   0  0  0  0  0  0  0  0  0  0  0  0
    7.0650    4.9915    0.0000 C   0  0  0  0  0  0  0  0  0  0  0  0
    5.6720   -4.8575    0.0000 H   0  0  0  0  0  0  0  0  0  0  0  0
    4.2690   -4.6675    0.0000 H   0  0  0  0  0  0  0  0  0  0  0  0
    6.5380   -3.7375    0.0000 H   0  0  0  0  0  0  0  0  0  0  0  0
    4.2690   -2.4275    0.0000 H   0  0  0  0  0  0  0  0  0  0  0  0
    6.0010   -2.4275    0.0000 H   0  0  0  0  0  0  0  0  0  0  0  0
    3.8015   -2.0726    0.0000 H   0  0  0  0  0  0  0  0  0  0  0  0
    3.0044   -2.0726    0.0000 H   0  0  0  0  0  0  0  0  0  0  0  0
    4.5981   -5.8575    0.0000 H   0  0  0  0  0  0  0  0  0  0  0  0
    3.4030   -5.1675    0.0000 H   0  0  0  0  0  0  0  0  0  0  0  0
    6.8671   -5.1675    0.0000 H   0  0  0  0  0  0  0  0  0  0  0  0
    2.0000   -2.7375    0.0000 H   0  0  0  0  0  0  0  0  0  0  0  0
    8.2700   -1.3575    0.0000 H   0  0  0  0  0  0  0  0  0  0  0  0
    5.4641   -1.3575    0.0000 H   0  0  0  0  0  0  0  0  0  0  0  0
    9.1850    2.3934    0.0000 H   0  0  0  0  0  0  0  0  0  0  0  0
    4.5981    0.1425    0.0000 H   0  0  0  0  0  0  0  0  0  0  0  0
    9.1850    4.1254    0.0000 H   0  0  0  0  0  0  0  0  0  0  0  0
    6.7550    2.7225    0.0000 H   0  0  0  0  0  0  0  0  0  0  0  0
    5.9450    4.1254    0.0000 H   0  0  0  0  0  0  0  0  0  0  0  0
    9.1850    5.8575    0.0000 H   0  0  0  0  0  0  0  0  0  0  0  0
    5.9450    5.8575    0.0000 H   0  0  0  0  0  0  0  0  0  0  0  0
  1 15  1  0  0  0  0
  1 16  1  0  0  0  0
  2 16  1  0  0  0  0
  2 18  1  0  0  0  0
  3 12  1  0  0  0  0
  3 40  1  0  0  0  0
  4 13  1  0  0  0  0
  4 41  1  0  0  0  0
  5 14  1  0  0  0  0
  5 42  1  0  0  0  0
  6 17  1  0  0  0  0
  6 43  1  0  0  0  0
  7 21  1  0  0  0  0
  7 25  1  0  0  0  0
  8 23  1  0  0  0  0
  8 47  1  0  0  0  0
  9 24  2  0  0  0  0
 10 30  1  0  0  0  0
 10 51  1  0  0  0  0
 11 32  1  0  0  0  0
 11 52  1  0  0  0  0
 12 13  1  0  0  0  0
 12 14  1  0  0  0  0
 12 33  1  0  0  0  0
 13 15  1  0  0  0  0
 13 34  1  0  0  0  0
 14 16  1  0  0  0  0
 14 35  1  0  0  0  0
 15 17  1  0  0  0  0
 15 36  1  0  0  0  0
 16 37  1  0  0  0  0
 17 38  1  0  0  0  0
 17 39  1  0  0  0  0
 18 19  1  0  0  0  0
 18 20  2  0  0  0  0
 19 21  2  0  0  0  0
 19 44  1  0  0  0  0
 20 23  1  0  0  0  0
 20 45  1  0  0  0  0
 21 22  1  0  0  0  0
 22 23  2  0  0  0  0
 22 24  1  0  0  0  0
 24 25  1  0  0  0  0
 25 26  2  0  0  0  0
 26 27  1  0  0  0  0
 26 46  1  0  0  0  0
 27 28  2  0  0  0  0
 27 29  1  0  0  0  0
 28 30  1  0  0  0  0
 28 48  1  0  0  0  0
 29 31  2  0  0  0  0
 29 49  1  0  0  0  0
 30 32  2  0  0  0  0
 31 32  1  0  0  0  0
 31 50  1  0  0  0  0
M  END
>  <PUBCHEM_COMPOUND_CID>
22261310

>  <PUBCHEM_COMPOUND_CANONICALIZED>
1

>  <PUBCHEM_CACTVS_COMPLEXITY>
714

>  <PUBCHEM_CACTVS_HBOND_ACCEPTOR>
11

>  <PUBCHEM_CACTVS_HBOND_DONOR>
7

>  <PUBCHEM_CACTVS_ROTATABLE_BOND>
4

>  <PUBCHEM_CACTVS_SUBSKEYS>
AAADceB4PAAAAAAAAAAAAAAAAAAAASAAAAA0YIAAAAAAAEgBQAAAGgAACAAADBSwmAMwDoAABgCIAqBSAAICCAAkIAAIiAFGiMgdNzaGNR6ieWGl4BUPuYfI7LzOIAABCAAIQABAAAIQABCAAAAAAAAAAA==

>  <PUBCHEM_IUPAC_OPENEYE_NAME>
(2E)-2-[(3,4-dihydroxyphenyl)methylene]-4-hydroxy-6-[3,4,5-trihydroxy-6-(hydroxymethyl)tetrahydropyran-2-yl]oxy-benzofuran-3-one

>  <PUBCHEM_IUPAC_CAS_NAME>
(2E)-2-[(3,4-dihydroxyphenyl)methylidene]-4-hydroxy-6-[[3,4,5-trihydroxy-6-(hydroxymethyl)-2-oxanyl]oxy]-3-benzofuranone

>  <PUBCHEM_IUPAC_NAME>
(2E)-2-[(3,4-dihydroxyphenyl)methylidene]-4-hydroxy-6-[3,4,5-trihydroxy-6-(hydroxymethyl)oxan-2-yl]oxy-1-benzofuran-3-one

>  <PUBCHEM_IUPAC_SYSTEMATIC_NAME>
(2E)-2-[[3,4-bis(oxidanyl)phenyl]methylidene]-6-[6-(hydroxymethyl)-3,4,5-tris(oxidanyl)oxan-2-yl]oxy-4-oxidanyl-1-benzofuran-3-one

>  <PUBCHEM_IUPAC_TRADITIONAL_NAME>
(2E)-2-(3,4-dihydroxybenzylidene)-4-hydroxy-6-(3,4,5-trihydroxy-6-methylol-tetrahydropyran-2-yl)oxy-coumaran-3-one

>  <PUBCHEM_IUPAC_INCHI>
InChI=1S/C21H20O11/c22-7-15-18(27)19(28)20(29)21(32-15)30-9-5-12(25)16-13(6-9)31-14(17(16)26)4-8-1-2-10(23)11(24)3-8/h1-6,15,18-25,27-29H,7H2/b14-4+

>  <PUBCHEM_IUPAC_INCHIKEY>
AMJCTDBATIKENQ-LNKIKWGQSA-N

>  <PUBCHEM_XLOGP3_AA>
0.9

>  <PUBCHEM_EXACT_MASS>
448.101

>  <PUBCHEM_MOLECULAR_FORMULA>
C21H20O11

>  <PUBCHEM_MOLECULAR_WEIGHT>
448.38

>  <PUBCHEM_OPENEYE_CAN_SMILES>
C1=CC(=C(C=C1C=C2C(=O)C3=C(C=C(C=C3O2)OC4C(C(C(C(O4)CO)O)O)O)O)O)O

>  <PUBCHEM_OPENEYE_ISO_SMILES>
C1=CC(=C(C=C1/C=C/2\C(=O)C3=C(C=C(C=C3O2)OC4C(C(C(C(O4)CO)O)O)O)O)O)O

>  <PUBCHEM_CACTVS_TPSA>
186

>  <PUBCHEM_MONOISOTOPIC_WEIGHT>
448.101

>  <PUBCHEM_TOTAL_CHARGE>
0

>  <PUBCHEM_HEAVY_ATOM_COUNT>
32

>  <PUBCHEM_ATOM_DEF_STEREO_COUNT>
0

>  <PUBCHEM_ATOM_UDEF_STEREO_COUNT>
5

>  <PUBCHEM_BOND_DEF_STEREO_COUNT>
1

>  <PUBCHEM_BOND_UDEF_STEREO_COUNT>
0

>  <PUBCHEM_ISOTOPIC_ATOM_COUNT>
0

>  <PUBCHEM_COMPONENT_COUNT>
1

>  <PUBCHEM_CACTVS_TAUTO_COUNT>
77

>  <PUBCHEM_COORDINATE_TYPE>
1
5
255

>  <PUBCHEM_BONDANNOTATIONS>
15  17  3
18  19  8
18  20  8
19  21  8
16  2  3
20  23  8
21  22  8
22  23  8
27  28  8
27  29  8
28  30  8
29  31  8
12  3  3
30  32  8
31  32  8
13  4  3
14  5  3

$$$$
