22288010
 OpenBabel06101807152D

 56 59  0  0  1  0  0  0  0  0999 V2000
    6.3301   -2.7819    0.0000 O   0  0  0  0  0  0  0  0  0  0  0  0
    8.0622   -2.7819    0.0000 O   0  0  0  0  0  0  0  0  0  0  0  0
    4.5981   -4.7819    0.0000 O   0  0  0  0  0  0  0  0  0  0  0  0
    6.3301   -5.7819    0.0000 O   0  0  0  0  0  0  0  0  0  0  0  0
    8.0622   -4.7819    0.0000 O   0  0  0  0  0  0  0  0  0  0  0  0
    3.7320   -3.2819    0.0000 O   0  0  0  0  0  0  0  0  0  0  0  0
    9.8181    0.2806    0.0000 O   0  0  0  0  0  0  0  0  0  0  0  0
    6.3159    0.2973    0.0000 O   0  0  0  0  0  0  0  0  0  0  0  0
    2.8660   -1.7819    0.0000 O   0  0  0  0  0  0  0  0  0  0  0  0
    7.2259    1.7906    0.0000 O   0  0  0  0  0  0  0  0  0  0  0  0
    8.9733    5.7839    0.0000 O   0  0  0  0  0  0  0  0  0  0  0  0
    5.4641   -4.2819    0.0000 C   0  0  3  0  0  0  0  0  0  0  0  0
    6.3301   -4.7819    0.0000 C   0  0  3  0  0  0  0  0  0  0  0  0
    5.4641   -3.2819    0.0000 C   0  0  3  0  0  0  0  0  0  0  0  0
    7.1962   -4.2819    0.0000 C   0  0  3  0  0  0  0  0  0  0  0  0
    7.1962   -3.2819    0.0000 C   0  0  3  0  0  0  0  0  0  0  0  0
    4.5981   -2.7819    0.0000 C   0  0  0  0  0  0  0  0  0  0  0  0
    8.0622   -1.7819    0.0000 C   0  0  0  0  0  0  0  0  0  0  0  0
    8.9622   -1.2576    0.0000 C   0  0  0  0  0  0  0  0  0  0  0  0
    7.1621   -1.2576    0.0000 C   0  0  0  0  0  0  0  0  0  0  0  0
    8.9502   -0.2160    0.0000 C   0  0  0  0  0  0  0  0  0  0  0  0
    8.0861    0.2873    0.0000 C   0  0  0  0  0  0  0  0  0  0  0  0
    7.1742   -0.2160    0.0000 C   0  0  0  0  0  0  0  0  0  0  0  0
    2.8660   -2.7819    0.0000 C   0  0  0  0  0  0  0  0  0  0  0  0
    8.0900    1.2873    0.0000 C   0  0  0  0  0  0  0  0  0  0  0  0
    8.9579    1.7840    0.0000 C   0  0  0  0  0  0  0  0  0  0  0  0
    2.0000   -3.2819    0.0000 C   0  0  0  0  0  0  0  0  0  0  0  0
    9.8220    1.2806    0.0000 C   0  0  0  0  0  0  0  0  0  0  0  0
    8.9618    2.7840    0.0000 C   0  0  0  0  0  0  0  0  0  0  0  0
    9.8297    3.2806    0.0000 C   0  0  0  0  0  0  0  0  0  0  0  0
    8.0977    3.2873    0.0000 C   0  0  0  0  0  0  0  0  0  0  0  0
    9.8336    4.2806    0.0000 C   0  0  0  0  0  0  0  0  0  0  0  0
    8.1015    4.2873    0.0000 C   0  0  0  0  0  0  0  0  0  0  0  0
    8.9695    4.7840    0.0000 C   0  0  0  0  0  0  0  0  0  0  0  0
    5.4641   -4.9019    0.0000 H   0  0  0  0  0  0  0  0  0  0  0  0
    6.8671   -5.0919    0.0000 H   0  0  0  0  0  0  0  0  0  0  0  0
    5.4641   -2.6619    0.0000 H   0  0  0  0  0  0  0  0  0  0  0  0
    7.7331   -3.9719    0.0000 H   0  0  0  0  0  0  0  0  0  0  0  0
    7.1962   -2.6619    0.0000 H   0  0  0  0  0  0  0  0  0  0  0  0
    4.9966   -2.3069    0.0000 H   0  0  0  0  0  0  0  0  0  0  0  0
    4.1996   -2.3069    0.0000 H   0  0  0  0  0  0  0  0  0  0  0  0
    4.5981   -5.4019    0.0000 H   0  0  0  0  0  0  0  0  0  0  0  0
    5.7932   -6.0919    0.0000 H   0  0  0  0  0  0  0  0  0  0  0  0
    8.0622   -5.4019    0.0000 H   0  0  0  0  0  0  0  0  0  0  0  0
    9.5016   -1.5634    0.0000 H   0  0  0  0  0  0  0  0  0  0  0  0
    6.6228   -1.5634    0.0000 H   0  0  0  0  0  0  0  0  0  0  0  0
    1.6900   -2.7449    0.0000 H   0  0  0  0  0  0  0  0  0  0  0  0
    1.4631   -3.5919    0.0000 H   0  0  0  0  0  0  0  0  0  0  0  0
    2.3100   -3.8188    0.0000 H   0  0  0  0  0  0  0  0  0  0  0  0
   10.3601    1.5886    0.0000 H   0  0  0  0  0  0  0  0  0  0  0  0
    5.7743   -0.0044    0.0000 H   0  0  0  0  0  0  0  0  0  0  0  0
   10.3654    2.9686    0.0000 H   0  0  0  0  0  0  0  0  0  0  0  0
    7.5595    2.9794    0.0000 H   0  0  0  0  0  0  0  0  0  0  0  0
   10.3717    4.5885    0.0000 H   0  0  0  0  0  0  0  0  0  0  0  0
    7.5658    4.5994    0.0000 H   0  0  0  0  0  0  0  0  0  0  0  0
    9.5114    6.0919    0.0000 H   0  0  0  0  0  0  0  0  0  0  0  0
  1 14  1  0  0  0  0
  1 16  1  0  0  0  0
  2 16  1  0  0  0  0
  2 18  1  0  0  0  0
  3 12  1  0  0  0  0
  3 42  1  0  0  0  0
  4 13  1  0  0  0  0
  4 43  1  0  0  0  0
  5 15  1  0  0  0  0
  5 44  1  0  0  0  0
  6 17  1  0  0  0  0
  6 24  1  0  0  0  0
  7 21  1  0  0  0  0
  7 28  1  0  0  0  0
  8 23  1  0  0  0  0
  8 51  1  0  0  0  0
  9 24  2  0  0  0  0
 10 25  2  0  0  0  0
 11 34  1  0  0  0  0
 11 56  1  0  0  0  0
 12 13  1  0  0  0  0
 12 14  1  0  0  0  0
 12 35  1  0  0  0  0
 13 15  1  0  0  0  0
 13 36  1  0  0  0  0
 14 17  1  0  0  0  0
 14 37  1  0  0  0  0
 15 16  1  0  0  0  0
 15 38  1  0  0  0  0
 16 39  1  0  0  0  0
 17 40  1  0  0  0  0
 17 41  1  0  0  0  0
 18 19  1  0  0  0  0
 18 20  2  0  0  0  0
 19 21  2  0  0  0  0
 19 45  1  0  0  0  0
 20 23  1  0  0  0  0
 20 46  1  0  0  0  0
 21 22  1  0  0  0  0
 22 23  2  0  0  0  0
 22 25  1  0  0  0  0
 24 27  1  0  0  0  0
 25 26  1  0  0  0  0
 26 28  2  0  0  0  0
 26 29  1  0  0  0  0
 27 47  1  0  0  0  0
 27 48  1  0  0  0  0
 27 49  1  0  0  0  0
 28 50  1  0  0  0  0
 29 30  2  0  0  0  0
 29 31  1  0  0  0  0
 30 32  1  0  0  0  0
 30 52  1  0  0  0  0
 31 33  2  0  0  0  0
 31 53  1  0  0  0  0
 32 34  2  0  0  0  0
 32 54  1  0  0  0  0
 33 34  1  0  0  0  0
 33 55  1  0  0  0  0
M  END
>  <PUBCHEM_COMPOUND_CID>
22288010

>  <PUBCHEM_COMPOUND_CANONICALIZED>
1

>  <PUBCHEM_CACTVS_COMPLEXITY>
777

>  <PUBCHEM_CACTVS_HBOND_ACCEPTOR>
11

>  <PUBCHEM_CACTVS_HBOND_DONOR>
5

>  <PUBCHEM_CACTVS_ROTATABLE_BOND>
6

>  <PUBCHEM_CACTVS_SUBSKEYS>
AAADceB4PAAAAAAAAAAAAAAAAAAAAAAAAAA0YIEAAAAAAACBQAAAGgAACAAADBSwmAMyDoAABgCIAqDSCAACCAAkIAAIiAEGCMgdNzaGNRqieWCl4BUPuYfI7PzOIAAACAAIAABAAAAQABAAAAAAAAAAAA==

>  <PUBCHEM_IUPAC_OPENEYE_NAME>
[3,4,5-trihydroxy-6-[5-hydroxy-3-(4-hydroxyphenyl)-4-oxo-chromen-7-yl]oxy-tetrahydropyran-2-yl]methyl acetate

>  <PUBCHEM_IUPAC_CAS_NAME>
acetic acid [3,4,5-trihydroxy-6-[[5-hydroxy-3-(4-hydroxyphenyl)-4-oxo-1-benzopyran-7-yl]oxy]-2-oxanyl]methyl ester

>  <PUBCHEM_IUPAC_NAME>
[3,4,5-trihydroxy-6-[5-hydroxy-3-(4-hydroxyphenyl)-4-oxochromen-7-yl]oxyoxan-2-yl]methyl acetate

>  <PUBCHEM_IUPAC_SYSTEMATIC_NAME>
[6-[3-(4-hydroxyphenyl)-5-oxidanyl-4-oxidanylidene-chromen-7-yl]oxy-3,4,5-tris(oxidanyl)oxan-2-yl]methyl ethanoate

>  <PUBCHEM_IUPAC_TRADITIONAL_NAME>
acetic acid [3,4,5-trihydroxy-6-[5-hydroxy-3-(4-hydroxyphenyl)-4-keto-chromen-7-yl]oxy-tetrahydropyran-2-yl]methyl ester

>  <PUBCHEM_IUPAC_INCHI>
InChI=1S/C23H22O11/c1-10(24)31-9-17-20(28)21(29)22(30)23(34-17)33-13-6-15(26)18-16(7-13)32-8-14(19(18)27)11-2-4-12(25)5-3-11/h2-8,17,20-23,25-26,28-30H,9H2,1H3

>  <PUBCHEM_IUPAC_INCHIKEY>
DXWGBJJLEDQBKS-UHFFFAOYSA-N

>  <PUBCHEM_XLOGP3_AA>
0.9

>  <PUBCHEM_EXACT_MASS>
474.116

>  <PUBCHEM_MOLECULAR_FORMULA>
C23H22O11

>  <PUBCHEM_MOLECULAR_WEIGHT>
474.418

>  <PUBCHEM_OPENEYE_CAN_SMILES>
CC(=O)OCC1C(C(C(C(O1)OC2=CC(=C3C(=C2)OC=C(C3=O)C4=CC=C(C=C4)O)O)O)O)O

>  <PUBCHEM_OPENEYE_ISO_SMILES>
CC(=O)OCC1C(C(C(C(O1)OC2=CC(=C3C(=C2)OC=C(C3=O)C4=CC=C(C=C4)O)O)O)O)O

>  <PUBCHEM_CACTVS_TPSA>
172

>  <PUBCHEM_MONOISOTOPIC_WEIGHT>
474.116

>  <PUBCHEM_TOTAL_CHARGE>
0

>  <PUBCHEM_HEAVY_ATOM_COUNT>
34

>  <PUBCHEM_ATOM_DEF_STEREO_COUNT>
0

>  <PUBCHEM_ATOM_UDEF_STEREO_COUNT>
5

>  <PUBCHEM_BOND_DEF_STEREO_COUNT>
0

>  <PUBCHEM_BOND_UDEF_STEREO_COUNT>
0

>  <PUBCHEM_ISOTOPIC_ATOM_COUNT>
0

>  <PUBCHEM_COMPONENT_COUNT>
1

>  <PUBCHEM_CACTVS_TAUTO_COUNT>
10

>  <PUBCHEM_COORDINATE_TYPE>
1
5
255

>  <PUBCHEM_BONDANNOTATIONS>
14  17  3
18  19  8
18  20  8
19  21  8
16  2  3
20  23  8
21  22  8
22  23  8
22  25  8
25  26  8
26  28  8
29  30  8
29  31  8
12  3  3
30  32  8
31  33  8
32  34  8
33  34  8
13  4  3
15  5  3
7  21  8
7  28  8

$$$$
