22753774
 OpenBabel06101807152D

 30 32  0  0  0  0  0  0  0  0999 V2000
    3.7817    0.9160    0.0000 O   0  0  0  0  0  0  0  0  0  0  0  0
    8.1821    1.4265    0.0000 O   0  0  0  0  0  0  0  0  0  0  0  0
    6.4082    2.4507    0.0000 O   0  0  0  0  0  0  0  0  0  0  0  0
    2.0000   -2.1427    0.0000 O   0  0  0  0  0  0  0  0  0  0  0  0
    6.3961   -1.6186    0.0000 C   0  0  0  0  0  0  0  0  0  0  0  0
    5.5301   -2.1186    0.0000 C   0  0  0  0  0  0  0  0  0  0  0  0
    6.3961   -0.6186    0.0000 C   0  0  0  0  0  0  0  0  0  0  0  0
    4.6641   -1.6186    0.0000 C   0  0  0  0  0  0  0  0  0  0  0  0
    4.6641   -0.6186    0.0000 C   0  0  0  0  0  0  0  0  0  0  0  0
    5.5301   -0.1186    0.0000 C   0  0  0  0  0  0  0  0  0  0  0  0
    3.7702   -0.0839    0.0000 C   0  0  0  0  0  0  0  0  0  0  0  0
    7.3062   -0.1117    0.0000 C   0  0  0  0  0  0  0  0  0  0  0  0
    3.7702   -2.1532    0.0000 C   0  0  0  0  0  0  0  0  0  0  0  0
    5.5141    0.9229    0.0000 C   0  0  0  0  0  0  0  0  0  0  0  0
    7.3142    0.9299    0.0000 C   0  0  0  0  0  0  0  0  0  0  0  0
    6.4121    1.4507    0.0000 C   0  0  0  0  0  0  0  0  0  0  0  0
    2.8641   -1.6394    0.0000 C   0  0  0  0  0  0  0  0  0  0  0  0
    2.8641   -0.5978    0.0000 C   0  0  0  0  0  0  0  0  0  0  0  0
    6.6082   -2.2012    0.0000 H   0  0  0  0  0  0  0  0  0  0  0  0
    7.0067   -1.5109    0.0000 H   0  0  0  0  0  0  0  0  0  0  0  0
    5.1316   -2.5935    0.0000 H   0  0  0  0  0  0  0  0  0  0  0  0
    5.9286   -2.5935    0.0000 H   0  0  0  0  0  0  0  0  0  0  0  0
    7.8395   -0.4279    0.0000 H   0  0  0  0  0  0  0  0  0  0  0  0
    3.7773   -2.7732    0.0000 H   0  0  0  0  0  0  0  0  0  0  0  0
    4.9736    1.2267    0.0000 H   0  0  0  0  0  0  0  0  0  0  0  0
    2.3284   -0.2857    0.0000 H   0  0  0  0  0  0  0  0  0  0  0  0
    3.2484    1.2322    0.0000 H   0  0  0  0  0  0  0  0  0  0  0  0
    8.7179    1.1144    0.0000 H   0  0  0  0  0  0  0  0  0  0  0  0
    6.9440    2.7627    0.0000 H   0  0  0  0  0  0  0  0  0  0  0  0
    2.0024   -2.7627    0.0000 H   0  0  0  0  0  0  0  0  0  0  0  0
  1 11  1  0  0  0  0
  1 27  1  0  0  0  0
  2 15  1  0  0  0  0
  2 28  1  0  0  0  0
  3 16  1  0  0  0  0
  3 29  1  0  0  0  0
  4 17  1  0  0  0  0
  4 30  1  0  0  0  0
  5  6  1  0  0  0  0
  5  7  1  0  0  0  0
  5 19  1  0  0  0  0
  5 20  1  0  0  0  0
  6  8  1  0  0  0  0
  6 21  1  0  0  0  0
  6 22  1  0  0  0  0
  7 10  1  0  0  0  0
  7 12  2  0  0  0  0
  8  9  2  0  0  0  0
  8 13  1  0  0  0  0
  9 10  1  0  0  0  0
  9 11  1  0  0  0  0
 10 14  2  0  0  0  0
 11 18  2  0  0  0  0
 12 15  1  0  0  0  0
 12 23  1  0  0  0  0
 13 17  2  0  0  0  0
 13 24  1  0  0  0  0
 14 16  1  0  0  0  0
 14 25  1  0  0  0  0
 15 16  2  0  0  0  0
 17 18  1  0  0  0  0
 18 26  1  0  0  0  0
M  END
>  <PUBCHEM_COMPOUND_CID>
22753774

>  <PUBCHEM_COMPOUND_CANONICALIZED>
1

>  <PUBCHEM_CACTVS_COMPLEXITY>
308

>  <PUBCHEM_CACTVS_HBOND_ACCEPTOR>
4

>  <PUBCHEM_CACTVS_HBOND_DONOR>
4

>  <PUBCHEM_CACTVS_ROTATABLE_BOND>
0

>  <PUBCHEM_CACTVS_SUBSKEYS>
AAADccBwOAAAAAAAAAAAAAAAAAAAAAAAAAAwYMAAAAAAAADBQAAAGgAACAAADASAmAAwBoAAAgCAAiBCAAACAAAgIAAAiAAGiIgJJyKCERKAcAElwBUJmAeA4PQOoAABCAAYQADAAAYQADCAAAAAAAAAAA==

>  <PUBCHEM_IUPAC_OPENEYE_NAME>
9,10-dihydrophenanthrene-2,3,5,7-tetrol

>  <PUBCHEM_IUPAC_CAS_NAME>
9,10-dihydrophenanthrene-2,3,5,7-tetrol

>  <PUBCHEM_IUPAC_NAME>
9,10-dihydrophenanthrene-2,3,5,7-tetrol

>  <PUBCHEM_IUPAC_SYSTEMATIC_NAME>
9,10-dihydrophenanthrene-2,3,5,7-tetrol

>  <PUBCHEM_IUPAC_TRADITIONAL_NAME>
9,10-dihydrophenanthrene-2,3,5,7-tetrol

>  <PUBCHEM_IUPAC_INCHI>
InChI=1S/C14H12O4/c15-9-3-8-2-1-7-4-11(16)12(17)6-10(7)14(8)13(18)5-9/h3-6,15-18H,1-2H2

>  <PUBCHEM_IUPAC_INCHIKEY>
NIGUICNPKCJLJQ-UHFFFAOYSA-N

>  <PUBCHEM_XLOGP3_AA>
2.4

>  <PUBCHEM_EXACT_MASS>
244.074

>  <PUBCHEM_MOLECULAR_FORMULA>
C14H12O4

>  <PUBCHEM_MOLECULAR_WEIGHT>
244.246

>  <PUBCHEM_OPENEYE_CAN_SMILES>
C1CC2=CC(=C(C=C2C3=C(C=C(C=C31)O)O)O)O

>  <PUBCHEM_OPENEYE_ISO_SMILES>
C1CC2=CC(=C(C=C2C3=C(C=C(C=C31)O)O)O)O

>  <PUBCHEM_CACTVS_TPSA>
80.9

>  <PUBCHEM_MONOISOTOPIC_WEIGHT>
244.074

>  <PUBCHEM_TOTAL_CHARGE>
0

>  <PUBCHEM_HEAVY_ATOM_COUNT>
18

>  <PUBCHEM_ATOM_DEF_STEREO_COUNT>
0

>  <PUBCHEM_ATOM_UDEF_STEREO_COUNT>
0

>  <PUBCHEM_BOND_DEF_STEREO_COUNT>
0

>  <PUBCHEM_BOND_UDEF_STEREO_COUNT>
0

>  <PUBCHEM_ISOTOPIC_ATOM_COUNT>
0

>  <PUBCHEM_COMPONENT_COUNT>
1

>  <PUBCHEM_CACTVS_TAUTO_COUNT>
727

>  <PUBCHEM_COORDINATE_TYPE>
1
5
255

>  <PUBCHEM_BONDANNOTATIONS>
10  14  8
11  18  8
12  15  8
13  17  8
14  16  8
15  16  8
17  18  8
7  10  8
7  12  8
8  13  8
8  9  8
9  11  8

$$$$
