22833652
 OpenBabel06101807152D

 64 68  0  0  1  0  0  0  0  0999 V2000
    6.9609   -0.8707    0.0000 O   0  0  0  0  0  0  0  0  0  0  0  0
    8.3746    1.8327    0.0000 O   0  0  0  0  0  0  0  0  0  0  0  0
    5.5048    0.3532    0.0000 O   0  0  0  0  0  0  0  0  0  0  0  0
    7.5417   -0.8211    0.0000 O   0  0  0  0  0  0  0  0  0  0  0  0
    9.5220   -0.1631    0.0000 O   0  0  0  0  0  0  0  0  0  0  0  0
    8.4214   -1.7810    0.0000 O   0  0  0  0  0  0  0  0  0  0  0  0
    8.8621    3.3578    0.0000 O   0  0  0  0  0  0  0  0  0  0  0  0
    3.9798    0.8407    0.0000 O   0  0  0  0  0  0  0  0  0  0  0  0
    6.8819   -2.5747    0.0000 O   0  0  0  0  0  0  0  0  0  0  0  0
    4.8519    4.6870    0.0000 O   0  0  0  0  0  0  0  0  0  0  0  0
    5.3803    4.8029    0.0000 O   0  0  0  0  0  0  0  0  0  0  0  0
    8.0365    5.9981    0.0000 O   0  0  0  0  0  0  0  0  0  0  0  0
    5.9975    6.1928    0.0000 O   0  0  0  0  0  0  0  0  0  0  0  0
    3.3321    4.8187    0.0000 O   0  0  0  0  0  0  0  0  0  0  0  0
    2.3079    3.0448    0.0000 O   0  0  0  0  0  0  0  0  0  0  0  0
   10.7949   -4.4951    0.0000 O   0  0  0  0  0  0  0  0  0  0  0  0
    7.7159   -6.0825    0.0000 O   0  0  0  0  0  0  0  0  0  0  0  0
    9.7136   -6.1776    0.0000 O   0  0  0  0  0  0  0  0  0  0  0  0
    8.1388    0.8609    0.0000 C   0  0  2  0  0  0  0  0  0  0  0  0
    7.4151    0.1708    0.0000 C   0  0  1  0  0  0  0  0  0  0  0  0
    8.5270   -0.0634    0.0000 C   0  0  1  0  0  0  0  0  0  0  0  0
    6.4332   -0.0184    0.0000 C   0  0  2  0  0  0  0  0  0  0  0  0
    7.9632   -0.8922    0.0000 C   0  0  1  0  0  0  0  0  0  0  0  0
    8.0475    2.7777    0.0000 C   0  0  0  0  0  0  0  0  0  0  0  0
    7.2615    3.3959    0.0000 C   0  0  0  0  0  0  0  0  0  0  0  0
    4.9248    1.1678    0.0000 C   0  0  0  0  0  0  0  0  0  0  0  0
    6.2660    3.4909    0.0000 C   0  0  0  0  0  0  0  0  0  0  0  0
    4.8772    2.1667    0.0000 C   0  0  0  0  0  0  0  0  0  0  0  0
    5.3772    3.0327    0.0000 C   0  0  0  0  0  0  0  0  0  0  0  0
    7.8807   -2.6223    0.0000 C   0  0  0  0  0  0  0  0  0  0  0  0
    7.8787    4.2350    0.0000 C   0  0  0  0  0  0  0  0  0  0  0  0
    5.8188    4.4316    0.0000 C   0  0  0  0  0  0  0  0  0  0  0  0
    4.8703    3.9427    0.0000 C   0  0  0  0  0  0  0  0  0  0  0  0
    3.8357    2.1506    0.0000 C   0  0  0  0  0  0  0  0  0  0  0  0
    8.3390   -3.5111    0.0000 C   0  0  0  0  0  0  0  0  0  0  0  0
    7.4533    5.1858    0.0000 C   0  0  0  0  0  0  0  0  0  0  0  0
    6.4164    5.2848    0.0000 C   0  0  0  0  0  0  0  0  0  0  0  0
    3.8287    3.9507    0.0000 C   0  0  0  0  0  0  0  0  0  0  0  0
    3.3079    3.0487    0.0000 C   0  0  0  0  0  0  0  0  0  0  0  0
    7.7983   -4.3524    0.0000 C   0  0  0  0  0  0  0  0  0  0  0  0
    9.3378   -3.5587    0.0000 C   0  0  0  0  0  0  0  0  0  0  0  0
    9.7960   -4.4476    0.0000 C   0  0  0  0  0  0  0  0  0  0  0  0
    8.2566   -5.2412    0.0000 C   0  0  0  0  0  0  0  0  0  0  0  0
    9.2554   -5.2888    0.0000 C   0  0  0  0  0  0  0  0  0  0  0  0
    7.4027    1.2859    0.0000 H   0  0  0  0  0  0  0  0  0  0  0  0
    7.9994   -0.0366    0.0000 H   0  0  0  0  0  0  0  0  0  0  0  0
    8.7892   -0.6251    0.0000 H   0  0  0  0  0  0  0  0  0  0  0  0
    5.8865   -0.6693    0.0000 H   0  0  0  0  0  0  0  0  0  0  0  0
    7.6348   -1.4181    0.0000 H   0  0  0  0  0  0  0  0  0  0  0  0
    7.3022   -1.3930    0.0000 H   0  0  0  0  0  0  0  0  0  0  0  0
    9.7769   -0.7283    0.0000 H   0  0  0  0  0  0  0  0  0  0  0  0
    8.4952    4.1689    0.0000 H   0  0  0  0  0  0  0  0  0  0  0  0
    3.5319    1.6101    0.0000 H   0  0  0  0  0  0  0  0  0  0  0  0
    7.1790   -4.3229    0.0000 H   0  0  0  0  0  0  0  0  0  0  0  0
    9.6730   -3.0371    0.0000 H   0  0  0  0  0  0  0  0  0  0  0  0
    4.4944    5.1935    0.0000 H   0  0  0  0  0  0  0  0  0  0  0  0
    5.2797    5.4147    0.0000 H   0  0  0  0  0  0  0  0  0  0  0  0
    8.6535    5.9368    0.0000 H   0  0  0  0  0  0  0  0  0  0  0  0
    6.3552    6.6992    0.0000 H   0  0  0  0  0  0  0  0  0  0  0  0
    2.7121    4.8211    0.0000 H   0  0  0  0  0  0  0  0  0  0  0  0
    2.0000    2.5067    0.0000 H   0  0  0  0  0  0  0  0  0  0  0  0
   11.0790   -5.0462    0.0000 H   0  0  0  0  0  0  0  0  0  0  0  0
    7.0966   -6.0530    0.0000 H   0  0  0  0  0  0  0  0  0  0  0  0
    9.3784   -6.6992    0.0000 H   0  0  0  0  0  0  0  0  0  0  0  0
  1 22  1  0  0  0  0
  1 23  1  0  0  0  0
  2 19  1  0  0  0  0
  2 24  1  0  0  0  0
  3 22  1  0  0  0  0
  3 26  1  0  0  0  0
  4 50  1  0  0  0  0
  5 51  1  0  0  0  0
  6 30  1  0  0  0  0
  7 24  2  0  0  0  0
  8 26  2  0  0  0  0
  9 30  2  0  0  0  0
 10 32  1  0  0  0  0
 10 56  1  0  0  0  0
 11 33  1  0  0  0  0
 11 57  1  0  0  0  0
 12 36  1  0  0  0  0
 12 58  1  0  0  0  0
 13 37  1  0  0  0  0
 13 59  1  0  0  0  0
 14 38  1  0  0  0  0
 14 60  1  0  0  0  0
 15 39  1  0  0  0  0
 15 61  1  0  0  0  0
 16 42  1  0  0  0  0
 16 62  1  0  0  0  0
 17 43  1  0  0  0  0
 17 63  1  0  0  0  0
 18 44  1  0  0  0  0
 18 64  1  0  0  0  0
 19 20  1  1  0  0  0
 19 45  1  0  0  0  0
 20  4  1  0  0  0  0
 20 22  1  1  0  0  0
 20 46  1  0  0  0  0
 21  5  1  0  0  0  0
 21 19  1  1  0  0  0
 21 47  1  0  0  0  0
 22 48  1  1  0  0  0
 23  6  1  0  0  0  0
 23 21  1  1  0  0  0
 23 49  1  0  0  0  0
 24 25  1  0  0  0  0
 25 27  1  0  0  0  0
 25 31  2  0  0  0  0
 26 28  1  0  0  0  0
 27 29  1  0  0  0  0
 27 32  2  0  0  0  0
 28 29  1  0  0  0  0
 28 34  2  0  0  0  0
 29 33  2  0  0  0  0
 30 35  1  0  0  0  0
 31 36  1  0  0  0  0
 31 52  1  0  0  0  0
 32 37  1  0  0  0  0
 33 38  1  0  0  0  0
 34 39  1  0  0  0  0
 34 53  1  0  0  0  0
 35 40  2  0  0  0  0
 35 41  1  0  0  0  0
 36 37  2  0  0  0  0
 38 39  2  0  0  0  0
 40 43  1  0  0  0  0
 40 54  1  0  0  0  0
 41 42  2  0  0  0  0
 41 55  1  0  0  0  0
 42 44  1  0  0  0  0
 43 44  2  0  0  0  0
M  END
>  <PUBCHEM_COMPOUND_CID>
22833652

>  <PUBCHEM_COMPOUND_CANONICALIZED>
1

>  <PUBCHEM_CACTVS_COMPLEXITY>
1080

>  <PUBCHEM_CACTVS_HBOND_ACCEPTOR>
18

>  <PUBCHEM_CACTVS_HBOND_DONOR>
11

>  <PUBCHEM_CACTVS_ROTATABLE_BOND>
3

>  <PUBCHEM_CACTVS_SUBSKEYS>
AAADceB4PgAAAAAAAAAAAAAAAAAAAAAAAAA0YMEAAAAAAAABUAAAGgAACAAADBSwmAMwDoAABgCIAiDSCAACAAAkIAAAiAEGiMgZNzKCNRqicQElwBUPuYfK7PzOoAABCAAYQABAAAIQADCAAAAAAAAAAA==

>  <PUBCHEM_IUPAC_INCHI>
InChI=1S/C26H20O18/c27-8-1-5(2-9(28)14(8)31)22(38)42-25-19(36)21-20(37)26(44-25)43-24(40)7-4-11(30)16(33)18(35)13(7)12-6(23(39)41-21)3-10(29)15(32)17(12)34/h1-4,19-21,25-37H/t19-,20-,21-,25+,26-/m0/s1

>  <PUBCHEM_IUPAC_INCHIKEY>
VXMKYRQZQXVKGB-CWWHNZPOSA-N

>  <PUBCHEM_XLOGP3_AA>
0.2

>  <PUBCHEM_EXACT_MASS>
620.065

>  <PUBCHEM_MOLECULAR_FORMULA>
C26H20O18

>  <PUBCHEM_MOLECULAR_WEIGHT>
620.428

>  <PUBCHEM_OPENEYE_CAN_SMILES>
C1=C(C=C(C(=C1O)O)O)C(=O)OC2C(C3C(C(O2)OC(=O)C4=CC(=C(C(=C4C5=C(C(=C(C=C5C(=O)O3)O)O)O)O)O)O)O)O

>  <PUBCHEM_OPENEYE_ISO_SMILES>
C1=C(C=C(C(=C1O)O)O)C(=O)O[C@H]2[C@H]([C@H]3[C@@H]([C@H](O2)OC(=O)C4=CC(=C(C(=C4C5=C(C(=C(C=C5C(=O)O3)O)O)O)O)O)O)O)O

>  <PUBCHEM_CACTVS_TPSA>
311

>  <PUBCHEM_MONOISOTOPIC_WEIGHT>
620.065

>  <PUBCHEM_TOTAL_CHARGE>
0

>  <PUBCHEM_HEAVY_ATOM_COUNT>
44

>  <PUBCHEM_ATOM_DEF_STEREO_COUNT>
5

>  <PUBCHEM_ATOM_UDEF_STEREO_COUNT>
0

>  <PUBCHEM_BOND_DEF_STEREO_COUNT>
0

>  <PUBCHEM_BOND_UDEF_STEREO_COUNT>
0

>  <PUBCHEM_ISOTOPIC_ATOM_COUNT>
0

>  <PUBCHEM_COMPONENT_COUNT>
1

>  <PUBCHEM_CACTVS_TAUTO_COUNT>
998

>  <PUBCHEM_COORDINATE_TYPE>
1
5
255

>  <PUBCHEM_BONDANNOTATIONS>
19  45  6
22  48  5
25  27  8
25  31  8
27  32  8
28  29  8
28  34  8
29  33  8
31  36  8
32  37  8
33  38  8
34  39  8
35  40  8
35  41  8
36  37  8
38  39  8
20  4  6
40  43  8
41  42  8
42  44  8
43  44  8
21  5  6
23  6  6

$$$$
