23136584
 OpenBabel06101807152D

 38 38  0  0  1  0  0  0  0  0999 V2000
    3.3660    0.3655    0.0000 O   0  0  0  0  0  0  0  0  0  0  0  0
    3.8660   -3.5005    0.0000 O   0  0  0  0  0  0  0  0  0  0  0  0
    3.8660    2.9636    0.0000 O   0  0  0  0  0  0  0  0  0  0  0  0
    3.0000   -1.0005    0.0000 C   0  0  0  0  0  0  0  0  0  0  0  0
    3.8660   -0.5005    0.0000 C   0  0  3  0  0  0  0  0  0  0  0  0
    4.7320   -1.0005    0.0000 C   0  0  3  0  0  0  0  0  0  0  0  0
    3.0000   -2.0005    0.0000 C   0  0  0  0  0  0  0  0  0  0  0  0
    4.7320   -2.0005    0.0000 C   0  0  0  0  0  0  0  0  0  0  0  0
    3.8660   -2.5005    0.0000 C   0  0  0  0  0  0  0  0  0  0  0  0
    2.0000   -1.0005    0.0000 C   0  0  0  0  0  0  0  0  0  0  0  0
    2.2340   -0.3577    0.0000 C   0  0  0  0  0  0  0  0  0  0  0  0
    4.3660    0.3655    0.0000 C   0  0  0  0  0  0  0  0  0  0  0  0
    5.5981   -0.5005    0.0000 C   0  0  0  0  0  0  0  0  0  0  0  0
    3.8660    1.2315    0.0000 C   0  0  0  0  0  0  0  0  0  0  0  0
    4.3660    2.0976    0.0000 C   0  0  3  0  0  0  0  0  0  0  0  0
    5.3660    2.0976    0.0000 C   0  0  0  0  0  0  0  0  0  0  0  0
    4.7320   -0.3805    0.0000 H   0  0  0  0  0  0  0  0  0  0  0  0
    2.3894   -1.8929    0.0000 H   0  0  0  0  0  0  0  0  0  0  0  0
    2.7880   -2.5831    0.0000 H   0  0  0  0  0  0  0  0  0  0  0  0
    4.9441   -2.5831    0.0000 H   0  0  0  0  0  0  0  0  0  0  0  0
    5.3426   -1.8929    0.0000 H   0  0  0  0  0  0  0  0  0  0  0  0
    2.0000   -0.3805    0.0000 H   0  0  0  0  0  0  0  0  0  0  0  0
    1.3800   -1.0005    0.0000 H   0  0  0  0  0  0  0  0  0  0  0  0
    2.0000   -1.6205    0.0000 H   0  0  0  0  0  0  0  0  0  0  0  0
    2.6325    0.1172    0.0000 H   0  0  0  0  0  0  0  0  0  0  0  0
    1.7590    0.0408    0.0000 H   0  0  0  0  0  0  0  0  0  0  0  0
    1.8354   -0.8327    0.0000 H   0  0  0  0  0  0  0  0  0  0  0  0
    4.9860    0.3655    0.0000 H   0  0  0  0  0  0  0  0  0  0  0  0
    5.9081   -1.0374    0.0000 H   0  0  0  0  0  0  0  0  0  0  0  0
    6.1350   -0.1905    0.0000 H   0  0  0  0  0  0  0  0  0  0  0  0
    5.2881    0.0364    0.0000 H   0  0  0  0  0  0  0  0  0  0  0  0
    2.7835    0.5777    0.0000 H   0  0  0  0  0  0  0  0  0  0  0  0
    3.2460    1.2315    0.0000 H   0  0  0  0  0  0  0  0  0  0  0  0
    3.7460    2.0976    0.0000 H   0  0  0  0  0  0  0  0  0  0  0  0
    5.3660    1.4776    0.0000 H   0  0  0  0  0  0  0  0  0  0  0  0
    5.9860    2.0976    0.0000 H   0  0  0  0  0  0  0  0  0  0  0  0
    5.3660    2.7176    0.0000 H   0  0  0  0  0  0  0  0  0  0  0  0
    4.1760    3.5005    0.0000 H   0  0  0  0  0  0  0  0  0  0  0  0
  1  5  1  0  0  0  0
  1 32  1  0  0  0  0
  2  9  2  0  0  0  0
  3 15  1  0  0  0  0
  3 38  1  0  0  0  0
  4  5  1  0  0  0  0
  4  7  1  0  0  0  0
  4 10  1  0  0  0  0
  4 11  1  0  0  0  0
  5  6  1  0  0  0  0
  5 12  1  0  0  0  0
  6  8  1  0  0  0  0
  6 13  1  0  0  0  0
  6 17  1  0  0  0  0
  7  9  1  0  0  0  0
  7 18  1  0  0  0  0
  7 19  1  0  0  0  0
  8  9  1  0  0  0  0
  8 20  1  0  0  0  0
  8 21  1  0  0  0  0
 10 22  1  0  0  0  0
 10 23  1  0  0  0  0
 10 24  1  0  0  0  0
 11 25  1  0  0  0  0
 11 26  1  0  0  0  0
 11 27  1  0  0  0  0
 12 14  2  0  0  0  0
 12 28  1  0  0  0  0
 13 29  1  0  0  0  0
 13 30  1  0  0  0  0
 13 31  1  0  0  0  0
 14 15  1  0  0  0  0
 14 33  1  0  0  0  0
 15 16  1  0  0  0  0
 15 34  1  0  0  0  0
 16 35  1  0  0  0  0
 16 36  1  0  0  0  0
 16 37  1  0  0  0  0
M  END
>  <PUBCHEM_COMPOUND_CID>
23136584

>  <PUBCHEM_COMPOUND_CANONICALIZED>
1

>  <PUBCHEM_CACTVS_COMPLEXITY>
306

>  <PUBCHEM_CACTVS_HBOND_ACCEPTOR>
3

>  <PUBCHEM_CACTVS_HBOND_DONOR>
2

>  <PUBCHEM_CACTVS_ROTATABLE_BOND>
2

>  <PUBCHEM_CACTVS_SUBSKEYS>
AAADceBwMAAAAAAAAAAAAAAAAAAAAAAAAAAwAAAAAAAAAAAAAAAAGgAACAAAD1SggAICAAAAAgCIAKBSAAAAAAAgAAAICAEAAAgAFBIAAQAAUAAEgAAIEAOKyOAPgAAAAAAAAAAAAAQAADAAAAAAAAAAAA==

>  <PUBCHEM_IUPAC_OPENEYE_NAME>
4-hydroxy-4-[(E)-3-hydroxybut-1-enyl]-3,3,5-trimethyl-cyclohexanone

>  <PUBCHEM_IUPAC_CAS_NAME>
4-hydroxy-4-[(E)-3-hydroxybut-1-enyl]-3,3,5-trimethyl-1-cyclohexanone

>  <PUBCHEM_IUPAC_NAME>
4-hydroxy-4-[(E)-3-hydroxybut-1-enyl]-3,3,5-trimethylcyclohexan-1-one

>  <PUBCHEM_IUPAC_SYSTEMATIC_NAME>
3,3,5-trimethyl-4-oxidanyl-4-[(E)-3-oxidanylbut-1-enyl]cyclohexan-1-one

>  <PUBCHEM_IUPAC_TRADITIONAL_NAME>
4-hydroxy-4-[(E)-3-hydroxybut-1-enyl]-3,3,5-trimethyl-cyclohexanone

>  <PUBCHEM_IUPAC_INCHI>
InChI=1S/C13H22O3/c1-9-7-11(15)8-12(3,4)13(9,16)6-5-10(2)14/h5-6,9-10,14,16H,7-8H2,1-4H3/b6-5+

>  <PUBCHEM_IUPAC_INCHIKEY>
IHDJYDVWNNFPHR-AATRIKPKSA-N

>  <PUBCHEM_XLOGP3_AA>
0.9

>  <PUBCHEM_EXACT_MASS>
226.157

>  <PUBCHEM_MOLECULAR_FORMULA>
C13H22O3

>  <PUBCHEM_MOLECULAR_WEIGHT>
226.316

>  <PUBCHEM_OPENEYE_CAN_SMILES>
CC1CC(=O)CC(C1(C=CC(C)O)O)(C)C

>  <PUBCHEM_OPENEYE_ISO_SMILES>
CC1CC(=O)CC(C1(/C=C/C(C)O)O)(C)C

>  <PUBCHEM_CACTVS_TPSA>
57.5

>  <PUBCHEM_MONOISOTOPIC_WEIGHT>
226.157

>  <PUBCHEM_TOTAL_CHARGE>
0

>  <PUBCHEM_HEAVY_ATOM_COUNT>
16

>  <PUBCHEM_ATOM_DEF_STEREO_COUNT>
0

>  <PUBCHEM_ATOM_UDEF_STEREO_COUNT>
3

>  <PUBCHEM_BOND_DEF_STEREO_COUNT>
1

>  <PUBCHEM_BOND_UDEF_STEREO_COUNT>
0

>  <PUBCHEM_ISOTOPIC_ATOM_COUNT>
0

>  <PUBCHEM_COMPONENT_COUNT>
1

>  <PUBCHEM_CACTVS_TAUTO_COUNT>
3

>  <PUBCHEM_COORDINATE_TYPE>
1
5
255

>  <PUBCHEM_BONDANNOTATIONS>
5  1  3
15  3  3
6  13  3

$$$$
