231412
 OpenBabel06101807152D

 62 64  0  0  0  0  0  0  0  0999 V2000
    8.1301   -2.0152    0.0000 O   0  0  0  0  0  0  0  0  0  0  0  0
   11.6602    0.0090    0.0000 O   0  0  0  0  0  0  0  0  0  0  0  0
    6.3817    1.0194    0.0000 O   0  0  0  0  0  0  0  0  0  0  0  0
    4.6000   -2.0393    0.0000 O   0  0  0  0  0  0  0  0  0  0  0  0
   11.6602   -2.0393    0.0000 O   0  0  0  0  0  0  0  0  0  0  0  0
    8.1301    0.9848    0.0000 O   0  0  0  0  0  0  0  0  0  0  0  0
    8.9961   -0.5152    0.0000 C   0  0  0  0  0  0  0  0  0  0  0  0
    9.8901    0.0195    0.0000 C   0  0  0  0  0  0  0  0  0  0  0  0
    7.2641   -0.5152    0.0000 C   0  0  0  0  0  0  0  0  0  0  0  0
    8.9961   -1.5152    0.0000 C   0  0  0  0  0  0  0  0  0  0  0  0
    8.1301   -0.0152    0.0000 C   0  0  0  0  0  0  0  0  0  0  0  0
    7.2641   -1.5152    0.0000 C   0  0  0  0  0  0  0  0  0  0  0  0
    5.4641   -0.4944    0.0000 C   0  0  0  0  0  0  0  0  0  0  0  0
    6.3701    0.0195    0.0000 C   0  0  0  0  0  0  0  0  0  0  0  0
    9.8785    1.0194    0.0000 C   0  0  0  0  0  0  0  0  0  0  0  0
   10.7961   -0.4944    0.0000 C   0  0  0  0  0  0  0  0  0  0  0  0
    5.4641   -1.5360    0.0000 C   0  0  0  0  0  0  0  0  0  0  0  0
    9.8901   -2.0498    0.0000 C   0  0  0  0  0  0  0  0  0  0  0  0
    6.3701   -2.0498    0.0000 C   0  0  0  0  0  0  0  0  0  0  0  0
   10.7961   -1.5360    0.0000 C   0  0  0  0  0  0  0  0  0  0  0  0
    4.6000    0.0090    0.0000 C   0  0  0  0  0  0  0  0  0  0  0  0
   10.7387    1.5294    0.0000 C   0  0  0  0  0  0  0  0  0  0  0  0
    3.7320   -0.4877    0.0000 C   0  0  0  0  0  0  0  0  0  0  0  0
   10.7271    2.5293    0.0000 C   0  0  0  0  0  0  0  0  0  0  0  0
    2.8680    0.0157    0.0000 C   0  0  0  0  0  0  0  0  0  0  0  0
   11.5873    3.0393    0.0000 C   0  0  0  0  0  0  0  0  0  0  0  0
    9.8554    3.0193    0.0000 C   0  0  0  0  0  0  0  0  0  0  0  0
   12.5282   -0.4877    0.0000 C   0  0  0  0  0  0  0  0  0  0  0  0
    4.6038   -3.0393    0.0000 C   0  0  0  0  0  0  0  0  0  0  0  0
   11.6564   -3.0393    0.0000 C   0  0  0  0  0  0  0  0  0  0  0  0
    2.0000   -0.4810    0.0000 C   0  0  0  0  0  0  0  0  0  0  0  0
    2.8718    1.0156    0.0000 C   0  0  0  0  0  0  0  0  0  0  0  0
    9.6597    1.5995    0.0000 H   0  0  0  0  0  0  0  0  0  0  0  0
    9.2692    0.9047    0.0000 H   0  0  0  0  0  0  0  0  0  0  0  0
    9.8829   -2.6698    0.0000 H   0  0  0  0  0  0  0  0  0  0  0  0
    6.3773   -2.6698    0.0000 H   0  0  0  0  0  0  0  0  0  0  0  0
    5.0003    0.4824    0.0000 H   0  0  0  0  0  0  0  0  0  0  0  0
    4.2033    0.4855    0.0000 H   0  0  0  0  0  0  0  0  0  0  0  0
   11.2792    1.2256    0.0000 H   0  0  0  0  0  0  0  0  0  0  0  0
    3.7296   -1.1077    0.0000 H   0  0  0  0  0  0  0  0  0  0  0  0
    5.8484    1.3356    0.0000 H   0  0  0  0  0  0  0  0  0  0  0  0
   10.1592    3.5598    0.0000 H   0  0  0  0  0  0  0  0  0  0  0  0
    9.3149    3.3231    0.0000 H   0  0  0  0  0  0  0  0  0  0  0  0
    9.5516    2.4788    0.0000 H   0  0  0  0  0  0  0  0  0  0  0  0
   11.9035    2.5060    0.0000 H   0  0  0  0  0  0  0  0  0  0  0  0
   12.1206    3.3555    0.0000 H   0  0  0  0  0  0  0  0  0  0  0  0
   11.2711    3.5726    0.0000 H   0  0  0  0  0  0  0  0  0  0  0  0
   12.2203   -1.0258    0.0000 H   0  0  0  0  0  0  0  0  0  0  0  0
   13.0663   -0.7956    0.0000 H   0  0  0  0  0  0  0  0  0  0  0  0
   12.8361    0.0504    0.0000 H   0  0  0  0  0  0  0  0  0  0  0  0
    3.9838   -3.0417    0.0000 H   0  0  0  0  0  0  0  0  0  0  0  0
    4.6062   -3.6593    0.0000 H   0  0  0  0  0  0  0  0  0  0  0  0
    5.2238   -3.0369    0.0000 H   0  0  0  0  0  0  0  0  0  0  0  0
   11.0364   -3.0369    0.0000 H   0  0  0  0  0  0  0  0  0  0  0  0
   11.6540   -3.6593    0.0000 H   0  0  0  0  0  0  0  0  0  0  0  0
   12.2764   -3.0417    0.0000 H   0  0  0  0  0  0  0  0  0  0  0  0
    1.6921    0.0571    0.0000 H   0  0  0  0  0  0  0  0  0  0  0  0
    3.4918    1.0133    0.0000 H   0  0  0  0  0  0  0  0  0  0  0  0
    2.8742    1.6356    0.0000 H   0  0  0  0  0  0  0  0  0  0  0  0
    2.2518    1.0180    0.0000 H   0  0  0  0  0  0  0  0  0  0  0  0
    1.4619   -0.7889    0.0000 H   0  0  0  0  0  0  0  0  0  0  0  0
    2.3079   -1.0191    0.0000 H   0  0  0  0  0  0  0  0  0  0  0  0
  1 10  1  0  0  0  0
  1 12  1  0  0  0  0
  2 16  1  0  0  0  0
  2 28  1  0  0  0  0
  3 14  1  0  0  0  0
  3 41  1  0  0  0  0
  4 17  1  0  0  0  0
  4 29  1  0  0  0  0
  5 20  1  0  0  0  0
  5 30  1  0  0  0  0
  6 11  2  0  0  0  0
  7  8  2  0  0  0  0
  7 10  1  0  0  0  0
  7 11  1  0  0  0  0
  8 15  1  0  0  0  0
  8 16  1  0  0  0  0
  9 11  1  0  0  0  0
  9 12  1  0  0  0  0
  9 14  2  0  0  0  0
 10 18  2  0  0  0  0
 12 19  2  0  0  0  0
 13 14  1  0  0  0  0
 13 17  2  0  0  0  0
 13 21  1  0  0  0  0
 15 22  1  0  0  0  0
 15 33  1  0  0  0  0
 15 34  1  0  0  0  0
 16 20  2  0  0  0  0
 17 19  1  0  0  0  0
 18 20  1  0  0  0  0
 18 35  1  0  0  0  0
 19 36  1  0  0  0  0
 21 23  1  0  0  0  0
 21 37  1  0  0  0  0
 21 38  1  0  0  0  0
 22 24  2  0  0  0  0
 22 39  1  0  0  0  0
 23 25  2  0  0  0  0
 23 40  1  0  0  0  0
 24 26  1  0  0  0  0
 24 27  1  0  0  0  0
 25 31  1  0  0  0  0
 25 32  1  0  0  0  0
 26 45  1  0  0  0  0
 26 46  1  0  0  0  0
 26 47  1  0  0  0  0
 27 42  1  0  0  0  0
 27 43  1  0  0  0  0
 27 44  1  0  0  0  0
 28 48  1  0  0  0  0
 28 49  1  0  0  0  0
 28 50  1  0  0  0  0
 29 51  1  0  0  0  0
 29 52  1  0  0  0  0
 29 53  1  0  0  0  0
 30 54  1  0  0  0  0
 30 55  1  0  0  0  0
 30 56  1  0  0  0  0
 31 57  1  0  0  0  0
 31 61  1  0  0  0  0
 31 62  1  0  0  0  0
 32 58  1  0  0  0  0
 32 59  1  0  0  0  0
 32 60  1  0  0  0  0
M  END
>  <PUBCHEM_COMPOUND_CID>
231412

>  <PUBCHEM_COMPOUND_CANONICALIZED>
1

>  <PUBCHEM_CACTVS_COMPLEXITY>
707

>  <PUBCHEM_CACTVS_HBOND_ACCEPTOR>
6

>  <PUBCHEM_CACTVS_HBOND_DONOR>
1

>  <PUBCHEM_CACTVS_ROTATABLE_BOND>
7

>  <PUBCHEM_CACTVS_SUBSKEYS>
AAADceB4OAAAAAAAAAAAAAAAAAAAAAAAAAA0YIAAAAAAAACRQAAAGgAACAAADASAmAIyBoAABgCIAqBSAAACCAAkIAAAiAEGiMgNJzaGNRqCeWKl4BUKuQfK7PzOoQADCAAYQABCAAYQADCAAAAAAAAAAA==

>  <PUBCHEM_IUPAC_OPENEYE_NAME>
1-hydroxy-3,6,7-trimethoxy-2,8-bis(3-methylbut-2-enyl)xanthen-9-one

>  <PUBCHEM_IUPAC_CAS_NAME>
1-hydroxy-3,6,7-trimethoxy-2,8-bis(3-methylbut-2-enyl)-9-xanthenone

>  <PUBCHEM_IUPAC_NAME>
1-hydroxy-3,6,7-trimethoxy-2,8-bis(3-methylbut-2-enyl)xanthen-9-one

>  <PUBCHEM_IUPAC_SYSTEMATIC_NAME>
2,3,6-trimethoxy-1,7-bis(3-methylbut-2-enyl)-8-oxidanyl-xanthen-9-one

>  <PUBCHEM_IUPAC_TRADITIONAL_NAME>
1-hydroxy-3,6,7-trimethoxy-2,8-bis(3-methylbut-2-enyl)xanthone

>  <PUBCHEM_IUPAC_INCHI>
InChI=1S/C26H30O6/c1-14(2)8-10-16-18(29-5)12-20-23(24(16)27)25(28)22-17(11-9-15(3)4)26(31-7)21(30-6)13-19(22)32-20/h8-9,12-13,27H,10-11H2,1-7H3

>  <PUBCHEM_IUPAC_INCHIKEY>
FCIKYGUVHWZSJV-UHFFFAOYSA-N

>  <PUBCHEM_XLOGP3_AA>
6.9

>  <PUBCHEM_EXACT_MASS>
438.204

>  <PUBCHEM_MOLECULAR_FORMULA>
C26H30O6

>  <PUBCHEM_MOLECULAR_WEIGHT>
438.52

>  <PUBCHEM_OPENEYE_CAN_SMILES>
CC(=CCC1=C(C=C2C(=C1O)C(=O)C3=C(C(=C(C=C3O2)OC)OC)CC=C(C)C)OC)C

>  <PUBCHEM_OPENEYE_ISO_SMILES>
CC(=CCC1=C(C=C2C(=C1O)C(=O)C3=C(C(=C(C=C3O2)OC)OC)CC=C(C)C)OC)C

>  <PUBCHEM_CACTVS_TPSA>
74.2

>  <PUBCHEM_MONOISOTOPIC_WEIGHT>
438.204

>  <PUBCHEM_TOTAL_CHARGE>
0

>  <PUBCHEM_HEAVY_ATOM_COUNT>
32

>  <PUBCHEM_ATOM_DEF_STEREO_COUNT>
0

>  <PUBCHEM_ATOM_UDEF_STEREO_COUNT>
0

>  <PUBCHEM_BOND_DEF_STEREO_COUNT>
0

>  <PUBCHEM_BOND_UDEF_STEREO_COUNT>
0

>  <PUBCHEM_ISOTOPIC_ATOM_COUNT>
0

>  <PUBCHEM_COMPONENT_COUNT>
1

>  <PUBCHEM_CACTVS_TAUTO_COUNT>
24

>  <PUBCHEM_COORDINATE_TYPE>
1
5
255

>  <PUBCHEM_BONDANNOTATIONS>
1  10  8
1  12  8
10  18  8
12  19  8
13  14  8
13  17  8
16  20  8
17  19  8
18  20  8
7  10  8
7  11  8
7  8  8
8  16  8
9  11  8
9  12  8
9  14  8

$$$$
