23258406
 OpenBabel06101807152D

 99100  0  0  1  0  0  0  0  0999 V2000
   17.6837    5.7412    0.0000 O   0  0  0  0  0  0  0  0  0  0  0  0
   16.8564    1.6539    0.0000 O   0  0  0  0  0  0  0  0  0  0  0  0
    3.8660   -5.8461    0.0000 O   0  0  0  0  0  0  0  0  0  0  0  0
   18.7006    3.3618    0.0000 C   0  0  0  0  0  0  0  0  0  0  0  0
   17.7224    3.1539    0.0000 C   0  0  2  0  0  0  0  0  0  0  0  0
   18.8051    4.3563    0.0000 C   0  0  0  0  0  0  0  0  0  0  0  0
   17.2224    4.0199    0.0000 C   0  0  0  0  0  0  0  0  0  0  0  0
   17.8916    4.7631    0.0000 C   0  0  1  0  0  0  0  0  0  0  0  0
   19.6951    3.2573    0.0000 C   0  0  0  0  0  0  0  0  0  0  0  0
   18.9085    2.3837    0.0000 C   0  0  0  0  0  0  0  0  0  0  0  0
   17.9303    2.1758    0.0000 C   0  0  0  0  0  0  0  0  0  0  0  0
   16.8564    2.6539    0.0000 C   0  0  0  0  0  0  0  0  0  0  0  0
   15.9904    3.1539    0.0000 C   0  0  0  0  0  0  0  0  0  0  0  0
   15.1244    2.6539    0.0000 C   0  0  0  0  0  0  0  0  0  0  0  0
    3.0000   -3.3461    0.0000 C   0  0  0  0  0  0  0  0  0  0  0  0
    3.0000   -4.3461    0.0000 C   0  0  0  0  0  0  0  0  0  0  0  0
    3.8660   -4.8461    0.0000 C   0  0  1  0  0  0  0  0  0  0  0  0
   14.2583    3.1539    0.0000 C   0  0  0  0  0  0  0  0  0  0  0  0
    3.8660   -2.8461    0.0000 C   0  0  0  0  0  0  0  0  0  0  0  0
    4.7320   -4.3461    0.0000 C   0  0  0  0  0  0  0  0  0  0  0  0
    4.7320   -3.3461    0.0000 C   0  0  0  0  0  0  0  0  0  0  0  0
    2.0000   -3.3461    0.0000 C   0  0  0  0  0  0  0  0  0  0  0  0
    2.5000   -2.4801    0.0000 C   0  0  0  0  0  0  0  0  0  0  0  0
   14.2583    4.1539    0.0000 C   0  0  0  0  0  0  0  0  0  0  0  0
    3.8660   -1.8461    0.0000 C   0  0  0  0  0  0  0  0  0  0  0  0
    5.5981   -2.8461    0.0000 C   0  0  0  0  0  0  0  0  0  0  0  0
   13.3923    2.6539    0.0000 C   0  0  0  0  0  0  0  0  0  0  0  0
    4.7320   -1.3461    0.0000 C   0  0  0  0  0  0  0  0  0  0  0  0
   12.5263    3.1539    0.0000 C   0  0  0  0  0  0  0  0  0  0  0  0
    4.7320   -0.3461    0.0000 C   0  0  0  0  0  0  0  0  0  0  0  0
   11.6603    2.6539    0.0000 C   0  0  0  0  0  0  0  0  0  0  0  0
    3.8660    0.1539    0.0000 C   0  0  0  0  0  0  0  0  0  0  0  0
    5.5981    0.1539    0.0000 C   0  0  0  0  0  0  0  0  0  0  0  0
   10.7942    3.1539    0.0000 C   0  0  0  0  0  0  0  0  0  0  0  0
    5.5981    1.1539    0.0000 C   0  0  0  0  0  0  0  0  0  0  0  0
   10.7942    4.1539    0.0000 C   0  0  0  0  0  0  0  0  0  0  0  0
    9.9282    2.6539    0.0000 C   0  0  0  0  0  0  0  0  0  0  0  0
    6.4641    1.6539    0.0000 C   0  0  0  0  0  0  0  0  0  0  0  0
    9.0622    3.1539    0.0000 C   0  0  0  0  0  0  0  0  0  0  0  0
    6.4641    2.6539    0.0000 C   0  0  0  0  0  0  0  0  0  0  0  0
    7.3301    3.1539    0.0000 C   0  0  0  0  0  0  0  0  0  0  0  0
    8.1962    2.6539    0.0000 C   0  0  0  0  0  0  0  0  0  0  0  0
    5.5981    3.1539    0.0000 C   0  0  0  0  0  0  0  0  0  0  0  0
   19.4116    4.2274    0.0000 H   0  0  0  0  0  0  0  0  0  0  0  0
   18.9967    4.9460    0.0000 H   0  0  0  0  0  0  0  0  0  0  0  0
   16.8076    4.4807    0.0000 H   0  0  0  0  0  0  0  0  0  0  0  0
   16.7208    3.6555    0.0000 H   0  0  0  0  0  0  0  0  0  0  0  0
   18.3734    5.1533    0.0000 H   0  0  0  0  0  0  0  0  0  0  0  0
   18.3020    2.2548    0.0000 H   0  0  0  0  0  0  0  0  0  0  0  0
   19.0374    1.7772    0.0000 H   0  0  0  0  0  0  0  0  0  0  0  0
   19.5149    2.5126    0.0000 H   0  0  0  0  0  0  0  0  0  0  0  0
   19.6303    2.6407    0.0000 H   0  0  0  0  0  0  0  0  0  0  0  0
   20.3117    3.1925    0.0000 H   0  0  0  0  0  0  0  0  0  0  0  0
   19.7599    3.8739    0.0000 H   0  0  0  0  0  0  0  0  0  0  0  0
   17.3239    2.0469    0.0000 H   0  0  0  0  0  0  0  0  0  0  0  0
   18.0592    1.5693    0.0000 H   0  0  0  0  0  0  0  0  0  0  0  0
   18.5368    2.3047    0.0000 H   0  0  0  0  0  0  0  0  0  0  0  0
   18.1444    6.1561    0.0000 H   0  0  0  0  0  0  0  0  0  0  0  0
   15.9904    3.7739    0.0000 H   0  0  0  0  0  0  0  0  0  0  0  0
   15.1244    2.0339    0.0000 H   0  0  0  0  0  0  0  0  0  0  0  0
    2.3894   -4.2384    0.0000 H   0  0  0  0  0  0  0  0  0  0  0  0
    2.7880   -4.9287    0.0000 H   0  0  0  0  0  0  0  0  0  0  0  0
    4.4030   -5.1561    0.0000 H   0  0  0  0  0  0  0  0  0  0  0  0
    4.9441   -4.9287    0.0000 H   0  0  0  0  0  0  0  0  0  0  0  0
    5.3426   -4.2384    0.0000 H   0  0  0  0  0  0  0  0  0  0  0  0
    2.0000   -2.7261    0.0000 H   0  0  0  0  0  0  0  0  0  0  0  0
    1.3800   -3.3461    0.0000 H   0  0  0  0  0  0  0  0  0  0  0  0
    2.0000   -3.9661    0.0000 H   0  0  0  0  0  0  0  0  0  0  0  0
    3.0369   -2.1701    0.0000 H   0  0  0  0  0  0  0  0  0  0  0  0
    2.1900   -1.9431    0.0000 H   0  0  0  0  0  0  0  0  0  0  0  0
    1.9631   -2.7901    0.0000 H   0  0  0  0  0  0  0  0  0  0  0  0
   14.8783    4.1539    0.0000 H   0  0  0  0  0  0  0  0  0  0  0  0
   14.2583    4.7739    0.0000 H   0  0  0  0  0  0  0  0  0  0  0  0
   13.6383    4.1539    0.0000 H   0  0  0  0  0  0  0  0  0  0  0  0
    3.3291   -1.5361    0.0000 H   0  0  0  0  0  0  0  0  0  0  0  0
    5.9081   -3.3830    0.0000 H   0  0  0  0  0  0  0  0  0  0  0  0
    6.1350   -2.5361    0.0000 H   0  0  0  0  0  0  0  0  0  0  0  0
    5.2881   -2.3091    0.0000 H   0  0  0  0  0  0  0  0  0  0  0  0
   13.3923    2.0339    0.0000 H   0  0  0  0  0  0  0  0  0  0  0  0
    4.4030   -6.1561    0.0000 H   0  0  0  0  0  0  0  0  0  0  0  0
    5.2690   -1.6561    0.0000 H   0  0  0  0  0  0  0  0  0  0  0  0
   12.5263    3.7739    0.0000 H   0  0  0  0  0  0  0  0  0  0  0  0
   11.6603    2.0339    0.0000 H   0  0  0  0  0  0  0  0  0  0  0  0
    4.1760    0.6908    0.0000 H   0  0  0  0  0  0  0  0  0  0  0  0
    3.3291    0.4639    0.0000 H   0  0  0  0  0  0  0  0  0  0  0  0
    3.5560   -0.3830    0.0000 H   0  0  0  0  0  0  0  0  0  0  0  0
    6.1350   -0.1561    0.0000 H   0  0  0  0  0  0  0  0  0  0  0  0
    5.0611    1.4639    0.0000 H   0  0  0  0  0  0  0  0  0  0  0  0
   11.4142    4.1539    0.0000 H   0  0  0  0  0  0  0  0  0  0  0  0
   10.7942    4.7739    0.0000 H   0  0  0  0  0  0  0  0  0  0  0  0
   10.1742    4.1539    0.0000 H   0  0  0  0  0  0  0  0  0  0  0  0
    9.9282    2.0339    0.0000 H   0  0  0  0  0  0  0  0  0  0  0  0
    7.0010    1.3439    0.0000 H   0  0  0  0  0  0  0  0  0  0  0  0
    9.0622    3.7739    0.0000 H   0  0  0  0  0  0  0  0  0  0  0  0
    7.3301    3.7739    0.0000 H   0  0  0  0  0  0  0  0  0  0  0  0
    8.1962    2.0339    0.0000 H   0  0  0  0  0  0  0  0  0  0  0  0
    5.9081    3.6908    0.0000 H   0  0  0  0  0  0  0  0  0  0  0  0
    5.0611    3.4639    0.0000 H   0  0  0  0  0  0  0  0  0  0  0  0
    5.2881    2.6170    0.0000 H   0  0  0  0  0  0  0  0  0  0  0  0
  1 58  1  0  0  0  0
  2 12  2  0  0  0  0
  3 80  1  0  0  0  0
  4  5  1  0  0  0  0
  4  6  1  0  0  0  0
  4  9  1  0  0  0  0
  4 10  1  0  0  0  0
  5  7  1  0  0  0  0
  5 11  1  0  0  0  0
  5 12  1  6  0  0  0
  6  8  1  0  0  0  0
  6 44  1  0  0  0  0
  6 45  1  0  0  0  0
  7  8  1  0  0  0  0
  7 46  1  0  0  0  0
  7 47  1  0  0  0  0
  8  1  1  0  0  0  0
  8 48  1  6  0  0  0
  9 52  1  0  0  0  0
  9 53  1  0  0  0  0
  9 54  1  0  0  0  0
 10 49  1  0  0  0  0
 10 50  1  0  0  0  0
 10 51  1  0  0  0  0
 11 55  1  0  0  0  0
 11 56  1  0  0  0  0
 11 57  1  0  0  0  0
 12 13  1  0  0  0  0
 13 14  2  0  0  0  0
 13 59  1  0  0  0  0
 14 18  1  0  0  0  0
 14 60  1  0  0  0  0
 15 16  1  0  0  0  0
 15 19  1  0  0  0  0
 15 22  1  0  0  0  0
 15 23  1  0  0  0  0
 16 17  1  0  0  0  0
 16 61  1  0  0  0  0
 16 62  1  0  0  0  0
 17  3  1  0  0  0  0
 17 20  1  0  0  0  0
 17 63  1  6  0  0  0
 18 24  1  0  0  0  0
 18 27  2  0  0  0  0
 19 21  2  0  0  0  0
 19 25  1  0  0  0  0
 20 21  1  0  0  0  0
 20 64  1  0  0  0  0
 20 65  1  0  0  0  0
 21 26  1  0  0  0  0
 22 66  1  0  0  0  0
 22 67  1  0  0  0  0
 22 68  1  0  0  0  0
 23 69  1  0  0  0  0
 23 70  1  0  0  0  0
 23 71  1  0  0  0  0
 24 72  1  0  0  0  0
 24 73  1  0  0  0  0
 24 74  1  0  0  0  0
 25 28  2  0  0  0  0
 25 75  1  0  0  0  0
 26 76  1  0  0  0  0
 26 77  1  0  0  0  0
 26 78  1  0  0  0  0
 27 29  1  0  0  0  0
 27 79  1  0  0  0  0
 28 30  1  0  0  0  0
 28 81  1  0  0  0  0
 29 31  2  0  0  0  0
 29 82  1  0  0  0  0
 30 32  1  0  0  0  0
 30 33  2  0  0  0  0
 31 34  1  0  0  0  0
 31 83  1  0  0  0  0
 32 84  1  0  0  0  0
 32 85  1  0  0  0  0
 32 86  1  0  0  0  0
 33 35  1  0  0  0  0
 33 87  1  0  0  0  0
 34 36  1  0  0  0  0
 34 37  2  0  0  0  0
 35 38  2  0  0  0  0
 35 88  1  0  0  0  0
 36 89  1  0  0  0  0
 36 90  1  0  0  0  0
 36 91  1  0  0  0  0
 37 39  1  0  0  0  0
 37 92  1  0  0  0  0
 38 40  1  0  0  0  0
 38 93  1  0  0  0  0
 39 42  2  0  0  0  0
 39 94  1  0  0  0  0
 40 41  2  0  0  0  0
 40 43  1  0  0  0  0
 41 42  1  0  0  0  0
 41 95  1  0  0  0  0
 42 96  1  0  0  0  0
 43 97  1  0  0  0  0
 43 98  1  0  0  0  0
 43 99  1  0  0  0  0
M  END
>  <PUBCHEM_COMPOUND_CID>
23258406

>  <PUBCHEM_COMPOUND_CANONICALIZED>
1

>  <PUBCHEM_CACTVS_COMPLEXITY>
1310

>  <PUBCHEM_CACTVS_HBOND_ACCEPTOR>
3

>  <PUBCHEM_CACTVS_HBOND_DONOR>
2

>  <PUBCHEM_CACTVS_ROTATABLE_BOND>
11

>  <PUBCHEM_CACTVS_SUBSKEYS>
AAADcfB8MAAAAAAAAAAAAAAAAAAAAYAAAAAgAAAAAAAAAAAAAAAAGgAACAAADhSggAICAAAAAgCIAqBSAAAAAAAgAAAICAEAAEgIEBIAAQAAQAAEwAAIgYOKzMDPgAAAAAAAAAAAAAAAAAAAAIAACAAAAA==

>  <PUBCHEM_IUPAC_OPENEYE_NAME>
(2E,4E,6E,8E,10E,12Z,14E,16E,18E)-19-[(4R)-4-hydroxy-2,6,6-trimethyl-cyclohexen-1-yl]-1-[(1R,4S)-4-hydroxy-1,2,2-trimethyl-cyclopentyl]-4,8,13,17-tetramethyl-nonadeca-2,4,6,8,10,12,14,16,18-nonaen-1-one

>  <PUBCHEM_IUPAC_CAS_NAME>
(2E,4E,6E,8E,10E,12Z,14E,16E,18E)-19-[(4R)-4-hydroxy-2,6,6-trimethyl-1-cyclohexenyl]-1-[(1R,4S)-4-hydroxy-1,2,2-trimethylcyclopentyl]-4,8,13,17-tetramethyl-1-nonadeca-2,4,6,8,10,12,14,16,18-nonaenone

>  <PUBCHEM_IUPAC_NAME>
(2E,4E,6E,8E,10E,12Z,14E,16E,18E)-19-[(4R)-4-hydroxy-2,6,6-trimethylcyclohexen-1-yl]-1-[(1R,4S)-4-hydroxy-1,2,2-trimethylcyclopentyl]-4,8,13,17-tetramethylnonadeca-2,4,6,8,10,12,14,16,18-nonaen-1-one

>  <PUBCHEM_IUPAC_SYSTEMATIC_NAME>
(2E,4E,6E,8E,10E,12Z,14E,16E,18E)-4,8,13,17-tetramethyl-19-[(4R)-2,6,6-trimethyl-4-oxidanyl-cyclohexen-1-yl]-1-[(1R,4S)-1,2,2-trimethyl-4-oxidanyl-cyclopentyl]nonadeca-2,4,6,8,10,12,14,16,18-nonaen-1-one

>  <PUBCHEM_IUPAC_TRADITIONAL_NAME>
(2E,4E,6E,8E,10E,12Z,14E,16E,18E)-19-[(4R)-4-hydroxy-2,6,6-trimethyl-cyclohexen-1-yl]-1-[(1R,4S)-4-hydroxy-1,2,2-trimethyl-cyclopentyl]-4,8,13,17-tetramethyl-nonadeca-2,4,6,8,10,12,14,16,18-nonaen-1-one

>  <PUBCHEM_IUPAC_INCHI>
InChI=1S/C40H56O3/c1-29(17-13-19-31(3)21-23-36-33(5)25-34(41)26-38(36,6)7)15-11-12-16-30(2)18-14-20-32(4)22-24-37(43)40(10)28-35(42)27-39(40,8)9/h11-24,34-35,41-42H,25-28H2,1-10H3/b12-11+,17-13+,18-14+,23-21+,24-22+,29-15-,30-16+,31-19+,32-20+/t34-,35+,40+/m1/s1

>  <PUBCHEM_IUPAC_INCHIKEY>
VYIRVAXUEZSDNC-JXCBCDSLSA-N

>  <PUBCHEM_XLOGP3_AA>
10.6

>  <PUBCHEM_EXACT_MASS>
584.423

>  <PUBCHEM_MOLECULAR_FORMULA>
C40H56O3

>  <PUBCHEM_MOLECULAR_WEIGHT>
584.885

>  <PUBCHEM_OPENEYE_CAN_SMILES>
CC1=C(C(CC(C1)O)(C)C)C=CC(=CC=CC(=CC=CC=C(C)C=CC=C(C)C=CC(=O)C2(CC(CC2(C)C)O)C)C)C

>  <PUBCHEM_OPENEYE_ISO_SMILES>
CC1=C(C(C[C@@H](C1)O)(C)C)/C=C/C(=C/C=C/C(=C\C=C\C=C(/C)\C=C\C=C(/C)\C=C\C(=O)[C@@]2(C[C@H](CC2(C)C)O)C)/C)/C

>  <PUBCHEM_CACTVS_TPSA>
57.5

>  <PUBCHEM_MONOISOTOPIC_WEIGHT>
584.423

>  <PUBCHEM_TOTAL_CHARGE>
0

>  <PUBCHEM_HEAVY_ATOM_COUNT>
43

>  <PUBCHEM_ATOM_DEF_STEREO_COUNT>
3

>  <PUBCHEM_ATOM_UDEF_STEREO_COUNT>
0

>  <PUBCHEM_BOND_DEF_STEREO_COUNT>
9

>  <PUBCHEM_BOND_UDEF_STEREO_COUNT>
0

>  <PUBCHEM_ISOTOPIC_ATOM_COUNT>
0

>  <PUBCHEM_COMPONENT_COUNT>
1

>  <PUBCHEM_CACTVS_TAUTO_COUNT>
1

>  <PUBCHEM_COORDINATE_TYPE>
1
5
255

>  <PUBCHEM_BONDANNOTATIONS>
8  1  5
17  3  5
5  11  5

$$$$
