23264915
 OpenBabel06101807152D

 28 29  0  0  0  0  0  0  0  0999 V2000
    5.5321   -0.6754    0.0000 O   0  0  0  0  0  0  0  0  0  0  0  0
    2.9176    1.8592    0.0000 O   0  0  0  0  0  0  0  0  0  0  0  0
    4.6660   -2.1754    0.0000 O   0  0  0  0  0  0  0  0  0  0  0  0
    3.8000    0.3246    0.0000 C   0  0  0  0  0  0  0  0  0  0  0  0
    3.8000   -0.6754    0.0000 C   0  0  0  0  0  0  0  0  0  0  0  0
    4.6660    0.8246    0.0000 C   0  0  0  0  0  0  0  0  0  0  0  0
    5.5321    0.3246    0.0000 C   0  0  0  0  0  0  0  0  0  0  0  0
    2.9061    0.8593    0.0000 C   0  0  0  0  0  0  0  0  0  0  0  0
    2.9061   -1.2100    0.0000 C   0  0  0  0  0  0  0  0  0  0  0  0
    4.6660   -1.1754    0.0000 C   0  0  0  0  0  0  0  0  0  0  0  0
    6.3981    0.8246    0.0000 C   0  0  0  0  0  0  0  0  0  0  0  0
    2.0000    0.3454    0.0000 C   0  0  0  0  0  0  0  0  0  0  0  0
    2.0000   -0.6962    0.0000 C   0  0  0  0  0  0  0  0  0  0  0  0
    8.1301    0.8246    0.0000 C   0  0  0  0  0  0  0  0  0  0  0  0
    7.2641    0.3246    0.0000 C   0  0  0  0  0  0  0  0  0  0  0  0
    8.9962    0.3246    0.0000 C   0  0  0  0  0  0  0  0  0  0  0  0
    4.6660    1.4446    0.0000 H   0  0  0  0  0  0  0  0  0  0  0  0
    2.9132   -1.8300    0.0000 H   0  0  0  0  0  0  0  0  0  0  0  0
    6.3981    1.4446    0.0000 H   0  0  0  0  0  0  0  0  0  0  0  0
    1.4643    0.6575    0.0000 H   0  0  0  0  0  0  0  0  0  0  0  0
    1.4643   -1.0083    0.0000 H   0  0  0  0  0  0  0  0  0  0  0  0
    8.5287    1.2996    0.0000 H   0  0  0  0  0  0  0  0  0  0  0  0
    7.7316    1.2996    0.0000 H   0  0  0  0  0  0  0  0  0  0  0  0
    7.2641   -0.2954    0.0000 H   0  0  0  0  0  0  0  0  0  0  0  0
    8.6862   -0.2123    0.0000 H   0  0  0  0  0  0  0  0  0  0  0  0
    9.5331    0.0146    0.0000 H   0  0  0  0  0  0  0  0  0  0  0  0
    9.3062    0.8615    0.0000 H   0  0  0  0  0  0  0  0  0  0  0  0
    2.3843    2.1754    0.0000 H   0  0  0  0  0  0  0  0  0  0  0  0
  1  7  1  0  0  0  0
  1 10  1  0  0  0  0
  2  8  1  0  0  0  0
  2 28  1  0  0  0  0
  3 10  2  0  0  0  0
  4  5  2  0  0  0  0
  4  6  1  0  0  0  0
  4  8  1  0  0  0  0
  5  9  1  0  0  0  0
  5 10  1  0  0  0  0
  6  7  2  0  0  0  0
  6 17  1  0  0  0  0
  7 11  1  0  0  0  0
  8 12  2  0  0  0  0
  9 13  2  0  0  0  0
  9 18  1  0  0  0  0
 11 15  2  0  0  0  0
 11 19  1  0  0  0  0
 12 13  1  0  0  0  0
 12 20  1  0  0  0  0
 13 21  1  0  0  0  0
 14 15  1  0  0  0  0
 14 16  1  0  0  0  0
 14 22  1  0  0  0  0
 14 23  1  0  0  0  0
 15 24  1  0  0  0  0
 16 25  1  0  0  0  0
 16 26  1  0  0  0  0
 16 27  1  0  0  0  0
M  END
>  <PUBCHEM_COMPOUND_CID>
23264915

>  <PUBCHEM_COMPOUND_CANONICALIZED>
1

>  <PUBCHEM_CACTVS_COMPLEXITY>
330

>  <PUBCHEM_CACTVS_HBOND_ACCEPTOR>
3

>  <PUBCHEM_CACTVS_HBOND_DONOR>
1

>  <PUBCHEM_CACTVS_ROTATABLE_BOND>
2

>  <PUBCHEM_CACTVS_SUBSKEYS>
AAADccBwMAAAAAAAAAAAAAAAAAAAAAAAAAAwQAAAAAAAAACBAAAAGgAACAAADASAmAAyDoAABgCIAiDSCAACCAAkIAAIiAEGCMgIJjKCNRqCcQAkwBEIuYfKyLCOgAABAAAYAAAAAAIAADAAAAAAAAAAAA==

>  <PUBCHEM_IUPAC_OPENEYE_NAME>
3-[(E)-but-1-enyl]-5-hydroxy-isochromen-1-one

>  <PUBCHEM_IUPAC_CAS_NAME>
3-[(E)-but-1-enyl]-5-hydroxy-2-benzopyran-1-one

>  <PUBCHEM_IUPAC_NAME>
3-[(E)-but-1-enyl]-5-hydroxyisochromen-1-one

>  <PUBCHEM_IUPAC_SYSTEMATIC_NAME>
3-[(E)-but-1-enyl]-5-oxidanyl-isochromen-1-one

>  <PUBCHEM_IUPAC_TRADITIONAL_NAME>
3-[(E)-but-1-enyl]-5-hydroxy-isocoumarin

>  <PUBCHEM_IUPAC_INCHI>
InChI=1S/C13H12O3/c1-2-3-5-9-8-11-10(13(15)16-9)6-4-7-12(11)14/h3-8,14H,2H2,1H3/b5-3+

>  <PUBCHEM_IUPAC_INCHIKEY>
QBZHMYUXUVZDQT-HWKANZROSA-N

>  <PUBCHEM_XLOGP3_AA>
3

>  <PUBCHEM_EXACT_MASS>
216.079

>  <PUBCHEM_MOLECULAR_FORMULA>
C13H12O3

>  <PUBCHEM_MOLECULAR_WEIGHT>
216.236

>  <PUBCHEM_OPENEYE_CAN_SMILES>
CCC=CC1=CC2=C(C=CC=C2O)C(=O)O1

>  <PUBCHEM_OPENEYE_ISO_SMILES>
CC/C=C/C1=CC2=C(C=CC=C2O)C(=O)O1

>  <PUBCHEM_CACTVS_TPSA>
46.5

>  <PUBCHEM_MONOISOTOPIC_WEIGHT>
216.079

>  <PUBCHEM_TOTAL_CHARGE>
0

>  <PUBCHEM_HEAVY_ATOM_COUNT>
16

>  <PUBCHEM_ATOM_DEF_STEREO_COUNT>
0

>  <PUBCHEM_ATOM_UDEF_STEREO_COUNT>
0

>  <PUBCHEM_BOND_DEF_STEREO_COUNT>
1

>  <PUBCHEM_BOND_UDEF_STEREO_COUNT>
0

>  <PUBCHEM_ISOTOPIC_ATOM_COUNT>
0

>  <PUBCHEM_COMPONENT_COUNT>
1

>  <PUBCHEM_CACTVS_TAUTO_COUNT>
3

>  <PUBCHEM_COORDINATE_TYPE>
1
5
255

>  <PUBCHEM_BONDANNOTATIONS>
1  10  8
1  7  8
12  13  8
4  5  8
4  6  8
4  8  8
5  10  8
5  9  8
6  7  8
8  12  8
9  13  8

$$$$
