23286475
 OpenBabel06101807152D

 56 55  0  0  1  0  0  0  0  0999 V2000
    2.0000   -0.0600    0.0000 O   0  0  0  0  0  0  0  0  0  0  0  0
   10.6603   -0.0600    0.0000 C   0  0  3  0  0  0  0  0  0  0  0  0
    9.7942    0.4400    0.0000 C   0  0  0  0  0  0  0  0  0  0  0  0
    8.9282   -0.0600    0.0000 C   0  0  0  0  0  0  0  0  0  0  0  0
    7.1962   -0.0600    0.0000 C   0  0  3  0  0  0  0  0  0  0  0  0
    8.0622    0.4400    0.0000 C   0  0  0  0  0  0  0  0  0  0  0  0
   11.5263    0.4400    0.0000 C   0  0  0  0  0  0  0  0  0  0  0  0
   12.3923   -0.0600    0.0000 C   0  0  0  0  0  0  0  0  0  0  0  0
    6.3301    0.4400    0.0000 C   0  0  0  0  0  0  0  0  0  0  0  0
   13.2583    0.4400    0.0000 C   0  0  0  0  0  0  0  0  0  0  0  0
   10.6603   -1.0600    0.0000 C   0  0  0  0  0  0  0  0  0  0  0  0
   14.1244   -0.0600    0.0000 C   0  0  0  0  0  0  0  0  0  0  0  0
    7.1962   -1.0600    0.0000 C   0  0  0  0  0  0  0  0  0  0  0  0
    5.4641   -0.0600    0.0000 C   0  0  0  0  0  0  0  0  0  0  0  0
    4.5981    0.4400    0.0000 C   0  0  0  0  0  0  0  0  0  0  0  0
   14.9904    0.4400    0.0000 C   0  0  0  0  0  0  0  0  0  0  0  0
   14.1244   -1.0600    0.0000 C   0  0  0  0  0  0  0  0  0  0  0  0
    3.7320   -0.0600    0.0000 C   0  0  0  0  0  0  0  0  0  0  0  0
    2.8660    0.4400    0.0000 C   0  0  0  0  0  0  0  0  0  0  0  0
    3.7320   -1.0600    0.0000 C   0  0  0  0  0  0  0  0  0  0  0  0
   11.1972   -0.3700    0.0000 H   0  0  0  0  0  0  0  0  0  0  0  0
   10.1928    0.9149    0.0000 H   0  0  0  0  0  0  0  0  0  0  0  0
    9.3957    0.9149    0.0000 H   0  0  0  0  0  0  0  0  0  0  0  0
    8.5297   -0.5349    0.0000 H   0  0  0  0  0  0  0  0  0  0  0  0
    9.3267   -0.5349    0.0000 H   0  0  0  0  0  0  0  0  0  0  0  0
    6.6592   -0.3700    0.0000 H   0  0  0  0  0  0  0  0  0  0  0  0
    8.4607    0.9149    0.0000 H   0  0  0  0  0  0  0  0  0  0  0  0
    7.6636    0.9149    0.0000 H   0  0  0  0  0  0  0  0  0  0  0  0
   11.9248    0.9149    0.0000 H   0  0  0  0  0  0  0  0  0  0  0  0
   11.1278    0.9149    0.0000 H   0  0  0  0  0  0  0  0  0  0  0  0
   11.9938   -0.5349    0.0000 H   0  0  0  0  0  0  0  0  0  0  0  0
   12.7908   -0.5349    0.0000 H   0  0  0  0  0  0  0  0  0  0  0  0
    6.7287    0.9149    0.0000 H   0  0  0  0  0  0  0  0  0  0  0  0
    5.9316    0.9149    0.0000 H   0  0  0  0  0  0  0  0  0  0  0  0
   13.6569    0.9149    0.0000 H   0  0  0  0  0  0  0  0  0  0  0  0
   12.8598    0.9149    0.0000 H   0  0  0  0  0  0  0  0  0  0  0  0
   10.0403   -1.0600    0.0000 H   0  0  0  0  0  0  0  0  0  0  0  0
   10.6603   -1.6800    0.0000 H   0  0  0  0  0  0  0  0  0  0  0  0
   11.2803   -1.0600    0.0000 H   0  0  0  0  0  0  0  0  0  0  0  0
   13.5874   -0.3700    0.0000 H   0  0  0  0  0  0  0  0  0  0  0  0
    6.5762   -1.0600    0.0000 H   0  0  0  0  0  0  0  0  0  0  0  0
    7.1962   -1.6800    0.0000 H   0  0  0  0  0  0  0  0  0  0  0  0
    7.8162   -1.0600    0.0000 H   0  0  0  0  0  0  0  0  0  0  0  0
    5.0656   -0.5349    0.0000 H   0  0  0  0  0  0  0  0  0  0  0  0
    5.8626   -0.5349    0.0000 H   0  0  0  0  0  0  0  0  0  0  0  0
    4.9966    0.9149    0.0000 H   0  0  0  0  0  0  0  0  0  0  0  0
    4.1996    0.9149    0.0000 H   0  0  0  0  0  0  0  0  0  0  0  0
   15.3004   -0.0969    0.0000 H   0  0  0  0  0  0  0  0  0  0  0  0
   15.5273    0.7500    0.0000 H   0  0  0  0  0  0  0  0  0  0  0  0
   14.6804    0.9769    0.0000 H   0  0  0  0  0  0  0  0  0  0  0  0
   13.5044   -1.0600    0.0000 H   0  0  0  0  0  0  0  0  0  0  0  0
   14.1244   -1.6800    0.0000 H   0  0  0  0  0  0  0  0  0  0  0  0
   14.7444   -1.0600    0.0000 H   0  0  0  0  0  0  0  0  0  0  0  0
    2.8660    1.0600    0.0000 H   0  0  0  0  0  0  0  0  0  0  0  0
    3.1951   -1.3700    0.0000 H   0  0  0  0  0  0  0  0  0  0  0  0
    4.2690   -1.3700    0.0000 H   0  0  0  0  0  0  0  0  0  0  0  0
  1 19  2  0  0  0  0
  2  3  1  0  0  0  0
  2  7  1  0  0  0  0
  2 11  1  0  0  0  0
  2 21  1  0  0  0  0
  3  4  1  0  0  0  0
  3 22  1  0  0  0  0
  3 23  1  0  0  0  0
  4  6  1  0  0  0  0
  4 24  1  0  0  0  0
  4 25  1  0  0  0  0
  5  6  1  0  0  0  0
  5  9  1  0  0  0  0
  5 13  1  0  0  0  0
  5 26  1  0  0  0  0
  6 27  1  0  0  0  0
  6 28  1  0  0  0  0
  7  8  1  0  0  0  0
  7 29  1  0  0  0  0
  7 30  1  0  0  0  0
  8 10  1  0  0  0  0
  8 31  1  0  0  0  0
  8 32  1  0  0  0  0
  9 14  1  0  0  0  0
  9 33  1  0  0  0  0
  9 34  1  0  0  0  0
 10 12  1  0  0  0  0
 10 35  1  0  0  0  0
 10 36  1  0  0  0  0
 11 37  1  0  0  0  0
 11 38  1  0  0  0  0
 11 39  1  0  0  0  0
 12 16  1  0  0  0  0
 12 17  1  0  0  0  0
 12 40  1  0  0  0  0
 13 41  1  0  0  0  0
 13 42  1  0  0  0  0
 13 43  1  0  0  0  0
 14 15  1  0  0  0  0
 14 44  1  0  0  0  0
 14 45  1  0  0  0  0
 15 18  1  0  0  0  0
 15 46  1  0  0  0  0
 15 47  1  0  0  0  0
 16 48  1  0  0  0  0
 16 49  1  0  0  0  0
 16 50  1  0  0  0  0
 17 51  1  0  0  0  0
 17 52  1  0  0  0  0
 17 53  1  0  0  0  0
 18 19  1  0  0  0  0
 18 20  2  0  0  0  0
 19 54  1  0  0  0  0
 20 55  1  0  0  0  0
 20 56  1  0  0  0  0
M  END
>  <PUBCHEM_COMPOUND_CID>
23286475

>  <PUBCHEM_COMPOUND_CANONICALIZED>
1

>  <PUBCHEM_CACTVS_COMPLEXITY>
255

>  <PUBCHEM_CACTVS_HBOND_ACCEPTOR>
1

>  <PUBCHEM_CACTVS_HBOND_DONOR>
0

>  <PUBCHEM_CACTVS_ROTATABLE_BOND>
13

>  <PUBCHEM_CACTVS_SUBSKEYS>
AAADcfB4IAAAAAAAAAAAAAAAAAAAAAAAAAAAAAAAAAAAAAAAAAAAGgAAAAAADQCggAICAAAAAACIAghSgAAAAAAgAAAAAAEAAEgAABIAAQAAAAAAgAAAAIEIiMCOAAAAAAAAAAAAAAAAAAAAAAAAAAAAAA==

>  <PUBCHEM_IUPAC_OPENEYE_NAME>
6,10,14-trimethyl-2-methylene-pentadecanal

>  <PUBCHEM_IUPAC_CAS_NAME>
6,10,14-trimethyl-2-methylenepentadecanal

>  <PUBCHEM_IUPAC_NAME>
6,10,14-trimethyl-2-methylidenepentadecanal

>  <PUBCHEM_IUPAC_SYSTEMATIC_NAME>
6,10,14-trimethyl-2-methylidene-pentadecanal

>  <PUBCHEM_IUPAC_TRADITIONAL_NAME>
2-(4,8,12-trimethyltridecyl)acrolein

>  <PUBCHEM_IUPAC_INCHI>
InChI=1S/C19H36O/c1-16(2)9-6-10-17(3)11-7-12-18(4)13-8-14-19(5)15-20/h15-18H,5-14H2,1-4H3

>  <PUBCHEM_IUPAC_INCHIKEY>
PTFJEDBJXCZCDO-UHFFFAOYSA-N

>  <PUBCHEM_XLOGP3_AA>
7.8

>  <PUBCHEM_EXACT_MASS>
280.277

>  <PUBCHEM_MOLECULAR_FORMULA>
C19H36O

>  <PUBCHEM_MOLECULAR_WEIGHT>
280.496

>  <PUBCHEM_OPENEYE_CAN_SMILES>
CC(C)CCCC(C)CCCC(C)CCCC(=C)C=O

>  <PUBCHEM_OPENEYE_ISO_SMILES>
CC(C)CCCC(C)CCCC(C)CCCC(=C)C=O

>  <PUBCHEM_CACTVS_TPSA>
17.1

>  <PUBCHEM_MONOISOTOPIC_WEIGHT>
280.277

>  <PUBCHEM_TOTAL_CHARGE>
0

>  <PUBCHEM_HEAVY_ATOM_COUNT>
20

>  <PUBCHEM_ATOM_DEF_STEREO_COUNT>
0

>  <PUBCHEM_ATOM_UDEF_STEREO_COUNT>
2

>  <PUBCHEM_BOND_DEF_STEREO_COUNT>
0

>  <PUBCHEM_BOND_UDEF_STEREO_COUNT>
0

>  <PUBCHEM_ISOTOPIC_ATOM_COUNT>
0

>  <PUBCHEM_COMPONENT_COUNT>
1

>  <PUBCHEM_CACTVS_TAUTO_COUNT>
1

>  <PUBCHEM_COORDINATE_TYPE>
1
5
255

>  <PUBCHEM_BONDANNOTATIONS>
2  11  3
5  13  3

$$$$
