235241
 OpenBabel06101807152D

 51 53  0  0  1  0  0  0  0  0999 V2000
    3.2690    1.7705    0.0000 O   0  0  0  0  0  0  0  0  0  0  0  0
    2.5369    0.7705    0.0000 O   0  0  0  0  0  0  0  0  0  0  0  0
    4.2690    3.5026    0.0000 O   0  0  0  0  0  0  0  0  0  0  0  0
    8.6651    2.2947    0.0000 O   0  0  0  0  0  0  0  0  0  0  0  0
    8.6651    0.2464    0.0000 O   0  0  0  0  0  0  0  0  0  0  0  0
    3.4030   -2.7295    0.0000 O   0  0  0  0  0  0  0  0  0  0  0  0
    5.1350   -3.7295    0.0000 O   0  0  0  0  0  0  0  0  0  0  0  0
    4.2690    0.7705    0.0000 C   0  0  3  0  0  0  0  0  0  0  0  0
    4.2690    1.7705    0.0000 C   0  0  3  0  0  0  0  0  0  0  0  0
    5.1350    0.2705    0.0000 C   0  0  3  0  0  0  0  0  0  0  0  0
    5.1350    2.2705    0.0000 C   0  0  0  0  0  0  0  0  0  0  0  0
    6.0010    0.7705    0.0000 C   0  0  0  0  0  0  0  0  0  0  0  0
    6.0010    1.7705    0.0000 C   0  0  0  0  0  0  0  0  0  0  0  0
    3.4030    0.2705    0.0000 C   0  0  0  0  0  0  0  0  0  0  0  0
    3.7690    2.6365    0.0000 C   0  0  0  0  0  0  0  0  0  0  0  0
    5.1350   -0.7295    0.0000 C   0  0  0  0  0  0  0  0  0  0  0  0
    6.8950    0.2358    0.0000 C   0  0  0  0  0  0  0  0  0  0  0  0
    6.8950    2.3052    0.0000 C   0  0  0  0  0  0  0  0  0  0  0  0
    4.2690   -1.2295    0.0000 C   0  0  0  0  0  0  0  0  0  0  0  0
    6.0010   -1.2295    0.0000 C   0  0  0  0  0  0  0  0  0  0  0  0
    7.8010    0.7497    0.0000 C   0  0  0  0  0  0  0  0  0  0  0  0
    7.8010    1.7913    0.0000 C   0  0  0  0  0  0  0  0  0  0  0  0
    4.2690   -2.2295    0.0000 C   0  0  0  0  0  0  0  0  0  0  0  0
    6.0010   -2.2295    0.0000 C   0  0  0  0  0  0  0  0  0  0  0  0
    5.1350   -2.7295    0.0000 C   0  0  0  0  0  0  0  0  0  0  0  0
    8.6613    3.2946    0.0000 C   0  0  0  0  0  0  0  0  0  0  0  0
    3.4030   -3.7295    0.0000 C   0  0  0  0  0  0  0  0  0  0  0  0
    4.2690    0.1505    0.0000 H   0  0  0  0  0  0  0  0  0  0  0  0
    5.6720   -0.0395    0.0000 H   0  0  0  0  0  0  0  0  0  0  0  0
    5.5335    2.7454    0.0000 H   0  0  0  0  0  0  0  0  0  0  0  0
    4.7365    2.7454    0.0000 H   0  0  0  0  0  0  0  0  0  0  0  0
    3.0044   -0.2044    0.0000 H   0  0  0  0  0  0  0  0  0  0  0  0
    3.8015   -0.2044    0.0000 H   0  0  0  0  0  0  0  0  0  0  0  0
    3.2940    3.0351    0.0000 H   0  0  0  0  0  0  0  0  0  0  0  0
    3.2940    2.2380    0.0000 H   0  0  0  0  0  0  0  0  0  0  0  0
    6.8878   -0.3841    0.0000 H   0  0  0  0  0  0  0  0  0  0  0  0
    2.9590    2.3074    0.0000 H   0  0  0  0  0  0  0  0  0  0  0  0
    6.8878    2.9251    0.0000 H   0  0  0  0  0  0  0  0  0  0  0  0
    3.7320   -0.9195    0.0000 H   0  0  0  0  0  0  0  0  0  0  0  0
    6.5380   -0.9195    0.0000 H   0  0  0  0  0  0  0  0  0  0  0  0
    2.0000    0.4605    0.0000 H   0  0  0  0  0  0  0  0  0  0  0  0
    3.9590    4.0395    0.0000 H   0  0  0  0  0  0  0  0  0  0  0  0
    6.5380   -2.5395    0.0000 H   0  0  0  0  0  0  0  0  0  0  0  0
    9.2033    0.5543    0.0000 H   0  0  0  0  0  0  0  0  0  0  0  0
    9.2813    3.2970    0.0000 H   0  0  0  0  0  0  0  0  0  0  0  0
    8.6589    3.9146    0.0000 H   0  0  0  0  0  0  0  0  0  0  0  0
    8.0413    3.2923    0.0000 H   0  0  0  0  0  0  0  0  0  0  0  0
    5.6720   -4.0395    0.0000 H   0  0  0  0  0  0  0  0  0  0  0  0
    2.7830   -3.7295    0.0000 H   0  0  0  0  0  0  0  0  0  0  0  0
    3.4030   -4.3495    0.0000 H   0  0  0  0  0  0  0  0  0  0  0  0
    4.0230   -3.7295    0.0000 H   0  0  0  0  0  0  0  0  0  0  0  0
  1  9  1  0  0  0  0
  1 37  1  0  0  0  0
  2 14  1  0  0  0  0
  2 41  1  0  0  0  0
  3 15  1  0  0  0  0
  3 42  1  0  0  0  0
  4 22  1  0  0  0  0
  4 26  1  0  0  0  0
  5 21  1  0  0  0  0
  5 44  1  0  0  0  0
  6 23  1  0  0  0  0
  6 27  1  0  0  0  0
  7 25  1  0  0  0  0
  7 48  1  0  0  0  0
  8  9  1  0  0  0  0
  8 10  1  0  0  0  0
  8 14  1  0  0  0  0
  8 28  1  0  0  0  0
  9 11  1  0  0  0  0
  9 15  1  0  0  0  0
 10 12  1  0  0  0  0
 10 16  1  0  0  0  0
 10 29  1  0  0  0  0
 11 13  1  0  0  0  0
 11 30  1  0  0  0  0
 11 31  1  0  0  0  0
 12 13  1  0  0  0  0
 12 17  2  0  0  0  0
 13 18  2  0  0  0  0
 14 32  1  0  0  0  0
 14 33  1  0  0  0  0
 15 34  1  0  0  0  0
 15 35  1  0  0  0  0
 16 19  2  0  0  0  0
 16 20  1  0  0  0  0
 17 21  1  0  0  0  0
 17 36  1  0  0  0  0
 18 22  1  0  0  0  0
 18 38  1  0  0  0  0
 19 23  1  0  0  0  0
 19 39  1  0  0  0  0
 20 24  2  0  0  0  0
 20 40  1  0  0  0  0
 21 22  2  0  0  0  0
 23 25  2  0  0  0  0
 24 25  1  0  0  0  0
 24 43  1  0  0  0  0
 26 45  1  0  0  0  0
 26 46  1  0  0  0  0
 26 47  1  0  0  0  0
 27 49  1  0  0  0  0
 27 50  1  0  0  0  0
 27 51  1  0  0  0  0
M  END
>  <PUBCHEM_COMPOUND_CID>
235241

>  <PUBCHEM_COMPOUND_CANONICALIZED>
1

>  <PUBCHEM_CACTVS_COMPLEXITY>
489

>  <PUBCHEM_CACTVS_HBOND_ACCEPTOR>
7

>  <PUBCHEM_CACTVS_HBOND_DONOR>
5

>  <PUBCHEM_CACTVS_ROTATABLE_BOND>
5

>  <PUBCHEM_CACTVS_SUBSKEYS>
AAADceB4OAAAAAAAAAAAAAAAAAAAAAAAAAAwYMAAAAAAAADBQAAAGgAACAAADUSgmAIyBoAABgCAAiBCAAACCAAgIAAIiAAGiIgNNiKGMRqAcCMlwBELuAfA4PwOoAABAAAQQADAAAYAADCAAAAAAAAAAA==

>  <PUBCHEM_IUPAC_OPENEYE_NAME>
4-(4-hydroxy-3-methoxy-phenyl)-2,3-bis(hydroxymethyl)-7-methoxy-tetralin-2,6-diol

>  <PUBCHEM_IUPAC_CAS_NAME>
4-(4-hydroxy-3-methoxyphenyl)-2,3-bis(hydroxymethyl)-7-methoxy-3,4-dihydro-1H-naphthalene-2,6-diol

>  <PUBCHEM_IUPAC_NAME>
4-(4-hydroxy-3-methoxyphenyl)-2,3-bis(hydroxymethyl)-7-methoxy-3,4-dihydro-1H-naphthalene-2,6-diol

>  <PUBCHEM_IUPAC_SYSTEMATIC_NAME>
2,3-bis(hydroxymethyl)-7-methoxy-4-(3-methoxy-4-oxidanyl-phenyl)-3,4-dihydro-1H-naphthalene-2,6-diol

>  <PUBCHEM_IUPAC_TRADITIONAL_NAME>
4-(4-hydroxy-3-methoxy-phenyl)-7-methoxy-2,3-dimethylol-tetralin-2,6-diol

>  <PUBCHEM_IUPAC_INCHI>
InChI=1S/C20H24O7/c1-26-17-5-11(3-4-15(17)23)19-13-7-16(24)18(27-2)6-12(13)8-20(25,10-22)14(19)9-21/h3-7,14,19,21-25H,8-10H2,1-2H3

>  <PUBCHEM_IUPAC_INCHIKEY>
KCIQZCNOUZCRGH-UHFFFAOYSA-N

>  <PUBCHEM_XLOGP3_AA>
1.5

>  <PUBCHEM_EXACT_MASS>
376.152

>  <PUBCHEM_MOLECULAR_FORMULA>
C20H24O7

>  <PUBCHEM_MOLECULAR_WEIGHT>
376.405

>  <PUBCHEM_OPENEYE_CAN_SMILES>
COC1=C(C=C2C(C(C(CC2=C1)(CO)O)CO)C3=CC(=C(C=C3)O)OC)O

>  <PUBCHEM_OPENEYE_ISO_SMILES>
COC1=C(C=C2C(C(C(CC2=C1)(CO)O)CO)C3=CC(=C(C=C3)O)OC)O

>  <PUBCHEM_CACTVS_TPSA>
120

>  <PUBCHEM_MONOISOTOPIC_WEIGHT>
376.152

>  <PUBCHEM_TOTAL_CHARGE>
0

>  <PUBCHEM_HEAVY_ATOM_COUNT>
27

>  <PUBCHEM_ATOM_DEF_STEREO_COUNT>
0

>  <PUBCHEM_ATOM_UDEF_STEREO_COUNT>
3

>  <PUBCHEM_BOND_DEF_STEREO_COUNT>
0

>  <PUBCHEM_BOND_UDEF_STEREO_COUNT>
0

>  <PUBCHEM_ISOTOPIC_ATOM_COUNT>
0

>  <PUBCHEM_COMPONENT_COUNT>
1

>  <PUBCHEM_CACTVS_TAUTO_COUNT>
84

>  <PUBCHEM_COORDINATE_TYPE>
1
5
255

>  <PUBCHEM_BONDANNOTATIONS>
9  1  3
10  16  3
12  13  8
12  17  8
13  18  8
16  19  8
16  20  8
17  21  8
18  22  8
19  23  8
20  24  8
21  22  8
23  25  8
24  25  8
8  14  3

$$$$
