23651312
 OpenBabel06101807152D

281304  0  0  1  0  0  0  0  0999 V2000
    8.5104    2.7333    0.0000 O   0  0  0  0  0  0  0  0  0  0  0  0
    6.7499   11.4930    0.0000 O   0  0  0  0  0  0  0  0  0  0  0  0
   10.9774   -7.2758    0.0000 O   0  0  0  0  0  0  0  0  0  0  0  0
   10.9510    0.7389    0.0000 O   0  0  0  0  0  0  0  0  0  0  0  0
    9.3924    0.1918    0.0000 O   0  0  0  0  0  0  0  0  0  0  0  0
    8.7887    9.0892    0.0000 O   0  0  0  0  0  0  0  0  0  0  0  0
    7.1568    8.8337    0.0000 O   0  0  0  0  0  0  0  0  0  0  0  0
   13.0531   -9.6478    0.0000 O   0  0  0  0  0  0  0  0  0  0  0  0
   10.9738    3.6899    0.0000 O   0  0  0  0  0  0  0  0  0  0  0  0
   11.4253   -9.9285    0.0000 O   0  0  0  0  0  0  0  0  0  0  0  0
    9.3459   11.9873    0.0000 O   0  0  0  0  0  0  0  0  0  0  0  0
   13.5654   -6.7415    0.0000 O   0  0  0  0  0  0  0  0  0  0  0  0
    9.4045    4.2611    0.0000 O   0  0  0  0  0  0  0  0  0  0  0  0
    7.9062   12.8333    0.0000 O   0  0  0  0  0  0  0  0  0  0  0  0
   12.1129   -5.9177    0.0000 O   0  0  0  0  0  0  0  0  0  0  0  0
    7.4016    0.2259    0.0000 O   0  0  0  0  0  0  0  0  0  0  0  0
    5.2051    9.2280    0.0000 O   0  0  0  0  0  0  0  0  0  0  0  0
    9.4677   -9.5643    0.0000 O   0  0  0  0  0  0  0  0  0  0  0  0
    8.3721   -1.4885    0.0000 O   0  0  0  0  0  0  0  0  0  0  0  0
   12.0183   -0.6489    0.0000 O   0  0  0  0  0  0  0  0  0  0  0  0
    5.8488    7.3661    0.0000 O   0  0  0  0  0  0  0  0  0  0  0  0
    8.8019    8.3675    0.0000 O   0  0  0  0  0  0  0  0  0  0  0  0
   13.8750  -11.1936    0.0000 O   0  0  0  0  0  0  0  0  0  0  0  0
   12.0623    5.0611    0.0000 O   0  0  0  0  0  0  0  0  0  0  0  0
   10.6649   13.1385    0.0000 O   0  0  0  0  0  0  0  0  0  0  0  0
    9.8233  -10.4676    0.0000 O   0  0  0  0  0  0  0  0  0  0  0  0
   14.8665   -5.5702    0.0000 O   0  0  0  0  0  0  0  0  0  0  0  0
   11.4298   -1.6524    0.0000 O   0  0  0  0  0  0  0  0  0  0  0  0
    8.5250    7.7577    0.0000 O   0  0  0  0  0  0  0  0  0  0  0  0
   11.1366    4.2678    0.0000 O   0  0  0  0  0  0  0  0  0  0  0  0
   10.4037   -5.6367    0.0000 O   0  0  0  0  0  0  0  0  0  0  0  0
    7.3201   14.4632    0.0000 O   0  0  0  0  0  0  0  0  0  0  0  0
    8.4016    0.2259    0.0000 O   0  0  0  0  0  0  0  0  0  0  0  0
    6.1885    9.0468    0.0000 O   0  0  0  0  0  0  0  0  0  0  0  0
   10.4538   -9.7304    0.0000 O   0  0  0  0  0  0  0  0  0  0  0  0
   16.0166    1.7275    0.0000 O   0  0  0  0  0  0  0  0  0  0  0  0
   16.0235    2.6234    0.0000 O   0  0  0  0  0  0  0  0  0  0  0  0
   13.9496    9.1434    0.0000 O   0  0  0  0  0  0  0  0  0  0  0  0
    8.8984   -4.1424    0.0000 O   0  0  0  0  0  0  0  0  0  0  0  0
   14.1187   10.0232    0.0000 O   0  0  0  0  0  0  0  0  0  0  0  0
   18.2124   -9.5141    0.0000 O   0  0  0  0  0  0  0  0  0  0  0  0
    5.8854    4.6608    0.0000 O   0  0  0  0  0  0  0  0  0  0  0  0
   18.3680   -8.6318    0.0000 O   0  0  0  0  0  0  0  0  0  0  0  0
   11.9092   -2.0425    0.0000 O   0  0  0  0  0  0  0  0  0  0  0  0
    9.2257    5.8330    0.0000 O   0  0  0  0  0  0  0  0  0  0  0  0
   10.2185  -14.1205    0.0000 O   0  0  0  0  0  0  0  0  0  0  0  0
    7.9047   -4.1424    0.0000 O   0  0  0  0  0  0  0  0  0  0  0  0
    4.9081    4.8409    0.0000 O   0  0  0  0  0  0  0  0  0  0  0  0
   15.1962   -1.5040    0.0000 O   0  0  0  0  0  0  0  0  0  0  0  0
    9.9468   -4.1544    0.0000 O   0  0  0  0  0  0  0  0  0  0  0  0
   12.5570    6.1141    0.0000 O   0  0  0  0  0  0  0  0  0  0  0  0
   15.2530    5.8671    0.0000 O   0  0  0  0  0  0  0  0  0  0  0  0
   16.5225    0.2678    0.0000 O   0  0  0  0  0  0  0  0  0  0  0  0
    7.8970    4.2740    0.0000 O   0  0  0  0  0  0  0  0  0  0  0  0
   16.8668  -12.5645    0.0000 O   0  0  0  0  0  0  0  0  0  0  0  0
   16.5519    4.0751    0.0000 O   0  0  0  0  0  0  0  0  0  0  0  0
   13.9488   13.3528    0.0000 O   0  0  0  0  0  0  0  0  0  0  0  0
   14.1826    7.6162    0.0000 O   0  0  0  0  0  0  0  0  0  0  0  0
   14.9015   11.3551    0.0000 O   0  0  0  0  0  0  0  0  0  0  0  0
   18.1468   -5.3052    0.0000 O   0  0  0  0  0  0  0  0  0  0  0  0
   18.4689  -11.0375    0.0000 O   0  0  0  0  0  0  0  0  0  0  0  0
    9.2385  -13.9555    0.0000 O   0  0  0  0  0  0  0  0  0  0  0  0
   19.1301   -7.2880    0.0000 O   0  0  0  0  0  0  0  0  0  0  0  0
   13.5401  -12.8970    0.0000 O   0  0  0  0  0  0  0  0  0  0  0  0
   12.2357  -14.4762    0.0000 O   0  0  0  0  0  0  0  0  0  0  0  0
    5.8565   -4.1582    0.0000 O   0  0  0  0  0  0  0  0  0  0  0  0
    4.8323   -2.3843    0.0000 O   0  0  0  0  0  0  0  0  0  0  0  0
    2.8910    5.1966    0.0000 O   0  0  0  0  0  0  0  0  0  0  0  0
    2.2053    7.1267    0.0000 O   0  0  0  0  0  0  0  0  0  0  0  0
   10.2532    8.7644    0.0000 O   0  0  0  0  0  0  0  0  0  0  0  0
   11.9891    7.7711    0.0000 O   0  0  0  0  0  0  0  0  0  0  0  0
   13.4033   -1.9768    0.0000 O   0  0  0  0  0  0  0  0  0  0  0  0
    7.2161  -13.6310    0.0000 O   0  0  0  0  0  0  0  0  0  0  0  0
    6.5007  -11.7116    0.0000 O   0  0  0  0  0  0  0  0  0  0  0  0
   14.1091   -3.8482    0.0000 O   0  0  0  0  0  0  0  0  0  0  0  0
    4.9057   10.8340    0.0000 O   0  0  0  0  0  0  0  0  0  0  0  0
    3.7335   14.0938    0.0000 O   0  0  0  0  0  0  0  0  0  0  0  0
    3.3786   12.1255    0.0000 O   0  0  0  0  0  0  0  0  0  0  0  0
   10.3024    1.6987    0.0000 C   0  0  1  0  0  0  0  0  0  0  0  0
    9.3924    1.1918    0.0000 C   0  0  1  0  0  0  0  0  0  0  0  0
    8.3248   10.1506    0.0000 C   0  0  1  0  0  0  0  0  0  0  0  0
    7.3380    9.8171    0.0000 C   0  0  1  0  0  0  0  0  0  0  0  0
   12.5729   -8.5937    0.0000 C   0  0  1  0  0  0  0  0  0  0  0  0
   11.5913   -8.9424    0.0000 C   0  0  1  0  0  0  0  0  0  0  0  0
   10.3105    2.7403    0.0000 C   0  0  2  0  0  0  0  0  0  0  0  0
    8.5264    1.6918    0.0000 C   0  0  1  0  0  0  0  0  0  0  0  0
    8.5215   11.1735    0.0000 C   0  0  2  0  0  0  0  0  0  0  0  0
    6.5770   10.4658    0.0000 C   0  0  1  0  0  0  0  0  0  0  0  0
   12.7538   -7.5679    0.0000 C   0  0  2  0  0  0  0  0  0  0  0  0
   10.8204   -8.3055    0.0000 C   0  0  1  0  0  0  0  0  0  0  0  0
    9.4084    3.2611    0.0000 C   0  0  1  0  0  0  0  0  0  0  0  0
    7.7287   11.8492    0.0000 C   0  0  1  0  0  0  0  0  0  0  0  0
   11.9507   -6.9045    0.0000 C   0  0  1  0  0  0  0  0  0  0  0  0
    7.6604    1.1918    0.0000 C   0  0  0  0  0  0  0  0  0  0  0  0
    5.6346   10.1310    0.0000 C   0  0  0  0  0  0  0  0  0  0  0  0
    9.8833   -8.6548    0.0000 C   0  0  0  0  0  0  0  0  0  0  0  0
    8.9016   -0.6401    0.0000 C   0  0  0  0  0  0  0  0  0  0  0  0
   12.0424    0.3508    0.0000 C   0  0  0  0  0  0  0  0  0  0  0  0
    6.5233    8.1045    0.0000 C   0  0  0  0  0  0  0  0  0  0  0  0
    9.7917    8.5097    0.0000 C   0  0  0  0  0  0  0  0  0  0  0  0
   14.0649  -10.2117    0.0000 C   0  0  0  0  0  0  0  0  0  0  0  0
   12.0710    4.0611    0.0000 C   0  0  0  0  0  0  0  0  0  0  0  0
   10.4923   12.1535    0.0000 C   0  0  0  0  0  0  0  0  0  0  0  0
   10.8031  -10.6674    0.0000 C   0  0  0  0  0  0  0  0  0  0  0  0
   14.7091   -6.5577    0.0000 C   0  0  0  0  0  0  0  0  0  0  0  0
    9.4016   -1.5062    0.0000 C   0  0  0  0  0  0  0  0  0  0  0  0
   13.1513    0.6857    0.0000 C   0  0  0  0  0  0  0  0  0  0  0  0
    6.8580    7.1622    0.0000 C   0  0  0  0  0  0  0  0  0  0  0  0
   10.9429    8.6381    0.0000 C   0  0  0  0  0  0  0  0  0  0  0  0
   13.1747    3.7092    0.0000 C   0  0  0  0  0  0  0  0  0  0  0  0
   10.2686    4.7644    0.0000 C   0  0  0  0  0  0  0  0  0  0  0  0
   15.2139  -10.0657    0.0000 C   0  0  0  0  0  0  0  0  0  0  0  0
   11.5138   11.6074    0.0000 C   0  0  0  0  0  0  0  0  0  0  0  0
   15.7390   -7.0880    0.0000 C   0  0  0  0  0  0  0  0  0  0  0  0
   11.3394   -5.2839    0.0000 C   0  0  0  0  0  0  0  0  0  0  0  0
    7.1426   13.4791    0.0000 C   0  0  0  0  0  0  0  0  0  0  0  0
   13.8456    1.6130    0.0000 C   0  0  0  0  0  0  0  0  0  0  0  0
   11.1524  -11.6044    0.0000 C   0  0  0  0  0  0  0  0  0  0  0  0
   13.8545    2.7713    0.0000 C   0  0  0  0  0  0  0  0  0  0  0  0
   11.7937    9.4242    0.0000 C   0  0  0  0  0  0  0  0  0  0  0  0
   12.0124   10.5618    0.0000 C   0  0  0  0  0  0  0  0  0  0  0  0
   16.0525   -9.2665    0.0000 C   0  0  0  0  0  0  0  0  0  0  0  0
    7.9016   -0.6401    0.0000 C   0  0  0  0  0  0  0  0  0  0  0  0
   16.2536   -8.1258    0.0000 C   0  0  0  0  0  0  0  0  0  0  0  0
    8.9016   -2.3722    0.0000 C   0  0  0  0  0  0  0  0  0  0  0  0
    5.5398    8.2857    0.0000 C   0  0  0  0  0  0  0  0  0  0  0  0
    6.2093    6.4012    0.0000 C   0  0  0  0  0  0  0  0  0  0  0  0
    9.8170  -10.5013    0.0000 C   0  0  0  0  0  0  0  0  0  0  0  0
    7.9016   -2.3722    0.0000 C   0  0  0  0  0  0  0  0  0  0  0  0
    7.4016   -1.5062    0.0000 C   0  0  0  0  0  0  0  0  0  0  0  0
   10.5155  -12.3754    0.0000 C   0  0  0  0  0  0  0  0  0  0  0  0
    5.2259    6.5823    0.0000 C   0  0  0  0  0  0  0  0  0  0  0  0
    4.8912    7.5246    0.0000 C   0  0  0  0  0  0  0  0  0  0  0  0
   10.4431   -1.4901    0.0000 C   0  0  0  0  0  0  0  0  0  0  0  0
    7.8852    6.9892    0.0000 C   0  0  0  0  0  0  0  0  0  0  0  0
   10.2648    5.7644    0.0000 C   0  0  0  0  0  0  0  0  0  0  0  0
    9.1802  -11.2723    0.0000 C   0  0  0  0  0  0  0  0  0  0  0  0
    9.5294  -12.2094    0.0000 C   0  0  0  0  0  0  0  0  0  0  0  0
   11.5017   -4.2971    0.0000 C   0  0  0  0  0  0  0  0  0  0  0  0
   13.6091   -0.4307    0.0000 C   0  0  0  0  0  0  0  0  0  0  0  0
   11.1908    7.4572    0.0000 C   0  0  0  0  0  0  0  0  0  0  0  0
   13.6496    4.8184    0.0000 C   0  0  0  0  0  0  0  0  0  0  0  0
   15.4801  -11.2425    0.0000 C   0  0  0  0  0  0  0  0  0  0  0  0
   12.1820   12.6121    0.0000 C   0  0  0  0  0  0  0  0  0  0  0  0
    6.2016   13.1407    0.0000 C   0  0  0  0  0  0  0  0  0  0  0  0
   15.0457    1.4882    0.0000 C   0  0  0  0  0  0  0  0  0  0  0  0
   16.3915   -6.0731    0.0000 C   0  0  0  0  0  0  0  0  0  0  0  0
   15.0564    2.8776    0.0000 C   0  0  0  0  0  0  0  0  0  0  0  0
   12.9513    9.0840    0.0000 C   0  0  0  0  0  0  0  0  0  0  0  0
    9.4084   -3.2822    0.0000 C   0  0  0  0  0  0  0  0  0  0  0  0
   13.2137   10.4484    0.0000 C   0  0  0  0  0  0  0  0  0  0  0  0
   17.2152   -9.5889    0.0000 C   0  0  0  0  0  0  0  0  0  0  0  0
    6.5429    5.4143    0.0000 C   0  0  0  0  0  0  0  0  0  0  0  0
   12.1821  -11.7615    0.0000 C   0  0  0  0  0  0  0  0  0  0  0  0
   17.4565   -8.2206    0.0000 C   0  0  0  0  0  0  0  0  0  0  0  0
   10.9708   -2.3881    0.0000 C   0  0  0  0  0  0  0  0  0  0  0  0
    8.2415    6.0104    0.0000 C   0  0  0  0  0  0  0  0  0  0  0  0
   10.8642  -13.3569    0.0000 C   0  0  0  0  0  0  0  0  0  0  0  0
    7.3947   -3.2822    0.0000 C   0  0  0  0  0  0  0  0  0  0  0  0
    9.3968    6.2611    0.0000 C   0  0  0  0  0  0  0  0  0  0  0  0
    4.5625    5.7793    0.0000 C   0  0  0  0  0  0  0  0  0  0  0  0
   14.8061   -0.5832    0.0000 C   0  0  0  0  0  0  0  0  0  0  0  0
    6.3601   -1.4901    0.0000 C   0  0  0  0  0  0  0  0  0  0  0  0
   11.1488   -3.3614    0.0000 C   0  0  0  0  0  0  0  0  0  0  0  0
   10.4500   -3.2902    0.0000 C   0  0  0  0  0  0  0  0  0  0  0  0
   12.3403    7.0903    0.0000 C   0  0  0  0  0  0  0  0  0  0  0  0
    3.8698    7.7292    0.0000 C   0  0  0  0  0  0  0  0  0  0  0  0
   14.8487    4.9524    0.0000 C   0  0  0  0  0  0  0  0  0  0  0  0
   15.5292    0.3827    0.0000 C   0  0  0  0  0  0  0  0  0  0  0  0
    7.5658    5.2176    0.0000 C   0  0  0  0  0  0  0  0  0  0  0  0
   16.6350  -11.5917    0.0000 C   0  0  0  0  0  0  0  0  0  0  0  0
    9.3930    7.2610    0.0000 C   0  0  0  0  0  0  0  0  0  0  0  0
   15.5569    3.9755    0.0000 C   0  0  0  0  0  0  0  0  0  0  0  0
   13.3855   12.5266    0.0000 C   0  0  0  0  0  0  0  0  0  0  0  0
   13.2265    7.9092    0.0000 C   0  0  0  0  0  0  0  0  0  0  0  0
   11.7827   -2.5880    0.0000 C   0  0  0  0  0  0  0  0  0  0  0  0
   13.9049   11.4375    0.0000 C   0  0  0  0  0  0  0  0  0  0  0  0
   17.5963   -6.1400    0.0000 C   0  0  0  0  0  0  0  0  0  0  0  0
   17.5084  -10.7593    0.0000 C   0  0  0  0  0  0  0  0  0  0  0  0
    8.8785  -13.0226    0.0000 C   0  0  0  0  0  0  0  0  0  0  0  0
   11.1289    6.2677    0.0000 C   0  0  0  0  0  0  0  0  0  0  0  0
    8.1558  -11.0836    0.0000 C   0  0  0  0  0  0  0  0  0  0  0  0
   18.1323   -7.2210    0.0000 C   0  0  0  0  0  0  0  0  0  0  0  0
   12.4884   -4.4594    0.0000 C   0  0  0  0  0  0  0  0  0  0  0  0
   12.5534  -12.7347    0.0000 C   0  0  0  0  0  0  0  0  0  0  0  0
   11.8900  -13.5378    0.0000 C   0  0  0  0  0  0  0  0  0  0  0  0
    6.3531   -3.2902    0.0000 C   0  0  0  0  0  0  0  0  0  0  0  0
    5.8323   -2.3881    0.0000 C   0  0  0  0  0  0  0  0  0  0  0  0
    5.4380   13.7864    0.0000 C   0  0  0  0  0  0  0  0  0  0  0  0
    6.0242   12.1566    0.0000 C   0  0  0  0  0  0  0  0  0  0  0  0
    3.5367    5.9601    0.0000 C   0  0  0  0  0  0  0  0  0  0  0  0
    3.1880    6.9417    0.0000 C   0  0  0  0  0  0  0  0  0  0  0  0
   10.2571    7.7644    0.0000 C   0  0  0  0  0  0  0  0  0  0  0  0
   11.1250    7.2677    0.0000 C   0  0  0  0  0  0  0  0  0  0  0  0
   12.7694   -2.7503    0.0000 C   0  0  0  0  0  0  0  0  0  0  0  0
    7.8500  -12.8575    0.0000 C   0  0  0  0  0  0  0  0  0  0  0  0
    7.4862  -11.8815    0.0000 C   0  0  0  0  0  0  0  0  0  0  0  0
   13.1223   -3.6860    0.0000 C   0  0  0  0  0  0  0  0  0  0  0  0
    5.0832   11.8182    0.0000 C   0  0  0  0  0  0  0  0  0  0  0  0
    4.4970   13.4480    0.0000 C   0  0  0  0  0  0  0  0  0  0  0  0
    4.3196   12.4639    0.0000 C   0  0  0  0  0  0  0  0  0  0  0  0
   10.1052    0.8719    0.0000 H   0  0  0  0  0  0  0  0  0  0  0  0
   10.1253    0.7612    0.0000 H   0  0  0  0  0  0  0  0  0  0  0  0
    7.9810    9.3733    0.0000 H   0  0  0  0  0  0  0  0  0  0  0  0
    7.9807    9.2608    0.0000 H   0  0  0  0  0  0  0  0  0  0  0  0
   12.2411   -9.3762    0.0000 H   0  0  0  0  0  0  0  0  0  0  0  0
   12.2425   -9.4887    0.0000 H   0  0  0  0  0  0  0  0  0  0  0  0
   10.1260    3.5700    0.0000 H   0  0  0  0  0  0  0  0  0  0  0  0
    7.7870    2.1111    0.0000 H   0  0  0  0  0  0  0  0  0  0  0  0
    8.4904   12.0230    0.0000 H   0  0  0  0  0  0  0  0  0  0  0  0
    5.9258   11.0122    0.0000 H   0  0  0  0  0  0  0  0  0  0  0  0
   12.7096   -6.7190    0.0000 H   0  0  0  0  0  0  0  0  0  0  0  0
   10.1609   -7.7693    0.0000 H   0  0  0  0  0  0  0  0  0  0  0  0
    8.8697    3.5680    0.0000 H   0  0  0  0  0  0  0  0  0  0  0  0
    7.2546   12.2487    0.0000 H   0  0  0  0  0  0  0  0  0  0  0  0
   11.4704   -6.5124    0.0000 H   0  0  0  0  0  0  0  0  0  0  0  0
    7.4999    1.7907    0.0000 H   0  0  0  0  0  0  0  0  0  0  0  0
    7.0404    1.1918    0.0000 H   0  0  0  0  0  0  0  0  0  0  0  0
    5.5854   10.7491    0.0000 H   0  0  0  0  0  0  0  0  0  0  0  0
    5.0249   10.2434    0.0000 H   0  0  0  0  0  0  0  0  0  0  0  0
    9.8245   -8.0376    0.0000 H   0  0  0  0  0  0  0  0  0  0  0  0
    9.2719   -8.5518    0.0000 H   0  0  0  0  0  0  0  0  0  0  0  0
   13.2319   -0.9227    0.0000 H   0  0  0  0  0  0  0  0  0  0  0  0
   10.7306    7.0418    0.0000 H   0  0  0  0  0  0  0  0  0  0  0  0
   13.2800    5.3162    0.0000 H   0  0  0  0  0  0  0  0  0  0  0  0
   15.0264  -11.6651    0.0000 H   0  0  0  0  0  0  0  0  0  0  0  0
   11.9086   13.1686    0.0000 H   0  0  0  0  0  0  0  0  0  0  0  0
   16.1097   -5.5208    0.0000 H   0  0  0  0  0  0  0  0  0  0  0  0
   12.5714  -11.2790    0.0000 H   0  0  0  0  0  0  0  0  0  0  0  0
    8.8611    5.9490    0.0000 H   0  0  0  0  0  0  0  0  0  0  0  0
    6.0563   -0.9496    0.0000 H   0  0  0  0  0  0  0  0  0  0  0  0
   10.5370   -3.2608    0.0000 H   0  0  0  0  0  0  0  0  0  0  0  0
    3.6690    8.3158    0.0000 H   0  0  0  0  0  0  0  0  0  0  0  0
   11.6670    5.9598    0.0000 H   0  0  0  0  0  0  0  0  0  0  0  0
    7.9460  -10.5001    0.0000 H   0  0  0  0  0  0  0  0  0  0  0  0
   12.7072   -5.0395    0.0000 H   0  0  0  0  0  0  0  0  0  0  0  0
    5.5481   14.3966    0.0000 H   0  0  0  0  0  0  0  0  0  0  0  0
    6.4976   11.7562    0.0000 H   0  0  0  0  0  0  0  0  0  0  0  0
   16.4461    1.2803    0.0000 H   0  0  0  0  0  0  0  0  0  0  0  0
   16.4598    3.0639    0.0000 H   0  0  0  0  0  0  0  0  0  0  0  0
   14.2909    8.6258    0.0000 H   0  0  0  0  0  0  0  0  0  0  0  0
    9.2022   -4.6829    0.0000 H   0  0  0  0  0  0  0  0  0  0  0  0
   14.6277   10.3773    0.0000 H   0  0  0  0  0  0  0  0  0  0  0  0
   18.5617  -10.0264    0.0000 H   0  0  0  0  0  0  0  0  0  0  0  0
    6.0862    4.0742    0.0000 H   0  0  0  0  0  0  0  0  0  0  0  0
   18.4298   -9.2487    0.0000 H   0  0  0  0  0  0  0  0  0  0  0  0
   12.0145   -1.4315    0.0000 H   0  0  0  0  0  0  0  0  0  0  0  0
    9.4355    5.2496    0.0000 H   0  0  0  0  0  0  0  0  0  0  0  0
   10.4283  -14.7039    0.0000 H   0  0  0  0  0  0  0  0  0  0  0  0
    7.6009   -4.6829    0.0000 H   0  0  0  0  0  0  0  0  0  0  0  0
    4.5114    4.3644    0.0000 H   0  0  0  0  0  0  0  0  0  0  0  0
   15.8115   -1.5800    0.0000 H   0  0  0  0  0  0  0  0  0  0  0  0
   10.2546   -4.6924    0.0000 H   0  0  0  0  0  0  0  0  0  0  0  0
   13.1484    5.9279    0.0000 H   0  0  0  0  0  0  0  0  0  0  0  0
   14.8872    6.3677    0.0000 H   0  0  0  0  0  0  0  0  0  0  0  0
   16.7688   -0.3012    0.0000 H   0  0  0  0  0  0  0  0  0  0  0  0
    7.4930    3.8037    0.0000 H   0  0  0  0  0  0  0  0  0  0  0  0
   16.4164  -12.9904    0.0000 H   0  0  0  0  0  0  0  0  0  0  0  0
   16.8069    4.6402    0.0000 H   0  0  0  0  0  0  0  0  0  0  0  0
   13.6798   13.9114    0.0000 H   0  0  0  0  0  0  0  0  0  0  0  0
   14.6363    8.0387    0.0000 H   0  0  0  0  0  0  0  0  0  0  0  0
   15.1662   10.7944    0.0000 H   0  0  0  0  0  0  0  0  0  0  0  0
   18.7657   -5.3420    0.0000 H   0  0  0  0  0  0  0  0  0  0  0  0
   18.6173  -11.6395    0.0000 H   0  0  0  0  0  0  0  0  0  0  0  0
    8.8493  -14.4380    0.0000 H   0  0  0  0  0  0  0  0  0  0  0  0
   19.4034   -7.8445    0.0000 H   0  0  0  0  0  0  0  0  0  0  0  0
   13.7589  -13.4771    0.0000 H   0  0  0  0  0  0  0  0  0  0  0  0
   12.8467  -14.5815    0.0000 H   0  0  0  0  0  0  0  0  0  0  0  0
    5.2365   -4.1606    0.0000 H   0  0  0  0  0  0  0  0  0  0  0  0
    4.5244   -1.8462    0.0000 H   0  0  0  0  0  0  0  0  0  0  0  0
    2.2808    5.3067    0.0000 H   0  0  0  0  0  0  0  0  0  0  0  0
    2.0000    7.7117    0.0000 H   0  0  0  0  0  0  0  0  0  0  0  0
   10.7890    9.0764    0.0000 H   0  0  0  0  0  0  0  0  0  0  0  0
   11.9867    8.3911    0.0000 H   0  0  0  0  0  0  0  0  0  0  0  0
   14.0151   -2.0774    0.0000 H   0  0  0  0  0  0  0  0  0  0  0  0
    6.6043  -13.5304    0.0000 H   0  0  0  0  0  0  0  0  0  0  0  0
    6.1040  -12.1881    0.0000 H   0  0  0  0  0  0  0  0  0  0  0  0
   14.5021   -3.3687    0.0000 H   0  0  0  0  0  0  0  0  0  0  0  0
    4.3223   10.6242    0.0000 H   0  0  0  0  0  0  0  0  0  0  0  0
    3.8435   14.7039    0.0000 H   0  0  0  0  0  0  0  0  0  0  0  0
    2.9052   12.5259    0.0000 H   0  0  0  0  0  0  0  0  0  0  0  0
  1 86  1  0  0  0  0
  1 91  1  0  0  0  0
  2 88  1  0  0  0  0
  2 92  1  0  0  0  0
  3 90  1  0  0  0  0
  3 93  1  0  0  0  0
  4 79  1  0  0  0  0
  4 98  1  0  0  0  0
  5 80  1  0  0  0  0
  5 97  1  0  0  0  0
  6 81  1  0  0  0  0
  6100  1  0  0  0  0
  7 82  1  0  0  0  0
  7 99  1  0  0  0  0
  8 83  1  0  0  0  0
  8101  1  0  0  0  0
  9 85  1  0  0  0  0
  9102  1  0  0  0  0
 10 84  1  0  0  0  0
 10104  1  0  0  0  0
 11 87  1  0  0  0  0
 11103  1  0  0  0  0
 12 89  1  0  0  0  0
 12105  1  0  0  0  0
 13111  1  0  0  0  0
 14116  1  0  0  0  0
 15115  1  0  0  0  0
 16 94  1  0  0  0  0
 16123  1  0  0  0  0
 17 95  1  0  0  0  0
 17126  1  0  0  0  0
 18 96  1  0  0  0  0
 18128  1  0  0  0  0
 19 97  2  0  0  0  0
 20 98  2  0  0  0  0
 21 99  2  0  0  0  0
 22100  2  0  0  0  0
 23101  2  0  0  0  0
 24102  2  0  0  0  0
 25103  2  0  0  0  0
 26104  2  0  0  0  0
 27105  2  0  0  0  0
 28134  1  0  0  0  0
 28176  1  0  0  0  0
 29135  1  0  0  0  0
 29172  1  0  0  0  0
 30111  2  0  0  0  0
 31115  2  0  0  0  0
 32116  2  0  0  0  0
 33123  2  0  0  0  0
 34126  2  0  0  0  0
 35128  2  0  0  0  0
 36146  1  0  0  0  0
 36239  1  0  0  0  0
 37148  1  0  0  0  0
 37240  1  0  0  0  0
 38149  1  0  0  0  0
 38241  1  0  0  0  0
 39150  1  0  0  0  0
 39242  1  0  0  0  0
 40151  1  0  0  0  0
 40243  1  0  0  0  0
 41152  1  0  0  0  0
 41244  1  0  0  0  0
 42153  1  0  0  0  0
 42245  1  0  0  0  0
 43155  1  0  0  0  0
 43246  1  0  0  0  0
 44156  1  0  0  0  0
 44247  1  0  0  0  0
 45157  1  0  0  0  0
 45248  1  0  0  0  0
 46158  1  0  0  0  0
 46249  1  0  0  0  0
 47159  1  0  0  0  0
 47250  1  0  0  0  0
 48161  1  0  0  0  0
 48251  1  0  0  0  0
 49162  1  0  0  0  0
 49252  1  0  0  0  0
 50165  1  0  0  0  0
 50253  1  0  0  0  0
 51166  1  0  0  0  0
 51254  1  0  0  0  0
 52168  1  0  0  0  0
 52255  1  0  0  0  0
 53169  1  0  0  0  0
 53256  1  0  0  0  0
 54170  1  0  0  0  0
 54257  1  0  0  0  0
 55171  1  0  0  0  0
 55258  1  0  0  0  0
 56173  1  0  0  0  0
 56259  1  0  0  0  0
 57174  1  0  0  0  0
 57260  1  0  0  0  0
 58175  1  0  0  0  0
 58261  1  0  0  0  0
 59177  1  0  0  0  0
 59262  1  0  0  0  0
 60178  1  0  0  0  0
 60263  1  0  0  0  0
 61179  1  0  0  0  0
 61264  1  0  0  0  0
 62180  1  0  0  0  0
 62265  1  0  0  0  0
 63183  1  0  0  0  0
 63266  1  0  0  0  0
 64185  1  0  0  0  0
 64267  1  0  0  0  0
 65186  1  0  0  0  0
 65268  1  0  0  0  0
 66187  1  0  0  0  0
 66269  1  0  0  0  0
 67188  1  0  0  0  0
 67270  1  0  0  0  0
 68191  1  0  0  0  0
 68271  1  0  0  0  0
 69192  1  0  0  0  0
 69272  1  0  0  0  0
 70193  1  0  0  0  0
 70273  1  0  0  0  0
 71194  1  0  0  0  0
 71274  1  0  0  0  0
 72195  1  0  0  0  0
 72275  1  0  0  0  0
 73196  1  0  0  0  0
 73276  1  0  0  0  0
 74197  1  0  0  0  0
 74277  1  0  0  0  0
 75198  1  0  0  0  0
 75278  1  0  0  0  0
 76199  1  0  0  0  0
 76279  1  0  0  0  0
 77200  1  0  0  0  0
 77280  1  0  0  0  0
 78201  1  0  0  0  0
 78281  1  0  0  0  0
 79 80  1  1  0  0  0
 79202  1  0  0  0  0
 80 86  1  1  0  0  0
 80203  1  0  0  0  0
 81 82  1  1  0  0  0
 81204  1  0  0  0  0
 82 88  1  1  0  0  0
 82205  1  0  0  0  0
 83 84  1  1  0  0  0
 83206  1  0  0  0  0
 84 90  1  1  0  0  0
 84207  1  0  0  0  0
 85 79  1  1  0  0  0
 85208  1  0  0  0  0
 86 94  1  0  0  0  0
 86209  1  6  0  0  0
 87 81  1  1  0  0  0
 87210  1  0  0  0  0
 88 95  1  0  0  0  0
 88211  1  6  0  0  0
 89 83  1  1  0  0  0
 89212  1  0  0  0  0
 90 96  1  0  0  0  0
 90213  1  6  0  0  0
 91 13  1  0  0  0  0
 91 85  1  6  0  0  0
 91214  1  0  0  0  0
 92 14  1  0  0  0  0
 92 87  1  6  0  0  0
 92215  1  0  0  0  0
 93 15  1  0  0  0  0
 93 89  1  6  0  0  0
 93216  1  0  0  0  0
 94217  1  0  0  0  0
 94218  1  0  0  0  0
 95219  1  0  0  0  0
 95220  1  0  0  0  0
 96221  1  0  0  0  0
 96222  1  0  0  0  0
 97106  1  0  0  0  0
 98107  1  0  0  0  0
 99108  1  0  0  0  0
100109  1  0  0  0  0
101112  1  0  0  0  0
102110  1  0  0  0  0
103113  1  0  0  0  0
104118  1  0  0  0  0
105114  1  0  0  0  0
106125  2  0  0  0  0
106134  1  0  0  0  0
107117  1  0  0  0  0
107140  2  0  0  0  0
108127  2  0  0  0  0
108135  1  0  0  0  0
109120  1  0  0  0  0
109141  2  0  0  0  0
110119  1  0  0  0  0
110142  2  0  0  0  0
111136  1  0  0  0  0
112122  1  0  0  0  0
112143  2  0  0  0  0
113121  1  0  0  0  0
113144  2  0  0  0  0
114124  1  0  0  0  0
114147  2  0  0  0  0
115139  1  0  0  0  0
116145  1  0  0  0  0
117119  1  0  0  0  0
117146  2  0  0  0  0
118131  1  0  0  0  0
118154  2  0  0  0  0
119148  2  0  0  0  0
120121  1  0  0  0  0
120149  2  0  0  0  0
121151  2  0  0  0  0
122124  1  0  0  0  0
122152  2  0  0  0  0
123130  1  0  0  0  0
124155  2  0  0  0  0
125129  1  0  0  0  0
125150  1  0  0  0  0
126133  1  0  0  0  0
127132  1  0  0  0  0
127153  1  0  0  0  0
128137  1  0  0  0  0
129130  1  0  0  0  0
129159  2  0  0  0  0
130163  2  0  0  0  0
131138  1  0  0  0  0
131158  2  0  0  0  0
132133  1  0  0  0  0
132161  2  0  0  0  0
133167  2  0  0  0  0
134156  2  0  0  0  0
135157  2  0  0  0  0
136160  1  0  0  0  0
136181  2  0  0  0  0
137138  1  0  0  0  0
137182  2  0  0  0  0
138180  2  0  0  0  0
139164  1  0  0  0  0
139184  2  0  0  0  0
140162  1  0  0  0  0
140223  1  0  0  0  0
141166  1  0  0  0  0
141224  1  0  0  0  0
142168  1  0  0  0  0
142225  1  0  0  0  0
143171  1  0  0  0  0
143226  1  0  0  0  0
144174  1  0  0  0  0
144227  1  0  0  0  0
145189  2  0  0  0  0
145190  1  0  0  0  0
146169  1  0  0  0  0
147178  1  0  0  0  0
147228  1  0  0  0  0
148173  1  0  0  0  0
149175  1  0  0  0  0
150165  2  0  0  0  0
151177  1  0  0  0  0
152179  1  0  0  0  0
153170  2  0  0  0  0
154185  1  0  0  0  0
154229  1  0  0  0  0
155183  1  0  0  0  0
156165  1  0  0  0  0
157170  1  0  0  0  0
158186  1  0  0  0  0
159187  1  0  0  0  0
160172  2  0  0  0  0
160230  1  0  0  0  0
161191  1  0  0  0  0
162169  2  0  0  0  0
163188  1  0  0  0  0
163231  1  0  0  0  0
164176  2  0  0  0  0
164232  1  0  0  0  0
166175  2  0  0  0  0
167192  1  0  0  0  0
167233  1  0  0  0  0
168173  2  0  0  0  0
171179  2  0  0  0  0
172193  1  0  0  0  0
174177  2  0  0  0  0
176195  1  0  0  0  0
178183  2  0  0  0  0
180196  1  0  0  0  0
181194  1  0  0  0  0
181234  1  0  0  0  0
182197  1  0  0  0  0
182235  1  0  0  0  0
184198  1  0  0  0  0
184236  1  0  0  0  0
185186  2  0  0  0  0
187188  2  0  0  0  0
189200  1  0  0  0  0
189237  1  0  0  0  0
190199  2  0  0  0  0
190238  1  0  0  0  0
191192  2  0  0  0  0
193194  2  0  0  0  0
195198  2  0  0  0  0
196197  2  0  0  0  0
199201  1  0  0  0  0
200201  2  0  0  0  0
M  END
>  <PUBCHEM_COMPOUND_CID>
23651312

>  <PUBCHEM_COMPOUND_CANONICALIZED>
0

>  <PUBCHEM_CACTVS_COMPLEXITY>
6960

>  <PUBCHEM_CACTVS_HBOND_ACCEPTOR>
78

>  <PUBCHEM_CACTVS_HBOND_DONOR>
43

>  <PUBCHEM_CACTVS_ROTATABLE_BOND>
13

>  <PUBCHEM_CACTVS_SUBSKEYS>
AAADcfB8PgAAAAAAAAAAAAAAAAAAAAAAAAA0aNGDAAAAAACRVAAAGgAACAAADBSwmAMwDoAABgCIAiDSCAACCAAkIAAAiAEGiMgdJzaGNRqieWOl4BUPuYfK7PzOoQABCAAYQABCAAIQADCAAAAAAAAAAA==

>  <PUBCHEM_IUPAC_INCHI>
InChI=1S/C123H80O78/c124-33-1-20(2-34(125)66(33)138)106(167)199-121-104-101(194-114(175)28-12-42(133)72(144)82(154)55(28)58-31(117(178)197-104)15-45(136)75(147)85(58)157)96-50(188-121)18-183-110(171)24-8-38(129)77(149)87(159)60(24)62-64(119(180)191-96)98(93(165)91(163)89(62)161)186-48-6-22(4-36(127)68(48)140)108(169)201-123-105-102(195-115(176)29-13-43(134)73(145)83(155)56(29)59-32(118(179)198-105)16-46(137)76(148)86(59)158)97-51(189-123)19-184-111(172)25-9-39(130)78(150)88(160)61(25)63-65(120(181)192-97)99(94(166)92(164)90(63)162)185-47-5-21(3-35(126)67(47)139)107(168)200-122-103-100(193-113(174)27-11-41(132)71(143)81(153)54(27)57-30(116(177)196-103)14-44(135)74(146)84(57)156)95-49(187-122)17-182-109(170)23-7-37(128)69(141)79(151)52(23)53-26(112(173)190-95)10-40(131)70(142)80(53)152/h1-16,49-51,95-97,100-105,121-166H,17-19H2/t49-,50-,51-,95-,96-,97-,100+,101+,102+,103-,104-,105-,121+,122+,123+/m1/s1

>  <PUBCHEM_IUPAC_INCHIKEY>
KPIIQBZSYJKNLJ-PDZZWESLSA-N

>  <PUBCHEM_XLOGP3_AA>
6.2

>  <PUBCHEM_EXACT_MASS>
2805.233

>  <PUBCHEM_MOLECULAR_FORMULA>
C123H80O78

>  <PUBCHEM_MOLECULAR_WEIGHT>
2805.915

>  <PUBCHEM_OPENEYE_CAN_SMILES>
C1C2C(C3C(C(O2)OC(=O)C4=CC(=C(C(=C4)OC5=C(C(=C(C6=C5C(=O)OC7C(COC(=O)C8=CC(=C(C(=C86)O)O)O)OC(C9C7OC(=O)C2=CC(=C(C(=C2C2=C(C(=C(C=C2C(=O)O9)O)O)O)O)O)O)OC(=O)C2=CC(=C(C(=C2)OC2=C(C(=C(C4=C2C(=O)OC2C(COC(=O)C5=CC(=C(C(=C54)O)O)O)OC(C4C2OC(=O)C2=CC(=C(C(=C2C2=C(C(=C(C=C2C(=O)O4)O)O)O)O)O)O)OC(=O)C2=CC(=C(C(=C2)O)O)O)O)O)O)O)O)O)O)O)O)O)OC(=O)C2=CC(=C(C(=C2C2=C(C(=C(C=C2C(=O)O3)O)O)O)O)O)O)OC(=O)C2=CC(=C(C(=C2C2=C(C(=C(C=C2C(=O)O1)O)O)O)O)O)O

>  <PUBCHEM_OPENEYE_ISO_SMILES>
C1[C@@H]2[C@H]([C@H]3[C@H]([C@@H](O2)OC(=O)C4=CC(=C(C(=C4)OC5=C(C(=C(C6=C5C(=O)O[C@@H]7[C@@H](COC(=O)C8=CC(=C(C(=C86)O)O)O)O[C@H]([C@H]9[C@H]7OC(=O)C2=CC(=C(C(=C2C2=C(C(=C(C=C2C(=O)O9)O)O)O)O)O)O)OC(=O)C2=CC(=C(C(=C2)OC2=C(C(=C(C4=C2C(=O)O[C@@H]2[C@@H](COC(=O)C5=CC(=C(C(=C54)O)O)O)O[C@H]([C@H]4[C@H]2OC(=O)C2=CC(=C(C(=C2C2=C(C(=C(C=C2C(=O)O4)O)O)O)O)O)O)OC(=O)C2=CC(=C(C(=C2)O)O)O)O)O)O)O)O)O)O)O)O)O)OC(=O)C2=CC(=C(C(=C2C2=C(C(=C(C=C2C(=O)O3)O)O)O)O)O)O)OC(=O)C2=CC(=C(C(=C2C2=C(C(=C(C=C2C(=O)O1)O)O)O)O)O)O

>  <PUBCHEM_CACTVS_TPSA>
1310

>  <PUBCHEM_MONOISOTOPIC_WEIGHT>
2804.229

>  <PUBCHEM_TOTAL_CHARGE>
0

>  <PUBCHEM_HEAVY_ATOM_COUNT>
201

>  <PUBCHEM_ATOM_DEF_STEREO_COUNT>
15

>  <PUBCHEM_ATOM_UDEF_STEREO_COUNT>
0

>  <PUBCHEM_BOND_DEF_STEREO_COUNT>
0

>  <PUBCHEM_BOND_UDEF_STEREO_COUNT>
0

>  <PUBCHEM_ISOTOPIC_ATOM_COUNT>
0

>  <PUBCHEM_COMPONENT_COUNT>
1

>  <PUBCHEM_CACTVS_TAUTO_COUNT>
489

>  <PUBCHEM_COORDINATE_TYPE>
1
5
255

>  <PUBCHEM_BONDANNOTATIONS>
106  125  8
106  134  8
107  117  8
107  140  8
108  127  8
108  135  8
109  120  8
109  141  8
110  119  8
110  142  8
112  122  8
112  143  8
113  121  8
113  144  8
114  124  8
114  147  8
117  146  8
118  131  8
118  154  8
119  148  8
120  149  8
121  151  8
122  152  8
124  155  8
125  150  8
127  153  8
129  130  8
129  159  8
91  13  5
130  163  8
131  158  8
132  133  8
132  161  8
133  167  8
134  156  8
135  157  8
136  160  8
136  181  8
137  138  8
137  182  8
138  180  8
139  164  8
139  184  8
92  14  5
140  162  8
141  166  8
142  168  8
143  171  8
144  174  8
145  189  8
145  190  8
146  169  8
147  178  8
148  173  8
149  175  8
93  15  5
150  165  8
151  177  8
152  179  8
153  170  8
154  185  8
155  183  8
156  165  8
157  170  8
158  186  8
159  187  8
160  172  8
161  191  8
162  169  8
163  188  8
164  176  8
166  175  8
167  192  8
168  173  8
171  179  8
172  193  8
174  177  8
176  195  8
178  183  8
180  196  8
181  194  8
182  197  8
184  198  8
185  186  8
187  188  8
189  200  8
190  199  8
191  192  8
193  194  8
195  198  8
196  197  8
199  201  8
200  201  8
79  202  6
80  203  5
81  204  6
82  205  5
83  206  6
84  207  5
85  208  5
86  209  6
87  210  5
88  211  6
89  212  5
90  213  6

$$$$
