23719
 OpenBabel06101807152D

 15 15  0  0  0  0  0  0  0  0999 V2000
    2.0000    0.5000    0.0000 O   0  0  0  0  0  0  0  0  0  0  0  0
    3.7320   -1.5000    0.0000 N   0  0  0  0  0  0  0  0  0  0  0  0
    2.8660    0.0000    0.0000 C   0  0  0  0  0  0  0  0  0  0  0  0
    3.7320    0.5000    0.0000 C   0  0  0  0  0  0  0  0  0  0  0  0
    2.8660   -1.0000    0.0000 C   0  0  0  0  0  0  0  0  0  0  0  0
    4.5981    0.0000    0.0000 C   0  0  0  0  0  0  0  0  0  0  0  0
    4.5981   -1.0000    0.0000 C   0  0  0  0  0  0  0  0  0  0  0  0
    2.0000    1.5000    0.0000 C   0  0  0  0  0  0  0  0  0  0  0  0
    3.7320    1.1200    0.0000 H   0  0  0  0  0  0  0  0  0  0  0  0
    2.3291   -1.3100    0.0000 H   0  0  0  0  0  0  0  0  0  0  0  0
    5.1350    0.3100    0.0000 H   0  0  0  0  0  0  0  0  0  0  0  0
    5.1350   -1.3100    0.0000 H   0  0  0  0  0  0  0  0  0  0  0  0
    2.6200    1.5000    0.0000 H   0  0  0  0  0  0  0  0  0  0  0  0
    2.0000    2.1200    0.0000 H   0  0  0  0  0  0  0  0  0  0  0  0
    1.3800    1.5000    0.0000 H   0  0  0  0  0  0  0  0  0  0  0  0
  1  3  1  0  0  0  0
  1  8  1  0  0  0  0
  2  5  1  0  0  0  0
  2  7  2  0  0  0  0
  3  4  1  0  0  0  0
  3  5  2  0  0  0  0
  4  6  2  0  0  0  0
  4  9  1  0  0  0  0
  5 10  1  0  0  0  0
  6  7  1  0  0  0  0
  6 11  1  0  0  0  0
  7 12  1  0  0  0  0
  8 13  1  0  0  0  0
  8 14  1  0  0  0  0
  8 15  1  0  0  0  0
M  END
>  <PUBCHEM_COMPOUND_CID>
23719

>  <PUBCHEM_COMPOUND_CANONICALIZED>
1

>  <PUBCHEM_CACTVS_COMPLEXITY>
65.5

>  <PUBCHEM_CACTVS_HBOND_ACCEPTOR>
2

>  <PUBCHEM_CACTVS_HBOND_DONOR>
0

>  <PUBCHEM_CACTVS_ROTATABLE_BOND>
1

>  <PUBCHEM_CACTVS_SUBSKEYS>
AAADcYBiIAAAAAAAAAAAAAAAAAAAAAAAAAAsAAAAAAAAAAABgAAAHgAAAAAACATBkgY+hpIIFACgADBnRASCiCAxYiAI2CA/bJgOJuLEsZuFMChkwBHY6AYwAAAAAAAAAAAAAAAAAAAAAAAAAAAAAAAAAA==

>  <PUBCHEM_IUPAC_OPENEYE_NAME>
3-methoxypyridine

>  <PUBCHEM_IUPAC_CAS_NAME>
3-methoxypyridine

>  <PUBCHEM_IUPAC_NAME>
3-methoxypyridine

>  <PUBCHEM_IUPAC_SYSTEMATIC_NAME>
3-methoxypyridine

>  <PUBCHEM_IUPAC_TRADITIONAL_NAME>
3-methoxypyridine

>  <PUBCHEM_IUPAC_INCHI>
InChI=1S/C6H7NO/c1-8-6-3-2-4-7-5-6/h2-5H,1H3

>  <PUBCHEM_IUPAC_INCHIKEY>
UMJSCPRVCHMLSP-UHFFFAOYSA-N

>  <PUBCHEM_XLOGP3>
1

>  <PUBCHEM_EXACT_MASS>
109.053

>  <PUBCHEM_MOLECULAR_FORMULA>
C6H7NO

>  <PUBCHEM_MOLECULAR_WEIGHT>
109.128

>  <PUBCHEM_OPENEYE_CAN_SMILES>
COC1=CN=CC=C1

>  <PUBCHEM_OPENEYE_ISO_SMILES>
COC1=CN=CC=C1

>  <PUBCHEM_CACTVS_TPSA>
22.1

>  <PUBCHEM_MONOISOTOPIC_WEIGHT>
109.053

>  <PUBCHEM_TOTAL_CHARGE>
0

>  <PUBCHEM_HEAVY_ATOM_COUNT>
8

>  <PUBCHEM_ATOM_DEF_STEREO_COUNT>
0

>  <PUBCHEM_ATOM_UDEF_STEREO_COUNT>
0

>  <PUBCHEM_BOND_DEF_STEREO_COUNT>
0

>  <PUBCHEM_BOND_UDEF_STEREO_COUNT>
0

>  <PUBCHEM_ISOTOPIC_ATOM_COUNT>
0

>  <PUBCHEM_COMPONENT_COUNT>
1

>  <PUBCHEM_CACTVS_TAUTO_COUNT>
1

>  <PUBCHEM_COORDINATE_TYPE>
1
5
255

>  <PUBCHEM_BONDANNOTATIONS>
2  5  8
2  7  8
3  4  8
3  5  8
4  6  8
6  7  8

$$$$
