23724657
 OpenBabel06101807152D

 62 65  0  0  1  0  0  0  0  0999 V2000
    8.5991   -2.7856    0.0000 O   0  0  0  0  0  0  0  0  0  0  0  0
   10.3312   -2.7856    0.0000 O   0  0  0  0  0  0  0  0  0  0  0  0
    6.8671   -4.7857    0.0000 O   0  0  0  0  0  0  0  0  0  0  0  0
    8.5991   -5.7857    0.0000 O   0  0  0  0  0  0  0  0  0  0  0  0
   10.3312   -4.7857    0.0000 O   0  0  0  0  0  0  0  0  0  0  0  0
    6.0010   -3.2856    0.0000 O   0  0  0  0  0  0  0  0  0  0  0  0
    8.5991   -1.7856    0.0000 O   0  0  0  0  0  0  0  0  0  0  0  0
   12.1072    0.2212    0.0000 O   0  0  0  0  0  0  0  0  0  0  0  0
    5.1350   -1.7856    0.0000 O   0  0  0  0  0  0  0  0  0  0  0  0
    9.4434    1.7458    0.0000 O   0  0  0  0  0  0  0  0  0  0  0  0
    2.5369   -3.2856    0.0000 O   0  0  0  0  0  0  0  0  0  0  0  0
    3.4030   -1.7856    0.0000 O   0  0  0  0  0  0  0  0  0  0  0  0
   11.1977    5.7836    0.0000 O   0  0  0  0  0  0  0  0  0  0  0  0
    7.7331   -4.2857    0.0000 C   0  0  1  0  0  0  0  0  0  0  0  0
    8.5991   -4.7857    0.0000 C   0  0  1  0  0  0  0  0  0  0  0  0
    7.7331   -3.2856    0.0000 C   0  0  1  0  0  0  0  0  0  0  0  0
    9.4651   -4.2857    0.0000 C   0  0  2  0  0  0  0  0  0  0  0  0
    9.4651   -3.2856    0.0000 C   0  0  1  0  0  0  0  0  0  0  0  0
    6.8671   -2.7856    0.0000 C   0  0  0  0  0  0  0  0  0  0  0  0
   10.3312   -1.7856    0.0000 C   0  0  0  0  0  0  0  0  0  0  0  0
    9.4651   -1.2856    0.0000 C   0  0  0  0  0  0  0  0  0  0  0  0
   11.1972   -1.2856    0.0000 C   0  0  0  0  0  0  0  0  0  0  0  0
   11.1972   -0.2856    0.0000 C   0  0  0  0  0  0  0  0  0  0  0  0
    5.1350   -2.7856    0.0000 C   0  0  0  0  0  0  0  0  0  0  0  0
   10.3312    0.2144    0.0000 C   0  0  0  0  0  0  0  0  0  0  0  0
    9.4651   -0.2856    0.0000 C   0  0  0  0  0  0  0  0  0  0  0  0
   10.3151    1.2559    0.0000 C   0  0  0  0  0  0  0  0  0  0  0  0
    4.2690   -3.2856    0.0000 C   0  0  0  0  0  0  0  0  0  0  0  0
   11.2131    1.7836    0.0000 C   0  0  0  0  0  0  0  0  0  0  0  0
   12.1152    1.2628    0.0000 C   0  0  0  0  0  0  0  0  0  0  0  0
   11.2093    2.7836    0.0000 C   0  0  0  0  0  0  0  0  0  0  0  0
    7.7331   -1.2856    0.0000 C   0  0  0  0  0  0  0  0  0  0  0  0
    3.4030   -2.7856    0.0000 C   0  0  0  0  0  0  0  0  0  0  0  0
   12.0734    3.2869    0.0000 C   0  0  0  0  0  0  0  0  0  0  0  0
   10.3413    3.2803    0.0000 C   0  0  0  0  0  0  0  0  0  0  0  0
   12.0695    4.2869    0.0000 C   0  0  0  0  0  0  0  0  0  0  0  0
   10.3375    4.2802    0.0000 C   0  0  0  0  0  0  0  0  0  0  0  0
   11.2016    4.7836    0.0000 C   0  0  0  0  0  0  0  0  0  0  0  0
    7.7331   -4.9056    0.0000 H   0  0  0  0  0  0  0  0  0  0  0  0
    9.1360   -5.0956    0.0000 H   0  0  0  0  0  0  0  0  0  0  0  0
    7.7331   -2.6656    0.0000 H   0  0  0  0  0  0  0  0  0  0  0  0
   10.0021   -3.9756    0.0000 H   0  0  0  0  0  0  0  0  0  0  0  0
    9.4651   -2.6656    0.0000 H   0  0  0  0  0  0  0  0  0  0  0  0
    7.2656   -2.3107    0.0000 H   0  0  0  0  0  0  0  0  0  0  0  0
    6.4685   -2.3107    0.0000 H   0  0  0  0  0  0  0  0  0  0  0  0
    6.8671   -5.4056    0.0000 H   0  0  0  0  0  0  0  0  0  0  0  0
    8.0622   -6.0956    0.0000 H   0  0  0  0  0  0  0  0  0  0  0  0
   10.3312   -5.4056    0.0000 H   0  0  0  0  0  0  0  0  0  0  0  0
   11.7341   -1.5956    0.0000 H   0  0  0  0  0  0  0  0  0  0  0  0
    8.9282    0.0244    0.0000 H   0  0  0  0  0  0  0  0  0  0  0  0
    3.8705   -3.7606    0.0000 H   0  0  0  0  0  0  0  0  0  0  0  0
    4.6675   -3.7606    0.0000 H   0  0  0  0  0  0  0  0  0  0  0  0
   12.6533    1.5707    0.0000 H   0  0  0  0  0  0  0  0  0  0  0  0
    8.0431   -0.7487    0.0000 H   0  0  0  0  0  0  0  0  0  0  0  0
    7.1962   -0.9756    0.0000 H   0  0  0  0  0  0  0  0  0  0  0  0
    7.4231   -1.8226    0.0000 H   0  0  0  0  0  0  0  0  0  0  0  0
   12.6115    2.9790    0.0000 H   0  0  0  0  0  0  0  0  0  0  0  0
    9.8056    2.9682    0.0000 H   0  0  0  0  0  0  0  0  0  0  0  0
   12.6053    4.5990    0.0000 H   0  0  0  0  0  0  0  0  0  0  0  0
    9.7994    4.5882    0.0000 H   0  0  0  0  0  0  0  0  0  0  0  0
    2.0000   -2.9756    0.0000 H   0  0  0  0  0  0  0  0  0  0  0  0
   11.7335    6.0956    0.0000 H   0  0  0  0  0  0  0  0  0  0  0  0
  1 16  1  0  0  0  0
  1 18  1  0  0  0  0
  2 20  1  0  0  0  0
  3 46  1  0  0  0  0
  4 47  1  0  0  0  0
  5 48  1  0  0  0  0
  6 19  1  0  0  0  0
  6 24  1  0  0  0  0
  7 21  1  0  0  0  0
  7 32  1  0  0  0  0
  8 23  1  0  0  0  0
  8 30  1  0  0  0  0
  9 24  2  0  0  0  0
 10 27  2  0  0  0  0
 11 33  1  0  0  0  0
 11 61  1  0  0  0  0
 12 33  2  0  0  0  0
 13 38  1  0  0  0  0
 13 62  1  0  0  0  0
 14  3  1  0  0  0  0
 14 15  1  6  0  0  0
 14 39  1  0  0  0  0
 15  4  1  0  0  0  0
 15 17  1  1  0  0  0
 15 40  1  0  0  0  0
 16 14  1  6  0  0  0
 16 19  1  0  0  0  0
 16 41  1  0  0  0  0
 17  5  1  0  0  0  0
 17 18  1  6  0  0  0
 17 42  1  0  0  0  0
 18  2  1  0  0  0  0
 18 43  1  6  0  0  0
 19 44  1  0  0  0  0
 19 45  1  0  0  0  0
 20 21  2  0  0  0  0
 20 22  1  0  0  0  0
 21 26  1  0  0  0  0
 22 23  2  0  0  0  0
 22 49  1  0  0  0  0
 23 25  1  0  0  0  0
 24 28  1  0  0  0  0
 25 26  2  0  0  0  0
 25 27  1  0  0  0  0
 26 50  1  0  0  0  0
 27 29  1  0  0  0  0
 28 33  1  0  0  0  0
 28 51  1  0  0  0  0
 28 52  1  0  0  0  0
 29 30  2  0  0  0  0
 29 31  1  0  0  0  0
 30 53  1  0  0  0  0
 31 34  2  0  0  0  0
 31 35  1  0  0  0  0
 32 54  1  0  0  0  0
 32 55  1  0  0  0  0
 32 56  1  0  0  0  0
 34 36  1  0  0  0  0
 34 57  1  0  0  0  0
 35 37  2  0  0  0  0
 35 58  1  0  0  0  0
 36 38  2  0  0  0  0
 36 59  1  0  0  0  0
 37 38  1  0  0  0  0
 37 60  1  0  0  0  0
M  END
>  <PUBCHEM_COMPOUND_CID>
23724657

>  <PUBCHEM_COMPOUND_CANONICALIZED>
1

>  <PUBCHEM_CACTVS_COMPLEXITY>
898

>  <PUBCHEM_CACTVS_HBOND_ACCEPTOR>
13

>  <PUBCHEM_CACTVS_HBOND_DONOR>
5

>  <PUBCHEM_CACTVS_ROTATABLE_BOND>
9

>  <PUBCHEM_CACTVS_SUBSKEYS>
AAADceB4PAAAAAAAAAAAAAAAAAAAAAAAAAA0YIEAAAAAAACBQAAAGgAACAAADBSwmAMyDoAABgCIAqDSCAACCAAkIAAIiAEGiMgdNzaONRqieWKl4BUPuYfK7PzOIQABCAAIQABCAAIQABCAAAAAAAAAAA==

>  <PUBCHEM_IUPAC_OPENEYE_NAME>
3-oxo-3-[[(2R,3S,4S,5R,6S)-3,4,5-trihydroxy-6-[3-(4-hydroxyphenyl)-6-methoxy-4-oxo-chromen-7-yl]oxy-tetrahydropyran-2-yl]methoxy]propanoic acid

>  <PUBCHEM_IUPAC_CAS_NAME>
3-oxo-3-[[(2R,3S,4S,5R,6S)-3,4,5-trihydroxy-6-[[3-(4-hydroxyphenyl)-6-methoxy-4-oxo-1-benzopyran-7-yl]oxy]-2-oxanyl]methoxy]propanoic acid

>  <PUBCHEM_IUPAC_NAME>
3-oxo-3-[[(2R,3S,4S,5R,6S)-3,4,5-trihydroxy-6-[3-(4-hydroxyphenyl)-6-methoxy-4-oxochromen-7-yl]oxyoxan-2-yl]methoxy]propanoic acid

>  <PUBCHEM_IUPAC_SYSTEMATIC_NAME>
3-[[(2R,3S,4S,5R,6S)-6-[3-(4-hydroxyphenyl)-6-methoxy-4-oxidanylidene-chromen-7-yl]oxy-3,4,5-tris(oxidanyl)oxan-2-yl]methoxy]-3-oxidanylidene-propanoic acid

>  <PUBCHEM_IUPAC_TRADITIONAL_NAME>
3-keto-3-[[(2R,3S,4S,5R,6S)-3,4,5-trihydroxy-6-[3-(4-hydroxyphenyl)-4-keto-6-methoxy-chromen-7-yl]oxy-tetrahydropyran-2-yl]methoxy]propionic acid

>  <PUBCHEM_IUPAC_INCHI>
InChI=1S/C25H24O13/c1-34-16-6-13-15(35-9-14(21(13)30)11-2-4-12(26)5-3-11)7-17(16)37-25-24(33)23(32)22(31)18(38-25)10-36-20(29)8-19(27)28/h2-7,9,18,22-26,31-33H,8,10H2,1H3,(H,27,28)/t18-,22-,23+,24-,25-/m1/s1

>  <PUBCHEM_IUPAC_INCHIKEY>
OWMHCYFEIJPHFB-GOZZSVHWSA-N

>  <PUBCHEM_XLOGP3_AA>
0.4

>  <PUBCHEM_EXACT_MASS>
532.122

>  <PUBCHEM_MOLECULAR_FORMULA>
C25H24O13

>  <PUBCHEM_MOLECULAR_WEIGHT>
532.454

>  <PUBCHEM_OPENEYE_CAN_SMILES>
COC1=C(C=C2C(=C1)C(=O)C(=CO2)C3=CC=C(C=C3)O)OC4C(C(C(C(O4)COC(=O)CC(=O)O)O)O)O

>  <PUBCHEM_OPENEYE_ISO_SMILES>
COC1=C(C=C2C(=C1)C(=O)C(=CO2)C3=CC=C(C=C3)O)O[C@H]4[C@@H]([C@H]([C@@H]([C@H](O4)COC(=O)CC(=O)O)O)O)O

>  <PUBCHEM_CACTVS_TPSA>
199

>  <PUBCHEM_MONOISOTOPIC_WEIGHT>
532.122

>  <PUBCHEM_TOTAL_CHARGE>
0

>  <PUBCHEM_HEAVY_ATOM_COUNT>
38

>  <PUBCHEM_ATOM_DEF_STEREO_COUNT>
5

>  <PUBCHEM_ATOM_UDEF_STEREO_COUNT>
0

>  <PUBCHEM_BOND_DEF_STEREO_COUNT>
0

>  <PUBCHEM_BOND_UDEF_STEREO_COUNT>
0

>  <PUBCHEM_ISOTOPIC_ATOM_COUNT>
0

>  <PUBCHEM_COMPONENT_COUNT>
1

>  <PUBCHEM_CACTVS_TAUTO_COUNT>
2

>  <PUBCHEM_COORDINATE_TYPE>
1
5
255

>  <PUBCHEM_BONDANNOTATIONS>
16  19  5
18  2  5
20  21  8
20  22  8
21  26  8
22  23  8
23  25  8
25  26  8
25  27  8
27  29  8
29  30  8
14  3  6
31  34  8
31  35  8
34  36  8
35  37  8
36  38  8
37  38  8
15  4  5
17  5  6
8  23  8
8  30  8

$$$$
