23757177
 OpenBabel06101807152D

 51 53  0  0  1  0  0  0  0  0999 V2000
    6.8671   -0.6581    0.0000 O   0  0  0  0  0  0  0  0  0  0  0  0
    9.7438    3.3926    0.0000 O   0  0  0  0  0  0  0  0  0  0  0  0
    5.1350   -0.6581    0.0000 O   0  0  0  0  0  0  0  0  0  0  0  0
    6.8671   -2.6581    0.0000 O   0  0  0  0  0  0  0  0  0  0  0  0
    5.1350   -3.6581    0.0000 O   0  0  0  0  0  0  0  0  0  0  0  0
    3.4030   -2.6581    0.0000 O   0  0  0  0  0  0  0  0  0  0  0  0
    2.5369   -1.1581    0.0000 O   0  0  0  0  0  0  0  0  0  0  0  0
    7.8610    1.4586    0.0000 C   0  0  3  0  0  0  0  0  0  0  0  0
    6.6044    3.0226    0.0000 C   0  0  0  0  0  0  0  0  0  0  0  0
    7.6873    2.4434    0.0000 C   0  0  3  0  0  0  0  0  0  0  0  0
    6.8671    0.3419    0.0000 C   0  0  3  0  0  0  0  0  0  0  0  0
    9.3439    1.5886    0.0000 C   0  0  0  0  0  0  0  0  0  0  0  0
    6.1600    1.0490    0.0000 C   0  0  0  0  0  0  0  0  0  0  0  0
    9.1702    2.5734    0.0000 C   0  0  3  0  0  0  0  0  0  0  0  0
    8.0346    0.4737    0.0000 C   0  0  0  0  0  0  0  0  0  0  0  0
    6.2789    3.9681    0.0000 C   0  0  0  0  0  0  0  0  0  0  0  0
    5.6046    3.0052    0.0000 C   0  0  0  0  0  0  0  0  0  0  0  0
    6.0010   -1.1581    0.0000 C   0  0  3  0  0  0  0  0  0  0  0  0
    6.0010   -2.1581    0.0000 C   0  0  3  0  0  0  0  0  0  0  0  0
    5.1350   -2.6581    0.0000 C   0  0  3  0  0  0  0  0  0  0  0  0
    4.2690   -1.1581    0.0000 C   0  0  3  0  0  0  0  0  0  0  0  0
    4.2690   -2.1581    0.0000 C   0  0  3  0  0  0  0  0  0  0  0  0
    3.4030   -0.6581    0.0000 C   0  0  0  0  0  0  0  0  0  0  0  0
    7.9366    1.8757    0.0000 H   0  0  0  0  0  0  0  0  0  0  0  0
    7.4465    0.1214    0.0000 H   0  0  0  0  0  0  0  0  0  0  0  0
    9.4159    0.9728    0.0000 H   0  0  0  0  0  0  0  0  0  0  0  0
    9.9573    1.6785    0.0000 H   0  0  0  0  0  0  0  0  0  0  0  0
    5.7350    1.5005    0.0000 H   0  0  0  0  0  0  0  0  0  0  0  0
    5.7150    0.6173    0.0000 H   0  0  0  0  0  0  0  0  0  0  0  0
    9.7755    2.4392    0.0000 H   0  0  0  0  0  0  0  0  0  0  0  0
    7.4240    0.3661    0.0000 H   0  0  0  0  0  0  0  0  0  0  0  0
    8.1423   -0.1368    0.0000 H   0  0  0  0  0  0  0  0  0  0  0  0
    8.6452    0.5814    0.0000 H   0  0  0  0  0  0  0  0  0  0  0  0
    5.5938    3.6251    0.0000 H   0  0  0  0  0  0  0  0  0  0  0  0
    6.8651    4.1700    0.0000 H   0  0  0  0  0  0  0  0  0  0  0  0
    6.0770    4.5544    0.0000 H   0  0  0  0  0  0  0  0  0  0  0  0
    5.6927    3.7663    0.0000 H   0  0  0  0  0  0  0  0  0  0  0  0
    4.9847    2.9943    0.0000 H   0  0  0  0  0  0  0  0  0  0  0  0
    5.6154    2.3852    0.0000 H   0  0  0  0  0  0  0  0  0  0  0  0
   10.3614    3.3386    0.0000 H   0  0  0  0  0  0  0  0  0  0  0  0
    6.0010   -0.5381    0.0000 H   0  0  0  0  0  0  0  0  0  0  0  0
    6.0010   -2.7781    0.0000 H   0  0  0  0  0  0  0  0  0  0  0  0
    4.5981   -2.9681    0.0000 H   0  0  0  0  0  0  0  0  0  0  0  0
    4.2690   -0.5381    0.0000 H   0  0  0  0  0  0  0  0  0  0  0  0
    3.7320   -1.8481    0.0000 H   0  0  0  0  0  0  0  0  0  0  0  0
    6.8671   -3.2781    0.0000 H   0  0  0  0  0  0  0  0  0  0  0  0
    3.8015   -0.1832    0.0000 H   0  0  0  0  0  0  0  0  0  0  0  0
    3.0044   -0.1832    0.0000 H   0  0  0  0  0  0  0  0  0  0  0  0
    4.5981   -3.9681    0.0000 H   0  0  0  0  0  0  0  0  0  0  0  0
    3.4030   -3.2781    0.0000 H   0  0  0  0  0  0  0  0  0  0  0  0
    2.0000   -0.8481    0.0000 H   0  0  0  0  0  0  0  0  0  0  0  0
  1 11  1  0  0  0  0
  1 18  1  0  0  0  0
  2 14  1  0  0  0  0
  2 40  1  0  0  0  0
  3 18  1  0  0  0  0
  3 21  1  0  0  0  0
  4 19  1  0  0  0  0
  4 46  1  0  0  0  0
  5 20  1  0  0  0  0
  5 49  1  0  0  0  0
  6 22  1  0  0  0  0
  6 50  1  0  0  0  0
  7 23  1  0  0  0  0
  7 51  1  0  0  0  0
  8  9  1  0  0  0  0
  8 11  1  0  0  0  0
  8 12  1  0  0  0  0
  8 15  1  0  0  0  0
  9 10  1  0  0  0  0
  9 16  1  0  0  0  0
  9 17  1  0  0  0  0
 10 13  1  0  0  0  0
 10 14  1  0  0  0  0
 10 24  1  0  0  0  0
 11 13  1  0  0  0  0
 11 25  1  0  0  0  0
 12 14  1  0  0  0  0
 12 26  1  0  0  0  0
 12 27  1  0  0  0  0
 13 28  1  0  0  0  0
 13 29  1  0  0  0  0
 14 30  1  0  0  0  0
 15 31  1  0  0  0  0
 15 32  1  0  0  0  0
 15 33  1  0  0  0  0
 16 35  1  0  0  0  0
 16 36  1  0  0  0  0
 16 37  1  0  0  0  0
 17 34  1  0  0  0  0
 17 38  1  0  0  0  0
 17 39  1  0  0  0  0
 18 19  1  0  0  0  0
 18 41  1  0  0  0  0
 19 20  1  0  0  0  0
 19 42  1  0  0  0  0
 20 22  1  0  0  0  0
 20 43  1  0  0  0  0
 21 22  1  0  0  0  0
 21 23  1  0  0  0  0
 21 44  1  0  0  0  0
 22 45  1  0  0  0  0
 23 47  1  0  0  0  0
 23 48  1  0  0  0  0
M  END
>  <PUBCHEM_COMPOUND_CID>
23757177

>  <PUBCHEM_COMPOUND_CANONICALIZED>
1

>  <PUBCHEM_CACTVS_COMPLEXITY>
456

>  <PUBCHEM_CACTVS_HBOND_ACCEPTOR>
7

>  <PUBCHEM_CACTVS_HBOND_DONOR>
5

>  <PUBCHEM_CACTVS_ROTATABLE_BOND>
3

>  <PUBCHEM_CACTVS_SUBSKEYS>
AAADceB4OAAAAAAAAAAAAAAAAAAAAYMAAAA0QAAAAAAAAAAAAAAAGgAACAAADxSwgAMCCAAABgAAAAAAAAAAAAAAAAAAAAAAAAAREAIAAAAiQAAFAAAHAAHA4PwPgAAAAAAAAACCAAIAABAAAYAADAAAAA==

>  <PUBCHEM_IUPAC_OPENEYE_NAME>
2-(hydroxymethyl)-6-(5-hydroxy-1,7,7-trimethyl-norbornan-2-yl)oxy-tetrahydropyran-3,4,5-triol

>  <PUBCHEM_IUPAC_CAS_NAME>
2-(hydroxymethyl)-6-[(2-hydroxy-4,7,7-trimethyl-5-bicyclo[2.2.1]heptanyl)oxy]oxane-3,4,5-triol

>  <PUBCHEM_IUPAC_NAME>
2-(hydroxymethyl)-6-[(2-hydroxy-4,7,7-trimethyl-5-bicyclo[2.2.1]heptanyl)oxy]oxane-3,4,5-triol

>  <PUBCHEM_IUPAC_SYSTEMATIC_NAME>
2-(hydroxymethyl)-6-[(4,7,7-trimethyl-2-oxidanyl-5-bicyclo[2.2.1]heptanyl)oxy]oxane-3,4,5-triol

>  <PUBCHEM_IUPAC_TRADITIONAL_NAME>
2-(5-hydroxy-1,7,7-trimethyl-norbornan-2-yl)oxy-6-methylol-tetrahydropyran-3,4,5-triol

>  <PUBCHEM_IUPAC_INCHI>
InChI=1S/C16H28O7/c1-15(2)7-4-10(16(15,3)5-8(7)18)23-14-13(21)12(20)11(19)9(6-17)22-14/h7-14,17-21H,4-6H2,1-3H3

>  <PUBCHEM_IUPAC_INCHIKEY>
AOHQEWBMTRLCSX-UHFFFAOYSA-N

>  <PUBCHEM_XLOGP3_AA>
-0.2

>  <PUBCHEM_EXACT_MASS>
332.184

>  <PUBCHEM_MOLECULAR_FORMULA>
C16H28O7

>  <PUBCHEM_MOLECULAR_WEIGHT>
332.393

>  <PUBCHEM_OPENEYE_CAN_SMILES>
CC1(C2CC(C1(CC2O)C)OC3C(C(C(C(O3)CO)O)O)O)C

>  <PUBCHEM_OPENEYE_ISO_SMILES>
CC1(C2CC(C1(CC2O)C)OC3C(C(C(C(O3)CO)O)O)O)C

>  <PUBCHEM_CACTVS_TPSA>
120

>  <PUBCHEM_MONOISOTOPIC_WEIGHT>
332.184

>  <PUBCHEM_TOTAL_CHARGE>
0

>  <PUBCHEM_HEAVY_ATOM_COUNT>
23

>  <PUBCHEM_ATOM_DEF_STEREO_COUNT>
0

>  <PUBCHEM_ATOM_UDEF_STEREO_COUNT>
9

>  <PUBCHEM_BOND_DEF_STEREO_COUNT>
0

>  <PUBCHEM_BOND_UDEF_STEREO_COUNT>
0

>  <PUBCHEM_ISOTOPIC_ATOM_COUNT>
0

>  <PUBCHEM_COMPONENT_COUNT>
1

>  <PUBCHEM_CACTVS_TAUTO_COUNT>
1

>  <PUBCHEM_COORDINATE_TYPE>
1
5
255

>  <PUBCHEM_BONDANNOTATIONS>
11  1  3
18  1  3
14  2  3
21  23  3
19  4  3
20  5  3
22  6  3
8  15  3
10  9  3

$$$$
