23937
 OpenBabel06101807152D

  1  0  0  0  0  0  0  0  0  0999 V2000
    2.0000    0.0000    0.0000 Os  0  0  0  0  0 15  0  0  0  0  0  0
M  END
>  <PUBCHEM_COMPOUND_CID>
23937

>  <PUBCHEM_COMPOUND_CANONICALIZED>
1

>  <PUBCHEM_CACTVS_COMPLEXITY>
0

>  <PUBCHEM_CACTVS_HBOND_ACCEPTOR>
0

>  <PUBCHEM_CACTVS_HBOND_DONOR>
0

>  <PUBCHEM_CACTVS_ROTATABLE_BOND>
0

>  <PUBCHEM_CACTVS_SUBSKEYS>
AAADcQAAAAAAAAAAAAAAEAAAAAAAAAAAAAAAAAAAAAAAAAAAAAAAAAAAAAAAAAAAAAAAAAAAAAAAAAAAAAAAAAAAAAAAAAAAAAAAAAAAAAAAAAAAAAAAAAAAAAAAAAAAAAAAAAAAAAAAAAAAAAAAAAAAAA==

>  <PUBCHEM_IUPAC_OPENEYE_NAME>
osmium

>  <PUBCHEM_IUPAC_CAS_NAME>
osmium

>  <PUBCHEM_IUPAC_NAME>
osmium

>  <PUBCHEM_IUPAC_SYSTEMATIC_NAME>
osmium

>  <PUBCHEM_IUPAC_TRADITIONAL_NAME>
osmium

>  <PUBCHEM_IUPAC_INCHI>
InChI=1S/Os

>  <PUBCHEM_IUPAC_INCHIKEY>
SYQBFIAQOQZEGI-UHFFFAOYSA-N

>  <PUBCHEM_EXACT_MASS>
191.961

>  <PUBCHEM_MOLECULAR_FORMULA>
Os

>  <PUBCHEM_MOLECULAR_WEIGHT>
190.23

>  <PUBCHEM_OPENEYE_CAN_SMILES>
[Os]

>  <PUBCHEM_OPENEYE_ISO_SMILES>
[Os]

>  <PUBCHEM_CACTVS_TPSA>
0

>  <PUBCHEM_MONOISOTOPIC_WEIGHT>
191.961

>  <PUBCHEM_TOTAL_CHARGE>
0

>  <PUBCHEM_HEAVY_ATOM_COUNT>
1

>  <PUBCHEM_ATOM_DEF_STEREO_COUNT>
0

>  <PUBCHEM_ATOM_UDEF_STEREO_COUNT>
0

>  <PUBCHEM_BOND_DEF_STEREO_COUNT>
0

>  <PUBCHEM_BOND_UDEF_STEREO_COUNT>
0

>  <PUBCHEM_ISOTOPIC_ATOM_COUNT>
0

>  <PUBCHEM_COMPONENT_COUNT>
1

>  <PUBCHEM_CACTVS_TAUTO_COUNT>
1

>  <PUBCHEM_COORDINATE_TYPE>
1
5
255

$$$$
