23989
 OpenBabel06101807152D

  1  0  0  0  0  0  0  0  0  0999 V2000
    2.0000    0.0000    0.0000 U   0  0  0  0  0 15  0  0  0  0  0  0
M  END
>  <PUBCHEM_COMPOUND_CID>
23989

>  <PUBCHEM_COMPOUND_CANONICALIZED>
1

>  <PUBCHEM_CACTVS_COMPLEXITY>
0

>  <PUBCHEM_CACTVS_HBOND_ACCEPTOR>
0

>  <PUBCHEM_CACTVS_HBOND_DONOR>
0

>  <PUBCHEM_CACTVS_ROTATABLE_BOND>
0

>  <PUBCHEM_CACTVS_SUBSKEYS>
AAADcQAAAAAAAAAAAAAAAAAAIAAAAAAAAAAAAAAAAAAAAAAAAAAAAAAAAAAAAAAAAAAAAAAAAAAAAAAAAAAAAAAAAAAAAAAAAAAAAAAAAAAAAAAAAAAAAAAAAAAAAAAAAAAAAAAAAAAAAAAAAAAAAAAAAA==

>  <PUBCHEM_IUPAC_OPENEYE_NAME>
uranium

>  <PUBCHEM_IUPAC_CAS_NAME>
uranium

>  <PUBCHEM_IUPAC_NAME>
uranium

>  <PUBCHEM_IUPAC_SYSTEMATIC_NAME>
uranium

>  <PUBCHEM_IUPAC_TRADITIONAL_NAME>
uranium

>  <PUBCHEM_IUPAC_INCHI>
InChI=1S/U

>  <PUBCHEM_IUPAC_INCHIKEY>
JFALSRSLKYAFGM-UHFFFAOYSA-N

>  <PUBCHEM_EXACT_MASS>
238.051

>  <PUBCHEM_MOLECULAR_FORMULA>
U

>  <PUBCHEM_MOLECULAR_WEIGHT>
238.029

>  <PUBCHEM_OPENEYE_CAN_SMILES>
[U]

>  <PUBCHEM_OPENEYE_ISO_SMILES>
[U]

>  <PUBCHEM_CACTVS_TPSA>
0

>  <PUBCHEM_MONOISOTOPIC_WEIGHT>
238.051

>  <PUBCHEM_TOTAL_CHARGE>
0

>  <PUBCHEM_HEAVY_ATOM_COUNT>
1

>  <PUBCHEM_ATOM_DEF_STEREO_COUNT>
0

>  <PUBCHEM_ATOM_UDEF_STEREO_COUNT>
0

>  <PUBCHEM_BOND_DEF_STEREO_COUNT>
0

>  <PUBCHEM_BOND_UDEF_STEREO_COUNT>
0

>  <PUBCHEM_ISOTOPIC_ATOM_COUNT>
0

>  <PUBCHEM_COMPONENT_COUNT>
1

>  <PUBCHEM_CACTVS_TAUTO_COUNT>
1

>  <PUBCHEM_COORDINATE_TYPE>
1
5
255

$$$$
