242024
 OpenBabel06101807152D

 61 63  0  0  1  0  0  0  0  0999 V2000
    3.2690    2.0950    0.0000 O   0  0  0  0  0  0  0  0  0  0  0  0
    5.1350    3.5950    0.0000 O   0  0  0  0  0  0  0  0  0  0  0  0
    2.7690    2.9610    0.0000 O   0  0  0  0  0  0  0  0  0  0  0  0
    2.5369    1.0950    0.0000 O   0  0  0  0  0  0  0  0  0  0  0  0
    3.4030   -0.4050    0.0000 O   0  0  0  0  0  0  0  0  0  0  0  0
    8.6651    0.5708    0.0000 O   0  0  0  0  0  0  0  0  0  0  0  0
    8.6651    2.6192    0.0000 O   0  0  0  0  0  0  0  0  0  0  0  0
    6.8671   -2.4050    0.0000 O   0  0  0  0  0  0  0  0  0  0  0  0
    3.4030   -2.4050    0.0000 O   0  0  0  0  0  0  0  0  0  0  0  0
    5.1350   -3.4050    0.0000 O   0  0  0  0  0  0  0  0  0  0  0  0
    4.2690    2.0950    0.0000 C   0  0  3  0  0  0  0  0  0  0  0  0
    4.2690    1.0950    0.0000 C   0  0  3  0  0  0  0  0  0  0  0  0
    5.1350    0.5950    0.0000 C   0  0  3  0  0  0  0  0  0  0  0  0
    5.1350    2.5950    0.0000 C   0  0  3  0  0  0  0  0  0  0  0  0
    6.0010    1.0950    0.0000 C   0  0  0  0  0  0  0  0  0  0  0  0
    6.0010    2.0950    0.0000 C   0  0  0  0  0  0  0  0  0  0  0  0
    3.7690    2.9610    0.0000 C   0  0  0  0  0  0  0  0  0  0  0  0
    5.1350   -0.4050    0.0000 C   0  0  0  0  0  0  0  0  0  0  0  0
    3.4030    0.5950    0.0000 C   0  0  0  0  0  0  0  0  0  0  0  0
    6.8950    0.5603    0.0000 C   0  0  0  0  0  0  0  0  0  0  0  0
    6.8950    2.6297    0.0000 C   0  0  0  0  0  0  0  0  0  0  0  0
    7.8010    1.0742    0.0000 C   0  0  0  0  0  0  0  0  0  0  0  0
    4.2690   -0.9050    0.0000 C   0  0  0  0  0  0  0  0  0  0  0  0
    6.0010   -0.9050    0.0000 C   0  0  0  0  0  0  0  0  0  0  0  0
    7.8010    2.1158    0.0000 C   0  0  0  0  0  0  0  0  0  0  0  0
    6.0010   -1.9050    0.0000 C   0  0  0  0  0  0  0  0  0  0  0  0
    4.2690   -1.9050    0.0000 C   0  0  0  0  0  0  0  0  0  0  0  0
    5.1350   -2.4050    0.0000 C   0  0  0  0  0  0  0  0  0  0  0  0
    9.5331    1.0675    0.0000 C   0  0  0  0  0  0  0  0  0  0  0  0
    8.6613    3.6191    0.0000 C   0  0  0  0  0  0  0  0  0  0  0  0
    7.7331   -1.9050    0.0000 C   0  0  0  0  0  0  0  0  0  0  0  0
    3.4030   -3.4050    0.0000 C   0  0  0  0  0  0  0  0  0  0  0  0
    6.0010   -3.9050    0.0000 C   0  0  0  0  0  0  0  0  0  0  0  0
    4.2690    0.4750    0.0000 H   0  0  0  0  0  0  0  0  0  0  0  0
    5.6720    0.2850    0.0000 H   0  0  0  0  0  0  0  0  0  0  0  0
    5.6720    2.9050    0.0000 H   0  0  0  0  0  0  0  0  0  0  0  0
    4.3516    3.1731    0.0000 H   0  0  0  0  0  0  0  0  0  0  0  0
    3.6613    3.5716    0.0000 H   0  0  0  0  0  0  0  0  0  0  0  0
    6.8878   -0.0596    0.0000 H   0  0  0  0  0  0  0  0  0  0  0  0
    6.8878    3.2496    0.0000 H   0  0  0  0  0  0  0  0  0  0  0  0
    2.9590    1.5581    0.0000 H   0  0  0  0  0  0  0  0  0  0  0  0
    5.6720    3.9050    0.0000 H   0  0  0  0  0  0  0  0  0  0  0  0
    3.7320   -0.5950    0.0000 H   0  0  0  0  0  0  0  0  0  0  0  0
    6.5380   -0.5950    0.0000 H   0  0  0  0  0  0  0  0  0  0  0  0
    2.4590    3.4980    0.0000 H   0  0  0  0  0  0  0  0  0  0  0  0
    2.0000    0.7850    0.0000 H   0  0  0  0  0  0  0  0  0  0  0  0
    9.8410    0.5294    0.0000 H   0  0  0  0  0  0  0  0  0  0  0  0
   10.0712    1.3754    0.0000 H   0  0  0  0  0  0  0  0  0  0  0  0
    9.2252    1.6056    0.0000 H   0  0  0  0  0  0  0  0  0  0  0  0
    9.2813    3.6215    0.0000 H   0  0  0  0  0  0  0  0  0  0  0  0
    8.6589    4.2391    0.0000 H   0  0  0  0  0  0  0  0  0  0  0  0
    8.0413    3.6168    0.0000 H   0  0  0  0  0  0  0  0  0  0  0  0
    8.0431   -2.4419    0.0000 H   0  0  0  0  0  0  0  0  0  0  0  0
    8.2700   -1.5950    0.0000 H   0  0  0  0  0  0  0  0  0  0  0  0
    7.4231   -1.3681    0.0000 H   0  0  0  0  0  0  0  0  0  0  0  0
    2.7830   -3.4050    0.0000 H   0  0  0  0  0  0  0  0  0  0  0  0
    3.4030   -4.0250    0.0000 H   0  0  0  0  0  0  0  0  0  0  0  0
    4.0230   -3.4050    0.0000 H   0  0  0  0  0  0  0  0  0  0  0  0
    5.6910   -4.4419    0.0000 H   0  0  0  0  0  0  0  0  0  0  0  0
    6.5380   -4.2150    0.0000 H   0  0  0  0  0  0  0  0  0  0  0  0
    6.3110   -3.3681    0.0000 H   0  0  0  0  0  0  0  0  0  0  0  0
  1 11  1  0  0  0  0
  1 41  1  0  0  0  0
  2 14  1  0  0  0  0
  2 42  1  0  0  0  0
  3 17  1  0  0  0  0
  3 45  1  0  0  0  0
  4 19  1  0  0  0  0
  4 46  1  0  0  0  0
  5 19  2  0  0  0  0
  6 22  1  0  0  0  0
  6 29  1  0  0  0  0
  7 25  1  0  0  0  0
  7 30  1  0  0  0  0
  8 26  1  0  0  0  0
  8 31  1  0  0  0  0
  9 27  1  0  0  0  0
  9 32  1  0  0  0  0
 10 28  1  0  0  0  0
 10 33  1  0  0  0  0
 11 12  1  0  0  0  0
 11 14  1  0  0  0  0
 11 17  1  0  0  0  0
 12 13  1  0  0  0  0
 12 19  1  0  0  0  0
 12 34  1  0  0  0  0
 13 15  1  0  0  0  0
 13 18  1  0  0  0  0
 13 35  1  0  0  0  0
 14 16  1  0  0  0  0
 14 36  1  0  0  0  0
 15 16  1  0  0  0  0
 15 20  2  0  0  0  0
 16 21  2  0  0  0  0
 17 37  1  0  0  0  0
 17 38  1  0  0  0  0
 18 23  2  0  0  0  0
 18 24  1  0  0  0  0
 20 22  1  0  0  0  0
 20 39  1  0  0  0  0
 21 25  1  0  0  0  0
 21 40  1  0  0  0  0
 22 25  2  0  0  0  0
 23 27  1  0  0  0  0
 23 43  1  0  0  0  0
 24 26  2  0  0  0  0
 24 44  1  0  0  0  0
 26 28  1  0  0  0  0
 27 28  2  0  0  0  0
 29 47  1  0  0  0  0
 29 48  1  0  0  0  0
 29 49  1  0  0  0  0
 30 50  1  0  0  0  0
 30 51  1  0  0  0  0
 30 52  1  0  0  0  0
 31 53  1  0  0  0  0
 31 54  1  0  0  0  0
 31 55  1  0  0  0  0
 32 56  1  0  0  0  0
 32 57  1  0  0  0  0
 32 58  1  0  0  0  0
 33 59  1  0  0  0  0
 33 60  1  0  0  0  0
 33 61  1  0  0  0  0
M  END
>  <PUBCHEM_COMPOUND_CID>
242024

>  <PUBCHEM_COMPOUND_CANONICALIZED>
1

>  <PUBCHEM_CACTVS_COMPLEXITY>
647

>  <PUBCHEM_CACTVS_HBOND_ACCEPTOR>
10

>  <PUBCHEM_CACTVS_HBOND_DONOR>
4

>  <PUBCHEM_CACTVS_ROTATABLE_BOND>
8

>  <PUBCHEM_CACTVS_SUBSKEYS>
AAADceB4PAAAAAAAAAAAAAAAAAAAAAAAAAAwYMAAAAAAAADBQAAAGgAACAAADVSgmAIyDoAABgCIAiDSCAACCAAgIAAAiAEGiIgNNzaEMRqAcCIl4BULuAfK6PyOoAABCAAQQADAAAYQADCAAAAAAAAAAA==

>  <PUBCHEM_IUPAC_OPENEYE_NAME>
3,4-dihydroxy-3-(hydroxymethyl)-6,7-dimethoxy-1-(3,4,5-trimethoxyphenyl)tetralin-2-carboxylic acid

>  <PUBCHEM_IUPAC_CAS_NAME>
3,4-dihydroxy-3-(hydroxymethyl)-6,7-dimethoxy-1-(3,4,5-trimethoxyphenyl)-2,4-dihydro-1H-naphthalene-2-carboxylic acid

>  <PUBCHEM_IUPAC_NAME>
3,4-dihydroxy-3-(hydroxymethyl)-6,7-dimethoxy-1-(3,4,5-trimethoxyphenyl)-2,4-dihydro-1H-naphthalene-2-carboxylic acid

>  <PUBCHEM_IUPAC_SYSTEMATIC_NAME>
3-(hydroxymethyl)-6,7-dimethoxy-3,4-bis(oxidanyl)-1-(3,4,5-trimethoxyphenyl)-2,4-dihydro-1H-naphthalene-2-carboxylic acid

>  <PUBCHEM_IUPAC_TRADITIONAL_NAME>
3,4-dihydroxy-6,7-dimethoxy-3-methylol-1-(3,4,5-trimethoxyphenyl)tetralin-2-carboxylic acid

>  <PUBCHEM_IUPAC_INCHI>
InChI=1S/C23H28O10/c1-29-14-8-12-13(9-15(14)30-2)21(25)23(28,10-24)19(22(26)27)18(12)11-6-16(31-3)20(33-5)17(7-11)32-4/h6-9,18-19,21,24-25,28H,10H2,1-5H3,(H,26,27)

>  <PUBCHEM_IUPAC_INCHIKEY>
XUCBEPRXAGBDCB-UHFFFAOYSA-N

>  <PUBCHEM_XLOGP3_AA>
1.6

>  <PUBCHEM_EXACT_MASS>
464.168

>  <PUBCHEM_MOLECULAR_FORMULA>
C23H28O10

>  <PUBCHEM_MOLECULAR_WEIGHT>
464.467

>  <PUBCHEM_OPENEYE_CAN_SMILES>
COC1=CC(=CC(=C1OC)OC)C2C(C(C(C3=CC(=C(C=C23)OC)OC)O)(CO)O)C(=O)O

>  <PUBCHEM_OPENEYE_ISO_SMILES>
COC1=CC(=CC(=C1OC)OC)C2C(C(C(C3=CC(=C(C=C23)OC)OC)O)(CO)O)C(=O)O

>  <PUBCHEM_CACTVS_TPSA>
144

>  <PUBCHEM_MONOISOTOPIC_WEIGHT>
464.168

>  <PUBCHEM_TOTAL_CHARGE>
0

>  <PUBCHEM_HEAVY_ATOM_COUNT>
33

>  <PUBCHEM_ATOM_DEF_STEREO_COUNT>
0

>  <PUBCHEM_ATOM_UDEF_STEREO_COUNT>
4

>  <PUBCHEM_BOND_DEF_STEREO_COUNT>
0

>  <PUBCHEM_BOND_UDEF_STEREO_COUNT>
0

>  <PUBCHEM_ISOTOPIC_ATOM_COUNT>
0

>  <PUBCHEM_COMPONENT_COUNT>
1

>  <PUBCHEM_CACTVS_TAUTO_COUNT>
1

>  <PUBCHEM_COORDINATE_TYPE>
1
5
255

>  <PUBCHEM_BONDANNOTATIONS>
11  1  3
12  19  3
13  18  3
15  16  8
15  20  8
16  21  8
18  23  8
18  24  8
14  2  3
20  22  8
21  25  8
22  25  8
23  27  8
24  26  8
26  28  8
27  28  8

$$$$
