24496
 OpenBabel06101807152D

 32 31  0  0  1  0  0  0  0  0999 V2000
    5.4641    0.4050    0.0000 Se  0  0  0  0  0  0  0  0  0  0  0  0
    4.5981   -0.0950    0.0000 Se  0  0  0  0  0  0  0  0  0  0  0  0
    8.0622    2.9050    0.0000 O   0  0  0  0  0  0  0  0  0  0  0  0
    2.8660   -4.0950    0.0000 O   0  0  0  0  0  0  0  0  0  0  0  0
    7.1962    4.4050    0.0000 O   0  0  0  0  0  0  0  0  0  0  0  0
    2.0000   -2.5950    0.0000 O   0  0  0  0  0  0  0  0  0  0  0  0
    5.4641    3.4050    0.0000 N   0  0  0  0  0  0  0  0  0  0  0  0
    4.5981   -3.0950    0.0000 N   0  0  0  0  0  0  0  0  0  0  0  0
    6.3301    1.9050    0.0000 C   0  0  0  0  0  0  0  0  0  0  0  0
    3.7320   -1.5950    0.0000 C   0  0  0  0  0  0  0  0  0  0  0  0
    6.3301    2.9050    0.0000 C   0  0  3  0  0  0  0  0  0  0  0  0
    3.7320   -2.5950    0.0000 C   0  0  3  0  0  0  0  0  0  0  0  0
    5.4641    1.4050    0.0000 C   0  0  0  0  0  0  0  0  0  0  0  0
    4.5981   -1.0950    0.0000 C   0  0  0  0  0  0  0  0  0  0  0  0
    7.1962    3.4050    0.0000 C   0  0  0  0  0  0  0  0  0  0  0  0
    2.8660   -3.0950    0.0000 C   0  0  0  0  0  0  0  0  0  0  0  0
    3.5200   -1.0124    0.0000 H   0  0  0  0  0  0  0  0  0  0  0  0
    3.1215   -1.7027    0.0000 H   0  0  0  0  0  0  0  0  0  0  0  0
    6.5422    1.3224    0.0000 H   0  0  0  0  0  0  0  0  0  0  0  0
    6.9407    2.0127    0.0000 H   0  0  0  0  0  0  0  0  0  0  0  0
    5.7932    2.5950    0.0000 H   0  0  0  0  0  0  0  0  0  0  0  0
    3.7320   -3.2150    0.0000 H   0  0  0  0  0  0  0  0  0  0  0  0
    4.8101   -1.6776    0.0000 H   0  0  0  0  0  0  0  0  0  0  0  0
    5.2087   -0.9873    0.0000 H   0  0  0  0  0  0  0  0  0  0  0  0
    5.2520    1.9876    0.0000 H   0  0  0  0  0  0  0  0  0  0  0  0
    4.8535    1.2973    0.0000 H   0  0  0  0  0  0  0  0  0  0  0  0
    4.9272    3.0950    0.0000 H   0  0  0  0  0  0  0  0  0  0  0  0
    5.4641    4.0250    0.0000 H   0  0  0  0  0  0  0  0  0  0  0  0
    4.5981   -3.7150    0.0000 H   0  0  0  0  0  0  0  0  0  0  0  0
    5.1350   -2.7850    0.0000 H   0  0  0  0  0  0  0  0  0  0  0  0
    2.3291   -4.4050    0.0000 H   0  0  0  0  0  0  0  0  0  0  0  0
    8.5991    3.2150    0.0000 H   0  0  0  0  0  0  0  0  0  0  0  0
  1  2  1  0  0  0  0
  1 13  1  0  0  0  0
  2 14  1  0  0  0  0
  3 15  1  0  0  0  0
  3 32  1  0  0  0  0
  4 16  1  0  0  0  0
  4 31  1  0  0  0  0
  5 15  2  0  0  0  0
  6 16  2  0  0  0  0
  7 11  1  0  0  0  0
  7 27  1  0  0  0  0
  7 28  1  0  0  0  0
  8 12  1  0  0  0  0
  8 29  1  0  0  0  0
  8 30  1  0  0  0  0
  9 11  1  0  0  0  0
  9 13  1  0  0  0  0
  9 19  1  0  0  0  0
  9 20  1  0  0  0  0
 10 12  1  0  0  0  0
 10 14  1  0  0  0  0
 10 17  1  0  0  0  0
 10 18  1  0  0  0  0
 11 15  1  0  0  0  0
 11 21  1  0  0  0  0
 12 16  1  0  0  0  0
 12 22  1  0  0  0  0
 13 25  1  0  0  0  0
 13 26  1  0  0  0  0
 14 23  1  0  0  0  0
 14 24  1  0  0  0  0
M  END
>  <PUBCHEM_COMPOUND_CID>
24496

>  <PUBCHEM_COMPOUND_CANONICALIZED>
1

>  <PUBCHEM_CACTVS_COMPLEXITY>
216

>  <PUBCHEM_CACTVS_HBOND_ACCEPTOR>
6

>  <PUBCHEM_CACTVS_HBOND_DONOR>
4

>  <PUBCHEM_CACTVS_ROTATABLE_BOND>
9

>  <PUBCHEM_CACTVS_SUBSKEYS>
AAADceBzOAAAAAAAIAAAAAAAAAAAAAAAAAAAAAAAAAAAAAAAAAAAHgCQCAAACCjBgAQACABAAgAIAACQCAAAAAAAAAAAAIGAAAACABAAAAAAQAAEEAAAAAAAAAAAAAAAAAAAAAAAAAAAAAAAAAAAAAAAAA==

>  <PUBCHEM_IUPAC_OPENEYE_NAME>
2-amino-4-[(3-amino-3-carboxy-propyl)diselanyl]butanoic acid

>  <PUBCHEM_IUPAC_CAS_NAME>
2-amino-4-[(3-amino-3-carboxypropyl)diselanyl]butanoic acid

>  <PUBCHEM_IUPAC_NAME>
2-amino-4-[(3-amino-3-carboxypropyl)diselanyl]butanoic acid

>  <PUBCHEM_IUPAC_SYSTEMATIC_NAME>
2-azanyl-4-[(3-azanyl-4-oxidanyl-4-oxidanylidene-butyl)diselanyl]butanoic acid

>  <PUBCHEM_IUPAC_TRADITIONAL_NAME>
2-amino-4-[(3-amino-3-carboxy-propyl)diselanyl]butyric acid

>  <PUBCHEM_IUPAC_INCHI>
InChI=1S/C8H16N2O4Se2/c9-5(7(11)12)1-3-15-16-4-2-6(10)8(13)14/h5-6H,1-4,9-10H2,(H,11,12)(H,13,14)

>  <PUBCHEM_IUPAC_INCHIKEY>
NBQXBIDZPLKFHR-UHFFFAOYSA-N

>  <PUBCHEM_EXACT_MASS>
363.944

>  <PUBCHEM_MOLECULAR_FORMULA>
C8H16N2O4Se2

>  <PUBCHEM_MOLECULAR_WEIGHT>
362.168

>  <PUBCHEM_OPENEYE_CAN_SMILES>
C(C[Se][Se]CCC(C(=O)O)N)C(C(=O)O)N

>  <PUBCHEM_OPENEYE_ISO_SMILES>
C(C[Se][Se]CCC(C(=O)O)N)C(C(=O)O)N

>  <PUBCHEM_CACTVS_TPSA>
127

>  <PUBCHEM_MONOISOTOPIC_WEIGHT>
363.944

>  <PUBCHEM_TOTAL_CHARGE>
0

>  <PUBCHEM_HEAVY_ATOM_COUNT>
16

>  <PUBCHEM_ATOM_DEF_STEREO_COUNT>
0

>  <PUBCHEM_ATOM_UDEF_STEREO_COUNT>
2

>  <PUBCHEM_BOND_DEF_STEREO_COUNT>
0

>  <PUBCHEM_BOND_UDEF_STEREO_COUNT>
0

>  <PUBCHEM_ISOTOPIC_ATOM_COUNT>
0

>  <PUBCHEM_COMPONENT_COUNT>
1

>  <PUBCHEM_CACTVS_TAUTO_COUNT>
1

>  <PUBCHEM_COORDINATE_TYPE>
1
5
255

>  <PUBCHEM_BONDANNOTATIONS>
11  7  3
12  8  3

$$$$
