247220
 OpenBabel06101807152D

 61 61  0  0  0  0  0  0  0  0999 V2000
    9.7942    3.7306    0.0000 O   0  0  0  0  0  0  0  0  0  0  0  0
    8.9282    5.2306    0.0000 N   0  0  0  0  0  0  0  0  0  0  0  0
    9.7372    5.8184    0.0000 C   0  0  0  0  0  0  0  0  0  0  0  0
    8.1192    5.8184    0.0000 C   0  0  0  0  0  0  0  0  0  0  0  0
    9.4282    6.7694    0.0000 C   0  0  0  0  0  0  0  0  0  0  0  0
    8.4282    6.7694    0.0000 C   0  0  0  0  0  0  0  0  0  0  0  0
    6.3301   -0.2694    0.0000 C   0  0  0  0  0  0  0  0  0  0  0  0
    6.3301    0.7306    0.0000 C   0  0  0  0  0  0  0  0  0  0  0  0
    7.1962    1.2306    0.0000 C   0  0  0  0  0  0  0  0  0  0  0  0
    5.4641   -0.7694    0.0000 C   0  0  0  0  0  0  0  0  0  0  0  0
    7.1962    2.2306    0.0000 C   0  0  0  0  0  0  0  0  0  0  0  0
    5.4641   -1.7694    0.0000 C   0  0  0  0  0  0  0  0  0  0  0  0
    8.0622    2.7306    0.0000 C   0  0  0  0  0  0  0  0  0  0  0  0
    8.0622    3.7306    0.0000 C   0  0  0  0  0  0  0  0  0  0  0  0
    4.5981   -2.2694    0.0000 C   0  0  0  0  0  0  0  0  0  0  0  0
    8.9282    4.2306    0.0000 C   0  0  0  0  0  0  0  0  0  0  0  0
    4.5981   -3.2694    0.0000 C   0  0  0  0  0  0  0  0  0  0  0  0
    3.7320   -3.7694    0.0000 C   0  0  0  0  0  0  0  0  0  0  0  0
    3.7320   -4.7694    0.0000 C   0  0  0  0  0  0  0  0  0  0  0  0
    2.8660   -5.2694    0.0000 C   0  0  0  0  0  0  0  0  0  0  0  0
    2.8660   -6.2694    0.0000 C   0  0  0  0  0  0  0  0  0  0  0  0
    2.0000   -6.7694    0.0000 C   0  0  0  0  0  0  0  0  0  0  0  0
   10.0472    5.2814    0.0000 H   0  0  0  0  0  0  0  0  0  0  0  0
   10.3036    6.0705    0.0000 H   0  0  0  0  0  0  0  0  0  0  0  0
    7.5528    6.0705    0.0000 H   0  0  0  0  0  0  0  0  0  0  0  0
    7.8092    5.2814    0.0000 H   0  0  0  0  0  0  0  0  0  0  0  0
   10.0347    6.8983    0.0000 H   0  0  0  0  0  0  0  0  0  0  0  0
    9.3634    7.3860    0.0000 H   0  0  0  0  0  0  0  0  0  0  0  0
    8.4930    7.3860    0.0000 H   0  0  0  0  0  0  0  0  0  0  0  0
    7.8218    6.8983    0.0000 H   0  0  0  0  0  0  0  0  0  0  0  0
    6.5422   -0.8520    0.0000 H   0  0  0  0  0  0  0  0  0  0  0  0
    6.9407   -0.1618    0.0000 H   0  0  0  0  0  0  0  0  0  0  0  0
    6.1181    1.3132    0.0000 H   0  0  0  0  0  0  0  0  0  0  0  0
    5.7196    0.6229    0.0000 H   0  0  0  0  0  0  0  0  0  0  0  0
    5.2520   -0.1868    0.0000 H   0  0  0  0  0  0  0  0  0  0  0  0
    4.8535   -0.8771    0.0000 H   0  0  0  0  0  0  0  0  0  0  0  0
    7.4082    0.6480    0.0000 H   0  0  0  0  0  0  0  0  0  0  0  0
    7.8067    1.3382    0.0000 H   0  0  0  0  0  0  0  0  0  0  0  0
    6.9841    2.8132    0.0000 H   0  0  0  0  0  0  0  0  0  0  0  0
    6.5856    2.1229    0.0000 H   0  0  0  0  0  0  0  0  0  0  0  0
    5.6762   -2.3520    0.0000 H   0  0  0  0  0  0  0  0  0  0  0  0
    6.0747   -1.6618    0.0000 H   0  0  0  0  0  0  0  0  0  0  0  0
    8.2742    2.1480    0.0000 H   0  0  0  0  0  0  0  0  0  0  0  0
    8.6728    2.8382    0.0000 H   0  0  0  0  0  0  0  0  0  0  0  0
    4.3860   -1.6868    0.0000 H   0  0  0  0  0  0  0  0  0  0  0  0
    3.9875   -2.3771    0.0000 H   0  0  0  0  0  0  0  0  0  0  0  0
    7.8501    4.3132    0.0000 H   0  0  0  0  0  0  0  0  0  0  0  0
    7.4516    3.6229    0.0000 H   0  0  0  0  0  0  0  0  0  0  0  0
    4.8101   -3.8520    0.0000 H   0  0  0  0  0  0  0  0  0  0  0  0
    5.2087   -3.1618    0.0000 H   0  0  0  0  0  0  0  0  0  0  0  0
    3.5200   -3.1868    0.0000 H   0  0  0  0  0  0  0  0  0  0  0  0
    3.1215   -3.8771    0.0000 H   0  0  0  0  0  0  0  0  0  0  0  0
    3.9441   -5.3520    0.0000 H   0  0  0  0  0  0  0  0  0  0  0  0
    4.3426   -4.6618    0.0000 H   0  0  0  0  0  0  0  0  0  0  0  0
    2.6540   -4.6868    0.0000 H   0  0  0  0  0  0  0  0  0  0  0  0
    2.2554   -5.3771    0.0000 H   0  0  0  0  0  0  0  0  0  0  0  0
    3.0781   -6.8520    0.0000 H   0  0  0  0  0  0  0  0  0  0  0  0
    3.4766   -6.1618    0.0000 H   0  0  0  0  0  0  0  0  0  0  0  0
    1.6900   -6.2325    0.0000 H   0  0  0  0  0  0  0  0  0  0  0  0
    1.4631   -7.0794    0.0000 H   0  0  0  0  0  0  0  0  0  0  0  0
    2.3100   -7.3064    0.0000 H   0  0  0  0  0  0  0  0  0  0  0  0
  1 16  2  0  0  0  0
  2  3  1  0  0  0  0
  2  4  1  0  0  0  0
  2 16  1  0  0  0  0
  3  5  1  0  0  0  0
  3 23  1  0  0  0  0
  3 24  1  0  0  0  0
  4  6  1  0  0  0  0
  4 25  1  0  0  0  0
  4 26  1  0  0  0  0
  5  6  1  0  0  0  0
  5 27  1  0  0  0  0
  5 28  1  0  0  0  0
  6 29  1  0  0  0  0
  6 30  1  0  0  0  0
  7  8  1  0  0  0  0
  7 10  1  0  0  0  0
  7 31  1  0  0  0  0
  7 32  1  0  0  0  0
  8  9  1  0  0  0  0
  8 33  1  0  0  0  0
  8 34  1  0  0  0  0
  9 11  1  0  0  0  0
  9 37  1  0  0  0  0
  9 38  1  0  0  0  0
 10 12  1  0  0  0  0
 10 35  1  0  0  0  0
 10 36  1  0  0  0  0
 11 13  1  0  0  0  0
 11 39  1  0  0  0  0
 11 40  1  0  0  0  0
 12 15  1  0  0  0  0
 12 41  1  0  0  0  0
 12 42  1  0  0  0  0
 13 14  1  0  0  0  0
 13 43  1  0  0  0  0
 13 44  1  0  0  0  0
 14 16  1  0  0  0  0
 14 47  1  0  0  0  0
 14 48  1  0  0  0  0
 15 17  1  0  0  0  0
 15 45  1  0  0  0  0
 15 46  1  0  0  0  0
 17 18  1  0  0  0  0
 17 49  1  0  0  0  0
 17 50  1  0  0  0  0
 18 19  1  0  0  0  0
 18 51  1  0  0  0  0
 18 52  1  0  0  0  0
 19 20  1  0  0  0  0
 19 53  1  0  0  0  0
 19 54  1  0  0  0  0
 20 21  1  0  0  0  0
 20 55  1  0  0  0  0
 20 56  1  0  0  0  0
 21 22  1  0  0  0  0
 21 57  1  0  0  0  0
 21 58  1  0  0  0  0
 22 59  1  0  0  0  0
 22 60  1  0  0  0  0
 22 61  1  0  0  0  0
M  END
>  <PUBCHEM_COMPOUND_CID>
247220

>  <PUBCHEM_COMPOUND_CANONICALIZED>
1

>  <PUBCHEM_CACTVS_COMPLEXITY>
258

>  <PUBCHEM_CACTVS_HBOND_ACCEPTOR>
1

>  <PUBCHEM_CACTVS_HBOND_DONOR>
0

>  <PUBCHEM_CACTVS_ROTATABLE_BOND>
14

>  <PUBCHEM_CACTVS_SUBSKEYS>
AAADcfB6IAAAAAAAAAAAAAAAAAAAAWAAAAAAAAAAAAAAAAAAAAAAHgAAAAAACADBgAQCAAMAAAAIAAEQEAAAAAAAAAAAAAEIAAAAABIAgAAEAAAABgCAAAEYiICAAAAAAAAAAAAAAAAAAAAAAAAAAAAAAA==

>  <PUBCHEM_IUPAC_OPENEYE_NAME>
1-pyrrolidin-1-ylhexadecan-1-one

>  <PUBCHEM_IUPAC_CAS_NAME>
1-(1-pyrrolidinyl)-1-hexadecanone

>  <PUBCHEM_IUPAC_NAME>
1-pyrrolidin-1-ylhexadecan-1-one

>  <PUBCHEM_IUPAC_SYSTEMATIC_NAME>
1-pyrrolidin-1-ylhexadecan-1-one

>  <PUBCHEM_IUPAC_TRADITIONAL_NAME>
1-pyrrolidinohexadecan-1-one

>  <PUBCHEM_IUPAC_INCHI>
InChI=1S/C20H39NO/c1-2-3-4-5-6-7-8-9-10-11-12-13-14-17-20(22)21-18-15-16-19-21/h2-19H2,1H3

>  <PUBCHEM_IUPAC_INCHIKEY>
ULDNZNZTSYZQKK-UHFFFAOYSA-N

>  <PUBCHEM_XLOGP3_AA>
7.5

>  <PUBCHEM_EXACT_MASS>
309.303

>  <PUBCHEM_MOLECULAR_FORMULA>
C20H39NO

>  <PUBCHEM_MOLECULAR_WEIGHT>
309.538

>  <PUBCHEM_OPENEYE_CAN_SMILES>
CCCCCCCCCCCCCCCC(=O)N1CCCC1

>  <PUBCHEM_OPENEYE_ISO_SMILES>
CCCCCCCCCCCCCCCC(=O)N1CCCC1

>  <PUBCHEM_CACTVS_TPSA>
20.3

>  <PUBCHEM_MONOISOTOPIC_WEIGHT>
309.303

>  <PUBCHEM_TOTAL_CHARGE>
0

>  <PUBCHEM_HEAVY_ATOM_COUNT>
22

>  <PUBCHEM_ATOM_DEF_STEREO_COUNT>
0

>  <PUBCHEM_ATOM_UDEF_STEREO_COUNT>
0

>  <PUBCHEM_BOND_DEF_STEREO_COUNT>
0

>  <PUBCHEM_BOND_UDEF_STEREO_COUNT>
0

>  <PUBCHEM_ISOTOPIC_ATOM_COUNT>
0

>  <PUBCHEM_COMPONENT_COUNT>
1

>  <PUBCHEM_CACTVS_TAUTO_COUNT>
1

>  <PUBCHEM_COORDINATE_TYPE>
1
5
255

$$$$
