24758070
 OpenBabel06101807152D

100104  0  0  1  0  0  0  0  0999 V2000
   12.6566   -4.0027    0.0000 O   0  0  0  0  0  0  0  0  0  0  0  0
   13.9167   -2.7426    0.0000 O   0  0  0  0  0  0  0  0  0  0  0  0
    9.3261   -6.0371    0.0000 O   0  0  0  0  0  0  0  0  0  0  0  0
    8.6925   -1.4638    0.0000 O   0  0  0  0  0  0  0  0  0  0  0  0
    7.4239   -5.4191    0.0000 O   0  0  0  0  0  0  0  0  0  0  0  0
    6.4729   -5.1101    0.0000 O   0  0  0  0  0  0  0  0  0  0  0  0
    8.6925    0.5362    0.0000 O   0  0  0  0  0  0  0  0  0  0  0  0
   12.1566    1.5362    0.0000 O   0  0  0  0  0  0  0  0  0  0  0  0
    5.8492   -2.1757    0.0000 O   0  0  0  0  0  0  0  0  0  0  0  0
    9.5585    3.0362    0.0000 O   0  0  0  0  0  0  0  0  0  0  0  0
    3.9470   -1.5576    0.0000 O   0  0  0  0  0  0  0  0  0  0  0  0
   13.0226    5.0362    0.0000 O   0  0  0  0  0  0  0  0  0  0  0  0
    2.4608   -2.8959    0.0000 O   0  0  0  0  0  0  0  0  0  0  0  0
   11.2906    6.0362    0.0000 O   0  0  0  0  0  0  0  0  0  0  0  0
   11.3476   -3.0516    0.0000 C   0  0  3  0  0  0  0  0  0  0  0  0
   12.1566   -2.4638    0.0000 C   0  0  3  0  0  0  0  0  0  0  0  0
   10.3965   -2.7426    0.0000 C   0  0  0  0  0  0  0  0  0  0  0  0
   11.6566   -4.0027    0.0000 C   0  0  0  0  0  0  0  0  0  0  0  0
   12.1566   -1.4638    0.0000 C   0  0  0  0  0  0  0  0  0  0  0  0
   12.9656   -3.0516    0.0000 C   0  0  0  0  0  0  0  0  0  0  0  0
    9.6534   -3.4117    0.0000 C   0  0  0  0  0  0  0  0  0  0  0  0
   11.2906   -0.9638    0.0000 C   0  0  0  0  0  0  0  0  0  0  0  0
    8.7023   -3.1027    0.0000 C   0  0  0  0  0  0  0  0  0  0  0  0
   11.2906    0.0362    0.0000 C   0  0  0  0  0  0  0  0  0  0  0  0
    7.9592   -3.7718    0.0000 C   0  0  0  0  0  0  0  0  0  0  0  0
    7.0081   -3.4628    0.0000 C   0  0  3  0  0  0  0  0  0  0  0  0
   10.4245    0.5362    0.0000 C   0  0  0  0  0  0  0  0  0  0  0  0
    9.8613   -4.3899    0.0000 C   0  0  0  0  0  0  0  0  0  0  0  0
   10.4245    1.5362    0.0000 C   0  0  3  0  0  0  0  0  0  0  0  0
   10.4245   -1.4638    0.0000 C   0  0  0  0  0  0  0  0  0  0  0  0
    8.1671   -4.7500    0.0000 C   0  0  0  0  0  0  0  0  0  0  0  0
    9.1181   -5.0590    0.0000 C   0  0  0  0  0  0  0  0  0  0  0  0
    6.2650   -4.1320    0.0000 C   0  0  3  0  0  0  0  0  0  0  0  0
    9.5585    0.0362    0.0000 C   0  0  0  0  0  0  0  0  0  0  0  0
    9.5585   -0.9638    0.0000 C   0  0  0  0  0  0  0  0  0  0  0  0
   11.2906    2.0362    0.0000 C   0  0  3  0  0  0  0  0  0  0  0  0
    6.8002   -2.4847    0.0000 C   0  0  0  0  0  0  0  0  0  0  0  0
    9.5585    2.0362    0.0000 C   0  0  0  0  0  0  0  0  0  0  0  0
    5.3139   -3.8229    0.0000 C   0  0  0  0  0  0  0  0  0  0  0  0
   11.2906    3.0362    0.0000 C   0  0  0  0  0  0  0  0  0  0  0  0
    5.1060   -2.8448    0.0000 C   0  0  0  0  0  0  0  0  0  0  0  0
    4.5708   -4.4921    0.0000 C   0  0  0  0  0  0  0  0  0  0  0  0
   12.1566    3.5362    0.0000 C   0  0  0  0  0  0  0  0  0  0  0  0
   10.4245    3.5362    0.0000 C   0  0  0  0  0  0  0  0  0  0  0  0
   10.2771   -6.3462    0.0000 C   0  0  0  0  0  0  0  0  0  0  0  0
    8.6925   -2.4638    0.0000 C   0  0  0  0  0  0  0  0  0  0  0  0
    4.1550   -2.5358    0.0000 C   0  0  0  0  0  0  0  0  0  0  0  0
   12.1566    4.5362    0.0000 C   0  0  0  0  0  0  0  0  0  0  0  0
    3.6197   -4.1830    0.0000 C   0  0  0  0  0  0  0  0  0  0  0  0
   10.4245    4.5362    0.0000 C   0  0  0  0  0  0  0  0  0  0  0  0
    3.4118   -3.2049    0.0000 C   0  0  0  0  0  0  0  0  0  0  0  0
   11.2906    5.0362    0.0000 C   0  0  0  0  0  0  0  0  0  0  0  0
    2.9960   -1.2486    0.0000 C   0  0  0  0  0  0  0  0  0  0  0  0
   13.0226    6.0362    0.0000 C   0  0  0  0  0  0  0  0  0  0  0  0
   10.9092   -3.4900    0.0000 H   0  0  0  0  0  0  0  0  0  0  0  0
   12.7090   -2.1824    0.0000 H   0  0  0  0  0  0  0  0  0  0  0  0
   10.6876   -2.1952    0.0000 H   0  0  0  0  0  0  0  0  0  0  0  0
    9.9080   -2.3609    0.0000 H   0  0  0  0  0  0  0  0  0  0  0  0
   11.0501   -4.1316    0.0000 H   0  0  0  0  0  0  0  0  0  0  0  0
   11.7214   -4.6193    0.0000 H   0  0  0  0  0  0  0  0  0  0  0  0
   12.7672   -1.5715    0.0000 H   0  0  0  0  0  0  0  0  0  0  0  0
   12.3686   -0.8812    0.0000 H   0  0  0  0  0  0  0  0  0  0  0  0
    8.5734   -2.4963    0.0000 H   0  0  0  0  0  0  0  0  0  0  0  0
   11.8275    0.3462    0.0000 H   0  0  0  0  0  0  0  0  0  0  0  0
    6.4185   -3.2712    0.0000 H   0  0  0  0  0  0  0  0  0  0  0  0
   10.4509   -4.5815    0.0000 H   0  0  0  0  0  0  0  0  0  0  0  0
   10.4245    2.1562    0.0000 H   0  0  0  0  0  0  0  0  0  0  0  0
   10.4245   -2.0838    0.0000 H   0  0  0  0  0  0  0  0  0  0  0  0
    6.8546   -4.3236    0.0000 H   0  0  0  0  0  0  0  0  0  0  0  0
   11.2906    1.4162    0.0000 H   0  0  0  0  0  0  0  0  0  0  0  0
    7.4198   -2.4630    0.0000 H   0  0  0  0  0  0  0  0  0  0  0  0
    6.8865   -1.8707    0.0000 H   0  0  0  0  0  0  0  0  0  0  0  0
    8.9479    2.1438    0.0000 H   0  0  0  0  0  0  0  0  0  0  0  0
    9.3465    1.4536    0.0000 H   0  0  0  0  0  0  0  0  0  0  0  0
    7.5528   -6.0256    0.0000 H   0  0  0  0  0  0  0  0  0  0  0  0
    6.0121   -5.5250    0.0000 H   0  0  0  0  0  0  0  0  0  0  0  0
    8.1556    0.2262    0.0000 H   0  0  0  0  0  0  0  0  0  0  0  0
   12.6935    1.8462    0.0000 H   0  0  0  0  0  0  0  0  0  0  0  0
    5.5668   -2.4299    0.0000 H   0  0  0  0  0  0  0  0  0  0  0  0
    4.6997   -5.0985    0.0000 H   0  0  0  0  0  0  0  0  0  0  0  0
   12.6935    3.2262    0.0000 H   0  0  0  0  0  0  0  0  0  0  0  0
    9.8876    3.2262    0.0000 H   0  0  0  0  0  0  0  0  0  0  0  0
    5.7202   -1.5692    0.0000 H   0  0  0  0  0  0  0  0  0  0  0  0
    9.0216    3.3462    0.0000 H   0  0  0  0  0  0  0  0  0  0  0  0
   10.0855   -6.9358    0.0000 H   0  0  0  0  0  0  0  0  0  0  0  0
   10.8668   -6.5378    0.0000 H   0  0  0  0  0  0  0  0  0  0  0  0
   10.4687   -5.7565    0.0000 H   0  0  0  0  0  0  0  0  0  0  0  0
    8.0725   -2.4638    0.0000 H   0  0  0  0  0  0  0  0  0  0  0  0
    8.6925   -3.0838    0.0000 H   0  0  0  0  0  0  0  0  0  0  0  0
    9.3125   -2.4638    0.0000 H   0  0  0  0  0  0  0  0  0  0  0  0
    3.1590   -4.5979    0.0000 H   0  0  0  0  0  0  0  0  0  0  0  0
    9.8876    4.8462    0.0000 H   0  0  0  0  0  0  0  0  0  0  0  0
    2.0000   -3.3108    0.0000 H   0  0  0  0  0  0  0  0  0  0  0  0
   10.7536    6.3462    0.0000 H   0  0  0  0  0  0  0  0  0  0  0  0
    3.1876   -0.6590    0.0000 H   0  0  0  0  0  0  0  0  0  0  0  0
    2.4063   -1.0570    0.0000 H   0  0  0  0  0  0  0  0  0  0  0  0
    2.8044   -1.8383    0.0000 H   0  0  0  0  0  0  0  0  0  0  0  0
   13.6426    6.0362    0.0000 H   0  0  0  0  0  0  0  0  0  0  0  0
   13.0226    6.6562    0.0000 H   0  0  0  0  0  0  0  0  0  0  0  0
   12.4026    6.0362    0.0000 H   0  0  0  0  0  0  0  0  0  0  0  0
  1 18  1  0  0  0  0
  1 20  1  0  0  0  0
  2 20  2  0  0  0  0
  3 32  1  0  0  0  0
  3 45  1  0  0  0  0
  4 35  1  0  0  0  0
  4 46  1  0  0  0  0
  5 31  1  0  0  0  0
  5 75  1  0  0  0  0
  6 33  1  0  0  0  0
  6 76  1  0  0  0  0
  7 34  1  0  0  0  0
  7 77  1  0  0  0  0
  8 36  1  0  0  0  0
  8 78  1  0  0  0  0
  9 37  1  0  0  0  0
  9 83  1  0  0  0  0
 10 38  1  0  0  0  0
 10 84  1  0  0  0  0
 11 47  1  0  0  0  0
 11 53  1  0  0  0  0
 12 48  1  0  0  0  0
 12 54  1  0  0  0  0
 13 51  1  0  0  0  0
 13 93  1  0  0  0  0
 14 52  1  0  0  0  0
 14 94  1  0  0  0  0
 15 16  1  0  0  0  0
 15 17  1  0  0  0  0
 15 18  1  0  0  0  0
 15 55  1  0  0  0  0
 16 19  1  0  0  0  0
 16 20  1  0  0  0  0
 16 56  1  0  0  0  0
 17 21  1  0  0  0  0
 17 57  1  0  0  0  0
 17 58  1  0  0  0  0
 18 59  1  0  0  0  0
 18 60  1  0  0  0  0
 19 22  1  0  0  0  0
 19 61  1  0  0  0  0
 19 62  1  0  0  0  0
 21 23  2  0  0  0  0
 21 28  1  0  0  0  0
 22 24  2  0  0  0  0
 22 30  1  0  0  0  0
 23 25  1  0  0  0  0
 23 63  1  0  0  0  0
 24 27  1  0  0  0  0
 24 64  1  0  0  0  0
 25 26  1  0  0  0  0
 25 31  2  0  0  0  0
 26 33  1  0  0  0  0
 26 37  1  0  0  0  0
 26 65  1  0  0  0  0
 27 29  1  0  0  0  0
 27 34  2  0  0  0  0
 28 32  2  0  0  0  0
 28 66  1  0  0  0  0
 29 36  1  0  0  0  0
 29 38  1  0  0  0  0
 29 67  1  0  0  0  0
 30 35  2  0  0  0  0
 30 68  1  0  0  0  0
 31 32  1  0  0  0  0
 33 39  1  0  0  0  0
 33 69  1  0  0  0  0
 34 35  1  0  0  0  0
 36 40  1  0  0  0  0
 36 70  1  0  0  0  0
 37 71  1  0  0  0  0
 37 72  1  0  0  0  0
 38 73  1  0  0  0  0
 38 74  1  0  0  0  0
 39 41  2  0  0  0  0
 39 42  1  0  0  0  0
 40 43  2  0  0  0  0
 40 44  1  0  0  0  0
 41 47  1  0  0  0  0
 41 79  1  0  0  0  0
 42 49  2  0  0  0  0
 42 80  1  0  0  0  0
 43 48  1  0  0  0  0
 43 81  1  0  0  0  0
 44 50  2  0  0  0  0
 44 82  1  0  0  0  0
 45 85  1  0  0  0  0
 45 86  1  0  0  0  0
 45 87  1  0  0  0  0
 46 88  1  0  0  0  0
 46 89  1  0  0  0  0
 46 90  1  0  0  0  0
 47 51  2  0  0  0  0
 48 52  2  0  0  0  0
 49 51  1  0  0  0  0
 49 91  1  0  0  0  0
 50 52  1  0  0  0  0
 50 92  1  0  0  0  0
 53 95  1  0  0  0  0
 53 96  1  0  0  0  0
 53 97  1  0  0  0  0
 54 98  1  0  0  0  0
 54 99  1  0  0  0  0
 54100  1  0  0  0  0
M  END
>  <PUBCHEM_COMPOUND_CID>
24758070

>  <PUBCHEM_COMPOUND_CANONICALIZED>
1

>  <PUBCHEM_CACTVS_COMPLEXITY>
1150

>  <PUBCHEM_CACTVS_HBOND_ACCEPTOR>
14

>  <PUBCHEM_CACTVS_HBOND_DONOR>
8

>  <PUBCHEM_CACTVS_ROTATABLE_BOND>
16

>  <PUBCHEM_CACTVS_SUBSKEYS>
AAADcfB8PAAAAAAAAAAAAAAAAAAAASAAAAAwYMGAAAAAAAABVAAAGgAACAAADRSgmAIyDoAABgCIAiDSCAACCAAgIAAIiAEGiIgNNjKGMRqCcCMlwBELuAfK6PyOoAADAAAIQABAAAYAABCAAAAAAAAAAA==

>  <PUBCHEM_IUPAC_OPENEYE_NAME>
3,4-bis[[4-hydroxy-3-[2-hydroxy-2-(4-hydroxy-3-methoxy-phenyl)-1-(hydroxymethyl)ethyl]-5-methoxy-phenyl]methyl]tetrahydrofuran-2-one

>  <PUBCHEM_IUPAC_CAS_NAME>
3,4-bis[[3-[1,3-dihydroxy-1-(4-hydroxy-3-methoxyphenyl)propan-2-yl]-4-hydroxy-5-methoxyphenyl]methyl]-2-oxolanone

>  <PUBCHEM_IUPAC_NAME>
3,4-bis[[3-[1,3-dihydroxy-1-(4-hydroxy-3-methoxyphenyl)propan-2-yl]-4-hydroxy-5-methoxyphenyl]methyl]oxolan-2-one

>  <PUBCHEM_IUPAC_SYSTEMATIC_NAME>
3,4-bis[[3-methoxy-5-[1-(3-methoxy-4-oxidanyl-phenyl)-1,3-bis(oxidanyl)propan-2-yl]-4-oxidanyl-phenyl]methyl]oxolan-2-one

>  <PUBCHEM_IUPAC_TRADITIONAL_NAME>
3,4-bis[4-hydroxy-3-[2-hydroxy-2-(4-hydroxy-3-methoxy-phenyl)-1-methylol-ethyl]-5-methoxy-benzyl]tetrahydrofuran-2-one

>  <PUBCHEM_IUPAC_INCHI>
InChI=1S/C40H46O14/c1-50-32-15-22(5-7-30(32)43)36(45)28(17-41)26-11-20(13-34(52-3)38(26)47)9-24-19-54-40(49)25(24)10-21-12-27(39(48)35(14-21)53-4)29(18-42)37(46)23-6-8-31(44)33(16-23)51-2/h5-8,11-16,24-25,28-29,36-37,41-48H,9-10,17-19H2,1-4H3

>  <PUBCHEM_IUPAC_INCHIKEY>
ZBAWFXNLUOUBMU-UHFFFAOYSA-N

>  <PUBCHEM_XLOGP3_AA>
2.9

>  <PUBCHEM_EXACT_MASS>
750.289

>  <PUBCHEM_MOLECULAR_FORMULA>
C40H46O14

>  <PUBCHEM_MOLECULAR_WEIGHT>
750.794

>  <PUBCHEM_OPENEYE_CAN_SMILES>
COC1=CC(=CC(=C1O)C(CO)C(C2=CC(=C(C=C2)O)OC)O)CC3COC(=O)C3CC4=CC(=C(C(=C4)OC)O)C(CO)C(C5=CC(=C(C=C5)O)OC)O

>  <PUBCHEM_OPENEYE_ISO_SMILES>
COC1=CC(=CC(=C1O)C(CO)C(C2=CC(=C(C=C2)O)OC)O)CC3COC(=O)C3CC4=CC(=C(C(=C4)OC)O)C(CO)C(C5=CC(=C(C=C5)O)OC)O

>  <PUBCHEM_CACTVS_TPSA>
225

>  <PUBCHEM_MONOISOTOPIC_WEIGHT>
750.289

>  <PUBCHEM_TOTAL_CHARGE>
0

>  <PUBCHEM_HEAVY_ATOM_COUNT>
54

>  <PUBCHEM_ATOM_DEF_STEREO_COUNT>
0

>  <PUBCHEM_ATOM_UDEF_STEREO_COUNT>
6

>  <PUBCHEM_BOND_DEF_STEREO_COUNT>
0

>  <PUBCHEM_BOND_UDEF_STEREO_COUNT>
0

>  <PUBCHEM_ISOTOPIC_ATOM_COUNT>
0

>  <PUBCHEM_COMPONENT_COUNT>
1

>  <PUBCHEM_CACTVS_TAUTO_COUNT>
96

>  <PUBCHEM_COORDINATE_TYPE>
1
5
255

>  <PUBCHEM_BONDANNOTATIONS>
15  17  3
16  19  3
21  23  8
21  28  8
22  24  8
22  30  8
23  25  8
24  27  8
25  31  8
26  37  3
27  34  8
28  32  8
29  38  3
30  35  8
31  32  8
34  35  8
39  41  8
39  42  8
40  43  8
40  44  8
41  47  8
42  49  8
43  48  8
44  50  8
47  51  8
48  52  8
49  51  8
50  52  8
33  6  3
36  8  3

$$$$
