24763412
 OpenBabel06101807152D

 44 45  0  0  0  0  0  0  0  0999 V2000
    7.7331   -0.5950    0.0000 O   0  0  0  0  0  0  0  0  0  0  0  0
    3.4030   -1.0950    0.0000 O   0  0  0  0  0  0  0  0  0  0  0  0
    5.1350    0.9050    0.0000 O   0  0  0  0  0  0  0  0  0  0  0  0
    7.7331    3.4050    0.0000 O   0  0  0  0  0  0  0  0  0  0  0  0
    6.0010    2.4050    0.0000 O   0  0  0  0  0  0  0  0  0  0  0  0
    9.4651    2.4050    0.0000 O   0  0  0  0  0  0  0  0  0  0  0  0
    4.2690    0.4050    0.0000 O   0  0  0  0  0  0  0  0  0  0  0  0
    2.5369   -3.5950    0.0000 O   0  0  0  0  0  0  0  0  0  0  0  0
    6.0010   -0.5950    0.0000 C   0  0  0  0  0  0  0  0  0  0  0  0
    5.1350   -1.0950    0.0000 C   0  0  0  0  0  0  0  0  0  0  0  0
    6.8671   -1.0950    0.0000 C   0  0  0  0  0  0  0  0  0  0  0  0
    6.8671   -2.0950    0.0000 C   0  0  0  0  0  0  0  0  0  0  0  0
    6.0010    0.4050    0.0000 C   0  0  0  0  0  0  0  0  0  0  0  0
    6.8671    0.9050    0.0000 C   0  0  0  0  0  0  0  0  0  0  0  0
    5.1350   -2.0950    0.0000 C   0  0  0  0  0  0  0  0  0  0  0  0
    6.0010   -2.5950    0.0000 C   0  0  0  0  0  0  0  0  0  0  0  0
    6.8671    1.9050    0.0000 C   0  0  0  0  0  0  0  0  0  0  0  0
    7.7331    0.4050    0.0000 C   0  0  0  0  0  0  0  0  0  0  0  0
    7.7331   -2.5950    0.0000 C   0  0  0  0  0  0  0  0  0  0  0  0
    7.7331    2.4050    0.0000 C   0  0  0  0  0  0  0  0  0  0  0  0
    4.2690   -0.5950    0.0000 C   0  0  0  0  0  0  0  0  0  0  0  0
    8.5991    1.9050    0.0000 C   0  0  0  0  0  0  0  0  0  0  0  0
    8.5991    0.9050    0.0000 C   0  0  0  0  0  0  0  0  0  0  0  0
    3.4030   -2.0950    0.0000 C   0  0  0  0  0  0  0  0  0  0  0  0
    2.5369   -2.5950    0.0000 C   0  0  0  0  0  0  0  0  0  0  0  0
    8.5991    3.9050    0.0000 C   0  0  0  0  0  0  0  0  0  0  0  0
    4.5981   -2.4050    0.0000 H   0  0  0  0  0  0  0  0  0  0  0  0
    6.0010   -3.2150    0.0000 H   0  0  0  0  0  0  0  0  0  0  0  0
    7.7331   -0.2150    0.0000 H   0  0  0  0  0  0  0  0  0  0  0  0
    7.4231   -3.1319    0.0000 H   0  0  0  0  0  0  0  0  0  0  0  0
    8.2700   -2.9050    0.0000 H   0  0  0  0  0  0  0  0  0  0  0  0
    8.0431   -2.0581    0.0000 H   0  0  0  0  0  0  0  0  0  0  0  0
    9.1360    0.5950    0.0000 H   0  0  0  0  0  0  0  0  0  0  0  0
    8.2700   -0.9050    0.0000 H   0  0  0  0  0  0  0  0  0  0  0  0
    3.6150   -2.6776    0.0000 H   0  0  0  0  0  0  0  0  0  0  0  0
    4.0135   -1.9873    0.0000 H   0  0  0  0  0  0  0  0  0  0  0  0
    6.0010    3.0250    0.0000 H   0  0  0  0  0  0  0  0  0  0  0  0
    2.3249   -2.0124    0.0000 H   0  0  0  0  0  0  0  0  0  0  0  0
    1.9264   -2.7027    0.0000 H   0  0  0  0  0  0  0  0  0  0  0  0
   10.0021    2.0950    0.0000 H   0  0  0  0  0  0  0  0  0  0  0  0
    8.9091    3.3681    0.0000 H   0  0  0  0  0  0  0  0  0  0  0  0
    9.1360    4.2150    0.0000 H   0  0  0  0  0  0  0  0  0  0  0  0
    8.2891    4.4419    0.0000 H   0  0  0  0  0  0  0  0  0  0  0  0
    2.0000   -3.9050    0.0000 H   0  0  0  0  0  0  0  0  0  0  0  0
  1 11  1  0  0  0  0
  1 34  1  0  0  0  0
  2 21  1  0  0  0  0
  2 24  1  0  0  0  0
  3 13  2  0  0  0  0
  4 20  1  0  0  0  0
  4 26  1  0  0  0  0
  5 17  1  0  0  0  0
  5 37  1  0  0  0  0
  6 22  1  0  0  0  0
  6 40  1  0  0  0  0
  7 21  2  0  0  0  0
  8 25  1  0  0  0  0
  8 44  1  0  0  0  0
  9 10  2  0  0  0  0
  9 11  1  0  0  0  0
  9 13  1  0  0  0  0
 10 15  1  0  0  0  0
 10 21  1  0  0  0  0
 11 12  2  0  0  0  0
 12 16  1  0  0  0  0
 12 19  1  0  0  0  0
 13 14  1  0  0  0  0
 14 17  2  0  0  0  0
 14 18  1  0  0  0  0
 15 16  2  0  0  0  0
 15 27  1  0  0  0  0
 16 28  1  0  0  0  0
 17 20  1  0  0  0  0
 18 23  2  0  0  0  0
 18 29  1  0  0  0  0
 19 30  1  0  0  0  0
 19 31  1  0  0  0  0
 19 32  1  0  0  0  0
 20 22  2  0  0  0  0
 22 23  1  0  0  0  0
 23 33  1  0  0  0  0
 24 25  1  0  0  0  0
 24 35  1  0  0  0  0
 24 36  1  0  0  0  0
 25 38  1  0  0  0  0
 25 39  1  0  0  0  0
 26 41  1  0  0  0  0
 26 42  1  0  0  0  0
 26 43  1  0  0  0  0
M  END
>  <PUBCHEM_COMPOUND_CID>
24763412

>  <PUBCHEM_COMPOUND_CANONICALIZED>
1

>  <PUBCHEM_CACTVS_COMPLEXITY>
496

>  <PUBCHEM_CACTVS_HBOND_ACCEPTOR>
8

>  <PUBCHEM_CACTVS_HBOND_DONOR>
4

>  <PUBCHEM_CACTVS_ROTATABLE_BOND>
7

>  <PUBCHEM_CACTVS_SUBSKEYS>
AAADceB4PAAAAAAAAAAAAAAAAAAAAAAAAAAwYAAAAAAAAAABQAAAGgAACAAADASgmAIyDoAABgCIAqDSCAACCAAkIAAIiAEGiMgNNzaGNRqCcWMl4BULuYfL7PTO4AADCAAYQADAAAYQADCAAAAAAAAAAA==

>  <PUBCHEM_IUPAC_OPENEYE_NAME>
2-hydroxyethyl 2-(2,4-dihydroxy-3-methoxy-benzoyl)-3-hydroxy-4-methyl-benzoate

>  <PUBCHEM_IUPAC_CAS_NAME>
2-[(2,4-dihydroxy-3-methoxyphenyl)-oxomethyl]-3-hydroxy-4-methylbenzoic acid 2-hydroxyethyl ester

>  <PUBCHEM_IUPAC_NAME>
2-hydroxyethyl 2-(2,4-dihydroxy-3-methoxybenzoyl)-3-hydroxy-4-methylbenzoate

>  <PUBCHEM_IUPAC_SYSTEMATIC_NAME>
2-hydroxyethyl 2-[3-methoxy-2,4-bis(oxidanyl)phenyl]carbonyl-4-methyl-3-oxidanyl-benzoate

>  <PUBCHEM_IUPAC_TRADITIONAL_NAME>
2-(2,4-dihydroxy-3-methoxy-benzoyl)-3-hydroxy-4-methyl-benzoic acid 2-hydroxyethyl ester

>  <PUBCHEM_IUPAC_INCHI>
InChI=1S/C18H18O8/c1-9-3-4-10(18(24)26-8-7-19)13(14(9)21)15(22)11-5-6-12(20)17(25-2)16(11)23/h3-6,19-21,23H,7-8H2,1-2H3

>  <PUBCHEM_IUPAC_INCHIKEY>
ISFDGWRXQCIUKA-UHFFFAOYSA-N

>  <PUBCHEM_XLOGP3_AA>
2.3

>  <PUBCHEM_EXACT_MASS>
362.1

>  <PUBCHEM_MOLECULAR_FORMULA>
C18H18O8

>  <PUBCHEM_MOLECULAR_WEIGHT>
362.334

>  <PUBCHEM_OPENEYE_CAN_SMILES>
CC1=C(C(=C(C=C1)C(=O)OCCO)C(=O)C2=C(C(=C(C=C2)O)OC)O)O

>  <PUBCHEM_OPENEYE_ISO_SMILES>
CC1=C(C(=C(C=C1)C(=O)OCCO)C(=O)C2=C(C(=C(C=C2)O)OC)O)O

>  <PUBCHEM_CACTVS_TPSA>
134

>  <PUBCHEM_MONOISOTOPIC_WEIGHT>
362.1

>  <PUBCHEM_TOTAL_CHARGE>
0

>  <PUBCHEM_HEAVY_ATOM_COUNT>
26

>  <PUBCHEM_ATOM_DEF_STEREO_COUNT>
0

>  <PUBCHEM_ATOM_UDEF_STEREO_COUNT>
0

>  <PUBCHEM_BOND_DEF_STEREO_COUNT>
0

>  <PUBCHEM_BOND_UDEF_STEREO_COUNT>
0

>  <PUBCHEM_ISOTOPIC_ATOM_COUNT>
0

>  <PUBCHEM_COMPONENT_COUNT>
1

>  <PUBCHEM_CACTVS_TAUTO_COUNT>
136

>  <PUBCHEM_COORDINATE_TYPE>
1
5
255

>  <PUBCHEM_BONDANNOTATIONS>
10  15  8
11  12  8
12  16  8
14  17  8
14  18  8
15  16  8
17  20  8
18  23  8
20  22  8
22  23  8
9  10  8
9  11  8

$$$$
