24763413
 OpenBabel06101807152D

 40 41  0  0  0  0  0  0  0  0999 V2000
    5.1350   -0.3450    0.0000 O   0  0  0  0  0  0  0  0  0  0  0  0
    7.7331   -2.8450    0.0000 O   0  0  0  0  0  0  0  0  0  0  0  0
    9.4651   -2.8450    0.0000 O   0  0  0  0  0  0  0  0  0  0  0  0
    6.8671    1.6550    0.0000 O   0  0  0  0  0  0  0  0  0  0  0  0
    9.4651    0.1550    0.0000 O   0  0  0  0  0  0  0  0  0  0  0  0
    6.0010    1.1550    0.0000 O   0  0  0  0  0  0  0  0  0  0  0  0
    2.5369    0.1550    0.0000 O   0  0  0  0  0  0  0  0  0  0  0  0
    7.7331    0.1550    0.0000 C   0  0  0  0  0  0  0  0  0  0  0  0
    6.8671   -0.3450    0.0000 C   0  0  0  0  0  0  0  0  0  0  0  0
    8.5991   -1.3450    0.0000 C   0  0  0  0  0  0  0  0  0  0  0  0
    8.5991   -0.3450    0.0000 C   0  0  0  0  0  0  0  0  0  0  0  0
    7.7331   -1.8450    0.0000 C   0  0  0  0  0  0  0  0  0  0  0  0
    6.8671   -1.3450    0.0000 C   0  0  0  0  0  0  0  0  0  0  0  0
    7.7331    1.1550    0.0000 C   0  0  0  0  0  0  0  0  0  0  0  0
    8.5991    1.6550    0.0000 C   0  0  0  0  0  0  0  0  0  0  0  0
    9.4651   -1.8450    0.0000 C   0  0  0  0  0  0  0  0  0  0  0  0
    6.0010    0.1550    0.0000 C   0  0  0  0  0  0  0  0  0  0  0  0
    9.4651    1.1550    0.0000 C   0  0  0  0  0  0  0  0  0  0  0  0
    8.5991    2.6550    0.0000 C   0  0  0  0  0  0  0  0  0  0  0  0
   10.3312    1.6550    0.0000 C   0  0  0  0  0  0  0  0  0  0  0  0
    9.4651    3.1550    0.0000 C   0  0  0  0  0  0  0  0  0  0  0  0
    4.2690    0.1550    0.0000 C   0  0  0  0  0  0  0  0  0  0  0  0
   10.3312    2.6550    0.0000 C   0  0  0  0  0  0  0  0  0  0  0  0
    3.4030   -0.3450    0.0000 C   0  0  0  0  0  0  0  0  0  0  0  0
    9.1360   -0.0350    0.0000 H   0  0  0  0  0  0  0  0  0  0  0  0
    6.3301   -1.6550    0.0000 H   0  0  0  0  0  0  0  0  0  0  0  0
   10.0757   -1.9527    0.0000 H   0  0  0  0  0  0  0  0  0  0  0  0
    9.6772   -1.2624    0.0000 H   0  0  0  0  0  0  0  0  0  0  0  0
    8.0622    2.9650    0.0000 H   0  0  0  0  0  0  0  0  0  0  0  0
   10.8681    1.3450    0.0000 H   0  0  0  0  0  0  0  0  0  0  0  0
    9.4651    3.7750    0.0000 H   0  0  0  0  0  0  0  0  0  0  0  0
    4.6675    0.6299    0.0000 H   0  0  0  0  0  0  0  0  0  0  0  0
    3.8705    0.6299    0.0000 H   0  0  0  0  0  0  0  0  0  0  0  0
   10.8681    2.9650    0.0000 H   0  0  0  0  0  0  0  0  0  0  0  0
    7.1962   -3.1550    0.0000 H   0  0  0  0  0  0  0  0  0  0  0  0
    3.0044   -0.8199    0.0000 H   0  0  0  0  0  0  0  0  0  0  0  0
    3.8015   -0.8199    0.0000 H   0  0  0  0  0  0  0  0  0  0  0  0
   10.0021   -3.1550    0.0000 H   0  0  0  0  0  0  0  0  0  0  0  0
   10.0021   -0.1550    0.0000 H   0  0  0  0  0  0  0  0  0  0  0  0
    2.0000   -0.1550    0.0000 H   0  0  0  0  0  0  0  0  0  0  0  0
  1 17  1  0  0  0  0
  1 22  1  0  0  0  0
  2 12  1  0  0  0  0
  2 35  1  0  0  0  0
  3 16  1  0  0  0  0
  3 38  1  0  0  0  0
  4 14  2  0  0  0  0
  5 18  1  0  0  0  0
  5 39  1  0  0  0  0
  6 17  2  0  0  0  0
  7 24  1  0  0  0  0
  7 40  1  0  0  0  0
  8  9  2  0  0  0  0
  8 11  1  0  0  0  0
  8 14  1  0  0  0  0
  9 13  1  0  0  0  0
  9 17  1  0  0  0  0
 10 11  2  0  0  0  0
 10 12  1  0  0  0  0
 10 16  1  0  0  0  0
 11 25  1  0  0  0  0
 12 13  2  0  0  0  0
 13 26  1  0  0  0  0
 14 15  1  0  0  0  0
 15 18  1  0  0  0  0
 15 19  2  0  0  0  0
 16 27  1  0  0  0  0
 16 28  1  0  0  0  0
 18 20  2  0  0  0  0
 19 21  1  0  0  0  0
 19 29  1  0  0  0  0
 20 23  1  0  0  0  0
 20 30  1  0  0  0  0
 21 23  2  0  0  0  0
 21 31  1  0  0  0  0
 22 24  1  0  0  0  0
 22 32  1  0  0  0  0
 22 33  1  0  0  0  0
 23 34  1  0  0  0  0
 24 36  1  0  0  0  0
 24 37  1  0  0  0  0
M  END
>  <PUBCHEM_COMPOUND_CID>
24763413

>  <PUBCHEM_COMPOUND_CANONICALIZED>
1

>  <PUBCHEM_CACTVS_COMPLEXITY>
439

>  <PUBCHEM_CACTVS_HBOND_ACCEPTOR>
7

>  <PUBCHEM_CACTVS_HBOND_DONOR>
4

>  <PUBCHEM_CACTVS_ROTATABLE_BOND>
7

>  <PUBCHEM_CACTVS_SUBSKEYS>
AAADceB4OAAAAAAAAAAAAAAAAAAAAAAAAAAwYAAAAAAAAAABQAAAGgAACAAADASgmAIwDoAABgCIAqDSCAACAAAkIAAIiAEGCMgJNzaCNRqCcUAl4BELuYfLzPDO4AADAAAYAADAAAYAADAAAAAAAAAAAA==

>  <PUBCHEM_IUPAC_OPENEYE_NAME>
2-hydroxyethyl 5-hydroxy-2-(2-hydroxybenzoyl)-4-(hydroxymethyl)benzoate

>  <PUBCHEM_IUPAC_CAS_NAME>
5-hydroxy-4-(hydroxymethyl)-2-[(2-hydroxyphenyl)-oxomethyl]benzoic acid 2-hydroxyethyl ester

>  <PUBCHEM_IUPAC_NAME>
2-hydroxyethyl 5-hydroxy-2-(2-hydroxybenzoyl)-4-(hydroxymethyl)benzoate

>  <PUBCHEM_IUPAC_SYSTEMATIC_NAME>
2-hydroxyethyl 4-(hydroxymethyl)-2-(2-hydroxyphenyl)carbonyl-5-oxidanyl-benzoate

>  <PUBCHEM_IUPAC_TRADITIONAL_NAME>
5-hydroxy-4-methylol-2-salicyloyl-benzoic acid 2-hydroxyethyl ester

>  <PUBCHEM_IUPAC_INCHI>
InChI=1S/C17H16O7/c18-5-6-24-17(23)13-8-15(21)10(9-19)7-12(13)16(22)11-3-1-2-4-14(11)20/h1-4,7-8,18-21H,5-6,9H2

>  <PUBCHEM_IUPAC_INCHIKEY>
BRYATOWTSDMLNN-UHFFFAOYSA-N

>  <PUBCHEM_XLOGP3_AA>
1.9

>  <PUBCHEM_EXACT_MASS>
332.09

>  <PUBCHEM_MOLECULAR_FORMULA>
C17H16O7

>  <PUBCHEM_MOLECULAR_WEIGHT>
332.308

>  <PUBCHEM_OPENEYE_CAN_SMILES>
C1=CC=C(C(=C1)C(=O)C2=CC(=C(C=C2C(=O)OCCO)O)CO)O

>  <PUBCHEM_OPENEYE_ISO_SMILES>
C1=CC=C(C(=C1)C(=O)C2=CC(=C(C=C2C(=O)OCCO)O)CO)O

>  <PUBCHEM_CACTVS_TPSA>
124

>  <PUBCHEM_MONOISOTOPIC_WEIGHT>
332.09

>  <PUBCHEM_TOTAL_CHARGE>
0

>  <PUBCHEM_HEAVY_ATOM_COUNT>
24

>  <PUBCHEM_ATOM_DEF_STEREO_COUNT>
0

>  <PUBCHEM_ATOM_UDEF_STEREO_COUNT>
0

>  <PUBCHEM_BOND_DEF_STEREO_COUNT>
0

>  <PUBCHEM_BOND_UDEF_STEREO_COUNT>
0

>  <PUBCHEM_ISOTOPIC_ATOM_COUNT>
0

>  <PUBCHEM_COMPONENT_COUNT>
1

>  <PUBCHEM_CACTVS_TAUTO_COUNT>
24

>  <PUBCHEM_COORDINATE_TYPE>
1
5
255

>  <PUBCHEM_BONDANNOTATIONS>
10  11  8
10  12  8
12  13  8
15  18  8
15  19  8
18  20  8
19  21  8
20  23  8
21  23  8
8  11  8
8  9  8
9  13  8

$$$$
