24826530
 OpenBabel06101807152D

 77 77  0  0  1  0  0  0  0  0999 V2000
    8.5991    3.0000    0.0000 O   0  0  0  0  0  0  0  0  0  0  0  0
    7.7331    4.5000    0.0000 O   0  0  0  0  0  0  0  0  0  0  0  0
    4.2690    8.5000    0.0000 O   0  0  0  0  0  0  0  0  0  0  0  0
    2.5369    7.5000    0.0000 O   0  0  0  0  0  0  0  0  0  0  0  0
   10.3312   -2.0000    0.0000 C   0  0  0  0  0  0  0  0  0  0  0  0
    9.4651   -1.5000    0.0000 C   0  0  0  0  0  0  0  0  0  0  0  0
   10.3312   -3.0000    0.0000 C   0  0  0  0  0  0  0  0  0  0  0  0
    9.4651   -0.5000    0.0000 C   0  0  0  0  0  0  0  0  0  0  0  0
   11.1972   -3.5000    0.0000 C   0  0  0  0  0  0  0  0  0  0  0  0
    8.5991    0.0000    0.0000 C   0  0  0  0  0  0  0  0  0  0  0  0
   11.1972   -4.5000    0.0000 C   0  0  0  0  0  0  0  0  0  0  0  0
    8.5991    1.0000    0.0000 C   0  0  0  0  0  0  0  0  0  0  0  0
   12.0632   -5.0000    0.0000 C   0  0  0  0  0  0  0  0  0  0  0  0
    7.7331    1.5000    0.0000 C   0  0  0  0  0  0  0  0  0  0  0  0
   12.0632   -6.0000    0.0000 C   0  0  0  0  0  0  0  0  0  0  0  0
    7.7331    2.5000    0.0000 C   0  0  3  0  0  0  0  0  0  0  0  0
   12.9292   -6.5000    0.0000 C   0  0  0  0  0  0  0  0  0  0  0  0
    6.8671    3.0000    0.0000 C   0  0  0  0  0  0  0  0  0  0  0  0
   12.9292   -7.5000    0.0000 C   0  0  0  0  0  0  0  0  0  0  0  0
   13.7953   -8.0000    0.0000 C   0  0  0  0  0  0  0  0  0  0  0  0
    6.8671    4.0000    0.0000 C   0  0  0  0  0  0  0  0  0  0  0  0
    6.0010    4.5000    0.0000 C   0  0  0  0  0  0  0  0  0  0  0  0
    6.0010    5.5000    0.0000 C   0  0  0  0  0  0  0  0  0  0  0  0
   13.7953   -9.0000    0.0000 C   0  0  0  0  0  0  0  0  0  0  0  0
    5.1350    6.0000    0.0000 C   0  0  0  0  0  0  0  0  0  0  0  0
    5.1350    7.0000    0.0000 C   0  0  0  0  0  0  0  0  0  0  0  0
    4.2690    5.5000    0.0000 C   0  0  0  0  0  0  0  0  0  0  0  0
    4.2690    7.5000    0.0000 C   0  0  0  0  0  0  0  0  0  0  0  0
    3.4030    6.0000    0.0000 C   0  0  0  0  0  0  0  0  0  0  0  0
    3.4030    7.0000    0.0000 C   0  0  0  0  0  0  0  0  0  0  0  0
    5.1350    9.0000    0.0000 C   0  0  0  0  0  0  0  0  0  0  0  0
   10.9417   -2.1077    0.0000 H   0  0  0  0  0  0  0  0  0  0  0  0
   10.5432   -1.4174    0.0000 H   0  0  0  0  0  0  0  0  0  0  0  0
    8.8546   -1.3923    0.0000 H   0  0  0  0  0  0  0  0  0  0  0  0
    9.2531   -2.0826    0.0000 H   0  0  0  0  0  0  0  0  0  0  0  0
    9.7206   -2.8923    0.0000 H   0  0  0  0  0  0  0  0  0  0  0  0
   10.1191   -3.5826    0.0000 H   0  0  0  0  0  0  0  0  0  0  0  0
   10.0757   -0.6077    0.0000 H   0  0  0  0  0  0  0  0  0  0  0  0
    9.6772    0.0826    0.0000 H   0  0  0  0  0  0  0  0  0  0  0  0
   11.8078   -3.6077    0.0000 H   0  0  0  0  0  0  0  0  0  0  0  0
   11.4092   -2.9174    0.0000 H   0  0  0  0  0  0  0  0  0  0  0  0
    7.9885    0.1077    0.0000 H   0  0  0  0  0  0  0  0  0  0  0  0
    8.3871   -0.5826    0.0000 H   0  0  0  0  0  0  0  0  0  0  0  0
   10.5866   -4.3923    0.0000 H   0  0  0  0  0  0  0  0  0  0  0  0
   10.9851   -5.0826    0.0000 H   0  0  0  0  0  0  0  0  0  0  0  0
    9.2097    0.8923    0.0000 H   0  0  0  0  0  0  0  0  0  0  0  0
    8.8112    1.5826    0.0000 H   0  0  0  0  0  0  0  0  0  0  0  0
   12.6738   -5.1077    0.0000 H   0  0  0  0  0  0  0  0  0  0  0  0
   12.2753   -4.4174    0.0000 H   0  0  0  0  0  0  0  0  0  0  0  0
    7.1225    1.6077    0.0000 H   0  0  0  0  0  0  0  0  0  0  0  0
    7.5210    0.9174    0.0000 H   0  0  0  0  0  0  0  0  0  0  0  0
   11.4526   -5.8923    0.0000 H   0  0  0  0  0  0  0  0  0  0  0  0
   11.8512   -6.5826    0.0000 H   0  0  0  0  0  0  0  0  0  0  0  0
    7.7331    3.1200    0.0000 H   0  0  0  0  0  0  0  0  0  0  0  0
   13.5398   -6.6077    0.0000 H   0  0  0  0  0  0  0  0  0  0  0  0
   13.1413   -5.9174    0.0000 H   0  0  0  0  0  0  0  0  0  0  0  0
    6.2565    3.1077    0.0000 H   0  0  0  0  0  0  0  0  0  0  0  0
    6.6550    2.4174    0.0000 H   0  0  0  0  0  0  0  0  0  0  0  0
   12.3187   -7.3923    0.0000 H   0  0  0  0  0  0  0  0  0  0  0  0
   12.7172   -8.0826    0.0000 H   0  0  0  0  0  0  0  0  0  0  0  0
   14.4058   -8.1077    0.0000 H   0  0  0  0  0  0  0  0  0  0  0  0
   14.0073   -7.4174    0.0000 H   0  0  0  0  0  0  0  0  0  0  0  0
    5.3905    4.6077    0.0000 H   0  0  0  0  0  0  0  0  0  0  0  0
    5.7890    3.9174    0.0000 H   0  0  0  0  0  0  0  0  0  0  0  0
    9.1360    2.6900    0.0000 H   0  0  0  0  0  0  0  0  0  0  0  0
    6.6116    5.3923    0.0000 H   0  0  0  0  0  0  0  0  0  0  0  0
    6.2131    6.0826    0.0000 H   0  0  0  0  0  0  0  0  0  0  0  0
   13.1753   -9.0000    0.0000 H   0  0  0  0  0  0  0  0  0  0  0  0
   13.7953   -9.6200    0.0000 H   0  0  0  0  0  0  0  0  0  0  0  0
   14.4153   -9.0000    0.0000 H   0  0  0  0  0  0  0  0  0  0  0  0
    5.6720    7.3100    0.0000 H   0  0  0  0  0  0  0  0  0  0  0  0
    4.2690    4.8800    0.0000 H   0  0  0  0  0  0  0  0  0  0  0  0
    2.8660    5.6900    0.0000 H   0  0  0  0  0  0  0  0  0  0  0  0
    2.0000    7.1900    0.0000 H   0  0  0  0  0  0  0  0  0  0  0  0
    5.4450    8.4631    0.0000 H   0  0  0  0  0  0  0  0  0  0  0  0
    5.6720    9.3100    0.0000 H   0  0  0  0  0  0  0  0  0  0  0  0
    4.8250    9.5369    0.0000 H   0  0  0  0  0  0  0  0  0  0  0  0
  1 16  1  0  0  0  0
  1 65  1  0  0  0  0
  2 21  2  0  0  0  0
  3 28  1  0  0  0  0
  3 31  1  0  0  0  0
  4 30  1  0  0  0  0
  4 74  1  0  0  0  0
  5  6  1  0  0  0  0
  5  7  1  0  0  0  0
  5 32  1  0  0  0  0
  5 33  1  0  0  0  0
  6  8  1  0  0  0  0
  6 34  1  0  0  0  0
  6 35  1  0  0  0  0
  7  9  1  0  0  0  0
  7 36  1  0  0  0  0
  7 37  1  0  0  0  0
  8 10  1  0  0  0  0
  8 38  1  0  0  0  0
  8 39  1  0  0  0  0
  9 11  1  0  0  0  0
  9 40  1  0  0  0  0
  9 41  1  0  0  0  0
 10 12  1  0  0  0  0
 10 42  1  0  0  0  0
 10 43  1  0  0  0  0
 11 13  1  0  0  0  0
 11 44  1  0  0  0  0
 11 45  1  0  0  0  0
 12 14  1  0  0  0  0
 12 46  1  0  0  0  0
 12 47  1  0  0  0  0
 13 15  1  0  0  0  0
 13 48  1  0  0  0  0
 13 49  1  0  0  0  0
 14 16  1  0  0  0  0
 14 50  1  0  0  0  0
 14 51  1  0  0  0  0
 15 17  1  0  0  0  0
 15 52  1  0  0  0  0
 15 53  1  0  0  0  0
 16 18  1  0  0  0  0
 16 54  1  0  0  0  0
 17 19  1  0  0  0  0
 17 55  1  0  0  0  0
 17 56  1  0  0  0  0
 18 21  1  0  0  0  0
 18 57  1  0  0  0  0
 18 58  1  0  0  0  0
 19 20  1  0  0  0  0
 19 59  1  0  0  0  0
 19 60  1  0  0  0  0
 20 24  1  0  0  0  0
 20 61  1  0  0  0  0
 20 62  1  0  0  0  0
 21 22  1  0  0  0  0
 22 23  1  0  0  0  0
 22 63  1  0  0  0  0
 22 64  1  0  0  0  0
 23 25  1  0  0  0  0
 23 66  1  0  0  0  0
 23 67  1  0  0  0  0
 24 68  1  0  0  0  0
 24 69  1  0  0  0  0
 24 70  1  0  0  0  0
 25 26  2  0  0  0  0
 25 27  1  0  0  0  0
 26 28  1  0  0  0  0
 26 71  1  0  0  0  0
 27 29  2  0  0  0  0
 27 72  1  0  0  0  0
 28 30  2  0  0  0  0
 29 30  1  0  0  0  0
 29 73  1  0  0  0  0
 31 75  1  0  0  0  0
 31 76  1  0  0  0  0
 31 77  1  0  0  0  0
M  END
>  <PUBCHEM_COMPOUND_CID>
24826530

>  <PUBCHEM_COMPOUND_CANONICALIZED>
1

>  <PUBCHEM_CACTVS_COMPLEXITY>
426

>  <PUBCHEM_CACTVS_HBOND_ACCEPTOR>
4

>  <PUBCHEM_CACTVS_HBOND_DONOR>
2

>  <PUBCHEM_CACTVS_ROTATABLE_BOND>
20

>  <PUBCHEM_CACTVS_SUBSKEYS>
AAADcfB4OAAAAAAAAAAAAAAAAAAAAAAAAAAwAAAAAAAAAAABAAAAGgAACAAADBSgmAIyBoAABgCIAqBSAAACCAAgIAAIiAEGiIgNNjaGMRqAcCMk4BELuAeIyPCOIAABAAAAQABAAAIAAACAAAAAAAAAAA==

>  <PUBCHEM_IUPAC_OPENEYE_NAME>
5-hydroxy-1-(4-hydroxy-3-methoxy-phenyl)icosan-3-one

>  <PUBCHEM_IUPAC_CAS_NAME>
5-hydroxy-1-(4-hydroxy-3-methoxyphenyl)-3-eicosanone

>  <PUBCHEM_IUPAC_NAME>
5-hydroxy-1-(4-hydroxy-3-methoxyphenyl)icosan-3-one

>  <PUBCHEM_IUPAC_SYSTEMATIC_NAME>
1-(3-methoxy-4-oxidanyl-phenyl)-5-oxidanyl-icosan-3-one

>  <PUBCHEM_IUPAC_TRADITIONAL_NAME>
5-hydroxy-1-(4-hydroxy-3-methoxy-phenyl)eicosan-3-one

>  <PUBCHEM_IUPAC_INCHI>
InChI=1S/C27H46O4/c1-3-4-5-6-7-8-9-10-11-12-13-14-15-16-24(28)22-25(29)19-17-23-18-20-26(30)27(21-23)31-2/h18,20-21,24,28,30H,3-17,19,22H2,1-2H3

>  <PUBCHEM_IUPAC_INCHIKEY>
PBVYYGQREMPCPL-UHFFFAOYSA-N

>  <PUBCHEM_XLOGP3_AA>
8.5

>  <PUBCHEM_EXACT_MASS>
434.34

>  <PUBCHEM_MOLECULAR_FORMULA>
C27H46O4

>  <PUBCHEM_MOLECULAR_WEIGHT>
434.661

>  <PUBCHEM_OPENEYE_CAN_SMILES>
CCCCCCCCCCCCCCCC(CC(=O)CCC1=CC(=C(C=C1)O)OC)O

>  <PUBCHEM_OPENEYE_ISO_SMILES>
CCCCCCCCCCCCCCCC(CC(=O)CCC1=CC(=C(C=C1)O)OC)O

>  <PUBCHEM_CACTVS_TPSA>
66.8

>  <PUBCHEM_MONOISOTOPIC_WEIGHT>
434.34

>  <PUBCHEM_TOTAL_CHARGE>
0

>  <PUBCHEM_HEAVY_ATOM_COUNT>
31

>  <PUBCHEM_ATOM_DEF_STEREO_COUNT>
0

>  <PUBCHEM_ATOM_UDEF_STEREO_COUNT>
1

>  <PUBCHEM_BOND_DEF_STEREO_COUNT>
0

>  <PUBCHEM_BOND_UDEF_STEREO_COUNT>
0

>  <PUBCHEM_ISOTOPIC_ATOM_COUNT>
0

>  <PUBCHEM_COMPONENT_COUNT>
1

>  <PUBCHEM_CACTVS_TAUTO_COUNT>
9

>  <PUBCHEM_COORDINATE_TYPE>
1
5
255

>  <PUBCHEM_BONDANNOTATIONS>
16  1  3
25  26  8
25  27  8
26  28  8
27  29  8
28  30  8
29  30  8

$$$$
