24826452
 OpenBabel06101807152D

 56 56  0  0  1  0  0  0  0  0999 V2000
    8.5991    0.2500    0.0000 O   0  0  0  0  0  0  0  0  0  0  0  0
    7.7331    1.7500    0.0000 O   0  0  0  0  0  0  0  0  0  0  0  0
    4.2690    5.7500    0.0000 O   0  0  0  0  0  0  0  0  0  0  0  0
    2.5369    4.7500    0.0000 O   0  0  0  0  0  0  0  0  0  0  0  0
    8.5991   -1.7500    0.0000 C   0  0  0  0  0  0  0  0  0  0  0  0
    8.5991   -2.7500    0.0000 C   0  0  0  0  0  0  0  0  0  0  0  0
    7.7331   -1.2500    0.0000 C   0  0  0  0  0  0  0  0  0  0  0  0
    9.4651   -3.2500    0.0000 C   0  0  0  0  0  0  0  0  0  0  0  0
    7.7331   -0.2500    0.0000 C   0  0  3  0  0  0  0  0  0  0  0  0
    9.4651   -4.2500    0.0000 C   0  0  0  0  0  0  0  0  0  0  0  0
    6.8671    0.2500    0.0000 C   0  0  0  0  0  0  0  0  0  0  0  0
   10.3312   -4.7500    0.0000 C   0  0  0  0  0  0  0  0  0  0  0  0
    6.8671    1.2500    0.0000 C   0  0  0  0  0  0  0  0  0  0  0  0
   10.3312   -5.7500    0.0000 C   0  0  0  0  0  0  0  0  0  0  0  0
    6.0010    1.7500    0.0000 C   0  0  0  0  0  0  0  0  0  0  0  0
    6.0010    2.7500    0.0000 C   0  0  0  0  0  0  0  0  0  0  0  0
   11.1972   -6.2500    0.0000 C   0  0  0  0  0  0  0  0  0  0  0  0
    5.1350    3.2500    0.0000 C   0  0  0  0  0  0  0  0  0  0  0  0
    5.1350    4.2500    0.0000 C   0  0  0  0  0  0  0  0  0  0  0  0
    4.2690    2.7500    0.0000 C   0  0  0  0  0  0  0  0  0  0  0  0
    4.2690    4.7500    0.0000 C   0  0  0  0  0  0  0  0  0  0  0  0
    3.4030    3.2500    0.0000 C   0  0  0  0  0  0  0  0  0  0  0  0
    3.4030    4.2500    0.0000 C   0  0  0  0  0  0  0  0  0  0  0  0
    5.1350    6.2500    0.0000 C   0  0  0  0  0  0  0  0  0  0  0  0
    9.2097   -1.8577    0.0000 H   0  0  0  0  0  0  0  0  0  0  0  0
    8.8112   -1.1674    0.0000 H   0  0  0  0  0  0  0  0  0  0  0  0
    7.9885   -2.6423    0.0000 H   0  0  0  0  0  0  0  0  0  0  0  0
    8.3871   -3.3326    0.0000 H   0  0  0  0  0  0  0  0  0  0  0  0
    7.1225   -1.1423    0.0000 H   0  0  0  0  0  0  0  0  0  0  0  0
    7.5210   -1.8326    0.0000 H   0  0  0  0  0  0  0  0  0  0  0  0
   10.0757   -3.3577    0.0000 H   0  0  0  0  0  0  0  0  0  0  0  0
    9.6772   -2.6674    0.0000 H   0  0  0  0  0  0  0  0  0  0  0  0
    7.7331    0.3700    0.0000 H   0  0  0  0  0  0  0  0  0  0  0  0
    8.8546   -4.1423    0.0000 H   0  0  0  0  0  0  0  0  0  0  0  0
    9.2531   -4.8326    0.0000 H   0  0  0  0  0  0  0  0  0  0  0  0
    6.2565    0.3577    0.0000 H   0  0  0  0  0  0  0  0  0  0  0  0
    6.6550   -0.3326    0.0000 H   0  0  0  0  0  0  0  0  0  0  0  0
   10.9417   -4.8577    0.0000 H   0  0  0  0  0  0  0  0  0  0  0  0
   10.5432   -4.1674    0.0000 H   0  0  0  0  0  0  0  0  0  0  0  0
    9.7206   -5.6423    0.0000 H   0  0  0  0  0  0  0  0  0  0  0  0
   10.1191   -6.3326    0.0000 H   0  0  0  0  0  0  0  0  0  0  0  0
    5.3905    1.8577    0.0000 H   0  0  0  0  0  0  0  0  0  0  0  0
    5.7890    1.1674    0.0000 H   0  0  0  0  0  0  0  0  0  0  0  0
    6.6116    2.6423    0.0000 H   0  0  0  0  0  0  0  0  0  0  0  0
    6.2131    3.3326    0.0000 H   0  0  0  0  0  0  0  0  0  0  0  0
    9.1360   -0.0600    0.0000 H   0  0  0  0  0  0  0  0  0  0  0  0
   10.8872   -6.7869    0.0000 H   0  0  0  0  0  0  0  0  0  0  0  0
   11.7341   -6.5600    0.0000 H   0  0  0  0  0  0  0  0  0  0  0  0
   11.5072   -5.7131    0.0000 H   0  0  0  0  0  0  0  0  0  0  0  0
    5.6720    4.5600    0.0000 H   0  0  0  0  0  0  0  0  0  0  0  0
    4.2690    2.1300    0.0000 H   0  0  0  0  0  0  0  0  0  0  0  0
    2.8660    2.9400    0.0000 H   0  0  0  0  0  0  0  0  0  0  0  0
    2.0000    4.4400    0.0000 H   0  0  0  0  0  0  0  0  0  0  0  0
    5.4450    5.7131    0.0000 H   0  0  0  0  0  0  0  0  0  0  0  0
    5.6720    6.5600    0.0000 H   0  0  0  0  0  0  0  0  0  0  0  0
    4.8250    6.7869    0.0000 H   0  0  0  0  0  0  0  0  0  0  0  0
  1  9  1  0  0  0  0
  1 46  1  0  0  0  0
  2 13  2  0  0  0  0
  3 21  1  0  0  0  0
  3 24  1  0  0  0  0
  4 23  1  0  0  0  0
  4 53  1  0  0  0  0
  5  6  1  0  0  0  0
  5  7  1  0  0  0  0
  5 25  1  0  0  0  0
  5 26  1  0  0  0  0
  6  8  1  0  0  0  0
  6 27  1  0  0  0  0
  6 28  1  0  0  0  0
  7  9  1  0  0  0  0
  7 29  1  0  0  0  0
  7 30  1  0  0  0  0
  8 10  1  0  0  0  0
  8 31  1  0  0  0  0
  8 32  1  0  0  0  0
  9 11  1  0  0  0  0
  9 33  1  0  0  0  0
 10 12  1  0  0  0  0
 10 34  1  0  0  0  0
 10 35  1  0  0  0  0
 11 13  1  0  0  0  0
 11 36  1  0  0  0  0
 11 37  1  0  0  0  0
 12 14  1  0  0  0  0
 12 38  1  0  0  0  0
 12 39  1  0  0  0  0
 13 15  1  0  0  0  0
 14 17  1  0  0  0  0
 14 40  1  0  0  0  0
 14 41  1  0  0  0  0
 15 16  1  0  0  0  0
 15 42  1  0  0  0  0
 15 43  1  0  0  0  0
 16 18  1  0  0  0  0
 16 44  1  0  0  0  0
 16 45  1  0  0  0  0
 17 47  1  0  0  0  0
 17 48  1  0  0  0  0
 17 49  1  0  0  0  0
 18 19  2  0  0  0  0
 18 20  1  0  0  0  0
 19 21  1  0  0  0  0
 19 50  1  0  0  0  0
 20 22  2  0  0  0  0
 20 51  1  0  0  0  0
 21 23  2  0  0  0  0
 22 23  1  0  0  0  0
 22 52  1  0  0  0  0
 24 54  1  0  0  0  0
 24 55  1  0  0  0  0
 24 56  1  0  0  0  0
M  END
>  <PUBCHEM_COMPOUND_CID>
24826452

>  <PUBCHEM_COMPOUND_CANONICALIZED>
1

>  <PUBCHEM_CACTVS_COMPLEXITY>
332

>  <PUBCHEM_CACTVS_HBOND_ACCEPTOR>
4

>  <PUBCHEM_CACTVS_HBOND_DONOR>
2

>  <PUBCHEM_CACTVS_ROTATABLE_BOND>
13

>  <PUBCHEM_CACTVS_SUBSKEYS>
AAADcfB4OAAAAAAAAAAAAAAAAAAAAAAAAAAwAAAAAAAAAAABAAAAGgAACAAADBSgmAIyBoAABgCIAqBSAAACCAAgIAAIiAEGiIgNNjaGMRqAcCMk4BELuAeIyPCOIAABAAAAQABAAAIAAACAAAAAAAAAAA==

>  <PUBCHEM_IUPAC_OPENEYE_NAME>
5-hydroxy-1-(4-hydroxy-3-methoxy-phenyl)tridecan-3-one

>  <PUBCHEM_IUPAC_CAS_NAME>
5-hydroxy-1-(4-hydroxy-3-methoxyphenyl)-3-tridecanone

>  <PUBCHEM_IUPAC_NAME>
5-hydroxy-1-(4-hydroxy-3-methoxyphenyl)tridecan-3-one

>  <PUBCHEM_IUPAC_SYSTEMATIC_NAME>
1-(3-methoxy-4-oxidanyl-phenyl)-5-oxidanyl-tridecan-3-one

>  <PUBCHEM_IUPAC_TRADITIONAL_NAME>
5-hydroxy-1-(4-hydroxy-3-methoxy-phenyl)tridecan-3-one

>  <PUBCHEM_IUPAC_INCHI>
InChI=1S/C20H32O4/c1-3-4-5-6-7-8-9-17(21)15-18(22)12-10-16-11-13-19(23)20(14-16)24-2/h11,13-14,17,21,23H,3-10,12,15H2,1-2H3

>  <PUBCHEM_IUPAC_INCHIKEY>
POEQJXMZRAIOBX-UHFFFAOYSA-N

>  <PUBCHEM_XLOGP3_AA>
4.7

>  <PUBCHEM_EXACT_MASS>
336.23

>  <PUBCHEM_MOLECULAR_FORMULA>
C20H32O4

>  <PUBCHEM_MOLECULAR_WEIGHT>
336.472

>  <PUBCHEM_OPENEYE_CAN_SMILES>
CCCCCCCCC(CC(=O)CCC1=CC(=C(C=C1)O)OC)O

>  <PUBCHEM_OPENEYE_ISO_SMILES>
CCCCCCCCC(CC(=O)CCC1=CC(=C(C=C1)O)OC)O

>  <PUBCHEM_CACTVS_TPSA>
66.8

>  <PUBCHEM_MONOISOTOPIC_WEIGHT>
336.23

>  <PUBCHEM_TOTAL_CHARGE>
0

>  <PUBCHEM_HEAVY_ATOM_COUNT>
24

>  <PUBCHEM_ATOM_DEF_STEREO_COUNT>
0

>  <PUBCHEM_ATOM_UDEF_STEREO_COUNT>
1

>  <PUBCHEM_BOND_DEF_STEREO_COUNT>
0

>  <PUBCHEM_BOND_UDEF_STEREO_COUNT>
0

>  <PUBCHEM_ISOTOPIC_ATOM_COUNT>
0

>  <PUBCHEM_COMPONENT_COUNT>
1

>  <PUBCHEM_CACTVS_TAUTO_COUNT>
9

>  <PUBCHEM_COORDINATE_TYPE>
1
5
255

>  <PUBCHEM_BONDANNOTATIONS>
9  1  3
18  19  8
18  20  8
19  21  8
20  22  8
21  23  8
22  23  8

$$$$
