25079994
 OpenBabel06101807152D

 56 59  0  0  1  0  0  0  0  0999 V2000
    8.6663    1.8450    0.0000 O   0  0  0  0  0  0  0  0  0  0  0  0
    7.8003    0.3450    0.0000 O   0  0  0  0  0  0  0  0  0  0  0  0
    6.0682    3.3450    0.0000 O   0  0  0  0  0  0  0  0  0  0  0  0
    6.0682    1.3450    0.0000 O   0  0  0  0  0  0  0  0  0  0  0  0
    7.8003    4.3450    0.0000 O   0  0  0  0  0  0  0  0  0  0  0  0
    6.0682   -1.6550    0.0000 O   0  3  0  0  0  0  0  0  0  0  0  0
    4.3198    1.3796    0.0000 O   0  0  0  0  0  0  0  0  0  0  0  0
   10.3984   -1.1550    0.0000 O   0  0  0  0  0  0  0  0  0  0  0  0
    8.6663   -4.1550    0.0000 O   0  0  0  0  0  0  0  0  0  0  0  0
    2.5381   -1.6792    0.0000 O   0  0  0  0  0  0  0  0  0  0  0  0
   10.3984   -3.1550    0.0000 O   0  0  0  0  0  0  0  0  0  0  0  0
    6.9343    2.8450    0.0000 C   0  0  2  0  0  0  0  0  0  0  0  0
    6.9343    1.8450    0.0000 C   0  0  2  0  0  0  0  0  0  0  0  0
    7.8003    3.3450    0.0000 C   0  0  2  0  0  0  0  0  0  0  0  0
    7.8003    1.3450    0.0000 C   0  0  2  0  0  0  0  0  0  0  0  0
    8.6663    2.8450    0.0000 C   0  0  0  0  0  0  0  0  0  0  0  0
    6.9343   -0.1550    0.0000 C   0  0  0  0  0  0  0  0  0  0  0  0
    6.9343   -1.1550    0.0000 C   0  0  0  0  0  0  0  0  0  0  0  0
    6.0682    0.3450    0.0000 C   0  0  0  0  0  0  0  0  0  0  0  0
    5.2022   -0.1550    0.0000 C   0  0  0  0  0  0  0  0  0  0  0  0
    7.8003   -1.6550    0.0000 C   0  0  0  0  0  0  0  0  0  0  0  0
    5.2022   -1.1550    0.0000 C   0  0  0  0  0  0  0  0  0  0  0  0
    4.3083    0.3797    0.0000 C   0  0  0  0  0  0  0  0  0  0  0  0
    7.8003   -2.6550    0.0000 C   0  0  0  0  0  0  0  0  0  0  0  0
    8.6663   -1.1550    0.0000 C   0  0  0  0  0  0  0  0  0  0  0  0
    4.3083   -1.6897    0.0000 C   0  0  0  0  0  0  0  0  0  0  0  0
    3.4022   -0.1342    0.0000 C   0  0  0  0  0  0  0  0  0  0  0  0
    3.4022   -1.1758    0.0000 C   0  0  0  0  0  0  0  0  0  0  0  0
    9.5323   -1.6550    0.0000 C   0  0  0  0  0  0  0  0  0  0  0  0
    8.6663   -3.1550    0.0000 C   0  0  0  0  0  0  0  0  0  0  0  0
    9.5323   -2.6550    0.0000 C   0  0  0  0  0  0  0  0  0  0  0  0
   11.2644   -1.6550    0.0000 C   0  0  0  0  0  0  0  0  0  0  0  0
    7.8003   -4.6550    0.0000 C   0  0  0  0  0  0  0  0  0  0  0  0
    6.9343    3.4650    0.0000 H   0  0  0  0  0  0  0  0  0  0  0  0
    6.9343    1.2250    0.0000 H   0  0  0  0  0  0  0  0  0  0  0  0
    8.3372    3.6550    0.0000 H   0  0  0  0  0  0  0  0  0  0  0  0
    8.3372    1.0350    0.0000 H   0  0  0  0  0  0  0  0  0  0  0  0
    9.2769    2.7373    0.0000 H   0  0  0  0  0  0  0  0  0  0  0  0
    8.8784    3.4276    0.0000 H   0  0  0  0  0  0  0  0  0  0  0  0
    6.0682    3.9650    0.0000 H   0  0  0  0  0  0  0  0  0  0  0  0
    5.5313    1.6550    0.0000 H   0  0  0  0  0  0  0  0  0  0  0  0
    8.3372    4.6550    0.0000 H   0  0  0  0  0  0  0  0  0  0  0  0
    6.0682    0.9650    0.0000 H   0  0  0  0  0  0  0  0  0  0  0  0
    7.2634   -2.9650    0.0000 H   0  0  0  0  0  0  0  0  0  0  0  0
    8.6663   -0.5350    0.0000 H   0  0  0  0  0  0  0  0  0  0  0  0
    4.3154   -2.3096    0.0000 H   0  0  0  0  0  0  0  0  0  0  0  0
    2.8665    0.1779    0.0000 H   0  0  0  0  0  0  0  0  0  0  0  0
    3.7865    1.6958    0.0000 H   0  0  0  0  0  0  0  0  0  0  0  0
    2.0000   -1.3712    0.0000 H   0  0  0  0  0  0  0  0  0  0  0  0
   10.3984   -3.7750    0.0000 H   0  0  0  0  0  0  0  0  0  0  0  0
   10.9544   -2.1919    0.0000 H   0  0  0  0  0  0  0  0  0  0  0  0
   11.8013   -1.9650    0.0000 H   0  0  0  0  0  0  0  0  0  0  0  0
   11.5744   -1.1181    0.0000 H   0  0  0  0  0  0  0  0  0  0  0  0
    7.4903   -4.1181    0.0000 H   0  0  0  0  0  0  0  0  0  0  0  0
    7.2634   -4.9650    0.0000 H   0  0  0  0  0  0  0  0  0  0  0  0
    8.1103   -5.1919    0.0000 H   0  0  0  0  0  0  0  0  0  0  0  0
  1 15  1  0  0  0  0
  1 16  1  0  0  0  0
  2 17  1  0  0  0  0
  3 40  1  0  0  0  0
  4 41  1  0  0  0  0
  5 42  1  0  0  0  0
  6 18  2  0  0  0  0
  6 22  1  0  0  0  0
  7 23  1  0  0  0  0
  7 48  1  0  0  0  0
  8 29  1  0  0  0  0
  8 32  1  0  0  0  0
  9 30  1  0  0  0  0
  9 33  1  0  0  0  0
 10 28  1  0  0  0  0
 10 49  1  0  0  0  0
 11 31  1  0  0  0  0
 11 50  1  0  0  0  0
 12  3  1  0  0  0  0
 12 13  1  6  0  0  0
 12 34  1  0  0  0  0
 13  4  1  0  0  0  0
 13 15  1  6  0  0  0
 13 35  1  0  0  0  0
 14  5  1  0  0  0  0
 14 12  1  6  0  0  0
 14 16  1  0  0  0  0
 14 36  1  0  0  0  0
 15  2  1  0  0  0  0
 15 37  1  1  0  0  0
 16 38  1  0  0  0  0
 16 39  1  0  0  0  0
 17 18  1  0  0  0  0
 17 19  2  0  0  0  0
 18 21  1  0  0  0  0
 19 20  1  0  0  0  0
 19 43  1  0  0  0  0
 20 22  1  0  0  0  0
 20 23  2  0  0  0  0
 21 24  2  0  0  0  0
 21 25  1  0  0  0  0
 22 26  2  0  0  0  0
 23 27  1  0  0  0  0
 24 30  1  0  0  0  0
 24 44  1  0  0  0  0
 25 29  2  0  0  0  0
 25 45  1  0  0  0  0
 26 28  1  0  0  0  0
 26 46  1  0  0  0  0
 27 28  2  0  0  0  0
 27 47  1  0  0  0  0
 29 31  1  0  0  0  0
 30 31  2  0  0  0  0
 32 51  1  0  0  0  0
 32 52  1  0  0  0  0
 32 53  1  0  0  0  0
 33 54  1  0  0  0  0
 33 55  1  0  0  0  0
 33 56  1  0  0  0  0
M  CHG  1   6   1
M  END
>  <PUBCHEM_COMPOUND_CID>
25079994

>  <PUBCHEM_COMPOUND_CANONICALIZED>
1

>  <PUBCHEM_CACTVS_COMPLEXITY>
624

>  <PUBCHEM_CACTVS_HBOND_ACCEPTOR>
10

>  <PUBCHEM_CACTVS_HBOND_DONOR>
6

>  <PUBCHEM_CACTVS_ROTATABLE_BOND>
5

>  <PUBCHEM_CACTVS_SUBSKEYS>
AAADceB4PAAAAAAAAAAAAAAAAAAAAAAAAAA0aIEAAAAAAACR9AAAGgAACAAADBSwmAMyDsAABkCIAqBSAAICCAAkIAAAiAFGiMgdNzaGNR6ieWOl4BUPuYfK7PzOIAABCAAIQABAAAIQABCAAAAAAAAAAA==

>  <PUBCHEM_IUPAC_OPENEYE_NAME>
(2R,3R,4S,5S)-2-[5,7-dihydroxy-2-(4-hydroxy-3,5-dimethoxy-phenyl)chromenylium-3-yl]oxytetrahydropyran-3,4,5-triol

>  <PUBCHEM_IUPAC_CAS_NAME>
(2R,3R,4S,5S)-2-[[5,7-dihydroxy-2-(4-hydroxy-3,5-dimethoxyphenyl)-1-benzopyrylium-3-yl]oxy]oxane-3,4,5-triol

>  <PUBCHEM_IUPAC_NAME>
(2R,3R,4S,5S)-2-[5,7-dihydroxy-2-(4-hydroxy-3,5-dimethoxyphenyl)chromenylium-3-yl]oxyoxane-3,4,5-triol

>  <PUBCHEM_IUPAC_SYSTEMATIC_NAME>
(2R,3R,4S,5S)-2-[2-(3,5-dimethoxy-4-oxidanyl-phenyl)-5,7-bis(oxidanyl)chromenylium-3-yl]oxyoxane-3,4,5-triol

>  <PUBCHEM_IUPAC_TRADITIONAL_NAME>
(2R,3R,4S,5S)-2-[[5,7-dihydroxy-2-(4-hydroxy-3,5-dimethoxy-phenyl)-1-benzopyrylium-3-yl]oxy]tetrahydropyran-3,4,5-triol

>  <PUBCHEM_IUPAC_INCHI>
InChI=1S/C22H22O11/c1-29-15-3-9(4-16(30-2)19(15)27)21-17(33-22-20(28)18(26)13(25)8-31-22)7-11-12(24)5-10(23)6-14(11)32-21/h3-7,13,18,20,22,25-26,28H,8H2,1-2H3,(H2-,23,24,27)/p+1/t13-,18-,20+,22+/m0/s1

>  <PUBCHEM_IUPAC_INCHIKEY>
ZWAAFZOEMBEAAF-YGUHJOONSA-O

>  <PUBCHEM_EXACT_MASS>
463.124

>  <PUBCHEM_MOLECULAR_FORMULA>
C22H23O11+

>  <PUBCHEM_MOLECULAR_WEIGHT>
463.415

>  <PUBCHEM_OPENEYE_CAN_SMILES>
COC1=CC(=CC(=C1O)OC)C2=C(C=C3C(=CC(=CC3=[O+]2)O)O)OC4C(C(C(CO4)O)O)O

>  <PUBCHEM_OPENEYE_ISO_SMILES>
COC1=CC(=CC(=C1O)OC)C2=C(C=C3C(=CC(=CC3=[O+]2)O)O)O[C@@H]4[C@@H]([C@H]([C@H](CO4)O)O)O

>  <PUBCHEM_CACTVS_TPSA>
159

>  <PUBCHEM_MONOISOTOPIC_WEIGHT>
463.124

>  <PUBCHEM_TOTAL_CHARGE>
1

>  <PUBCHEM_HEAVY_ATOM_COUNT>
33

>  <PUBCHEM_ATOM_DEF_STEREO_COUNT>
4

>  <PUBCHEM_ATOM_UDEF_STEREO_COUNT>
0

>  <PUBCHEM_BOND_DEF_STEREO_COUNT>
0

>  <PUBCHEM_BOND_UDEF_STEREO_COUNT>
0

>  <PUBCHEM_ISOTOPIC_ATOM_COUNT>
0

>  <PUBCHEM_COMPONENT_COUNT>
1

>  <PUBCHEM_CACTVS_TAUTO_COUNT>
41

>  <PUBCHEM_COORDINATE_TYPE>
1
5
255

>  <PUBCHEM_BONDANNOTATIONS>
17  18  8
17  19  8
19  20  8
15  2  6
20  22  8
20  23  8
21  24  8
21  25  8
22  26  8
23  27  8
24  30  8
25  29  8
26  28  8
27  28  8
29  31  8
12  3  5
30  31  8
13  4  6
14  5  5
6  18  8
6  22  8

$$$$
