25078152
 OpenBabel06101807152D

284287  0  0  1  0  0  0  0  0999 V2000
   35.3701    0.9024    0.0000 S   0  0  0  0  0  0  0  0  0  0  0  0
   10.8598    3.7329    0.0000 O   0  0  0  0  0  0  0  0  0  0  0  0
    9.8476    2.8215    0.0000 O   0  0  0  0  0  0  0  0  0  0  0  0
   22.0150    2.9604    0.0000 O   0  0  0  0  0  0  0  0  0  0  0  0
   12.2144    3.5906    0.0000 O   0  0  0  0  0  0  0  0  0  0  0  0
   26.3079    3.9024    0.0000 O   0  0  0  0  0  0  0  0  0  0  0  0
   21.2144    1.8584    0.0000 O   0  0  0  0  0  0  0  0  0  0  0  0
   25.4419    2.4024    0.0000 O   0  0  0  0  0  0  0  0  0  0  0  0
   12.7144    2.7245    0.0000 O   0  0  0  0  0  0  0  0  0  0  0  0
    6.5070    1.4649    0.0000 O   0  0  0  0  0  0  0  0  0  0  0  0
   15.7144    4.4566    0.0000 O   0  0  0  0  0  0  0  0  0  0  0  0
   20.2144    1.8584    0.0000 O   0  0  0  0  0  0  0  0  0  0  0  0
   21.7144   -2.4717    0.0000 O   0  0  0  0  0  0  0  0  0  0  0  0
   20.2145   -1.6057    0.0000 O   0  0  0  0  0  0  0  0  0  0  0  0
   27.1739    2.4024    0.0000 O   0  0  0  0  0  0  0  0  0  0  0  0
    8.5431   -1.3377    0.0000 O   0  0  0  0  0  0  0  0  0  0  0  0
   16.7144    0.9924    0.0000 O   0  0  0  0  0  0  0  0  0  0  0  0
    7.7341   -1.9255    0.0000 O   0  0  0  0  0  0  0  0  0  0  0  0
   27.1739    6.4024    0.0000 O   0  0  0  0  0  0  0  0  0  0  0  0
   29.9060    4.9024    0.0000 O   0  0  0  0  0  0  0  0  0  0  0  0
   26.3079    4.9024    0.0000 O   0  0  0  0  0  0  0  0  0  0  0  0
   29.9060    1.9024    0.0000 O   0  0  0  0  0  0  0  0  0  0  0  0
    4.3935   -3.2821    0.0000 O   0  0  0  0  0  0  0  0  0  0  0  0
    3.2709   -0.8863    0.0000 O   0  0  0  0  0  0  0  0  0  0  0  0
   32.6380    2.4024    0.0000 O   0  0  0  0  0  0  0  0  0  0  0  0
    5.6206   -6.6724    0.0000 O   0  0  0  0  0  0  0  0  0  0  0  0
   35.3701    4.9024    0.0000 O   0  0  0  0  0  0  0  0  0  0  0  0
   33.5041    6.9024    0.0000 O   0  0  0  0  0  0  0  0  0  0  0  0
   38.1021    2.4024    0.0000 O   0  0  0  0  0  0  0  0  0  0  0  0
   11.2199    5.4272    0.0000 N   0  0  0  0  0  0  0  0  0  0  0  0
    8.8295    4.2228    0.0000 N   0  0  0  0  0  0  0  0  0  0  0  0
   23.6623    3.4957    0.0000 N   0  0  0  0  0  0  0  0  0  0  0  0
   22.7144    0.9924    0.0000 N   0  0  0  0  0  0  0  0  0  0  0  0
   13.7144    4.4566    0.0000 N   0  0  0  0  0  0  0  0  0  0  0  0
    8.2295    1.6459    0.0000 N   0  0  0  0  0  0  0  0  0  0  0  0
   20.2145    0.1264    0.0000 N   0  0  0  0  0  0  0  0  0  0  0  0
   15.7144    2.7245    0.0000 N   0  0  0  0  0  0  0  0  0  0  0  0
   18.2144    1.8585    0.0000 N   0  0  0  0  0  0  0  0  0  0  0  0
    6.7160   -0.5242    0.0000 N   0  0  0  0  0  0  0  0  0  0  0  0
    3.7663    2.6851    0.0000 N   0  0  0  0  0  0  0  0  0  0  0  0
   28.9060    3.4024    0.0000 N   0  0  0  0  0  0  0  0  0  0  0  0
    6.1161   -3.1010    0.0000 N   0  0  0  0  0  0  0  0  0  0  0  0
   15.7144   -0.7396    0.0000 N   0  0  0  0  0  0  0  0  0  0  0  0
   31.6380    3.9024    0.0000 N   0  0  0  0  0  0  0  0  0  0  0  0
   17.2145    7.0547    0.0000 N   0  0  0  0  0  0  0  0  0  0  0  0
    4.6026   -5.2711    0.0000 N   0  0  0  0  0  0  0  0  0  0  0  0
   14.2144   -1.6057    0.0000 N   0  0  0  0  0  0  0  0  0  0  0  0
   15.7145   -2.4717    0.0000 N   0  0  0  0  0  0  0  0  0  0  0  0
    2.5664   -2.4686    0.0000 N   0  0  0  0  0  0  0  0  0  0  0  0
   34.3701    3.4024    0.0000 N   0  0  0  0  0  0  0  0  0  0  0  0
    4.0026   -7.8480    0.0000 N   0  0  0  0  0  0  0  0  0  0  0  0
   37.1021    3.9024    0.0000 N   0  0  0  0  0  0  0  0  0  0  0  0
   35.2361    6.9024    0.0000 N   0  0  0  0  0  0  0  0  0  0  0  0
   39.8342    3.4024    0.0000 N   0  0  0  0  0  0  0  0  0  0  0  0
   40.7002    7.9024    0.0000 N   0  0  0  0  0  0  0  0  0  0  0  0
    9.5726    4.8919    0.0000 C   0  0  1  0  0  0  0  0  0  0  0  0
    9.1659    5.8055    0.0000 C   0  0  0  0  0  0  0  0  0  0  0  0
   12.2144    5.3226    0.0000 C   0  0  1  0  0  0  0  0  0  0  0  0
    8.1714    5.7009    0.0000 C   0  0  0  0  0  0  0  0  0  0  0  0
    7.9635    4.7228    0.0000 C   0  0  0  0  0  0  0  0  0  0  0  0
   12.6212    6.2362    0.0000 C   0  0  0  0  0  0  0  0  0  0  0  0
   11.0120    6.4053    0.0000 C   0  0  0  0  0  0  0  0  0  0  0  0
   10.5508    4.6840    0.0000 C   0  0  0  0  0  0  0  0  0  0  0  0
   11.8780    6.9053    0.0000 C   0  0  0  0  0  0  0  0  0  0  0  0
   23.3022    1.8015    0.0000 C   0  0  1  0  0  0  0  0  0  0  0  0
   24.2533    1.4924    0.0000 C   0  0  0  0  0  0  0  0  0  0  0  0
   24.5759    3.9024    0.0000 C   0  0  1  0  0  0  0  0  0  0  0  0
   24.2533    0.4924    0.0000 C   0  0  0  0  0  0  0  0  0  0  0  0
   23.3022    0.1834    0.0000 C   0  0  0  0  0  0  0  0  0  0  0  0
    8.9340    3.2282    0.0000 C   0  0  0  0  0  0  0  0  0  0  0  0
   22.9932    2.7525    0.0000 C   0  0  0  0  0  0  0  0  0  0  0  0
   22.9932    4.2388    0.0000 C   0  0  0  0  0  0  0  0  0  0  0  0
   24.4713    4.8969    0.0000 C   0  0  0  0  0  0  0  0  0  0  0  0
   23.4932    5.1048    0.0000 C   0  0  0  0  0  0  0  0  0  0  0  0
   12.7144    4.4566    0.0000 C   0  0  0  0  0  0  0  0  0  0  0  0
    8.1250    2.6405    0.0000 C   0  0  2  0  0  0  0  0  0  0  0  0
   21.7145    0.9924    0.0000 C   0  0  0  0  0  0  0  0  0  0  0  0
    7.2114    3.0472    0.0000 C   0  0  0  0  0  0  0  0  0  0  0  0
   21.2145    0.1264    0.0000 C   0  0  2  0  0  0  0  0  0  0  0  0
   25.4419    3.4024    0.0000 C   0  0  0  0  0  0  0  0  0  0  0  0
    6.4024    2.4594    0.0000 C   0  0  0  0  0  0  0  0  0  0  0  0
   14.2144    3.5906    0.0000 C   0  0  1  0  0  0  0  0  0  0  0  0
   21.7144   -0.7396    0.0000 C   0  0  0  0  0  0  0  0  0  0  0  0
    5.4889    2.8662    0.0000 C   0  0  0  0  0  0  0  0  0  0  0  0
    7.4205    1.0581    0.0000 C   0  0  0  0  0  0  0  0  0  0  0  0
   13.7144    2.7245    0.0000 C   0  0  0  0  0  0  0  0  0  0  0  0
   15.2144    3.5906    0.0000 C   0  0  0  0  0  0  0  0  0  0  0  0
    7.5250    0.0636    0.0000 C   0  0  2  0  0  0  0  0  0  0  0  0
   19.7144    0.9924    0.0000 C   0  0  0  0  0  0  0  0  0  0  0  0
   18.7144    0.9924    0.0000 C   0  0  2  0  0  0  0  0  0  0  0  0
    4.6799    2.2784    0.0000 C   0  0  0  0  0  0  0  0  0  0  0  0
   16.7144    2.7245    0.0000 C   0  0  1  0  0  0  0  0  0  0  0  0
   21.2144   -1.6056    0.0000 C   0  0  0  0  0  0  0  0  0  0  0  0
   27.1739    3.4024    0.0000 C   0  0  0  0  0  0  0  0  0  0  0  0
   18.2144    0.1264    0.0000 C   0  0  0  0  0  0  0  0  0  0  0  0
   17.2144    3.5906    0.0000 C   0  0  0  0  0  0  0  0  0  0  0  0
    8.4386   -0.3431    0.0000 C   0  0  0  0  0  0  0  0  0  0  0  0
   17.2144    1.8585    0.0000 C   0  0  0  0  0  0  0  0  0  0  0  0
   28.0400    3.9024    0.0000 C   0  0  2  0  0  0  0  0  0  0  0  0
   17.2144    0.1264    0.0000 C   0  0  0  0  0  0  0  0  0  0  0  0
   16.7144    4.4566    0.0000 C   0  0  0  0  0  0  0  0  0  0  0  0
   28.0400    4.9024    0.0000 C   0  0  0  0  0  0  0  0  0  0  0  0
    6.8205   -1.5187    0.0000 C   0  0  0  0  0  0  0  0  0  0  0  0
   17.2144    5.3226    0.0000 C   0  0  0  0  0  0  0  0  0  0  0  0
    6.0115   -2.1065    0.0000 C   0  0  2  0  0  0  0  0  0  0  0  0
   16.7144   -0.7396    0.0000 C   0  0  0  0  0  0  0  0  0  0  0  0
    5.0980   -1.6998    0.0000 C   0  0  0  0  0  0  0  0  0  0  0  0
   29.9060    3.9024    0.0000 C   0  0  0  0  0  0  0  0  0  0  0  0
   16.7145    6.1887    0.0000 C   0  0  0  0  0  0  0  0  0  0  0  0
   27.1739    5.4024    0.0000 C   0  0  0  0  0  0  0  0  0  0  0  0
   30.7720    3.4024    0.0000 C   0  0  2  0  0  0  0  0  0  0  0  0
    4.2890   -2.2876    0.0000 C   0  0  0  0  0  0  0  0  0  0  0  0
   30.7720    2.4024    0.0000 C   0  0  1  0  0  0  0  0  0  0  0  0
    5.3070   -3.6888    0.0000 C   0  0  0  0  0  0  0  0  0  0  0  0
    5.4116   -4.6833    0.0000 C   0  0  2  0  0  0  0  0  0  0  0  0
    6.3251   -5.0901    0.0000 C   0  0  0  0  0  0  0  0  0  0  0  0
   15.2144   -1.6057    0.0000 C   0  0  0  0  0  0  0  0  0  0  0  0
   31.6380    1.9024    0.0000 C   0  0  0  0  0  0  0  0  0  0  0  0
    3.3754   -1.8808    0.0000 C   0  0  0  0  0  0  0  0  0  0  0  0
   32.6380    3.4024    0.0000 C   0  0  0  0  0  0  0  0  0  0  0  0
   33.5041    3.9024    0.0000 C   0  0  2  0  0  0  0  0  0  0  0  0
    6.4296   -6.0846    0.0000 C   0  0  0  0  0  0  0  0  0  0  0  0
    7.1341   -4.5023    0.0000 C   0  0  0  0  0  0  0  0  0  0  0  0
   33.5041    4.9024    0.0000 C   0  0  0  0  0  0  0  0  0  0  0  0
    4.7071   -6.2657    0.0000 C   0  0  0  0  0  0  0  0  0  0  0  0
    3.8981   -6.8534    0.0000 C   0  0  2  0  0  0  0  0  0  0  0  0
   34.3701    5.4024    0.0000 C   0  0  0  0  0  0  0  0  0  0  0  0
   35.3701    3.9024    0.0000 C   0  0  0  0  0  0  0  0  0  0  0  0
   36.2361    3.4024    0.0000 C   0  0  2  0  0  0  0  0  0  0  0  0
    2.9845   -6.4467    0.0000 C   0  0  0  0  0  0  0  0  0  0  0  0
   34.3701    6.4024    0.0000 C   0  0  0  0  0  0  0  0  0  0  0  0
   36.2361    2.4024    0.0000 C   0  0  0  0  0  0  0  0  0  0  0  0
   35.3701    1.9024    0.0000 C   0  0  0  0  0  0  0  0  0  0  0  0
   38.1021    3.4024    0.0000 C   0  0  0  0  0  0  0  0  0  0  0  0
   38.9682    3.9024    0.0000 C   0  0  2  0  0  0  0  0  0  0  0  0
   38.9682    4.9024    0.0000 C   0  0  0  0  0  0  0  0  0  0  0  0
   39.8342    5.4024    0.0000 C   0  0  0  0  0  0  0  0  0  0  0  0
   39.8342    6.4024    0.0000 C   0  0  0  0  0  0  0  0  0  0  0  0
   36.2361    0.4024    0.0000 C   0  0  0  0  0  0  0  0  0  0  0  0
   40.7002    6.9024    0.0000 C   0  0  0  0  0  0  0  0  0  0  0  0
    9.7331    4.2930    0.0000 H   0  0  0  0  0  0  0  0  0  0  0  0
    9.7556    5.9970    0.0000 H   0  0  0  0  0  0  0  0  0  0  0  0
    9.0370    6.4119    0.0000 H   0  0  0  0  0  0  0  0  0  0  0  0
   11.8768    4.8026    0.0000 H   0  0  0  0  0  0  0  0  0  0  0  0
    8.1714    6.3209    0.0000 H   0  0  0  0  0  0  0  0  0  0  0  0
    7.5548    5.7657    0.0000 H   0  0  0  0  0  0  0  0  0  0  0  0
    7.3738    4.9144    0.0000 H   0  0  0  0  0  0  0  0  0  0  0  0
    7.7113    4.1564    0.0000 H   0  0  0  0  0  0  0  0  0  0  0  0
   13.1581    5.9262    0.0000 H   0  0  0  0  0  0  0  0  0  0  0  0
   12.9856    6.7378    0.0000 H   0  0  0  0  0  0  0  0  0  0  0  0
   10.7598    6.9717    0.0000 H   0  0  0  0  0  0  0  0  0  0  0  0
   10.4223    6.2137    0.0000 H   0  0  0  0  0  0  0  0  0  0  0  0
   12.3388    7.3202    0.0000 H   0  0  0  0  0  0  0  0  0  0  0  0
   11.5136    7.4069    0.0000 H   0  0  0  0  0  0  0  0  0  0  0  0
   22.6898    1.8985    0.0000 H   0  0  0  0  0  0  0  0  0  0  0  0
   24.8699    1.4276    0.0000 H   0  0  0  0  0  0  0  0  0  0  0  0
   24.3822    2.0989    0.0000 H   0  0  0  0  0  0  0  0  0  0  0  0
   24.5434    3.2832    0.0000 H   0  0  0  0  0  0  0  0  0  0  0  0
   24.3822   -0.1140    0.0000 H   0  0  0  0  0  0  0  0  0  0  0  0
   24.8699    0.5572    0.0000 H   0  0  0  0  0  0  0  0  0  0  0  0
   22.7653   -0.1266    0.0000 H   0  0  0  0  0  0  0  0  0  0  0  0
   23.5544   -0.3830    0.0000 H   0  0  0  0  0  0  0  0  0  0  0  0
   22.4916    4.6032    0.0000 H   0  0  0  0  0  0  0  0  0  0  0  0
   22.5783    3.7781    0.0000 H   0  0  0  0  0  0  0  0  0  0  0  0
   25.0913    4.8969    0.0000 H   0  0  0  0  0  0  0  0  0  0  0  0
   24.5361    5.5135    0.0000 H   0  0  0  0  0  0  0  0  0  0  0  0
   23.6848    5.6945    0.0000 H   0  0  0  0  0  0  0  0  0  0  0  0
   22.9268    5.3570    0.0000 H   0  0  0  0  0  0  0  0  0  0  0  0
    8.6914    2.3883    0.0000 H   0  0  0  0  0  0  0  0  0  0  0  0
    7.5581    3.5612    0.0000 H   0  0  0  0  0  0  0  0  0  0  0  0
    6.7654    3.4779    0.0000 H   0  0  0  0  0  0  0  0  0  0  0  0
   20.9045    0.6633    0.0000 H   0  0  0  0  0  0  0  0  0  0  0  0
   14.0244    4.9935    0.0000 H   0  0  0  0  0  0  0  0  0  0  0  0
    8.7959    1.3937    0.0000 H   0  0  0  0  0  0  0  0  0  0  0  0
    6.0557    1.9454    0.0000 H   0  0  0  0  0  0  0  0  0  0  0  0
    6.8484    2.0287    0.0000 H   0  0  0  0  0  0  0  0  0  0  0  0
   13.5944    3.5906    0.0000 H   0  0  0  0  0  0  0  0  0  0  0  0
   22.1894   -1.1381    0.0000 H   0  0  0  0  0  0  0  0  0  0  0  0
   22.1894   -0.3411    0.0000 H   0  0  0  0  0  0  0  0  0  0  0  0
    5.8356    3.3802    0.0000 H   0  0  0  0  0  0  0  0  0  0  0  0
    5.0429    3.2968    0.0000 H   0  0  0  0  0  0  0  0  0  0  0  0
   19.9045   -0.4106    0.0000 H   0  0  0  0  0  0  0  0  0  0  0  0
   13.6068    2.1139    0.0000 H   0  0  0  0  0  0  0  0  0  0  0  0
   14.2970    2.5125    0.0000 H   0  0  0  0  0  0  0  0  0  0  0  0
    6.9586    0.3158    0.0000 H   0  0  0  0  0  0  0  0  0  0  0  0
   18.0944    0.9924    0.0000 H   0  0  0  0  0  0  0  0  0  0  0  0
    4.3332    1.7644    0.0000 H   0  0  0  0  0  0  0  0  0  0  0  0
    5.1258    1.8477    0.0000 H   0  0  0  0  0  0  0  0  0  0  0  0
   16.4044    2.1876    0.0000 H   0  0  0  0  0  0  0  0  0  0  0  0
   15.4044    2.1876    0.0000 H   0  0  0  0  0  0  0  0  0  0  0  0
   18.1068   -0.4842    0.0000 H   0  0  0  0  0  0  0  0  0  0  0  0
   18.7971   -0.0857    0.0000 H   0  0  0  0  0  0  0  0  0  0  0  0
   18.5244    2.3954    0.0000 H   0  0  0  0  0  0  0  0  0  0  0  0
   17.6894    3.1920    0.0000 H   0  0  0  0  0  0  0  0  0  0  0  0
   17.6894    3.9891    0.0000 H   0  0  0  0  0  0  0  0  0  0  0  0
    9.0571   -0.3864    0.0000 H   0  0  0  0  0  0  0  0  0  0  0  0
    8.5886    0.2584    0.0000 H   0  0  0  0  0  0  0  0  0  0  0  0
   28.5769    4.2124    0.0000 H   0  0  0  0  0  0  0  0  0  0  0  0
    6.1496   -0.2720    0.0000 H   0  0  0  0  0  0  0  0  0  0  0  0
   12.4044    2.1876    0.0000 H   0  0  0  0  0  0  0  0  0  0  0  0
   17.3221    0.7370    0.0000 H   0  0  0  0  0  0  0  0  0  0  0  0
   16.6318    0.3384    0.0000 H   0  0  0  0  0  0  0  0  0  0  0  0
   16.2395    4.8551    0.0000 H   0  0  0  0  0  0  0  0  0  0  0  0
   16.2395    4.0581    0.0000 H   0  0  0  0  0  0  0  0  0  0  0  0
    3.2647    2.3207    0.0000 H   0  0  0  0  0  0  0  0  0  0  0  0
    3.7015    3.3017    0.0000 H   0  0  0  0  0  0  0  0  0  0  0  0
   28.6505    4.7947    0.0000 H   0  0  0  0  0  0  0  0  0  0  0  0
   28.2520    5.4850    0.0000 H   0  0  0  0  0  0  0  0  0  0  0  0
   21.4044   -3.0086    0.0000 H   0  0  0  0  0  0  0  0  0  0  0  0
   29.4429    3.0924    0.0000 H   0  0  0  0  0  0  0  0  0  0  0  0
   17.6894    4.9241    0.0000 H   0  0  0  0  0  0  0  0  0  0  0  0
   17.6894    5.7212    0.0000 H   0  0  0  0  0  0  0  0  0  0  0  0
    5.5099   -2.4709    0.0000 H   0  0  0  0  0  0  0  0  0  0  0  0
   16.6068   -1.3502    0.0000 H   0  0  0  0  0  0  0  0  0  0  0  0
   17.2971   -0.9517    0.0000 H   0  0  0  0  0  0  0  0  0  0  0  0
    9.1095   -1.5898    0.0000 H   0  0  0  0  0  0  0  0  0  0  0  0
    5.4447   -1.1858    0.0000 H   0  0  0  0  0  0  0  0  0  0  0  0
    4.6520   -1.2691    0.0000 H   0  0  0  0  0  0  0  0  0  0  0  0
   16.2395    6.5872    0.0000 H   0  0  0  0  0  0  0  0  0  0  0  0
   16.2395    5.7902    0.0000 H   0  0  0  0  0  0  0  0  0  0  0  0
   31.3090    3.0924    0.0000 H   0  0  0  0  0  0  0  0  0  0  0  0
    6.6825   -3.3532    0.0000 H   0  0  0  0  0  0  0  0  0  0  0  0
    3.9423   -2.8016    0.0000 H   0  0  0  0  0  0  0  0  0  0  0  0
    4.7350   -2.7182    0.0000 H   0  0  0  0  0  0  0  0  0  0  0  0
   30.7720    1.7824    0.0000 H   0  0  0  0  0  0  0  0  0  0  0  0
    4.8452   -4.4312    0.0000 H   0  0  0  0  0  0  0  0  0  0  0  0
   32.1750    4.2124    0.0000 H   0  0  0  0  0  0  0  0  0  0  0  0
   16.9044    7.5916    0.0000 H   0  0  0  0  0  0  0  0  0  0  0  0
   17.8344    7.0546    0.0000 H   0  0  0  0  0  0  0  0  0  0  0  0
    5.8235   -5.4545    0.0000 H   0  0  0  0  0  0  0  0  0  0  0  0
   26.6370    6.7124    0.0000 H   0  0  0  0  0  0  0  0  0  0  0  0
   31.3280    1.3655    0.0000 H   0  0  0  0  0  0  0  0  0  0  0  0
   32.1750    1.5924    0.0000 H   0  0  0  0  0  0  0  0  0  0  0  0
   31.9480    2.4393    0.0000 H   0  0  0  0  0  0  0  0  0  0  0  0
    4.0362   -5.0190    0.0000 H   0  0  0  0  0  0  0  0  0  0  0  0
   33.5041    3.2824    0.0000 H   0  0  0  0  0  0  0  0  0  0  0  0
   29.9060    1.2824    0.0000 H   0  0  0  0  0  0  0  0  0  0  0  0
    5.8130   -6.1494    0.0000 H   0  0  0  0  0  0  0  0  0  0  0  0
    6.4945   -6.7012    0.0000 H   0  0  0  0  0  0  0  0  0  0  0  0
    7.0463   -6.0198    0.0000 H   0  0  0  0  0  0  0  0  0  0  0  0
    7.4986   -5.0039    0.0000 H   0  0  0  0  0  0  0  0  0  0  0  0
    7.6357   -4.1379    0.0000 H   0  0  0  0  0  0  0  0  0  0  0  0
    6.7697   -4.0007    0.0000 H   0  0  0  0  0  0  0  0  0  0  0  0
   33.2920    5.4850    0.0000 H   0  0  0  0  0  0  0  0  0  0  0  0
   32.8935    4.7947    0.0000 H   0  0  0  0  0  0  0  0  0  0  0  0
   13.9044   -2.1426    0.0000 H   0  0  0  0  0  0  0  0  0  0  0  0
   13.9044   -1.0687    0.0000 H   0  0  0  0  0  0  0  0  0  0  0  0
   15.4045   -3.0086    0.0000 H   0  0  0  0  0  0  0  0  0  0  0  0
   16.3345   -2.4717    0.0000 H   0  0  0  0  0  0  0  0  0  0  0  0
    2.0000   -2.2164    0.0000 H   0  0  0  0  0  0  0  0  0  0  0  0
    2.6312   -3.0852    0.0000 H   0  0  0  0  0  0  0  0  0  0  0  0
   34.9070    3.0924    0.0000 H   0  0  0  0  0  0  0  0  0  0  0  0
   34.5821    4.8198    0.0000 H   0  0  0  0  0  0  0  0  0  0  0  0
   34.9807    5.5101    0.0000 H   0  0  0  0  0  0  0  0  0  0  0  0
    3.3965   -7.2179    0.0000 H   0  0  0  0  0  0  0  0  0  0  0  0
   36.7731    3.0924    0.0000 H   0  0  0  0  0  0  0  0  0  0  0  0
    3.2367   -5.8803    0.0000 H   0  0  0  0  0  0  0  0  0  0  0  0
    2.4181   -6.1945    0.0000 H   0  0  0  0  0  0  0  0  0  0  0  0
    2.7324   -7.0131    0.0000 H   0  0  0  0  0  0  0  0  0  0  0  0
    3.5010   -8.2124    0.0000 H   0  0  0  0  0  0  0  0  0  0  0  0
    4.5690   -8.1002    0.0000 H   0  0  0  0  0  0  0  0  0  0  0  0
   36.4482    1.8198    0.0000 H   0  0  0  0  0  0  0  0  0  0  0  0
   36.8467    2.5101    0.0000 H   0  0  0  0  0  0  0  0  0  0  0  0
   37.6391    4.2124    0.0000 H   0  0  0  0  0  0  0  0  0  0  0  0
   35.1580    2.4850    0.0000 H   0  0  0  0  0  0  0  0  0  0  0  0
   34.7595    1.7947    0.0000 H   0  0  0  0  0  0  0  0  0  0  0  0
   35.2361    7.5224    0.0000 H   0  0  0  0  0  0  0  0  0  0  0  0
   35.7731    6.5924    0.0000 H   0  0  0  0  0  0  0  0  0  0  0  0
   38.9682    3.2824    0.0000 H   0  0  0  0  0  0  0  0  0  0  0  0
   38.7561    5.4850    0.0000 H   0  0  0  0  0  0  0  0  0  0  0  0
   38.3576    4.7947    0.0000 H   0  0  0  0  0  0  0  0  0  0  0  0
   40.0462    4.8198    0.0000 H   0  0  0  0  0  0  0  0  0  0  0  0
   40.4448    5.5101    0.0000 H   0  0  0  0  0  0  0  0  0  0  0  0
   40.3711    3.7124    0.0000 H   0  0  0  0  0  0  0  0  0  0  0  0
   39.8342    2.7824    0.0000 H   0  0  0  0  0  0  0  0  0  0  0  0
   39.6221    6.9850    0.0000 H   0  0  0  0  0  0  0  0  0  0  0  0
   39.2236    6.2947    0.0000 H   0  0  0  0  0  0  0  0  0  0  0  0
   35.9261   -0.1345    0.0000 H   0  0  0  0  0  0  0  0  0  0  0  0
   36.7731    0.0924    0.0000 H   0  0  0  0  0  0  0  0  0  0  0  0
   36.5461    0.9393    0.0000 H   0  0  0  0  0  0  0  0  0  0  0  0
   40.9123    6.3198    0.0000 H   0  0  0  0  0  0  0  0  0  0  0  0
   41.3108    7.0101    0.0000 H   0  0  0  0  0  0  0  0  0  0  0  0
   41.2372    8.2124    0.0000 H   0  0  0  0  0  0  0  0  0  0  0  0
   40.1633    8.2124    0.0000 H   0  0  0  0  0  0  0  0  0  0  0  0
  1133  1  0  0  0  0
  1139  1  0  0  0  0
  2 63  2  0  0  0  0
  3 70  2  0  0  0  0
  4 71  2  0  0  0  0
  5 75  2  0  0  0  0
  6 80  1  0  0  0  0
  6 94  1  0  0  0  0
  7 77  2  0  0  0  0
  8 80  2  0  0  0  0
  9 86  1  0  0  0  0
  9200  1  0  0  0  0
 10 85  2  0  0  0  0
 11 87  2  0  0  0  0
 12 89  2  0  0  0  0
 13 93  1  0  0  0  0
 13209  1  0  0  0  0
 14 93  2  0  0  0  0
 15 94  2  0  0  0  0
 16 97  1  0  0  0  0
 16216  1  0  0  0  0
 17 98  2  0  0  0  0
 18103  2  0  0  0  0
 19110  1  0  0  0  0
 19231  1  0  0  0  0
 20108  2  0  0  0  0
 21110  2  0  0  0  0
 22237  1  0  0  0  0
 23114  2  0  0  0  0
 24119  2  0  0  0  0
 25120  2  0  0  0  0
 26125  2  0  0  0  0
 27128  2  0  0  0  0
 28131  2  0  0  0  0
 29134  2  0  0  0  0
 30 58  1  0  0  0  0
 30 62  1  0  0  0  0
 30 63  1  0  0  0  0
 31 56  1  0  0  0  0
 31 60  1  0  0  0  0
 31 70  1  0  0  0  0
 32 67  1  0  0  0  0
 32 71  1  0  0  0  0
 32 72  1  0  0  0  0
 33 65  1  0  0  0  0
 33 69  1  0  0  0  0
 33 77  1  0  0  0  0
 34 75  1  0  0  0  0
 34173  1  0  0  0  0
 35 85  1  0  0  0  0
 35174  1  0  0  0  0
 36 89  1  0  0  0  0
 36182  1  0  0  0  0
 37 87  1  0  0  0  0
 37190  1  0  0  0  0
 38 98  1  0  0  0  0
 38193  1  0  0  0  0
 39103  1  0  0  0  0
 39199  1  0  0  0  0
 40 91  1  0  0  0  0
 40205  1  0  0  0  0
 40206  1  0  0  0  0
 41108  1  0  0  0  0
 41210  1  0  0  0  0
 42114  1  0  0  0  0
 42222  1  0  0  0  0
 43106  1  0  0  0  0
 43117  2  0  0  0  0
 44120  1  0  0  0  0
 44227  1  0  0  0  0
 45109  1  0  0  0  0
 45228  1  0  0  0  0
 45229  1  0  0  0  0
 46125  1  0  0  0  0
 46235  1  0  0  0  0
 47117  1  0  0  0  0
 47246  1  0  0  0  0
 47247  1  0  0  0  0
 48117  1  0  0  0  0
 48248  1  0  0  0  0
 48249  1  0  0  0  0
 49119  1  0  0  0  0
 49250  1  0  0  0  0
 49251  1  0  0  0  0
 50128  1  0  0  0  0
 50252  1  0  0  0  0
 51260  1  0  0  0  0
 51261  1  0  0  0  0
 52134  1  0  0  0  0
 52264  1  0  0  0  0
 53131  1  0  0  0  0
 53267  1  0  0  0  0
 53268  1  0  0  0  0
 54274  1  0  0  0  0
 54275  1  0  0  0  0
 55140  1  0  0  0  0
 55283  1  0  0  0  0
 55284  1  0  0  0  0
 56 57  1  0  0  0  0
 56 63  1  0  0  0  0
 56141  1  6  0  0  0
 57 59  1  0  0  0  0
 57142  1  0  0  0  0
 57143  1  0  0  0  0
 58 61  1  0  0  0  0
 58 75  1  0  0  0  0
 58144  1  6  0  0  0
 59 60  1  0  0  0  0
 59145  1  0  0  0  0
 59146  1  0  0  0  0
 60147  1  0  0  0  0
 60148  1  0  0  0  0
 61 64  1  0  0  0  0
 61149  1  0  0  0  0
 61150  1  0  0  0  0
 62 64  1  0  0  0  0
 62151  1  0  0  0  0
 62152  1  0  0  0  0
 64153  1  0  0  0  0
 64154  1  0  0  0  0
 65 66  1  0  0  0  0
 65 71  1  0  0  0  0
 65155  1  1  0  0  0
 66 68  1  0  0  0  0
 66156  1  0  0  0  0
 66157  1  0  0  0  0
 67 73  1  0  0  0  0
 67 80  1  0  0  0  0
 67158  1  6  0  0  0
 68 69  1  0  0  0  0
 68159  1  0  0  0  0
 68160  1  0  0  0  0
 69161  1  0  0  0  0
 69162  1  0  0  0  0
 70 76  1  0  0  0  0
 72 74  1  0  0  0  0
 72163  1  0  0  0  0
 72164  1  0  0  0  0
 73 74  1  0  0  0  0
 73165  1  0  0  0  0
 73166  1  0  0  0  0
 74167  1  0  0  0  0
 74168  1  0  0  0  0
 76 35  1  0  0  0  0
 76 78  1  0  0  0  0
 76169  1  6  0  0  0
 77 79  1  0  0  0  0
 78 81  1  0  0  0  0
 78170  1  0  0  0  0
 78171  1  0  0  0  0
 79 36  1  0  0  0  0
 79 83  1  0  0  0  0
 79172  1  1  0  0  0
 81 84  1  0  0  0  0
 81175  1  0  0  0  0
 81176  1  0  0  0  0
 82 34  1  0  0  0  0
 82 86  1  0  0  0  0
 82 87  1  0  0  0  0
 82177  1  1  0  0  0
 83 93  1  0  0  0  0
 83178  1  0  0  0  0
 83179  1  0  0  0  0
 84 91  1  0  0  0  0
 84180  1  0  0  0  0
 84181  1  0  0  0  0
 85 88  1  0  0  0  0
 86183  1  0  0  0  0
 86184  1  0  0  0  0
 88 39  1  0  0  0  0
 88 97  1  0  0  0  0
 88185  1  1  0  0  0
 89 90  1  0  0  0  0
 90 38  1  0  0  0  0
 90 95  1  0  0  0  0
 90186  1  1  0  0  0
 91187  1  0  0  0  0
 91188  1  0  0  0  0
 92 37  1  0  0  0  0
 92 96  1  0  0  0  0
 92 98  1  0  0  0  0
 92189  1  6  0  0  0
 94 99  1  0  0  0  0
 95100  1  0  0  0  0
 95191  1  0  0  0  0
 95192  1  0  0  0  0
 96101  1  0  0  0  0
 96194  1  0  0  0  0
 96195  1  0  0  0  0
 97196  1  0  0  0  0
 97197  1  0  0  0  0
 99 41  1  0  0  0  0
 99102  1  0  0  0  0
 99198  1  1  0  0  0
100106  1  0  0  0  0
100201  1  0  0  0  0
100202  1  0  0  0  0
101104  1  0  0  0  0
101203  1  0  0  0  0
101204  1  0  0  0  0
102110  1  0  0  0  0
102207  1  0  0  0  0
102208  1  0  0  0  0
103105  1  0  0  0  0
104109  1  0  0  0  0
104211  1  0  0  0  0
104212  1  0  0  0  0
105 42  1  0  0  0  0
105107  1  0  0  0  0
105213  1  6  0  0  0
106214  1  0  0  0  0
106215  1  0  0  0  0
107112  1  0  0  0  0
107217  1  0  0  0  0
107218  1  0  0  0  0
108111  1  0  0  0  0
109219  1  0  0  0  0
109220  1  0  0  0  0
111 44  1  0  0  0  0
111113  1  0  0  0  0
111221  1  6  0  0  0
112119  1  0  0  0  0
112223  1  0  0  0  0
112224  1  0  0  0  0
113 22  1  0  0  0  0
113118  1  0  0  0  0
113225  1  6  0  0  0
114115  1  0  0  0  0
115 46  1  0  0  0  0
115116  1  0  0  0  0
115226  1  1  0  0  0
116122  1  0  0  0  0
116123  1  0  0  0  0
116230  1  0  0  0  0
118232  1  0  0  0  0
118233  1  0  0  0  0
118234  1  0  0  0  0
120121  1  0  0  0  0
121 50  1  0  0  0  0
121124  1  0  0  0  0
121236  1  1  0  0  0
122238  1  0  0  0  0
122239  1  0  0  0  0
122240  1  0  0  0  0
123241  1  0  0  0  0
123242  1  0  0  0  0
123243  1  0  0  0  0
124127  1  0  0  0  0
124244  1  0  0  0  0
124245  1  0  0  0  0
125126  1  0  0  0  0
126 51  1  0  0  0  0
126130  1  0  0  0  0
126255  1  6  0  0  0
127131  1  0  0  0  0
127253  1  0  0  0  0
127254  1  0  0  0  0
128129  1  0  0  0  0
129 52  1  0  0  0  0
129132  1  0  0  0  0
129256  1  6  0  0  0
130257  1  0  0  0  0
130258  1  0  0  0  0
130259  1  0  0  0  0
132133  1  0  0  0  0
132262  1  0  0  0  0
132263  1  0  0  0  0
133265  1  0  0  0  0
133266  1  0  0  0  0
134135  1  0  0  0  0
135 54  1  0  0  0  0
135136  1  0  0  0  0
135269  1  1  0  0  0
136137  1  0  0  0  0
136270  1  0  0  0  0
136271  1  0  0  0  0
137138  1  0  0  0  0
137272  1  0  0  0  0
137273  1  0  0  0  0
138140  1  0  0  0  0
138276  1  0  0  0  0
138277  1  0  0  0  0
139278  1  0  0  0  0
139279  1  0  0  0  0
139280  1  0  0  0  0
140281  1  0  0  0  0
140282  1  0  0  0  0
M  END
>  <PUBCHEM_COMPOUND_CID>
25078152

>  <PUBCHEM_COMPOUND_CANONICALIZED>
1

>  <PUBCHEM_CACTVS_COMPLEXITY>
4330

>  <PUBCHEM_CACTVS_HBOND_ACCEPTOR>
35

>  <PUBCHEM_CACTVS_HBOND_DONOR>
26

>  <PUBCHEM_CACTVS_ROTATABLE_BOND>
65

>  <PUBCHEM_CACTVS_SUBSKEYS>
AAADcfB//gBAAAAAAAAAAAAAAAAAAWLFiwAAAAAAAAAAAAAAAAAAHgQQCAAADTzlwAaDCAPABggoAAGQPAAAAAEAABAAAIGIAAACUB4ggCAXQAAGNgCQAAH/GwIIAAAAAAAAAAAAAAAAAAAAAAAAAAAAAA==

>  <PUBCHEM_IUPAC_OPENEYE_NAME>
(3S)-3-[[(2S)-2-[[(2S)-6-amino-2-[[(2S)-2-[[(2S)-1-[(2S)-1-[(2S)-6-amino-2-[[(2S)-2-[[(2S)-5-amino-2-[[(2S)-2-[[(2S)-2-aminopropanoyl]amino]-3-methyl-butanoyl]amino]-5-oxo-pentanoyl]amino]-3-hydroxy-propanoyl]amino]hexanoyl]pyrrolidine-2-carbonyl]pyrrolidine-2-carbonyl]amino]-3-hydroxy-propanoyl]amino]hexanoyl]amino]-5-guanidino-pentanoyl]amino]-4-[(2S)-2-[(2S)-2-[(2S)-2-[[(2S,3R)-2-[[(2S)-5-amino-2-[[(2S)-2-[[(2S)-2,6-diaminohexanoyl]amino]-4-methylsulfanyl-butanoyl]amino]-5-oxo-pentanoyl]amino]-3-hydroxy-butanoyl]amino]-3-carboxy-propanoyl]oxycarbonylpyrrolidine-1-carbonyl]pyrrolidin-1-yl]-4-oxo-butanoic acid

>  <PUBCHEM_IUPAC_CAS_NAME>
(3S)-3-[[(2S)-2-[[(2S)-6-amino-2-[[(2S)-2-[[[(2S)-1-[[(2S)-1-[(2S)-6-amino-2-[[(2S)-2-[[(2S)-5-amino-2-[[(2S)-2-[[(2S)-2-amino-1-oxopropyl]amino]-3-methyl-1-oxobutyl]amino]-1,5-dioxopentyl]amino]-3-hydroxy-1-oxopropyl]amino]-1-oxohexyl]-2-pyrrolidinyl]-oxomethyl]-2-pyrrolidinyl]-oxomethyl]amino]-3-hydroxy-1-oxopropyl]amino]-1-oxohexyl]amino]-5-(diaminomethylideneamino)-1-oxopentyl]amino]-4-[(2S)-2-[[(2S)-2-[[(2S)-2-[[(2S,3R)-2-[[(2S)-5-amino-2-[[(2S)-2-[[(2S)-2,6-diamino-1-oxohexyl]amino]-4-(methylthio)-1-oxobutyl]amino]-1,5-dioxopentyl]amino]-3-hydroxy-1-oxobutyl]amino]-3-carboxy-1-oxopropoxy]-oxomethyl]-1-pyrrolidinyl]-oxomethyl]-1-pyrrolidinyl]-4-oxobutanoic acid

>  <PUBCHEM_IUPAC_NAME>
(3S)-3-[[(2S)-2-[[(2S)-6-amino-2-[[(2S)-2-[[(2S)-1-[(2S)-1-[(2S)-6-amino-2-[[(2S)-2-[[(2S)-5-amino-2-[[(2S)-2-[[(2S)-2-aminopropanoyl]amino]-3-methylbutanoyl]amino]-5-oxopentanoyl]amino]-3-hydroxypropanoyl]amino]hexanoyl]pyrrolidine-2-carbonyl]pyrrolidine-2-carbonyl]amino]-3-hydroxypropanoyl]amino]hexanoyl]amino]-5-(diaminomethylideneamino)pentanoyl]amino]-4-[(2S)-2-[(2S)-2-[(2S)-2-[[(2S,3R)-2-[[(2S)-5-amino-2-[[(2S)-2-[[(2S)-2,6-diaminohexanoyl]amino]-4-methylsulfanylbutanoyl]amino]-5-oxopentanoyl]amino]-3-hydroxybutanoyl]amino]-3-carboxypropanoyl]oxycarbonylpyrrolidine-1-carbonyl]pyrrolidin-1-yl]-4-oxobutanoic acid

>  <PUBCHEM_IUPAC_SYSTEMATIC_NAME>
(3S)-3-[[(2S)-2-[[(2S)-6-azanyl-2-[[(2S)-2-[[(2S)-1-[(2S)-1-[(2S)-6-azanyl-2-[[(2S)-2-[[(2S)-5-azanyl-2-[[(2S)-2-[[(2S)-2-azanylpropanoyl]amino]-3-methyl-butanoyl]amino]-5-oxidanylidene-pentanoyl]amino]-3-oxidanyl-propanoyl]amino]hexanoyl]pyrrolidin-2-yl]carbonylpyrrolidin-2-yl]carbonylamino]-3-oxidanyl-propanoyl]amino]hexanoyl]amino]-5-[bis(azanyl)methylideneamino]pentanoyl]amino]-4-[(2S)-2-[(2S)-2-[(2S)-2-[[(2S,3R)-2-[[(2S)-5-azanyl-2-[[(2S)-2-[[(2S)-2,6-bis(azanyl)hexanoyl]amino]-4-methylsulfanyl-butanoyl]amino]-5-oxidanylidene-pentanoyl]amino]-3-oxidanyl-butanoyl]amino]-4-oxidanyl-4-oxidanylidene-butanoyl]oxycarbonylpyrrolidin-1-yl]carbonylpyrrolidin-1-yl]-4-oxidanylidene-butanoic acid

>  <PUBCHEM_IUPAC_TRADITIONAL_NAME>
(3S)-3-[[(2S)-2-[[(2S)-6-amino-2-[[(2S)-2-[[(2S)-1-[(2S)-1-[(2S)-6-amino-2-[[(2S)-2-[[(2S)-5-amino-2-[[(2S)-2-[[(2S)-2-aminopropanoyl]amino]-3-methyl-butanoyl]amino]-5-keto-pentanoyl]amino]-3-hydroxy-propanoyl]amino]hexanoyl]prolyl]prolyl]amino]-3-hydroxy-propanoyl]amino]hexanoyl]amino]-5-guanidino-pentanoyl]amino]-4-[(2S)-2-[(2S)-2-[(2S)-2-[[(2S,3R)-2-[[(2S)-5-amino-2-[[(2S)-2-[[(2S)-2,6-diaminohexanoyl]amino]-4-(methylthio)butanoyl]amino]-5-keto-pentanoyl]amino]-3-hydroxy-butanoyl]amino]-3-carboxy-propanoyl]oxycarbonylpyrrolidine-1-carbonyl]pyrrolidino]-4-keto-butyric acid

>  <PUBCHEM_IUPAC_INCHI>
InChI=1S/C85H144N26O28S/c1-43(2)65(106-67(121)44(3)89)77(131)100-49(25-27-61(91)115)71(125)104-55(41-112)75(129)101-52(19-8-11-32-88)79(133)109-35-14-22-58(109)81(135)108-34-13-21-57(108)76(130)105-56(42-113)74(128)98-47(18-7-10-31-87)69(123)97-48(20-12-33-95-85(93)94)70(124)102-53(39-63(117)118)80(134)110-36-15-23-59(110)82(136)111-37-16-24-60(111)84(138)139-83(137)54(40-64(119)120)103-78(132)66(45(4)114)107-73(127)50(26-28-62(92)116)99-72(126)51(29-38-140-5)96-68(122)46(90)17-6-9-30-86/h43-60,65-66,112-114H,6-42,86-90H2,1-5H3,(H2,91,115)(H2,92,116)(H,96,122)(H,97,123)(H,98,128)(H,99,126)(H,100,131)(H,101,129)(H,102,124)(H,103,132)(H,104,125)(H,105,130)(H,106,121)(H,107,127)(H,117,118)(H,119,120)(H4,93,94,95)/t44-,45+,46-,47-,48-,49-,50-,51-,52-,53-,54-,55-,56-,57-,58-,59-,60-,65-,66-/m0/s1

>  <PUBCHEM_IUPAC_INCHIKEY>
HOWHQWFXSLOJEF-MGZLOUMQSA-N

>  <PUBCHEM_XLOGP3_AA>
-15.6

>  <PUBCHEM_EXACT_MASS>
2009.036

>  <PUBCHEM_MOLECULAR_FORMULA>
C85H144N26O28S

>  <PUBCHEM_MOLECULAR_WEIGHT>
2010.301

>  <PUBCHEM_OPENEYE_CAN_SMILES>
CC(C)C(C(=O)NC(CCC(=O)N)C(=O)NC(CO)C(=O)NC(CCCCN)C(=O)N1CCCC1C(=O)N2CCCC2C(=O)NC(CO)C(=O)NC(CCCCN)C(=O)NC(CCCN=C(N)N)C(=O)NC(CC(=O)O)C(=O)N3CCCC3C(=O)N4CCCC4C(=O)OC(=O)C(CC(=O)O)NC(=O)C(C(C)O)NC(=O)C(CCC(=O)N)NC(=O)C(CCSC)NC(=O)C(CCCCN)N)NC(=O)C(C)N

>  <PUBCHEM_OPENEYE_ISO_SMILES>
C[C@H]([C@@H](C(=O)N[C@@H](CC(=O)O)C(=O)OC(=O)[C@@H]1CCCN1C(=O)[C@@H]2CCCN2C(=O)[C@H](CC(=O)O)NC(=O)[C@H](CCCN=C(N)N)NC(=O)[C@H](CCCCN)NC(=O)[C@H](CO)NC(=O)[C@@H]3CCCN3C(=O)[C@@H]4CCCN4C(=O)[C@H](CCCCN)NC(=O)[C@H](CO)NC(=O)[C@H](CCC(=O)N)NC(=O)[C@H](C(C)C)NC(=O)[C@H](C)N)NC(=O)[C@H](CCC(=O)N)NC(=O)[C@H](CCSC)NC(=O)[C@H](CCCCN)N)O

>  <PUBCHEM_CACTVS_TPSA>
915

>  <PUBCHEM_MONOISOTOPIC_WEIGHT>
2009.036

>  <PUBCHEM_TOTAL_CHARGE>
0

>  <PUBCHEM_HEAVY_ATOM_COUNT>
140

>  <PUBCHEM_ATOM_DEF_STEREO_COUNT>
19

>  <PUBCHEM_ATOM_UDEF_STEREO_COUNT>
0

>  <PUBCHEM_BOND_DEF_STEREO_COUNT>
0

>  <PUBCHEM_BOND_UDEF_STEREO_COUNT>
0

>  <PUBCHEM_ISOTOPIC_ATOM_COUNT>
0

>  <PUBCHEM_COMPONENT_COUNT>
1

>  <PUBCHEM_CACTVS_TAUTO_COUNT>
1001

>  <PUBCHEM_COORDINATE_TYPE>
1
5
255

>  <PUBCHEM_BONDANNOTATIONS>
113  22  5
82  34  6
76  35  5
79  36  6
92  37  5
90  38  6
88  39  6
99  41  6
105  42  5
111  44  5
115  46  6
121  50  6
126  51  5
129  52  5
135  54  6
56  63  5
58  75  5
65  71  6
67  80  5

$$$$
