25079950
 OpenBabel06101807152D

 73 77  0  0  1  0  0  0  0  0999 V2000
    4.2690   -1.7857    0.0000 O   0  0  0  0  0  0  0  0  0  0  0  0
    6.0010    0.2143    0.0000 O   0  0  0  0  0  0  0  0  0  0  0  0
    5.1350   -3.2857    0.0000 O   0  0  0  0  0  0  0  0  0  0  0  0
    6.0010   -2.7857    0.0000 O   0  0  0  0  0  0  0  0  0  0  0  0
    7.7331    0.2143    0.0000 O   0  0  0  0  0  0  0  0  0  0  0  0
    7.7331   -1.7857    0.0000 O   0  0  0  0  0  0  0  0  0  0  0  0
    2.5369   -2.7857    0.0000 O   0  0  0  0  0  0  0  0  0  0  0  0
    2.5369   -4.7857    0.0000 O   0  0  0  0  0  0  0  0  0  0  0  0
    4.2690    1.2143    0.0000 O   0  0  0  0  0  0  0  0  0  0  0  0
    4.2690   -5.7857    0.0000 O   0  0  0  0  0  0  0  0  0  0  0  0
    8.5991    2.7143    0.0000 O   0  0  0  0  0  0  0  0  0  0  0  0
    6.0010    1.2143    0.0000 O   0  0  0  0  0  0  0  0  0  0  0  0
    5.0969    2.7112    0.0000 O   0  0  0  0  0  0  0  0  0  0  0  0
    6.8550    5.7836    0.0000 O   0  0  0  0  0  0  0  0  0  0  0  0
   12.0632    1.7143    0.0000 O   0  0  0  0  0  0  0  0  0  0  0  0
   12.0632   -0.2857    0.0000 O   0  0  0  0  0  0  0  0  0  0  0  0
    5.1350   -1.2857    0.0000 C   0  0  1  0  0  0  0  0  0  0  0  0
    6.0010   -1.7857    0.0000 C   0  0  1  0  0  0  0  0  0  0  0  0
    5.1350   -0.2857    0.0000 C   0  0  1  0  0  0  0  0  0  0  0  0
    6.8671   -1.2857    0.0000 C   0  0  2  0  0  0  0  0  0  0  0  0
    6.8671   -0.2857    0.0000 C   0  0  1  0  0  0  0  0  0  0  0  0
    4.2690   -2.7857    0.0000 C   0  0  3  0  0  0  0  0  0  0  0  0
    3.4030   -3.2857    0.0000 C   0  0  1  0  0  0  0  0  0  0  0  0
    3.4030   -4.2857    0.0000 C   0  0  2  0  0  0  0  0  0  0  0  0
    4.2690    0.2143    0.0000 C   0  0  0  0  0  0  0  0  0  0  0  0
    4.2690   -4.7857    0.0000 C   0  0  2  0  0  0  0  0  0  0  0  0
    5.1350   -4.2857    0.0000 C   0  0  0  0  0  0  0  0  0  0  0  0
    7.7331    1.2143    0.0000 C   0  0  0  0  0  0  0  0  0  0  0  0
    8.5991    1.7143    0.0000 C   0  0  0  0  0  0  0  0  0  0  0  0
    6.8671    1.7143    0.0000 C   0  0  0  0  0  0  0  0  0  0  0  0
    6.8671    2.7143    0.0000 C   0  0  0  0  0  0  0  0  0  0  0  0
    9.4651    1.2143    0.0000 C   0  0  0  0  0  0  0  0  0  0  0  0
    7.7331    3.2143    0.0000 C   0  0  0  0  0  0  0  0  0  0  0  0
    5.9571    3.2212    0.0000 C   0  0  0  0  0  0  0  0  0  0  0  0
    7.7492    4.2558    0.0000 C   0  0  0  0  0  0  0  0  0  0  0  0
   10.3312    1.7143    0.0000 C   0  0  0  0  0  0  0  0  0  0  0  0
    9.4651    0.2143    0.0000 C   0  0  0  0  0  0  0  0  0  0  0  0
    5.9490    4.2628    0.0000 C   0  0  0  0  0  0  0  0  0  0  0  0
    6.8511    4.7836    0.0000 C   0  0  0  0  0  0  0  0  0  0  0  0
   11.1972    1.2143    0.0000 C   0  0  0  0  0  0  0  0  0  0  0  0
   10.3312   -0.2857    0.0000 C   0  0  0  0  0  0  0  0  0  0  0  0
   11.1972    0.2143    0.0000 C   0  0  0  0  0  0  0  0  0  0  0  0
   12.0632    2.7143    0.0000 C   0  0  0  0  0  0  0  0  0  0  0  0
    5.1350   -1.9057    0.0000 H   0  0  0  0  0  0  0  0  0  0  0  0
    6.5380   -2.0957    0.0000 H   0  0  0  0  0  0  0  0  0  0  0  0
    5.1350    0.3343    0.0000 H   0  0  0  0  0  0  0  0  0  0  0  0
    7.4040   -0.9757    0.0000 H   0  0  0  0  0  0  0  0  0  0  0  0
    6.8671    0.3343    0.0000 H   0  0  0  0  0  0  0  0  0  0  0  0
    3.7320   -2.4757    0.0000 H   0  0  0  0  0  0  0  0  0  0  0  0
    3.9650   -2.6657    0.0000 H   0  0  0  0  0  0  0  0  0  0  0  0
    2.8660   -3.9757    0.0000 H   0  0  0  0  0  0  0  0  0  0  0  0
    3.6584    0.3220    0.0000 H   0  0  0  0  0  0  0  0  0  0  0  0
    4.0569   -0.3683    0.0000 H   0  0  0  0  0  0  0  0  0  0  0  0
    4.8059   -5.0957    0.0000 H   0  0  0  0  0  0  0  0  0  0  0  0
    5.3471   -4.8683    0.0000 H   0  0  0  0  0  0  0  0  0  0  0  0
    5.7456   -4.1780    0.0000 H   0  0  0  0  0  0  0  0  0  0  0  0
    6.5380   -3.0957    0.0000 H   0  0  0  0  0  0  0  0  0  0  0  0
    8.2700   -1.4757    0.0000 H   0  0  0  0  0  0  0  0  0  0  0  0
    2.0000   -3.0957    0.0000 H   0  0  0  0  0  0  0  0  0  0  0  0
    2.5369   -5.4057    0.0000 H   0  0  0  0  0  0  0  0  0  0  0  0
    4.8059   -6.0957    0.0000 H   0  0  0  0  0  0  0  0  0  0  0  0
    3.7320    1.5243    0.0000 H   0  0  0  0  0  0  0  0  0  0  0  0
    8.2896    4.5596    0.0000 H   0  0  0  0  0  0  0  0  0  0  0  0
   10.3312    2.3343    0.0000 H   0  0  0  0  0  0  0  0  0  0  0  0
    8.9282   -0.0957    0.0000 H   0  0  0  0  0  0  0  0  0  0  0  0
    5.4109    4.5707    0.0000 H   0  0  0  0  0  0  0  0  0  0  0  0
   10.3312   -0.9057    0.0000 H   0  0  0  0  0  0  0  0  0  0  0  0
    4.5564    3.0150    0.0000 H   0  0  0  0  0  0  0  0  0  0  0  0
    6.3192    6.0957    0.0000 H   0  0  0  0  0  0  0  0  0  0  0  0
   12.6002    0.0243    0.0000 H   0  0  0  0  0  0  0  0  0  0  0  0
   12.6832    2.7143    0.0000 H   0  0  0  0  0  0  0  0  0  0  0  0
   12.0632    3.3343    0.0000 H   0  0  0  0  0  0  0  0  0  0  0  0
   11.4432    2.7143    0.0000 H   0  0  0  0  0  0  0  0  0  0  0  0
  1 22  1  0  0  0  0
  2 19  1  0  0  0  0
  2 21  1  0  0  0  0
  3 22  1  0  0  0  0
  3 27  1  0  0  0  0
  4 57  1  0  0  0  0
  5 28  1  0  0  0  0
  6 58  1  0  0  0  0
  7 59  1  0  0  0  0
  8 60  1  0  0  0  0
  9 25  1  0  0  0  0
  9 62  1  0  0  0  0
 10 61  1  0  0  0  0
 11 29  1  0  0  0  0
 11 33  1  0  0  0  0
 12 30  2  0  0  0  0
 13 34  1  0  0  0  0
 13 68  1  0  0  0  0
 14 39  1  0  0  0  0
 14 69  1  0  0  0  0
 15 40  1  0  0  0  0
 15 43  1  0  0  0  0
 16 42  1  0  0  0  0
 16 70  1  0  0  0  0
 17  1  1  0  0  0  0
 17 18  1  6  0  0  0
 17 44  1  0  0  0  0
 18  4  1  0  0  0  0
 18 20  1  1  0  0  0
 18 45  1  0  0  0  0
 19 17  1  6  0  0  0
 19 25  1  0  0  0  0
 19 46  1  0  0  0  0
 20  6  1  0  0  0  0
 20 21  1  6  0  0  0
 20 47  1  0  0  0  0
 21  5  1  0  0  0  0
 21 48  1  6  0  0  0
 22 49  1  0  0  0  0
 23  7  1  0  0  0  0
 23 22  1  1  0  0  0
 23 50  1  0  0  0  0
 24  8  1  0  0  0  0
 24 23  1  6  0  0  0
 24 51  1  0  0  0  0
 25 52  1  0  0  0  0
 25 53  1  0  0  0  0
 26 10  1  0  0  0  0
 26 24  1  1  0  0  0
 26 27  1  0  0  0  0
 26 54  1  0  0  0  0
 27 55  1  0  0  0  0
 27 56  1  0  0  0  0
 28 29  2  0  0  0  0
 28 30  1  0  0  0  0
 29 32  1  0  0  0  0
 30 31  1  0  0  0  0
 31 33  1  0  0  0  0
 31 34  2  0  0  0  0
 32 36  2  0  0  0  0
 32 37  1  0  0  0  0
 33 35  2  0  0  0  0
 34 38  1  0  0  0  0
 35 39  1  0  0  0  0
 35 63  1  0  0  0  0
 36 40  1  0  0  0  0
 36 64  1  0  0  0  0
 37 41  2  0  0  0  0
 37 65  1  0  0  0  0
 38 39  2  0  0  0  0
 38 66  1  0  0  0  0
 40 42  2  0  0  0  0
 41 42  1  0  0  0  0
 41 67  1  0  0  0  0
 43 71  1  0  0  0  0
 43 72  1  0  0  0  0
 43 73  1  0  0  0  0
M  END
>  <PUBCHEM_COMPOUND_CID>
25079950

>  <PUBCHEM_COMPOUND_CANONICALIZED>
1

>  <PUBCHEM_CACTVS_COMPLEXITY>
1010

>  <PUBCHEM_CACTVS_HBOND_ACCEPTOR>
16

>  <PUBCHEM_CACTVS_HBOND_DONOR>
9

>  <PUBCHEM_CACTVS_ROTATABLE_BOND>
7

>  <PUBCHEM_CACTVS_SUBSKEYS>
AAADceB4PgAAAAAAAAAAAAAAAAAAAAAAAAA0aIECAAAAAACBQAAAGgAACAAADBSwmAMyDoAABgCIAqBSAAICCAAkIAAIiAFGiMgdNzaGNR6ieWOl4BUPuQfI7LzOIAABCAAIQABAAAIQABCAAAAAAAAAAA==

>  <PUBCHEM_IUPAC_OPENEYE_NAME>
3-[(2S,3R,4R,5S,6R)-3,4-dihydroxy-6-(hydroxymethyl)-5-[(3R,4S,5S)-3,4,5-trihydroxytetrahydropyran-2-yl]oxy-tetrahydropyran-2-yl]oxy-5,7-dihydroxy-2-(4-hydroxy-3-methoxy-phenyl)chromen-4-one

>  <PUBCHEM_IUPAC_CAS_NAME>
3-[[(2S,3R,4R,5S,6R)-3,4-dihydroxy-6-(hydroxymethyl)-5-[[(3R,4S,5S)-3,4,5-trihydroxy-2-oxanyl]oxy]-2-oxanyl]oxy]-5,7-dihydroxy-2-(4-hydroxy-3-methoxyphenyl)-1-benzopyran-4-one

>  <PUBCHEM_IUPAC_NAME>
3-[(2S,3R,4R,5S,6R)-3,4-dihydroxy-6-(hydroxymethyl)-5-[(3R,4S,5S)-3,4,5-trihydroxyoxan-2-yl]oxyoxan-2-yl]oxy-5,7-dihydroxy-2-(4-hydroxy-3-methoxyphenyl)chromen-4-one

>  <PUBCHEM_IUPAC_SYSTEMATIC_NAME>
3-[(2S,3R,4R,5S,6R)-6-(hydroxymethyl)-3,4-bis(oxidanyl)-5-[(3R,4S,5S)-3,4,5-tris(oxidanyl)oxan-2-yl]oxy-oxan-2-yl]oxy-2-(3-methoxy-4-oxidanyl-phenyl)-5,7-bis(oxidanyl)chromen-4-one

>  <PUBCHEM_IUPAC_TRADITIONAL_NAME>
3-[(2S,3R,4R,5S,6R)-3,4-dihydroxy-6-methylol-5-[(3R,4S,5S)-3,4,5-trihydroxytetrahydropyran-2-yl]oxy-tetrahydropyran-2-yl]oxy-5,7-dihydroxy-2-(4-hydroxy-3-methoxy-phenyl)chromone

>  <PUBCHEM_IUPAC_INCHI>
InChI=1S/C27H30O16/c1-38-14-4-9(2-3-11(14)30)23-25(19(34)17-12(31)5-10(29)6-15(17)40-23)43-27-22(37)20(35)24(16(7-28)41-27)42-26-21(36)18(33)13(32)8-39-26/h2-6,13,16,18,20-22,24,26-33,35-37H,7-8H2,1H3/t13-,16+,18-,20+,21+,22+,24+,26?,27-/m0/s1

>  <PUBCHEM_IUPAC_INCHIKEY>
ZQJYNVLDGVALIX-QVHNXEAWSA-N

>  <PUBCHEM_XLOGP3_AA>
-1.4

>  <PUBCHEM_EXACT_MASS>
610.153

>  <PUBCHEM_MOLECULAR_FORMULA>
C27H30O16

>  <PUBCHEM_MOLECULAR_WEIGHT>
610.521

>  <PUBCHEM_OPENEYE_CAN_SMILES>
COC1=C(C=CC(=C1)C2=C(C(=O)C3=C(C=C(C=C3O2)O)O)OC4C(C(C(C(O4)CO)OC5C(C(C(CO5)O)O)O)O)O)O

>  <PUBCHEM_OPENEYE_ISO_SMILES>
COC1=C(C=CC(=C1)C2=C(C(=O)C3=C(C=C(C=C3O2)O)O)O[C@H]4[C@@H]([C@H]([C@@H]([C@H](O4)CO)OC5[C@@H]([C@H]([C@H](CO5)O)O)O)O)O)O

>  <PUBCHEM_CACTVS_TPSA>
255

>  <PUBCHEM_MONOISOTOPIC_WEIGHT>
610.153

>  <PUBCHEM_TOTAL_CHARGE>
0

>  <PUBCHEM_HEAVY_ATOM_COUNT>
43

>  <PUBCHEM_ATOM_DEF_STEREO_COUNT>
8

>  <PUBCHEM_ATOM_UDEF_STEREO_COUNT>
1

>  <PUBCHEM_BOND_DEF_STEREO_COUNT>
0

>  <PUBCHEM_BOND_UDEF_STEREO_COUNT>
0

>  <PUBCHEM_ISOTOPIC_ATOM_COUNT>
0

>  <PUBCHEM_COMPONENT_COUNT>
1

>  <PUBCHEM_CACTVS_TAUTO_COUNT>
69

>  <PUBCHEM_COORDINATE_TYPE>
1
5
255

>  <PUBCHEM_BONDANNOTATIONS>
17  1  6
22  1  3
26  10  6
11  29  8
11  33  8
19  25  5
28  29  8
28  30  8
30  31  8
31  33  8
31  34  8
32  36  8
32  37  8
33  35  8
34  38  8
35  39  8
36  40  8
37  41  8
38  39  8
18  4  5
40  42  8
41  42  8
21  5  5
20  6  6
23  7  5
24  8  6

$$$$
