25147451
 OpenBabel06101807152D

 87 90  0  0  1  0  0  0  0  0999 V2000
    7.7331   -0.5000    0.0000 O   0  0  0  0  0  0  0  0  0  0  0  0
    6.0010   -0.5000    0.0000 O   0  0  0  0  0  0  0  0  0  0  0  0
    8.5991    2.0000    0.0000 O   0  0  0  0  0  0  0  0  0  0  0  0
    4.2690   -2.5000    0.0000 O   0  0  0  0  0  0  0  0  0  0  0  0
    7.7331    3.5000    0.0000 O   0  0  0  0  0  0  0  0  0  0  0  0
    5.1350   -4.0000    0.0000 O   0  0  0  0  0  0  0  0  0  0  0  0
    6.0010    0.5000    0.0000 O   0  0  0  0  0  0  0  0  0  0  0  0
   10.3312    4.0000    0.0000 O   0  0  0  0  0  0  0  0  0  0  0  0
    6.0010   -3.5000    0.0000 O   0  0  0  0  0  0  0  0  0  0  0  0
    7.7331   -2.5000    0.0000 O   0  0  0  0  0  0  0  0  0  0  0  0
    6.0010    2.5000    0.0000 O   0  0  0  0  0  0  0  0  0  0  0  0
    7.7331    5.5000    0.0000 O   0  0  0  0  0  0  0  0  0  0  0  0
    2.5369   -3.5000    0.0000 O   0  0  0  0  0  0  0  0  0  0  0  0
    2.5369   -5.5000    0.0000 O   0  0  0  0  0  0  0  0  0  0  0  0
    9.4651    6.5000    0.0000 O   0  0  0  0  0  0  0  0  0  0  0  0
    4.2690   -6.5000    0.0000 O   0  0  0  0  0  0  0  0  0  0  0  0
   10.3312    1.0000    0.0000 O   0  0  0  0  0  0  0  0  0  0  0  0
    4.2690    0.5000    0.0000 O   0  0  0  0  0  0  0  0  0  0  0  0
   11.1972    5.5000    0.0000 O   0  0  0  0  0  0  0  0  0  0  0  0
   10.3312    2.0000    0.0000 O   0  0  0  0  0  0  0  0  0  0  0  0
    6.8671   -5.0000    0.0000 O   0  0  0  0  0  0  0  0  0  0  0  0
    7.7331    0.5000    0.0000 C   0  0  1  0  0  0  0  0  0  0  0  0
    5.1350   -2.0000    0.0000 C   0  0  1  0  0  0  0  0  0  0  0  0
    6.8671    1.0000    0.0000 C   0  0  1  0  0  0  0  0  0  0  0  0
    6.0010   -2.5000    0.0000 C   0  0  1  0  0  0  0  0  0  0  0  0
    6.8671   -1.0000    0.0000 C   0  0  2  0  0  0  0  0  0  0  0  0
    8.5991    1.0000    0.0000 C   0  0  1  0  0  0  0  0  0  0  0  0
    6.8671   -2.0000    0.0000 C   0  0  2  0  0  0  0  0  0  0  0  0
    6.8671    2.0000    0.0000 C   0  0  1  0  0  0  0  0  0  0  0  0
    5.1350   -1.0000    0.0000 C   0  0  1  0  0  0  0  0  0  0  0  0
    7.7331    2.5000    0.0000 C   0  0  1  0  0  0  0  0  0  0  0  0
    8.5991    4.0000    0.0000 C   0  0  2  0  0  0  0  0  0  0  0  0
    4.2690   -3.5000    0.0000 C   0  0  2  0  0  0  0  0  0  0  0  0
    8.5991    5.0000    0.0000 C   0  0  1  0  0  0  0  0  0  0  0  0
    9.4651    3.5000    0.0000 C   0  0  1  0  0  0  0  0  0  0  0  0
    3.4030   -4.0000    0.0000 C   0  0  2  0  0  0  0  0  0  0  0  0
    3.4030   -5.0000    0.0000 C   0  0  2  0  0  0  0  0  0  0  0  0
    9.4651    5.5000    0.0000 C   0  0  1  0  0  0  0  0  0  0  0  0
    9.4651    0.5000    0.0000 C   0  0  0  0  0  0  0  0  0  0  0  0
    4.2690   -5.5000    0.0000 C   0  0  1  0  0  0  0  0  0  0  0  0
    5.1350   -5.0000    0.0000 C   0  0  1  0  0  0  0  0  0  0  0  0
    4.2690   -0.5000    0.0000 C   0  0  0  0  0  0  0  0  0  0  0  0
   10.3312    5.0000    0.0000 C   0  0  1  0  0  0  0  0  0  0  0  0
    9.4651    2.5000    0.0000 C   0  0  0  0  0  0  0  0  0  0  0  0
    6.0010   -5.5000    0.0000 C   0  0  0  0  0  0  0  0  0  0  0  0
    7.1962    0.1900    0.0000 H   0  0  0  0  0  0  0  0  0  0  0  0
    5.1350   -2.6200    0.0000 H   0  0  0  0  0  0  0  0  0  0  0  0
    6.3301    1.3100    0.0000 H   0  0  0  0  0  0  0  0  0  0  0  0
    6.5380   -2.8100    0.0000 H   0  0  0  0  0  0  0  0  0  0  0  0
    7.4040   -1.3100    0.0000 H   0  0  0  0  0  0  0  0  0  0  0  0
    9.1360    1.3100    0.0000 H   0  0  0  0  0  0  0  0  0  0  0  0
    6.8671   -2.6200    0.0000 H   0  0  0  0  0  0  0  0  0  0  0  0
    6.8671    2.6200    0.0000 H   0  0  0  0  0  0  0  0  0  0  0  0
    5.1350   -0.3800    0.0000 H   0  0  0  0  0  0  0  0  0  0  0  0
    8.2700    2.8100    0.0000 H   0  0  0  0  0  0  0  0  0  0  0  0
    8.5991    3.3800    0.0000 H   0  0  0  0  0  0  0  0  0  0  0  0
    3.7320   -3.1900    0.0000 H   0  0  0  0  0  0  0  0  0  0  0  0
    8.5991    5.6200    0.0000 H   0  0  0  0  0  0  0  0  0  0  0  0
   10.0021    3.1900    0.0000 H   0  0  0  0  0  0  0  0  0  0  0  0
    3.9650   -3.3800    0.0000 H   0  0  0  0  0  0  0  0  0  0  0  0
    3.4030   -5.6200    0.0000 H   0  0  0  0  0  0  0  0  0  0  0  0
   10.0021    5.8100    0.0000 H   0  0  0  0  0  0  0  0  0  0  0  0
    4.8059   -5.8100    0.0000 H   0  0  0  0  0  0  0  0  0  0  0  0
    9.0666    0.0251    0.0000 H   0  0  0  0  0  0  0  0  0  0  0  0
    9.8637    0.0251    0.0000 H   0  0  0  0  0  0  0  0  0  0  0  0
    5.6720   -4.6900    0.0000 H   0  0  0  0  0  0  0  0  0  0  0  0
    3.6584   -0.3923    0.0000 H   0  0  0  0  0  0  0  0  0  0  0  0
    4.0569   -1.0826    0.0000 H   0  0  0  0  0  0  0  0  0  0  0  0
   10.8681    4.6900    0.0000 H   0  0  0  0  0  0  0  0  0  0  0  0
    5.4641    0.8100    0.0000 H   0  0  0  0  0  0  0  0  0  0  0  0
    6.5380   -3.8100    0.0000 H   0  0  0  0  0  0  0  0  0  0  0  0
    8.8546    2.6077    0.0000 H   0  0  0  0  0  0  0  0  0  0  0  0
    9.2531    1.9174    0.0000 H   0  0  0  0  0  0  0  0  0  0  0  0
    8.2700   -2.1900    0.0000 H   0  0  0  0  0  0  0  0  0  0  0  0
    6.0010    3.1200    0.0000 H   0  0  0  0  0  0  0  0  0  0  0  0
    5.6025   -5.9750    0.0000 H   0  0  0  0  0  0  0  0  0  0  0  0
    6.3996   -5.9750    0.0000 H   0  0  0  0  0  0  0  0  0  0  0  0
    7.7331    6.1200    0.0000 H   0  0  0  0  0  0  0  0  0  0  0  0
    2.0000   -3.8100    0.0000 H   0  0  0  0  0  0  0  0  0  0  0  0
    2.5369   -6.1200    0.0000 H   0  0  0  0  0  0  0  0  0  0  0  0
   10.0021    6.8100    0.0000 H   0  0  0  0  0  0  0  0  0  0  0  0
    4.8059   -6.8100    0.0000 H   0  0  0  0  0  0  0  0  0  0  0  0
   10.8681    0.6900    0.0000 H   0  0  0  0  0  0  0  0  0  0  0  0
    3.7320    0.8100    0.0000 H   0  0  0  0  0  0  0  0  0  0  0  0
   11.7341    5.1900    0.0000 H   0  0  0  0  0  0  0  0  0  0  0  0
   10.8681    2.3100    0.0000 H   0  0  0  0  0  0  0  0  0  0  0  0
    7.4040   -5.3100    0.0000 H   0  0  0  0  0  0  0  0  0  0  0  0
  2 26  1  0  0  0  0
  2 30  1  0  0  0  0
  3 27  1  0  0  0  0
  3 31  1  0  0  0  0
  6 33  1  0  0  0  0
  6 41  1  0  0  0  0
  7 70  1  0  0  0  0
  8 35  1  0  0  0  0
  8 43  1  0  0  0  0
  9 71  1  0  0  0  0
 10 74  1  0  0  0  0
 11 75  1  0  0  0  0
 12 78  1  0  0  0  0
 13 79  1  0  0  0  0
 14 80  1  0  0  0  0
 15 81  1  0  0  0  0
 16 82  1  0  0  0  0
 17 39  1  0  0  0  0
 17 83  1  0  0  0  0
 18 42  1  0  0  0  0
 18 84  1  0  0  0  0
 19 85  1  0  0  0  0
 20 44  1  0  0  0  0
 20 86  1  0  0  0  0
 21 45  1  0  0  0  0
 21 87  1  0  0  0  0
 22  1  1  0  0  0  0
 22 24  1  1  0  0  0
 22 46  1  0  0  0  0
 23  4  1  0  0  0  0
 23 25  1  6  0  0  0
 23 47  1  0  0  0  0
 24  7  1  0  0  0  0
 24 29  1  6  0  0  0
 24 48  1  0  0  0  0
 25  9  1  0  0  0  0
 25 28  1  1  0  0  0
 25 49  1  0  0  0  0
 26  1  1  0  0  0  0
 26 28  1  1  0  0  0
 26 50  1  0  0  0  0
 27 22  1  1  0  0  0
 27 39  1  0  0  0  0
 27 51  1  0  0  0  0
 28 10  1  0  0  0  0
 28 52  1  1  0  0  0
 29 11  1  0  0  0  0
 29 31  1  6  0  0  0
 29 53  1  0  0  0  0
 30 23  1  6  0  0  0
 30 42  1  0  0  0  0
 30 54  1  0  0  0  0
 31  5  1  0  0  0  0
 31 55  1  1  0  0  0
 32  5  1  0  0  0  0
 32 34  1  1  0  0  0
 32 56  1  0  0  0  0
 33  4  1  0  0  0  0
 33 36  1  6  0  0  0
 33 57  1  0  0  0  0
 34 12  1  0  0  0  0
 34 38  1  6  0  0  0
 34 58  1  0  0  0  0
 35 32  1  1  0  0  0
 35 44  1  0  0  0  0
 35 59  1  0  0  0  0
 36 13  1  0  0  0  0
 36 37  1  1  0  0  0
 36 60  1  0  0  0  0
 37 14  1  0  0  0  0
 37 40  1  6  0  0  0
 37 61  1  0  0  0  0
 38 15  1  0  0  0  0
 38 43  1  6  0  0  0
 38 62  1  0  0  0  0
 39 64  1  0  0  0  0
 39 65  1  0  0  0  0
 40 16  1  0  0  0  0
 40 41  1  1  0  0  0
 40 63  1  0  0  0  0
 41 45  1  0  0  0  0
 41 66  1  1  0  0  0
 42 67  1  0  0  0  0
 42 68  1  0  0  0  0
 43 19  1  0  0  0  0
 43 69  1  1  0  0  0
 44 72  1  0  0  0  0
 44 73  1  0  0  0  0
 45 76  1  0  0  0  0
 45 77  1  0  0  0  0
M  END
>  <PUBCHEM_COMPOUND_CID>
25147451

>  <PUBCHEM_COMPOUND_CANONICALIZED>
1

>  <PUBCHEM_CACTVS_COMPLEXITY>
918

>  <PUBCHEM_CACTVS_HBOND_ACCEPTOR>
21

>  <PUBCHEM_CACTVS_HBOND_DONOR>
14

>  <PUBCHEM_CACTVS_ROTATABLE_BOND>
10

>  <PUBCHEM_CACTVS_SUBSKEYS>
AAADcfB4PgAAAAAAAAAAAAAAAAAAAAAAAAAkSJEgAAAAAAAAAAAAGgAACAAACBSwgAMACAAABgAAAAAAAAAAAAAAAAAAAAAAAAAREAIAAAAiQAAFAAAHAAHAYAwAAAAAAAAAAAAAAAAAAAAAAAAAAAAAAA==

>  <PUBCHEM_IUPAC_OPENEYE_NAME>
(2S,3S,4S,5S,6R)-2-[(2R,3S,4R,5R,6S)-6-[(2R,3S,4R,5S,6S)-4,5-dihydroxy-2-(hydroxymethyl)-6-[(2R,3R,4R,5S,6R)-4,5,6-trihydroxy-2-(hydroxymethyl)tetrahydropyran-3-yl]oxy-tetrahydropyran-3-yl]oxy-4,5-dihydroxy-2-(hydroxymethyl)tetrahydropyran-3-yl]oxy-6-(hydroxymethyl)tetrahydropyran-3,4,5-triol

>  <PUBCHEM_IUPAC_CAS_NAME>
(2S,3S,4S,5S,6R)-2-[[(2R,3S,4R,5R,6S)-6-[[(2R,3S,4R,5S,6S)-4,5-dihydroxy-2-(hydroxymethyl)-6-[[(2R,3R,4R,5S,6R)-4,5,6-trihydroxy-2-(hydroxymethyl)-3-oxanyl]oxy]-3-oxanyl]oxy]-4,5-dihydroxy-2-(hydroxymethyl)-3-oxanyl]oxy]-6-(hydroxymethyl)oxane-3,4,5-triol

>  <PUBCHEM_IUPAC_NAME>
(2S,3S,4S,5S,6R)-2-[(2R,3S,4R,5R,6S)-6-[(2R,3S,4R,5S,6S)-4,5-dihydroxy-2-(hydroxymethyl)-6-[(2R,3R,4R,5S,6R)-4,5,6-trihydroxy-2-(hydroxymethyl)oxan-3-yl]oxyoxan-3-yl]oxy-4,5-dihydroxy-2-(hydroxymethyl)oxan-3-yl]oxy-6-(hydroxymethyl)oxane-3,4,5-triol

>  <PUBCHEM_IUPAC_SYSTEMATIC_NAME>
(2R,3S,4S,5S,6S)-2-(hydroxymethyl)-6-[(2R,3S,4R,5R,6S)-2-(hydroxymethyl)-6-[(2R,3S,4R,5S,6S)-2-(hydroxymethyl)-6-[(2R,3R,4R,5S,6R)-2-(hydroxymethyl)-4,5,6-tris(oxidanyl)oxan-3-yl]oxy-4,5-bis(oxidanyl)oxan-3-yl]oxy-4,5-bis(oxidanyl)oxan-3-yl]oxy-oxane-3,4,5-triol

>  <PUBCHEM_IUPAC_TRADITIONAL_NAME>
(2S,3S,4S,5S,6R)-2-[(2R,3S,4R,5R,6S)-6-[(2R,3S,4R,5S,6S)-4,5-dihydroxy-2-methylol-6-[(2R,3R,4R,5S,6R)-4,5,6-trihydroxy-2-methylol-tetrahydropyran-3-yl]oxy-tetrahydropyran-3-yl]oxy-4,5-dihydroxy-2-methylol-tetrahydropyran-3-yl]oxy-6-methylol-tetrahydropyran-3,4,5-triol

>  <PUBCHEM_IUPAC_INCHI>
InChI=1S/C24H42O21/c25-1-5-9(29)10(30)15(35)22(40-5)44-19-7(3-27)42-24(17(37)12(19)32)45-20-8(4-28)41-23(16(36)13(20)33)43-18-6(2-26)39-21(38)14(34)11(18)31/h5-38H,1-4H2/t5-,6-,7-,8-,9-,10+,11-,12-,13-,14+,15+,16+,17-,18+,19-,20-,21-,22+,23+,24+/m1/s1

>  <PUBCHEM_IUPAC_INCHIKEY>
LUEWUZLMQUOBSB-GFVSVBBRSA-N

>  <PUBCHEM_XLOGP3_AA>
-9

>  <PUBCHEM_EXACT_MASS>
666.222

>  <PUBCHEM_MOLECULAR_FORMULA>
C24H42O21

>  <PUBCHEM_MOLECULAR_WEIGHT>
666.579

>  <PUBCHEM_OPENEYE_CAN_SMILES>
C(C1C(C(C(C(O1)OC2C(OC(C(C2O)O)OC3C(OC(C(C3O)O)OC4C(OC(C(C4O)O)O)CO)CO)CO)O)O)O)O

>  <PUBCHEM_OPENEYE_ISO_SMILES>
C([C@@H]1[C@H]([C@@H]([C@@H]([C@@H](O1)O[C@@H]2[C@H](O[C@H]([C@@H]([C@H]2O)O)O[C@@H]3[C@H](O[C@H]([C@H]([C@H]3O)O)O[C@H]4[C@H](O[C@H]([C@H]([C@H]4O)O)O)CO)CO)CO)O)O)O)O

>  <PUBCHEM_CACTVS_TPSA>
348

>  <PUBCHEM_MONOISOTOPIC_WEIGHT>
666.222

>  <PUBCHEM_TOTAL_CHARGE>
0

>  <PUBCHEM_HEAVY_ATOM_COUNT>
45

>  <PUBCHEM_ATOM_DEF_STEREO_COUNT>
20

>  <PUBCHEM_ATOM_UDEF_STEREO_COUNT>
0

>  <PUBCHEM_BOND_DEF_STEREO_COUNT>
0

>  <PUBCHEM_BOND_UDEF_STEREO_COUNT>
0

>  <PUBCHEM_ISOTOPIC_ATOM_COUNT>
0

>  <PUBCHEM_COMPONENT_COUNT>
1

>  <PUBCHEM_CACTVS_TAUTO_COUNT>
1

>  <PUBCHEM_COORDINATE_TYPE>
1
5
255

>  <PUBCHEM_BONDANNOTATIONS>
22  1  5
26  1  5
28  10  6
29  11  6
34  12  6
36  13  6
37  14  6
38  15  6
40  16  5
43  19  6
27  39  6
30  42  5
35  44  6
23  4  6
33  4  6
41  45  6
31  5  6
32  5  6
24  7  6
25  9  5

$$$$
