25195169
 OpenBabel06101807152D

 31 30  0  0  0  0  0  0  0  0999 V2000
    7.1962   -1.2500    0.0000 O   0  0  0  0  0  0  0  0  0  0  0  0
    2.8660    1.2500    0.0000 O   0  0  0  0  0  0  0  0  0  0  0  0
    8.0622    0.2500    0.0000 N   0  0  0  0  0  0  0  0  0  0  0  0
    9.7942    0.2500    0.0000 C   0  0  0  0  0  0  0  0  0  0  0  0
    8.9282   -0.2500    0.0000 C   0  0  0  0  0  0  0  0  0  0  0  0
   10.6603   -0.2500    0.0000 C   0  0  0  0  0  0  0  0  0  0  0  0
    9.7942    1.2500    0.0000 C   0  0  0  0  0  0  0  0  0  0  0  0
    7.1962   -0.2500    0.0000 C   0  0  0  0  0  0  0  0  0  0  0  0
    6.3301    0.2500    0.0000 C   0  0  0  0  0  0  0  0  0  0  0  0
    5.4641   -0.2500    0.0000 C   0  0  0  0  0  0  0  0  0  0  0  0
    4.5981    0.2500    0.0000 C   0  0  0  0  0  0  0  0  0  0  0  0
    3.7320   -0.2500    0.0000 C   0  0  0  0  0  0  0  0  0  0  0  0
    2.8660    0.2500    0.0000 C   0  0  0  0  0  0  0  0  0  0  0  0
    2.0000   -0.2500    0.0000 C   0  0  0  0  0  0  0  0  0  0  0  0
    9.2573    0.5600    0.0000 H   0  0  0  0  0  0  0  0  0  0  0  0
    8.5297   -0.7249    0.0000 H   0  0  0  0  0  0  0  0  0  0  0  0
    9.3267   -0.7249    0.0000 H   0  0  0  0  0  0  0  0  0  0  0  0
   10.3503   -0.7869    0.0000 H   0  0  0  0  0  0  0  0  0  0  0  0
   11.1972   -0.5600    0.0000 H   0  0  0  0  0  0  0  0  0  0  0  0
   10.9703    0.2869    0.0000 H   0  0  0  0  0  0  0  0  0  0  0  0
   10.4142    1.2500    0.0000 H   0  0  0  0  0  0  0  0  0  0  0  0
    9.7942    1.8700    0.0000 H   0  0  0  0  0  0  0  0  0  0  0  0
    9.1742    1.2500    0.0000 H   0  0  0  0  0  0  0  0  0  0  0  0
    8.0622    0.8700    0.0000 H   0  0  0  0  0  0  0  0  0  0  0  0
    6.3301    0.8700    0.0000 H   0  0  0  0  0  0  0  0  0  0  0  0
    5.4641   -0.8700    0.0000 H   0  0  0  0  0  0  0  0  0  0  0  0
    4.5981    0.8700    0.0000 H   0  0  0  0  0  0  0  0  0  0  0  0
    3.7320   -0.8700    0.0000 H   0  0  0  0  0  0  0  0  0  0  0  0
    1.6900    0.2869    0.0000 H   0  0  0  0  0  0  0  0  0  0  0  0
    1.4631   -0.5600    0.0000 H   0  0  0  0  0  0  0  0  0  0  0  0
    2.3100   -0.7869    0.0000 H   0  0  0  0  0  0  0  0  0  0  0  0
  1  8  2  0  0  0  0
  2 13  2  0  0  0  0
  3  5  1  0  0  0  0
  3  8  1  0  0  0  0
  3 24  1  0  0  0  0
  4  5  1  0  0  0  0
  4  6  1  0  0  0  0
  4  7  1  0  0  0  0
  4 15  1  0  0  0  0
  5 16  1  0  0  0  0
  5 17  1  0  0  0  0
  6 18  1  0  0  0  0
  6 19  1  0  0  0  0
  6 20  1  0  0  0  0
  7 21  1  0  0  0  0
  7 22  1  0  0  0  0
  7 23  1  0  0  0  0
  8  9  1  0  0  0  0
  9 10  2  0  0  0  0
  9 25  1  0  0  0  0
 10 11  1  0  0  0  0
 10 26  1  0  0  0  0
 11 12  2  0  0  0  0
 11 27  1  0  0  0  0
 12 13  1  0  0  0  0
 12 28  1  0  0  0  0
 13 14  1  0  0  0  0
 14 29  1  0  0  0  0
 14 30  1  0  0  0  0
 14 31  1  0  0  0  0
M  END
>  <PUBCHEM_COMPOUND_CID>
25195169

>  <PUBCHEM_COMPOUND_CANONICALIZED>
1

>  <PUBCHEM_CACTVS_COMPLEXITY>
252

>  <PUBCHEM_CACTVS_HBOND_ACCEPTOR>
2

>  <PUBCHEM_CACTVS_HBOND_DONOR>
1

>  <PUBCHEM_CACTVS_ROTATABLE_BOND>
5

>  <PUBCHEM_CACTVS_SUBSKEYS>
AAADceByMAAAAAAAAAAAAAAAAAAAAAAAAAAAAAAAAAAAAAAAAAAAHgAQAAAADQTBgAQCAALAAACIAKFSEACAAAAgAAAICIAIAEgIAAAAAQAEAAAAFgCIgYIAAAAAAAAAAAAAAAAAAAAAAAAAAAAAAAAAAA==

>  <PUBCHEM_IUPAC_OPENEYE_NAME>
(2E,4E)-N-isobutyl-6-oxo-hepta-2,4-dienamide

>  <PUBCHEM_IUPAC_CAS_NAME>
(2E,4E)-N-(2-methylpropyl)-6-oxohepta-2,4-dienamide

>  <PUBCHEM_IUPAC_NAME>
(2E,4E)-N-(2-methylpropyl)-6-oxohepta-2,4-dienamide

>  <PUBCHEM_IUPAC_SYSTEMATIC_NAME>
(2E,4E)-N-(2-methylpropyl)-6-oxidanylidene-hepta-2,4-dienamide

>  <PUBCHEM_IUPAC_TRADITIONAL_NAME>
(2E,4E)-N-isobutyl-6-keto-hepta-2,4-dienamide

>  <PUBCHEM_IUPAC_INCHI>
InChI=1S/C11H17NO2/c1-9(2)8-12-11(14)7-5-4-6-10(3)13/h4-7,9H,8H2,1-3H3,(H,12,14)/b6-4+,7-5+

>  <PUBCHEM_IUPAC_INCHIKEY>
WOZPVGYGEASHHK-YDFGWWAZSA-N

>  <PUBCHEM_XLOGP3_AA>
1.4

>  <PUBCHEM_EXACT_MASS>
195.126

>  <PUBCHEM_MOLECULAR_FORMULA>
C11H17NO2

>  <PUBCHEM_MOLECULAR_WEIGHT>
195.262

>  <PUBCHEM_OPENEYE_CAN_SMILES>
CC(C)CNC(=O)C=CC=CC(=O)C

>  <PUBCHEM_OPENEYE_ISO_SMILES>
CC(C)CNC(=O)/C=C/C=C/C(=O)C

>  <PUBCHEM_CACTVS_TPSA>
46.2

>  <PUBCHEM_MONOISOTOPIC_WEIGHT>
195.126

>  <PUBCHEM_TOTAL_CHARGE>
0

>  <PUBCHEM_HEAVY_ATOM_COUNT>
14

>  <PUBCHEM_ATOM_DEF_STEREO_COUNT>
0

>  <PUBCHEM_ATOM_UDEF_STEREO_COUNT>
0

>  <PUBCHEM_BOND_DEF_STEREO_COUNT>
2

>  <PUBCHEM_BOND_UDEF_STEREO_COUNT>
0

>  <PUBCHEM_ISOTOPIC_ATOM_COUNT>
0

>  <PUBCHEM_COMPONENT_COUNT>
1

>  <PUBCHEM_CACTVS_TAUTO_COUNT>
4

>  <PUBCHEM_COORDINATE_TYPE>
1
5
255

$$$$
