25202259
 OpenBabel06101807152D

 21 20  0  0  1  0  0  0  0  0999 V2000
    5.1350    0.2315    0.0000 S   0  0  3  0  0  0  0  0  0  0  0  0
    5.1350   -0.7685    0.0000 O   0  0  0  0  0  0  0  0  0  0  0  0
    4.2690   -1.2685    0.0000 O   0  5  0  0  0  0  0  0  0  0  0  0
    2.5369   -1.2685    0.0000 O   0  0  0  0  0  0  0  0  0  0  0  0
    2.5369    0.7315    0.0000 N   0  3  0  0  0  0  0  0  0  0  0  0
    3.4030    0.2315    0.0000 C   0  0  3  0  0  0  0  0  0  0  0  0
    4.2690    0.7315    0.0000 C   0  0  0  0  0  0  0  0  0  0  0  0
    6.0010    0.7315    0.0000 C   0  0  0  0  0  0  0  0  0  0  0  0
    3.4030   -0.7685    0.0000 C   0  0  0  0  0  0  0  0  0  0  0  0
    6.8671    0.2315    0.0000 C   0  0  0  0  0  0  0  0  0  0  0  0
    3.4030    0.8515    0.0000 H   0  0  0  0  0  0  0  0  0  0  0  0
    4.6675    1.2065    0.0000 H   0  0  0  0  0  0  0  0  0  0  0  0
    3.8705    1.2065    0.0000 H   0  0  0  0  0  0  0  0  0  0  0  0
    2.0000    1.0415    0.0000 H   0  0  0  0  0  0  0  0  0  0  0  0
    2.2269    0.1946    0.0000 H   0  0  0  0  0  0  0  0  0  0  0  0
    2.8469    1.2685    0.0000 H   0  0  0  0  0  0  0  0  0  0  0  0
    6.3996    1.2065    0.0000 H   0  0  0  0  0  0  0  0  0  0  0  0
    5.6025    1.2065    0.0000 H   0  0  0  0  0  0  0  0  0  0  0  0
    6.5571   -0.3054    0.0000 H   0  0  0  0  0  0  0  0  0  0  0  0
    7.4040   -0.0785    0.0000 H   0  0  0  0  0  0  0  0  0  0  0  0
    7.1771    0.7685    0.0000 H   0  0  0  0  0  0  0  0  0  0  0  0
  1  2  2  0  0  0  0
  1  7  1  0  0  0  0
  1  8  1  0  0  0  0
  3  9  1  0  0  0  0
  4  9  2  0  0  0  0
  5  6  1  0  0  0  0
  5 14  1  0  0  0  0
  5 15  1  0  0  0  0
  5 16  1  0  0  0  0
  6  7  1  0  0  0  0
  6  9  1  0  0  0  0
  6 11  1  0  0  0  0
  7 12  1  0  0  0  0
  7 13  1  0  0  0  0
  8 10  1  0  0  0  0
  8 17  1  0  0  0  0
  8 18  1  0  0  0  0
 10 19  1  0  0  0  0
 10 20  1  0  0  0  0
 10 21  1  0  0  0  0
M  CHG  2   3  -1   5   1
M  END
>  <PUBCHEM_COMPOUND_CID>
25202259

>  <PUBCHEM_COMPOUND_CANONICALIZED>
1

>  <PUBCHEM_CACTVS_COMPLEXITY>
142

>  <PUBCHEM_CACTVS_HBOND_ACCEPTOR>
4

>  <PUBCHEM_CACTVS_HBOND_DONOR>
1

>  <PUBCHEM_CACTVS_ROTATABLE_BOND>
3

>  <PUBCHEM_CACTVS_SUBSKEYS>
AAADccBiMABAAAAAAAAAAAAAAAAAAAAAAAAAAAAAAAAAAAAAAAAAHgQQAAAACCjFwASCCABAAAoIAACQCEBAAAAAABAAAIGAAAACAAAgAAAAAAAAEAAgAAAAAAAAAAAAAAAAAAAAAAAAAAAAAAAAAAAAAA==

>  <PUBCHEM_IUPAC_OPENEYE_NAME>
2-azaniumyl-3-ethylsulfinyl-propanoate

>  <PUBCHEM_IUPAC_CAS_NAME>
2-ammonio-3-ethylsulfinylpropanoate

>  <PUBCHEM_IUPAC_NAME>
2-azaniumyl-3-ethylsulfinylpropanoate

>  <PUBCHEM_IUPAC_SYSTEMATIC_NAME>
2-azaniumyl-3-ethylsulfinyl-propanoate

>  <PUBCHEM_IUPAC_TRADITIONAL_NAME>
2-ammonio-3-ethylsulfinyl-propionate

>  <PUBCHEM_IUPAC_INCHI>
InChI=1S/C5H11NO3S/c1-2-10(9)3-4(6)5(7)8/h4H,2-3,6H2,1H3,(H,7,8)

>  <PUBCHEM_IUPAC_INCHIKEY>
CSZTZFUEOCFFJH-UHFFFAOYSA-N

>  <PUBCHEM_XLOGP3_AA>
-3.3

>  <PUBCHEM_EXACT_MASS>
165.046

>  <PUBCHEM_MOLECULAR_FORMULA>
C5H11NO3S

>  <PUBCHEM_MOLECULAR_WEIGHT>
165.207

>  <PUBCHEM_OPENEYE_CAN_SMILES>
CCS(=O)CC(C(=O)[O-])[NH3+]

>  <PUBCHEM_OPENEYE_ISO_SMILES>
CCS(=O)CC(C(=O)[O-])[NH3+]

>  <PUBCHEM_CACTVS_TPSA>
104

>  <PUBCHEM_MONOISOTOPIC_WEIGHT>
165.046

>  <PUBCHEM_TOTAL_CHARGE>
0

>  <PUBCHEM_HEAVY_ATOM_COUNT>
10

>  <PUBCHEM_ATOM_DEF_STEREO_COUNT>
0

>  <PUBCHEM_ATOM_UDEF_STEREO_COUNT>
2

>  <PUBCHEM_BOND_DEF_STEREO_COUNT>
0

>  <PUBCHEM_BOND_UDEF_STEREO_COUNT>
0

>  <PUBCHEM_ISOTOPIC_ATOM_COUNT>
0

>  <PUBCHEM_COMPONENT_COUNT>
1

>  <PUBCHEM_CACTVS_TAUTO_COUNT>
1

>  <PUBCHEM_COORDINATE_TYPE>
1
5
255

>  <PUBCHEM_BONDANNOTATIONS>
1  8  3
6  5  3

$$$$
