25200426
 OpenBabel06101807152D

 48 49  0  0  1  0  0  0  0  0999 V2000
    6.8671   -0.5000    0.0000 O   0  0  0  0  0  0  0  0  0  0  0  0
    5.1350   -0.5000    0.0000 O   0  0  0  0  0  0  0  0  0  0  0  0
    8.5991    0.5000    0.0000 O   0  0  0  0  0  0  0  0  0  0  0  0
    5.1350    0.5000    0.0000 O   0  0  0  0  0  0  0  0  0  0  0  0
    8.5991    2.5000    0.0000 O   0  0  0  0  0  0  0  0  0  0  0  0
    5.1350    2.5000    0.0000 O   0  0  0  0  0  0  0  0  0  0  0  0
    6.8671    3.5000    0.0000 O   0  0  0  0  0  0  0  0  0  0  0  0
    6.8671   -2.5000    0.0000 O   0  0  0  0  0  0  0  0  0  0  0  0
    5.1350   -3.5000    0.0000 O   0  0  0  0  0  0  0  0  0  0  0  0
    3.4030   -2.5000    0.0000 O   0  0  0  0  0  0  0  0  0  0  0  0
    2.5369   -1.0000    0.0000 O   0  0  0  0  0  0  0  0  0  0  0  0
    6.8671    0.5000    0.0000 C   0  0  2  0  0  0  0  0  0  0  0  0
    7.7331    1.0000    0.0000 C   0  0  2  0  0  0  0  0  0  0  0  0
    6.0010    1.0000    0.0000 C   0  0  2  0  0  0  0  0  0  0  0  0
    7.7331    2.0000    0.0000 C   0  0  1  0  0  0  0  0  0  0  0  0
    6.0010    2.0000    0.0000 C   0  0  1  0  0  0  0  0  0  0  0  0
    6.8671    2.5000    0.0000 C   0  0  2  0  0  0  0  0  0  0  0  0
    6.0010   -1.0000    0.0000 C   0  0  1  0  0  0  0  0  0  0  0  0
    6.0010   -2.0000    0.0000 C   0  0  1  0  0  0  0  0  0  0  0  0
    5.1350   -2.5000    0.0000 C   0  0  2  0  0  0  0  0  0  0  0  0
    4.2690   -2.0000    0.0000 C   0  0  2  0  0  0  0  0  0  0  0  0
    4.2690   -1.0000    0.0000 C   0  0  1  0  0  0  0  0  0  0  0  0
    3.4030   -0.5000    0.0000 C   0  0  0  0  0  0  0  0  0  0  0  0
    9.4651    1.0000    0.0000 C   0  0  0  0  0  0  0  0  0  0  0  0
    7.4040    0.1900    0.0000 H   0  0  0  0  0  0  0  0  0  0  0  0
    8.2700    1.3100    0.0000 H   0  0  0  0  0  0  0  0  0  0  0  0
    6.0010    0.3800    0.0000 H   0  0  0  0  0  0  0  0  0  0  0  0
    7.7331    2.6200    0.0000 H   0  0  0  0  0  0  0  0  0  0  0  0
    6.0010    2.6200    0.0000 H   0  0  0  0  0  0  0  0  0  0  0  0
    6.3301    2.8100    0.0000 H   0  0  0  0  0  0  0  0  0  0  0  0
    6.0010   -0.3800    0.0000 H   0  0  0  0  0  0  0  0  0  0  0  0
    6.0010   -2.6200    0.0000 H   0  0  0  0  0  0  0  0  0  0  0  0
    4.5981   -2.8100    0.0000 H   0  0  0  0  0  0  0  0  0  0  0  0
    3.7320   -1.6900    0.0000 H   0  0  0  0  0  0  0  0  0  0  0  0
    4.2690   -0.3800    0.0000 H   0  0  0  0  0  0  0  0  0  0  0  0
    4.5981    0.8100    0.0000 H   0  0  0  0  0  0  0  0  0  0  0  0
    8.5991    3.1200    0.0000 H   0  0  0  0  0  0  0  0  0  0  0  0
    5.1350    3.1200    0.0000 H   0  0  0  0  0  0  0  0  0  0  0  0
    7.4040    3.8100    0.0000 H   0  0  0  0  0  0  0  0  0  0  0  0
    3.8015   -0.0251    0.0000 H   0  0  0  0  0  0  0  0  0  0  0  0
    3.0044   -0.0251    0.0000 H   0  0  0  0  0  0  0  0  0  0  0  0
    6.8671   -3.1200    0.0000 H   0  0  0  0  0  0  0  0  0  0  0  0
    4.5981   -3.8100    0.0000 H   0  0  0  0  0  0  0  0  0  0  0  0
    9.7751    0.4631    0.0000 H   0  0  0  0  0  0  0  0  0  0  0  0
   10.0021    1.3100    0.0000 H   0  0  0  0  0  0  0  0  0  0  0  0
    9.1551    1.5369    0.0000 H   0  0  0  0  0  0  0  0  0  0  0  0
    3.4030   -3.1200    0.0000 H   0  0  0  0  0  0  0  0  0  0  0  0
    2.0000   -0.6900    0.0000 H   0  0  0  0  0  0  0  0  0  0  0  0
  2 18  1  0  0  0  0
  2 22  1  0  0  0  0
  3 24  1  0  0  0  0
  4 36  1  0  0  0  0
  5 37  1  0  0  0  0
  6 38  1  0  0  0  0
  7 39  1  0  0  0  0
  8 42  1  0  0  0  0
  9 43  1  0  0  0  0
 10 47  1  0  0  0  0
 11 23  1  0  0  0  0
 11 48  1  0  0  0  0
 12  1  1  0  0  0  0
 12 13  1  1  0  0  0
 12 25  1  0  0  0  0
 13  3  1  0  0  0  0
 13 15  1  6  0  0  0
 13 26  1  0  0  0  0
 14  4  1  0  0  0  0
 14 12  1  1  0  0  0
 14 27  1  0  0  0  0
 15  5  1  0  0  0  0
 15 17  1  1  0  0  0
 15 28  1  0  0  0  0
 16  6  1  0  0  0  0
 16 14  1  1  0  0  0
 16 29  1  0  0  0  0
 17  7  1  0  0  0  0
 17 16  1  6  0  0  0
 17 30  1  0  0  0  0
 18  1  1  0  0  0  0
 18 19  1  1  0  0  0
 18 31  1  0  0  0  0
 19  8  1  0  0  0  0
 19 20  1  6  0  0  0
 19 32  1  0  0  0  0
 20  9  1  0  0  0  0
 20 21  1  1  0  0  0
 20 33  1  0  0  0  0
 21 10  1  0  0  0  0
 21 22  1  1  0  0  0
 21 34  1  0  0  0  0
 22 23  1  0  0  0  0
 22 35  1  6  0  0  0
 23 40  1  0  0  0  0
 23 41  1  0  0  0  0
 24 44  1  0  0  0  0
 24 45  1  0  0  0  0
 24 46  1  0  0  0  0
M  END
>  <PUBCHEM_COMPOUND_CID>
25200426

>  <PUBCHEM_COMPOUND_CANONICALIZED>
1

>  <PUBCHEM_CACTVS_COMPLEXITY>
409

>  <PUBCHEM_CACTVS_HBOND_ACCEPTOR>
11

>  <PUBCHEM_CACTVS_HBOND_DONOR>
8

>  <PUBCHEM_CACTVS_ROTATABLE_BOND>
4

>  <PUBCHEM_CACTVS_SUBSKEYS>
AAADceBwPAAAAAAAAAAAAAAAAAAAAAAAAAA0QAAAAAAAAAAAAAAAGgAACAAACBSwgAMCCAAABgAAAAAAAAAAAAAAAAAAAAAAAAAREAIAAAAiQAAFAAAHAAHAYAwAAAAAAAAAAAACAAAQAACAAAAAAAAAAA==

>  <PUBCHEM_IUPAC_OPENEYE_NAME>
(1S,2R,3S,4R,5S,6S)-5-methoxy-6-[(2R,3R,4S,5R,6R)-3,4,5-trihydroxy-6-(hydroxymethyl)tetrahydropyran-2-yl]oxy-cyclohexane-1,2,3,4-tetrol

>  <PUBCHEM_IUPAC_CAS_NAME>
(1S,2R,3S,4R,5S,6S)-5-methoxy-6-[[(2R,3R,4S,5R,6R)-3,4,5-trihydroxy-6-(hydroxymethyl)-2-oxanyl]oxy]cyclohexane-1,2,3,4-tetrol

>  <PUBCHEM_IUPAC_NAME>
(1S,2R,3S,4R,5S,6S)-5-methoxy-6-[(2R,3R,4S,5R,6R)-3,4,5-trihydroxy-6-(hydroxymethyl)oxan-2-yl]oxycyclohexane-1,2,3,4-tetrol

>  <PUBCHEM_IUPAC_SYSTEMATIC_NAME>
(1R,2S,3R,4S,5S,6S)-5-[(2R,3R,4S,5R,6R)-6-(hydroxymethyl)-3,4,5-tris(oxidanyl)oxan-2-yl]oxy-6-methoxy-cyclohexane-1,2,3,4-tetrol

>  <PUBCHEM_IUPAC_TRADITIONAL_NAME>
(1S,2R,3S,4R,5S,6S)-5-methoxy-6-[(2R,3R,4S,5R,6R)-3,4,5-trihydroxy-6-methylol-tetrahydropyran-2-yl]oxy-cyclohexane-1,2,3,4-tetrol

>  <PUBCHEM_IUPAC_INCHI>
InChI=1S/C13H24O11/c1-22-11-8(19)6(17)7(18)9(20)12(11)24-13-10(21)5(16)4(15)3(2-14)23-13/h3-21H,2H2,1H3/t3-,4+,5+,6+,7-,8-,9+,10-,11+,12+,13-/m1/s1

>  <PUBCHEM_IUPAC_INCHIKEY>
RSYNCMYDVZFZBP-KERYTHSYSA-N

>  <PUBCHEM_XLOGP3_AA>
-4.8

>  <PUBCHEM_EXACT_MASS>
356.132

>  <PUBCHEM_MOLECULAR_FORMULA>
C13H24O11

>  <PUBCHEM_MOLECULAR_WEIGHT>
356.324

>  <PUBCHEM_OPENEYE_CAN_SMILES>
COC1C(C(C(C(C1OC2C(C(C(C(O2)CO)O)O)O)O)O)O)O

>  <PUBCHEM_OPENEYE_ISO_SMILES>
CO[C@H]1[C@@H]([C@H]([C@H]([C@@H]([C@@H]1O[C@@H]2[C@@H]([C@H]([C@H]([C@H](O2)CO)O)O)O)O)O)O)O

>  <PUBCHEM_CACTVS_TPSA>
190

>  <PUBCHEM_MONOISOTOPIC_WEIGHT>
356.132

>  <PUBCHEM_TOTAL_CHARGE>
0

>  <PUBCHEM_HEAVY_ATOM_COUNT>
24

>  <PUBCHEM_ATOM_DEF_STEREO_COUNT>
11

>  <PUBCHEM_ATOM_UDEF_STEREO_COUNT>
0

>  <PUBCHEM_BOND_DEF_STEREO_COUNT>
0

>  <PUBCHEM_BOND_UDEF_STEREO_COUNT>
0

>  <PUBCHEM_ISOTOPIC_ATOM_COUNT>
0

>  <PUBCHEM_COMPONENT_COUNT>
1

>  <PUBCHEM_CACTVS_TAUTO_COUNT>
1

>  <PUBCHEM_COORDINATE_TYPE>
1
5
255

>  <PUBCHEM_BONDANNOTATIONS>
12  1  5
18  1  6
21  10  5
22  23  5
13  3  6
14  4  5
15  5  5
16  6  6
17  7  6
19  8  6
20  9  5

$$$$
