25243966
 OpenBabel06101807152D

 51 54  0  0  1  0  0  0  0  0999 V2000
    3.2614   -2.4966    0.0000 O   0  0  0  0  0  0  0  0  0  0  0  0
    2.2922   -0.6992    0.0000 O   0  0  0  0  0  0  0  0  0  0  0  0
    3.4022    1.0082    0.0000 O   0  5  0  0  0  0  0  0  0  0  0  0
    4.4308    1.9788    0.0000 O   0  0  0  0  0  0  0  0  0  0  0  0
    8.0084   -1.0129    0.0000 O   0  5  0  0  0  0  0  0  0  0  0  0
    6.8093   -2.2627    0.0000 O   0  0  0  0  0  0  0  0  0  0  0  0
    5.6580   -3.1805    0.0000 O   0  5  0  0  0  0  0  0  0  0  0  0
    3.9262   -3.1502    0.0000 O   0  0  0  0  0  0  0  0  0  0  0  0
    6.4625    0.3854    0.0000 C   0  0  1  0  0  0  0  0  0  0  0  0
    5.5615    0.8193    0.0000 C   0  0  2  0  0  0  0  0  0  0  0  0
    4.8764    0.0990    0.0000 C   0  0  1  0  0  0  0  0  0  0  0  0
    5.3482   -0.7760    0.0000 C   0  0  2  0  0  0  0  0  0  0  0  0
    6.3265   -0.5993    0.0000 C   0  0  2  0  0  0  0  0  0  0  0  0
    6.3556    1.5622    0.0000 C   0  0  0  0  0  0  0  0  0  0  0  0
    7.3634    0.8193    0.0000 C   0  0  0  0  0  0  0  0  0  0  0  0
    4.8183   -1.6656    0.0000 C   0  0  2  0  0  0  0  0  0  0  0  0
    6.9625    2.5760    0.0000 C   0  0  1  0  0  0  0  0  0  0  0  0
    5.3390    1.7942    0.0000 C   0  0  0  0  0  0  0  0  0  0  0  0
    3.8420    0.1450    0.0000 C   0  0  0  0  0  0  0  0  0  0  0  0
    5.9625    2.5760    0.0000 C   0  0  0  0  0  0  0  0  0  0  0  0
    7.5860    1.7942    0.0000 C   0  0  0  0  0  0  0  0  0  0  0  0
    3.7831   -1.6435    0.0000 C   0  0  2  0  0  0  0  0  0  0  0  0
    3.2916   -0.7321    0.0000 C   0  0  1  0  0  0  0  0  0  0  0  0
    4.4018    0.9792    0.0000 C   0  0  0  0  0  0  0  0  0  0  0  0
    7.0481   -1.2916    0.0000 C   0  0  0  0  0  0  0  0  0  0  0  0
    5.6755   -2.1806    0.0000 C   0  0  0  0  0  0  0  0  0  0  0  0
    4.8008   -2.6654    0.0000 C   0  0  0  0  0  0  0  0  0  0  0  0
    8.5609    2.0167    0.0000 C   0  0  0  0  0  0  0  0  0  0  0  0
    4.7957    1.1881    0.0000 H   0  0  0  0  0  0  0  0  0  0  0  0
    5.8324   -1.4746    0.0000 H   0  0  0  0  0  0  0  0  0  0  0  0
    6.9121   -0.3958    0.0000 H   0  0  0  0  0  0  0  0  0  0  0  0
    5.9478    2.0292    0.0000 H   0  0  0  0  0  0  0  0  0  0  0  0
    5.7856    1.3183    0.0000 H   0  0  0  0  0  0  0  0  0  0  0  0
    7.5014    0.2148    0.0000 H   0  0  0  0  0  0  0  0  0  0  0  0
    7.9834    0.8193    0.0000 H   0  0  0  0  0  0  0  0  0  0  0  0
    7.1516    3.4047    0.0000 H   0  0  0  0  0  0  0  0  0  0  0  0
    4.9524    2.2790    0.0000 H   0  0  0  0  0  0  0  0  0  0  0  0
    4.7804    1.5252    0.0000 H   0  0  0  0  0  0  0  0  0  0  0  0
    3.9751    0.7506    0.0000 H   0  0  0  0  0  0  0  0  0  0  0  0
    3.2682    0.3798    0.0000 H   0  0  0  0  0  0  0  0  0  0  0  0
    6.1004    3.1805    0.0000 H   0  0  0  0  0  0  0  0  0  0  0  0
    5.4039    2.8450    0.0000 H   0  0  0  0  0  0  0  0  0  0  0  0
    3.1633   -1.6267    0.0000 H   0  0  0  0  0  0  0  0  0  0  0  0
    3.0005   -0.1847    0.0000 H   0  0  0  0  0  0  0  0  0  0  0  0
    5.3561   -2.7121    0.0000 H   0  0  0  0  0  0  0  0  0  0  0  0
    6.2069   -2.5000    0.0000 H   0  0  0  0  0  0  0  0  0  0  0  0
    5.9948   -1.6492    0.0000 H   0  0  0  0  0  0  0  0  0  0  0  0
    8.9826    1.5622    0.0000 H   0  0  0  0  0  0  0  0  0  0  0  0
    8.7436    2.6092    0.0000 H   0  0  0  0  0  0  0  0  0  0  0  0
    2.6416   -2.4810    0.0000 H   0  0  0  0  0  0  0  0  0  0  0  0
    2.0000   -0.1523    0.0000 H   0  0  0  0  0  0  0  0  0  0  0  0
  1 50  1  0  0  0  0
  2 51  1  0  0  0  0
  3 24  1  0  0  0  0
  4 24  2  0  0  0  0
  5 25  1  0  0  0  0
  6 25  2  0  0  0  0
  7 27  1  0  0  0  0
  8 27  2  0  0  0  0
  9 10  1  1  0  0  0
  9 14  1  0  0  0  0
  9 15  1  0  0  0  0
 10 11  1  6  0  0  0
 10 18  1  0  0  0  0
 10 29  1  0  0  0  0
 11 12  1  6  0  0  0
 11 19  1  0  0  0  0
 11 24  1  0  0  0  0
 12 13  1  6  0  0  0
 12 30  1  0  0  0  0
 13  9  1  1  0  0  0
 13 25  1  0  0  0  0
 13 31  1  0  0  0  0
 14 17  1  0  0  0  0
 14 32  1  0  0  0  0
 14 33  1  0  0  0  0
 15 21  1  0  0  0  0
 15 34  1  0  0  0  0
 15 35  1  0  0  0  0
 16 12  1  6  0  0  0
 16 26  1  0  0  0  0
 16 27  1  0  0  0  0
 17 20  1  0  0  0  0
 17 21  1  0  0  0  0
 17 36  1  6  0  0  0
 18 20  1  0  0  0  0
 18 37  1  0  0  0  0
 18 38  1  0  0  0  0
 19 23  1  0  0  0  0
 19 39  1  0  0  0  0
 19 40  1  0  0  0  0
 20 41  1  0  0  0  0
 20 42  1  0  0  0  0
 21 28  2  0  0  0  0
 22  1  1  0  0  0  0
 22 16  1  6  0  0  0
 22 43  1  0  0  0  0
 23  2  1  0  0  0  0
 23 22  1  6  0  0  0
 23 44  1  0  0  0  0
 26 45  1  0  0  0  0
 26 46  1  0  0  0  0
 26 47  1  0  0  0  0
 28 48  1  0  0  0  0
 28 49  1  0  0  0  0
M  CHG  3   3  -1   5  -1   7  -1
M  END
>  <PUBCHEM_COMPOUND_CID>
25243966

>  <PUBCHEM_COMPOUND_CANONICALIZED>
1

>  <PUBCHEM_CACTVS_COMPLEXITY>
775

>  <PUBCHEM_CACTVS_HBOND_ACCEPTOR>
8

>  <PUBCHEM_CACTVS_HBOND_DONOR>
2

>  <PUBCHEM_CACTVS_ROTATABLE_BOND>
0

>  <PUBCHEM_CACTVS_SUBSKEYS>
AAADceB4PAAAAAAAAAAAAAAAAAAAAYMAAAAwYAAABgAAAGDAAAAAGgAACAAADxSggAICCAAAAgCIAgDSCAAAAAAgAAAAAAEAAAgBEBYAAQAAQAAFoAABAAHK7vTPgAAAAAAAAADAAAYAADCAAQAACAAAAA==

>  <PUBCHEM_IUPAC_INCHI>
InChI=1S/C20H26O8/c1-8-5-19-6-9(8)3-4-11(19)20(17(27)28)7-10(21)14(22)18(2,16(25)26)13(20)12(19)15(23)24/h9-14,21-22H,1,3-7H2,2H3,(H,23,24)(H,25,26)(H,27,28)/p-3/t9-,10+,11-,12-,13-,14+,18+,19+,20-/m1/s1

>  <PUBCHEM_IUPAC_INCHIKEY>
FQTLNSKVFLETSS-QBCIWLIXSA-K

>  <PUBCHEM_XLOGP3_AA>
2.8

>  <PUBCHEM_EXACT_MASS>
391.139

>  <PUBCHEM_MOLECULAR_FORMULA>
C20H23O8-3

>  <PUBCHEM_MOLECULAR_WEIGHT>
391.396

>  <PUBCHEM_OPENEYE_CAN_SMILES>
CC1(C2C(C34CC(CCC3C2(CC(C1O)O)C(=O)[O-])C(=C)C4)C(=O)[O-])C(=O)[O-]

>  <PUBCHEM_OPENEYE_ISO_SMILES>
C[C@@]1([C@H]2[C@@H]([C@@]34C[C@@H](CC[C@H]3[C@@]2(C[C@@H]([C@@H]1O)O)C(=O)[O-])C(=C)C4)C(=O)[O-])C(=O)[O-]

>  <PUBCHEM_CACTVS_TPSA>
161

>  <PUBCHEM_MONOISOTOPIC_WEIGHT>
391.139

>  <PUBCHEM_TOTAL_CHARGE>
-3

>  <PUBCHEM_HEAVY_ATOM_COUNT>
28

>  <PUBCHEM_ATOM_DEF_STEREO_COUNT>
9

>  <PUBCHEM_ATOM_UDEF_STEREO_COUNT>
0

>  <PUBCHEM_BOND_DEF_STEREO_COUNT>
0

>  <PUBCHEM_BOND_UDEF_STEREO_COUNT>
0

>  <PUBCHEM_ISOTOPIC_ATOM_COUNT>
0

>  <PUBCHEM_COMPONENT_COUNT>
1

>  <PUBCHEM_CACTVS_TAUTO_COUNT>
1

>  <PUBCHEM_COORDINATE_TYPE>
1
5
255

>  <PUBCHEM_BONDANNOTATIONS>
22  1  5
10  29  5
11  24  6
12  30  5
13  25  5
16  26  5
17  36  6
23  2  5
9  14  6

$$$$
