25244360
 OpenBabel06101807152D

 39 41  0  0  1  0  0  0  0  0999 V2000
    2.9986   -0.3765    0.0000 C   0  0  2  0  0  0  0  0  0  0  0  0
    5.8153   -0.2913    0.0000 C   0  0  1  0  0  0  0  0  0  0  0  0
    4.4164   -0.3001    0.0000 C   0  0  2  0  0  0  0  0  0  0  0  0
    4.6752    0.6658    0.0000 C   0  0  3  0  0  0  0  0  0  0  0  0
    5.3659   -1.1800    0.0000 C   0  0  3  0  0  0  0  0  0  0  0  0
    3.5009   -1.2364    0.0000 C   0  0  0  0  0  0  0  0  0  0  0  0
    3.1954    1.3176    0.0000 C   0  0  0  0  0  0  0  0  0  0  0  0
    4.4439   -1.5565    0.0000 C   0  0  0  0  0  0  0  0  0  0  0  0
    4.5967    2.1266    0.0000 C   0  0  0  0  0  0  0  0  0  0  0  0
    2.0000   -0.4302    0.0000 C   0  0  0  0  0  0  0  0  0  0  0  0
    3.6022    2.2311    0.0000 C   0  0  0  0  0  0  0  0  0  0  0  0
    6.0440   -1.9150    0.0000 C   0  0  0  0  0  0  0  0  0  0  0  0
    5.2658    2.8697    0.0000 C   0  0  0  0  0  0  0  0  0  0  0  0
    5.7465   -2.8697    0.0000 C   0  0  0  0  0  0  0  0  0  0  0  0
    7.0195   -1.6953    0.0000 C   0  0  0  0  0  0  0  0  0  0  0  0
    6.6653   -0.2859    0.0000 H   0  0  0  0  0  0  0  0  0  0  0  0
    4.1964   -1.1212    0.0000 H   0  0  0  0  0  0  0  0  0  0  0  0
    5.2299    0.9428    0.0000 H   0  0  0  0  0  0  0  0  0  0  0  0
    5.2312   -1.7852    0.0000 H   0  0  0  0  0  0  0  0  0  0  0  0
    2.8991   -1.3858    0.0000 H   0  0  0  0  0  0  0  0  0  0  0  0
    3.4749   -1.8558    0.0000 H   0  0  0  0  0  0  0  0  0  0  0  0
    2.6793    1.6611    0.0000 H   0  0  0  0  0  0  0  0  0  0  0  0
    2.7702    0.8664    0.0000 H   0  0  0  0  0  0  0  0  0  0  0  0
    4.0874   -2.0638    0.0000 H   0  0  0  0  0  0  0  0  0  0  0  0
    4.8304   -2.0413    0.0000 H   0  0  0  0  0  0  0  0  0  0  0  0
    1.9667    0.1889    0.0000 H   0  0  0  0  0  0  0  0  0  0  0  0
    1.3809   -0.4636    0.0000 H   0  0  0  0  0  0  0  0  0  0  0  0
    2.0333   -1.0493    0.0000 H   0  0  0  0  0  0  0  0  0  0  0  0
    3.7311    2.8376    0.0000 H   0  0  0  0  0  0  0  0  0  0  0  0
    3.0125    2.4227    0.0000 H   0  0  0  0  0  0  0  0  0  0  0  0
    6.2284   -1.3231    0.0000 H   0  0  0  0  0  0  0  0  0  0  0  0
    5.8723    2.7408    0.0000 H   0  0  0  0  0  0  0  0  0  0  0  0
    5.0742    3.4594    0.0000 H   0  0  0  0  0  0  0  0  0  0  0  0
    5.1545   -2.6853    0.0000 H   0  0  0  0  0  0  0  0  0  0  0  0
    5.5620   -3.4616    0.0000 H   0  0  0  0  0  0  0  0  0  0  0  0
    6.3384   -3.0542    0.0000 H   0  0  0  0  0  0  0  0  0  0  0  0
    7.1557   -2.3001    0.0000 H   0  0  0  0  0  0  0  0  0  0  0  0
    7.6244   -1.5590    0.0000 H   0  0  0  0  0  0  0  0  0  0  0  0
    6.8833   -1.0904    0.0000 H   0  0  0  0  0  0  0  0  0  0  0  0
  1  3  1  6  0  0  0
  1  4  1  0  0  0  0
  1  6  1  0  0  0  0
  1 10  1  0  0  0  0
  2  3  1  6  0  0  0
  2  4  1  0  0  0  0
  2  5  1  0  0  0  0
  2 16  1  0  0  0  0
  3  7  1  0  0  0  0
  3 17  1  6  0  0  0
  4  9  1  0  0  0  0
  4 18  1  0  0  0  0
  5  8  1  0  0  0  0
  5 12  1  0  0  0  0
  5 19  1  0  0  0  0
  6  8  1  0  0  0  0
  6 20  1  0  0  0  0
  6 21  1  0  0  0  0
  7 11  1  0  0  0  0
  7 22  1  0  0  0  0
  7 23  1  0  0  0  0
  8 24  1  0  0  0  0
  8 25  1  0  0  0  0
  9 11  1  0  0  0  0
  9 13  2  0  0  0  0
 10 26  1  0  0  0  0
 10 27  1  0  0  0  0
 10 28  1  0  0  0  0
 11 29  1  0  0  0  0
 11 30  1  0  0  0  0
 12 14  1  0  0  0  0
 12 15  1  0  0  0  0
 12 31  1  0  0  0  0
 13 32  1  0  0  0  0
 13 33  1  0  0  0  0
 14 34  1  0  0  0  0
 14 35  1  0  0  0  0
 14 36  1  0  0  0  0
 15 37  1  0  0  0  0
 15 38  1  0  0  0  0
 15 39  1  0  0  0  0
M  END
>  <PUBCHEM_COMPOUND_CID>
25244360

>  <PUBCHEM_COMPOUND_CANONICALIZED>
1

>  <PUBCHEM_CACTVS_COMPLEXITY>
301

>  <PUBCHEM_CACTVS_HBOND_ACCEPTOR>
0

>  <PUBCHEM_CACTVS_HBOND_DONOR>
0

>  <PUBCHEM_CACTVS_ROTATABLE_BOND>
1

>  <PUBCHEM_CACTVS_SUBSKEYS>
AAADceBwAAAAAAAAAAAAAAAAAABgAAAAAAAwYMGAAAAAAAAAAAAAGAAAAAAADwCAAAACAAAAAACAAgBCAAAAAAAgAAAAAAAAAAgAAAIAAQAAAAAAgAAAAAEAgMAPgAAAAAAAAACAAAQAACAAAAAAAAAAAA==

>  <PUBCHEM_IUPAC_INCHI>
InChI=1S/C15H24/c1-9(2)11-7-8-15(4)12-6-5-10(3)14(15)13(11)12/h9,11-14H,3,5-8H2,1-2,4H3/t11?,12-,13-,14?,15+/m0/s1

>  <PUBCHEM_IUPAC_INCHIKEY>
UPVZPMJSRSWJHQ-PLWLXLEKSA-N

>  <PUBCHEM_XLOGP3_AA>
4.7

>  <PUBCHEM_EXACT_MASS>
204.188

>  <PUBCHEM_MOLECULAR_FORMULA>
C15H24

>  <PUBCHEM_MOLECULAR_WEIGHT>
204.357

>  <PUBCHEM_OPENEYE_CAN_SMILES>
CC(C)C1CCC2(C3C1C2C(=C)CC3)C

>  <PUBCHEM_OPENEYE_ISO_SMILES>
CC(C)C1CC[C@@]2([C@@H]3[C@H]1C2C(=C)CC3)C

>  <PUBCHEM_CACTVS_TPSA>
0

>  <PUBCHEM_MONOISOTOPIC_WEIGHT>
204.188

>  <PUBCHEM_TOTAL_CHARGE>
0

>  <PUBCHEM_HEAVY_ATOM_COUNT>
15

>  <PUBCHEM_ATOM_DEF_STEREO_COUNT>
3

>  <PUBCHEM_ATOM_UDEF_STEREO_COUNT>
2

>  <PUBCHEM_BOND_DEF_STEREO_COUNT>
0

>  <PUBCHEM_BOND_UDEF_STEREO_COUNT>
0

>  <PUBCHEM_ISOTOPIC_ATOM_COUNT>
0

>  <PUBCHEM_COMPONENT_COUNT>
1

>  <PUBCHEM_CACTVS_TAUTO_COUNT>
1

>  <PUBCHEM_COORDINATE_TYPE>
1
5
255

>  <PUBCHEM_BONDANNOTATIONS>
1  10  6
2  16  6
3  17  6
4  9  3
5  12  3

$$$$
