25244596
 OpenBabel06101807152D

 22 22  0  0  0  0  0  0  0  0999 V2000
    2.8660    0.6550    0.0000 O   0  0  0  0  0  0  0  0  0  0  0  0
    6.3301    0.6550    0.0000 O   0  0  0  0  0  0  0  0  0  0  0  0
    4.5981    1.6550    0.0000 O   0  0  0  0  0  0  0  0  0  0  0  0
    2.8660   -1.3450    0.0000 O   0  0  0  0  0  0  0  0  0  0  0  0
    5.4641   -0.8450    0.0000 C   0  0  0  0  0  0  0  0  0  0  0  0
    5.4641    0.1550    0.0000 C   0  0  0  0  0  0  0  0  0  0  0  0
    3.7320    0.1550    0.0000 C   0  0  0  0  0  0  0  0  0  0  0  0
    4.5981    0.6550    0.0000 C   0  0  0  0  0  0  0  0  0  0  0  0
    4.5981   -1.3450    0.0000 C   0  0  0  0  0  0  0  0  0  0  0  0
    3.7320   -0.8450    0.0000 C   0  0  0  0  0  0  0  0  0  0  0  0
    6.3301   -1.3450    0.0000 C   0  0  0  0  0  0  0  0  0  0  0  0
    2.0000    0.1550    0.0000 C   0  0  0  0  0  0  0  0  0  0  0  0
    4.5981   -1.9650    0.0000 H   0  0  0  0  0  0  0  0  0  0  0  0
    6.0201   -1.8819    0.0000 H   0  0  0  0  0  0  0  0  0  0  0  0
    6.8671   -1.6550    0.0000 H   0  0  0  0  0  0  0  0  0  0  0  0
    6.6401   -0.8081    0.0000 H   0  0  0  0  0  0  0  0  0  0  0  0
    6.8671    0.3450    0.0000 H   0  0  0  0  0  0  0  0  0  0  0  0
    5.1350    1.9650    0.0000 H   0  0  0  0  0  0  0  0  0  0  0  0
    1.6900    0.6919    0.0000 H   0  0  0  0  0  0  0  0  0  0  0  0
    1.4631   -0.1550    0.0000 H   0  0  0  0  0  0  0  0  0  0  0  0
    2.3100   -0.3819    0.0000 H   0  0  0  0  0  0  0  0  0  0  0  0
    2.8660   -1.9650    0.0000 H   0  0  0  0  0  0  0  0  0  0  0  0
  1  7  1  0  0  0  0
  1 12  1  0  0  0  0
  2  6  1  0  0  0  0
  2 17  1  0  0  0  0
  3  8  1  0  0  0  0
  3 18  1  0  0  0  0
  4 10  1  0  0  0  0
  4 22  1  0  0  0  0
  5  6  1  0  0  0  0
  5  9  2  0  0  0  0
  5 11  1  0  0  0  0
  6  8  2  0  0  0  0
  7  8  1  0  0  0  0
  7 10  2  0  0  0  0
  9 10  1  0  0  0  0
  9 13  1  0  0  0  0
 11 14  1  0  0  0  0
 11 15  1  0  0  0  0
 11 16  1  0  0  0  0
 12 19  1  0  0  0  0
 12 20  1  0  0  0  0
 12 21  1  0  0  0  0
M  END
>  <PUBCHEM_COMPOUND_CID>
25244596

>  <PUBCHEM_COMPOUND_CANONICALIZED>
1

>  <PUBCHEM_CACTVS_COMPLEXITY>
150

>  <PUBCHEM_CACTVS_HBOND_ACCEPTOR>
4

>  <PUBCHEM_CACTVS_HBOND_DONOR>
3

>  <PUBCHEM_CACTVS_ROTATABLE_BOND>
1

>  <PUBCHEM_CACTVS_SUBSKEYS>
AAADccBwOAAAAAAAAAAAAAAAAAAAAAAAAAAwAAAAAAAAAAABAAAAGgAACAAADASAmAIyBoAABgCAAiBCAAACCAAgIAAAiAAGiIgNJyKGMRqAcCMlwBULuAfA4DwOIQABCAAIQABCAAIQABCAAAAAAAAAAA==

>  <PUBCHEM_IUPAC_OPENEYE_NAME>
3-methoxy-6-methyl-benzene-1,2,4-triol

>  <PUBCHEM_IUPAC_CAS_NAME>
3-methoxy-6-methylbenzene-1,2,4-triol

>  <PUBCHEM_IUPAC_NAME>
3-methoxy-6-methylbenzene-1,2,4-triol

>  <PUBCHEM_IUPAC_SYSTEMATIC_NAME>
3-methoxy-6-methyl-benzene-1,2,4-triol

>  <PUBCHEM_IUPAC_TRADITIONAL_NAME>
3-methoxy-6-methyl-benzene-1,2,4-triol

>  <PUBCHEM_IUPAC_INCHI>
InChI=1S/C8H10O4/c1-4-3-5(9)8(12-2)7(11)6(4)10/h3,9-11H,1-2H3

>  <PUBCHEM_IUPAC_INCHIKEY>
FBRSHCVRTNPNES-UHFFFAOYSA-N

>  <PUBCHEM_XLOGP3>
0.7

>  <PUBCHEM_EXACT_MASS>
170.058

>  <PUBCHEM_MOLECULAR_FORMULA>
C8H10O4

>  <PUBCHEM_MOLECULAR_WEIGHT>
170.164

>  <PUBCHEM_OPENEYE_CAN_SMILES>
CC1=CC(=C(C(=C1O)O)OC)O

>  <PUBCHEM_OPENEYE_ISO_SMILES>
CC1=CC(=C(C(=C1O)O)OC)O

>  <PUBCHEM_CACTVS_TPSA>
69.9

>  <PUBCHEM_MONOISOTOPIC_WEIGHT>
170.058

>  <PUBCHEM_TOTAL_CHARGE>
0

>  <PUBCHEM_HEAVY_ATOM_COUNT>
12

>  <PUBCHEM_ATOM_DEF_STEREO_COUNT>
0

>  <PUBCHEM_ATOM_UDEF_STEREO_COUNT>
0

>  <PUBCHEM_BOND_DEF_STEREO_COUNT>
0

>  <PUBCHEM_BOND_UDEF_STEREO_COUNT>
0

>  <PUBCHEM_ISOTOPIC_ATOM_COUNT>
0

>  <PUBCHEM_COMPONENT_COUNT>
1

>  <PUBCHEM_CACTVS_TAUTO_COUNT>
27

>  <PUBCHEM_COORDINATE_TYPE>
1
5
255

>  <PUBCHEM_BONDANNOTATIONS>
5  6  8
5  9  8
6  8  8
7  10  8
7  8  8
9  10  8

$$$$
