25245458
 OpenBabel06101807152D

135140  0  0  1  0  0  0  0  0999 V2000
    8.1006   -4.5630    0.0000 O   0  5  0  0  0  0  0  0  0  0  0  0
   10.4256   -3.6496    0.0000 O   0  0  0  0  0  0  0  0  0  0  0  0
   13.1449   -0.9700    0.0000 O   0  0  0  0  0  0  0  0  0  0  0  0
   10.6312   -1.9298    0.0000 O   0  0  0  0  0  0  0  0  0  0  0  0
   12.1022   -2.3530    0.0000 O   0  0  0  0  0  0  0  0  0  0  0  0
    6.7126   -1.4362    0.0000 N   0  0  0  0  0  0  0  0  0  0  0  0
    8.1923   -0.0868    0.0000 N   0  0  0  0  0  0  0  0  0  0  0  0
    6.6795    1.2628    0.0000 N   0  0  0  0  0  0  0  0  0  0  0  0
    5.2310   -0.0868    0.0000 N   0  0  0  0  0  0  0  0  0  0  0  0
   22.5389   -2.6294    0.0000 C   0  0  3  0  0  0  0  0  0  0  0  0
   21.7404   -2.0274    0.0000 C   0  0  0  0  0  0  0  0  0  0  0  0
   20.8198   -2.4179    0.0000 C   0  0  0  0  0  0  0  0  0  0  0  0
   19.1007   -2.2064    0.0000 C   0  0  3  0  0  0  0  0  0  0  0  0
   20.0213   -1.8159    0.0000 C   0  0  0  0  0  0  0  0  0  0  0  0
   23.4595   -2.2389    0.0000 C   0  0  0  0  0  0  0  0  0  0  0  0
   24.2580   -2.8409    0.0000 C   0  0  0  0  0  0  0  0  0  0  0  0
   18.3022   -1.6044    0.0000 C   0  0  0  0  0  0  0  0  0  0  0  0
   25.1786   -2.4504    0.0000 C   0  0  0  0  0  0  0  0  0  0  0  0
   22.4168   -3.6219    0.0000 C   0  0  0  0  0  0  0  0  0  0  0  0
   17.3816   -1.9949    0.0000 C   0  0  0  0  0  0  0  0  0  0  0  0
   18.9786   -3.1990    0.0000 C   0  0  0  0  0  0  0  0  0  0  0  0
   25.9771   -3.0524    0.0000 C   0  0  0  0  0  0  0  0  0  0  0  0
   16.5831   -1.3929    0.0000 C   0  0  0  0  0  0  0  0  0  0  0  0
    8.4894   -1.7647    0.0000 C   0  0  0  0  0  0  0  0  0  0  0  0
    9.0390   -2.6116    0.0000 C   0  0  3  0  0  0  0  0  0  0  0  0
   26.8977   -2.6618    0.0000 C   0  0  0  0  0  0  0  0  0  0  0  0
   25.8550   -4.0449    0.0000 C   0  0  0  0  0  0  0  0  0  0  0  0
    7.5028   -2.0286    0.0000 C   0  0  0  0  0  0  0  0  0  0  0  0
    7.2058   -2.9821    0.0000 C   0  0  0  0  0  0  0  0  0  0  0  0
    8.7846   -0.8110    0.0000 C   0  0  0  0  0  0  0  0  0  0  0  0
   15.6625   -1.7835    0.0000 C   0  0  0  0  0  0  0  0  0  0  0  0
    8.0299   -3.5656    0.0000 C   0  0  0  0  0  0  0  0  0  0  0  0
    9.7067   -0.5470    0.0000 C   0  0  0  0  0  0  0  0  0  0  0  0
    6.2191   -2.9821    0.0000 C   0  0  0  0  0  0  0  0  0  0  0  0
    9.7067    0.4395    0.0000 C   0  0  0  0  0  0  0  0  0  0  0  0
    5.9222   -2.0616    0.0000 C   0  0  0  0  0  0  0  0  0  0  0  0
   10.5052   -1.1490    0.0000 C   0  0  0  0  0  0  0  0  0  0  0  0
    8.7516    0.7034    0.0000 C   0  0  0  0  0  0  0  0  0  0  0  0
   10.0319   -2.7304    0.0000 C   0  0  0  0  0  0  0  0  0  0  0  0
   14.8640   -1.1815    0.0000 C   0  0  0  0  0  0  0  0  0  0  0  0
   15.5404   -2.7760    0.0000 C   0  0  0  0  0  0  0  0  0  0  0  0
   11.4258   -0.7585    0.0000 C   0  0  0  0  0  0  0  0  0  0  0  0
    5.6304   -3.7905    0.0000 C   0  0  0  0  0  0  0  0  0  0  0  0
    4.9686   -1.7647    0.0000 C   0  0  0  0  0  0  0  0  0  0  0  0
    8.4563    1.6242    0.0000 C   0  0  0  0  0  0  0  0  0  0  0  0
   10.5025    1.0451    0.0000 C   0  0  0  0  0  0  0  0  0  0  0  0
   13.9434   -1.5720    0.0000 C   0  0  0  0  0  0  0  0  0  0  0  0
    4.6717   -0.8440    0.0000 C   0  0  0  0  0  0  0  0  0  0  0  0
    7.5028    1.9211    0.0000 C   0  0  0  0  0  0  0  0  0  0  0  0
    3.7182   -0.5800    0.0000 C   0  0  0  0  0  0  0  0  0  0  0  0
    7.1728    2.8416    0.0000 C   0  0  0  0  0  0  0  0  0  0  0  0
    3.7182    0.4066    0.0000 C   0  0  0  0  0  0  0  0  0  0  0  0
   12.2243   -1.3605    0.0000 C   0  0  0  0  0  0  0  0  0  0  0  0
    5.8892    1.8881    0.0000 C   0  0  0  0  0  0  0  0  0  0  0  0
    4.6717    0.6705    0.0000 C   0  0  0  0  0  0  0  0  0  0  0  0
    6.1862    2.8416    0.0000 C   0  0  0  0  0  0  0  0  0  0  0  0
    4.9356    1.6242    0.0000 C   0  0  0  0  0  0  0  0  0  0  0  0
    2.9223   -1.1855    0.0000 C   0  0  0  0  0  0  0  0  0  0  0  0
    7.7483    3.6594    0.0000 C   0  0  0  0  0  0  0  0  0  0  0  0
    2.9223    1.0121    0.0000 C   0  0  0  0  0  0  0  0  0  0  0  0
   11.4185   -3.7683    0.0000 C   0  0  0  0  0  0  0  0  0  0  0  0
    2.0000   -0.7990    0.0000 C   0  0  0  0  0  0  0  0  0  0  0  0
    5.5935    3.6470    0.0000 C   0  0  0  0  0  0  0  0  0  0  0  0
    5.9946    4.5630    0.0000 C   0  0  0  0  0  0  0  0  0  0  0  0
   23.0339   -3.0026    0.0000 H   0  0  0  0  0  0  0  0  0  0  0  0
   22.1939   -1.6047    0.0000 H   0  0  0  0  0  0  0  0  0  0  0  0
   21.4028   -1.5073    0.0000 H   0  0  0  0  0  0  0  0  0  0  0  0
   20.3662   -2.8406    0.0000 H   0  0  0  0  0  0  0  0  0  0  0  0
   21.1573   -2.9380    0.0000 H   0  0  0  0  0  0  0  0  0  0  0  0
   18.5299   -2.4486    0.0000 H   0  0  0  0  0  0  0  0  0  0  0  0
   20.4748   -1.3932    0.0000 H   0  0  0  0  0  0  0  0  0  0  0  0
   19.6837   -1.2959    0.0000 H   0  0  0  0  0  0  0  0  0  0  0  0
   23.9130   -1.8162    0.0000 H   0  0  0  0  0  0  0  0  0  0  0  0
   23.1219   -1.7188    0.0000 H   0  0  0  0  0  0  0  0  0  0  0  0
   23.8044   -3.2636    0.0000 H   0  0  0  0  0  0  0  0  0  0  0  0
   24.5955   -3.3609    0.0000 H   0  0  0  0  0  0  0  0  0  0  0  0
   18.7557   -1.1817    0.0000 H   0  0  0  0  0  0  0  0  0  0  0  0
   17.9646   -1.0844    0.0000 H   0  0  0  0  0  0  0  0  0  0  0  0
   25.6321   -2.0276    0.0000 H   0  0  0  0  0  0  0  0  0  0  0  0
   24.8410   -1.9303    0.0000 H   0  0  0  0  0  0  0  0  0  0  0  0
   21.8014   -3.5462    0.0000 H   0  0  0  0  0  0  0  0  0  0  0  0
   22.3411   -4.2373    0.0000 H   0  0  0  0  0  0  0  0  0  0  0  0
   23.0321   -3.6976    0.0000 H   0  0  0  0  0  0  0  0  0  0  0  0
   16.9281   -2.4177    0.0000 H   0  0  0  0  0  0  0  0  0  0  0  0
   17.7192   -2.5150    0.0000 H   0  0  0  0  0  0  0  0  0  0  0  0
   18.3632   -3.1232    0.0000 H   0  0  0  0  0  0  0  0  0  0  0  0
   18.9029   -3.8143    0.0000 H   0  0  0  0  0  0  0  0  0  0  0  0
   19.5940   -3.2746    0.0000 H   0  0  0  0  0  0  0  0  0  0  0  0
   25.4063   -3.2945    0.0000 H   0  0  0  0  0  0  0  0  0  0  0  0
   17.0366   -0.9702    0.0000 H   0  0  0  0  0  0  0  0  0  0  0  0
   16.2456   -0.8729    0.0000 H   0  0  0  0  0  0  0  0  0  0  0  0
    9.3668   -2.0854    0.0000 H   0  0  0  0  0  0  0  0  0  0  0  0
   25.2396   -3.9692    0.0000 H   0  0  0  0  0  0  0  0  0  0  0  0
   25.7793   -4.6602    0.0000 H   0  0  0  0  0  0  0  0  0  0  0  0
   26.4703   -4.1206    0.0000 H   0  0  0  0  0  0  0  0  0  0  0  0
   27.1398   -3.2326    0.0000 H   0  0  0  0  0  0  0  0  0  0  0  0
   27.4684   -2.4197    0.0000 H   0  0  0  0  0  0  0  0  0  0  0  0
   26.6555   -2.0911    0.0000 H   0  0  0  0  0  0  0  0  0  0  0  0
   10.0517   -1.5717    0.0000 H   0  0  0  0  0  0  0  0  0  0  0  0
   10.8428   -1.6691    0.0000 H   0  0  0  0  0  0  0  0  0  0  0  0
   14.9397   -0.5661    0.0000 H   0  0  0  0  0  0  0  0  0  0  0  0
   14.9250   -2.7003    0.0000 H   0  0  0  0  0  0  0  0  0  0  0  0
   15.4647   -3.3913    0.0000 H   0  0  0  0  0  0  0  0  0  0  0  0
   16.1558   -2.8517    0.0000 H   0  0  0  0  0  0  0  0  0  0  0  0
   11.8794   -0.3358    0.0000 H   0  0  0  0  0  0  0  0  0  0  0  0
   11.0883   -0.2384    0.0000 H   0  0  0  0  0  0  0  0  0  0  0  0
    5.1292   -3.4255    0.0000 H   0  0  0  0  0  0  0  0  0  0  0  0
    5.2654   -4.2917    0.0000 H   0  0  0  0  0  0  0  0  0  0  0  0
    6.1316   -4.1555    0.0000 H   0  0  0  0  0  0  0  0  0  0  0  0
    4.5324   -2.2053    0.0000 H   0  0  0  0  0  0  0  0  0  0  0  0
    8.8928    2.0644    0.0000 H   0  0  0  0  0  0  0  0  0  0  0  0
   10.8780    0.5517    0.0000 H   0  0  0  0  0  0  0  0  0  0  0  0
   10.9959    1.4206    0.0000 H   0  0  0  0  0  0  0  0  0  0  0  0
   10.1270    1.5385    0.0000 H   0  0  0  0  0  0  0  0  0  0  0  0
   13.4899   -1.9947    0.0000 H   0  0  0  0  0  0  0  0  0  0  0  0
   14.2810   -2.0920    0.0000 H   0  0  0  0  0  0  0  0  0  0  0  0
    6.6811    0.6428    0.0000 H   0  0  0  0  0  0  0  0  0  0  0  0
    4.4972    2.0625    0.0000 H   0  0  0  0  0  0  0  0  0  0  0  0
    2.5870   -1.7070    0.0000 H   0  0  0  0  0  0  0  0  0  0  0  0
    3.3777   -1.6062    0.0000 H   0  0  0  0  0  0  0  0  0  0  0  0
    8.2553    3.3026    0.0000 H   0  0  0  0  0  0  0  0  0  0  0  0
    8.1051    4.1665    0.0000 H   0  0  0  0  0  0  0  0  0  0  0  0
    7.2412    4.0162    0.0000 H   0  0  0  0  0  0  0  0  0  0  0  0
    3.2978    1.5055    0.0000 H   0  0  0  0  0  0  0  0  0  0  0  0
    2.4289    1.3875    0.0000 H   0  0  0  0  0  0  0  0  0  0  0  0
    2.5469    0.5187    0.0000 H   0  0  0  0  0  0  0  0  0  0  0  0
   11.3449   -4.3839    0.0000 H   0  0  0  0  0  0  0  0  0  0  0  0
   12.0341   -3.8419    0.0000 H   0  0  0  0  0  0  0  0  0  0  0  0
   11.4921   -3.1527    0.0000 H   0  0  0  0  0  0  0  0  0  0  0  0
    2.2396   -0.2271    0.0000 H   0  0  0  0  0  0  0  0  0  0  0  0
    1.4282   -0.5593    0.0000 H   0  0  0  0  0  0  0  0  0  0  0  0
    1.7604   -1.3708    0.0000 H   0  0  0  0  0  0  0  0  0  0  0  0
    4.9773    3.5785    0.0000 H   0  0  0  0  0  0  0  0  0  0  0  0
    6.6108    4.6316    0.0000 H   0  0  0  0  0  0  0  0  0  0  0  0
    5.6271    5.0624    0.0000 H   0  0  0  0  0  0  0  0  0  0  0  0
  1 32  1  0  0  0  0
  2 39  1  0  0  0  0
  2 61  1  0  0  0  0
  3 47  1  0  0  0  0
  3 53  1  0  0  0  0
  4 39  2  0  0  0  0
  5 53  2  0  0  0  0
  6 28  2  0  0  0  0
  6 36  1  0  0  0  0
  7 30  1  0  0  0  0
  7 38  2  0  0  0  0
  8 49  1  0  0  0  0
  8 54  1  0  0  0  0
  8117  1  0  0  0  0
  9 48  1  0  0  0  0
  9 55  2  0  0  0  0
 10 11  1  0  0  0  0
 10 15  1  0  0  0  0
 10 19  1  0  0  0  0
 10 65  1  0  0  0  0
 11 12  1  0  0  0  0
 11 66  1  0  0  0  0
 11 67  1  0  0  0  0
 12 14  1  0  0  0  0
 12 68  1  0  0  0  0
 12 69  1  0  0  0  0
 13 14  1  0  0  0  0
 13 17  1  0  0  0  0
 13 21  1  0  0  0  0
 13 70  1  0  0  0  0
 14 71  1  0  0  0  0
 14 72  1  0  0  0  0
 15 16  1  0  0  0  0
 15 73  1  0  0  0  0
 15 74  1  0  0  0  0
 16 18  1  0  0  0  0
 16 75  1  0  0  0  0
 16 76  1  0  0  0  0
 17 20  1  0  0  0  0
 17 77  1  0  0  0  0
 17 78  1  0  0  0  0
 18 22  1  0  0  0  0
 18 79  1  0  0  0  0
 18 80  1  0  0  0  0
 19 81  1  0  0  0  0
 19 82  1  0  0  0  0
 19 83  1  0  0  0  0
 20 23  1  0  0  0  0
 20 84  1  0  0  0  0
 20 85  1  0  0  0  0
 21 86  1  0  0  0  0
 21 87  1  0  0  0  0
 21 88  1  0  0  0  0
 22 26  1  0  0  0  0
 22 27  1  0  0  0  0
 22 89  1  0  0  0  0
 23 31  1  0  0  0  0
 23 90  1  0  0  0  0
 23 91  1  0  0  0  0
 24 25  1  0  0  0  0
 24 28  1  0  0  0  0
 24 30  2  0  0  0  0
 25 32  1  0  0  0  0
 25 39  1  0  0  0  0
 25 92  1  0  0  0  0
 26 96  1  0  0  0  0
 26 97  1  0  0  0  0
 26 98  1  0  0  0  0
 27 93  1  0  0  0  0
 27 94  1  0  0  0  0
 27 95  1  0  0  0  0
 28 29  1  0  0  0  0
 29 32  2  0  0  0  0
 29 34  1  0  0  0  0
 30 33  1  0  0  0  0
 31 40  2  0  0  0  0
 31 41  1  0  0  0  0
 33 35  2  0  0  0  0
 33 37  1  0  0  0  0
 34 36  2  0  0  0  0
 34 43  1  0  0  0  0
 35 38  1  0  0  0  0
 35 46  1  0  0  0  0
 36 44  1  0  0  0  0
 37 42  1  0  0  0  0
 37 99  1  0  0  0  0
 37100  1  0  0  0  0
 38 45  1  0  0  0  0
 40 47  1  0  0  0  0
 40101  1  0  0  0  0
 41102  1  0  0  0  0
 41103  1  0  0  0  0
 41104  1  0  0  0  0
 42 53  1  0  0  0  0
 42105  1  0  0  0  0
 42106  1  0  0  0  0
 43107  1  0  0  0  0
 43108  1  0  0  0  0
 43109  1  0  0  0  0
 44 48  2  0  0  0  0
 44110  1  0  0  0  0
 45 49  2  0  0  0  0
 45111  1  0  0  0  0
 46112  1  0  0  0  0
 46113  1  0  0  0  0
 46114  1  0  0  0  0
 47115  1  0  0  0  0
 47116  1  0  0  0  0
 48 50  1  0  0  0  0
 49 51  1  0  0  0  0
 50 52  2  0  0  0  0
 50 58  1  0  0  0  0
 51 56  2  0  0  0  0
 51 59  1  0  0  0  0
 52 55  1  0  0  0  0
 52 60  1  0  0  0  0
 54 56  1  0  0  0  0
 54 57  2  0  0  0  0
 55 57  1  0  0  0  0
 56 63  1  0  0  0  0
 57118  1  0  0  0  0
 58 62  1  0  0  0  0
 58119  1  0  0  0  0
 58120  1  0  0  0  0
 59121  1  0  0  0  0
 59122  1  0  0  0  0
 59123  1  0  0  0  0
 60124  1  0  0  0  0
 60125  1  0  0  0  0
 60126  1  0  0  0  0
 61127  1  0  0  0  0
 61128  1  0  0  0  0
 61129  1  0  0  0  0
 62130  1  0  0  0  0
 62131  1  0  0  0  0
 62132  1  0  0  0  0
 63 64  2  0  0  0  0
 63133  1  0  0  0  0
 64134  1  0  0  0  0
 64135  1  0  0  0  0
M  CHG  1   1  -1
M  END
>  <PUBCHEM_COMPOUND_CID>
25245458

>  <PUBCHEM_COMPOUND_CANONICALIZED>
1

>  <PUBCHEM_CACTVS_COMPLEXITY>
2380

>  <PUBCHEM_CACTVS_HBOND_ACCEPTOR>
9

>  <PUBCHEM_CACTVS_HBOND_DONOR>
1

>  <PUBCHEM_CACTVS_ROTATABLE_BOND>
22

>  <PUBCHEM_CACTVS_SUBSKEYS>
AAADcfB/uAAAAAAAAAAAAAAAAAAAAQIECBAAAAAAAAAAAAAAAAAAHgAQAAAADQyhgAICCALABACoAyTyTACAAAAgIgAICAEwABgIBBYAoQAGEAAF4ACIoAOY2eCOAAAAAAAAAAAAAAAAAAAAAAAAAAAAAA==

>  <PUBCHEM_IUPAC_INCHI>
InChI=1S/C55H72N4O5/c1-13-39-35(8)42-28-44-37(10)41(24-25-48(60)64-27-26-34(7)23-17-22-33(6)21-16-20-32(5)19-15-18-31(3)4)52(58-44)50-51(55(62)63-12)54(61)49-38(11)45(59-53(49)50)30-47-40(14-2)36(9)43(57-47)29-46(39)56-42/h13,26,28-33,51,56,61H,1,14-25,27H2,2-12H3/p-1/b34-26+,42-28?,46-29?,47-30?,52-50?

>  <PUBCHEM_IUPAC_INCHIKEY>
HPNICGBMKWMZPC-QMATWKDLSA-M

>  <PUBCHEM_XLOGP3_AA>
11.3

>  <PUBCHEM_EXACT_MASS>
867.542

>  <PUBCHEM_MOLECULAR_FORMULA>
C55H71N4O5-

>  <PUBCHEM_MOLECULAR_WEIGHT>
868.196

>  <PUBCHEM_OPENEYE_CAN_SMILES>
CCC1=C(C2=NC1=CC3=C(C4=C(C(C(=C5C(=C(C(=N5)C=C6C(=C(C(=C2)N6)C=C)C)C)CCC(=O)OCC=C(C)CCCC(C)CCCC(C)CCCC(C)C)C4=N3)C(=O)OC)[O-])C)C

>  <PUBCHEM_OPENEYE_ISO_SMILES>
CCC1=C(C2=NC1=CC3=C(C4=C(C(C(=C5C(=C(C(=N5)C=C6C(=C(C(=C2)N6)C=C)C)C)CCC(=O)OC/C=C(\C)/CCCC(C)CCCC(C)CCCC(C)C)C4=N3)C(=O)OC)[O-])C)C

>  <PUBCHEM_CACTVS_TPSA>
125

>  <PUBCHEM_MONOISOTOPIC_WEIGHT>
867.542

>  <PUBCHEM_TOTAL_CHARGE>
-1

>  <PUBCHEM_HEAVY_ATOM_COUNT>
64

>  <PUBCHEM_ATOM_DEF_STEREO_COUNT>
0

>  <PUBCHEM_ATOM_UDEF_STEREO_COUNT>
3

>  <PUBCHEM_BOND_DEF_STEREO_COUNT>
1

>  <PUBCHEM_BOND_UDEF_STEREO_COUNT>
0

>  <PUBCHEM_ISOTOPIC_ATOM_COUNT>
0

>  <PUBCHEM_COMPONENT_COUNT>
1

>  <PUBCHEM_CACTVS_TAUTO_COUNT>
1001

>  <PUBCHEM_COORDINATE_TYPE>
1
5
255

>  <PUBCHEM_BONDANNOTATIONS>
10  19  3
13  21  3
24  28  8
24  30  8
25  39  3
28  29  8
29  34  8
30  33  8
33  35  8
34  36  8
35  38  8
36  44  8
38  45  8
44  48  8
45  49  8
48  50  8
49  51  8
50  52  8
51  56  8
52  55  8
54  56  8
54  57  8
55  57  8
6  28  8
6  36  8
7  30  8
7  38  8
8  49  8
8  54  8
9  48  8
9  55  8

$$$$
