26195174
 OpenBabel06101807152D

 54 56  0  0  0  0  0  0  0  0999 V2000
    6.3981    0.5746    0.0000 O   0  0  0  0  0  0  0  0  0  0  0  0
    8.1301    2.5746    0.0000 O   0  0  0  0  0  0  0  0  0  0  0  0
   10.7282   -0.9254    0.0000 O   0  0  0  0  0  0  0  0  0  0  0  0
    2.8680    2.5988    0.0000 O   0  0  0  0  0  0  0  0  0  0  0  0
    4.6497    3.6092    0.0000 O   0  0  0  0  0  0  0  0  0  0  0  0
    6.3981    3.5746    0.0000 O   0  0  0  0  0  0  0  0  0  0  0  0
    2.8680    0.5505    0.0000 O   0  0  0  0  0  0  0  0  0  0  0  0
    8.1301    0.5746    0.0000 C   0  0  0  0  0  0  0  0  0  0  0  0
    7.2641    1.0746    0.0000 C   0  0  0  0  0  0  0  0  0  0  0  0
    8.9962   -0.9254    0.0000 C   0  0  0  0  0  0  0  0  0  0  0  0
    5.5320    2.0746    0.0000 C   0  0  0  0  0  0  0  0  0  0  0  0
    8.1301   -0.4254    0.0000 C   0  0  0  0  0  0  0  0  0  0  0  0
    5.5320    1.0746    0.0000 C   0  0  0  0  0  0  0  0  0  0  0  0
    7.2641    2.0746    0.0000 C   0  0  0  0  0  0  0  0  0  0  0  0
    8.9962   -1.9254    0.0000 C   0  0  0  0  0  0  0  0  0  0  0  0
    9.8622   -0.4254    0.0000 C   0  0  0  0  0  0  0  0  0  0  0  0
    6.3981    2.5746    0.0000 C   0  0  0  0  0  0  0  0  0  0  0  0
    8.9962    1.0746    0.0000 C   0  0  0  0  0  0  0  0  0  0  0  0
    4.6381    2.6093    0.0000 C   0  0  0  0  0  0  0  0  0  0  0  0
    9.8622    0.5746    0.0000 C   0  0  0  0  0  0  0  0  0  0  0  0
    4.6381    0.5399    0.0000 C   0  0  0  0  0  0  0  0  0  0  0  0
    3.7320    2.0954    0.0000 C   0  0  0  0  0  0  0  0  0  0  0  0
    3.7320    1.0538    0.0000 C   0  0  0  0  0  0  0  0  0  0  0  0
    9.8622   -2.4254    0.0000 C   0  0  0  0  0  0  0  0  0  0  0  0
    9.8622   -3.4254    0.0000 C   0  0  0  0  0  0  0  0  0  0  0  0
   10.7282   -3.9254    0.0000 C   0  0  0  0  0  0  0  0  0  0  0  0
    8.9962   -3.9254    0.0000 C   0  0  0  0  0  0  0  0  0  0  0  0
    8.1301    3.5746    0.0000 C   0  0  0  0  0  0  0  0  0  0  0  0
   11.5942   -0.4254    0.0000 C   0  0  0  0  0  0  0  0  0  0  0  0
    2.0000    2.1021    0.0000 C   0  0  0  0  0  0  0  0  0  0  0  0
    7.5932   -0.7354    0.0000 H   0  0  0  0  0  0  0  0  0  0  0  0
    8.3856   -1.8177    0.0000 H   0  0  0  0  0  0  0  0  0  0  0  0
    8.7841   -2.5080    0.0000 H   0  0  0  0  0  0  0  0  0  0  0  0
    8.9962    1.6946    0.0000 H   0  0  0  0  0  0  0  0  0  0  0  0
   10.3991    0.8846    0.0000 H   0  0  0  0  0  0  0  0  0  0  0  0
    4.6453   -0.0800    0.0000 H   0  0  0  0  0  0  0  0  0  0  0  0
   10.3991   -2.1154    0.0000 H   0  0  0  0  0  0  0  0  0  0  0  0
   10.4182   -4.4623    0.0000 H   0  0  0  0  0  0  0  0  0  0  0  0
    8.6862   -3.3885    0.0000 H   0  0  0  0  0  0  0  0  0  0  0  0
    8.4592   -4.2354    0.0000 H   0  0  0  0  0  0  0  0  0  0  0  0
    9.3062   -4.4623    0.0000 H   0  0  0  0  0  0  0  0  0  0  0  0
   11.2651   -4.2354    0.0000 H   0  0  0  0  0  0  0  0  0  0  0  0
   11.0382   -3.3885    0.0000 H   0  0  0  0  0  0  0  0  0  0  0  0
    4.1164    3.9254    0.0000 H   0  0  0  0  0  0  0  0  0  0  0  0
    8.7501    3.5746    0.0000 H   0  0  0  0  0  0  0  0  0  0  0  0
    8.1301    4.1946    0.0000 H   0  0  0  0  0  0  0  0  0  0  0  0
    7.5101    3.5746    0.0000 H   0  0  0  0  0  0  0  0  0  0  0  0
   11.9042   -0.9623    0.0000 H   0  0  0  0  0  0  0  0  0  0  0  0
   12.1312   -0.1154    0.0000 H   0  0  0  0  0  0  0  0  0  0  0  0
   11.2842    0.1115    0.0000 H   0  0  0  0  0  0  0  0  0  0  0  0
    2.8703   -0.0695    0.0000 H   0  0  0  0  0  0  0  0  0  0  0  0
    1.6921    2.6402    0.0000 H   0  0  0  0  0  0  0  0  0  0  0  0
    1.4619    1.7942    0.0000 H   0  0  0  0  0  0  0  0  0  0  0  0
    2.3079    1.5640    0.0000 H   0  0  0  0  0  0  0  0  0  0  0  0
  1  9  1  0  0  0  0
  1 13  1  0  0  0  0
  2 14  1  0  0  0  0
  2 28  1  0  0  0  0
  3 16  1  0  0  0  0
  3 29  1  0  0  0  0
  4 22  1  0  0  0  0
  4 30  1  0  0  0  0
  5 19  1  0  0  0  0
  5 44  1  0  0  0  0
  6 17  2  0  0  0  0
  7 23  1  0  0  0  0
  7 51  1  0  0  0  0
  8  9  1  0  0  0  0
  8 12  2  0  0  0  0
  8 18  1  0  0  0  0
  9 14  2  0  0  0  0
 10 12  1  0  0  0  0
 10 15  1  0  0  0  0
 10 16  2  0  0  0  0
 11 13  2  0  0  0  0
 11 17  1  0  0  0  0
 11 19  1  0  0  0  0
 12 31  1  0  0  0  0
 13 21  1  0  0  0  0
 14 17  1  0  0  0  0
 15 24  1  0  0  0  0
 15 32  1  0  0  0  0
 15 33  1  0  0  0  0
 16 20  1  0  0  0  0
 18 20  2  0  0  0  0
 18 34  1  0  0  0  0
 19 22  2  0  0  0  0
 20 35  1  0  0  0  0
 21 23  2  0  0  0  0
 21 36  1  0  0  0  0
 22 23  1  0  0  0  0
 24 25  2  0  0  0  0
 24 37  1  0  0  0  0
 25 26  1  0  0  0  0
 25 27  1  0  0  0  0
 26 38  1  0  0  0  0
 26 42  1  0  0  0  0
 26 43  1  0  0  0  0
 27 39  1  0  0  0  0
 27 40  1  0  0  0  0
 27 41  1  0  0  0  0
 28 45  1  0  0  0  0
 28 46  1  0  0  0  0
 28 47  1  0  0  0  0
 29 48  1  0  0  0  0
 29 49  1  0  0  0  0
 29 50  1  0  0  0  0
 30 52  1  0  0  0  0
 30 53  1  0  0  0  0
 30 54  1  0  0  0  0
M  END
>  <PUBCHEM_COMPOUND_CID>
26195174

>  <PUBCHEM_COMPOUND_CANONICALIZED>
1

>  <PUBCHEM_CACTVS_COMPLEXITY>
681

>  <PUBCHEM_CACTVS_HBOND_ACCEPTOR>
7

>  <PUBCHEM_CACTVS_HBOND_DONOR>
2

>  <PUBCHEM_CACTVS_ROTATABLE_BOND>
6

>  <PUBCHEM_CACTVS_SUBSKEYS>
AAADceB4OAAAAAAAAAAAAAAAAAAAAAAAAAAwYIAAAAAAAACBQAAAGgAACAAADASAmAIyBoAABgCIAqBSAAICCAAkIAAIiAFGiMgNJzaGNR6CeWOl4BULuQfK7PzOIQADCAAIQABCAAYQABCAAAAAAAAAAA==

>  <PUBCHEM_IUPAC_OPENEYE_NAME>
5,7-dihydroxy-3,6-dimethoxy-2-[4-methoxy-3-(3-methylbut-2-enyl)phenyl]chromen-4-one

>  <PUBCHEM_IUPAC_CAS_NAME>
5,7-dihydroxy-3,6-dimethoxy-2-[4-methoxy-3-(3-methylbut-2-enyl)phenyl]-1-benzopyran-4-one

>  <PUBCHEM_IUPAC_NAME>
5,7-dihydroxy-3,6-dimethoxy-2-[4-methoxy-3-(3-methylbut-2-enyl)phenyl]chromen-4-one

>  <PUBCHEM_IUPAC_SYSTEMATIC_NAME>
3,6-dimethoxy-2-[4-methoxy-3-(3-methylbut-2-enyl)phenyl]-5,7-bis(oxidanyl)chromen-4-one

>  <PUBCHEM_IUPAC_TRADITIONAL_NAME>
5,7-dihydroxy-3,6-dimethoxy-2-[4-methoxy-3-(3-methylbut-2-enyl)phenyl]chromone

>  <PUBCHEM_IUPAC_INCHI>
InChI=1S/C23H24O7/c1-12(2)6-7-13-10-14(8-9-16(13)27-3)21-23(29-5)20(26)18-17(30-21)11-15(24)22(28-4)19(18)25/h6,8-11,24-25H,7H2,1-5H3

>  <PUBCHEM_IUPAC_INCHIKEY>
NVPPDJQPJXYMLK-UHFFFAOYSA-N

>  <PUBCHEM_XLOGP3_AA>
5.1

>  <PUBCHEM_EXACT_MASS>
412.152

>  <PUBCHEM_MOLECULAR_FORMULA>
C23H24O7

>  <PUBCHEM_MOLECULAR_WEIGHT>
412.438

>  <PUBCHEM_OPENEYE_CAN_SMILES>
CC(=CCC1=C(C=CC(=C1)C2=C(C(=O)C3=C(C(=C(C=C3O2)O)OC)O)OC)OC)C

>  <PUBCHEM_OPENEYE_ISO_SMILES>
CC(=CCC1=C(C=CC(=C1)C2=C(C(=O)C3=C(C(=C(C=C3O2)O)OC)O)OC)OC)C

>  <PUBCHEM_CACTVS_TPSA>
94.4

>  <PUBCHEM_MONOISOTOPIC_WEIGHT>
412.152

>  <PUBCHEM_TOTAL_CHARGE>
0

>  <PUBCHEM_HEAVY_ATOM_COUNT>
30

>  <PUBCHEM_ATOM_DEF_STEREO_COUNT>
0

>  <PUBCHEM_ATOM_UDEF_STEREO_COUNT>
0

>  <PUBCHEM_BOND_DEF_STEREO_COUNT>
0

>  <PUBCHEM_BOND_UDEF_STEREO_COUNT>
0

>  <PUBCHEM_ISOTOPIC_ATOM_COUNT>
0

>  <PUBCHEM_COMPONENT_COUNT>
1

>  <PUBCHEM_CACTVS_TAUTO_COUNT>
12

>  <PUBCHEM_COORDINATE_TYPE>
1
5
255

>  <PUBCHEM_BONDANNOTATIONS>
1  13  8
1  9  8
10  12  8
10  16  8
11  13  8
11  17  8
11  19  8
13  21  8
14  17  8
16  20  8
18  20  8
19  22  8
21  23  8
22  23  8
8  12  8
8  18  8
9  14  8

$$$$
