26238934
 OpenBabel06101807152D

 56 58  0  0  0  0  0  0  0  0999 V2000
    6.0290   -0.6117    0.0000 O   0  0  0  0  0  0  0  0  0  0  0  0
    2.5369   -0.5771    0.0000 O   0  0  0  0  0  0  0  0  0  0  0  0
    4.2690    2.4229    0.0000 O   0  0  0  0  0  0  0  0  0  0  0  0
    6.0174    2.4575    0.0000 O   0  0  0  0  0  0  0  0  0  0  0  0
   10.3914    2.9571    0.0000 O   0  0  0  0  0  0  0  0  0  0  0  0
    5.1350   -0.0771    0.0000 C   0  0  0  0  0  0  0  0  0  0  0  0
    4.2690   -0.5771    0.0000 C   0  0  0  0  0  0  0  0  0  0  0  0
    5.1350    0.9229    0.0000 C   0  0  0  0  0  0  0  0  0  0  0  0
    6.9350    0.9437    0.0000 C   0  0  0  0  0  0  0  0  0  0  0  0
    7.7991    1.4471    0.0000 C   0  0  0  0  0  0  0  0  0  0  0  0
    4.2690   -1.5771    0.0000 C   0  0  0  0  0  0  0  0  0  0  0  0
    6.0290    1.4576    0.0000 C   0  0  0  0  0  0  0  0  0  0  0  0
    3.4030   -0.0771    0.0000 C   0  0  0  0  0  0  0  0  0  0  0  0
    4.2690    1.4229    0.0000 C   0  0  0  0  0  0  0  0  0  0  0  0
    9.5312    1.4538    0.0000 C   0  0  0  0  0  0  0  0  0  0  0  0
    8.6671    0.9504    0.0000 C   0  0  0  0  0  0  0  0  0  0  0  0
    6.9350   -0.0979    0.0000 C   0  0  0  0  0  0  0  0  0  0  0  0
    3.4030    0.9229    0.0000 C   0  0  0  0  0  0  0  0  0  0  0  0
   10.3991    0.9571    0.0000 C   0  0  0  0  0  0  0  0  0  0  0  0
    7.7953    2.4471    0.0000 C   0  0  0  0  0  0  0  0  0  0  0  0
    3.4030   -2.0771    0.0000 C   0  0  0  0  0  0  0  0  0  0  0  0
    9.5273    2.4537    0.0000 C   0  0  0  0  0  0  0  0  0  0  0  0
    8.6594    2.9504    0.0000 C   0  0  0  0  0  0  0  0  0  0  0  0
    3.4030   -3.0771    0.0000 C   0  0  0  0  0  0  0  0  0  0  0  0
   10.4030   -0.0429    0.0000 C   0  0  0  0  0  0  0  0  0  0  0  0
   11.2709   -0.5396    0.0000 C   0  0  0  0  0  0  0  0  0  0  0  0
    2.5369   -3.5771    0.0000 C   0  0  0  0  0  0  0  0  0  0  0  0
    4.2690   -3.5771    0.0000 C   0  0  0  0  0  0  0  0  0  0  0  0
   11.2748   -1.5396    0.0000 C   0  0  0  0  0  0  0  0  0  0  0  0
   12.1350   -0.0362    0.0000 C   0  0  0  0  0  0  0  0  0  0  0  0
    4.4810   -2.1597    0.0000 H   0  0  0  0  0  0  0  0  0  0  0  0
    4.8796   -1.4694    0.0000 H   0  0  0  0  0  0  0  0  0  0  0  0
    8.6694    0.3304    0.0000 H   0  0  0  0  0  0  0  0  0  0  0  0
    7.4708   -0.4100    0.0000 H   0  0  0  0  0  0  0  0  0  0  0  0
    2.8660    1.2329    0.0000 H   0  0  0  0  0  0  0  0  0  0  0  0
   11.0101    0.8518    0.0000 H   0  0  0  0  0  0  0  0  0  0  0  0
   10.6089    1.5405    0.0000 H   0  0  0  0  0  0  0  0  0  0  0  0
    7.2571    2.7550    0.0000 H   0  0  0  0  0  0  0  0  0  0  0  0
    2.8660   -1.7671    0.0000 H   0  0  0  0  0  0  0  0  0  0  0  0
    8.6570    3.5704    0.0000 H   0  0  0  0  0  0  0  0  0  0  0  0
    9.8672   -0.3550    0.0000 H   0  0  0  0  0  0  0  0  0  0  0  0
    2.0000   -0.2671    0.0000 H   0  0  0  0  0  0  0  0  0  0  0  0
    3.7320    2.7329    0.0000 H   0  0  0  0  0  0  0  0  0  0  0  0
    2.2269   -3.0401    0.0000 H   0  0  0  0  0  0  0  0  0  0  0  0
    2.0000   -3.8871    0.0000 H   0  0  0  0  0  0  0  0  0  0  0  0
    2.8469   -4.1140    0.0000 H   0  0  0  0  0  0  0  0  0  0  0  0
    3.9590   -4.1140    0.0000 H   0  0  0  0  0  0  0  0  0  0  0  0
    4.8059   -3.8871    0.0000 H   0  0  0  0  0  0  0  0  0  0  0  0
    4.5790   -3.0401    0.0000 H   0  0  0  0  0  0  0  0  0  0  0  0
   10.3890    3.5771    0.0000 H   0  0  0  0  0  0  0  0  0  0  0  0
   10.6548   -1.5419    0.0000 H   0  0  0  0  0  0  0  0  0  0  0  0
   11.2771   -2.1596    0.0000 H   0  0  0  0  0  0  0  0  0  0  0  0
   12.4471   -0.5720    0.0000 H   0  0  0  0  0  0  0  0  0  0  0  0
   12.6707    0.2758    0.0000 H   0  0  0  0  0  0  0  0  0  0  0  0
   11.8229    0.4995    0.0000 H   0  0  0  0  0  0  0  0  0  0  0  0
   11.8947   -1.5372    0.0000 H   0  0  0  0  0  0  0  0  0  0  0  0
  1  6  1  0  0  0  0
  1 17  1  0  0  0  0
  2 13  1  0  0  0  0
  2 42  1  0  0  0  0
  3 14  1  0  0  0  0
  3 43  1  0  0  0  0
  4 12  2  0  0  0  0
  5 22  1  0  0  0  0
  5 50  1  0  0  0  0
  6  7  2  0  0  0  0
  6  8  1  0  0  0  0
  7 11  1  0  0  0  0
  7 13  1  0  0  0  0
  8 12  1  0  0  0  0
  8 14  2  0  0  0  0
  9 10  1  0  0  0  0
  9 12  1  0  0  0  0
  9 17  2  0  0  0  0
 10 16  2  0  0  0  0
 10 20  1  0  0  0  0
 11 21  1  0  0  0  0
 11 31  1  0  0  0  0
 11 32  1  0  0  0  0
 13 18  2  0  0  0  0
 14 18  1  0  0  0  0
 15 16  1  0  0  0  0
 15 19  1  0  0  0  0
 15 22  2  0  0  0  0
 16 33  1  0  0  0  0
 17 34  1  0  0  0  0
 18 35  1  0  0  0  0
 19 25  1  0  0  0  0
 19 36  1  0  0  0  0
 19 37  1  0  0  0  0
 20 23  2  0  0  0  0
 20 38  1  0  0  0  0
 21 24  2  0  0  0  0
 21 39  1  0  0  0  0
 22 23  1  0  0  0  0
 23 40  1  0  0  0  0
 24 27  1  0  0  0  0
 24 28  1  0  0  0  0
 25 26  2  0  0  0  0
 25 41  1  0  0  0  0
 26 29  1  0  0  0  0
 26 30  1  0  0  0  0
 27 44  1  0  0  0  0
 27 45  1  0  0  0  0
 27 46  1  0  0  0  0
 28 47  1  0  0  0  0
 28 48  1  0  0  0  0
 28 49  1  0  0  0  0
 29 51  1  0  0  0  0
 29 52  1  0  0  0  0
 29 56  1  0  0  0  0
 30 53  1  0  0  0  0
 30 54  1  0  0  0  0
 30 55  1  0  0  0  0
M  END
>  <PUBCHEM_COMPOUND_CID>
26238934

>  <PUBCHEM_COMPOUND_CANONICALIZED>
1

>  <PUBCHEM_CACTVS_COMPLEXITY>
713

>  <PUBCHEM_CACTVS_HBOND_ACCEPTOR>
5

>  <PUBCHEM_CACTVS_HBOND_DONOR>
3

>  <PUBCHEM_CACTVS_ROTATABLE_BOND>
5

>  <PUBCHEM_CACTVS_SUBSKEYS>
AAADceB4OAAAAAAAAAAAAAAAAAAAAAAAAAAwYIAAAAAAAACBQAAAGgAACAAADASgmAIyBoAABgCIAqBSAAACCAAkIAAIiAEGCMgMJzaGNRqAcWAl4BUIuYeI7PzOIAACCAAIAABAAAQQABAAAAAAAAAAAA==

>  <PUBCHEM_IUPAC_OPENEYE_NAME>
5,7-dihydroxy-3-[4-hydroxy-3-(3-methylbut-2-enyl)phenyl]-8-(3-methylbut-2-enyl)chromen-4-one

>  <PUBCHEM_IUPAC_CAS_NAME>
5,7-dihydroxy-3-[4-hydroxy-3-(3-methylbut-2-enyl)phenyl]-8-(3-methylbut-2-enyl)-1-benzopyran-4-one

>  <PUBCHEM_IUPAC_NAME>
5,7-dihydroxy-3-[4-hydroxy-3-(3-methylbut-2-enyl)phenyl]-8-(3-methylbut-2-enyl)chromen-4-one

>  <PUBCHEM_IUPAC_SYSTEMATIC_NAME>
8-(3-methylbut-2-enyl)-3-[3-(3-methylbut-2-enyl)-4-oxidanyl-phenyl]-5,7-bis(oxidanyl)chromen-4-one

>  <PUBCHEM_IUPAC_TRADITIONAL_NAME>
5,7-dihydroxy-3-[4-hydroxy-3-(3-methylbut-2-enyl)phenyl]-8-(3-methylbut-2-enyl)chromone

>  <PUBCHEM_IUPAC_INCHI>
InChI=1S/C25H26O5/c1-14(2)5-7-17-11-16(8-10-20(17)26)19-13-30-25-18(9-6-15(3)4)21(27)12-22(28)23(25)24(19)29/h5-6,8,10-13,26-28H,7,9H2,1-4H3

>  <PUBCHEM_IUPAC_INCHIKEY>
FXJPTJQFJYNFKC-UHFFFAOYSA-N

>  <PUBCHEM_XLOGP3_AA>
6.5

>  <PUBCHEM_EXACT_MASS>
406.178

>  <PUBCHEM_MOLECULAR_FORMULA>
C25H26O5

>  <PUBCHEM_MOLECULAR_WEIGHT>
406.478

>  <PUBCHEM_OPENEYE_CAN_SMILES>
CC(=CCC1=C(C=CC(=C1)C2=COC3=C(C2=O)C(=CC(=C3CC=C(C)C)O)O)O)C

>  <PUBCHEM_OPENEYE_ISO_SMILES>
CC(=CCC1=C(C=CC(=C1)C2=COC3=C(C2=O)C(=CC(=C3CC=C(C)C)O)O)O)C

>  <PUBCHEM_CACTVS_TPSA>
87

>  <PUBCHEM_MONOISOTOPIC_WEIGHT>
406.178

>  <PUBCHEM_TOTAL_CHARGE>
0

>  <PUBCHEM_HEAVY_ATOM_COUNT>
30

>  <PUBCHEM_ATOM_DEF_STEREO_COUNT>
0

>  <PUBCHEM_ATOM_UDEF_STEREO_COUNT>
0

>  <PUBCHEM_BOND_DEF_STEREO_COUNT>
0

>  <PUBCHEM_BOND_UDEF_STEREO_COUNT>
0

>  <PUBCHEM_ISOTOPIC_ATOM_COUNT>
0

>  <PUBCHEM_COMPONENT_COUNT>
1

>  <PUBCHEM_CACTVS_TAUTO_COUNT>
36

>  <PUBCHEM_COORDINATE_TYPE>
1
5
255

>  <PUBCHEM_BONDANNOTATIONS>
1  17  8
1  6  8
10  16  8
10  20  8
13  18  8
14  18  8
15  16  8
15  22  8
20  23  8
22  23  8
6  7  8
6  8  8
7  13  8
8  12  8
8  14  8
9  12  8
9  17  8

$$$$
