274476
 OpenBabel06101807152D

 28 29  0  0  1  0  0  0  0  0999 V2000
    3.7687   -1.8542    0.0000 O   0  0  0  0  0  0  0  0  0  0  0  0
    2.0000   -1.6371    0.0000 O   0  0  0  0  0  0  0  0  0  0  0  0
    4.5120    0.9600    0.0000 C   0  0  0  0  0  0  0  0  0  0  0  0
    4.9898   -0.9886    0.0000 C   0  0  3  0  0  0  0  0  0  0  0  0
    5.2486   -0.0226    0.0000 C   0  0  3  0  0  0  0  0  0  0  0  0
    6.3887   -1.4974    0.0000 C   0  0  0  0  0  0  0  0  0  0  0  0
    6.6475   -0.5315    0.0000 C   0  0  0  0  0  0  0  0  0  0  0  0
    3.2153   -0.3338    0.0000 C   0  0  0  0  0  0  0  0  0  0  0  0
    4.6165    1.9545    0.0000 C   0  0  0  0  0  0  0  0  0  0  0  0
    3.5984    1.3667    0.0000 C   0  0  0  0  0  0  0  0  0  0  0  0
    4.7309   -1.9545    0.0000 C   0  0  0  0  0  0  0  0  0  0  0  0
    2.9397   -1.2950    0.0000 C   0  0  0  0  0  0  0  0  0  0  0  0
    5.7550    0.6601    0.0000 H   0  0  0  0  0  0  0  0  0  0  0  0
    6.1938   -2.0860    0.0000 H   0  0  0  0  0  0  0  0  0  0  0  0
    6.9827   -1.6752    0.0000 H   0  0  0  0  0  0  0  0  0  0  0  0
    7.2415   -0.7092    0.0000 H   0  0  0  0  0  0  0  0  0  0  0  0
    6.8424    0.0571    0.0000 H   0  0  0  0  0  0  0  0  0  0  0  0
    3.2103    0.2862    0.0000 H   0  0  0  0  0  0  0  0  0  0  0  0
    2.6010   -0.2500    0.0000 H   0  0  0  0  0  0  0  0  0  0  0  0
    5.2331    1.8897    0.0000 H   0  0  0  0  0  0  0  0  0  0  0  0
    4.6813    2.5711    0.0000 H   0  0  0  0  0  0  0  0  0  0  0  0
    3.9999    2.0193    0.0000 H   0  0  0  0  0  0  0  0  0  0  0  0
    3.8506    1.9331    0.0000 H   0  0  0  0  0  0  0  0  0  0  0  0
    3.0320    1.6189    0.0000 H   0  0  0  0  0  0  0  0  0  0  0  0
    3.3462    0.8003    0.0000 H   0  0  0  0  0  0  0  0  0  0  0  0
    4.1321   -1.7940    0.0000 H   0  0  0  0  0  0  0  0  0  0  0  0
    4.5705   -2.5534    0.0000 H   0  0  0  0  0  0  0  0  0  0  0  0
    5.3298   -2.1150    0.0000 H   0  0  0  0  0  0  0  0  0  0  0  0
  1  4  1  0  0  0  0
  1 12  1  0  0  0  0
  2 12  2  0  0  0  0
  3  4  1  0  0  0  0
  3  5  1  0  0  0  0
  3  9  1  0  0  0  0
  3 10  1  0  0  0  0
  4  6  1  0  0  0  0
  4 11  1  0  0  0  0
  5  7  1  0  0  0  0
  5  8  1  0  0  0  0
  5 13  1  0  0  0  0
  6  7  1  0  0  0  0
  6 14  1  0  0  0  0
  6 15  1  0  0  0  0
  7 16  1  0  0  0  0
  7 17  1  0  0  0  0
  8 12  1  0  0  0  0
  8 18  1  0  0  0  0
  8 19  1  0  0  0  0
  9 20  1  0  0  0  0
  9 21  1  0  0  0  0
  9 22  1  0  0  0  0
 10 23  1  0  0  0  0
 10 24  1  0  0  0  0
 10 25  1  0  0  0  0
 11 26  1  0  0  0  0
 11 27  1  0  0  0  0
 11 28  1  0  0  0  0
M  END
>  <PUBCHEM_COMPOUND_CID>
274476

>  <PUBCHEM_COMPOUND_CANONICALIZED>
1

>  <PUBCHEM_CACTVS_COMPLEXITY>
232

>  <PUBCHEM_CACTVS_HBOND_ACCEPTOR>
2

>  <PUBCHEM_CACTVS_HBOND_DONOR>
0

>  <PUBCHEM_CACTVS_ROTATABLE_BOND>
0

>  <PUBCHEM_CACTVS_SUBSKEYS>
AAADceBwMAAAAAAAAAAAAAAAAAAAAYAAAAAkAAAABIAAAAAAAAAAGgAAAAAAD0SAgAACCAAABAAIAACQCAAAAAAAAAAAAAEAAAAAABIAAAACAAAEAAAAAAGIzPDPgAAAAAAAAAAAAAAAAAAAAYAADAAAAA==

>  <PUBCHEM_IUPAC_OPENEYE_NAME>
5,8,8-trimethyl-4-oxabicyclo[3.2.1]octan-3-one

>  <PUBCHEM_IUPAC_CAS_NAME>
5,8,8-trimethyl-4-oxabicyclo[3.2.1]octan-3-one

>  <PUBCHEM_IUPAC_NAME>
5,8,8-trimethyl-4-oxabicyclo[3.2.1]octan-3-one

>  <PUBCHEM_IUPAC_SYSTEMATIC_NAME>
5,8,8-trimethyl-4-oxabicyclo[3.2.1]octan-3-one

>  <PUBCHEM_IUPAC_TRADITIONAL_NAME>
5,8,8-trimethyl-4-oxabicyclo[3.2.1]octan-3-one

>  <PUBCHEM_IUPAC_INCHI>
InChI=1S/C10H16O2/c1-9(2)7-4-5-10(9,3)12-8(11)6-7/h7H,4-6H2,1-3H3

>  <PUBCHEM_IUPAC_INCHIKEY>
AXRMSBLBSHJLGO-UHFFFAOYSA-N

>  <PUBCHEM_XLOGP3_AA>
2

>  <PUBCHEM_EXACT_MASS>
168.115

>  <PUBCHEM_MOLECULAR_FORMULA>
C10H16O2

>  <PUBCHEM_MOLECULAR_WEIGHT>
168.236

>  <PUBCHEM_OPENEYE_CAN_SMILES>
CC1(C2CCC1(OC(=O)C2)C)C

>  <PUBCHEM_OPENEYE_ISO_SMILES>
CC1(C2CCC1(OC(=O)C2)C)C

>  <PUBCHEM_CACTVS_TPSA>
26.3

>  <PUBCHEM_MONOISOTOPIC_WEIGHT>
168.115

>  <PUBCHEM_TOTAL_CHARGE>
0

>  <PUBCHEM_HEAVY_ATOM_COUNT>
12

>  <PUBCHEM_ATOM_DEF_STEREO_COUNT>
0

>  <PUBCHEM_ATOM_UDEF_STEREO_COUNT>
2

>  <PUBCHEM_BOND_DEF_STEREO_COUNT>
0

>  <PUBCHEM_BOND_UDEF_STEREO_COUNT>
0

>  <PUBCHEM_ISOTOPIC_ATOM_COUNT>
0

>  <PUBCHEM_COMPONENT_COUNT>
1

>  <PUBCHEM_CACTVS_TAUTO_COUNT>
2

>  <PUBCHEM_COORDINATE_TYPE>
1
5
255

>  <PUBCHEM_BONDANNOTATIONS>
4  11  3
5  13  3

$$$$
