275010
 OpenBabel06101807152D

 26 27  0  0  1  0  0  0  0  0999 V2000
    2.3100    0.2306    0.0000 O   0  0  0  0  0  0  0  0  0  0  0  0
    2.5010    1.8184    0.0000 O   0  0  0  0  0  0  0  0  0  0  0  0
    4.8100    1.0966    0.0000 O   0  0  0  0  0  0  0  0  0  0  0  0
    4.8100   -0.6354    0.0000 O   0  0  0  0  0  0  0  0  0  0  0  0
    3.3100    0.2306    0.0000 C   0  0  3  0  0  0  0  0  0  0  0  0
    3.3100   -0.7694    0.0000 C   0  0  0  0  0  0  0  0  0  0  0  0
    3.3100    1.2306    0.0000 C   0  0  0  0  0  0  0  0  0  0  0  0
    4.3100    0.2306    0.0000 C   0  0  0  0  0  0  0  0  0  0  0  0
    2.4440   -1.2694    0.0000 C   0  0  0  0  0  0  0  0  0  0  0  0
    4.1760   -1.2694    0.0000 C   0  0  0  0  0  0  0  0  0  0  0  0
    4.1190    1.8184    0.0000 C   0  0  0  0  0  0  0  0  0  0  0  0
    2.4440   -2.2694    0.0000 C   0  0  0  0  0  0  0  0  0  0  0  0
    4.1760   -2.2694    0.0000 C   0  0  0  0  0  0  0  0  0  0  0  0
    3.8100    2.7694    0.0000 C   0  0  0  0  0  0  0  0  0  0  0  0
    2.8100    2.7694    0.0000 C   0  0  0  0  0  0  0  0  0  0  0  0
    3.3100   -2.7694    0.0000 C   0  0  0  0  0  0  0  0  0  0  0  0
    1.9070   -0.9594    0.0000 H   0  0  0  0  0  0  0  0  0  0  0  0
    4.7130   -0.9594    0.0000 H   0  0  0  0  0  0  0  0  0  0  0  0
    4.7087    1.6268    0.0000 H   0  0  0  0  0  0  0  0  0  0  0  0
    2.0000    0.7675    0.0000 H   0  0  0  0  0  0  0  0  0  0  0  0
    1.9070   -2.5794    0.0000 H   0  0  0  0  0  0  0  0  0  0  0  0
    4.7130   -2.5794    0.0000 H   0  0  0  0  0  0  0  0  0  0  0  0
    4.1744    3.2710    0.0000 H   0  0  0  0  0  0  0  0  0  0  0  0
    2.4456    3.2710    0.0000 H   0  0  0  0  0  0  0  0  0  0  0  0
    3.3100   -3.3894    0.0000 H   0  0  0  0  0  0  0  0  0  0  0  0
    5.4300    1.0966    0.0000 H   0  0  0  0  0  0  0  0  0  0  0  0
  1  5  1  0  0  0  0
  1 20  1  0  0  0  0
  2  7  1  0  0  0  0
  2 15  1  0  0  0  0
  3  8  1  0  0  0  0
  3 26  1  0  0  0  0
  4  8  2  0  0  0  0
  5  6  1  0  0  0  0
  5  7  1  0  0  0  0
  5  8  1  0  0  0  0
  6  9  2  0  0  0  0
  6 10  1  0  0  0  0
  7 11  2  0  0  0  0
  9 12  1  0  0  0  0
  9 17  1  0  0  0  0
 10 13  2  0  0  0  0
 10 18  1  0  0  0  0
 11 14  1  0  0  0  0
 11 19  1  0  0  0  0
 12 16  2  0  0  0  0
 12 21  1  0  0  0  0
 13 16  1  0  0  0  0
 13 22  1  0  0  0  0
 14 15  2  0  0  0  0
 14 23  1  0  0  0  0
 15 24  1  0  0  0  0
 16 25  1  0  0  0  0
M  END
>  <PUBCHEM_COMPOUND_CID>
275010

>  <PUBCHEM_COMPOUND_CANONICALIZED>
1

>  <PUBCHEM_CACTVS_COMPLEXITY>
260

>  <PUBCHEM_CACTVS_HBOND_ACCEPTOR>
4

>  <PUBCHEM_CACTVS_HBOND_DONOR>
2

>  <PUBCHEM_CACTVS_ROTATABLE_BOND>
3

>  <PUBCHEM_CACTVS_SUBSKEYS>
AAADccBwOAAAAAAAAAAAAAAAAAAAASAAAAAwAAAAAAAAAAABwAAAGgAACAAADESgmAIwDIAABkCIAqjSiAICCAAkIAAIiAFGCMgNJjaMNRqCeSCl4BELuYeI7PTOgAAAAAAAAAAAAAAAAAAAAAAAAAAAAA==

>  <PUBCHEM_IUPAC_OPENEYE_NAME>
2-(2-furyl)-2-hydroxy-2-phenyl-acetic acid

>  <PUBCHEM_IUPAC_CAS_NAME>
2-(2-furanyl)-2-hydroxy-2-phenylacetic acid

>  <PUBCHEM_IUPAC_NAME>
2-(furan-2-yl)-2-hydroxy-2-phenylacetic acid

>  <PUBCHEM_IUPAC_SYSTEMATIC_NAME>
2-(furan-2-yl)-2-oxidanyl-2-phenyl-ethanoic acid

>  <PUBCHEM_IUPAC_TRADITIONAL_NAME>
2-(2-furyl)-2-hydroxy-2-phenyl-acetic acid

>  <PUBCHEM_IUPAC_INCHI>
InChI=1S/C12H10O4/c13-11(14)12(15,10-7-4-8-16-10)9-5-2-1-3-6-9/h1-8,15H,(H,13,14)

>  <PUBCHEM_IUPAC_INCHIKEY>
WRDWRFQPCQESHV-UHFFFAOYSA-N

>  <PUBCHEM_XLOGP3_AA>
1.4

>  <PUBCHEM_EXACT_MASS>
218.058

>  <PUBCHEM_MOLECULAR_FORMULA>
C12H10O4

>  <PUBCHEM_MOLECULAR_WEIGHT>
218.208

>  <PUBCHEM_OPENEYE_CAN_SMILES>
C1=CC=C(C=C1)C(C2=CC=CO2)(C(=O)O)O

>  <PUBCHEM_OPENEYE_ISO_SMILES>
C1=CC=C(C=C1)C(C2=CC=CO2)(C(=O)O)O

>  <PUBCHEM_CACTVS_TPSA>
70.7

>  <PUBCHEM_MONOISOTOPIC_WEIGHT>
218.058

>  <PUBCHEM_TOTAL_CHARGE>
0

>  <PUBCHEM_HEAVY_ATOM_COUNT>
16

>  <PUBCHEM_ATOM_DEF_STEREO_COUNT>
0

>  <PUBCHEM_ATOM_UDEF_STEREO_COUNT>
1

>  <PUBCHEM_BOND_DEF_STEREO_COUNT>
0

>  <PUBCHEM_BOND_UDEF_STEREO_COUNT>
0

>  <PUBCHEM_ISOTOPIC_ATOM_COUNT>
0

>  <PUBCHEM_COMPONENT_COUNT>
1

>  <PUBCHEM_CACTVS_TAUTO_COUNT>
1

>  <PUBCHEM_COORDINATE_TYPE>
1
5
255

>  <PUBCHEM_BONDANNOTATIONS>
10  13  8
11  14  8
12  16  8
13  16  8
14  15  8
2  15  8
2  7  8
5  8  3
6  10  8
6  9  8
7  11  8
9  12  8

$$$$
