2762958
 OpenBabel06101807152D

 36 37  0  0  0  0  0  0  0  0999 V2000
    3.4030    0.6900    0.0000 O   0  0  0  0  0  0  0  0  0  0  0  0
    2.5369   -0.8100    0.0000 O   0  0  0  0  0  0  0  0  0  0  0  0
    4.2690   -3.8100    0.0000 O   0  0  0  0  0  0  0  0  0  0  0  0
    8.5991    3.6900    0.0000 O   0  0  0  0  0  0  0  0  0  0  0  0
    5.1350    1.6900    0.0000 C   0  0  0  0  0  0  0  0  0  0  0  0
    5.1350    0.6900    0.0000 C   0  0  0  0  0  0  0  0  0  0  0  0
    6.0010    2.1900    0.0000 C   0  0  0  0  0  0  0  0  0  0  0  0
    4.2690    0.1900    0.0000 C   0  0  0  0  0  0  0  0  0  0  0  0
    4.2690   -0.8100    0.0000 C   0  0  0  0  0  0  0  0  0  0  0  0
    6.8671    1.6900    0.0000 C   0  0  0  0  0  0  0  0  0  0  0  0
    6.0010    3.1900    0.0000 C   0  0  0  0  0  0  0  0  0  0  0  0
    3.4030   -1.3100    0.0000 C   0  0  0  0  0  0  0  0  0  0  0  0
    5.1350   -1.3100    0.0000 C   0  0  0  0  0  0  0  0  0  0  0  0
    3.4030   -2.3100    0.0000 C   0  0  0  0  0  0  0  0  0  0  0  0
    7.7331    2.1900    0.0000 C   0  0  0  0  0  0  0  0  0  0  0  0
    6.8671    3.6900    0.0000 C   0  0  0  0  0  0  0  0  0  0  0  0
    5.1350   -2.3100    0.0000 C   0  0  0  0  0  0  0  0  0  0  0  0
    4.2690   -2.8100    0.0000 C   0  0  0  0  0  0  0  0  0  0  0  0
    7.7331    3.1900    0.0000 C   0  0  0  0  0  0  0  0  0  0  0  0
    5.1350   -4.3100    0.0000 C   0  0  0  0  0  0  0  0  0  0  0  0
    4.9230    2.2726    0.0000 H   0  0  0  0  0  0  0  0  0  0  0  0
    4.5244    1.5823    0.0000 H   0  0  0  0  0  0  0  0  0  0  0  0
    5.3471    0.1074    0.0000 H   0  0  0  0  0  0  0  0  0  0  0  0
    5.7456    0.7977    0.0000 H   0  0  0  0  0  0  0  0  0  0  0  0
    6.8671    1.0700    0.0000 H   0  0  0  0  0  0  0  0  0  0  0  0
    5.4641    3.5000    0.0000 H   0  0  0  0  0  0  0  0  0  0  0  0
    5.6720   -1.0000    0.0000 H   0  0  0  0  0  0  0  0  0  0  0  0
    2.8660   -2.6200    0.0000 H   0  0  0  0  0  0  0  0  0  0  0  0
    8.2700    1.8800    0.0000 H   0  0  0  0  0  0  0  0  0  0  0  0
    6.8671    4.3100    0.0000 H   0  0  0  0  0  0  0  0  0  0  0  0
    5.6720   -2.6200    0.0000 H   0  0  0  0  0  0  0  0  0  0  0  0
    2.0000   -1.1200    0.0000 H   0  0  0  0  0  0  0  0  0  0  0  0
    8.5991    4.3100    0.0000 H   0  0  0  0  0  0  0  0  0  0  0  0
    4.8250   -4.8469    0.0000 H   0  0  0  0  0  0  0  0  0  0  0  0
    5.6720   -4.6200    0.0000 H   0  0  0  0  0  0  0  0  0  0  0  0
    5.4450   -3.7731    0.0000 H   0  0  0  0  0  0  0  0  0  0  0  0
  1  8  2  0  0  0  0
  2 12  1  0  0  0  0
  2 32  1  0  0  0  0
  3 18  1  0  0  0  0
  3 20  1  0  0  0  0
  4 19  1  0  0  0  0
  4 33  1  0  0  0  0
  5  6  1  0  0  0  0
  5  7  1  0  0  0  0
  5 21  1  0  0  0  0
  5 22  1  0  0  0  0
  6  8  1  0  0  0  0
  6 23  1  0  0  0  0
  6 24  1  0  0  0  0
  7 10  2  0  0  0  0
  7 11  1  0  0  0  0
  8  9  1  0  0  0  0
  9 12  2  0  0  0  0
  9 13  1  0  0  0  0
 10 15  1  0  0  0  0
 10 25  1  0  0  0  0
 11 16  2  0  0  0  0
 11 26  1  0  0  0  0
 12 14  1  0  0  0  0
 13 17  2  0  0  0  0
 13 27  1  0  0  0  0
 14 18  2  0  0  0  0
 14 28  1  0  0  0  0
 15 19  2  0  0  0  0
 15 29  1  0  0  0  0
 16 19  1  0  0  0  0
 16 30  1  0  0  0  0
 17 18  1  0  0  0  0
 17 31  1  0  0  0  0
 20 34  1  0  0  0  0
 20 35  1  0  0  0  0
 20 36  1  0  0  0  0
M  END
>  <PUBCHEM_COMPOUND_CID>
2762958

>  <PUBCHEM_COMPOUND_CANONICALIZED>
1

>  <PUBCHEM_CACTVS_COMPLEXITY>
310

>  <PUBCHEM_CACTVS_HBOND_ACCEPTOR>
4

>  <PUBCHEM_CACTVS_HBOND_DONOR>
2

>  <PUBCHEM_CACTVS_ROTATABLE_BOND>
5

>  <PUBCHEM_CACTVS_SUBSKEYS>
AAADceB4OAAAAAAAAAAAAAAAAAAAAAAAAAAwYAAAAAAAAAABQAAAGgAACAAADASAmAIyBoAABgCIAqBSAAACCAAkIAAIiAEGCMgMJzaGNRqAcWAl4BUIuYeI7OzOIAAACAAIAABAAAAQABAAAAAAAAAAAA==

>  <PUBCHEM_IUPAC_OPENEYE_NAME>
1-(2-hydroxy-4-methoxy-phenyl)-3-(4-hydroxyphenyl)propan-1-one

>  <PUBCHEM_IUPAC_CAS_NAME>
1-(2-hydroxy-4-methoxyphenyl)-3-(4-hydroxyphenyl)-1-propanone

>  <PUBCHEM_IUPAC_NAME>
1-(2-hydroxy-4-methoxyphenyl)-3-(4-hydroxyphenyl)propan-1-one

>  <PUBCHEM_IUPAC_SYSTEMATIC_NAME>
3-(4-hydroxyphenyl)-1-(4-methoxy-2-oxidanyl-phenyl)propan-1-one

>  <PUBCHEM_IUPAC_TRADITIONAL_NAME>
1-(2-hydroxy-4-methoxy-phenyl)-3-(4-hydroxyphenyl)propan-1-one

>  <PUBCHEM_IUPAC_INCHI>
InChI=1S/C16H16O4/c1-20-13-7-8-14(16(19)10-13)15(18)9-4-11-2-5-12(17)6-3-11/h2-3,5-8,10,17,19H,4,9H2,1H3

>  <PUBCHEM_IUPAC_INCHIKEY>
MEZSKKITJGNMJJ-UHFFFAOYSA-N

>  <PUBCHEM_XLOGP3>
3.5

>  <PUBCHEM_EXACT_MASS>
272.105

>  <PUBCHEM_MOLECULAR_FORMULA>
C16H16O4

>  <PUBCHEM_MOLECULAR_WEIGHT>
272.3

>  <PUBCHEM_OPENEYE_CAN_SMILES>
COC1=CC(=C(C=C1)C(=O)CCC2=CC=C(C=C2)O)O

>  <PUBCHEM_OPENEYE_ISO_SMILES>
COC1=CC(=C(C=C1)C(=O)CCC2=CC=C(C=C2)O)O

>  <PUBCHEM_CACTVS_TPSA>
66.8

>  <PUBCHEM_MONOISOTOPIC_WEIGHT>
272.105

>  <PUBCHEM_TOTAL_CHARGE>
0

>  <PUBCHEM_HEAVY_ATOM_COUNT>
20

>  <PUBCHEM_ATOM_DEF_STEREO_COUNT>
0

>  <PUBCHEM_ATOM_UDEF_STEREO_COUNT>
0

>  <PUBCHEM_BOND_DEF_STEREO_COUNT>
0

>  <PUBCHEM_BOND_UDEF_STEREO_COUNT>
0

>  <PUBCHEM_ISOTOPIC_ATOM_COUNT>
0

>  <PUBCHEM_COMPONENT_COUNT>
1

>  <PUBCHEM_CACTVS_TAUTO_COUNT>
18

>  <PUBCHEM_COORDINATE_TYPE>
1
5
255

>  <PUBCHEM_BONDANNOTATIONS>
10  15  8
11  16  8
12  14  8
13  17  8
14  18  8
15  19  8
16  19  8
17  18  8
7  10  8
7  11  8
9  12  8
9  13  8

$$$$
