287688
 OpenBabel06101807152D

 75 80  0  0  1  0  0  0  0  0999 V2000
    5.5954   -2.9096    0.0000 O   0  0  0  0  0  0  0  0  0  0  0  0
    3.9300   -1.8284    0.0000 O   0  0  0  0  0  0  0  0  0  0  0  0
   10.1833    3.5014    0.0000 O   0  0  0  0  0  0  0  0  0  0  0  0
   12.0027    2.4696    0.0000 O   0  0  0  0  0  0  0  0  0  0  0  0
    6.6628   -0.6748    0.0000 C   0  0  3  0  0  0  0  0  0  0  0  0
    7.5288   -1.1748    0.0000 C   0  0  3  0  0  0  0  0  0  0  0  0
    8.3948   -0.6748    0.0000 C   0  0  3  0  0  0  0  0  0  0  0  0
    5.9258   -1.3418    0.0000 C   0  0  3  0  0  0  0  0  0  0  0  0
    8.3948    0.3252    0.0000 C   0  0  3  0  0  0  0  0  0  0  0  0
    6.3309   -2.2496    0.0000 C   0  0  3  0  0  0  0  0  0  0  0  0
    9.2888    0.8599    0.0000 C   0  0  3  0  0  0  0  0  0  0  0  0
    7.3196   -2.1466    0.0000 C   0  0  0  0  0  0  0  0  0  0  0  0
    6.6628    0.3252    0.0000 C   0  0  0  0  0  0  0  0  0  0  0  0
    7.5288    0.8252    0.0000 C   0  0  0  0  0  0  0  0  0  0  0  0
    4.9434   -1.4486    0.0000 C   0  0  3  0  0  0  0  0  0  0  0  0
   10.1949    0.3460    0.0000 C   0  0  3  0  0  0  0  0  0  0  0  0
    9.2888   -1.2094    0.0000 C   0  0  0  0  0  0  0  0  0  0  0  0
    4.7396   -2.4155    0.0000 C   0  0  3  0  0  0  0  0  0  0  0  0
   10.1949   -0.6956    0.0000 C   0  0  0  0  0  0  0  0  0  0  0  0
    5.7968   -0.1748    0.0000 C   0  0  0  0  0  0  0  0  0  0  0  0
    9.2637    1.9446    0.0000 C   0  0  0  0  0  0  0  0  0  0  0  0
   11.1386    0.8813    0.0000 C   0  0  0  0  0  0  0  0  0  0  0  0
    8.4189    1.3532    0.0000 C   0  0  0  0  0  0  0  0  0  0  0  0
   10.1949    2.5015    0.0000 C   0  0  3  0  0  0  0  0  0  0  0  0
    4.2723   -0.7071    0.0000 C   0  0  0  0  0  0  0  0  0  0  0  0
    4.6359   -3.4101    0.0000 C   0  0  0  0  0  0  0  0  0  0  0  0
   11.1386    1.9663    0.0000 C   0  0  3  0  0  0  0  0  0  0  0  0
    3.7227   -3.8176    0.0000 C   0  0  0  0  0  0  0  0  0  0  0  0
    3.0169   -2.2359    0.0000 C   0  0  0  0  0  0  0  0  0  0  0  0
    2.9132   -3.2306    0.0000 C   0  0  3  0  0  0  0  0  0  0  0  0
    2.0000   -3.6381    0.0000 C   0  0  0  0  0  0  0  0  0  0  0  0
    8.0299   -1.5398    0.0000 H   0  0  0  0  0  0  0  0  0  0  0  0
    8.3901   -1.2948    0.0000 H   0  0  0  0  0  0  0  0  0  0  0  0
    5.6719   -0.7762    0.0000 H   0  0  0  0  0  0  0  0  0  0  0  0
    8.9342    0.0194    0.0000 H   0  0  0  0  0  0  0  0  0  0  0  0
    6.5823   -2.8164    0.0000 H   0  0  0  0  0  0  0  0  0  0  0  0
    7.3187   -2.7666    0.0000 H   0  0  0  0  0  0  0  0  0  0  0  0
    7.9361   -2.2126    0.0000 H   0  0  0  0  0  0  0  0  0  0  0  0
    6.4507    0.9078    0.0000 H   0  0  0  0  0  0  0  0  0  0  0  0
    6.0522    0.2176    0.0000 H   0  0  0  0  0  0  0  0  0  0  0  0
    7.9274    1.3002    0.0000 H   0  0  0  0  0  0  0  0  0  0  0  0
    7.1303    1.3002    0.0000 H   0  0  0  0  0  0  0  0  0  0  0  0
    4.3448   -1.6103    0.0000 H   0  0  0  0  0  0  0  0  0  0  0  0
   10.7306    0.0340    0.0000 H   0  0  0  0  0  0  0  0  0  0  0  0
    8.8842   -1.6792    0.0000 H   0  0  0  0  0  0  0  0  0  0  0  0
    9.6824   -1.6884    0.0000 H   0  0  0  0  0  0  0  0  0  0  0  0
   10.4039   -1.2793    0.0000 H   0  0  0  0  0  0  0  0  0  0  0  0
   10.8057   -0.5895    0.0000 H   0  0  0  0  0  0  0  0  0  0  0  0
    6.1068    0.3622    0.0000 H   0  0  0  0  0  0  0  0  0  0  0  0
    5.2598    0.1352    0.0000 H   0  0  0  0  0  0  0  0  0  0  0  0
    5.4868   -0.7117    0.0000 H   0  0  0  0  0  0  0  0  0  0  0  0
    9.0412    2.5233    0.0000 H   0  0  0  0  0  0  0  0  0  0  0  0
    8.6555    1.8244    0.0000 H   0  0  0  0  0  0  0  0  0  0  0  0
   11.3477    0.2976    0.0000 H   0  0  0  0  0  0  0  0  0  0  0  0
   11.7495    0.9874    0.0000 H   0  0  0  0  0  0  0  0  0  0  0  0
    8.7248    1.8925    0.0000 H   0  0  0  0  0  0  0  0  0  0  0  0
    7.8796    1.6590    0.0000 H   0  0  0  0  0  0  0  0  0  0  0  0
    8.1131    0.8139    0.0000 H   0  0  0  0  0  0  0  0  0  0  0  0
    9.6538    2.8042    0.0000 H   0  0  0  0  0  0  0  0  0  0  0  0
    4.7320   -0.2911    0.0000 H   0  0  0  0  0  0  0  0  0  0  0  0
    3.8562   -0.2475    0.0000 H   0  0  0  0  0  0  0  0  0  0  0  0
    3.8126   -1.1232    0.0000 H   0  0  0  0  0  0  0  0  0  0  0  0
    4.7864   -4.0116    0.0000 H   0  0  0  0  0  0  0  0  0  0  0  0
    5.2544   -3.3663    0.0000 H   0  0  0  0  0  0  0  0  0  0  0  0
   11.1351    2.5863    0.0000 H   0  0  0  0  0  0  0  0  0  0  0  0
    3.2771   -4.2487    0.0000 H   0  0  0  0  0  0  0  0  0  0  0  0
    4.0699   -4.3313    0.0000 H   0  0  0  0  0  0  0  0  0  0  0  0
    2.8664   -1.6345    0.0000 H   0  0  0  0  0  0  0  0  0  0  0  0
    2.3984   -2.2797    0.0000 H   0  0  0  0  0  0  0  0  0  0  0  0
    2.4113   -2.8666    0.0000 H   0  0  0  0  0  0  0  0  0  0  0  0
   10.7166    3.8176    0.0000 H   0  0  0  0  0  0  0  0  0  0  0  0
   12.5409    2.1617    0.0000 H   0  0  0  0  0  0  0  0  0  0  0  0
    1.7473   -3.0719    0.0000 H   0  0  0  0  0  0  0  0  0  0  0  0
    1.4338   -3.8908    0.0000 H   0  0  0  0  0  0  0  0  0  0  0  0
    2.2527   -4.2043    0.0000 H   0  0  0  0  0  0  0  0  0  0  0  0
  1 10  1  0  0  0  0
  1 18  1  0  0  0  0
  2 18  1  0  0  0  0
  2 29  1  0  0  0  0
  3 24  1  0  0  0  0
  3 71  1  0  0  0  0
  4 27  1  0  0  0  0
  4 72  1  0  0  0  0
  5  6  1  0  0  0  0
  5  8  1  0  0  0  0
  5 13  1  0  0  0  0
  5 20  1  0  0  0  0
  6  7  1  0  0  0  0
  6 12  1  0  0  0  0
  6 32  1  0  0  0  0
  7  9  1  0  0  0  0
  7 17  1  0  0  0  0
  7 33  1  0  0  0  0
  8 10  1  0  0  0  0
  8 15  1  0  0  0  0
  8 34  1  0  0  0  0
  9 11  1  0  0  0  0
  9 14  1  0  0  0  0
  9 35  1  0  0  0  0
 10 12  1  0  0  0  0
 10 36  1  0  0  0  0
 11 16  1  0  0  0  0
 11 21  1  0  0  0  0
 11 23  1  0  0  0  0
 12 37  1  0  0  0  0
 12 38  1  0  0  0  0
 13 14  1  0  0  0  0
 13 39  1  0  0  0  0
 13 40  1  0  0  0  0
 14 41  1  0  0  0  0
 14 42  1  0  0  0  0
 15 18  1  0  0  0  0
 15 25  1  0  0  0  0
 15 43  1  0  0  0  0
 16 19  1  0  0  0  0
 16 22  1  0  0  0  0
 16 44  1  0  0  0  0
 17 19  1  0  0  0  0
 17 45  1  0  0  0  0
 17 46  1  0  0  0  0
 18 26  1  0  0  0  0
 19 47  1  0  0  0  0
 19 48  1  0  0  0  0
 20 49  1  0  0  0  0
 20 50  1  0  0  0  0
 20 51  1  0  0  0  0
 21 24  1  0  0  0  0
 21 52  1  0  0  0  0
 21 53  1  0  0  0  0
 22 27  1  0  0  0  0
 22 54  1  0  0  0  0
 22 55  1  0  0  0  0
 23 56  1  0  0  0  0
 23 57  1  0  0  0  0
 23 58  1  0  0  0  0
 24 27  1  0  0  0  0
 24 59  1  0  0  0  0
 25 60  1  0  0  0  0
 25 61  1  0  0  0  0
 25 62  1  0  0  0  0
 26 28  1  0  0  0  0
 26 63  1  0  0  0  0
 26 64  1  0  0  0  0
 27 65  1  0  0  0  0
 28 30  1  0  0  0  0
 28 66  1  0  0  0  0
 28 67  1  0  0  0  0
 29 30  1  0  0  0  0
 29 68  1  0  0  0  0
 29 69  1  0  0  0  0
 30 31  1  0  0  0  0
 30 70  1  0  0  0  0
 31 73  1  0  0  0  0
 31 74  1  0  0  0  0
 31 75  1  0  0  0  0
M  END
>  <PUBCHEM_COMPOUND_CID>
287688

>  <PUBCHEM_COMPOUND_CANONICALIZED>
1

>  <PUBCHEM_CACTVS_COMPLEXITY>
726

>  <PUBCHEM_CACTVS_HBOND_ACCEPTOR>
4

>  <PUBCHEM_CACTVS_HBOND_DONOR>
2

>  <PUBCHEM_CACTVS_ROTATABLE_BOND>
0

>  <PUBCHEM_CACTVS_SUBSKEYS>
AAADcfB4OAAAAAAAAAAAAAAAAAAAAaIAAAA0YMEAAAASAGDAAAAAGgAACAAADxSggAICCAAABgAAAAAAAAAAAAAAAAAAAAAAAAAREAIAAAAiQAAEAAAFAAHA4PwPgAAAAAAAAADAAAYAACCAAYAADAAAAA==

>  <PUBCHEM_IUPAC_INCHI>
InChI=1S/C27H44O4/c1-15-7-10-27(30-14-15)16(2)24-23(31-27)12-20-18-6-5-17-11-21(28)22(29)13-26(17,4)19(18)8-9-25(20,24)3/h15-24,28-29H,5-14H2,1-4H3

>  <PUBCHEM_IUPAC_INCHIKEY>
FWCXELAAYFYCSR-UHFFFAOYSA-N

>  <PUBCHEM_XLOGP3_AA>
5.5

>  <PUBCHEM_EXACT_MASS>
432.324

>  <PUBCHEM_MOLECULAR_FORMULA>
C27H44O4

>  <PUBCHEM_MOLECULAR_WEIGHT>
432.645

>  <PUBCHEM_OPENEYE_CAN_SMILES>
CC1CCC2(C(C3C(O2)CC4C3(CCC5C4CCC6C5(CC(C(C6)O)O)C)C)C)OC1

>  <PUBCHEM_OPENEYE_ISO_SMILES>
CC1CCC2(C(C3C(O2)CC4C3(CCC5C4CCC6C5(CC(C(C6)O)O)C)C)C)OC1

>  <PUBCHEM_CACTVS_TPSA>
58.9

>  <PUBCHEM_MONOISOTOPIC_WEIGHT>
432.324

>  <PUBCHEM_TOTAL_CHARGE>
0

>  <PUBCHEM_HEAVY_ATOM_COUNT>
31

>  <PUBCHEM_ATOM_DEF_STEREO_COUNT>
0

>  <PUBCHEM_ATOM_UDEF_STEREO_COUNT>
13

>  <PUBCHEM_BOND_DEF_STEREO_COUNT>
0

>  <PUBCHEM_BOND_UDEF_STEREO_COUNT>
0

>  <PUBCHEM_ISOTOPIC_ATOM_COUNT>
0

>  <PUBCHEM_COMPONENT_COUNT>
1

>  <PUBCHEM_CACTVS_TAUTO_COUNT>
1

>  <PUBCHEM_COORDINATE_TYPE>
1
5
255

>  <PUBCHEM_BONDANNOTATIONS>
10  12  3
11  23  3
15  25  3
16  19  3
18  26  3
24  3  3
30  31  3
27  4  3
5  20  3
6  12  3
7  17  3
8  15  3
9  14  3

$$$$
