28930
 OpenBabel06101807152D

 26 27  0  0  1  0  0  0  0  0999 V2000
    3.2369    1.1644    0.0000 C   0  0  0  0  0  0  0  0  0  0  0  0
    3.9735    0.1818    0.0000 C   0  0  3  0  0  0  0  0  0  0  0  0
    3.7147   -0.7841    0.0000 C   0  0  3  0  0  0  0  0  0  0  0  0
    2.0000   -0.4364    0.0000 C   0  0  0  0  0  0  0  0  0  0  0  0
    2.3420   -1.3761    0.0000 C   0  0  0  0  0  0  0  0  0  0  0  0
    5.3725   -0.3270    0.0000 C   0  0  0  0  0  0  0  0  0  0  0  0
    5.1137   -1.2929    0.0000 C   0  0  0  0  0  0  0  0  0  0  0  0
    3.3415    2.1590    0.0000 C   0  0  0  0  0  0  0  0  0  0  0  0
    2.3234    1.5712    0.0000 C   0  0  0  0  0  0  0  0  0  0  0  0
    5.6137   -2.1590    0.0000 C   0  0  0  0  0  0  0  0  0  0  0  0
    3.9595   -0.4380    0.0000 H   0  0  0  0  0  0  0  0  0  0  0  0
    3.7328   -1.4038    0.0000 H   0  0  0  0  0  0  0  0  0  0  0  0
    1.8057    0.1523    0.0000 H   0  0  0  0  0  0  0  0  0  0  0  0
    1.4142   -0.6396    0.0000 H   0  0  0  0  0  0  0  0  0  0  0  0
    1.7636   -1.5994    0.0000 H   0  0  0  0  0  0  0  0  0  0  0  0
    2.5765   -1.9501    0.0000 H   0  0  0  0  0  0  0  0  0  0  0  0
    5.9664   -0.5048    0.0000 H   0  0  0  0  0  0  0  0  0  0  0  0
    5.5674    0.2616    0.0000 H   0  0  0  0  0  0  0  0  0  0  0  0
    2.5756    2.1376    0.0000 H   0  0  0  0  0  0  0  0  0  0  0  0
    1.7570    1.8233    0.0000 H   0  0  0  0  0  0  0  0  0  0  0  0
    2.0712    1.0048    0.0000 H   0  0  0  0  0  0  0  0  0  0  0  0
    3.9581    2.0942    0.0000 H   0  0  0  0  0  0  0  0  0  0  0  0
    3.4063    2.7756    0.0000 H   0  0  0  0  0  0  0  0  0  0  0  0
    2.7248    2.2238    0.0000 H   0  0  0  0  0  0  0  0  0  0  0  0
    5.3037   -2.6959    0.0000 H   0  0  0  0  0  0  0  0  0  0  0  0
    6.2337   -2.1590    0.0000 H   0  0  0  0  0  0  0  0  0  0  0  0
  1  2  1  0  0  0  0
  1  3  1  0  0  0  0
  1  8  1  0  0  0  0
  1  9  1  0  0  0  0
  2  4  1  0  0  0  0
  2  6  1  0  0  0  0
  2 11  1  0  0  0  0
  3  5  1  0  0  0  0
  3  7  1  0  0  0  0
  3 12  1  0  0  0  0
  4  5  1  0  0  0  0
  4 13  1  0  0  0  0
  4 14  1  0  0  0  0
  5 15  1  0  0  0  0
  5 16  1  0  0  0  0
  6  7  1  0  0  0  0
  6 17  1  0  0  0  0
  6 18  1  0  0  0  0
  7 10  2  0  0  0  0
  8 22  1  0  0  0  0
  8 23  1  0  0  0  0
  8 24  1  0  0  0  0
  9 19  1  0  0  0  0
  9 20  1  0  0  0  0
  9 21  1  0  0  0  0
 10 25  1  0  0  0  0
 10 26  1  0  0  0  0
M  END
>  <PUBCHEM_COMPOUND_CID>
28930

>  <PUBCHEM_COMPOUND_CANONICALIZED>
1

>  <PUBCHEM_CACTVS_COMPLEXITY>
177

>  <PUBCHEM_CACTVS_HBOND_ACCEPTOR>
0

>  <PUBCHEM_CACTVS_HBOND_DONOR>
0

>  <PUBCHEM_CACTVS_ROTATABLE_BOND>
0

>  <PUBCHEM_CACTVS_SUBSKEYS>
AAADceBwAAAAAAAAAAAAAAAAAAAAAYMAAAAwAAAAAAAAAAAAAAAAGAAAAAAADwCAAAACAAAAAACAAgBCAAAAAAAgAAAAAAAAAAgAAAIAAQAAAAAAgAAAAAEAgMAPgAAAAAAAAAAAAAAAAAAAAQAACAAAAA==

>  <PUBCHEM_IUPAC_OPENEYE_NAME>
7,7-dimethyl-2-methylene-norbornane

>  <PUBCHEM_IUPAC_CAS_NAME>
7,7-dimethyl-3-methylenebicyclo[2.2.1]heptane

>  <PUBCHEM_IUPAC_NAME>
7,7-dimethyl-3-methylidenebicyclo[2.2.1]heptane

>  <PUBCHEM_IUPAC_SYSTEMATIC_NAME>
7,7-dimethyl-3-methylidene-bicyclo[2.2.1]heptane

>  <PUBCHEM_IUPAC_TRADITIONAL_NAME>
7,7-dimethyl-2-methylene-norbornane

>  <PUBCHEM_IUPAC_INCHI>
InChI=1S/C10H16/c1-7-6-8-4-5-9(7)10(8,2)3/h8-9H,1,4-6H2,2-3H3

>  <PUBCHEM_IUPAC_INCHIKEY>
XCPQUQHBVVXMRQ-UHFFFAOYSA-N

>  <PUBCHEM_XLOGP3_AA>
3.1

>  <PUBCHEM_EXACT_MASS>
136.125

>  <PUBCHEM_MOLECULAR_FORMULA>
C10H16

>  <PUBCHEM_MOLECULAR_WEIGHT>
136.238

>  <PUBCHEM_OPENEYE_CAN_SMILES>
CC1(C2CCC1C(=C)C2)C

>  <PUBCHEM_OPENEYE_ISO_SMILES>
CC1(C2CCC1C(=C)C2)C

>  <PUBCHEM_CACTVS_TPSA>
0

>  <PUBCHEM_MONOISOTOPIC_WEIGHT>
136.125

>  <PUBCHEM_TOTAL_CHARGE>
0

>  <PUBCHEM_HEAVY_ATOM_COUNT>
10

>  <PUBCHEM_ATOM_DEF_STEREO_COUNT>
0

>  <PUBCHEM_ATOM_UDEF_STEREO_COUNT>
2

>  <PUBCHEM_BOND_DEF_STEREO_COUNT>
0

>  <PUBCHEM_BOND_UDEF_STEREO_COUNT>
0

>  <PUBCHEM_ISOTOPIC_ATOM_COUNT>
0

>  <PUBCHEM_COMPONENT_COUNT>
1

>  <PUBCHEM_CACTVS_TAUTO_COUNT>
1

>  <PUBCHEM_COORDINATE_TYPE>
1
5
255

>  <PUBCHEM_BONDANNOTATIONS>
2  1  3
3  1  3

$$$$
