293754
 OpenBabel06101807152D

 86 90  0  0  1  0  0  0  0  0999 V2000
    3.7320   -2.6574    0.0000 O   0  0  0  0  0  0  0  0  0  0  0  0
    2.8718   -1.1541    0.0000 O   0  0  0  0  0  0  0  0  0  0  0  0
    8.2591   -1.1050    0.0000 C   0  0  3  0  0  0  0  0  0  0  0  0
    7.3931   -0.6051    0.0000 C   0  0  3  0  0  0  0  0  0  0  0  0
    6.4831   -1.1119    0.0000 C   0  0  3  0  0  0  0  0  0  0  0  0
    9.1251   -0.6051    0.0000 C   0  0  3  0  0  0  0  0  0  0  0  0
    6.4750   -2.1535    0.0000 C   0  0  3  0  0  0  0  0  0  0  0  0
    8.2752   -2.1466    0.0000 C   0  0  0  0  0  0  0  0  0  0  0  0
    9.1251    0.3949    0.0000 C   0  0  0  0  0  0  0  0  0  0  0  0
   10.0191    0.9296    0.0000 C   0  0  3  0  0  0  0  0  0  0  0  0
    7.3771   -2.6743    0.0000 C   0  0  0  0  0  0  0  0  0  0  0  0
    5.5396   -2.7032    0.0000 C   0  0  0  0  0  0  0  0  0  0  0  0
   10.9251    0.4158    0.0000 C   0  0  3  0  0  0  0  0  0  0  0  0
   10.0191   -1.1397    0.0000 C   0  0  0  0  0  0  0  0  0  0  0  0
    7.3931    0.3949    0.0000 C   0  0  0  0  0  0  0  0  0  0  0  0
    5.5562   -0.5478    0.0000 C   0  0  0  0  0  0  0  0  0  0  0  0
   10.9251   -0.6259    0.0000 C   0  0  0  0  0  0  0  0  0  0  0  0
    8.9019   -1.8711    0.0000 C   0  0  0  0  0  0  0  0  0  0  0  0
    8.2591    0.8949    0.0000 C   0  0  0  0  0  0  0  0  0  0  0  0
    4.6000   -2.1607    0.0000 C   0  0  3  0  0  0  0  0  0  0  0  0
    9.9940    2.0143    0.0000 C   0  0  3  0  0  0  0  0  0  0  0  0
    6.4908   -0.1119    0.0000 C   0  0  0  0  0  0  0  0  0  0  0  0
    9.4672   -1.5447    0.0000 C   0  0  0  0  0  0  0  0  0  0  0  0
    4.6084   -1.0758    0.0000 C   0  0  0  0  0  0  0  0  0  0  0  0
   11.8689    0.9510    0.0000 C   0  0  0  0  0  0  0  0  0  0  0  0
   10.9251    2.5712    0.0000 C   0  0  3  0  0  0  0  0  0  0  0  0
   11.8689    2.0360    0.0000 C   0  0  0  0  0  0  0  0  0  0  0  0
    5.0430   -3.5712    0.0000 C   0  0  0  0  0  0  0  0  0  0  0  0
    6.0430   -3.5673    0.0000 C   0  0  0  0  0  0  0  0  0  0  0  0
   11.7950   -0.0775    0.0000 C   0  0  0  0  0  0  0  0  0  0  0  0
    9.1185    2.4975    0.0000 C   0  0  0  0  0  0  0  0  0  0  0  0
   10.9136    3.5712    0.0000 C   0  0  0  0  0  0  0  0  0  0  0  0
    2.8680   -2.1540    0.0000 C   0  0  0  0  0  0  0  0  0  0  0  0
    2.0000   -2.6507    0.0000 C   0  0  0  0  0  0  0  0  0  0  0  0
    8.1292   -0.1801    0.0000 H   0  0  0  0  0  0  0  0  0  0  0  0
    6.4783   -3.0035    0.0000 H   0  0  0  0  0  0  0  0  0  0  0  0
    8.4932   -2.7270    0.0000 H   0  0  0  0  0  0  0  0  0  0  0  0
    8.8843   -2.0311    0.0000 H   0  0  0  0  0  0  0  0  0  0  0  0
    9.2749    1.3404    0.0000 H   0  0  0  0  0  0  0  0  0  0  0  0
    6.9798   -3.1503    0.0000 H   0  0  0  0  0  0  0  0  0  0  0  0
    7.7781   -3.1472    0.0000 H   0  0  0  0  0  0  0  0  0  0  0  0
    9.6145   -1.6095    0.0000 H   0  0  0  0  0  0  0  0  0  0  0  0
   10.4127   -1.6187    0.0000 H   0  0  0  0  0  0  0  0  0  0  0  0
    7.1810    0.9776    0.0000 H   0  0  0  0  0  0  0  0  0  0  0  0
    6.7825    0.2873    0.0000 H   0  0  0  0  0  0  0  0  0  0  0  0
    5.9644   -0.0812    0.0000 H   0  0  0  0  0  0  0  0  0  0  0  0
    5.1663   -0.0658    0.0000 H   0  0  0  0  0  0  0  0  0  0  0  0
   11.1342   -1.2096    0.0000 H   0  0  0  0  0  0  0  0  0  0  0  0
   11.5360   -0.5198    0.0000 H   0  0  0  0  0  0  0  0  0  0  0  0
    8.4269   -2.2696    0.0000 H   0  0  0  0  0  0  0  0  0  0  0  0
    9.3004   -2.3460    0.0000 H   0  0  0  0  0  0  0  0  0  0  0  0
    9.3768   -1.4726    0.0000 H   0  0  0  0  0  0  0  0  0  0  0  0
    8.2591    1.5150    0.0000 H   0  0  0  0  0  0  0  0  0  0  0  0
    3.8663   -1.7315    0.0000 H   0  0  0  0  0  0  0  0  0  0  0  0
    9.9792    2.8642    0.0000 H   0  0  0  0  0  0  0  0  0  0  0  0
    7.1108   -0.1167    0.0000 H   0  0  0  0  0  0  0  0  0  0  0  0
    6.4956    0.5081    0.0000 H   0  0  0  0  0  0  0  0  0  0  0  0
    5.8708   -0.1071    0.0000 H   0  0  0  0  0  0  0  0  0  0  0  0
    8.8846   -1.7568    0.0000 H   0  0  0  0  0  0  0  0  0  0  0  0
    9.6794   -2.1273    0.0000 H   0  0  0  0  0  0  0  0  0  0  0  0
   10.0498   -1.3326    0.0000 H   0  0  0  0  0  0  0  0  0  0  0  0
    4.4038   -0.4905    0.0000 H   0  0  0  0  0  0  0  0  0  0  0  0
    3.9967   -1.1771    0.0000 H   0  0  0  0  0  0  0  0  0  0  0  0
   12.0780    0.3673    0.0000 H   0  0  0  0  0  0  0  0  0  0  0  0
   12.4798    1.0571    0.0000 H   0  0  0  0  0  0  0  0  0  0  0  0
   10.1833    2.9863    0.0000 H   0  0  0  0  0  0  0  0  0  0  0  0
   12.4798    1.9299    0.0000 H   0  0  0  0  0  0  0  0  0  0  0  0
   12.0780    2.6197    0.0000 H   0  0  0  0  0  0  0  0  0  0  0  0
    4.5048   -3.2632    0.0000 H   0  0  0  0  0  0  0  0  0  0  0  0
    4.7350   -4.1093    0.0000 H   0  0  0  0  0  0  0  0  0  0  0  0
    5.5811   -3.8791    0.0000 H   0  0  0  0  0  0  0  0  0  0  0  0
    5.5072   -3.8794    0.0000 H   0  0  0  0  0  0  0  0  0  0  0  0
    6.3550   -4.1030    0.0000 H   0  0  0  0  0  0  0  0  0  0  0  0
    6.5787   -3.2553    0.0000 H   0  0  0  0  0  0  0  0  0  0  0  0
   11.4891   -0.6169    0.0000 H   0  0  0  0  0  0  0  0  0  0  0  0
   12.3343   -0.3834    0.0000 H   0  0  0  0  0  0  0  0  0  0  0  0
   12.1008    0.4618    0.0000 H   0  0  0  0  0  0  0  0  0  0  0  0
    9.4181    3.0403    0.0000 H   0  0  0  0  0  0  0  0  0  0  0  0
    8.5757    2.7971    0.0000 H   0  0  0  0  0  0  0  0  0  0  0  0
    8.8189    1.9547    0.0000 H   0  0  0  0  0  0  0  0  0  0  0  0
   11.5335    3.5783    0.0000 H   0  0  0  0  0  0  0  0  0  0  0  0
   10.9064    4.1911    0.0000 H   0  0  0  0  0  0  0  0  0  0  0  0
   10.2936    3.5640    0.0000 H   0  0  0  0  0  0  0  0  0  0  0  0
    1.6921   -2.1126    0.0000 H   0  0  0  0  0  0  0  0  0  0  0  0
    1.4619   -2.9586    0.0000 H   0  0  0  0  0  0  0  0  0  0  0  0
    2.3079   -3.1888    0.0000 H   0  0  0  0  0  0  0  0  0  0  0  0
  1 20  1  0  0  0  0
  1 33  1  0  0  0  0
  2 33  2  0  0  0  0
  3  4  1  0  0  0  0
  3  6  1  0  0  0  0
  3  8  1  0  0  0  0
  3 18  1  0  0  0  0
  4  5  1  0  0  0  0
  4 15  1  0  0  0  0
  4 35  1  0  0  0  0
  5  7  1  0  0  0  0
  5 16  1  0  0  0  0
  5 22  1  0  0  0  0
  6  9  1  0  0  0  0
  6 14  1  0  0  0  0
  6 23  1  0  0  0  0
  7 11  1  0  0  0  0
  7 12  1  0  0  0  0
  7 36  1  0  0  0  0
  8 11  1  0  0  0  0
  8 37  1  0  0  0  0
  8 38  1  0  0  0  0
  9 10  1  0  0  0  0
  9 19  2  0  0  0  0
 10 13  1  0  0  0  0
 10 21  1  0  0  0  0
 10 39  1  0  0  0  0
 11 40  1  0  0  0  0
 11 41  1  0  0  0  0
 12 20  1  0  0  0  0
 12 28  1  0  0  0  0
 12 29  1  0  0  0  0
 13 17  1  0  0  0  0
 13 25  1  0  0  0  0
 13 30  1  0  0  0  0
 14 17  1  0  0  0  0
 14 42  1  0  0  0  0
 14 43  1  0  0  0  0
 15 19  1  0  0  0  0
 15 44  1  0  0  0  0
 15 45  1  0  0  0  0
 16 24  1  0  0  0  0
 16 46  1  0  0  0  0
 16 47  1  0  0  0  0
 17 48  1  0  0  0  0
 17 49  1  0  0  0  0
 18 50  1  0  0  0  0
 18 51  1  0  0  0  0
 18 52  1  0  0  0  0
 19 53  1  0  0  0  0
 20 24  1  0  0  0  0
 20 54  1  0  0  0  0
 21 26  1  0  0  0  0
 21 31  1  0  0  0  0
 21 55  1  0  0  0  0
 22 56  1  0  0  0  0
 22 57  1  0  0  0  0
 22 58  1  0  0  0  0
 23 59  1  0  0  0  0
 23 60  1  0  0  0  0
 23 61  1  0  0  0  0
 24 62  1  0  0  0  0
 24 63  1  0  0  0  0
 25 27  1  0  0  0  0
 25 64  1  0  0  0  0
 25 65  1  0  0  0  0
 26 27  1  0  0  0  0
 26 32  1  0  0  0  0
 26 66  1  0  0  0  0
 27 67  1  0  0  0  0
 27 68  1  0  0  0  0
 28 69  1  0  0  0  0
 28 70  1  0  0  0  0
 28 71  1  0  0  0  0
 29 72  1  0  0  0  0
 29 73  1  0  0  0  0
 29 74  1  0  0  0  0
 30 75  1  0  0  0  0
 30 76  1  0  0  0  0
 30 77  1  0  0  0  0
 31 78  1  0  0  0  0
 31 79  1  0  0  0  0
 31 80  1  0  0  0  0
 32 81  1  0  0  0  0
 32 82  1  0  0  0  0
 32 83  1  0  0  0  0
 33 34  1  0  0  0  0
 34 84  1  0  0  0  0
 34 85  1  0  0  0  0
 34 86  1  0  0  0  0
M  END
>  <PUBCHEM_COMPOUND_CID>
293754

>  <PUBCHEM_COMPOUND_CANONICALIZED>
1

>  <PUBCHEM_CACTVS_COMPLEXITY>
885

>  <PUBCHEM_CACTVS_HBOND_ACCEPTOR>
2

>  <PUBCHEM_CACTVS_HBOND_DONOR>
0

>  <PUBCHEM_CACTVS_ROTATABLE_BOND>
2

>  <PUBCHEM_CACTVS_SUBSKEYS>
AAADcfB8MAAAAAAAAAAAAAAAAAAAAAAAAAAwYMGCAAAAAADAAAAAGgAAAAAADxSggAICCAAABACIAiDSCAAAAAAgAAAACAAAAAgAAAIAAQACAAAEgAAIAAOAwPAPgAAAAAAAAADAAAYAADAAAAAAAAAAAA==

>  <PUBCHEM_IUPAC_OPENEYE_NAME>
(4,4,6a,6b,8a,11,12,14b-octamethyl-2,3,4a,5,6,7,8,9,10,11,12,12a,14,14a-tetradecahydro-1H-picen-3-yl) acetate

>  <PUBCHEM_IUPAC_CAS_NAME>
acetic acid (4,4,6a,6b,8a,11,12,14b-octamethyl-2,3,4a,5,6,7,8,9,10,11,12,12a,14,14a-tetradecahydro-1H-picen-3-yl) ester

>  <PUBCHEM_IUPAC_NAME>
(4,4,6a,6b,8a,11,12,14b-octamethyl-2,3,4a,5,6,7,8,9,10,11,12,12a,14,14a-tetradecahydro-1H-picen-3-yl) acetate

>  <PUBCHEM_IUPAC_SYSTEMATIC_NAME>
(4,4,6a,6b,8a,11,12,14b-octamethyl-2,3,4a,5,6,7,8,9,10,11,12,12a,14,14a-tetradecahydro-1H-picen-3-yl) ethanoate

>  <PUBCHEM_IUPAC_TRADITIONAL_NAME>
acetic acid (4,4,6a,6b,8a,11,12,14b-octamethyl-2,3,4a,5,6,7,8,9,10,11,12,12a,14,14a-tetradecahydro-1H-picen-3-yl) ester

>  <PUBCHEM_IUPAC_INCHI>
InChI=1S/C32H52O2/c1-20-12-15-29(6)18-19-31(8)23(27(29)21(20)2)10-11-25-30(7)16-14-26(34-22(3)33)28(4,5)24(30)13-17-32(25,31)9/h10,20-21,24-27H,11-19H2,1-9H3

>  <PUBCHEM_IUPAC_INCHIKEY>
UDXDFWBZZQHDRO-UHFFFAOYSA-N

>  <PUBCHEM_XLOGP3_AA>
9.6

>  <PUBCHEM_EXACT_MASS>
468.397

>  <PUBCHEM_MOLECULAR_FORMULA>
C32H52O2

>  <PUBCHEM_MOLECULAR_WEIGHT>
468.766

>  <PUBCHEM_OPENEYE_CAN_SMILES>
CC1CCC2(CCC3(C(=CCC4C3(CCC5C4(CCC(C5(C)C)OC(=O)C)C)C)C2C1C)C)C

>  <PUBCHEM_OPENEYE_ISO_SMILES>
CC1CCC2(CCC3(C(=CCC4C3(CCC5C4(CCC(C5(C)C)OC(=O)C)C)C)C2C1C)C)C

>  <PUBCHEM_CACTVS_TPSA>
26.3

>  <PUBCHEM_MONOISOTOPIC_WEIGHT>
468.397

>  <PUBCHEM_TOTAL_CHARGE>
0

>  <PUBCHEM_HEAVY_ATOM_COUNT>
34

>  <PUBCHEM_ATOM_DEF_STEREO_COUNT>
0

>  <PUBCHEM_ATOM_UDEF_STEREO_COUNT>
10

>  <PUBCHEM_BOND_DEF_STEREO_COUNT>
0

>  <PUBCHEM_BOND_UDEF_STEREO_COUNT>
0

>  <PUBCHEM_ISOTOPIC_ATOM_COUNT>
0

>  <PUBCHEM_COMPONENT_COUNT>
1

>  <PUBCHEM_CACTVS_TAUTO_COUNT>
1

>  <PUBCHEM_COORDINATE_TYPE>
1
5
255

>  <PUBCHEM_BONDANNOTATIONS>
10  39  3
13  30  3
20  54  3
21  55  3
26  66  3
3  18  3
4  35  3
5  22  3
6  23  3
7  36  3

$$$$
