3005362
 OpenBabel06101807152D

 28 30  0  0  1  0  0  0  0  0999 V2000
    4.8176   -1.7601    0.0000 O   0  0  0  0  0  0  0  0  0  0  0  0
    4.8176    1.7601    0.0000 O   0  0  0  0  0  0  0  0  0  0  0  0
    2.9511   -0.8090    0.0000 N   0  0  0  0  0  0  0  0  0  0  0  0
    6.0777   -0.5000    0.0000 N   0  0  0  0  0  0  0  0  0  0  0  0
    3.5388    0.0000    0.0000 C   0  0  0  0  0  0  0  0  0  0  0  0
    2.9511    0.8090    0.0000 C   0  0  0  0  0  0  0  0  0  0  0  0
    2.0000    0.5000    0.0000 C   0  0  0  0  0  0  0  0  0  0  0  0
    2.0000   -0.5000    0.0000 C   0  0  0  0  0  0  0  0  0  0  0  0
    4.5388   -0.0000    0.0000 C   0  0  0  0  0  0  0  0  0  0  0  0
    5.1266   -0.8090    0.0000 C   0  0  0  0  0  0  0  0  0  0  0  0
    5.1266    0.8090    0.0000 C   0  0  0  0  0  0  0  0  0  0  0  0
    6.0777    0.5000    0.0000 C   0  0  0  0  0  0  0  0  0  0  0  0
    3.2601   -1.7601    0.0000 C   0  0  0  0  0  0  0  0  0  0  0  0
    7.0239   -0.8047    0.0000 C   0  0  0  0  0  0  0  0  0  0  0  0
    7.0239    0.8047    0.0000 C   0  0  0  0  0  0  0  0  0  0  0  0
    7.6075   -0.0000    0.0000 C   0  0  0  0  0  0  0  0  0  0  0  0
    3.4880    1.1190    0.0000 H   0  0  0  0  0  0  0  0  0  0  0  0
    2.6989    1.3754    0.0000 H   0  0  0  0  0  0  0  0  0  0  0  0
    1.8711    1.1064    0.0000 H   0  0  0  0  0  0  0  0  0  0  0  0
    1.3834    0.4352    0.0000 H   0  0  0  0  0  0  0  0  0  0  0  0
    1.3834   -0.4352    0.0000 H   0  0  0  0  0  0  0  0  0  0  0  0
    1.8711   -1.1064    0.0000 H   0  0  0  0  0  0  0  0  0  0  0  0
    2.6704   -1.9517    0.0000 H   0  0  0  0  0  0  0  0  0  0  0  0
    3.4517   -2.3497    0.0000 H   0  0  0  0  0  0  0  0  0  0  0  0
    3.8497   -1.5685    0.0000 H   0  0  0  0  0  0  0  0  0  0  0  0
    7.2165   -1.3940    0.0000 H   0  0  0  0  0  0  0  0  0  0  0  0
    7.2165    1.3940    0.0000 H   0  0  0  0  0  0  0  0  0  0  0  0
    8.2275   -0.0000    0.0000 H   0  0  0  0  0  0  0  0  0  0  0  0
  1 10  2  0  0  0  0
  2 11  2  0  0  0  0
  3  5  1  0  0  0  0
  3  8  1  0  0  0  0
  3 13  1  0  0  0  0
  4 10  1  0  0  0  0
  4 12  1  0  0  0  0
  4 14  1  0  0  0  0
  5  6  1  0  0  0  0
  5  9  2  0  0  0  0
  6  7  1  0  0  0  0
  6 17  1  0  0  0  0
  6 18  1  0  0  0  0
  7  8  1  0  0  0  0
  7 19  1  0  0  0  0
  7 20  1  0  0  0  0
  8 21  1  0  0  0  0
  8 22  1  0  0  0  0
  9 10  1  0  0  0  0
  9 11  1  0  0  0  0
 11 12  1  0  0  0  0
 12 15  2  0  0  0  0
 13 23  1  0  0  0  0
 13 24  1  0  0  0  0
 13 25  1  0  0  0  0
 14 16  2  0  0  0  0
 14 26  1  0  0  0  0
 15 16  1  0  0  0  0
 15 27  1  0  0  0  0
 16 28  1  0  0  0  0
M  END
>  <PUBCHEM_COMPOUND_CID>
3005362

>  <PUBCHEM_COMPOUND_CANONICALIZED>
1

>  <PUBCHEM_CACTVS_COMPLEXITY>
400

>  <PUBCHEM_CACTVS_HBOND_ACCEPTOR>
3

>  <PUBCHEM_CACTVS_HBOND_DONOR>
0

>  <PUBCHEM_CACTVS_ROTATABLE_BOND>
0

>  <PUBCHEM_CACTVS_SUBSKEYS>
AAADccBzMAAAAAAAAAAAAAAAAAAAAWLFgAAAAAAAAAAWAAABgAAAHgAAAAAADAzBlgQ+gJMMEACoA7V3VACCgCA3AiAI2CG4ZNgIIPrIlbGEAQhghgDIyccciQCAAAAAAAAAAAAAAAAAAAAAAAAAAAAAAA==

>  <PUBCHEM_IUPAC_OPENEYE_NAME>
(2Z)-2-(1-methylpyrrolidin-2-ylidene)pyrrolizine-1,3-dione

>  <PUBCHEM_IUPAC_CAS_NAME>
(2Z)-2-(1-methyl-2-pyrrolidinylidene)pyrrolizine-1,3-dione

>  <PUBCHEM_IUPAC_NAME>
(2Z)-2-(1-methylpyrrolidin-2-ylidene)pyrrolizine-1,3-dione

>  <PUBCHEM_IUPAC_SYSTEMATIC_NAME>
(2Z)-2-(1-methylpyrrolidin-2-ylidene)pyrrolizine-1,3-dione

>  <PUBCHEM_IUPAC_TRADITIONAL_NAME>
(2Z)-2-(1-methylpyrrolidin-2-ylidene)pyrrolizine-1,3-quinone

>  <PUBCHEM_IUPAC_INCHI>
InChI=1S/C12H12N2O2/c1-13-6-2-4-8(13)10-11(15)9-5-3-7-14(9)12(10)16/h3,5,7H,2,4,6H2,1H3/b10-8-

>  <PUBCHEM_IUPAC_INCHIKEY>
YCEWWCZXNFGMOI-NTMALXAHSA-N

>  <PUBCHEM_XLOGP3_AA>
1.4

>  <PUBCHEM_EXACT_MASS>
216.09

>  <PUBCHEM_MOLECULAR_FORMULA>
C12H12N2O2

>  <PUBCHEM_MOLECULAR_WEIGHT>
216.24

>  <PUBCHEM_OPENEYE_CAN_SMILES>
CN1CCCC1=C2C(=O)C3=CC=CN3C2=O

>  <PUBCHEM_OPENEYE_ISO_SMILES>
CN\1CCC/C1=C/2\C(=O)C3=CC=CN3C2=O

>  <PUBCHEM_CACTVS_TPSA>
42.3

>  <PUBCHEM_MONOISOTOPIC_WEIGHT>
216.09

>  <PUBCHEM_TOTAL_CHARGE>
0

>  <PUBCHEM_HEAVY_ATOM_COUNT>
16

>  <PUBCHEM_ATOM_DEF_STEREO_COUNT>
0

>  <PUBCHEM_ATOM_UDEF_STEREO_COUNT>
0

>  <PUBCHEM_BOND_DEF_STEREO_COUNT>
1

>  <PUBCHEM_BOND_UDEF_STEREO_COUNT>
0

>  <PUBCHEM_ISOTOPIC_ATOM_COUNT>
0

>  <PUBCHEM_COMPONENT_COUNT>
1

>  <PUBCHEM_CACTVS_TAUTO_COUNT>
4

>  <PUBCHEM_COORDINATE_TYPE>
1
5
255

>  <PUBCHEM_BONDANNOTATIONS>
12  15  8
14  16  8
15  16  8
4  12  8
4  14  8

$$$$
