3015541
 OpenBabel06101807152D

 35 35  0  0  1  0  0  0  0  0999 V2000
    8.5991   -1.6900    0.0000 O   0  0  0  0  0  0  0  0  0  0  0  0
    2.5369    0.8100    0.0000 O   0  0  0  0  0  0  0  0  0  0  0  0
    6.8671    0.3100    0.0000 C   0  0  0  0  0  0  0  0  0  0  0  0
    7.7331   -0.1900    0.0000 C   0  0  0  0  0  0  0  0  0  0  0  0
    7.7331   -1.1900    0.0000 C   0  0  3  0  0  0  0  0  0  0  0  0
    6.0010   -0.1900    0.0000 C   0  0  0  0  0  0  0  0  0  0  0  0
    6.8671   -1.6900    0.0000 C   0  0  0  0  0  0  0  0  0  0  0  0
    6.0010   -1.1900    0.0000 C   0  0  0  0  0  0  0  0  0  0  0  0
    7.3671    1.1760    0.0000 C   0  0  0  0  0  0  0  0  0  0  0  0
    6.3671    1.1760    0.0000 C   0  0  0  0  0  0  0  0  0  0  0  0
    5.1350   -1.6900    0.0000 C   0  0  0  0  0  0  0  0  0  0  0  0
    5.1350    0.3100    0.0000 C   0  0  0  0  0  0  0  0  0  0  0  0
    4.2690    0.8100    0.0000 C   0  0  0  0  0  0  0  0  0  0  0  0
    3.4030    1.3100    0.0000 C   0  0  3  0  0  0  0  0  0  0  0  0
    3.4030    2.3100    0.0000 C   0  0  0  0  0  0  0  0  0  0  0  0
    8.3437   -0.2977    0.0000 H   0  0  0  0  0  0  0  0  0  0  0  0
    7.9451    0.3926    0.0000 H   0  0  0  0  0  0  0  0  0  0  0  0
    7.7331   -2.0400    0.0000 H   0  0  0  0  0  0  0  0  0  0  0  0
    6.4685   -2.1650    0.0000 H   0  0  0  0  0  0  0  0  0  0  0  0
    7.2656   -2.1650    0.0000 H   0  0  0  0  0  0  0  0  0  0  0  0
    7.9040    0.8660    0.0000 H   0  0  0  0  0  0  0  0  0  0  0  0
    7.6771    1.7130    0.0000 H   0  0  0  0  0  0  0  0  0  0  0  0
    6.8301    1.4860    0.0000 H   0  0  0  0  0  0  0  0  0  0  0  0
    6.9040    1.4860    0.0000 H   0  0  0  0  0  0  0  0  0  0  0  0
    6.0571    1.7130    0.0000 H   0  0  0  0  0  0  0  0  0  0  0  0
    5.8301    0.8660    0.0000 H   0  0  0  0  0  0  0  0  0  0  0  0
    4.8250   -1.1531    0.0000 H   0  0  0  0  0  0  0  0  0  0  0  0
    4.5981   -2.0000    0.0000 H   0  0  0  0  0  0  0  0  0  0  0  0
    5.4450   -2.2269    0.0000 H   0  0  0  0  0  0  0  0  0  0  0  0
    8.5991   -2.3100    0.0000 H   0  0  0  0  0  0  0  0  0  0  0  0
    3.4030    0.4600    0.0000 H   0  0  0  0  0  0  0  0  0  0  0  0
    4.0230    2.3100    0.0000 H   0  0  0  0  0  0  0  0  0  0  0  0
    3.4030    2.9300    0.0000 H   0  0  0  0  0  0  0  0  0  0  0  0
    2.7830    2.3100    0.0000 H   0  0  0  0  0  0  0  0  0  0  0  0
    2.0000    1.1200    0.0000 H   0  0  0  0  0  0  0  0  0  0  0  0
  1  5  1  0  0  0  0
  1 30  1  0  0  0  0
  2 14  1  0  0  0  0
  2 35  1  0  0  0  0
  3  4  1  0  0  0  0
  3  6  1  0  0  0  0
  3  9  1  0  0  0  0
  3 10  1  0  0  0  0
  4  5  1  0  0  0  0
  4 16  1  0  0  0  0
  4 17  1  0  0  0  0
  5  7  1  0  0  0  0
  5 18  1  0  0  0  0
  6  8  2  0  0  0  0
  6 12  1  0  0  0  0
  7  8  1  0  0  0  0
  7 19  1  0  0  0  0
  7 20  1  0  0  0  0
  8 11  1  0  0  0  0
  9 21  1  0  0  0  0
  9 22  1  0  0  0  0
  9 23  1  0  0  0  0
 10 24  1  0  0  0  0
 10 25  1  0  0  0  0
 10 26  1  0  0  0  0
 11 27  1  0  0  0  0
 11 28  1  0  0  0  0
 11 29  1  0  0  0  0
 12 13  3  0  0  0  0
 13 14  1  0  0  0  0
 14 15  1  0  0  0  0
 14 31  1  0  0  0  0
 15 32  1  0  0  0  0
 15 33  1  0  0  0  0
 15 34  1  0  0  0  0
M  END
>  <PUBCHEM_COMPOUND_CID>
3015541

>  <PUBCHEM_COMPOUND_CANONICALIZED>
1

>  <PUBCHEM_CACTVS_COMPLEXITY>
338

>  <PUBCHEM_CACTVS_HBOND_ACCEPTOR>
2

>  <PUBCHEM_CACTVS_HBOND_DONOR>
2

>  <PUBCHEM_CACTVS_ROTATABLE_BOND>
1

>  <PUBCHEM_CACTVS_SUBSKEYS>
AAADceBwMAAAAAAAAAAAAAAAAAAAAAAAAAAgAAAAAAAAAAAAAAAAGgAACAAADhSggAICAAAAAgDAEgBAAAgAAAAgAAAACAAAAAgAEAIAAAAAQAAEwAAIAAOAgMAPAAAAAAAAAAAAAAAAAAAAAAAAAAAAAA==

>  <PUBCHEM_IUPAC_OPENEYE_NAME>
4-(3-hydroxybut-1-ynyl)-3,5,5-trimethyl-cyclohex-3-en-1-ol

>  <PUBCHEM_IUPAC_CAS_NAME>
4-(3-hydroxybut-1-ynyl)-3,5,5-trimethyl-1-cyclohex-3-enol

>  <PUBCHEM_IUPAC_NAME>
4-(3-hydroxybut-1-ynyl)-3,5,5-trimethylcyclohex-3-en-1-ol

>  <PUBCHEM_IUPAC_SYSTEMATIC_NAME>
3,5,5-trimethyl-4-(3-oxidanylbut-1-ynyl)cyclohex-3-en-1-ol

>  <PUBCHEM_IUPAC_TRADITIONAL_NAME>
4-(3-hydroxybut-1-ynyl)-3,5,5-trimethyl-cyclohex-3-en-1-ol

>  <PUBCHEM_IUPAC_INCHI>
InChI=1S/C13H20O2/c1-9-7-11(15)8-13(3,4)12(9)6-5-10(2)14/h10-11,14-15H,7-8H2,1-4H3

>  <PUBCHEM_IUPAC_INCHIKEY>
PJYBCOAMCYWPHQ-UHFFFAOYSA-N

>  <PUBCHEM_XLOGP3_AA>
1.4

>  <PUBCHEM_EXACT_MASS>
208.146

>  <PUBCHEM_MOLECULAR_FORMULA>
C13H20O2

>  <PUBCHEM_MOLECULAR_WEIGHT>
208.301

>  <PUBCHEM_OPENEYE_CAN_SMILES>
CC1=C(C(CC(C1)O)(C)C)C#CC(C)O

>  <PUBCHEM_OPENEYE_ISO_SMILES>
CC1=C(C(CC(C1)O)(C)C)C#CC(C)O

>  <PUBCHEM_CACTVS_TPSA>
40.5

>  <PUBCHEM_MONOISOTOPIC_WEIGHT>
208.146

>  <PUBCHEM_TOTAL_CHARGE>
0

>  <PUBCHEM_HEAVY_ATOM_COUNT>
15

>  <PUBCHEM_ATOM_DEF_STEREO_COUNT>
0

>  <PUBCHEM_ATOM_UDEF_STEREO_COUNT>
2

>  <PUBCHEM_BOND_DEF_STEREO_COUNT>
0

>  <PUBCHEM_BOND_UDEF_STEREO_COUNT>
0

>  <PUBCHEM_ISOTOPIC_ATOM_COUNT>
0

>  <PUBCHEM_COMPONENT_COUNT>
1

>  <PUBCHEM_CACTVS_TAUTO_COUNT>
1

>  <PUBCHEM_COORDINATE_TYPE>
1
5
255

>  <PUBCHEM_BONDANNOTATIONS>
14  31  3
5  18  3

$$$$
