3016413
 OpenBabel06101807152D

 26 27  0  0  1  0  0  0  0  0999 V2000
    4.6783   -0.4387    0.0000 O   0  0  0  0  0  0  0  0  0  0  0  0
    6.7619   -0.5000    0.0000 O   0  0  0  0  0  0  0  0  0  0  0  0
    6.7619    1.2320    0.0000 O   0  0  0  0  0  0  0  0  0  0  0  0
    5.2619    0.3660    0.0000 C   0  0  3  0  0  0  0  0  0  0  0  0
    4.6783    1.1708    0.0000 C   0  0  0  0  0  0  0  0  0  0  0  0
    3.7320    0.8660    0.0000 C   0  0  0  0  0  0  0  0  0  0  0  0
    3.7320   -0.1340    0.0000 C   0  0  0  0  0  0  0  0  0  0  0  0
    6.2619    0.3660    0.0000 C   0  0  0  0  0  0  0  0  0  0  0  0
    2.8660    1.3660    0.0000 C   0  0  0  0  0  0  0  0  0  0  0  0
    2.8660   -0.6340    0.0000 C   0  0  0  0  0  0  0  0  0  0  0  0
    2.0000    0.8660    0.0000 C   0  0  0  0  0  0  0  0  0  0  0  0
    2.0000   -0.1340    0.0000 C   0  0  0  0  0  0  0  0  0  0  0  0
    7.7619   -0.5000    0.0000 C   0  0  0  0  0  0  0  0  0  0  0  0
    8.2619   -1.3660    0.0000 C   0  0  0  0  0  0  0  0  0  0  0  0
    5.5436   -0.1863    0.0000 H   0  0  0  0  0  0  0  0  0  0  0  0
    5.2156    1.4800    0.0000 H   0  0  0  0  0  0  0  0  0  0  0  0
    4.4272    1.7377    0.0000 H   0  0  0  0  0  0  0  0  0  0  0  0
    2.8660    1.9860    0.0000 H   0  0  0  0  0  0  0  0  0  0  0  0
    2.8660   -1.2540    0.0000 H   0  0  0  0  0  0  0  0  0  0  0  0
    1.4631    1.1760    0.0000 H   0  0  0  0  0  0  0  0  0  0  0  0
    1.4631   -0.4440    0.0000 H   0  0  0  0  0  0  0  0  0  0  0  0
    8.3445   -0.2879    0.0000 H   0  0  0  0  0  0  0  0  0  0  0  0
    7.6542    0.1106    0.0000 H   0  0  0  0  0  0  0  0  0  0  0  0
    7.7249   -1.6760    0.0000 H   0  0  0  0  0  0  0  0  0  0  0  0
    8.5719   -1.9030    0.0000 H   0  0  0  0  0  0  0  0  0  0  0  0
    8.7988   -1.0560    0.0000 H   0  0  0  0  0  0  0  0  0  0  0  0
  1  4  1  0  0  0  0
  1  7  1  0  0  0  0
  2  8  1  0  0  0  0
  2 13  1  0  0  0  0
  3  8  2  0  0  0  0
  4  5  1  0  0  0  0
  4  8  1  0  0  0  0
  4 15  1  0  0  0  0
  5  6  1  0  0  0  0
  5 16  1  0  0  0  0
  5 17  1  0  0  0  0
  6  7  1  0  0  0  0
  6  9  2  0  0  0  0
  7 10  2  0  0  0  0
  9 11  1  0  0  0  0
  9 18  1  0  0  0  0
 10 12  1  0  0  0  0
 10 19  1  0  0  0  0
 11 12  2  0  0  0  0
 11 20  1  0  0  0  0
 12 21  1  0  0  0  0
 13 14  1  0  0  0  0
 13 22  1  0  0  0  0
 13 23  1  0  0  0  0
 14 24  1  0  0  0  0
 14 25  1  0  0  0  0
 14 26  1  0  0  0  0
M  END
>  <PUBCHEM_COMPOUND_CID>
3016413

>  <PUBCHEM_COMPOUND_CANONICALIZED>
1

>  <PUBCHEM_CACTVS_COMPLEXITY>
215

>  <PUBCHEM_CACTVS_HBOND_ACCEPTOR>
3

>  <PUBCHEM_CACTVS_HBOND_DONOR>
0

>  <PUBCHEM_CACTVS_ROTATABLE_BOND>
3

>  <PUBCHEM_CACTVS_SUBSKEYS>
AAADccBwMAAAAAAAAAAAAAAAAAAAASAAAAAwAAAAAAAAAEgBAAAAGgAAAAAADBSgmAIyDoAABACIAiDSCAICCAAgIAAIiAFGCIgNJjKEMR6COCCkwBEKqAeI7KzOAAAAAAAIAAAAAAAAABAAAAAAAAAAAA==

>  <PUBCHEM_IUPAC_OPENEYE_NAME>
ethyl 2,3-dihydrobenzofuran-2-carboxylate

>  <PUBCHEM_IUPAC_CAS_NAME>
2,3-dihydrobenzofuran-2-carboxylic acid ethyl ester

>  <PUBCHEM_IUPAC_NAME>
ethyl 2,3-dihydro-1-benzofuran-2-carboxylate

>  <PUBCHEM_IUPAC_SYSTEMATIC_NAME>
ethyl 2,3-dihydro-1-benzofuran-2-carboxylate

>  <PUBCHEM_IUPAC_TRADITIONAL_NAME>
coumaran-2-carboxylic acid ethyl ester

>  <PUBCHEM_IUPAC_INCHI>
InChI=1S/C11H12O3/c1-2-13-11(12)10-7-8-5-3-4-6-9(8)14-10/h3-6,10H,2,7H2,1H3

>  <PUBCHEM_IUPAC_INCHIKEY>
UXWAUYCFFCPXGC-UHFFFAOYSA-N

>  <PUBCHEM_XLOGP3_AA>
2.2

>  <PUBCHEM_EXACT_MASS>
192.079

>  <PUBCHEM_MOLECULAR_FORMULA>
C11H12O3

>  <PUBCHEM_MOLECULAR_WEIGHT>
192.214

>  <PUBCHEM_OPENEYE_CAN_SMILES>
CCOC(=O)C1CC2=CC=CC=C2O1

>  <PUBCHEM_OPENEYE_ISO_SMILES>
CCOC(=O)C1CC2=CC=CC=C2O1

>  <PUBCHEM_CACTVS_TPSA>
35.5

>  <PUBCHEM_MONOISOTOPIC_WEIGHT>
192.079

>  <PUBCHEM_TOTAL_CHARGE>
0

>  <PUBCHEM_HEAVY_ATOM_COUNT>
14

>  <PUBCHEM_ATOM_DEF_STEREO_COUNT>
0

>  <PUBCHEM_ATOM_UDEF_STEREO_COUNT>
1

>  <PUBCHEM_BOND_DEF_STEREO_COUNT>
0

>  <PUBCHEM_BOND_UDEF_STEREO_COUNT>
0

>  <PUBCHEM_ISOTOPIC_ATOM_COUNT>
0

>  <PUBCHEM_COMPONENT_COUNT>
1

>  <PUBCHEM_CACTVS_TAUTO_COUNT>
1

>  <PUBCHEM_COORDINATE_TYPE>
1
5
255

>  <PUBCHEM_BONDANNOTATIONS>
10  12  8
11  12  8
4  8  3
6  7  8
6  9  8
7  10  8
9  11  8

$$$$
