30215
 OpenBabel06101807152D

 17 17  0  0  0  0  0  0  0  0999 V2000
    3.7601   -1.1739    0.0000 O   0  0  0  0  0  0  0  0  0  0  0  0
    4.2601    0.3649    0.0000 N   0  0  0  0  0  0  0  0  0  0  0  0
    2.9511   -0.5861    0.0000 C   0  0  0  0  0  0  0  0  0  0  0  0
    3.2601    0.3649    0.0000 C   0  0  0  0  0  0  0  0  0  0  0  0
    4.5691   -0.5861    0.0000 C   0  0  0  0  0  0  0  0  0  0  0  0
    2.0000   -0.8952    0.0000 C   0  0  0  0  0  0  0  0  0  0  0  0
    2.6723    1.1739    0.0000 C   0  0  0  0  0  0  0  0  0  0  0  0
    5.5202   -0.8952    0.0000 C   0  0  0  0  0  0  0  0  0  0  0  0
    1.8084   -0.3055    0.0000 H   0  0  0  0  0  0  0  0  0  0  0  0
    1.4103   -1.0868    0.0000 H   0  0  0  0  0  0  0  0  0  0  0  0
    2.1916   -1.4848    0.0000 H   0  0  0  0  0  0  0  0  0  0  0  0
    3.1739    1.5384    0.0000 H   0  0  0  0  0  0  0  0  0  0  0  0
    2.3079    1.6755    0.0000 H   0  0  0  0  0  0  0  0  0  0  0  0
    2.1707    0.8095    0.0000 H   0  0  0  0  0  0  0  0  0  0  0  0
    5.3286   -1.4848    0.0000 H   0  0  0  0  0  0  0  0  0  0  0  0
    6.1098   -1.0868    0.0000 H   0  0  0  0  0  0  0  0  0  0  0  0
    5.7117   -0.3055    0.0000 H   0  0  0  0  0  0  0  0  0  0  0  0
  1  3  1  0  0  0  0
  1  5  1  0  0  0  0
  2  4  1  0  0  0  0
  2  5  2  0  0  0  0
  3  4  2  0  0  0  0
  3  6  1  0  0  0  0
  4  7  1  0  0  0  0
  5  8  1  0  0  0  0
  6  9  1  0  0  0  0
  6 10  1  0  0  0  0
  6 11  1  0  0  0  0
  7 12  1  0  0  0  0
  7 13  1  0  0  0  0
  7 14  1  0  0  0  0
  8 15  1  0  0  0  0
  8 16  1  0  0  0  0
  8 17  1  0  0  0  0
M  END
>  <PUBCHEM_COMPOUND_CID>
30215

>  <PUBCHEM_COMPOUND_CANONICALIZED>
1

>  <PUBCHEM_CACTVS_COMPLEXITY>
84.6

>  <PUBCHEM_CACTVS_HBOND_ACCEPTOR>
2

>  <PUBCHEM_CACTVS_HBOND_DONOR>
0

>  <PUBCHEM_CACTVS_ROTATABLE_BOND>
0

>  <PUBCHEM_CACTVS_SUBSKEYS>
AAADccBiIAAAAAAAAAAAAAAAAAAAAWAAAAAAAAAAAAAAAAABgAAAHgAAAAAACAyBlgAChBIIFECoAYVwVAQAiCALYCAAGAG1QAAGAABEACAPCCCABADQAAAAAAAAAAAAAAAAAAAAAAAAAAAAAAAAAAAAAA==

>  <PUBCHEM_IUPAC_OPENEYE_NAME>
2,4,5-trimethyloxazole

>  <PUBCHEM_IUPAC_CAS_NAME>
2,4,5-trimethyloxazole

>  <PUBCHEM_IUPAC_NAME>
2,4,5-trimethyl-1,3-oxazole

>  <PUBCHEM_IUPAC_SYSTEMATIC_NAME>
2,4,5-trimethyl-1,3-oxazole

>  <PUBCHEM_IUPAC_TRADITIONAL_NAME>
2,4,5-trimethyloxazole

>  <PUBCHEM_IUPAC_INCHI>
InChI=1S/C6H9NO/c1-4-5(2)8-6(3)7-4/h1-3H3

>  <PUBCHEM_IUPAC_INCHIKEY>
ZRLDBDZSLLGDOX-UHFFFAOYSA-N

>  <PUBCHEM_XLOGP3_AA>
1.5

>  <PUBCHEM_EXACT_MASS>
111.068

>  <PUBCHEM_MOLECULAR_FORMULA>
C6H9NO

>  <PUBCHEM_MOLECULAR_WEIGHT>
111.144

>  <PUBCHEM_OPENEYE_CAN_SMILES>
CC1=C(OC(=N1)C)C

>  <PUBCHEM_OPENEYE_ISO_SMILES>
CC1=C(OC(=N1)C)C

>  <PUBCHEM_CACTVS_TPSA>
26

>  <PUBCHEM_MONOISOTOPIC_WEIGHT>
111.068

>  <PUBCHEM_TOTAL_CHARGE>
0

>  <PUBCHEM_HEAVY_ATOM_COUNT>
8

>  <PUBCHEM_ATOM_DEF_STEREO_COUNT>
0

>  <PUBCHEM_ATOM_UDEF_STEREO_COUNT>
0

>  <PUBCHEM_BOND_DEF_STEREO_COUNT>
0

>  <PUBCHEM_BOND_UDEF_STEREO_COUNT>
0

>  <PUBCHEM_ISOTOPIC_ATOM_COUNT>
0

>  <PUBCHEM_COMPONENT_COUNT>
1

>  <PUBCHEM_CACTVS_TAUTO_COUNT>
1

>  <PUBCHEM_COORDINATE_TYPE>
1
5
255

>  <PUBCHEM_BONDANNOTATIONS>
1  3  8
1  5  8
2  4  8
2  5  8
3  4  8

$$$$
