3083609
 OpenBabel06101807152D

 32 34  0  0  0  0  0  0  0  0999 V2000
    8.2103    0.5324    0.0000 O   0  0  0  0  0  0  0  0  0  0  0  0
    4.6497    1.7623    0.0000 O   0  0  0  0  0  0  0  0  0  0  0  0
    2.8680   -1.2964    0.0000 O   0  0  0  0  0  0  0  0  0  0  0  0
    6.3981   -2.2723    0.0000 O   0  0  0  0  0  0  0  0  0  0  0  0
    6.3981    0.7277    0.0000 N   0  0  0  0  0  0  0  0  0  0  0  0
    5.5320    0.2277    0.0000 C   0  0  0  0  0  0  0  0  0  0  0  0
    5.5320   -0.7723    0.0000 C   0  0  0  0  0  0  0  0  0  0  0  0
    7.2641    0.2277    0.0000 C   0  0  0  0  0  0  0  0  0  0  0  0
    7.2641   -0.7723    0.0000 C   0  0  0  0  0  0  0  0  0  0  0  0
    6.3981   -1.2723    0.0000 C   0  0  0  0  0  0  0  0  0  0  0  0
    4.6381    0.7624    0.0000 C   0  0  0  0  0  0  0  0  0  0  0  0
    4.6381   -1.3070    0.0000 C   0  0  0  0  0  0  0  0  0  0  0  0
    6.3981    1.7277    0.0000 C   0  0  0  0  0  0  0  0  0  0  0  0
    3.7320   -0.7931    0.0000 C   0  0  0  0  0  0  0  0  0  0  0  0
    3.7320    0.2485    0.0000 C   0  0  0  0  0  0  0  0  0  0  0  0
    8.2103   -1.0770    0.0000 C   0  0  0  0  0  0  0  0  0  0  0  0
    8.7939   -0.2723    0.0000 C   0  0  0  0  0  0  0  0  0  0  0  0
    3.7895    2.2723    0.0000 C   0  0  0  0  0  0  0  0  0  0  0  0
    2.0000   -0.7998    0.0000 C   0  0  0  0  0  0  0  0  0  0  0  0
    4.6453   -1.9269    0.0000 H   0  0  0  0  0  0  0  0  0  0  0  0
    7.0181    1.7277    0.0000 H   0  0  0  0  0  0  0  0  0  0  0  0
    6.3981    2.3477    0.0000 H   0  0  0  0  0  0  0  0  0  0  0  0
    5.7781    1.7277    0.0000 H   0  0  0  0  0  0  0  0  0  0  0  0
    3.1963    0.5606    0.0000 H   0  0  0  0  0  0  0  0  0  0  0  0
    8.4029   -1.6663    0.0000 H   0  0  0  0  0  0  0  0  0  0  0  0
    9.4139   -0.2723    0.0000 H   0  0  0  0  0  0  0  0  0  0  0  0
    4.1057    2.8056    0.0000 H   0  0  0  0  0  0  0  0  0  0  0  0
    3.2562    2.5885    0.0000 H   0  0  0  0  0  0  0  0  0  0  0  0
    3.4733    1.7390    0.0000 H   0  0  0  0  0  0  0  0  0  0  0  0
    2.3079   -0.2617    0.0000 H   0  0  0  0  0  0  0  0  0  0  0  0
    1.4619   -0.4919    0.0000 H   0  0  0  0  0  0  0  0  0  0  0  0
    1.6921   -1.3379    0.0000 H   0  0  0  0  0  0  0  0  0  0  0  0
  1  8  1  0  0  0  0
  1 17  1  0  0  0  0
  2 11  1  0  0  0  0
  2 18  1  0  0  0  0
  3 14  1  0  0  0  0
  3 19  1  0  0  0  0
  4 10  2  0  0  0  0
  5  6  1  0  0  0  0
  5  8  1  0  0  0  0
  5 13  1  0  0  0  0
  6  7  2  0  0  0  0
  6 11  1  0  0  0  0
  7 10  1  0  0  0  0
  7 12  1  0  0  0  0
  8  9  2  0  0  0  0
  9 10  1  0  0  0  0
  9 16  1  0  0  0  0
 11 15  2  0  0  0  0
 12 14  2  0  0  0  0
 12 20  1  0  0  0  0
 13 21  1  0  0  0  0
 13 22  1  0  0  0  0
 13 23  1  0  0  0  0
 14 15  1  0  0  0  0
 15 24  1  0  0  0  0
 16 17  2  0  0  0  0
 16 25  1  0  0  0  0
 17 26  1  0  0  0  0
 18 27  1  0  0  0  0
 18 28  1  0  0  0  0
 18 29  1  0  0  0  0
 19 30  1  0  0  0  0
 19 31  1  0  0  0  0
 19 32  1  0  0  0  0
M  END
>  <PUBCHEM_COMPOUND_CID>
3083609

>  <PUBCHEM_COMPOUND_CANONICALIZED>
1

>  <PUBCHEM_CACTVS_COMPLEXITY>
361

>  <PUBCHEM_CACTVS_HBOND_ACCEPTOR>
5

>  <PUBCHEM_CACTVS_HBOND_DONOR>
0

>  <PUBCHEM_CACTVS_ROTATABLE_BOND>
2

>  <PUBCHEM_CACTVS_SUBSKEYS>
AAADccByOAAAAAAAAAAAAAAAAAAAASAAAAA8QAAAAAAAAFixwAAAHgAAAAAADAyhmAYyxoMABECIAq1S0ACCCAAtIAAIiAEPTMgOJ37MtZuPOejl5hXY6ce/+f+eAEABCAACEAAAgAIQAAQgAAAAAAAAAA==

>  <PUBCHEM_IUPAC_OPENEYE_NAME>
6,8-dimethoxy-9-methyl-furo[2,3-b]quinolin-4-one

>  <PUBCHEM_IUPAC_CAS_NAME>
6,8-dimethoxy-9-methyl-4-furo[2,3-b]quinolinone

>  <PUBCHEM_IUPAC_NAME>
6,8-dimethoxy-9-methylfuro[2,3-b]quinolin-4-one

>  <PUBCHEM_IUPAC_SYSTEMATIC_NAME>
6,8-dimethoxy-9-methyl-furo[2,3-b]quinolin-4-one

>  <PUBCHEM_IUPAC_TRADITIONAL_NAME>
6,8-dimethoxy-9-methyl-furo[2,3-b]quinolin-4-one

>  <PUBCHEM_IUPAC_INCHI>
InChI=1S/C14H13NO4/c1-15-12-10(6-8(17-2)7-11(12)18-3)13(16)9-4-5-19-14(9)15/h4-7H,1-3H3

>  <PUBCHEM_IUPAC_INCHIKEY>
FXHBKLQQNAGNJN-UHFFFAOYSA-N

>  <PUBCHEM_XLOGP3_AA>
2.5

>  <PUBCHEM_EXACT_MASS>
259.084

>  <PUBCHEM_MOLECULAR_FORMULA>
C14H13NO4

>  <PUBCHEM_MOLECULAR_WEIGHT>
259.261

>  <PUBCHEM_OPENEYE_CAN_SMILES>
CN1C2=C(C=C(C=C2C(=O)C3=C1OC=C3)OC)OC

>  <PUBCHEM_OPENEYE_ISO_SMILES>
CN1C2=C(C=C(C=C2C(=O)C3=C1OC=C3)OC)OC

>  <PUBCHEM_CACTVS_TPSA>
51.9

>  <PUBCHEM_MONOISOTOPIC_WEIGHT>
259.084

>  <PUBCHEM_TOTAL_CHARGE>
0

>  <PUBCHEM_HEAVY_ATOM_COUNT>
19

>  <PUBCHEM_ATOM_DEF_STEREO_COUNT>
0

>  <PUBCHEM_ATOM_UDEF_STEREO_COUNT>
0

>  <PUBCHEM_BOND_DEF_STEREO_COUNT>
0

>  <PUBCHEM_BOND_UDEF_STEREO_COUNT>
0

>  <PUBCHEM_ISOTOPIC_ATOM_COUNT>
0

>  <PUBCHEM_COMPONENT_COUNT>
1

>  <PUBCHEM_CACTVS_TAUTO_COUNT>
1

>  <PUBCHEM_COORDINATE_TYPE>
1
5
255

>  <PUBCHEM_BONDANNOTATIONS>
1  17  8
1  8  8
11  15  8
12  14  8
14  15  8
16  17  8
5  6  8
5  8  8
6  11  8
6  7  8
7  10  8
7  12  8
8  9  8
9  10  8
9  16  8

$$$$
