3083788
 OpenBabel06101807152D

 39 41  0  0  0  0  0  0  0  0999 V2000
    6.3580   -0.9226    0.0000 O   0  0  0  0  0  0  0  0  0  0  0  0
    2.8660   -0.8879    0.0000 O   0  0  0  0  0  0  0  0  0  0  0  0
    4.5981    2.1121    0.0000 O   0  0  0  0  0  0  0  0  0  0  0  0
    6.3465    2.1467    0.0000 O   0  0  0  0  0  0  0  0  0  0  0  0
   10.7205   -2.4221    0.0000 O   0  0  0  0  0  0  0  0  0  0  0  0
    5.4641   -0.3879    0.0000 C   0  0  0  0  0  0  0  0  0  0  0  0
    5.4641    0.6121    0.0000 C   0  0  0  0  0  0  0  0  0  0  0  0
    4.5981   -0.8879    0.0000 C   0  0  0  0  0  0  0  0  0  0  0  0
    3.7320    0.6121    0.0000 C   0  0  0  0  0  0  0  0  0  0  0  0
    3.7320   -0.3879    0.0000 C   0  0  0  0  0  0  0  0  0  0  0  0
    4.5981    1.1121    0.0000 C   0  0  0  0  0  0  0  0  0  0  0  0
    6.3580    1.1467    0.0000 C   0  0  0  0  0  0  0  0  0  0  0  0
    7.2641   -0.4087    0.0000 C   0  0  0  0  0  0  0  0  0  0  0  0
    4.5981   -1.8879    0.0000 C   0  0  0  0  0  0  0  0  0  0  0  0
    7.2641    0.6329    0.0000 C   0  0  0  0  0  0  0  0  0  0  0  0
    2.8660    1.1121    0.0000 C   0  0  0  0  0  0  0  0  0  0  0  0
    8.1282   -0.9121    0.0000 C   0  0  0  0  0  0  0  0  0  0  0  0
    8.1244   -1.9121    0.0000 C   0  0  0  0  0  0  0  0  0  0  0  0
    8.9962   -0.4154    0.0000 C   0  0  0  0  0  0  0  0  0  0  0  0
    8.9884   -2.4154    0.0000 C   0  0  0  0  0  0  0  0  0  0  0  0
    9.8602   -0.9188    0.0000 C   0  0  0  0  0  0  0  0  0  0  0  0
    2.0000   -0.3879    0.0000 C   0  0  0  0  0  0  0  0  0  0  0  0
    9.8564   -1.9187    0.0000 C   0  0  0  0  0  0  0  0  0  0  0  0
    3.9781   -1.8879    0.0000 H   0  0  0  0  0  0  0  0  0  0  0  0
    4.5981   -2.5079    0.0000 H   0  0  0  0  0  0  0  0  0  0  0  0
    5.2181   -1.8879    0.0000 H   0  0  0  0  0  0  0  0  0  0  0  0
    7.7998    0.9450    0.0000 H   0  0  0  0  0  0  0  0  0  0  0  0
    3.1760    1.6490    0.0000 H   0  0  0  0  0  0  0  0  0  0  0  0
    2.3291    1.4221    0.0000 H   0  0  0  0  0  0  0  0  0  0  0  0
    2.5560    0.5751    0.0000 H   0  0  0  0  0  0  0  0  0  0  0  0
    7.5862   -2.2200    0.0000 H   0  0  0  0  0  0  0  0  0  0  0  0
    8.9985    0.2046    0.0000 H   0  0  0  0  0  0  0  0  0  0  0  0
    4.0611    2.4221    0.0000 H   0  0  0  0  0  0  0  0  0  0  0  0
    8.9860   -3.0354    0.0000 H   0  0  0  0  0  0  0  0  0  0  0  0
   10.3984   -0.6108    0.0000 H   0  0  0  0  0  0  0  0  0  0  0  0
    2.3100    0.1490    0.0000 H   0  0  0  0  0  0  0  0  0  0  0  0
    1.4631   -0.0779    0.0000 H   0  0  0  0  0  0  0  0  0  0  0  0
    1.6900   -0.9249    0.0000 H   0  0  0  0  0  0  0  0  0  0  0  0
   11.2586   -2.1142    0.0000 H   0  0  0  0  0  0  0  0  0  0  0  0
  1  6  1  0  0  0  0
  1 13  1  0  0  0  0
  2 10  1  0  0  0  0
  2 22  1  0  0  0  0
  3 11  1  0  0  0  0
  3 33  1  0  0  0  0
  4 12  2  0  0  0  0
  5 23  1  0  0  0  0
  5 39  1  0  0  0  0
  6  7  2  0  0  0  0
  6  8  1  0  0  0  0
  7 11  1  0  0  0  0
  7 12  1  0  0  0  0
  8 10  2  0  0  0  0
  8 14  1  0  0  0  0
  9 10  1  0  0  0  0
  9 11  2  0  0  0  0
  9 16  1  0  0  0  0
 12 15  1  0  0  0  0
 13 15  2  0  0  0  0
 13 17  1  0  0  0  0
 14 24  1  0  0  0  0
 14 25  1  0  0  0  0
 14 26  1  0  0  0  0
 15 27  1  0  0  0  0
 16 28  1  0  0  0  0
 16 29  1  0  0  0  0
 16 30  1  0  0  0  0
 17 18  2  0  0  0  0
 17 19  1  0  0  0  0
 18 20  1  0  0  0  0
 18 31  1  0  0  0  0
 19 21  2  0  0  0  0
 19 32  1  0  0  0  0
 20 23  2  0  0  0  0
 20 34  1  0  0  0  0
 21 23  1  0  0  0  0
 21 35  1  0  0  0  0
 22 36  1  0  0  0  0
 22 37  1  0  0  0  0
 22 38  1  0  0  0  0
M  END
>  <PUBCHEM_COMPOUND_CID>
3083788

>  <PUBCHEM_COMPOUND_CANONICALIZED>
1

>  <PUBCHEM_CACTVS_COMPLEXITY>
480

>  <PUBCHEM_CACTVS_HBOND_ACCEPTOR>
5

>  <PUBCHEM_CACTVS_HBOND_DONOR>
2

>  <PUBCHEM_CACTVS_ROTATABLE_BOND>
2

>  <PUBCHEM_CACTVS_SUBSKEYS>
AAADceB4OAAAAAAAAAAAAAAAAAAAAAAAAAAwYIAAAAAAAACBQAAAGgAACAAADASAmAIyBoAABgCIAqBSAAACCAAkIAAIiAEGCMgMJzaGNRqCeWCl4BUIuQeI7OzOIAACCAAIAABAAAQQABAAAAAAAAAAAA==

>  <PUBCHEM_IUPAC_OPENEYE_NAME>
5-hydroxy-2-(4-hydroxyphenyl)-7-methoxy-6,8-dimethyl-chromen-4-one

>  <PUBCHEM_IUPAC_CAS_NAME>
5-hydroxy-2-(4-hydroxyphenyl)-7-methoxy-6,8-dimethyl-1-benzopyran-4-one

>  <PUBCHEM_IUPAC_NAME>
5-hydroxy-2-(4-hydroxyphenyl)-7-methoxy-6,8-dimethylchromen-4-one

>  <PUBCHEM_IUPAC_SYSTEMATIC_NAME>
2-(4-hydroxyphenyl)-7-methoxy-6,8-dimethyl-5-oxidanyl-chromen-4-one

>  <PUBCHEM_IUPAC_TRADITIONAL_NAME>
5-hydroxy-2-(4-hydroxyphenyl)-7-methoxy-6,8-dimethyl-chromone

>  <PUBCHEM_IUPAC_INCHI>
InChI=1S/C18H16O5/c1-9-16(21)15-13(20)8-14(11-4-6-12(19)7-5-11)23-18(15)10(2)17(9)22-3/h4-8,19,21H,1-3H3

>  <PUBCHEM_IUPAC_INCHIKEY>
QJSQOGJCHBXLAH-UHFFFAOYSA-N

>  <PUBCHEM_XLOGP3_AA>
3.7

>  <PUBCHEM_EXACT_MASS>
312.1

>  <PUBCHEM_MOLECULAR_FORMULA>
C18H16O5

>  <PUBCHEM_MOLECULAR_WEIGHT>
312.321

>  <PUBCHEM_OPENEYE_CAN_SMILES>
CC1=C(C2=C(C(=C1OC)C)OC(=CC2=O)C3=CC=C(C=C3)O)O

>  <PUBCHEM_OPENEYE_ISO_SMILES>
CC1=C(C2=C(C(=C1OC)C)OC(=CC2=O)C3=CC=C(C=C3)O)O

>  <PUBCHEM_CACTVS_TPSA>
76

>  <PUBCHEM_MONOISOTOPIC_WEIGHT>
312.1

>  <PUBCHEM_TOTAL_CHARGE>
0

>  <PUBCHEM_HEAVY_ATOM_COUNT>
23

>  <PUBCHEM_ATOM_DEF_STEREO_COUNT>
0

>  <PUBCHEM_ATOM_UDEF_STEREO_COUNT>
0

>  <PUBCHEM_BOND_DEF_STEREO_COUNT>
0

>  <PUBCHEM_BOND_UDEF_STEREO_COUNT>
0

>  <PUBCHEM_ISOTOPIC_ATOM_COUNT>
0

>  <PUBCHEM_COMPONENT_COUNT>
1

>  <PUBCHEM_CACTVS_TAUTO_COUNT>
24

>  <PUBCHEM_COORDINATE_TYPE>
1
5
255

>  <PUBCHEM_BONDANNOTATIONS>
1  13  8
1  6  8
12  15  8
13  15  8
17  18  8
17  19  8
18  20  8
19  21  8
20  23  8
21  23  8
6  7  8
6  8  8
7  11  8
7  12  8
8  10  8
9  10  8
9  11  8

$$$$
