3084009
 OpenBabel06101807152D

 32 35  0  0  0  0  0  0  0  0999 V2000
    5.9065   -1.0010    0.0000 O   0  0  0  0  0  0  0  0  0  0  0  0
    8.0505    1.0675    0.0000 O   0  0  0  0  0  0  0  0  0  0  0  0
   10.6901   -1.2766    0.0000 O   0  0  0  0  0  0  0  0  0  0  0  0
   10.0421    0.6665    0.0000 O   0  0  0  0  0  0  0  0  0  0  0  0
    6.7634    2.2265    0.0000 O   0  0  0  0  0  0  0  0  0  0  0  0
    2.4170   -0.0967    0.0000 O   0  0  0  0  0  0  0  0  0  0  0  0
    6.7123   -0.4188    0.0000 C   0  0  0  0  0  0  0  0  0  0  0  0
    6.4033    0.5323    0.0000 C   0  0  0  0  0  0  0  0  0  0  0  0
    5.4092    0.5297    0.0000 C   0  0  0  0  0  0  0  0  0  0  0  0
    7.6904   -0.6267    0.0000 C   0  0  0  0  0  0  0  0  0  0  0  0
    5.1028   -0.4160    0.0000 C   0  0  0  0  0  0  0  0  0  0  0  0
    8.3596    0.1165    0.0000 C   0  0  0  0  0  0  0  0  0  0  0  0
    7.0724    1.2754    0.0000 C   0  0  0  0  0  0  0  0  0  0  0  0
    7.9970   -1.6222    0.0000 C   0  0  0  0  0  0  0  0  0  0  0  0
    4.7276    1.3092    0.0000 C   0  0  0  0  0  0  0  0  0  0  0  0
    9.3816   -0.0844    0.0000 C   0  0  0  0  0  0  0  0  0  0  0  0
    4.0936   -0.6477    0.0000 C   0  0  0  0  0  0  0  0  0  0  0  0
    9.7112   -1.0725    0.0000 C   0  0  0  0  0  0  0  0  0  0  0  0
    9.0142   -1.8466    0.0000 C   0  0  0  0  0  0  0  0  0  0  0  0
    3.7133    1.1009    0.0000 C   0  0  0  0  0  0  0  0  0  0  0  0
    3.3942    0.1158    0.0000 C   0  0  0  0  0  0  0  0  0  0  0  0
   11.0028   -2.2265    0.0000 C   0  0  0  0  0  0  0  0  0  0  0  0
    7.5768   -2.0781    0.0000 H   0  0  0  0  0  0  0  0  0  0  0  0
    4.9255    1.8968    0.0000 H   0  0  0  0  0  0  0  0  0  0  0  0
    3.9094   -1.2397    0.0000 H   0  0  0  0  0  0  0  0  0  0  0  0
    9.2035   -2.4370    0.0000 H   0  0  0  0  0  0  0  0  0  0  0  0
    3.2998    1.5629    0.0000 H   0  0  0  0  0  0  0  0  0  0  0  0
   10.6500    0.5446    0.0000 H   0  0  0  0  0  0  0  0  0  0  0  0
    2.0000    0.3621    0.0000 H   0  0  0  0  0  0  0  0  0  0  0  0
   10.4139   -2.4204    0.0000 H   0  0  0  0  0  0  0  0  0  0  0  0
   11.1966   -2.8154    0.0000 H   0  0  0  0  0  0  0  0  0  0  0  0
   11.5917   -2.0326    0.0000 H   0  0  0  0  0  0  0  0  0  0  0  0
  1  7  1  0  0  0  0
  1 11  1  0  0  0  0
  2 12  1  0  0  0  0
  2 13  1  0  0  0  0
  3 18  1  0  0  0  0
  3 22  1  0  0  0  0
  4 16  1  0  0  0  0
  4 28  1  0  0  0  0
  5 13  2  0  0  0  0
  6 21  1  0  0  0  0
  6 29  1  0  0  0  0
  7  8  2  0  0  0  0
  7 10  1  0  0  0  0
  8  9  1  0  0  0  0
  8 13  1  0  0  0  0
  9 11  2  0  0  0  0
  9 15  1  0  0  0  0
 10 12  2  0  0  0  0
 10 14  1  0  0  0  0
 11 17  1  0  0  0  0
 12 16  1  0  0  0  0
 14 19  2  0  0  0  0
 14 23  1  0  0  0  0
 15 20  2  0  0  0  0
 15 24  1  0  0  0  0
 16 18  2  0  0  0  0
 17 21  2  0  0  0  0
 17 25  1  0  0  0  0
 18 19  1  0  0  0  0
 19 26  1  0  0  0  0
 20 21  1  0  0  0  0
 20 27  1  0  0  0  0
 22 30  1  0  0  0  0
 22 31  1  0  0  0  0
 22 32  1  0  0  0  0
M  END
>  <PUBCHEM_COMPOUND_CID>
3084009

>  <PUBCHEM_COMPOUND_CANONICALIZED>
1

>  <PUBCHEM_CACTVS_COMPLEXITY>
454

>  <PUBCHEM_CACTVS_HBOND_ACCEPTOR>
6

>  <PUBCHEM_CACTVS_HBOND_DONOR>
2

>  <PUBCHEM_CACTVS_ROTATABLE_BOND>
1

>  <PUBCHEM_CACTVS_SUBSKEYS>
AAADccB4OAAAAAAAAAAAAAAAAAAAASAAAAA0YIAAAAAAAEiR9AAAGgAACAAADASAmAIyDsAABkCIAqDSCAACCAAkIAAIiAEGiMgNJzaONRqCe2Ol4BULuYfL7PzOoAABCAAIQABAAAIQABCAAAAAAAAAAA==

>  <PUBCHEM_IUPAC_OPENEYE_NAME>
4,9-dihydroxy-3-methoxy-benzofuro[3,2-c]chromen-6-one

>  <PUBCHEM_IUPAC_CAS_NAME>
4,9-dihydroxy-3-methoxy-6-benzofuro[3,2-c][1]benzopyranone

>  <PUBCHEM_IUPAC_NAME>
4,9-dihydroxy-3-methoxy-[1]benzofuro[3,2-c]chromen-6-one

>  <PUBCHEM_IUPAC_SYSTEMATIC_NAME>
3-methoxy-4,9-bis(oxidanyl)-[1]benzofuro[3,2-c]chromen-6-one

>  <PUBCHEM_IUPAC_TRADITIONAL_NAME>
4,9-dihydroxy-3-methoxy-benzofuro[3,2-c]chromen-6-one

>  <PUBCHEM_IUPAC_INCHI>
InChI=1S/C16H10O6/c1-20-10-5-4-9-14-12(16(19)22-15(9)13(10)18)8-3-2-7(17)6-11(8)21-14/h2-6,17-18H,1H3

>  <PUBCHEM_IUPAC_INCHIKEY>
YLRNDYZYIUVEDH-UHFFFAOYSA-N

>  <PUBCHEM_XLOGP3_AA>
2.7

>  <PUBCHEM_EXACT_MASS>
298.048

>  <PUBCHEM_MOLECULAR_FORMULA>
C16H10O6

>  <PUBCHEM_MOLECULAR_WEIGHT>
298.25

>  <PUBCHEM_OPENEYE_CAN_SMILES>
COC1=C(C2=C(C=C1)C3=C(C4=C(O3)C=C(C=C4)O)C(=O)O2)O

>  <PUBCHEM_OPENEYE_ISO_SMILES>
COC1=C(C2=C(C=C1)C3=C(C4=C(O3)C=C(C=C4)O)C(=O)O2)O

>  <PUBCHEM_CACTVS_TPSA>
89.1

>  <PUBCHEM_MONOISOTOPIC_WEIGHT>
298.048

>  <PUBCHEM_TOTAL_CHARGE>
0

>  <PUBCHEM_HEAVY_ATOM_COUNT>
22

>  <PUBCHEM_ATOM_DEF_STEREO_COUNT>
0

>  <PUBCHEM_ATOM_UDEF_STEREO_COUNT>
0

>  <PUBCHEM_BOND_DEF_STEREO_COUNT>
0

>  <PUBCHEM_BOND_UDEF_STEREO_COUNT>
0

>  <PUBCHEM_ISOTOPIC_ATOM_COUNT>
0

>  <PUBCHEM_COMPONENT_COUNT>
1

>  <PUBCHEM_CACTVS_TAUTO_COUNT>
16

>  <PUBCHEM_COORDINATE_TYPE>
1
5
255

>  <PUBCHEM_BONDANNOTATIONS>
1  11  8
1  7  8
10  12  8
10  14  8
11  17  8
12  16  8
14  19  8
15  20  8
16  18  8
17  21  8
18  19  8
2  12  8
2  13  8
20  21  8
7  10  8
7  8  8
8  13  8
8  9  8
9  11  8
9  15  8

$$$$
