3085061
 OpenBabel06101807152D

 71 74  0  0  0  0  0  0  0  0999 V2000
    6.3465   -1.2621    0.0000 O   0  0  0  0  0  0  0  0  0  0  0  0
    9.0458    1.2621    0.0000 O   0  0  0  0  0  0  0  0  0  0  0  0
    2.8660    1.7725    0.0000 O   0  0  0  0  0  0  0  0  0  0  0  0
   12.5263   -1.7725    0.0000 O   0  0  0  0  0  0  0  0  0  0  0  0
    2.8660   -0.2275    0.0000 O   0  0  0  0  0  0  0  0  0  0  0  0
   12.5263    0.2275    0.0000 O   0  0  0  0  0  0  0  0  0  0  0  0
    3.7320   -1.7275    0.0000 O   0  0  0  0  0  0  0  0  0  0  0  0
   11.6603    1.7275    0.0000 O   0  0  0  0  0  0  0  0  0  0  0  0
    7.2641    0.2517    0.0000 C   0  0  0  0  0  0  0  0  0  0  0  0
    5.4641    1.2725    0.0000 C   0  0  0  0  0  0  0  0  0  0  0  0
    8.1282   -0.2517    0.0000 C   0  0  0  0  0  0  0  0  0  0  0  0
    4.5981    1.7725    0.0000 C   0  0  0  0  0  0  0  0  0  0  0  0
    9.9282   -1.2725    0.0000 C   0  0  0  0  0  0  0  0  0  0  0  0
    5.4641    0.2725    0.0000 C   0  0  0  0  0  0  0  0  0  0  0  0
    9.9282   -0.2725    0.0000 C   0  0  0  0  0  0  0  0  0  0  0  0
   10.7942   -1.7725    0.0000 C   0  0  0  0  0  0  0  0  0  0  0  0
    4.5981    2.7725    0.0000 C   0  0  0  0  0  0  0  0  0  0  0  0
    7.2641    1.2933    0.0000 C   0  0  0  0  0  0  0  0  0  0  0  0
    6.3580   -0.2622    0.0000 C   0  0  0  0  0  0  0  0  0  0  0  0
    8.1282   -1.2933    0.0000 C   0  0  0  0  0  0  0  0  0  0  0  0
    9.0343    0.2622    0.0000 C   0  0  0  0  0  0  0  0  0  0  0  0
   10.7942   -2.7725    0.0000 C   0  0  0  0  0  0  0  0  0  0  0  0
    6.3580    1.8071    0.0000 C   0  0  0  0  0  0  0  0  0  0  0  0
    9.0343   -1.8071    0.0000 C   0  0  0  0  0  0  0  0  0  0  0  0
    4.5981   -0.2275    0.0000 C   0  0  0  0  0  0  0  0  0  0  0  0
    3.7320    1.2725    0.0000 C   0  0  0  0  0  0  0  0  0  0  0  0
   10.7942    0.2275    0.0000 C   0  0  0  0  0  0  0  0  0  0  0  0
   11.6603   -1.2725    0.0000 C   0  0  0  0  0  0  0  0  0  0  0  0
    3.7320    0.2725    0.0000 C   0  0  0  0  0  0  0  0  0  0  0  0
   11.6603   -0.2725    0.0000 C   0  0  0  0  0  0  0  0  0  0  0  0
    3.7320    3.2725    0.0000 C   0  0  0  0  0  0  0  0  0  0  0  0
    5.4641    3.2725    0.0000 C   0  0  0  0  0  0  0  0  0  0  0  0
    8.1282    1.7966    0.0000 C   0  0  0  0  0  0  0  0  0  0  0  0
    7.2641   -1.7966    0.0000 C   0  0  0  0  0  0  0  0  0  0  0  0
   11.6603   -3.2725    0.0000 C   0  0  0  0  0  0  0  0  0  0  0  0
    9.9282   -3.2725    0.0000 C   0  0  0  0  0  0  0  0  0  0  0  0
    4.5981   -1.2275    0.0000 C   0  0  0  0  0  0  0  0  0  0  0  0
   10.7942    1.2275    0.0000 C   0  0  0  0  0  0  0  0  0  0  0  0
    2.0000    1.2725    0.0000 C   0  0  0  0  0  0  0  0  0  0  0  0
    4.5981    3.3925    0.0000 H   0  0  0  0  0  0  0  0  0  0  0  0
   10.2573   -2.4625    0.0000 H   0  0  0  0  0  0  0  0  0  0  0  0
    6.3509    2.4271    0.0000 H   0  0  0  0  0  0  0  0  0  0  0  0
    9.0414   -2.4271    0.0000 H   0  0  0  0  0  0  0  0  0  0  0  0
    5.7741    2.7356    0.0000 H   0  0  0  0  0  0  0  0  0  0  0  0
    6.0010    3.5825    0.0000 H   0  0  0  0  0  0  0  0  0  0  0  0
    5.1541    3.8094    0.0000 H   0  0  0  0  0  0  0  0  0  0  0  0
    4.0420    3.8094    0.0000 H   0  0  0  0  0  0  0  0  0  0  0  0
    3.1951    3.5825    0.0000 H   0  0  0  0  0  0  0  0  0  0  0  0
    3.4220    2.7356    0.0000 H   0  0  0  0  0  0  0  0  0  0  0  0
    8.4403    1.2609    0.0000 H   0  0  0  0  0  0  0  0  0  0  0  0
    8.6639    2.1087    0.0000 H   0  0  0  0  0  0  0  0  0  0  0  0
    7.8161    2.3324    0.0000 H   0  0  0  0  0  0  0  0  0  0  0  0
    6.9520   -1.2609    0.0000 H   0  0  0  0  0  0  0  0  0  0  0  0
    6.7284   -2.1087    0.0000 H   0  0  0  0  0  0  0  0  0  0  0  0
    7.5762   -2.3324    0.0000 H   0  0  0  0  0  0  0  0  0  0  0  0
    9.6182   -2.7356    0.0000 H   0  0  0  0  0  0  0  0  0  0  0  0
    9.3913   -3.5825    0.0000 H   0  0  0  0  0  0  0  0  0  0  0  0
   10.2382   -3.8094    0.0000 H   0  0  0  0  0  0  0  0  0  0  0  0
   11.3503   -3.8094    0.0000 H   0  0  0  0  0  0  0  0  0  0  0  0
   12.1972   -3.5825    0.0000 H   0  0  0  0  0  0  0  0  0  0  0  0
   11.9703   -2.7356    0.0000 H   0  0  0  0  0  0  0  0  0  0  0  0
    5.8060   -1.5659    0.0000 H   0  0  0  0  0  0  0  0  0  0  0  0
    5.1350   -1.5375    0.0000 H   0  0  0  0  0  0  0  0  0  0  0  0
    9.5863    1.5659    0.0000 H   0  0  0  0  0  0  0  0  0  0  0  0
   10.2573    1.5375    0.0000 H   0  0  0  0  0  0  0  0  0  0  0  0
   13.0632   -1.4625    0.0000 H   0  0  0  0  0  0  0  0  0  0  0  0
    2.3291    0.0825    0.0000 H   0  0  0  0  0  0  0  0  0  0  0  0
   13.0632   -0.0825    0.0000 H   0  0  0  0  0  0  0  0  0  0  0  0
    1.6900    1.8094    0.0000 H   0  0  0  0  0  0  0  0  0  0  0  0
    1.4631    0.9625    0.0000 H   0  0  0  0  0  0  0  0  0  0  0  0
    2.3100    0.7355    0.0000 H   0  0  0  0  0  0  0  0  0  0  0  0
  1 19  1  0  0  0  0
  1 62  1  0  0  0  0
  2 21  1  0  0  0  0
  2 64  1  0  0  0  0
  3 26  1  0  0  0  0
  3 39  1  0  0  0  0
  4 28  1  0  0  0  0
  4 66  1  0  0  0  0
  5 29  1  0  0  0  0
  5 67  1  0  0  0  0
  6 30  1  0  0  0  0
  6 68  1  0  0  0  0
  7 37  2  0  0  0  0
  8 38  2  0  0  0  0
  9 11  1  0  0  0  0
  9 18  1  0  0  0  0
  9 19  2  0  0  0  0
 10 12  1  0  0  0  0
 10 14  2  0  0  0  0
 10 23  1  0  0  0  0
 11 20  1  0  0  0  0
 11 21  2  0  0  0  0
 12 17  1  0  0  0  0
 12 26  2  0  0  0  0
 13 15  2  0  0  0  0
 13 16  1  0  0  0  0
 13 24  1  0  0  0  0
 14 19  1  0  0  0  0
 14 25  1  0  0  0  0
 15 21  1  0  0  0  0
 15 27  1  0  0  0  0
 16 22  1  0  0  0  0
 16 28  2  0  0  0  0
 17 31  1  0  0  0  0
 17 32  1  0  0  0  0
 17 40  1  0  0  0  0
 18 23  2  0  0  0  0
 18 33  1  0  0  0  0
 20 24  2  0  0  0  0
 20 34  1  0  0  0  0
 22 35  1  0  0  0  0
 22 36  1  0  0  0  0
 22 41  1  0  0  0  0
 23 42  1  0  0  0  0
 24 43  1  0  0  0  0
 25 29  2  0  0  0  0
 25 37  1  0  0  0  0
 26 29  1  0  0  0  0
 27 30  2  0  0  0  0
 27 38  1  0  0  0  0
 28 30  1  0  0  0  0
 31 47  1  0  0  0  0
 31 48  1  0  0  0  0
 31 49  1  0  0  0  0
 32 44  1  0  0  0  0
 32 45  1  0  0  0  0
 32 46  1  0  0  0  0
 33 50  1  0  0  0  0
 33 51  1  0  0  0  0
 33 52  1  0  0  0  0
 34 53  1  0  0  0  0
 34 54  1  0  0  0  0
 34 55  1  0  0  0  0
 35 59  1  0  0  0  0
 35 60  1  0  0  0  0
 35 61  1  0  0  0  0
 36 56  1  0  0  0  0
 36 57  1  0  0  0  0
 36 58  1  0  0  0  0
 37 63  1  0  0  0  0
 38 65  1  0  0  0  0
 39 69  1  0  0  0  0
 39 70  1  0  0  0  0
 39 71  1  0  0  0  0
M  END
>  <PUBCHEM_COMPOUND_CID>
3085061

>  <PUBCHEM_COMPOUND_CANONICALIZED>
1

>  <PUBCHEM_CACTVS_COMPLEXITY>
864

>  <PUBCHEM_CACTVS_HBOND_ACCEPTOR>
8

>  <PUBCHEM_CACTVS_HBOND_DONOR>
5

>  <PUBCHEM_CACTVS_ROTATABLE_BOND>
6

>  <PUBCHEM_CACTVS_SUBSKEYS>
AAADcfB4PAAAAAAAAAAAAAAAAAAAAAAAAAAwYMGAAAAAAADBVAAAGgAACAAADQSgmAIyBsAABgCIAihSgAACCAAkIAAAiAEEiMgNJjaGNRqAcWMk4BELuQfK6PyO4AADAAAYQADAAAYAADCAAAAAAAAAAA==

>  <PUBCHEM_IUPAC_OPENEYE_NAME>
7-(8-formyl-1,7-dihydroxy-5-isopropyl-6-methoxy-3-methyl-2-naphthyl)-2,3,8-trihydroxy-4-isopropyl-6-methyl-naphthalene-1-carbaldehyde

>  <PUBCHEM_IUPAC_CAS_NAME>
7-(8-formyl-1,7-dihydroxy-6-methoxy-3-methyl-5-propan-2-yl-2-naphthalenyl)-2,3,8-trihydroxy-6-methyl-4-propan-2-yl-1-naphthalenecarboxaldehyde

>  <PUBCHEM_IUPAC_NAME>
7-(8-formyl-1,7-dihydroxy-6-methoxy-3-methyl-5-propan-2-ylnaphthalen-2-yl)-2,3,8-trihydroxy-6-methyl-4-propan-2-ylnaphthalene-1-carbaldehyde

>  <PUBCHEM_IUPAC_SYSTEMATIC_NAME>
7-[8-methanoyl-6-methoxy-3-methyl-1,7-bis(oxidanyl)-5-propan-2-yl-naphthalen-2-yl]-6-methyl-2,3,8-tris(oxidanyl)-4-propan-2-yl-naphthalene-1-carbaldehyde

>  <PUBCHEM_IUPAC_TRADITIONAL_NAME>
7-(8-formyl-1,7-dihydroxy-5-isopropyl-6-methoxy-3-methyl-2-naphthyl)-2,3,8-trihydroxy-4-isopropyl-6-methyl-naphthalene-1-carbaldehyde

>  <PUBCHEM_IUPAC_INCHI>
InChI=1S/C31H32O8/c1-12(2)20-16-8-14(5)22(28(36)24(16)18(10-32)26(34)30(20)38)23-15(6)9-17-21(13(3)4)31(39-7)27(35)19(11-33)25(17)29(23)37/h8-13,34-38H,1-7H3

>  <PUBCHEM_IUPAC_INCHIKEY>
QSEHQWFPCMNMPH-UHFFFAOYSA-N

>  <PUBCHEM_XLOGP3_AA>
7.3

>  <PUBCHEM_EXACT_MASS>
532.21

>  <PUBCHEM_MOLECULAR_FORMULA>
C31H32O8

>  <PUBCHEM_MOLECULAR_WEIGHT>
532.589

>  <PUBCHEM_OPENEYE_CAN_SMILES>
CC1=C(C(=C2C(=C1)C(=C(C(=C2C=O)O)O)C(C)C)O)C3=C(C=C4C(=C3O)C(=C(C(=C4C(C)C)OC)O)C=O)C

>  <PUBCHEM_OPENEYE_ISO_SMILES>
CC1=C(C(=C2C(=C1)C(=C(C(=C2C=O)O)O)C(C)C)O)C3=C(C=C4C(=C3O)C(=C(C(=C4C(C)C)OC)O)C=O)C

>  <PUBCHEM_CACTVS_TPSA>
145

>  <PUBCHEM_MONOISOTOPIC_WEIGHT>
532.21

>  <PUBCHEM_TOTAL_CHARGE>
0

>  <PUBCHEM_HEAVY_ATOM_COUNT>
39

>  <PUBCHEM_ATOM_DEF_STEREO_COUNT>
0

>  <PUBCHEM_ATOM_UDEF_STEREO_COUNT>
0

>  <PUBCHEM_BOND_DEF_STEREO_COUNT>
0

>  <PUBCHEM_BOND_UDEF_STEREO_COUNT>
0

>  <PUBCHEM_ISOTOPIC_ATOM_COUNT>
0

>  <PUBCHEM_COMPONENT_COUNT>
1

>  <PUBCHEM_CACTVS_TAUTO_COUNT>
993

>  <PUBCHEM_COORDINATE_TYPE>
1
5
255

>  <PUBCHEM_BONDANNOTATIONS>
10  12  8
10  14  8
10  23  8
11  20  8
11  21  8
12  26  8
13  15  8
13  16  8
13  24  8
14  19  8
14  25  8
15  21  8
15  27  8
16  28  8
18  23  8
20  24  8
25  29  8
26  29  8
27  30  8
28  30  8
9  18  8
9  19  8

$$$$
