3085044
 OpenBabel06101807152D

 38 39  0  0  0  0  0  0  0  0999 V2000
    8.1240    1.9102    0.0000 O   0  0  0  0  0  0  0  0  0  0  0  0
    6.0010   -1.8450    0.0000 O   0  0  0  0  0  0  0  0  0  0  0  0
    2.5369    1.1550    0.0000 O   0  0  0  0  0  0  0  0  0  0  0  0
    8.3969    0.1550    0.0000 C   0  0  0  0  0  0  0  0  0  0  0  0
    7.8133   -0.6497    0.0000 C   0  0  0  0  0  0  0  0  0  0  0  0
    6.8671   -0.3450    0.0000 C   0  0  0  0  0  0  0  0  0  0  0  0
    6.8671    0.6550    0.0000 C   0  0  0  0  0  0  0  0  0  0  0  0
    7.8133    0.9597    0.0000 C   0  0  0  0  0  0  0  0  0  0  0  0
    6.0010    1.1550    0.0000 C   0  0  0  0  0  0  0  0  0  0  0  0
    9.2059   -0.4328    0.0000 C   0  0  0  0  0  0  0  0  0  0  0  0
    9.2059    0.7428    0.0000 C   0  0  0  0  0  0  0  0  0  0  0  0
    6.0010   -0.8450    0.0000 C   0  0  0  0  0  0  0  0  0  0  0  0
    5.1350    0.6550    0.0000 C   0  0  0  0  0  0  0  0  0  0  0  0
    5.1350   -0.3450    0.0000 C   0  0  0  0  0  0  0  0  0  0  0  0
    4.2690    1.1550    0.0000 C   0  0  0  0  0  0  0  0  0  0  0  0
    6.0010    2.1550    0.0000 C   0  0  0  0  0  0  0  0  0  0  0  0
    4.2690   -0.8450    0.0000 C   0  0  0  0  0  0  0  0  0  0  0  0
    3.4030    0.6550    0.0000 C   0  0  0  0  0  0  0  0  0  0  0  0
    7.5622   -1.2166    0.0000 H   0  0  0  0  0  0  0  0  0  0  0  0
    8.3507   -0.9590    0.0000 H   0  0  0  0  0  0  0  0  0  0  0  0
    8.8415   -0.9344    0.0000 H   0  0  0  0  0  0  0  0  0  0  0  0
    9.7075   -0.7972    0.0000 H   0  0  0  0  0  0  0  0  0  0  0  0
    9.5703    0.0688    0.0000 H   0  0  0  0  0  0  0  0  0  0  0  0
    9.5703    0.2412    0.0000 H   0  0  0  0  0  0  0  0  0  0  0  0
    9.7075    1.1072    0.0000 H   0  0  0  0  0  0  0  0  0  0  0  0
    8.8415    1.2444    0.0000 H   0  0  0  0  0  0  0  0  0  0  0  0
    4.6675    1.6300    0.0000 H   0  0  0  0  0  0  0  0  0  0  0  0
    3.8705    1.6300    0.0000 H   0  0  0  0  0  0  0  0  0  0  0  0
    6.6210    2.1550    0.0000 H   0  0  0  0  0  0  0  0  0  0  0  0
    6.0010    2.7750    0.0000 H   0  0  0  0  0  0  0  0  0  0  0  0
    5.3810    2.1550    0.0000 H   0  0  0  0  0  0  0  0  0  0  0  0
    3.9590   -0.3081    0.0000 H   0  0  0  0  0  0  0  0  0  0  0  0
    3.7320   -1.1550    0.0000 H   0  0  0  0  0  0  0  0  0  0  0  0
    4.5790   -1.3819    0.0000 H   0  0  0  0  0  0  0  0  0  0  0  0
    3.0044    0.1801    0.0000 H   0  0  0  0  0  0  0  0  0  0  0  0
    3.8015    0.1801    0.0000 H   0  0  0  0  0  0  0  0  0  0  0  0
    5.4641   -2.1550    0.0000 H   0  0  0  0  0  0  0  0  0  0  0  0
    2.0000    0.8450    0.0000 H   0  0  0  0  0  0  0  0  0  0  0  0
  1  8  2  0  0  0  0
  2 12  1  0  0  0  0
  2 37  1  0  0  0  0
  3 18  1  0  0  0  0
  3 38  1  0  0  0  0
  4  5  1  0  0  0  0
  4  8  1  0  0  0  0
  4 10  1  0  0  0  0
  4 11  1  0  0  0  0
  5  6  1  0  0  0  0
  5 19  1  0  0  0  0
  5 20  1  0  0  0  0
  6  7  2  0  0  0  0
  6 12  1  0  0  0  0
  7  8  1  0  0  0  0
  7  9  1  0  0  0  0
  9 13  2  0  0  0  0
  9 16  1  0  0  0  0
 10 21  1  0  0  0  0
 10 22  1  0  0  0  0
 10 23  1  0  0  0  0
 11 24  1  0  0  0  0
 11 25  1  0  0  0  0
 11 26  1  0  0  0  0
 12 14  2  0  0  0  0
 13 14  1  0  0  0  0
 13 15  1  0  0  0  0
 14 17  1  0  0  0  0
 15 18  1  0  0  0  0
 15 27  1  0  0  0  0
 15 28  1  0  0  0  0
 16 29  1  0  0  0  0
 16 30  1  0  0  0  0
 16 31  1  0  0  0  0
 17 32  1  0  0  0  0
 17 33  1  0  0  0  0
 17 34  1  0  0  0  0
 18 35  1  0  0  0  0
 18 36  1  0  0  0  0
M  END
>  <PUBCHEM_COMPOUND_CID>
3085044

>  <PUBCHEM_COMPOUND_CANONICALIZED>
1

>  <PUBCHEM_CACTVS_COMPLEXITY>
337

>  <PUBCHEM_CACTVS_HBOND_ACCEPTOR>
3

>  <PUBCHEM_CACTVS_HBOND_DONOR>
2

>  <PUBCHEM_CACTVS_ROTATABLE_BOND>
2

>  <PUBCHEM_CACTVS_SUBSKEYS>
AAADceBwMAAAAAAAAAAAAAAAAAAAAYAAAAAwAAAAAAAAAGABAAAAGgAACAAADgSgmAICBoAAAgCIAoBQAAACAAAkIAAAiAEECMgINjKCFBKAcQAkwBEImQeK7PTP4AADAAAYAADAAAYAADAAAQAACAAAAA==

>  <PUBCHEM_IUPAC_OPENEYE_NAME>
4-hydroxy-6-(2-hydroxyethyl)-2,2,5,7-tetramethyl-indan-1-one

>  <PUBCHEM_IUPAC_CAS_NAME>
4-hydroxy-6-(2-hydroxyethyl)-2,2,5,7-tetramethyl-3H-inden-1-one

>  <PUBCHEM_IUPAC_NAME>
4-hydroxy-6-(2-hydroxyethyl)-2,2,5,7-tetramethyl-3H-inden-1-one

>  <PUBCHEM_IUPAC_SYSTEMATIC_NAME>
6-(2-hydroxyethyl)-2,2,5,7-tetramethyl-4-oxidanyl-3H-inden-1-one

>  <PUBCHEM_IUPAC_TRADITIONAL_NAME>
4-hydroxy-6-(2-hydroxyethyl)-2,2,5,7-tetramethyl-indan-1-one

>  <PUBCHEM_IUPAC_INCHI>
InChI=1S/C15H20O3/c1-8-10(5-6-16)9(2)13(17)11-7-15(3,4)14(18)12(8)11/h16-17H,5-7H2,1-4H3

>  <PUBCHEM_IUPAC_INCHIKEY>
IWRJCMQFEMXOML-UHFFFAOYSA-N

>  <PUBCHEM_XLOGP3_AA>
2.5

>  <PUBCHEM_EXACT_MASS>
248.141

>  <PUBCHEM_MOLECULAR_FORMULA>
C15H20O3

>  <PUBCHEM_MOLECULAR_WEIGHT>
248.322

>  <PUBCHEM_OPENEYE_CAN_SMILES>
CC1=C(C(=C(C2=C1C(=O)C(C2)(C)C)O)C)CCO

>  <PUBCHEM_OPENEYE_ISO_SMILES>
CC1=C(C(=C(C2=C1C(=O)C(C2)(C)C)O)C)CCO

>  <PUBCHEM_CACTVS_TPSA>
57.5

>  <PUBCHEM_MONOISOTOPIC_WEIGHT>
248.141

>  <PUBCHEM_TOTAL_CHARGE>
0

>  <PUBCHEM_HEAVY_ATOM_COUNT>
18

>  <PUBCHEM_ATOM_DEF_STEREO_COUNT>
0

>  <PUBCHEM_ATOM_UDEF_STEREO_COUNT>
0

>  <PUBCHEM_BOND_DEF_STEREO_COUNT>
0

>  <PUBCHEM_BOND_UDEF_STEREO_COUNT>
0

>  <PUBCHEM_ISOTOPIC_ATOM_COUNT>
0

>  <PUBCHEM_COMPONENT_COUNT>
1

>  <PUBCHEM_CACTVS_TAUTO_COUNT>
54

>  <PUBCHEM_COORDINATE_TYPE>
1
5
255

>  <PUBCHEM_BONDANNOTATIONS>
12  14  8
13  14  8
6  12  8
6  7  8
7  9  8
9  13  8

$$$$
