3086055
 OpenBabel06101807152D

 37 38  0  0  0  0  0  0  0  0999 V2000
    3.4030    0.4050    0.0000 O   0  0  0  0  0  0  0  0  0  0  0  0
    8.5991    3.4050    0.0000 O   0  0  0  0  0  0  0  0  0  0  0  0
    2.5369   -1.0950    0.0000 O   0  0  0  0  0  0  0  0  0  0  0  0
    6.0010   -1.0950    0.0000 O   0  0  0  0  0  0  0  0  0  0  0  0
    4.2690   -4.0950    0.0000 O   0  0  0  0  0  0  0  0  0  0  0  0
    5.1350    1.4050    0.0000 C   0  0  0  0  0  0  0  0  0  0  0  0
    5.1350    0.4050    0.0000 C   0  0  0  0  0  0  0  0  0  0  0  0
    6.0010    1.9050    0.0000 C   0  0  0  0  0  0  0  0  0  0  0  0
    4.2690   -0.0950    0.0000 C   0  0  0  0  0  0  0  0  0  0  0  0
    4.2690   -1.0950    0.0000 C   0  0  0  0  0  0  0  0  0  0  0  0
    6.8671    1.4050    0.0000 C   0  0  0  0  0  0  0  0  0  0  0  0
    6.0010    2.9050    0.0000 C   0  0  0  0  0  0  0  0  0  0  0  0
    3.4030   -1.5950    0.0000 C   0  0  0  0  0  0  0  0  0  0  0  0
    5.1350   -1.5950    0.0000 C   0  0  0  0  0  0  0  0  0  0  0  0
    7.7331    1.9050    0.0000 C   0  0  0  0  0  0  0  0  0  0  0  0
    6.8671    3.4050    0.0000 C   0  0  0  0  0  0  0  0  0  0  0  0
    7.7331    2.9050    0.0000 C   0  0  0  0  0  0  0  0  0  0  0  0
    3.4030   -2.5950    0.0000 C   0  0  0  0  0  0  0  0  0  0  0  0
    5.1350   -2.5950    0.0000 C   0  0  0  0  0  0  0  0  0  0  0  0
    4.2690   -3.0950    0.0000 C   0  0  0  0  0  0  0  0  0  0  0  0
    8.5991    4.4050    0.0000 C   0  0  0  0  0  0  0  0  0  0  0  0
    4.9230    1.9876    0.0000 H   0  0  0  0  0  0  0  0  0  0  0  0
    4.5244    1.2973    0.0000 H   0  0  0  0  0  0  0  0  0  0  0  0
    5.3471   -0.1776    0.0000 H   0  0  0  0  0  0  0  0  0  0  0  0
    5.7456    0.5127    0.0000 H   0  0  0  0  0  0  0  0  0  0  0  0
    6.8671    0.7850    0.0000 H   0  0  0  0  0  0  0  0  0  0  0  0
    5.4641    3.2150    0.0000 H   0  0  0  0  0  0  0  0  0  0  0  0
    8.2700    1.5950    0.0000 H   0  0  0  0  0  0  0  0  0  0  0  0
    6.8671    4.0250    0.0000 H   0  0  0  0  0  0  0  0  0  0  0  0
    2.8660   -2.9050    0.0000 H   0  0  0  0  0  0  0  0  0  0  0  0
    5.6720   -2.9050    0.0000 H   0  0  0  0  0  0  0  0  0  0  0  0
    2.0000   -1.4050    0.0000 H   0  0  0  0  0  0  0  0  0  0  0  0
    6.5380   -1.4050    0.0000 H   0  0  0  0  0  0  0  0  0  0  0  0
    3.7320   -4.4050    0.0000 H   0  0  0  0  0  0  0  0  0  0  0  0
    9.2191    4.4050    0.0000 H   0  0  0  0  0  0  0  0  0  0  0  0
    8.5991    5.0250    0.0000 H   0  0  0  0  0  0  0  0  0  0  0  0
    7.9791    4.4050    0.0000 H   0  0  0  0  0  0  0  0  0  0  0  0
  1  9  2  0  0  0  0
  2 17  1  0  0  0  0
  2 21  1  0  0  0  0
  3 13  1  0  0  0  0
  3 32  1  0  0  0  0
  4 14  1  0  0  0  0
  4 33  1  0  0  0  0
  5 20  1  0  0  0  0
  5 34  1  0  0  0  0
  6  7  1  0  0  0  0
  6  8  1  0  0  0  0
  6 22  1  0  0  0  0
  6 23  1  0  0  0  0
  7  9  1  0  0  0  0
  7 24  1  0  0  0  0
  7 25  1  0  0  0  0
  8 11  2  0  0  0  0
  8 12  1  0  0  0  0
  9 10  1  0  0  0  0
 10 13  2  0  0  0  0
 10 14  1  0  0  0  0
 11 15  1  0  0  0  0
 11 26  1  0  0  0  0
 12 16  2  0  0  0  0
 12 27  1  0  0  0  0
 13 18  1  0  0  0  0
 14 19  2  0  0  0  0
 15 17  2  0  0  0  0
 15 28  1  0  0  0  0
 16 17  1  0  0  0  0
 16 29  1  0  0  0  0
 18 20  2  0  0  0  0
 18 30  1  0  0  0  0
 19 20  1  0  0  0  0
 19 31  1  0  0  0  0
 21 35  1  0  0  0  0
 21 36  1  0  0  0  0
 21 37  1  0  0  0  0
M  END
>  <PUBCHEM_COMPOUND_CID>
3086055

>  <PUBCHEM_COMPOUND_CANONICALIZED>
1

>  <PUBCHEM_CACTVS_COMPLEXITY>
326

>  <PUBCHEM_CACTVS_HBOND_ACCEPTOR>
5

>  <PUBCHEM_CACTVS_HBOND_DONOR>
3

>  <PUBCHEM_CACTVS_ROTATABLE_BOND>
5

>  <PUBCHEM_CACTVS_SUBSKEYS>
AAADceB4OAAAAAAAAAAAAAAAAAAAAAAAAAAwYAAAAAAAAAABQAAAGgAACAAADASAmAIyBoAABgCIAqBSAAACCAAkIAAIiAEGCMgMJzaGNRqAcWAl4BUIuQeI7OTOIAAACAAIAABAAAAQABAAAAAAAAAAAA==

>  <PUBCHEM_IUPAC_OPENEYE_NAME>
3-(4-methoxyphenyl)-1-(2,4,6-trihydroxyphenyl)propan-1-one

>  <PUBCHEM_IUPAC_CAS_NAME>
3-(4-methoxyphenyl)-1-(2,4,6-trihydroxyphenyl)-1-propanone

>  <PUBCHEM_IUPAC_NAME>
3-(4-methoxyphenyl)-1-(2,4,6-trihydroxyphenyl)propan-1-one

>  <PUBCHEM_IUPAC_SYSTEMATIC_NAME>
3-(4-methoxyphenyl)-1-[2,4,6-tris(oxidanyl)phenyl]propan-1-one

>  <PUBCHEM_IUPAC_TRADITIONAL_NAME>
3-(4-methoxyphenyl)-1-(2,4,6-trihydroxyphenyl)propan-1-one

>  <PUBCHEM_IUPAC_INCHI>
InChI=1S/C16H16O5/c1-21-12-5-2-10(3-6-12)4-7-13(18)16-14(19)8-11(17)9-15(16)20/h2-3,5-6,8-9,17,19-20H,4,7H2,1H3

>  <PUBCHEM_IUPAC_INCHIKEY>
YQNPVOBVGNGYHD-UHFFFAOYSA-N

>  <PUBCHEM_XLOGP3_AA>
3

>  <PUBCHEM_EXACT_MASS>
288.1

>  <PUBCHEM_MOLECULAR_FORMULA>
C16H16O5

>  <PUBCHEM_MOLECULAR_WEIGHT>
288.299

>  <PUBCHEM_OPENEYE_CAN_SMILES>
COC1=CC=C(C=C1)CCC(=O)C2=C(C=C(C=C2O)O)O

>  <PUBCHEM_OPENEYE_ISO_SMILES>
COC1=CC=C(C=C1)CCC(=O)C2=C(C=C(C=C2O)O)O

>  <PUBCHEM_CACTVS_TPSA>
87

>  <PUBCHEM_MONOISOTOPIC_WEIGHT>
288.1

>  <PUBCHEM_TOTAL_CHARGE>
0

>  <PUBCHEM_HEAVY_ATOM_COUNT>
21

>  <PUBCHEM_ATOM_DEF_STEREO_COUNT>
0

>  <PUBCHEM_ATOM_UDEF_STEREO_COUNT>
0

>  <PUBCHEM_BOND_DEF_STEREO_COUNT>
0

>  <PUBCHEM_BOND_UDEF_STEREO_COUNT>
0

>  <PUBCHEM_ISOTOPIC_ATOM_COUNT>
0

>  <PUBCHEM_COMPONENT_COUNT>
1

>  <PUBCHEM_CACTVS_TAUTO_COUNT>
25

>  <PUBCHEM_COORDINATE_TYPE>
1
5
255

>  <PUBCHEM_BONDANNOTATIONS>
10  13  8
10  14  8
11  15  8
12  16  8
13  18  8
14  19  8
15  17  8
16  17  8
18  20  8
19  20  8
8  11  8
8  12  8

$$$$
