30976
 OpenBabel06101807152D

 17 18  0  0  0  0  0  0  0  0999 V2000
    6.0812    0.4597    0.0000 N   0  0  0  0  0  0  0  0  0  0  0  0
    6.0812   -1.1497    0.0000 N   0  0  0  0  0  0  0  0  0  0  0  0
    4.2690   -1.3450    0.0000 N   0  0  0  0  0  0  0  0  0  0  0  0
    3.4030    0.1550    0.0000 N   0  0  0  0  0  0  0  0  0  0  0  0
    4.2690    1.6550    0.0000 N   0  0  0  0  0  0  0  0  0  0  0  0
    2.5369   -1.3450    0.0000 N   0  0  0  0  0  0  0  0  0  0  0  0
    5.1350    0.1550    0.0000 C   0  0  0  0  0  0  0  0  0  0  0  0
    5.1350   -0.8450    0.0000 C   0  0  0  0  0  0  0  0  0  0  0  0
    4.2690    0.6550    0.0000 C   0  0  0  0  0  0  0  0  0  0  0  0
    6.6648   -0.3450    0.0000 C   0  0  0  0  0  0  0  0  0  0  0  0
    3.4030   -0.8450    0.0000 C   0  0  0  0  0  0  0  0  0  0  0  0
    6.2738    1.0490    0.0000 H   0  0  0  0  0  0  0  0  0  0  0  0
    7.2848   -0.3450    0.0000 H   0  0  0  0  0  0  0  0  0  0  0  0
    3.7320    1.9650    0.0000 H   0  0  0  0  0  0  0  0  0  0  0  0
    4.8059    1.9650    0.0000 H   0  0  0  0  0  0  0  0  0  0  0  0
    2.5369   -1.9650    0.0000 H   0  0  0  0  0  0  0  0  0  0  0  0
    2.0000   -1.0350    0.0000 H   0  0  0  0  0  0  0  0  0  0  0  0
  1  7  1  0  0  0  0
  1 10  1  0  0  0  0
  1 12  1  0  0  0  0
  2  8  1  0  0  0  0
  2 10  2  0  0  0  0
  3  8  1  0  0  0  0
  3 11  2  0  0  0  0
  4  9  2  0  0  0  0
  4 11  1  0  0  0  0
  5  9  1  0  0  0  0
  5 14  1  0  0  0  0
  5 15  1  0  0  0  0
  6 11  1  0  0  0  0
  6 16  1  0  0  0  0
  6 17  1  0  0  0  0
  7  8  2  0  0  0  0
  7  9  1  0  0  0  0
 10 13  1  0  0  0  0
M  END
>  <PUBCHEM_COMPOUND_CID>
30976

>  <PUBCHEM_COMPOUND_CANONICALIZED>
1

>  <PUBCHEM_CACTVS_COMPLEXITY>
150

>  <PUBCHEM_CACTVS_HBOND_ACCEPTOR>
5

>  <PUBCHEM_CACTVS_HBOND_DONOR>
3

>  <PUBCHEM_CACTVS_ROTATABLE_BOND>
0

>  <PUBCHEM_CACTVS_SUBSKEYS>
AAADcYBjgAAAAAAAAAAAAAAAAAAAAWAAAAAsAAAAAAAAAFgB+AAAHAAQAAAACAgBFwQF8L7JkACgAQZhZACAgC2REKABUaAoVBCASABASEAUBAgIAAJAACAAAAAAAAAAAAAAAAAAAAAAAAAAAAAAAAAAAA==

>  <PUBCHEM_IUPAC_OPENEYE_NAME>
7H-purine-2,6-diamine

>  <PUBCHEM_IUPAC_CAS_NAME>
7H-purine-2,6-diamine

>  <PUBCHEM_IUPAC_NAME>
7H-purine-2,6-diamine

>  <PUBCHEM_IUPAC_SYSTEMATIC_NAME>
7H-purine-2,6-diamine

>  <PUBCHEM_IUPAC_TRADITIONAL_NAME>
(2-amino-7H-purin-6-yl)amine

>  <PUBCHEM_IUPAC_INCHI>
InChI=1S/C5H6N6/c6-3-2-4(9-1-8-2)11-5(7)10-3/h1H,(H5,6,7,8,9,10,11)

>  <PUBCHEM_IUPAC_INCHIKEY>
MSSXOMSJDRHRMC-UHFFFAOYSA-N

>  <PUBCHEM_XLOGP3>
-0.9

>  <PUBCHEM_EXACT_MASS>
150.065

>  <PUBCHEM_MOLECULAR_FORMULA>
C5H6N6

>  <PUBCHEM_MOLECULAR_WEIGHT>
150.145

>  <PUBCHEM_OPENEYE_CAN_SMILES>
C1=NC2=C(N1)C(=NC(=N2)N)N

>  <PUBCHEM_OPENEYE_ISO_SMILES>
C1=NC2=C(N1)C(=NC(=N2)N)N

>  <PUBCHEM_CACTVS_TPSA>
107

>  <PUBCHEM_MONOISOTOPIC_WEIGHT>
150.065

>  <PUBCHEM_TOTAL_CHARGE>
0

>  <PUBCHEM_HEAVY_ATOM_COUNT>
11

>  <PUBCHEM_ATOM_DEF_STEREO_COUNT>
0

>  <PUBCHEM_ATOM_UDEF_STEREO_COUNT>
0

>  <PUBCHEM_BOND_DEF_STEREO_COUNT>
0

>  <PUBCHEM_BOND_UDEF_STEREO_COUNT>
0

>  <PUBCHEM_ISOTOPIC_ATOM_COUNT>
0

>  <PUBCHEM_COMPONENT_COUNT>
1

>  <PUBCHEM_CACTVS_TAUTO_COUNT>
26

>  <PUBCHEM_COORDINATE_TYPE>
1
5
255

>  <PUBCHEM_BONDANNOTATIONS>
1  10  8
1  7  8
2  10  8
2  8  8
3  11  8
3  8  8
4  11  8
4  9  8
7  8  8
7  9  8

$$$$
