32033
 OpenBabel06101807152D

 15 15  0  0  1  0  0  0  0  0999 V2000
    3.7601    0.7694    0.0000 S   0  0  0  0  0  0  0  0  0  0  0  0
    4.2601   -0.7694    0.0000 S   0  0  0  0  0  0  0  0  0  0  0  0
    3.2601   -0.7694    0.0000 S   0  0  0  0  0  0  0  0  0  0  0  0
    4.5691    0.1816    0.0000 C   0  0  3  0  0  0  0  0  0  0  0  0
    2.9511    0.1816    0.0000 C   0  0  3  0  0  0  0  0  0  0  0  0
    5.5202    0.4907    0.0000 C   0  0  0  0  0  0  0  0  0  0  0  0
    2.0000    0.4907    0.0000 C   0  0  0  0  0  0  0  0  0  0  0  0
    4.7021    1.0212    0.0000 H   0  0  0  0  0  0  0  0  0  0  0  0
    2.3500   -0.4194    0.0000 H   0  0  0  0  0  0  0  0  0  0  0  0
    5.7117   -0.0990    0.0000 H   0  0  0  0  0  0  0  0  0  0  0  0
    6.1098    0.6822    0.0000 H   0  0  0  0  0  0  0  0  0  0  0  0
    5.3286    1.0803    0.0000 H   0  0  0  0  0  0  0  0  0  0  0  0
    2.1916    1.0803    0.0000 H   0  0  0  0  0  0  0  0  0  0  0  0
    1.4103    0.6822    0.0000 H   0  0  0  0  0  0  0  0  0  0  0  0
    1.8084   -0.0990    0.0000 H   0  0  0  0  0  0  0  0  0  0  0  0
  1  4  1  0  0  0  0
  1  5  1  0  0  0  0
  2  3  1  0  0  0  0
  2  4  1  0  0  0  0
  3  5  1  0  0  0  0
  4  6  1  0  0  0  0
  4  8  1  0  0  0  0
  5  7  1  0  0  0  0
  5  9  1  0  0  0  0
  6 10  1  0  0  0  0
  6 11  1  0  0  0  0
  6 12  1  0  0  0  0
  7 13  1  0  0  0  0
  7 14  1  0  0  0  0
  7 15  1  0  0  0  0
M  END
>  <PUBCHEM_COMPOUND_CID>
32033

>  <PUBCHEM_COMPOUND_CANONICALIZED>
1

>  <PUBCHEM_CACTVS_COMPLEXITY>
56

>  <PUBCHEM_CACTVS_HBOND_ACCEPTOR>
3

>  <PUBCHEM_CACTVS_HBOND_DONOR>
0

>  <PUBCHEM_CACTVS_ROTATABLE_BOND>
0

>  <PUBCHEM_CACTVS_SUBSKEYS>
AAADccBgAABgAAAAAAAAAAAAAAAAASAAAAAAAAAAAAAAAAAAAAAAGAQAAAAAAACEQACCAAAAAAgAAAAAAAAAAQAAABAAAAAAAAAAAAAAAAAAAAAAAAAgAAAAAAAAAAAAAAAAAAAAAAAAAAAAAAAAAAAAAA==

>  <PUBCHEM_IUPAC_OPENEYE_NAME>
3,5-dimethyl-1,2,4-trithiolane

>  <PUBCHEM_IUPAC_CAS_NAME>
3,5-dimethyl-1,2,4-trithiolane

>  <PUBCHEM_IUPAC_NAME>
3,5-dimethyl-1,2,4-trithiolane

>  <PUBCHEM_IUPAC_SYSTEMATIC_NAME>
3,5-dimethyl-1,2,4-trithiolane

>  <PUBCHEM_IUPAC_TRADITIONAL_NAME>
3,5-dimethyl-1,2,4-trithiolane

>  <PUBCHEM_IUPAC_INCHI>
InChI=1S/C4H8S3/c1-3-5-4(2)7-6-3/h3-4H,1-2H3

>  <PUBCHEM_IUPAC_INCHIKEY>
HFRUNLRFNNTTPQ-UHFFFAOYSA-N

>  <PUBCHEM_XLOGP3_AA>
2.4

>  <PUBCHEM_EXACT_MASS>
151.979

>  <PUBCHEM_MOLECULAR_FORMULA>
C4H8S3

>  <PUBCHEM_MOLECULAR_WEIGHT>
152.288

>  <PUBCHEM_OPENEYE_CAN_SMILES>
CC1SC(SS1)C

>  <PUBCHEM_OPENEYE_ISO_SMILES>
CC1SC(SS1)C

>  <PUBCHEM_CACTVS_TPSA>
75.9

>  <PUBCHEM_MONOISOTOPIC_WEIGHT>
151.979

>  <PUBCHEM_TOTAL_CHARGE>
0

>  <PUBCHEM_HEAVY_ATOM_COUNT>
7

>  <PUBCHEM_ATOM_DEF_STEREO_COUNT>
0

>  <PUBCHEM_ATOM_UDEF_STEREO_COUNT>
2

>  <PUBCHEM_BOND_DEF_STEREO_COUNT>
0

>  <PUBCHEM_BOND_UDEF_STEREO_COUNT>
0

>  <PUBCHEM_ISOTOPIC_ATOM_COUNT>
0

>  <PUBCHEM_COMPONENT_COUNT>
1

>  <PUBCHEM_CACTVS_TAUTO_COUNT>
1

>  <PUBCHEM_COORDINATE_TYPE>
1
5
255

>  <PUBCHEM_BONDANNOTATIONS>
4  8  3
5  9  3

$$$$
