32065
 OpenBabel06101807152D

 20 21  0  0  1  0  0  0  0  0999 V2000
    2.8660    0.6224    0.0000 N   0  0  0  0  0  0  0  0  0  0  0  0
    2.8660   -1.3776    0.0000 N   0  0  0  0  0  0  0  0  0  0  0  0
    4.6783    0.4271    0.0000 C   0  0  3  0  0  0  0  0  0  0  0  0
    5.2619   -0.3776    0.0000 C   0  0  0  0  0  0  0  0  0  0  0  0
    4.6783   -1.1824    0.0000 C   0  0  0  0  0  0  0  0  0  0  0  0
    3.7320    0.1224    0.0000 C   0  0  0  0  0  0  0  0  0  0  0  0
    3.7320   -0.8776    0.0000 C   0  0  0  0  0  0  0  0  0  0  0  0
    4.9889    1.3776    0.0000 C   0  0  0  0  0  0  0  0  0  0  0  0
    2.0000    0.1224    0.0000 C   0  0  0  0  0  0  0  0  0  0  0  0
    2.0000   -0.8776    0.0000 C   0  0  0  0  0  0  0  0  0  0  0  0
    5.2908    0.5233    0.0000 H   0  0  0  0  0  0  0  0  0  0  0  0
    5.7227   -0.7924    0.0000 H   0  0  0  0  0  0  0  0  0  0  0  0
    5.7227    0.0371    0.0000 H   0  0  0  0  0  0  0  0  0  0  0  0
    4.4272   -1.7493    0.0000 H   0  0  0  0  0  0  0  0  0  0  0  0
    5.2156   -1.4916    0.0000 H   0  0  0  0  0  0  0  0  0  0  0  0
    5.5783    1.1850    0.0000 H   0  0  0  0  0  0  0  0  0  0  0  0
    5.1815    1.9670    0.0000 H   0  0  0  0  0  0  0  0  0  0  0  0
    4.3996    1.5702    0.0000 H   0  0  0  0  0  0  0  0  0  0  0  0
    1.4631    0.4324    0.0000 H   0  0  0  0  0  0  0  0  0  0  0  0
    1.4631   -1.1876    0.0000 H   0  0  0  0  0  0  0  0  0  0  0  0
  1  6  2  0  0  0  0
  1  9  1  0  0  0  0
  2  7  2  0  0  0  0
  2 10  1  0  0  0  0
  3  4  1  0  0  0  0
  3  6  1  0  0  0  0
  3  8  1  0  0  0  0
  3 11  1  0  0  0  0
  4  5  1  0  0  0  0
  4 12  1  0  0  0  0
  4 13  1  0  0  0  0
  5  7  1  0  0  0  0
  5 14  1  0  0  0  0
  5 15  1  0  0  0  0
  6  7  1  0  0  0  0
  8 16  1  0  0  0  0
  8 17  1  0  0  0  0
  8 18  1  0  0  0  0
  9 10  2  0  0  0  0
  9 19  1  0  0  0  0
 10 20  1  0  0  0  0
M  END
>  <PUBCHEM_COMPOUND_CID>
32065

>  <PUBCHEM_COMPOUND_CANONICALIZED>
1

>  <PUBCHEM_CACTVS_COMPLEXITY>
124

>  <PUBCHEM_CACTVS_HBOND_ACCEPTOR>
2

>  <PUBCHEM_CACTVS_HBOND_DONOR>
0

>  <PUBCHEM_CACTVS_ROTATABLE_BOND>
0

>  <PUBCHEM_CACTVS_SUBSKEYS>
AAADccBzAAAAAAAAAAAAAAAAAAAAAYAAAAAsAAAAAAAAAFgBgAAAHAAAAAAADQjBFgQugBIIEACgARRnRAAAgCQxEiAIWAA4cAgAYEJAkACUAAAggADISAMQAAAOAAAAAAAAAAAAAAAAAAAAACAAAQAQAA==

>  <PUBCHEM_IUPAC_OPENEYE_NAME>
5-methyl-6,7-dihydro-5H-cyclopenta[b]pyrazine

>  <PUBCHEM_IUPAC_CAS_NAME>
5-methyl-6,7-dihydro-5H-cyclopenta[b]pyrazine

>  <PUBCHEM_IUPAC_NAME>
5-methyl-6,7-dihydro-5H-cyclopenta[b]pyrazine

>  <PUBCHEM_IUPAC_SYSTEMATIC_NAME>
5-methyl-6,7-dihydro-5H-cyclopenta[b]pyrazine

>  <PUBCHEM_IUPAC_TRADITIONAL_NAME>
5-methyl-6,7-dihydro-5H-cyclopenta[b]pyrazine

>  <PUBCHEM_IUPAC_INCHI>
InChI=1S/C8H10N2/c1-6-2-3-7-8(6)10-5-4-9-7/h4-6H,2-3H2,1H3

>  <PUBCHEM_IUPAC_INCHIKEY>
YZEFQPIMXZVPKP-UHFFFAOYSA-N

>  <PUBCHEM_XLOGP3_AA>
0.8

>  <PUBCHEM_EXACT_MASS>
134.084

>  <PUBCHEM_MOLECULAR_FORMULA>
C8H10N2

>  <PUBCHEM_MOLECULAR_WEIGHT>
134.182

>  <PUBCHEM_OPENEYE_CAN_SMILES>
CC1CCC2=NC=CN=C12

>  <PUBCHEM_OPENEYE_ISO_SMILES>
CC1CCC2=NC=CN=C12

>  <PUBCHEM_CACTVS_TPSA>
25.8

>  <PUBCHEM_MONOISOTOPIC_WEIGHT>
134.084

>  <PUBCHEM_TOTAL_CHARGE>
0

>  <PUBCHEM_HEAVY_ATOM_COUNT>
10

>  <PUBCHEM_ATOM_DEF_STEREO_COUNT>
0

>  <PUBCHEM_ATOM_UDEF_STEREO_COUNT>
1

>  <PUBCHEM_BOND_DEF_STEREO_COUNT>
0

>  <PUBCHEM_BOND_UDEF_STEREO_COUNT>
0

>  <PUBCHEM_ISOTOPIC_ATOM_COUNT>
0

>  <PUBCHEM_COMPONENT_COUNT>
1

>  <PUBCHEM_CACTVS_TAUTO_COUNT>
1

>  <PUBCHEM_COORDINATE_TYPE>
1
5
255

>  <PUBCHEM_BONDANNOTATIONS>
1  6  8
1  9  8
2  10  8
2  7  8
3  8  3
6  7  8
9  10  8

$$$$
