32450
 OpenBabel06101807152D

 25 26  0  0  0  0  0  0  0  0999 V2000
    5.4641    2.7500    0.0000 Cl  0  0  0  0  0  0  0  0  0  0  0  0
    6.3301   -2.7500    0.0000 Cl  0  0  0  0  0  0  0  0  0  0  0  0
    7.3301   -1.7500    0.0000 Cl  0  0  0  0  0  0  0  0  0  0  0  0
    5.3301   -1.7500    0.0000 Cl  0  0  0  0  0  0  0  0  0  0  0  0
    8.9282    1.7500    0.0000 Cl  0  0  0  0  0  0  0  0  0  0  0  0
    8.5622    0.3840    0.0000 Cl  0  0  0  0  0  0  0  0  0  0  0  0
    7.5622    2.1160    0.0000 Cl  0  0  0  0  0  0  0  0  0  0  0  0
    2.0000    0.7500    0.0000 Cl  0  0  0  0  0  0  0  0  0  0  0  0
    2.0000    2.7500    0.0000 Cl  0  0  0  0  0  0  0  0  0  0  0  0
    6.3301    1.2500    0.0000 N   0  0  0  0  0  0  0  0  0  0  0  0
    5.4641   -0.2500    0.0000 N   0  0  0  0  0  0  0  0  0  0  0  0
    7.1962   -0.2500    0.0000 N   0  0  0  0  0  0  0  0  0  0  0  0
    4.5981    1.2500    0.0000 C   0  0  0  0  0  0  0  0  0  0  0  0
    5.4641    0.7500    0.0000 C   0  0  0  0  0  0  0  0  0  0  0  0
    7.1962    0.7500    0.0000 C   0  0  0  0  0  0  0  0  0  0  0  0
    6.3301   -0.7500    0.0000 C   0  0  0  0  0  0  0  0  0  0  0  0
    4.5981    2.2500    0.0000 C   0  0  0  0  0  0  0  0  0  0  0  0
    3.7320    0.7500    0.0000 C   0  0  0  0  0  0  0  0  0  0  0  0
    6.3301   -1.7500    0.0000 C   0  0  0  0  0  0  0  0  0  0  0  0
    8.0622    1.2500    0.0000 C   0  0  0  0  0  0  0  0  0  0  0  0
    2.8660    1.2500    0.0000 C   0  0  0  0  0  0  0  0  0  0  0  0
    3.7320    2.7500    0.0000 C   0  0  0  0  0  0  0  0  0  0  0  0
    2.8660    2.2500    0.0000 C   0  0  0  0  0  0  0  0  0  0  0  0
    3.7320    0.1300    0.0000 H   0  0  0  0  0  0  0  0  0  0  0  0
    3.7320    3.3700    0.0000 H   0  0  0  0  0  0  0  0  0  0  0  0
  1 17  1  0  0  0  0
  2 19  1  0  0  0  0
  3 19  1  0  0  0  0
  4 19  1  0  0  0  0
  5 20  1  0  0  0  0
  6 20  1  0  0  0  0
  7 20  1  0  0  0  0
  8 21  1  0  0  0  0
  9 23  1  0  0  0  0
 10 14  2  0  0  0  0
 10 15  1  0  0  0  0
 11 14  1  0  0  0  0
 11 16  2  0  0  0  0
 12 15  2  0  0  0  0
 12 16  1  0  0  0  0
 13 14  1  0  0  0  0
 13 17  1  0  0  0  0
 13 18  2  0  0  0  0
 15 20  1  0  0  0  0
 16 19  1  0  0  0  0
 17 22  2  0  0  0  0
 18 21  1  0  0  0  0
 18 24  1  0  0  0  0
 21 23  2  0  0  0  0
 22 23  1  0  0  0  0
 22 25  1  0  0  0  0
M  END
>  <PUBCHEM_COMPOUND_CID>
32450

>  <PUBCHEM_COMPOUND_CANONICALIZED>
1

>  <PUBCHEM_CACTVS_COMPLEXITY>
391

>  <PUBCHEM_CACTVS_HBOND_ACCEPTOR>
3

>  <PUBCHEM_CACTVS_HBOND_DONOR>
0

>  <PUBCHEM_CACTVS_ROTATABLE_BOND>
1

>  <PUBCHEM_CACTVS_SUBSKEYS>
AAADcQBzAAAHgAAAAAAAAAAAAAAAAAAAAAA8QAAAAAAAAAABwAAAHAIAAAAADAKBG6AxEIYIEACgAiJiJACCgAkgBaABimAgBpiIKKKBmhHEIAhogAKIiAcQgAAOBAAQIACBAAQIACBAAQIACAAAAAAAAA==

>  <PUBCHEM_IUPAC_OPENEYE_NAME>
2,4-bis(trichloromethyl)-6-(2,4,5-trichlorophenyl)-1,3,5-triazine

>  <PUBCHEM_IUPAC_CAS_NAME>
2,4-bis(trichloromethyl)-6-(2,4,5-trichlorophenyl)-1,3,5-triazine

>  <PUBCHEM_IUPAC_NAME>
2,4-bis(trichloromethyl)-6-(2,4,5-trichlorophenyl)-1,3,5-triazine

>  <PUBCHEM_IUPAC_SYSTEMATIC_NAME>
2,4-bis(trichloromethyl)-6-[2,4,5-tris(chloranyl)phenyl]-1,3,5-triazine

>  <PUBCHEM_IUPAC_TRADITIONAL_NAME>
2,4-bis(trichloromethyl)-6-(2,4,5-trichlorophenyl)-s-triazine

>  <PUBCHEM_IUPAC_INCHI>
InChI=1S/C11H2Cl9N3/c12-4-2-6(14)5(13)1-3(4)7-21-8(10(15,16)17)23-9(22-7)11(18,19)20/h1-2H

>  <PUBCHEM_IUPAC_INCHIKEY>
PNYZJIBWCZQWTM-UHFFFAOYSA-N

>  <PUBCHEM_XLOGP3_AA>
6.8

>  <PUBCHEM_EXACT_MASS>
494.739

>  <PUBCHEM_MOLECULAR_FORMULA>
C11H2Cl9N3

>  <PUBCHEM_MOLECULAR_WEIGHT>
495.208

>  <PUBCHEM_OPENEYE_CAN_SMILES>
C1=C(C(=CC(=C1Cl)Cl)Cl)C2=NC(=NC(=N2)C(Cl)(Cl)Cl)C(Cl)(Cl)Cl

>  <PUBCHEM_OPENEYE_ISO_SMILES>
C1=C(C(=CC(=C1Cl)Cl)Cl)C2=NC(=NC(=N2)C(Cl)(Cl)Cl)C(Cl)(Cl)Cl

>  <PUBCHEM_CACTVS_TPSA>
38.7

>  <PUBCHEM_MONOISOTOPIC_WEIGHT>
490.745

>  <PUBCHEM_TOTAL_CHARGE>
0

>  <PUBCHEM_HEAVY_ATOM_COUNT>
23

>  <PUBCHEM_ATOM_DEF_STEREO_COUNT>
0

>  <PUBCHEM_ATOM_UDEF_STEREO_COUNT>
0

>  <PUBCHEM_BOND_DEF_STEREO_COUNT>
0

>  <PUBCHEM_BOND_UDEF_STEREO_COUNT>
0

>  <PUBCHEM_ISOTOPIC_ATOM_COUNT>
0

>  <PUBCHEM_COMPONENT_COUNT>
1

>  <PUBCHEM_CACTVS_TAUTO_COUNT>
1

>  <PUBCHEM_COORDINATE_TYPE>
1
5
255

>  <PUBCHEM_BONDANNOTATIONS>
10  14  8
10  15  8
11  14  8
11  16  8
12  15  8
12  16  8
13  17  8
13  18  8
17  22  8
18  21  8
21  23  8
22  23  8

$$$$
