3272188
 OpenBabel06101807152D

 50 54  0  0  1  0  0  0  0  0999 V2000
    5.8776    0.8543    0.0000 O   0  0  0  0  0  0  0  0  0  0  0  0
    2.1162   -1.4578    0.0000 O   0  0  0  0  0  0  0  0  0  0  0  0
    8.8222   -0.2463    0.0000 O   0  0  0  0  0  0  0  0  0  0  0  0
    8.2626   -2.1068    0.0000 O   0  0  0  0  0  0  0  0  0  0  0  0
    8.2994    1.4108    0.0000 O   0  0  0  0  0  0  0  0  0  0  0  0
    4.8007    2.0827    0.0000 O   0  0  0  0  0  0  0  0  0  0  0  0
    6.5267    1.9372    0.0000 O   0  0  0  0  0  0  0  0  0  0  0  0
    4.8095   -0.0340    0.0000 C   0  0  3  0  0  0  0  0  0  0  0  0
    6.0235   -0.8796    0.0000 C   0  0  3  0  0  0  0  0  0  0  0  0
    5.1114   -0.9012    0.0000 C   0  0  3  0  0  0  0  0  0  0  0  0
    6.2865   -0.0056    0.0000 C   0  0  3  0  0  0  0  0  0  0  0  0
    5.5377    0.5152    0.0000 C   0  0  3  0  0  0  0  0  0  0  0  0
    7.2038    0.2104    0.0000 C   0  0  3  0  0  0  0  0  0  0  0  0
    4.1135   -0.8664    0.0000 C   0  0  0  0  0  0  0  0  0  0  0  0
    3.0606   -1.1290    0.0000 C   0  0  3  0  0  0  0  0  0  0  0  0
    3.9426    0.2707    0.0000 C   0  0  0  0  0  0  0  0  0  0  0  0
    4.6212   -1.6777    0.0000 C   0  0  0  0  0  0  0  0  0  0  0  0
    6.6612   -1.5942    0.0000 C   0  0  0  0  0  0  0  0  0  0  0  0
    3.7088   -1.7790    0.0000 C   0  0  0  0  0  0  0  0  0  0  0  0
    7.8489   -0.4758    0.0000 C   0  0  3  0  0  0  0  0  0  0  0  0
    7.5774   -1.3784    0.0000 C   0  0  3  0  0  0  0  0  0  0  0  0
    3.1650   -0.2164    0.0000 C   0  0  0  0  0  0  0  0  0  0  0  0
    7.4686    0.8543    0.0000 C   0  0  0  0  0  0  0  0  0  0  0  0
    5.6217    1.5117    0.0000 C   0  0  0  0  0  0  0  0  0  0  0  0
    8.1872    0.3916    0.0000 C   0  0  0  0  0  0  0  0  0  0  0  0
    2.3614    0.3788    0.0000 C   0  0  0  0  0  0  0  0  0  0  0  0
    5.5306   -1.6407    0.0000 H   0  0  0  0  0  0  0  0  0  0  0  0
    6.4455    0.8294    0.0000 H   0  0  0  0  0  0  0  0  0  0  0  0
    4.7935    0.9260    0.0000 H   0  0  0  0  0  0  0  0  0  0  0  0
    4.0706   -1.4849    0.0000 H   0  0  0  0  0  0  0  0  0  0  0  0
    4.6886   -1.0980    0.0000 H   0  0  0  0  0  0  0  0  0  0  0  0
    4.2732    0.7952    0.0000 H   0  0  0  0  0  0  0  0  0  0  0  0
    3.5048    0.7097    0.0000 H   0  0  0  0  0  0  0  0  0  0  0  0
    4.5506   -2.2937    0.0000 H   0  0  0  0  0  0  0  0  0  0  0  0
    5.2060   -1.8836    0.0000 H   0  0  0  0  0  0  0  0  0  0  0  0
    6.1369   -1.9250    0.0000 H   0  0  0  0  0  0  0  0  0  0  0  0
    6.9010   -2.1659    0.0000 H   0  0  0  0  0  0  0  0  0  0  0  0
    3.1834   -2.1081    0.0000 H   0  0  0  0  0  0  0  0  0  0  0  0
    3.9127   -2.3645    0.0000 H   0  0  0  0  0  0  0  0  0  0  0  0
    8.4314   -1.0947    0.0000 H   0  0  0  0  0  0  0  0  0  0  0  0
    7.3325   -2.1924    0.0000 H   0  0  0  0  0  0  0  0  0  0  0  0
    8.2995   -0.2181    0.0000 H   0  0  0  0  0  0  0  0  0  0  0  0
    8.7969    0.5039    0.0000 H   0  0  0  0  0  0  0  0  0  0  0  0
    8.0749    1.0013    0.0000 H   0  0  0  0  0  0  0  0  0  0  0  0
    2.0000   -2.0668    0.0000 H   0  0  0  0  0  0  0  0  0  0  0  0
    2.4318    0.9947    0.0000 H   0  0  0  0  0  0  0  0  0  0  0  0
    1.7927    0.1318    0.0000 H   0  0  0  0  0  0  0  0  0  0  0  0
    9.2471   -0.6978    0.0000 H   0  0  0  0  0  0  0  0  0  0  0  0
    8.0839   -2.7005    0.0000 H   0  0  0  0  0  0  0  0  0  0  0  0
    4.8528    2.7005    0.0000 H   0  0  0  0  0  0  0  0  0  0  0  0
  1  9  1  0  0  0  0
  1 23  1  0  0  0  0
  2 15  1  0  0  0  0
  2 45  1  0  0  0  0
  3 20  1  0  0  0  0
  3 48  1  0  0  0  0
  4 21  1  0  0  0  0
  4 49  1  0  0  0  0
  5 23  2  0  0  0  0
  6 24  1  0  0  0  0
  6 50  1  0  0  0  0
  7 24  2  0  0  0  0
  8 10  1  0  0  0  0
  8 12  1  0  0  0  0
  8 14  1  0  0  0  0
  8 16  1  0  0  0  0
  9 10  1  0  0  0  0
  9 11  1  0  0  0  0
  9 18  1  0  0  0  0
 10 17  1  0  0  0  0
 10 27  1  0  0  0  0
 11 12  1  0  0  0  0
 11 13  1  0  0  0  0
 11 28  1  0  0  0  0
 12 24  1  0  0  0  0
 12 29  1  0  0  0  0
 13 20  1  0  0  0  0
 13 23  1  0  0  0  0
 13 25  1  0  0  0  0
 14 15  1  0  0  0  0
 14 30  1  0  0  0  0
 14 31  1  0  0  0  0
 15 19  1  0  0  0  0
 15 22  1  0  0  0  0
 16 22  1  0  0  0  0
 16 32  1  0  0  0  0
 16 33  1  0  0  0  0
 17 19  1  0  0  0  0
 17 34  1  0  0  0  0
 17 35  1  0  0  0  0
 18 21  1  0  0  0  0
 18 36  1  0  0  0  0
 18 37  1  0  0  0  0
 19 38  1  0  0  0  0
 19 39  1  0  0  0  0
 20 21  1  0  0  0  0
 20 40  1  0  0  0  0
 21 41  1  0  0  0  0
 22 26  2  0  0  0  0
 25 42  1  0  0  0  0
 25 43  1  0  0  0  0
 25 44  1  0  0  0  0
 26 46  1  0  0  0  0
 26 47  1  0  0  0  0
M  END
>  <PUBCHEM_COMPOUND_CID>
3272188

>  <PUBCHEM_COMPOUND_CANONICALIZED>
1

>  <PUBCHEM_CACTVS_COMPLEXITY>
763

>  <PUBCHEM_CACTVS_HBOND_ACCEPTOR>
7

>  <PUBCHEM_CACTVS_HBOND_DONOR>
4

>  <PUBCHEM_CACTVS_ROTATABLE_BOND>
1

>  <PUBCHEM_CACTVS_SUBSKEYS>
AAADceB4OAAAAAAAAAAAAAAAAAAAAaMEAAAwYAAABogSAGDAAAAAGgAACAAAD1SggAICCAAABgCIAgDSCAAAAAAgAAAAAAEAAAgBFBYAAQACQAAFoAABEAHK7vzPgAAAAAAAAADCAAYQADCAAYAADAAAAA==

>  <PUBCHEM_IUPAC_INCHI>
InChI=1S/C19H24O7/c1-8-5-17-7-18(8,25)4-3-10(17)19-6-9(20)13(21)16(2,15(24)26-19)12(19)11(17)14(22)23/h9-13,20-21,25H,1,3-7H2,2H3,(H,22,23)

>  <PUBCHEM_IUPAC_INCHIKEY>
WZRRJZYYGOOHRC-UHFFFAOYSA-N

>  <PUBCHEM_XLOGP3_AA>
-0.7

>  <PUBCHEM_EXACT_MASS>
364.152

>  <PUBCHEM_MOLECULAR_FORMULA>
C19H24O7

>  <PUBCHEM_MOLECULAR_WEIGHT>
364.394

>  <PUBCHEM_OPENEYE_CAN_SMILES>
CC12C3C(C45CC(=C)C(C4)(CCC5C3(CC(C1O)O)OC2=O)O)C(=O)O

>  <PUBCHEM_OPENEYE_ISO_SMILES>
CC12C3C(C45CC(=C)C(C4)(CCC5C3(CC(C1O)O)OC2=O)O)C(=O)O

>  <PUBCHEM_CACTVS_TPSA>
124

>  <PUBCHEM_MONOISOTOPIC_WEIGHT>
364.152

>  <PUBCHEM_TOTAL_CHARGE>
0

>  <PUBCHEM_HEAVY_ATOM_COUNT>
26

>  <PUBCHEM_ATOM_DEF_STEREO_COUNT>
0

>  <PUBCHEM_ATOM_UDEF_STEREO_COUNT>
9

>  <PUBCHEM_BOND_DEF_STEREO_COUNT>
0

>  <PUBCHEM_BOND_UDEF_STEREO_COUNT>
0

>  <PUBCHEM_ISOTOPIC_ATOM_COUNT>
0

>  <PUBCHEM_COMPONENT_COUNT>
1

>  <PUBCHEM_CACTVS_TAUTO_COUNT>
1

>  <PUBCHEM_COORDINATE_TYPE>
1
5
255

>  <PUBCHEM_BONDANNOTATIONS>
10  27  3
11  28  3
12  29  3
13  25  3
15  2  3
20  40  3
21  41  3
8  14  3
9  18  3

$$$$
