330878
 OpenBabel06101807152D

 55 58  0  0  1  0  0  0  0  0999 V2000
    6.6847    0.3310    0.0000 O   0  0  0  0  0  0  0  0  0  0  0  0
    5.7110   -1.1809    0.0000 O   0  0  0  0  0  0  0  0  0  0  0  0
    4.6497   -2.0000    0.0000 O   0  0  0  0  0  0  0  0  0  0  0  0
    2.8680   -0.9895    0.0000 O   0  0  0  0  0  0  0  0  0  0  0  0
    6.3981    2.0346    0.0000 N   0  0  0  0  0  0  0  0  0  0  0  0
    7.2641   -0.4654    0.0000 C   0  0  3  0  0  0  0  0  0  0  0  0
    6.3981   -0.9654    0.0000 C   0  0  3  0  0  0  0  0  0  0  0  0
    8.1741   -0.9722    0.0000 C   0  0  0  0  0  0  0  0  0  0  0  0
    7.2641    0.5346    0.0000 C   0  0  3  0  0  0  0  0  0  0  0  0
    6.3820   -2.0069    0.0000 C   0  0  0  0  0  0  0  0  0  0  0  0
    8.1821   -2.0138    0.0000 C   0  0  0  0  0  0  0  0  0  0  0  0
    6.3981    1.0346    0.0000 C   0  0  3  0  0  0  0  0  0  0  0  0
    5.5320   -0.4654    0.0000 C   0  0  0  0  0  0  0  0  0  0  0  0
    7.2800   -2.5346    0.0000 C   0  0  0  0  0  0  0  0  0  0  0  0
    6.2847   -0.3618    0.0000 C   0  0  0  0  0  0  0  0  0  0  0  0
    5.5320    0.5346    0.0000 C   0  0  0  0  0  0  0  0  0  0  0  0
    9.1740   -0.9607    0.0000 C   0  0  0  0  0  0  0  0  0  0  0  0
    8.6640   -0.1005    0.0000 C   0  0  0  0  0  0  0  0  0  0  0  0
    4.6381   -1.0000    0.0000 C   0  0  0  0  0  0  0  0  0  0  0  0
    4.6381    1.0693    0.0000 C   0  0  0  0  0  0  0  0  0  0  0  0
    3.7320    0.5554    0.0000 C   0  0  0  0  0  0  0  0  0  0  0  0
    3.7320   -0.4862    0.0000 C   0  0  0  0  0  0  0  0  0  0  0  0
    7.2641    2.5346    0.0000 C   0  0  0  0  0  0  0  0  0  0  0  0
    2.8680    1.0588    0.0000 C   0  0  0  0  0  0  0  0  0  0  0  0
    2.8718    2.0588    0.0000 C   0  0  0  0  0  0  0  0  0  0  0  0
    2.0000    0.5621    0.0000 C   0  0  0  0  0  0  0  0  0  0  0  0
    7.7986   -0.1512    0.0000 H   0  0  0  0  0  0  0  0  0  0  0  0
    7.8010    0.8446    0.0000 H   0  0  0  0  0  0  0  0  0  0  0  0
    5.7729   -1.8914    0.0000 H   0  0  0  0  0  0  0  0  0  0  0  0
    6.1640   -2.5873    0.0000 H   0  0  0  0  0  0  0  0  0  0  0  0
    8.3957   -2.5959    0.0000 H   0  0  0  0  0  0  0  0  0  0  0  0
    8.7922   -1.9030    0.0000 H   0  0  0  0  0  0  0  0  0  0  0  0
    6.9350    1.3446    0.0000 H   0  0  0  0  0  0  0  0  0  0  0  0
    6.8791   -3.0075    0.0000 H   0  0  0  0  0  0  0  0  0  0  0  0
    7.6774   -3.0106    0.0000 H   0  0  0  0  0  0  0  0  0  0  0  0
    9.1812   -1.5806    0.0000 H   0  0  0  0  0  0  0  0  0  0  0  0
    9.7940   -0.9535    0.0000 H   0  0  0  0  0  0  0  0  0  0  0  0
    9.1669   -0.3407    0.0000 H   0  0  0  0  0  0  0  0  0  0  0  0
    9.2045   -0.4042    0.0000 H   0  0  0  0  0  0  0  0  0  0  0  0
    8.9678    0.4400    0.0000 H   0  0  0  0  0  0  0  0  0  0  0  0
    8.1236    0.2033    0.0000 H   0  0  0  0  0  0  0  0  0  0  0  0
    5.8611    2.3446    0.0000 H   0  0  0  0  0  0  0  0  0  0  0  0
    4.6453    1.6892    0.0000 H   0  0  0  0  0  0  0  0  0  0  0  0
    7.5741    1.9977    0.0000 H   0  0  0  0  0  0  0  0  0  0  0  0
    7.8010    2.8446    0.0000 H   0  0  0  0  0  0  0  0  0  0  0  0
    6.9541    3.0716    0.0000 H   0  0  0  0  0  0  0  0  0  0  0  0
    2.8656    0.4388    0.0000 H   0  0  0  0  0  0  0  0  0  0  0  0
    4.1164   -2.3162    0.0000 H   0  0  0  0  0  0  0  0  0  0  0  0
    2.8703   -1.6095    0.0000 H   0  0  0  0  0  0  0  0  0  0  0  0
    3.4918    2.0564    0.0000 H   0  0  0  0  0  0  0  0  0  0  0  0
    2.8742    2.6788    0.0000 H   0  0  0  0  0  0  0  0  0  0  0  0
    2.2518    2.0612    0.0000 H   0  0  0  0  0  0  0  0  0  0  0  0
    1.6921    1.1002    0.0000 H   0  0  0  0  0  0  0  0  0  0  0  0
    1.4619    0.2542    0.0000 H   0  0  0  0  0  0  0  0  0  0  0  0
    2.3079    0.0240    0.0000 H   0  0  0  0  0  0  0  0  0  0  0  0
  1  9  1  0  0  0  0
  1 15  1  0  0  0  0
  2 15  2  0  0  0  0
  3 19  1  0  0  0  0
  3 48  1  0  0  0  0
  4 22  1  0  0  0  0
  4 49  1  0  0  0  0
  5 12  1  0  0  0  0
  5 23  1  0  0  0  0
  5 42  1  0  0  0  0
  6  7  1  0  0  0  0
  6  8  1  0  0  0  0
  6  9  1  0  0  0  0
  6 27  1  0  0  0  0
  7 10  1  0  0  0  0
  7 13  1  0  0  0  0
  7 15  1  0  0  0  0
  8 11  1  0  0  0  0
  8 17  1  0  0  0  0
  8 18  1  0  0  0  0
  9 12  1  0  0  0  0
  9 28  1  0  0  0  0
 10 14  1  0  0  0  0
 10 29  1  0  0  0  0
 10 30  1  0  0  0  0
 11 14  1  0  0  0  0
 11 31  1  0  0  0  0
 11 32  1  0  0  0  0
 12 16  1  0  0  0  0
 12 33  1  0  0  0  0
 13 16  1  0  0  0  0
 13 19  2  0  0  0  0
 14 34  1  0  0  0  0
 14 35  1  0  0  0  0
 16 20  2  0  0  0  0
 17 36  1  0  0  0  0
 17 37  1  0  0  0  0
 17 38  1  0  0  0  0
 18 39  1  0  0  0  0
 18 40  1  0  0  0  0
 18 41  1  0  0  0  0
 19 22  1  0  0  0  0
 20 21  1  0  0  0  0
 20 43  1  0  0  0  0
 21 22  2  0  0  0  0
 21 24  1  0  0  0  0
 23 44  1  0  0  0  0
 23 45  1  0  0  0  0
 23 46  1  0  0  0  0
 24 25  1  0  0  0  0
 24 26  1  0  0  0  0
 24 47  1  0  0  0  0
 25 50  1  0  0  0  0
 25 51  1  0  0  0  0
 25 52  1  0  0  0  0
 26 53  1  0  0  0  0
 26 54  1  0  0  0  0
 26 55  1  0  0  0  0
M  END
>  <PUBCHEM_COMPOUND_CID>
330878

>  <PUBCHEM_COMPOUND_CANONICALIZED>
1

>  <PUBCHEM_CACTVS_COMPLEXITY>
591

>  <PUBCHEM_CACTVS_HBOND_ACCEPTOR>
5

>  <PUBCHEM_CACTVS_HBOND_DONOR>
3

>  <PUBCHEM_CACTVS_ROTATABLE_BOND>
2

>  <PUBCHEM_CACTVS_SUBSKEYS>
AAADceB6OAAAAAAAAAAAAAAAAAAAASAAAAAwYMAABIAAAEjBAAAAHgAQCAAADzzhmAYyDoLABgCIAiDSCACCAAAgIAAAiIEMjIgLJjKClROHcAlk0BEZmAf6/f/f4AADAAAYQADQAAaAADSgAAAAAAAAAA==

>  <PUBCHEM_IUPAC_INCHI>
InChI=1S/C21H29NO4/c1-10(2)11-9-12-13(16(24)15(11)23)21-8-6-7-20(3,4)18(21)17(14(12)22-5)26-19(21)25/h9-10,14,17-18,22-24H,6-8H2,1-5H3

>  <PUBCHEM_IUPAC_INCHIKEY>
RCODLXKABFVUOP-UHFFFAOYSA-N

>  <PUBCHEM_XLOGP3_AA>
3.7

>  <PUBCHEM_EXACT_MASS>
359.21

>  <PUBCHEM_MOLECULAR_FORMULA>
C21H29NO4

>  <PUBCHEM_MOLECULAR_WEIGHT>
359.466

>  <PUBCHEM_OPENEYE_CAN_SMILES>
CC(C)C1=C(C(=C2C(=C1)C(C3C4C2(CCCC4(C)C)C(=O)O3)NC)O)O

>  <PUBCHEM_OPENEYE_ISO_SMILES>
CC(C)C1=C(C(=C2C(=C1)C(C3C4C2(CCCC4(C)C)C(=O)O3)NC)O)O

>  <PUBCHEM_CACTVS_TPSA>
78.8

>  <PUBCHEM_MONOISOTOPIC_WEIGHT>
359.21

>  <PUBCHEM_TOTAL_CHARGE>
0

>  <PUBCHEM_HEAVY_ATOM_COUNT>
26

>  <PUBCHEM_ATOM_DEF_STEREO_COUNT>
0

>  <PUBCHEM_ATOM_UDEF_STEREO_COUNT>
4

>  <PUBCHEM_BOND_DEF_STEREO_COUNT>
0

>  <PUBCHEM_BOND_UDEF_STEREO_COUNT>
0

>  <PUBCHEM_ISOTOPIC_ATOM_COUNT>
0

>  <PUBCHEM_COMPONENT_COUNT>
1

>  <PUBCHEM_CACTVS_TAUTO_COUNT>
34

>  <PUBCHEM_COORDINATE_TYPE>
1
5
255

>  <PUBCHEM_BONDANNOTATIONS>
9  1  3
13  16  8
13  19  8
16  20  8
19  22  8
20  21  8
21  22  8
12  5  3
6  8  3
7  10  3

$$$$
