3330909
 OpenBabel06101807152D

119124  0  0  1  0  0  0  0  0999 V2000
    6.8671   -3.3819    0.0000 O   0  0  0  0  0  0  0  0  0  0  0  0
    7.4241    2.6976    0.0000 O   0  0  0  0  0  0  0  0  0  0  0  0
    9.1604   -0.4626    0.0000 O   0  0  0  0  0  0  0  0  0  0  0  0
    4.3147    4.5410    0.0000 O   0  0  0  0  0  0  0  0  0  0  0  0
    5.1350   -3.3819    0.0000 O   0  0  0  0  0  0  0  0  0  0  0  0
    8.9405    3.5345    0.0000 O   0  0  0  0  0  0  0  0  0  0  0  0
    6.8671   -5.3819    0.0000 O   0  0  0  0  0  0  0  0  0  0  0  0
    5.1350   -6.3819    0.0000 O   0  0  0  0  0  0  0  0  0  0  0  0
    6.4577    4.4486    0.0000 O   0  0  0  0  0  0  0  0  0  0  0  0
    3.4030   -5.3819    0.0000 O   0  0  0  0  0  0  0  0  0  0  0  0
    7.4909    6.1610    0.0000 O   0  0  0  0  0  0  0  0  0  0  0  0
    9.4905    6.1225    0.0000 O   0  0  0  0  0  0  0  0  0  0  0  0
    2.5369   -3.8819    0.0000 O   0  0  0  0  0  0  0  0  0  0  0  0
   10.9735    5.2277    0.0000 O   0  0  0  0  0  0  0  0  0  0  0  0
    7.3671   -0.8521    0.0000 C   0  0  3  0  0  0  0  0  0  0  0  0
    6.3671   -0.8521    0.0000 C   0  0  3  0  0  0  0  0  0  0  0  0
    5.8671    0.0140    0.0000 C   0  0  3  0  0  0  0  0  0  0  0  0
    6.3671    0.8800    0.0000 C   0  0  3  0  0  0  0  0  0  0  0  0
    7.6718   -1.7983    0.0000 C   0  0  3  0  0  0  0  0  0  0  0  0
    7.8671    0.0140    0.0000 C   0  0  0  0  0  0  0  0  0  0  0  0
    6.0623   -1.7983    0.0000 C   0  0  0  0  0  0  0  0  0  0  0  0
    5.8602    1.7900    0.0000 C   0  0  3  0  0  0  0  0  0  0  0  0
    6.8671   -2.3819    0.0000 C   0  0  3  0  0  0  0  0  0  0  0  0
    7.3671    0.8800    0.0000 C   0  0  0  0  0  0  0  0  0  0  0  0
    4.8256   -0.0021    0.0000 C   0  0  0  0  0  0  0  0  0  0  0  0
    8.6223   -2.1089    0.0000 C   0  0  3  0  0  0  0  0  0  0  0  0
    8.3671   -0.8521    0.0000 C   0  0  0  0  0  0  0  0  0  0  0  0
    4.8186    1.7980    0.0000 C   0  0  0  0  0  0  0  0  0  0  0  0
    6.4243    2.7168    0.0000 C   0  0  3  0  0  0  0  0  0  0  0  0
    4.2978    0.8959    0.0000 C   0  0  0  0  0  0  0  0  0  0  0  0
    6.8602    1.7823    0.0000 C   0  0  0  0  0  0  0  0  0  0  0  0
    4.2689    2.7334    0.0000 C   0  0  0  0  0  0  0  0  0  0  0  0
    5.8964    3.6647    0.0000 C   0  0  0  0  0  0  0  0  0  0  0  0
    9.3666   -1.4411    0.0000 C   0  0  3  0  0  0  0  0  0  0  0  0
    4.8114    3.6731    0.0000 C   0  0  3  0  0  0  0  0  0  0  0  0
    8.8285   -3.0874    0.0000 C   0  0  0  0  0  0  0  0  0  0  0  0
    6.0010   -3.8819    0.0000 C   0  0  3  0  0  0  0  0  0  0  0  0
   10.3171   -1.7518    0.0000 C   0  0  0  0  0  0  0  0  0  0  0  0
    7.9407    3.5538    0.0000 C   0  0  3  0  0  0  0  0  0  0  0  0
    6.0010   -4.8819    0.0000 C   0  0  3  0  0  0  0  0  0  0  0  0
   11.0614   -1.0839    0.0000 C   0  0  0  0  0  0  0  0  0  0  0  0
    5.1350   -5.3819    0.0000 C   0  0  3  0  0  0  0  0  0  0  0  0
    7.4575    4.4293    0.0000 C   0  0  3  0  0  0  0  0  0  0  0  0
    4.2690   -3.8819    0.0000 C   0  0  3  0  0  0  0  0  0  0  0  0
    4.2690   -4.8819    0.0000 C   0  0  3  0  0  0  0  0  0  0  0  0
   12.0120   -1.3946    0.0000 C   0  0  0  0  0  0  0  0  0  0  0  0
    7.9741    5.2855    0.0000 C   0  0  3  0  0  0  0  0  0  0  0  0
    9.4571    4.3908    0.0000 C   0  0  3  0  0  0  0  0  0  0  0  0
    8.9739    5.2662    0.0000 C   0  0  3  0  0  0  0  0  0  0  0  0
    3.4030   -3.3819    0.0000 C   0  0  0  0  0  0  0  0  0  0  0  0
   12.7563   -0.7267    0.0000 C   0  0  0  0  0  0  0  0  0  0  0  0
   12.2182   -2.3731    0.0000 C   0  0  0  0  0  0  0  0  0  0  0  0
   10.4569    4.3715    0.0000 C   0  0  0  0  0  0  0  0  0  0  0  0
    5.7505   -0.9177    0.0000 H   0  0  0  0  0  0  0  0  0  0  0  0
    5.5612   -0.5253    0.0000 H   0  0  0  0  0  0  0  0  0  0  0  0
    6.6771    0.3431    0.0000 H   0  0  0  0  0  0  0  0  0  0  0  0
    8.1112   -1.3608    0.0000 H   0  0  0  0  0  0  0  0  0  0  0  0
    8.3420   -0.3846    0.0000 H   0  0  0  0  0  0  0  0  0  0  0  0
    8.3420    0.4125    0.0000 H   0  0  0  0  0  0  0  0  0  0  0  0
    5.4954   -1.5472    0.0000 H   0  0  0  0  0  0  0  0  0  0  0  0
    5.7531   -2.3357    0.0000 H   0  0  0  0  0  0  0  0  0  0  0  0
    7.4194   -2.6636    0.0000 H   0  0  0  0  0  0  0  0  0  0  0  0
    7.9497    1.0920    0.0000 H   0  0  0  0  0  0  0  0  0  0  0  0
    7.2594    1.4906    0.0000 H   0  0  0  0  0  0  0  0  0  0  0  0
    4.2452   -0.2201    0.0000 H   0  0  0  0  0  0  0  0  0  0  0  0
    4.9410   -0.6112    0.0000 H   0  0  0  0  0  0  0  0  0  0  0  0
    8.1608   -2.5230    0.0000 H   0  0  0  0  0  0  0  0  0  0  0  0
    8.3671   -1.4720    0.0000 H   0  0  0  0  0  0  0  0  0  0  0  0
    8.9871   -0.8521    0.0000 H   0  0  0  0  0  0  0  0  0  0  0  0
    8.3671   -0.2321    0.0000 H   0  0  0  0  0  0  0  0  0  0  0  0
    6.7228    2.1734    0.0000 H   0  0  0  0  0  0  0  0  0  0  0  0
    3.6778    0.8936    0.0000 H   0  0  0  0  0  0  0  0  0  0  0  0
    6.8554    1.1623    0.0000 H   0  0  0  0  0  0  0  0  0  0  0  0
    7.4802    1.7775    0.0000 H   0  0  0  0  0  0  0  0  0  0  0  0
    6.8650    2.4023    0.0000 H   0  0  0  0  0  0  0  0  0  0  0  0
    3.7929    3.1308    0.0000 H   0  0  0  0  0  0  0  0  0  0  0  0
    3.7960    2.3325    0.0000 H   0  0  0  0  0  0  0  0  0  0  0  0
    6.4816    3.8693    0.0000 H   0  0  0  0  0  0  0  0  0  0  0  0
    5.7950    4.2764    0.0000 H   0  0  0  0  0  0  0  0  0  0  0  0
    9.8281   -1.0270    0.0000 H   0  0  0  0  0  0  0  0  0  0  0  0
    4.1914    3.6743    0.0000 H   0  0  0  0  0  0  0  0  0  0  0  0
    8.2219   -3.2153    0.0000 H   0  0  0  0  0  0  0  0  0  0  0  0
    8.9564   -3.6941    0.0000 H   0  0  0  0  0  0  0  0  0  0  0  0
    9.4352   -2.9596    0.0000 H   0  0  0  0  0  0  0  0  0  0  0  0
    6.0010   -3.2619    0.0000 H   0  0  0  0  0  0  0  0  0  0  0  0
   10.0251   -2.2987    0.0000 H   0  0  0  0  0  0  0  0  0  0  0  0
   10.8050   -2.1343    0.0000 H   0  0  0  0  0  0  0  0  0  0  0  0
    7.3208    3.5657    0.0000 H   0  0  0  0  0  0  0  0  0  0  0  0
    9.6219   -0.0485    0.0000 H   0  0  0  0  0  0  0  0  0  0  0  0
    6.0010   -5.5019    0.0000 H   0  0  0  0  0  0  0  0  0  0  0  0
    3.6947    4.5434    0.0000 H   0  0  0  0  0  0  0  0  0  0  0  0
   11.3535   -0.5370    0.0000 H   0  0  0  0  0  0  0  0  0  0  0  0
   10.5735   -0.7014    0.0000 H   0  0  0  0  0  0  0  0  0  0  0  0
    4.5981   -5.6919    0.0000 H   0  0  0  0  0  0  0  0  0  0  0  0
    7.1579    4.9721    0.0000 H   0  0  0  0  0  0  0  0  0  0  0  0
    4.2690   -3.2619    0.0000 H   0  0  0  0  0  0  0  0  0  0  0  0
    3.7320   -4.5719    0.0000 H   0  0  0  0  0  0  0  0  0  0  0  0
   11.5505   -1.8086    0.0000 H   0  0  0  0  0  0  0  0  0  0  0  0
    8.2944    5.8164    0.0000 H   0  0  0  0  0  0  0  0  0  0  0  0
    9.7567    3.8479    0.0000 H   0  0  0  0  0  0  0  0  0  0  0  0
    6.8671   -6.0019    0.0000 H   0  0  0  0  0  0  0  0  0  0  0  0
    9.5938    5.2543    0.0000 H   0  0  0  0  0  0  0  0  0  0  0  0
    3.8015   -2.9069    0.0000 H   0  0  0  0  0  0  0  0  0  0  0  0
    3.0044   -2.9069    0.0000 H   0  0  0  0  0  0  0  0  0  0  0  0
   13.1703   -1.1882    0.0000 H   0  0  0  0  0  0  0  0  0  0  0  0
   13.2177   -0.3127    0.0000 H   0  0  0  0  0  0  0  0  0  0  0  0
   12.3422   -0.2653    0.0000 H   0  0  0  0  0  0  0  0  0  0  0  0
   11.6115   -2.5009    0.0000 H   0  0  0  0  0  0  0  0  0  0  0  0
   12.3460   -2.9798    0.0000 H   0  0  0  0  0  0  0  0  0  0  0  0
   12.8249   -2.2452    0.0000 H   0  0  0  0  0  0  0  0  0  0  0  0
    4.5981   -6.6919    0.0000 H   0  0  0  0  0  0  0  0  0  0  0  0
    6.1581    4.9914    0.0000 H   0  0  0  0  0  0  0  0  0  0  0  0
    3.4030   -6.0019    0.0000 H   0  0  0  0  0  0  0  0  0  0  0  0
   10.3375    3.7631    0.0000 H   0  0  0  0  0  0  0  0  0  0  0  0
   11.0353    4.1482    0.0000 H   0  0  0  0  0  0  0  0  0  0  0  0
    7.8112    6.6919    0.0000 H   0  0  0  0  0  0  0  0  0  0  0  0
    9.1909    6.6653    0.0000 H   0  0  0  0  0  0  0  0  0  0  0  0
    2.0000   -3.5719    0.0000 H   0  0  0  0  0  0  0  0  0  0  0  0
   11.5934    5.2158    0.0000 H   0  0  0  0  0  0  0  0  0  0  0  0
  1 23  1  0  0  0  0
  1 37  1  0  0  0  0
  2 29  1  0  0  0  0
  2 39  1  0  0  0  0
  3 34  1  0  0  0  0
  3 89  1  0  0  0  0
  4 35  1  0  0  0  0
  4 91  1  0  0  0  0
  5 37  1  0  0  0  0
  5 44  1  0  0  0  0
  6 39  1  0  0  0  0
  6 48  1  0  0  0  0
  7 40  1  0  0  0  0
  7101  1  0  0  0  0
  8 42  1  0  0  0  0
  8111  1  0  0  0  0
  9 43  1  0  0  0  0
  9112  1  0  0  0  0
 10 45  1  0  0  0  0
 10113  1  0  0  0  0
 11 47  1  0  0  0  0
 11116  1  0  0  0  0
 12 49  1  0  0  0  0
 12117  1  0  0  0  0
 13 50  1  0  0  0  0
 13118  1  0  0  0  0
 14 53  1  0  0  0  0
 14119  1  0  0  0  0
 15 16  1  0  0  0  0
 15 19  1  0  0  0  0
 15 20  1  0  0  0  0
 15 27  1  0  0  0  0
 16 17  1  0  0  0  0
 16 21  1  0  0  0  0
 16 54  1  0  0  0  0
 17 18  1  0  0  0  0
 17 25  1  0  0  0  0
 17 55  1  0  0  0  0
 18 22  1  0  0  0  0
 18 24  1  0  0  0  0
 18 56  1  0  0  0  0
 19 23  1  0  0  0  0
 19 26  1  0  0  0  0
 19 57  1  0  0  0  0
 20 24  1  0  0  0  0
 20 58  1  0  0  0  0
 20 59  1  0  0  0  0
 21 23  1  0  0  0  0
 21 60  1  0  0  0  0
 21 61  1  0  0  0  0
 22 28  1  0  0  0  0
 22 29  1  0  0  0  0
 22 31  1  0  0  0  0
 23 62  1  0  0  0  0
 24 63  1  0  0  0  0
 24 64  1  0  0  0  0
 25 30  1  0  0  0  0
 25 65  1  0  0  0  0
 25 66  1  0  0  0  0
 26 34  1  0  0  0  0
 26 36  1  0  0  0  0
 26 67  1  0  0  0  0
 27 68  1  0  0  0  0
 27 69  1  0  0  0  0
 27 70  1  0  0  0  0
 28 30  2  0  0  0  0
 28 32  1  0  0  0  0
 29 33  1  0  0  0  0
 29 71  1  0  0  0  0
 30 72  1  0  0  0  0
 31 73  1  0  0  0  0
 31 74  1  0  0  0  0
 31 75  1  0  0  0  0
 32 35  1  0  0  0  0
 32 76  1  0  0  0  0
 32 77  1  0  0  0  0
 33 35  1  0  0  0  0
 33 78  1  0  0  0  0
 33 79  1  0  0  0  0
 34 38  1  0  0  0  0
 34 80  1  0  0  0  0
 35 81  1  0  0  0  0
 36 82  1  0  0  0  0
 36 83  1  0  0  0  0
 36 84  1  0  0  0  0
 37 40  1  0  0  0  0
 37 85  1  0  0  0  0
 38 41  1  0  0  0  0
 38 86  1  0  0  0  0
 38 87  1  0  0  0  0
 39 43  1  0  0  0  0
 39 88  1  0  0  0  0
 40 42  1  0  0  0  0
 40 90  1  0  0  0  0
 41 46  1  0  0  0  0
 41 92  1  0  0  0  0
 41 93  1  0  0  0  0
 42 45  1  0  0  0  0
 42 94  1  0  0  0  0
 43 47  1  0  0  0  0
 43 95  1  0  0  0  0
 44 45  1  0  0  0  0
 44 50  1  0  0  0  0
 44 96  1  0  0  0  0
 45 97  1  0  0  0  0
 46 51  1  0  0  0  0
 46 52  1  0  0  0  0
 46 98  1  0  0  0  0
 47 49  1  0  0  0  0
 47 99  1  0  0  0  0
 48 49  1  0  0  0  0
 48 53  1  0  0  0  0
 48100  1  0  0  0  0
 49102  1  0  0  0  0
 50103  1  0  0  0  0
 50104  1  0  0  0  0
 51105  1  0  0  0  0
 51106  1  0  0  0  0
 51107  1  0  0  0  0
 52108  1  0  0  0  0
 52109  1  0  0  0  0
 52110  1  0  0  0  0
 53114  1  0  0  0  0
 53115  1  0  0  0  0
M  END
>  <PUBCHEM_COMPOUND_CID>
3330909

>  <PUBCHEM_COMPOUND_CANONICALIZED>
1

>  <PUBCHEM_CACTVS_COMPLEXITY>
1270

>  <PUBCHEM_CACTVS_HBOND_ACCEPTOR>
14

>  <PUBCHEM_CACTVS_HBOND_DONOR>
10

>  <PUBCHEM_CACTVS_ROTATABLE_BOND>
11

>  <PUBCHEM_CACTVS_SUBSKEYS>
AAADcfB8PAAAAAAAAAAAAAAAAAAAAYAAAAA0aIECAAAAAGCAAAAAGgAACAAADxSwgAMCCAAABgCAAiBCAAAAAAAgAAAACAAAAAgREAIAAQAiQAAFwAAPAAPA4PwPgAAAAAAAAADAAAQQADAAAYAADAAAAA==

>  <PUBCHEM_IUPAC_OPENEYE_NAME>
2-[[3-hydroxy-17-(2-hydroxy-1,5-dimethyl-hexyl)-10,13-dimethyl-1-[3,4,5-trihydroxy-6-(hydroxymethyl)tetrahydropyran-2-yl]oxy-2,3,4,7,8,9,11,12,14,15,16,17-dodecahydro-1H-cyclopenta[a]phenanthren-16-yl]oxy]-6-(hydroxymethyl)tetrahydropyran-3,4,5-triol

>  <PUBCHEM_IUPAC_CAS_NAME>
2-[[3-hydroxy-17-(3-hydroxy-6-methylheptan-2-yl)-10,13-dimethyl-1-[[3,4,5-trihydroxy-6-(hydroxymethyl)-2-oxanyl]oxy]-2,3,4,7,8,9,11,12,14,15,16,17-dodecahydro-1H-cyclopenta[a]phenanthren-16-yl]oxy]-6-(hydroxymethyl)oxane-3,4,5-triol

>  <PUBCHEM_IUPAC_NAME>
2-[[3-hydroxy-17-(3-hydroxy-6-methylheptan-2-yl)-10,13-dimethyl-1-[3,4,5-trihydroxy-6-(hydroxymethyl)oxan-2-yl]oxy-2,3,4,7,8,9,11,12,14,15,16,17-dodecahydro-1H-cyclopenta[a]phenanthren-16-yl]oxy]-6-(hydroxymethyl)oxane-3,4,5-triol

>  <PUBCHEM_IUPAC_SYSTEMATIC_NAME>
2-(hydroxymethyl)-6-[[1-[6-(hydroxymethyl)-3,4,5-tris(oxidanyl)oxan-2-yl]oxy-10,13-dimethyl-17-(6-methyl-3-oxidanyl-heptan-2-yl)-3-oxidanyl-2,3,4,7,8,9,11,12,14,15,16,17-dodecahydro-1H-cyclopenta[a]phenanthren-16-yl]oxy]oxane-3,4,5-triol

>  <PUBCHEM_IUPAC_TRADITIONAL_NAME>
2-[[3-hydroxy-17-(2-hydroxy-1,5-dimethyl-hexyl)-10,13-dimethyl-1-(3,4,5-trihydroxy-6-methylol-tetrahydropyran-2-yl)oxy-2,3,4,7,8,9,11,12,14,15,16,17-dodecahydro-1H-cyclopenta[a]phenanthren-16-yl]oxy]-6-methylol-tetrahydropyran-3,4,5-triol

>  <PUBCHEM_IUPAC_INCHI>
InChI=1S/C39H66O14/c1-17(2)6-9-24(43)18(3)29-25(50-36-34(48)32(46)30(44)26(15-40)51-36)14-23-21-8-7-19-12-20(42)13-28(39(19,5)22(21)10-11-38(23,29)4)53-37-35(49)33(47)31(45)27(16-41)52-37/h7,17-18,20-37,40-49H,6,8-16H2,1-5H3

>  <PUBCHEM_IUPAC_INCHIKEY>
JPJDIOVDAAVUNF-UHFFFAOYSA-N

>  <PUBCHEM_XLOGP3_AA>
1.5

>  <PUBCHEM_EXACT_MASS>
758.445

>  <PUBCHEM_MOLECULAR_FORMULA>
C39H66O14

>  <PUBCHEM_MOLECULAR_WEIGHT>
758.943

>  <PUBCHEM_OPENEYE_CAN_SMILES>
CC(C)CCC(C(C)C1C(CC2C1(CCC3C2CC=C4C3(C(CC(C4)O)OC5C(C(C(C(O5)CO)O)O)O)C)C)OC6C(C(C(C(O6)CO)O)O)O)O

>  <PUBCHEM_OPENEYE_ISO_SMILES>
CC(C)CCC(C(C)C1C(CC2C1(CCC3C2CC=C4C3(C(CC(C4)O)OC5C(C(C(C(O5)CO)O)O)O)C)C)OC6C(C(C(C(O6)CO)O)O)O)O

>  <PUBCHEM_CACTVS_TPSA>
239

>  <PUBCHEM_MONOISOTOPIC_WEIGHT>
758.445

>  <PUBCHEM_TOTAL_CHARGE>
0

>  <PUBCHEM_HEAVY_ATOM_COUNT>
53

>  <PUBCHEM_ATOM_DEF_STEREO_COUNT>
0

>  <PUBCHEM_ATOM_UDEF_STEREO_COUNT>
21

>  <PUBCHEM_BOND_DEF_STEREO_COUNT>
0

>  <PUBCHEM_BOND_UDEF_STEREO_COUNT>
0

>  <PUBCHEM_ISOTOPIC_ATOM_COUNT>
0

>  <PUBCHEM_COMPONENT_COUNT>
1

>  <PUBCHEM_CACTVS_TAUTO_COUNT>
1

>  <PUBCHEM_COORDINATE_TYPE>
1
5
255

>  <PUBCHEM_BONDANNOTATIONS>
23  1  3
37  1  3
45  10  3
47  11  3
49  12  3
15  27  3
16  21  3
17  25  3
18  24  3
19  26  3
29  2  3
39  2  3
22  31  3
26  36  3
34  3  3
35  4  3
44  50  3
48  53  3
40  7  3
42  8  3
43  9  3

$$$$
