33346
 OpenBabel06101807152D

 38 39  0  0  0  0  0  0  0  0999 V2000
    5.1350    0.4050    0.0000 O   0  0  0  0  0  0  0  0  0  0  0  0
    6.0010    4.9050    0.0000 O   0  0  0  0  0  0  0  0  0  0  0  0
    3.4030    0.4050    0.0000 O   0  0  0  0  0  0  0  0  0  0  0  0
    4.2690    4.9050    0.0000 O   0  0  0  0  0  0  0  0  0  0  0  0
    4.2690   -4.0950    0.0000 N   0  0  0  0  0  0  0  0  0  0  0  0
    3.4030   -5.5950    0.0000 N   0  0  0  0  0  0  0  0  0  0  0  0
    2.5369   -4.0950    0.0000 N   0  0  0  0  0  0  0  0  0  0  0  0
    4.2690   -1.0950    0.0000 C   0  0  0  0  0  0  0  0  0  0  0  0
    5.1350    1.4050    0.0000 C   0  0  0  0  0  0  0  0  0  0  0  0
    5.1350    3.4050    0.0000 C   0  0  0  0  0  0  0  0  0  0  0  0
    3.4030   -1.5950    0.0000 C   0  0  0  0  0  0  0  0  0  0  0  0
    5.1350   -1.5950    0.0000 C   0  0  0  0  0  0  0  0  0  0  0  0
    6.0010    1.9050    0.0000 C   0  0  0  0  0  0  0  0  0  0  0  0
    4.2690    1.9050    0.0000 C   0  0  0  0  0  0  0  0  0  0  0  0
    4.2690   -3.0950    0.0000 C   0  0  0  0  0  0  0  0  0  0  0  0
    6.0010    2.9050    0.0000 C   0  0  0  0  0  0  0  0  0  0  0  0
    4.2690    2.9050    0.0000 C   0  0  0  0  0  0  0  0  0  0  0  0
    4.2690   -0.0950    0.0000 C   0  0  0  0  0  0  0  0  0  0  0  0
    3.4030   -2.5950    0.0000 C   0  0  0  0  0  0  0  0  0  0  0  0
    5.1350   -2.5950    0.0000 C   0  0  0  0  0  0  0  0  0  0  0  0
    5.1350    4.4050    0.0000 C   0  0  0  0  0  0  0  0  0  0  0  0
    3.4030   -4.5950    0.0000 C   0  0  0  0  0  0  0  0  0  0  0  0
    6.0010    5.9050    0.0000 C   0  0  0  0  0  0  0  0  0  0  0  0
    2.8660   -1.2850    0.0000 H   0  0  0  0  0  0  0  0  0  0  0  0
    5.6720   -1.2850    0.0000 H   0  0  0  0  0  0  0  0  0  0  0  0
    6.5380    1.5950    0.0000 H   0  0  0  0  0  0  0  0  0  0  0  0
    3.7320    1.5950    0.0000 H   0  0  0  0  0  0  0  0  0  0  0  0
    6.5380    3.2150    0.0000 H   0  0  0  0  0  0  0  0  0  0  0  0
    3.7320    3.2150    0.0000 H   0  0  0  0  0  0  0  0  0  0  0  0
    2.8660   -2.9050    0.0000 H   0  0  0  0  0  0  0  0  0  0  0  0
    5.6720   -2.9050    0.0000 H   0  0  0  0  0  0  0  0  0  0  0  0
    6.6210    5.9050    0.0000 H   0  0  0  0  0  0  0  0  0  0  0  0
    6.0010    6.5250    0.0000 H   0  0  0  0  0  0  0  0  0  0  0  0
    5.3810    5.9050    0.0000 H   0  0  0  0  0  0  0  0  0  0  0  0
    2.8660   -5.9050    0.0000 H   0  0  0  0  0  0  0  0  0  0  0  0
    3.9399   -5.9050    0.0000 H   0  0  0  0  0  0  0  0  0  0  0  0
    2.0000   -4.4050    0.0000 H   0  0  0  0  0  0  0  0  0  0  0  0
    2.5369   -3.4750    0.0000 H   0  0  0  0  0  0  0  0  0  0  0  0
  1  9  1  0  0  0  0
  1 18  1  0  0  0  0
  2 21  1  0  0  0  0
  2 23  1  0  0  0  0
  3 18  2  0  0  0  0
  4 21  2  0  0  0  0
  5 15  1  0  0  0  0
  5 22  2  0  0  0  0
  6 22  1  0  0  0  0
  6 35  1  0  0  0  0
  6 36  1  0  0  0  0
  7 22  1  0  0  0  0
  7 37  1  0  0  0  0
  7 38  1  0  0  0  0
  8 11  2  0  0  0  0
  8 12  1  0  0  0  0
  8 18  1  0  0  0  0
  9 13  2  0  0  0  0
  9 14  1  0  0  0  0
 10 16  2  0  0  0  0
 10 17  1  0  0  0  0
 10 21  1  0  0  0  0
 11 19  1  0  0  0  0
 11 24  1  0  0  0  0
 12 20  2  0  0  0  0
 12 25  1  0  0  0  0
 13 16  1  0  0  0  0
 13 26  1  0  0  0  0
 14 17  2  0  0  0  0
 14 27  1  0  0  0  0
 15 19  2  0  0  0  0
 15 20  1  0  0  0  0
 16 28  1  0  0  0  0
 17 29  1  0  0  0  0
 19 30  1  0  0  0  0
 20 31  1  0  0  0  0
 23 32  1  0  0  0  0
 23 33  1  0  0  0  0
 23 34  1  0  0  0  0
M  END
>  <PUBCHEM_COMPOUND_CID>
33346

>  <PUBCHEM_COMPOUND_CANONICALIZED>
1

>  <PUBCHEM_CACTVS_COMPLEXITY>
446

>  <PUBCHEM_CACTVS_HBOND_ACCEPTOR>
5

>  <PUBCHEM_CACTVS_HBOND_DONOR>
2

>  <PUBCHEM_CACTVS_ROTATABLE_BOND>
6

>  <PUBCHEM_CACTVS_SUBSKEYS>
AAADccB7OAAAAAAAAAAAAAAAAAAAAAAAAAAwYAAAAAAAAAABQAAAHgAQAAAADAyBmAIzzoJABACoAiTSbACCCAEkIgAIiAEGbMgMJjKEtZuCOyDkwBEI6YeY/S3eKAAAAAAAAABQAAAAAAAAAAAAAAAAAA==

>  <PUBCHEM_IUPAC_OPENEYE_NAME>
(4-methoxycarbonylphenyl) 4-guanidinobenzoate

>  <PUBCHEM_IUPAC_CAS_NAME>
4-(diaminomethylideneamino)benzoic acid (4-methoxycarbonylphenyl) ester

>  <PUBCHEM_IUPAC_NAME>
(4-methoxycarbonylphenyl) 4-(diaminomethylideneamino)benzoate

>  <PUBCHEM_IUPAC_SYSTEMATIC_NAME>
(4-methoxycarbonylphenyl) 4-[bis(azanyl)methylideneamino]benzoate

>  <PUBCHEM_IUPAC_TRADITIONAL_NAME>
4-guanidinobenzoic acid (4-carbomethoxyphenyl) ester

>  <PUBCHEM_IUPAC_INCHI>
InChI=1S/C16H15N3O4/c1-22-14(20)10-4-8-13(9-5-10)23-15(21)11-2-6-12(7-3-11)19-16(17)18/h2-9H,1H3,(H4,17,18,19)

>  <PUBCHEM_IUPAC_INCHIKEY>
NIBWPUGZCXNNPC-UHFFFAOYSA-N

>  <PUBCHEM_XLOGP3_AA>
1.7

>  <PUBCHEM_EXACT_MASS>
313.106

>  <PUBCHEM_MOLECULAR_FORMULA>
C16H15N3O4

>  <PUBCHEM_MOLECULAR_WEIGHT>
313.313

>  <PUBCHEM_OPENEYE_CAN_SMILES>
COC(=O)C1=CC=C(C=C1)OC(=O)C2=CC=C(C=C2)N=C(N)N

>  <PUBCHEM_OPENEYE_ISO_SMILES>
COC(=O)C1=CC=C(C=C1)OC(=O)C2=CC=C(C=C2)N=C(N)N

>  <PUBCHEM_CACTVS_TPSA>
117

>  <PUBCHEM_MONOISOTOPIC_WEIGHT>
313.106

>  <PUBCHEM_TOTAL_CHARGE>
0

>  <PUBCHEM_HEAVY_ATOM_COUNT>
23

>  <PUBCHEM_ATOM_DEF_STEREO_COUNT>
0

>  <PUBCHEM_ATOM_UDEF_STEREO_COUNT>
0

>  <PUBCHEM_BOND_DEF_STEREO_COUNT>
0

>  <PUBCHEM_BOND_UDEF_STEREO_COUNT>
0

>  <PUBCHEM_ISOTOPIC_ATOM_COUNT>
0

>  <PUBCHEM_COMPONENT_COUNT>
1

>  <PUBCHEM_CACTVS_TAUTO_COUNT>
4

>  <PUBCHEM_COORDINATE_TYPE>
1
5
255

>  <PUBCHEM_BONDANNOTATIONS>
10  16  8
10  17  8
11  19  8
12  20  8
13  16  8
14  17  8
15  19  8
15  20  8
8  11  8
8  12  8
9  13  8
9  14  8

$$$$
