33503
 OpenBabel06101807152D

 41 40  0  0  0  0  0  0  0  0999 V2000
   11.5263   -0.3170    0.0000 O   0  0  0  0  0  0  0  0  0  0  0  0
   10.6603    1.1830    0.0000 O   0  0  0  0  0  0  0  0  0  0  0  0
    9.7942   -0.3170    0.0000 C   0  0  0  0  0  0  0  0  0  0  0  0
    8.9282   -0.8170    0.0000 C   0  0  0  0  0  0  0  0  0  0  0  0
    8.0622   -0.3170    0.0000 C   0  0  0  0  0  0  0  0  0  0  0  0
    7.1962   -0.8170    0.0000 C   0  0  0  0  0  0  0  0  0  0  0  0
    6.3301   -0.3170    0.0000 C   0  0  0  0  0  0  0  0  0  0  0  0
    5.4641   -0.8170    0.0000 C   0  0  0  0  0  0  0  0  0  0  0  0
    4.5981   -0.3170    0.0000 C   0  0  0  0  0  0  0  0  0  0  0  0
    9.2942    0.5490    0.0000 C   0  0  0  0  0  0  0  0  0  0  0  0
   10.2942   -1.1830    0.0000 C   0  0  0  0  0  0  0  0  0  0  0  0
    3.7320   -0.8170    0.0000 C   0  0  0  0  0  0  0  0  0  0  0  0
   10.6603    0.1830    0.0000 C   0  0  0  0  0  0  0  0  0  0  0  0
    2.8660   -0.3170    0.0000 C   0  0  0  0  0  0  0  0  0  0  0  0
    2.0000   -0.8170    0.0000 C   0  0  0  0  0  0  0  0  0  0  0  0
    8.5297   -1.2919    0.0000 H   0  0  0  0  0  0  0  0  0  0  0  0
    9.3267   -1.2919    0.0000 H   0  0  0  0  0  0  0  0  0  0  0  0
    8.4607    0.1580    0.0000 H   0  0  0  0  0  0  0  0  0  0  0  0
    7.6636    0.1580    0.0000 H   0  0  0  0  0  0  0  0  0  0  0  0
    6.7976   -1.2919    0.0000 H   0  0  0  0  0  0  0  0  0  0  0  0
    7.5947   -1.2919    0.0000 H   0  0  0  0  0  0  0  0  0  0  0  0
    6.7287    0.1580    0.0000 H   0  0  0  0  0  0  0  0  0  0  0  0
    5.9316    0.1580    0.0000 H   0  0  0  0  0  0  0  0  0  0  0  0
    5.0656   -1.2919    0.0000 H   0  0  0  0  0  0  0  0  0  0  0  0
    5.8626   -1.2919    0.0000 H   0  0  0  0  0  0  0  0  0  0  0  0
    4.9966    0.1580    0.0000 H   0  0  0  0  0  0  0  0  0  0  0  0
    4.1996    0.1580    0.0000 H   0  0  0  0  0  0  0  0  0  0  0  0
    9.8312    0.8590    0.0000 H   0  0  0  0  0  0  0  0  0  0  0  0
    8.9842    1.0860    0.0000 H   0  0  0  0  0  0  0  0  0  0  0  0
    8.7573    0.2390    0.0000 H   0  0  0  0  0  0  0  0  0  0  0  0
    9.7573   -1.4930    0.0000 H   0  0  0  0  0  0  0  0  0  0  0  0
   10.6042   -1.7200    0.0000 H   0  0  0  0  0  0  0  0  0  0  0  0
   10.8312   -0.8730    0.0000 H   0  0  0  0  0  0  0  0  0  0  0  0
    3.3335   -1.2919    0.0000 H   0  0  0  0  0  0  0  0  0  0  0  0
    4.1306   -1.2919    0.0000 H   0  0  0  0  0  0  0  0  0  0  0  0
    3.2646    0.1580    0.0000 H   0  0  0  0  0  0  0  0  0  0  0  0
    2.4675    0.1580    0.0000 H   0  0  0  0  0  0  0  0  0  0  0  0
    1.6900   -0.2801    0.0000 H   0  0  0  0  0  0  0  0  0  0  0  0
    1.4631   -1.1270    0.0000 H   0  0  0  0  0  0  0  0  0  0  0  0
    2.3100   -1.3539    0.0000 H   0  0  0  0  0  0  0  0  0  0  0  0
   12.0632   -0.0070    0.0000 H   0  0  0  0  0  0  0  0  0  0  0  0
  1 13  1  0  0  0  0
  1 41  1  0  0  0  0
  2 13  2  0  0  0  0
  3  4  1  0  0  0  0
  3 10  1  0  0  0  0
  3 11  1  0  0  0  0
  3 13  1  0  0  0  0
  4  5  1  0  0  0  0
  4 16  1  0  0  0  0
  4 17  1  0  0  0  0
  5  6  1  0  0  0  0
  5 18  1  0  0  0  0
  5 19  1  0  0  0  0
  6  7  1  0  0  0  0
  6 20  1  0  0  0  0
  6 21  1  0  0  0  0
  7  8  1  0  0  0  0
  7 22  1  0  0  0  0
  7 23  1  0  0  0  0
  8  9  1  0  0  0  0
  8 24  1  0  0  0  0
  8 25  1  0  0  0  0
  9 12  1  0  0  0  0
  9 26  1  0  0  0  0
  9 27  1  0  0  0  0
 10 28  1  0  0  0  0
 10 29  1  0  0  0  0
 10 30  1  0  0  0  0
 11 31  1  0  0  0  0
 11 32  1  0  0  0  0
 11 33  1  0  0  0  0
 12 14  1  0  0  0  0
 12 34  1  0  0  0  0
 12 35  1  0  0  0  0
 14 15  1  0  0  0  0
 14 36  1  0  0  0  0
 14 37  1  0  0  0  0
 15 38  1  0  0  0  0
 15 39  1  0  0  0  0
 15 40  1  0  0  0  0
M  END
>  <PUBCHEM_COMPOUND_CID>
33503

>  <PUBCHEM_COMPOUND_CANONICALIZED>
1

>  <PUBCHEM_CACTVS_COMPLEXITY>
173

>  <PUBCHEM_CACTVS_HBOND_ACCEPTOR>
2

>  <PUBCHEM_CACTVS_HBOND_DONOR>
1

>  <PUBCHEM_CACTVS_ROTATABLE_BOND>
9

>  <PUBCHEM_CACTVS_SUBSKEYS>
AAADceBwMAAAAAAAAAAAAAAAAAAAAAAAAAAAAAAAAAAAAAAAAAAAGgAACAAADgCAgAACCAAAAgAIAACQCAAAAAAAAAAAAAEAAAAAABIAAAAAQAAEAAAAAAGIyOCNAAAAAAAAAAAAAAAAAAAAAAAAAAAAAA==

>  <PUBCHEM_IUPAC_OPENEYE_NAME>
2,2-dimethylundecanoic acid

>  <PUBCHEM_IUPAC_CAS_NAME>
2,2-dimethylundecanoic acid

>  <PUBCHEM_IUPAC_NAME>
2,2-dimethylundecanoic acid

>  <PUBCHEM_IUPAC_SYSTEMATIC_NAME>
2,2-dimethylundecanoic acid

>  <PUBCHEM_IUPAC_TRADITIONAL_NAME>
2,2-dimethylundecanoic acid

>  <PUBCHEM_IUPAC_INCHI>
InChI=1S/C13H26O2/c1-4-5-6-7-8-9-10-11-13(2,3)12(14)15/h4-11H2,1-3H3,(H,14,15)

>  <PUBCHEM_IUPAC_INCHIKEY>
OTOBIMFBDYITLZ-UHFFFAOYSA-N

>  <PUBCHEM_XLOGP3_AA>
5.3

>  <PUBCHEM_EXACT_MASS>
214.193

>  <PUBCHEM_MOLECULAR_FORMULA>
C13H26O2

>  <PUBCHEM_MOLECULAR_WEIGHT>
214.349

>  <PUBCHEM_OPENEYE_CAN_SMILES>
CCCCCCCCCC(C)(C)C(=O)O

>  <PUBCHEM_OPENEYE_ISO_SMILES>
CCCCCCCCCC(C)(C)C(=O)O

>  <PUBCHEM_CACTVS_TPSA>
37.3

>  <PUBCHEM_MONOISOTOPIC_WEIGHT>
214.193

>  <PUBCHEM_TOTAL_CHARGE>
0

>  <PUBCHEM_HEAVY_ATOM_COUNT>
15

>  <PUBCHEM_ATOM_DEF_STEREO_COUNT>
0

>  <PUBCHEM_ATOM_UDEF_STEREO_COUNT>
0

>  <PUBCHEM_BOND_DEF_STEREO_COUNT>
0

>  <PUBCHEM_BOND_UDEF_STEREO_COUNT>
0

>  <PUBCHEM_ISOTOPIC_ATOM_COUNT>
0

>  <PUBCHEM_COMPONENT_COUNT>
1

>  <PUBCHEM_CACTVS_TAUTO_COUNT>
1

>  <PUBCHEM_COORDINATE_TYPE>
1
5
255

$$$$
