3364183
 OpenBabel06101807152D

 28 29  0  0  0  0  0  0  0  0999 V2000
    4.5981    0.0000    0.0000 N   0  0  0  0  0  0  0  0  0  0  0  0
    6.4103   -1.1953    0.0000 N   0  0  0  0  0  0  0  0  0  0  0  0
    3.7320   -1.5000    0.0000 N   0  0  0  0  0  0  0  0  0  0  0  0
    6.4103   -2.8047    0.0000 N   0  0  0  0  0  0  0  0  0  0  0  0
    4.5981   -3.0000    0.0000 N   0  0  0  0  0  0  0  0  0  0  0  0
    3.7320    0.5000    0.0000 C   0  0  0  0  0  0  0  0  0  0  0  0
    3.7320    1.5000    0.0000 C   0  0  0  0  0  0  0  0  0  0  0  0
    4.5981   -1.0000    0.0000 C   0  0  0  0  0  0  0  0  0  0  0  0
    5.4641   -1.5000    0.0000 C   0  0  0  0  0  0  0  0  0  0  0  0
    2.8660    2.0000    0.0000 C   0  0  0  0  0  0  0  0  0  0  0  0
    5.4641   -2.5000    0.0000 C   0  0  0  0  0  0  0  0  0  0  0  0
    2.8660    3.0000    0.0000 C   0  0  0  0  0  0  0  0  0  0  0  0
    6.9939   -2.0000    0.0000 C   0  0  0  0  0  0  0  0  0  0  0  0
    3.7320   -2.5000    0.0000 C   0  0  0  0  0  0  0  0  0  0  0  0
    2.0000    1.5000    0.0000 C   0  0  0  0  0  0  0  0  0  0  0  0
    3.1215    0.6077    0.0000 H   0  0  0  0  0  0  0  0  0  0  0  0
    3.5200   -0.0826    0.0000 H   0  0  0  0  0  0  0  0  0  0  0  0
    4.3426    1.3923    0.0000 H   0  0  0  0  0  0  0  0  0  0  0  0
    3.9441    2.0826    0.0000 H   0  0  0  0  0  0  0  0  0  0  0  0
    5.1350    0.3100    0.0000 H   0  0  0  0  0  0  0  0  0  0  0  0
    6.6029   -0.6059    0.0000 H   0  0  0  0  0  0  0  0  0  0  0  0
    3.4860    3.0000    0.0000 H   0  0  0  0  0  0  0  0  0  0  0  0
    2.8660    3.6200    0.0000 H   0  0  0  0  0  0  0  0  0  0  0  0
    2.2460    3.0000    0.0000 H   0  0  0  0  0  0  0  0  0  0  0  0
    7.6139   -2.0000    0.0000 H   0  0  0  0  0  0  0  0  0  0  0  0
    3.1951   -2.8100    0.0000 H   0  0  0  0  0  0  0  0  0  0  0  0
    1.4631    1.8100    0.0000 H   0  0  0  0  0  0  0  0  0  0  0  0
    2.0000    0.8800    0.0000 H   0  0  0  0  0  0  0  0  0  0  0  0
  1  6  1  0  0  0  0
  1  8  1  0  0  0  0
  1 20  1  0  0  0  0
  2  9  1  0  0  0  0
  2 13  1  0  0  0  0
  2 21  1  0  0  0  0
  3  8  2  0  0  0  0
  3 14  1  0  0  0  0
  4 11  1  0  0  0  0
  4 13  2  0  0  0  0
  5 11  1  0  0  0  0
  5 14  2  0  0  0  0
  6  7  1  0  0  0  0
  6 16  1  0  0  0  0
  6 17  1  0  0  0  0
  7 10  1  0  0  0  0
  7 18  1  0  0  0  0
  7 19  1  0  0  0  0
  8  9  1  0  0  0  0
  9 11  2  0  0  0  0
 10 12  1  0  0  0  0
 10 15  2  0  0  0  0
 12 22  1  0  0  0  0
 12 23  1  0  0  0  0
 12 24  1  0  0  0  0
 13 25  1  0  0  0  0
 14 26  1  0  0  0  0
 15 27  1  0  0  0  0
 15 28  1  0  0  0  0
M  END
>  <PUBCHEM_COMPOUND_CID>
3364183

>  <PUBCHEM_COMPOUND_CANONICALIZED>
1

>  <PUBCHEM_CACTVS_COMPLEXITY>
230

>  <PUBCHEM_CACTVS_HBOND_ACCEPTOR>
4

>  <PUBCHEM_CACTVS_HBOND_DONOR>
2

>  <PUBCHEM_CACTVS_ROTATABLE_BOND>
4

>  <PUBCHEM_CACTVS_SUBSKEYS>
AAADccBzgAAAAAAAAAAAAAAAAAAAAWAAAAAsAAAAAAAAAFgB+AAAHAAQAAAADAjBFwQH8L7JkACgAwZjZACAgC2xEKABUaAoVBiASABAyUAUBAgIEALAACAAAAAAAAAAAAAAAAAAAAAAAAAAAAAAAAAAAA==

>  <PUBCHEM_IUPAC_OPENEYE_NAME>
N-(3-methylbut-3-enyl)-7H-purin-6-amine

>  <PUBCHEM_IUPAC_CAS_NAME>
N-(3-methylbut-3-enyl)-7H-purin-6-amine

>  <PUBCHEM_IUPAC_NAME>
N-(3-methylbut-3-enyl)-7H-purin-6-amine

>  <PUBCHEM_IUPAC_SYSTEMATIC_NAME>
N-(3-methylbut-3-enyl)-7H-purin-6-amine

>  <PUBCHEM_IUPAC_TRADITIONAL_NAME>
3-methylbut-3-enyl(7H-purin-6-yl)amine

>  <PUBCHEM_IUPAC_INCHI>
InChI=1S/C10H13N5/c1-7(2)3-4-11-9-8-10(13-5-12-8)15-6-14-9/h5-6H,1,3-4H2,2H3,(H2,11,12,13,14,15)

>  <PUBCHEM_IUPAC_INCHIKEY>
BPRQFDNBWVMLPS-UHFFFAOYSA-N

>  <PUBCHEM_XLOGP3>
2.3

>  <PUBCHEM_EXACT_MASS>
203.117

>  <PUBCHEM_MOLECULAR_FORMULA>
C10H13N5

>  <PUBCHEM_MOLECULAR_WEIGHT>
203.249

>  <PUBCHEM_OPENEYE_CAN_SMILES>
CC(=C)CCNC1=NC=NC2=C1NC=N2

>  <PUBCHEM_OPENEYE_ISO_SMILES>
CC(=C)CCNC1=NC=NC2=C1NC=N2

>  <PUBCHEM_CACTVS_TPSA>
66.5

>  <PUBCHEM_MONOISOTOPIC_WEIGHT>
203.117

>  <PUBCHEM_TOTAL_CHARGE>
0

>  <PUBCHEM_HEAVY_ATOM_COUNT>
15

>  <PUBCHEM_ATOM_DEF_STEREO_COUNT>
0

>  <PUBCHEM_ATOM_UDEF_STEREO_COUNT>
0

>  <PUBCHEM_BOND_DEF_STEREO_COUNT>
0

>  <PUBCHEM_BOND_UDEF_STEREO_COUNT>
0

>  <PUBCHEM_ISOTOPIC_ATOM_COUNT>
0

>  <PUBCHEM_COMPONENT_COUNT>
1

>  <PUBCHEM_CACTVS_TAUTO_COUNT>
8

>  <PUBCHEM_COORDINATE_TYPE>
1
5
255

>  <PUBCHEM_BONDANNOTATIONS>
2  13  8
2  9  8
3  14  8
3  8  8
4  11  8
4  13  8
5  11  8
5  14  8
8  9  8
9  11  8

$$$$
