337175
 OpenBabel06101807152D

 32 34  0  0  1  0  0  0  0  0999 V2000
    6.2619   -1.4072    0.0000 Cl  0  0  0  0  0  0  0  0  0  0  0  0
    4.4026    1.1580    0.0000 O   0  0  0  0  0  0  0  0  0  0  0  0
    6.7485    0.0662    0.0000 O   0  0  0  0  0  0  0  0  0  0  0  0
    6.7523    2.2418    0.0000 O   0  0  0  0  0  0  0  0  0  0  0  0
    3.7066    3.1272    0.0000 O   0  0  0  0  0  0  0  0  0  0  0  0
    4.6783   -0.6025    0.0000 N   0  0  0  0  0  0  0  0  0  0  0  0
    4.6783   -2.2120    0.0000 N   0  0  0  0  0  0  0  0  0  0  0  0
    2.8660   -0.4072    0.0000 N   0  0  0  0  0  0  0  0  0  0  0  0
    2.0000   -1.9072    0.0000 N   0  0  0  0  0  0  0  0  0  0  0  0
    2.8660   -3.4072    0.0000 N   0  0  0  0  0  0  0  0  0  0  0  0
    5.9405    0.6554    0.0000 C   0  0  3  0  0  0  0  0  0  0  0  0
    4.9889    0.3480    0.0000 C   0  0  3  0  0  0  0  0  0  0  0  0
    5.9422    1.6554    0.0000 C   0  0  3  0  0  0  0  0  0  0  0  0
    4.9917    1.9660    0.0000 C   0  0  3  0  0  0  0  0  0  0  0  0
    4.6844    2.9176    0.0000 C   0  0  0  0  0  0  0  0  0  0  0  0
    3.7320   -0.9072    0.0000 C   0  0  0  0  0  0  0  0  0  0  0  0
    5.2619   -1.4072    0.0000 C   0  0  0  0  0  0  0  0  0  0  0  0
    3.7320   -1.9072    0.0000 C   0  0  0  0  0  0  0  0  0  0  0  0
    2.8660   -2.4072    0.0000 C   0  0  0  0  0  0  0  0  0  0  0  0
    2.0000   -0.9072    0.0000 C   0  0  0  0  0  0  0  0  0  0  0  0
    6.6985    1.0400    0.0000 H   0  0  0  0  0  0  0  0  0  0  0  0
    5.5889   -0.2541    0.0000 H   0  0  0  0  0  0  0  0  0  0  0  0
    5.8107    2.4952    0.0000 H   0  0  0  0  0  0  0  0  0  0  0  0
    4.1524    2.1005    0.0000 H   0  0  0  0  0  0  0  0  0  0  0  0
    5.2985    3.0029    0.0000 H   0  0  0  0  0  0  0  0  0  0  0  0
    4.7071    3.5372    0.0000 H   0  0  0  0  0  0  0  0  0  0  0  0
    7.3154    0.3174    0.0000 H   0  0  0  0  0  0  0  0  0  0  0  0
    6.6886    2.8585    0.0000 H   0  0  0  0  0  0  0  0  0  0  0  0
    3.5160    3.7172    0.0000 H   0  0  0  0  0  0  0  0  0  0  0  0
    1.4631   -0.5972    0.0000 H   0  0  0  0  0  0  0  0  0  0  0  0
    2.3291   -3.7172    0.0000 H   0  0  0  0  0  0  0  0  0  0  0  0
    3.4030   -3.7172    0.0000 H   0  0  0  0  0  0  0  0  0  0  0  0
  1 17  1  0  0  0  0
  2 12  1  0  0  0  0
  2 14  1  0  0  0  0
  3 11  1  0  0  0  0
  3 27  1  0  0  0  0
  4 13  1  0  0  0  0
  4 28  1  0  0  0  0
  5 15  1  0  0  0  0
  5 29  1  0  0  0  0
  6 12  1  0  0  0  0
  6 16  1  0  0  0  0
  6 17  1  0  0  0  0
  7 17  2  0  0  0  0
  7 18  1  0  0  0  0
  8 16  1  0  0  0  0
  8 20  2  0  0  0  0
  9 19  2  0  0  0  0
  9 20  1  0  0  0  0
 10 19  1  0  0  0  0
 10 31  1  0  0  0  0
 10 32  1  0  0  0  0
 11 12  1  0  0  0  0
 11 13  1  0  0  0  0
 11 21  1  0  0  0  0
 12 22  1  0  0  0  0
 13 14  1  0  0  0  0
 13 23  1  0  0  0  0
 14 15  1  0  0  0  0
 14 24  1  0  0  0  0
 15 25  1  0  0  0  0
 15 26  1  0  0  0  0
 16 18  2  0  0  0  0
 18 19  1  0  0  0  0
 20 30  1  0  0  0  0
M  END
>  <PUBCHEM_COMPOUND_CID>
337175

>  <PUBCHEM_COMPOUND_CANONICALIZED>
1

>  <PUBCHEM_CACTVS_COMPLEXITY>
367

>  <PUBCHEM_CACTVS_HBOND_ACCEPTOR>
8

>  <PUBCHEM_CACTVS_HBOND_DONOR>
4

>  <PUBCHEM_CACTVS_ROTATABLE_BOND>
2

>  <PUBCHEM_CACTVS_SUBSKEYS>
AAADccBzuAAEAAAAAAAAAAAAAAAAAWJAAAAsAAAAAAAAAFgB+AAAHgIQCAAACBzhlwYF8L9MFgCgAQZhZACAgC0REKABUCAoVBCDWAJAyEAeRAgPAALTACDwMAIAAAAAAAAAAAAAAAAAAAAAAAAAAAAAAA==

>  <PUBCHEM_IUPAC_OPENEYE_NAME>
2-(6-amino-8-chloro-purin-9-yl)-5-(hydroxymethyl)tetrahydrofuran-3,4-diol

>  <PUBCHEM_IUPAC_CAS_NAME>
2-(6-amino-8-chloro-9-purinyl)-5-(hydroxymethyl)oxolane-3,4-diol

>  <PUBCHEM_IUPAC_NAME>
2-(6-amino-8-chloropurin-9-yl)-5-(hydroxymethyl)oxolane-3,4-diol

>  <PUBCHEM_IUPAC_SYSTEMATIC_NAME>
2-(6-azanyl-8-chloranyl-purin-9-yl)-5-(hydroxymethyl)oxolane-3,4-diol

>  <PUBCHEM_IUPAC_TRADITIONAL_NAME>
2-(6-amino-8-chloro-purin-9-yl)-5-methylol-tetrahydrofuran-3,4-diol

>  <PUBCHEM_IUPAC_INCHI>
InChI=1S/C10H12ClN5O4/c11-10-15-4-7(12)13-2-14-8(4)16(10)9-6(19)5(18)3(1-17)20-9/h2-3,5-6,9,17-19H,1H2,(H2,12,13,14)

>  <PUBCHEM_IUPAC_INCHIKEY>
MHDPPLULTMGBSI-UHFFFAOYSA-N

>  <PUBCHEM_XLOGP3>
-0.1

>  <PUBCHEM_EXACT_MASS>
301.058

>  <PUBCHEM_MOLECULAR_FORMULA>
C10H12ClN5O4

>  <PUBCHEM_MOLECULAR_WEIGHT>
301.687

>  <PUBCHEM_OPENEYE_CAN_SMILES>
C1=NC2=C(C(=N1)N)N=C(N2C3C(C(C(O3)CO)O)O)Cl

>  <PUBCHEM_OPENEYE_ISO_SMILES>
C1=NC2=C(C(=N1)N)N=C(N2C3C(C(C(O3)CO)O)O)Cl

>  <PUBCHEM_CACTVS_TPSA>
140

>  <PUBCHEM_MONOISOTOPIC_WEIGHT>
301.058

>  <PUBCHEM_TOTAL_CHARGE>
0

>  <PUBCHEM_HEAVY_ATOM_COUNT>
20

>  <PUBCHEM_ATOM_DEF_STEREO_COUNT>
0

>  <PUBCHEM_ATOM_UDEF_STEREO_COUNT>
4

>  <PUBCHEM_BOND_DEF_STEREO_COUNT>
0

>  <PUBCHEM_BOND_UDEF_STEREO_COUNT>
0

>  <PUBCHEM_ISOTOPIC_ATOM_COUNT>
0

>  <PUBCHEM_COMPONENT_COUNT>
1

>  <PUBCHEM_CACTVS_TAUTO_COUNT>
3

>  <PUBCHEM_COORDINATE_TYPE>
1
5
255

>  <PUBCHEM_BONDANNOTATIONS>
11  21  3
12  22  3
13  23  3
14  24  3
16  18  8
18  19  8
6  16  8
6  17  8
7  17  8
7  18  8
8  16  8
8  20  8
9  19  8
9  20  8

$$$$
