338286
 OpenBabel06101807152D

 38 40  0  0  0  0  0  0  0  0999 V2000
    6.0682   -2.0427    0.0000 O   0  0  0  0  0  0  0  0  0  0  0  0
    8.6663   -1.5427    0.0000 O   0  0  0  0  0  0  0  0  0  0  0  0
   10.3984   -0.5427    0.0000 O   0  0  0  0  0  0  0  0  0  0  0  0
   10.3984    1.4573    0.0000 O   0  0  0  0  0  0  0  0  0  0  0  0
    2.5381   -2.0668    0.0000 O   0  0  0  0  0  0  0  0  0  0  0  0
    6.9343   -0.5427    0.0000 C   0  0  0  0  0  0  0  0  0  0  0  0
    7.8003   -0.0427    0.0000 C   0  0  0  0  0  0  0  0  0  0  0  0
    6.9343   -1.5427    0.0000 C   0  0  0  0  0  0  0  0  0  0  0  0
    5.2022   -0.5427    0.0000 C   0  0  0  0  0  0  0  0  0  0  0  0
    6.0682   -0.0427    0.0000 C   0  0  0  0  0  0  0  0  0  0  0  0
    5.2022   -1.5427    0.0000 C   0  0  0  0  0  0  0  0  0  0  0  0
    8.6663   -0.5427    0.0000 C   0  0  0  0  0  0  0  0  0  0  0  0
    7.8003    0.9573    0.0000 C   0  0  0  0  0  0  0  0  0  0  0  0
    9.5323   -0.0427    0.0000 C   0  0  0  0  0  0  0  0  0  0  0  0
    4.3083   -0.0080    0.0000 C   0  0  0  0  0  0  0  0  0  0  0  0
    4.3083   -2.0773    0.0000 C   0  0  0  0  0  0  0  0  0  0  0  0
    8.6663    1.4573    0.0000 C   0  0  0  0  0  0  0  0  0  0  0  0
    9.5323    0.9573    0.0000 C   0  0  0  0  0  0  0  0  0  0  0  0
    3.4022   -1.5635    0.0000 C   0  0  0  0  0  0  0  0  0  0  0  0
    3.4022   -0.5219    0.0000 C   0  0  0  0  0  0  0  0  0  0  0  0
    9.5323   -2.0427    0.0000 C   0  0  0  0  0  0  0  0  0  0  0  0
   11.2644   -0.0427    0.0000 C   0  0  0  0  0  0  0  0  0  0  0  0
    7.1463   -2.1253    0.0000 H   0  0  0  0  0  0  0  0  0  0  0  0
    7.5449   -1.4350    0.0000 H   0  0  0  0  0  0  0  0  0  0  0  0
    6.0682    0.5773    0.0000 H   0  0  0  0  0  0  0  0  0  0  0  0
    7.2634    1.2673    0.0000 H   0  0  0  0  0  0  0  0  0  0  0  0
    4.3154    0.6120    0.0000 H   0  0  0  0  0  0  0  0  0  0  0  0
    4.3154   -2.6973    0.0000 H   0  0  0  0  0  0  0  0  0  0  0  0
    8.6663    2.0773    0.0000 H   0  0  0  0  0  0  0  0  0  0  0  0
    2.8665   -0.2098    0.0000 H   0  0  0  0  0  0  0  0  0  0  0  0
    9.2224   -2.5796    0.0000 H   0  0  0  0  0  0  0  0  0  0  0  0
   10.0693   -2.3527    0.0000 H   0  0  0  0  0  0  0  0  0  0  0  0
    9.8424   -1.5057    0.0000 H   0  0  0  0  0  0  0  0  0  0  0  0
   10.3984    2.0773    0.0000 H   0  0  0  0  0  0  0  0  0  0  0  0
   11.5744   -0.5796    0.0000 H   0  0  0  0  0  0  0  0  0  0  0  0
   11.8013    0.2673    0.0000 H   0  0  0  0  0  0  0  0  0  0  0  0
   10.9544    0.4943    0.0000 H   0  0  0  0  0  0  0  0  0  0  0  0
    2.0000   -1.7589    0.0000 H   0  0  0  0  0  0  0  0  0  0  0  0
  1  8  1  0  0  0  0
  1 11  1  0  0  0  0
  2 12  1  0  0  0  0
  2 21  1  0  0  0  0
  3 14  1  0  0  0  0
  3 22  1  0  0  0  0
  4 18  1  0  0  0  0
  4 34  1  0  0  0  0
  5 19  1  0  0  0  0
  5 38  1  0  0  0  0
  6  7  1  0  0  0  0
  6  8  1  0  0  0  0
  6 10  2  0  0  0  0
  7 12  2  0  0  0  0
  7 13  1  0  0  0  0
  8 23  1  0  0  0  0
  8 24  1  0  0  0  0
  9 10  1  0  0  0  0
  9 11  2  0  0  0  0
  9 15  1  0  0  0  0
 10 25  1  0  0  0  0
 11 16  1  0  0  0  0
 12 14  1  0  0  0  0
 13 17  2  0  0  0  0
 13 26  1  0  0  0  0
 14 18  2  0  0  0  0
 15 20  2  0  0  0  0
 15 27  1  0  0  0  0
 16 19  2  0  0  0  0
 16 28  1  0  0  0  0
 17 18  1  0  0  0  0
 17 29  1  0  0  0  0
 19 20  1  0  0  0  0
 20 30  1  0  0  0  0
 21 31  1  0  0  0  0
 21 32  1  0  0  0  0
 21 33  1  0  0  0  0
 22 35  1  0  0  0  0
 22 36  1  0  0  0  0
 22 37  1  0  0  0  0
M  END
>  <PUBCHEM_COMPOUND_CID>
338286

>  <PUBCHEM_COMPOUND_CANONICALIZED>
1

>  <PUBCHEM_CACTVS_COMPLEXITY>
410

>  <PUBCHEM_CACTVS_HBOND_ACCEPTOR>
5

>  <PUBCHEM_CACTVS_HBOND_DONOR>
2

>  <PUBCHEM_CACTVS_ROTATABLE_BOND>
3

>  <PUBCHEM_CACTVS_SUBSKEYS>
AAADceB4OAAAAAAAAAAAAAAAAAAAAAAAAAAwYIAAAAAAAACBQAAAGgAACAAADASgmAIyBoAABgCAAiBCAAACCAAgIAAIiAAGiIgNJyKGMRqCeCOlwBULuAfA4LwOIAABCAAIQABAAAIQABCAAAAAAAAAAA==

>  <PUBCHEM_IUPAC_OPENEYE_NAME>
3-(4-hydroxy-2,3-dimethoxy-phenyl)-2H-chromen-7-ol

>  <PUBCHEM_IUPAC_CAS_NAME>
3-(4-hydroxy-2,3-dimethoxyphenyl)-2H-1-benzopyran-7-ol

>  <PUBCHEM_IUPAC_NAME>
3-(4-hydroxy-2,3-dimethoxyphenyl)-2H-chromen-7-ol

>  <PUBCHEM_IUPAC_SYSTEMATIC_NAME>
3-(2,3-dimethoxy-4-oxidanyl-phenyl)-2H-chromen-7-ol

>  <PUBCHEM_IUPAC_TRADITIONAL_NAME>
3-(4-hydroxy-2,3-dimethoxy-phenyl)-2H-chromen-7-ol

>  <PUBCHEM_IUPAC_INCHI>
InChI=1S/C17H16O5/c1-20-16-13(5-6-14(19)17(16)21-2)11-7-10-3-4-12(18)8-15(10)22-9-11/h3-8,18-19H,9H2,1-2H3

>  <PUBCHEM_IUPAC_INCHIKEY>
JGINXZCTOGQYKS-UHFFFAOYSA-N

>  <PUBCHEM_XLOGP3_AA>
2.7

>  <PUBCHEM_EXACT_MASS>
300.1

>  <PUBCHEM_MOLECULAR_FORMULA>
C17H16O5

>  <PUBCHEM_MOLECULAR_WEIGHT>
300.31

>  <PUBCHEM_OPENEYE_CAN_SMILES>
COC1=C(C=CC(=C1OC)O)C2=CC3=C(C=C(C=C3)O)OC2

>  <PUBCHEM_OPENEYE_ISO_SMILES>
COC1=C(C=CC(=C1OC)O)C2=CC3=C(C=C(C=C3)O)OC2

>  <PUBCHEM_CACTVS_TPSA>
68.2

>  <PUBCHEM_MONOISOTOPIC_WEIGHT>
300.1

>  <PUBCHEM_TOTAL_CHARGE>
0

>  <PUBCHEM_HEAVY_ATOM_COUNT>
22

>  <PUBCHEM_ATOM_DEF_STEREO_COUNT>
0

>  <PUBCHEM_ATOM_UDEF_STEREO_COUNT>
0

>  <PUBCHEM_BOND_DEF_STEREO_COUNT>
0

>  <PUBCHEM_BOND_UDEF_STEREO_COUNT>
0

>  <PUBCHEM_ISOTOPIC_ATOM_COUNT>
0

>  <PUBCHEM_COMPONENT_COUNT>
1

>  <PUBCHEM_CACTVS_TAUTO_COUNT>
14

>  <PUBCHEM_COORDINATE_TYPE>
1
5
255

>  <PUBCHEM_BONDANNOTATIONS>
11  16  8
12  14  8
13  17  8
14  18  8
15  20  8
16  19  8
17  18  8
19  20  8
7  12  8
7  13  8
9  11  8
9  15  8

$$$$
