340816
 OpenBabel06101807152D

 55 59  0  0  1  0  0  0  0  0999 V2000
    5.1092   -0.6430    0.0000 O   0  0  0  0  0  0  0  0  0  0  0  0
    3.1259   -0.8506    0.0000 N   0  0  0  0  0  0  0  0  0  0  0  0
    4.4524    1.8288    0.0000 N   0  0  0  0  0  0  0  0  0  0  0  0
    4.1205   -0.7461    0.0000 C   0  0  3  0  0  0  0  0  0  0  0  0
    4.5272   -1.6596    0.0000 C   0  0  0  0  0  0  0  0  0  0  0  0
    5.3184    0.3288    0.0000 C   0  0  3  0  0  0  0  0  0  0  0  0
    6.1844    0.8288    0.0000 C   0  0  0  0  0  0  0  0  0  0  0  0
    4.4524    0.8288    0.0000 C   0  0  0  0  0  0  0  0  0  0  0  0
    3.7154    0.1617    0.0000 C   0  0  0  0  0  0  0  0  0  0  0  0
    3.7841   -2.3288    0.0000 C   0  0  0  0  0  0  0  0  0  0  0  0
    2.9180   -1.8288    0.0000 C   0  0  0  0  0  0  0  0  0  0  0  0
    5.1963   -2.4028    0.0000 C   0  0  0  0  0  0  0  0  0  0  0  0
    5.4408   -1.2529    0.0000 C   0  0  0  0  0  0  0  0  0  0  0  0
    6.1844    1.8288    0.0000 C   0  0  0  0  0  0  0  0  0  0  0  0
    5.3184    2.3288    0.0000 C   0  0  0  0  0  0  0  0  0  0  0  0
    7.1844    0.8288    0.0000 C   0  0  0  0  0  0  0  0  0  0  0  0
    6.6844   -0.0373    0.0000 C   0  0  0  0  0  0  0  0  0  0  0  0
    2.4568   -0.1075    0.0000 C   0  0  0  0  0  0  0  0  0  0  0  0
    3.8001   -3.3703    0.0000 C   0  0  0  0  0  0  0  0  0  0  0  0
    2.0080   -2.3356    0.0000 C   0  0  0  0  0  0  0  0  0  0  0  0
    7.0944    2.3356    0.0000 C   0  0  0  0  0  0  0  0  0  0  0  0
    3.5863    2.3288    0.0000 C   0  0  0  0  0  0  0  0  0  0  0  0
    5.3023    3.3703    0.0000 C   0  0  0  0  0  0  0  0  0  0  0  0
    2.9021   -3.8980    0.0000 C   0  0  0  0  0  0  0  0  0  0  0  0
    2.0000   -3.3772    0.0000 C   0  0  0  0  0  0  0  0  0  0  0  0
    7.1024    3.3772    0.0000 C   0  0  0  0  0  0  0  0  0  0  0  0
    6.2004    3.8980    0.0000 C   0  0  0  0  0  0  0  0  0  0  0  0
    5.8195   -0.0363    0.0000 H   0  0  0  0  0  0  0  0  0  0  0  0
    3.1087    0.2895    0.0000 H   0  0  0  0  0  0  0  0  0  0  0  0
    4.7356   -2.8176    0.0000 H   0  0  0  0  0  0  0  0  0  0  0  0
    5.6112   -2.8635    0.0000 H   0  0  0  0  0  0  0  0  0  0  0  0
    5.6571   -1.9879    0.0000 H   0  0  0  0  0  0  0  0  0  0  0  0
    5.6929   -1.8193    0.0000 H   0  0  0  0  0  0  0  0  0  0  0  0
    6.0071   -1.0007    0.0000 H   0  0  0  0  0  0  0  0  0  0  0  0
    5.1886   -0.6865    0.0000 H   0  0  0  0  0  0  0  0  0  0  0  0
    6.1475   -0.3473    0.0000 H   0  0  0  0  0  0  0  0  0  0  0  0
    6.9944   -0.5742    0.0000 H   0  0  0  0  0  0  0  0  0  0  0  0
    7.2214    0.2727    0.0000 H   0  0  0  0  0  0  0  0  0  0  0  0
    7.1844    0.2088    0.0000 H   0  0  0  0  0  0  0  0  0  0  0  0
    7.8044    0.8288    0.0000 H   0  0  0  0  0  0  0  0  0  0  0  0
    7.1844    1.4488    0.0000 H   0  0  0  0  0  0  0  0  0  0  0  0
    2.9176    0.3074    0.0000 H   0  0  0  0  0  0  0  0  0  0  0  0
    2.0420    0.3533    0.0000 H   0  0  0  0  0  0  0  0  0  0  0  0
    1.9961   -0.5223    0.0000 H   0  0  0  0  0  0  0  0  0  0  0  0
    4.3406   -3.6740    0.0000 H   0  0  0  0  0  0  0  0  0  0  0  0
    1.4747   -2.0194    0.0000 H   0  0  0  0  0  0  0  0  0  0  0  0
    7.6277    2.0194    0.0000 H   0  0  0  0  0  0  0  0  0  0  0  0
    3.8963    2.8657    0.0000 H   0  0  0  0  0  0  0  0  0  0  0  0
    3.0494    2.6388    0.0000 H   0  0  0  0  0  0  0  0  0  0  0  0
    3.2763    1.7918    0.0000 H   0  0  0  0  0  0  0  0  0  0  0  0
    4.7618    3.6740    0.0000 H   0  0  0  0  0  0  0  0  0  0  0  0
    2.9045   -4.5180    0.0000 H   0  0  0  0  0  0  0  0  0  0  0  0
    1.4619   -3.6852    0.0000 H   0  0  0  0  0  0  0  0  0  0  0  0
    7.6406    3.6852    0.0000 H   0  0  0  0  0  0  0  0  0  0  0  0
    6.1980    4.5180    0.0000 H   0  0  0  0  0  0  0  0  0  0  0  0
  1  4  1  0  0  0  0
  1  6  1  0  0  0  0
  2  4  1  0  0  0  0
  2 11  1  0  0  0  0
  2 18  1  0  0  0  0
  3  8  1  0  0  0  0
  3 15  1  0  0  0  0
  3 22  1  0  0  0  0
  4  5  1  0  0  0  0
  4  9  1  0  0  0  0
  5 10  1  0  0  0  0
  5 12  1  0  0  0  0
  5 13  1  0  0  0  0
  6  7  1  0  0  0  0
  6  8  1  0  0  0  0
  6 28  1  0  0  0  0
  7 14  1  0  0  0  0
  7 16  1  0  0  0  0
  7 17  1  0  0  0  0
  8  9  2  0  0  0  0
  9 29  1  0  0  0  0
 10 11  1  0  0  0  0
 10 19  2  0  0  0  0
 11 20  2  0  0  0  0
 12 30  1  0  0  0  0
 12 31  1  0  0  0  0
 12 32  1  0  0  0  0
 13 33  1  0  0  0  0
 13 34  1  0  0  0  0
 13 35  1  0  0  0  0
 14 15  1  0  0  0  0
 14 21  2  0  0  0  0
 15 23  2  0  0  0  0
 16 39  1  0  0  0  0
 16 40  1  0  0  0  0
 16 41  1  0  0  0  0
 17 36  1  0  0  0  0
 17 37  1  0  0  0  0
 17 38  1  0  0  0  0
 18 42  1  0  0  0  0
 18 43  1  0  0  0  0
 18 44  1  0  0  0  0
 19 24  1  0  0  0  0
 19 45  1  0  0  0  0
 20 25  1  0  0  0  0
 20 46  1  0  0  0  0
 21 26  1  0  0  0  0
 21 47  1  0  0  0  0
 22 48  1  0  0  0  0
 22 49  1  0  0  0  0
 22 50  1  0  0  0  0
 23 27  1  0  0  0  0
 23 51  1  0  0  0  0
 24 25  2  0  0  0  0
 24 52  1  0  0  0  0
 25 53  1  0  0  0  0
 26 27  2  0  0  0  0
 26 54  1  0  0  0  0
 27 55  1  0  0  0  0
M  END
>  <PUBCHEM_COMPOUND_CID>
340816

>  <PUBCHEM_COMPOUND_CANONICALIZED>
1

>  <PUBCHEM_CACTVS_COMPLEXITY>
653

>  <PUBCHEM_CACTVS_HBOND_ACCEPTOR>
3

>  <PUBCHEM_CACTVS_HBOND_DONOR>
0

>  <PUBCHEM_CACTVS_ROTATABLE_BOND>
0

>  <PUBCHEM_CACTVS_SUBSKEYS>
AAADceB7IAAAAAAAAAAAAAAAAAAAAWIAAAA8YIAAAAAAAFixQAAAHgAAAAAADhyhmAYywIMABACAAiRCQACCAAAhAgAIiAAIZIgKJCLAsZGPMAhkwAHY6AewwOAPgAAAAAACAAAAAAAAAAQAAAAAAAAAAA==

>  <PUBCHEM_IUPAC_OPENEYE_NAME>
1',3',3',4,9,9-hexamethylspiro[9aH-furo[3,2-b]quinoline-2,2'-indoline]

>  <PUBCHEM_IUPAC_CAS_NAME>
1',3',3',4,9,9-hexamethylspiro[9aH-furo[3,2-b]quinoline-2,2'-indole]

>  <PUBCHEM_IUPAC_NAME>
1',3',3',4,9,9-hexamethylspiro[9aH-furo[3,2-b]quinoline-2,2'-indole]

>  <PUBCHEM_IUPAC_SYSTEMATIC_NAME>
1',3',3',4,9,9-hexamethylspiro[9aH-furo[3,2-b]quinoline-2,2'-indole]

>  <PUBCHEM_IUPAC_TRADITIONAL_NAME>
1',3',3',4,9,9-hexamethylspiro[9aH-furo[3,2-b]quinoline-2,2'-indoline]

>  <PUBCHEM_IUPAC_INCHI>
InChI=1S/C24H28N2O/c1-22(2)16-11-7-9-13-18(16)25(5)20-15-24(27-21(20)22)23(3,4)17-12-8-10-14-19(17)26(24)6/h7-15,21H,1-6H3

>  <PUBCHEM_IUPAC_INCHIKEY>
IKTUDKBXMZIAIC-UHFFFAOYSA-N

>  <PUBCHEM_XLOGP3_AA>
5.3

>  <PUBCHEM_EXACT_MASS>
360.22

>  <PUBCHEM_MOLECULAR_FORMULA>
C24H28N2O

>  <PUBCHEM_MOLECULAR_WEIGHT>
360.501

>  <PUBCHEM_OPENEYE_CAN_SMILES>
CC1(C2C(=CC3(O2)C(C4=CC=CC=C4N3C)(C)C)N(C5=CC=CC=C51)C)C

>  <PUBCHEM_OPENEYE_ISO_SMILES>
CC1(C2C(=CC3(O2)C(C4=CC=CC=C4N3C)(C)C)N(C5=CC=CC=C51)C)C

>  <PUBCHEM_CACTVS_TPSA>
15.7

>  <PUBCHEM_MONOISOTOPIC_WEIGHT>
360.22

>  <PUBCHEM_TOTAL_CHARGE>
0

>  <PUBCHEM_HEAVY_ATOM_COUNT>
27

>  <PUBCHEM_ATOM_DEF_STEREO_COUNT>
0

>  <PUBCHEM_ATOM_UDEF_STEREO_COUNT>
2

>  <PUBCHEM_BOND_DEF_STEREO_COUNT>
0

>  <PUBCHEM_BOND_UDEF_STEREO_COUNT>
0

>  <PUBCHEM_ISOTOPIC_ATOM_COUNT>
0

>  <PUBCHEM_COMPONENT_COUNT>
1

>  <PUBCHEM_CACTVS_TAUTO_COUNT>
1

>  <PUBCHEM_COORDINATE_TYPE>
1
5
255

>  <PUBCHEM_BONDANNOTATIONS>
10  11  8
10  19  8
11  20  8
14  15  8
14  21  8
15  23  8
19  24  8
20  25  8
21  26  8
23  27  8
24  25  8
26  27  8
4  9  3
6  7  3

$$$$
