343165
 OpenBabel06101807152D

 56 60  0  0  1  0  0  0  0  0999 V2000
    3.6636    0.6444    0.0000 O   0  0  0  0  0  0  0  0  0  0  0  0
    6.6412   -1.3372    0.0000 O   0  0  0  0  0  0  0  0  0  0  0  0
    8.0248   -0.2232    0.0000 O   0  0  0  0  0  0  0  0  0  0  0  0
    2.0000    0.0058    0.0000 O   0  0  0  0  0  0  0  0  0  0  0  0
    4.5772    0.2377    0.0000 C   0  0  3  0  0  0  0  0  0  0  0  0
    5.4432   -0.2623    0.0000 C   0  0  1  0  0  0  0  0  0  0  0  0
    4.5772    1.2377    0.0000 C   0  0  2  0  0  0  0  0  0  0  0  0
    5.4432    1.7377    0.0000 C   0  0  2  0  0  0  0  0  0  0  0  0
    5.0432    0.3377    0.0000 C   0  0  0  0  0  0  0  0  0  0  0  0
    5.0432    1.1377    0.0000 C   0  0  0  0  0  0  0  0  0  0  0  0
    6.3092    0.2377    0.0000 C   0  0  0  0  0  0  0  0  0  0  0  0
    4.4727   -0.7568    0.0000 C   0  0  0  0  0  0  0  0  0  0  0  0
    6.3092    1.2377    0.0000 C   0  0  0  0  0  0  0  0  0  0  0  0
    3.7112    1.7377    0.0000 C   0  0  0  0  0  0  0  0  0  0  0  0
    5.6524   -1.2341    0.0000 C   0  0  0  0  0  0  0  0  0  0  0  0
    3.4945   -0.9648    0.0000 C   0  0  0  0  0  0  0  0  0  0  0  0
    7.0463   -0.4294    0.0000 C   0  0  0  0  0  0  0  0  0  0  0  0
    5.1815   -1.5201    0.0000 C   0  0  0  0  0  0  0  0  0  0  0  0
    2.9945   -0.0987    0.0000 C   0  0  0  0  0  0  0  0  0  0  0  0
    3.7112    2.7377    0.0000 C   0  0  0  0  0  0  0  0  0  0  0  0
    5.4462   -2.2126    0.0000 C   0  0  0  0  0  0  0  0  0  0  0  0
    4.8673   -2.5132    0.0000 C   0  0  0  0  0  0  0  0  0  0  0  0
    3.1574   -1.9503    0.0000 C   0  0  0  0  0  0  0  0  0  0  0  0
    3.8484   -2.7298    0.0000 C   0  0  0  0  0  0  0  0  0  0  0  0
    2.8452    3.2377    0.0000 C   0  0  0  0  0  0  0  0  0  0  0  0
    6.1906   -2.8805    0.0000 C   0  0  0  0  0  0  0  0  0  0  0  0
    7.1410   -2.5698    0.0000 C   0  0  0  0  0  0  0  0  0  0  0  0
    7.8853   -3.2377    0.0000 C   0  0  0  0  0  0  0  0  0  0  0  0
    4.5772    1.8577    0.0000 H   0  0  0  0  0  0  0  0  0  0  0  0
    5.4432    2.5877    0.0000 H   0  0  0  0  0  0  0  0  0  0  0  0
    4.4562    0.5372    0.0000 H   0  0  0  0  0  0  0  0  0  0  0  0
    5.6366    0.5173    0.0000 H   0  0  0  0  0  0  0  0  0  0  0  0
    4.6654    1.6293    0.0000 H   0  0  0  0  0  0  0  0  0  0  0  0
    5.6366    0.9580    0.0000 H   0  0  0  0  0  0  0  0  0  0  0  0
    6.8462    1.5477    0.0000 H   0  0  0  0  0  0  0  0  0  0  0  0
    3.1006    1.8453    0.0000 H   0  0  0  0  0  0  0  0  0  0  0  0
    3.4991    1.1551    0.0000 H   0  0  0  0  0  0  0  0  0  0  0  0
    5.7319   -1.8055    0.0000 H   0  0  0  0  0  0  0  0  0  0  0  0
    5.5569   -1.0267    0.0000 H   0  0  0  0  0  0  0  0  0  0  0  0
    4.3218    2.6300    0.0000 H   0  0  0  0  0  0  0  0  0  0  0  0
    3.9232    3.3203    0.0000 H   0  0  0  0  0  0  0  0  0  0  0  0
    4.8569   -2.4053    0.0000 H   0  0  0  0  0  0  0  0  0  0  0  0
    4.8905   -3.1328    0.0000 H   0  0  0  0  0  0  0  0  0  0  0  0
    5.4817   -2.5963    0.0000 H   0  0  0  0  0  0  0  0  0  0  0  0
    2.5495   -2.0722    0.0000 H   0  0  0  0  0  0  0  0  0  0  0  0
    3.6545   -3.3187    0.0000 H   0  0  0  0  0  0  0  0  0  0  0  0
    3.1552    3.7746    0.0000 H   0  0  0  0  0  0  0  0  0  0  0  0
    2.3082    3.5477    0.0000 H   0  0  0  0  0  0  0  0  0  0  0  0
    2.5351    2.7007    0.0000 H   0  0  0  0  0  0  0  0  0  0  0  0
    5.7027   -3.2630    0.0000 H   0  0  0  0  0  0  0  0  0  0  0  0
    6.4826   -3.4274    0.0000 H   0  0  0  0  0  0  0  0  0  0  0  0
    7.6289   -2.1873    0.0000 H   0  0  0  0  0  0  0  0  0  0  0  0
    6.8490   -2.0229    0.0000 H   0  0  0  0  0  0  0  0  0  0  0  0
    7.4713   -3.6991    0.0000 H   0  0  0  0  0  0  0  0  0  0  0  0
    8.3468   -3.6517    0.0000 H   0  0  0  0  0  0  0  0  0  0  0  0
    8.2994   -2.7762    0.0000 H   0  0  0  0  0  0  0  0  0  0  0  0
  1  5  1  0  0  0  0
  1 19  1  0  0  0  0
  2 15  1  0  0  0  0
  2 17  1  0  0  0  0
  3 17  2  0  0  0  0
  4 19  2  0  0  0  0
  5 12  1  0  0  0  0
  6  5  1  1  0  0  0
  6  9  1  0  0  0  0
  6 11  1  0  0  0  0
  6 15  1  0  0  0  0
  7  5  1  6  0  0  0
  7 14  1  0  0  0  0
  7 29  1  0  0  0  0
  8  7  1  1  0  0  0
  8 10  1  0  0  0  0
  8 13  1  0  0  0  0
  8 30  1  0  0  0  0
  9 10  1  0  0  0  0
  9 31  1  0  0  0  0
  9 32  1  0  0  0  0
 10 33  1  0  0  0  0
 10 34  1  0  0  0  0
 11 13  2  0  0  0  0
 11 17  1  0  0  0  0
 12 16  2  0  0  0  0
 12 18  1  0  0  0  0
 13 35  1  0  0  0  0
 14 20  1  0  0  0  0
 14 36  1  0  0  0  0
 14 37  1  0  0  0  0
 15 21  2  3  0  0  0
 16 19  1  0  0  0  0
 16 23  1  0  0  0  0
 18 22  1  0  0  0  0
 18 38  1  0  0  0  0
 18 39  1  0  0  0  0
 20 25  1  0  0  0  0
 20 40  1  0  0  0  0
 20 41  1  0  0  0  0
 21 26  1  0  0  0  0
 21 42  1  0  0  0  0
 22 24  1  0  0  0  0
 22 43  1  0  0  0  0
 22 44  1  0  0  0  0
 23 24  2  0  0  0  0
 23 45  1  0  0  0  0
 24 46  1  0  0  0  0
 25 47  1  0  0  0  0
 25 48  1  0  0  0  0
 25 49  1  0  0  0  0
 26 27  1  0  0  0  0
 26 50  1  0  0  0  0
 26 51  1  0  0  0  0
 27 28  1  0  0  0  0
 27 52  1  0  0  0  0
 27 53  1  0  0  0  0
 28 54  1  0  0  0  0
 28 55  1  0  0  0  0
 28 56  1  0  0  0  0
M  END
>  <PUBCHEM_COMPOUND_CID>
343165

>  <PUBCHEM_COMPOUND_CANONICALIZED>
1

>  <PUBCHEM_CACTVS_COMPLEXITY>
873

>  <PUBCHEM_CACTVS_HBOND_ACCEPTOR>
4

>  <PUBCHEM_CACTVS_HBOND_DONOR>
0

>  <PUBCHEM_CACTVS_ROTATABLE_BOND>
4

>  <PUBCHEM_CACTVS_SUBSKEYS>
AAADceB4OAAAAAAAAAAAAAAAAAAAASIAAAAwQIEAAAAAAEAAAAAAGgAAAAAAD0SAgAACCAAABACIAiDSCAAACAAgIAAICAEAAEgIBBIAIQACEAAFwAAIoYPKyPCPgAAAAAAAAACAAAYAADAAAAAAAAAAAA==

>  <PUBCHEM_IUPAC_INCHI>
InChI=1S/C24H28O4/c1-3-5-11-20-23-13-12-15(14-19(23)22(26)27-20)17(8-4-2)24(23)18-10-7-6-9-16(18)21(25)28-24/h6,9,11,14-15,17H,3-5,7-8,10,12-13H2,1-2H3/t15-,17+,23+,24?/m1/s1

>  <PUBCHEM_IUPAC_INCHIKEY>
DZMFTLLDUYBHLI-IHXGYTFNSA-N

>  <PUBCHEM_XLOGP3_AA>
4.8

>  <PUBCHEM_EXACT_MASS>
380.199

>  <PUBCHEM_MOLECULAR_FORMULA>
C24H28O4

>  <PUBCHEM_MOLECULAR_WEIGHT>
380.484

>  <PUBCHEM_OPENEYE_CAN_SMILES>
CCCC=C1C23CCC(C=C2C(=O)O1)C(C34C5=C(C=CCC5)C(=O)O4)CCC

>  <PUBCHEM_OPENEYE_ISO_SMILES>
CCCC=C1[C@]23CC[C@H](C=C2C(=O)O1)[C@@H](C34C5=C(C=CCC5)C(=O)O4)CCC

>  <PUBCHEM_CACTVS_TPSA>
52.6

>  <PUBCHEM_MONOISOTOPIC_WEIGHT>
380.199

>  <PUBCHEM_TOTAL_CHARGE>
0

>  <PUBCHEM_HEAVY_ATOM_COUNT>
28

>  <PUBCHEM_ATOM_DEF_STEREO_COUNT>
3

>  <PUBCHEM_ATOM_UDEF_STEREO_COUNT>
1

>  <PUBCHEM_BOND_DEF_STEREO_COUNT>
0

>  <PUBCHEM_BOND_UDEF_STEREO_COUNT>
1

>  <PUBCHEM_ISOTOPIC_ATOM_COUNT>
0

>  <PUBCHEM_COMPONENT_COUNT>
1

>  <PUBCHEM_CACTVS_TAUTO_COUNT>
1

>  <PUBCHEM_COORDINATE_TYPE>
1
5
255

>  <PUBCHEM_BONDANNOTATIONS>
5  1  3
15  21  1
6  15  6
7  14  5
8  30  6

$$$$
