345510
 OpenBabel06101807152D

 86 90  0  0  1  0  0  0  0  0999 V2000
    3.7320   -2.5933    0.0000 O   0  0  0  0  0  0  0  0  0  0  0  0
    2.8718   -1.0900    0.0000 O   0  0  0  0  0  0  0  0  0  0  0  0
    8.2591   -1.0410    0.0000 C   0  0  3  0  0  0  0  0  0  0  0  0
    7.3931   -0.5410    0.0000 C   0  0  3  0  0  0  0  0  0  0  0  0
    6.4831   -1.0478    0.0000 C   0  0  3  0  0  0  0  0  0  0  0  0
    9.1251   -0.5410    0.0000 C   0  0  3  0  0  0  0  0  0  0  0  0
    6.4750   -2.0894    0.0000 C   0  0  3  0  0  0  0  0  0  0  0  0
    8.2752   -2.0825    0.0000 C   0  0  0  0  0  0  0  0  0  0  0  0
    9.1251    0.4590    0.0000 C   0  0  0  0  0  0  0  0  0  0  0  0
    7.3771   -2.6102    0.0000 C   0  0  0  0  0  0  0  0  0  0  0  0
    5.5396   -2.6391    0.0000 C   0  0  0  0  0  0  0  0  0  0  0  0
   10.0191    0.9937    0.0000 C   0  0  3  0  0  0  0  0  0  0  0  0
   10.9251    0.4799    0.0000 C   0  0  3  0  0  0  0  0  0  0  0  0
   10.0191   -1.0756    0.0000 C   0  0  0  0  0  0  0  0  0  0  0  0
    7.3931    0.4590    0.0000 C   0  0  0  0  0  0  0  0  0  0  0  0
    5.5562   -0.4837    0.0000 C   0  0  0  0  0  0  0  0  0  0  0  0
   10.9251   -0.5618    0.0000 C   0  0  0  0  0  0  0  0  0  0  0  0
    8.9019   -1.8070    0.0000 C   0  0  0  0  0  0  0  0  0  0  0  0
    4.6000   -2.0966    0.0000 C   0  0  3  0  0  0  0  0  0  0  0  0
    8.2591    0.9590    0.0000 C   0  0  0  0  0  0  0  0  0  0  0  0
    6.4908   -0.0478    0.0000 C   0  0  0  0  0  0  0  0  0  0  0  0
    4.6084   -1.0117    0.0000 C   0  0  0  0  0  0  0  0  0  0  0  0
    9.4672   -1.4806    0.0000 C   0  0  0  0  0  0  0  0  0  0  0  0
    9.9940    2.0784    0.0000 C   0  0  0  0  0  0  0  0  0  0  0  0
   11.8689    1.0151    0.0000 C   0  0  0  0  0  0  0  0  0  0  0  0
   10.9251    2.6353    0.0000 C   0  0  0  0  0  0  0  0  0  0  0  0
   11.8689    2.1001    0.0000 C   0  0  0  0  0  0  0  0  0  0  0  0
    5.0430   -3.5071    0.0000 C   0  0  0  0  0  0  0  0  0  0  0  0
    6.0430   -3.5032    0.0000 C   0  0  0  0  0  0  0  0  0  0  0  0
   11.7950   -0.0135    0.0000 C   0  0  0  0  0  0  0  0  0  0  0  0
   11.4151    3.5071    0.0000 C   0  0  0  0  0  0  0  0  0  0  0  0
   10.4152    3.4955    0.0000 C   0  0  0  0  0  0  0  0  0  0  0  0
    2.8680   -2.0900    0.0000 C   0  0  0  0  0  0  0  0  0  0  0  0
    2.0000   -2.5866    0.0000 C   0  0  0  0  0  0  0  0  0  0  0  0
    7.9300   -0.2310    0.0000 H   0  0  0  0  0  0  0  0  0  0  0  0
    6.4774   -2.7094    0.0000 H   0  0  0  0  0  0  0  0  0  0  0  0
    8.4932   -2.6629    0.0000 H   0  0  0  0  0  0  0  0  0  0  0  0
    8.8843   -1.9670    0.0000 H   0  0  0  0  0  0  0  0  0  0  0  0
    6.9798   -3.0862    0.0000 H   0  0  0  0  0  0  0  0  0  0  0  0
    7.7781   -3.0831    0.0000 H   0  0  0  0  0  0  0  0  0  0  0  0
   10.5512    1.3119    0.0000 H   0  0  0  0  0  0  0  0  0  0  0  0
    9.6145   -1.5454    0.0000 H   0  0  0  0  0  0  0  0  0  0  0  0
   10.4127   -1.5546    0.0000 H   0  0  0  0  0  0  0  0  0  0  0  0
    7.1810    1.0416    0.0000 H   0  0  0  0  0  0  0  0  0  0  0  0
    6.7825    0.3514    0.0000 H   0  0  0  0  0  0  0  0  0  0  0  0
    5.9644   -0.0171    0.0000 H   0  0  0  0  0  0  0  0  0  0  0  0
    5.1663   -0.0017    0.0000 H   0  0  0  0  0  0  0  0  0  0  0  0
   11.1342   -1.1455    0.0000 H   0  0  0  0  0  0  0  0  0  0  0  0
   11.5360   -0.4557    0.0000 H   0  0  0  0  0  0  0  0  0  0  0  0
    8.4269   -2.2055    0.0000 H   0  0  0  0  0  0  0  0  0  0  0  0
    9.3004   -2.2820    0.0000 H   0  0  0  0  0  0  0  0  0  0  0  0
    9.3768   -1.4085    0.0000 H   0  0  0  0  0  0  0  0  0  0  0  0
    4.5988   -2.7166    0.0000 H   0  0  0  0  0  0  0  0  0  0  0  0
    8.2591    1.5790    0.0000 H   0  0  0  0  0  0  0  0  0  0  0  0
    7.1108   -0.0526    0.0000 H   0  0  0  0  0  0  0  0  0  0  0  0
    6.4956    0.5721    0.0000 H   0  0  0  0  0  0  0  0  0  0  0  0
    5.8708   -0.0431    0.0000 H   0  0  0  0  0  0  0  0  0  0  0  0
    4.4038   -0.4264    0.0000 H   0  0  0  0  0  0  0  0  0  0  0  0
    3.9967   -1.1131    0.0000 H   0  0  0  0  0  0  0  0  0  0  0  0
    8.8846   -1.6927    0.0000 H   0  0  0  0  0  0  0  0  0  0  0  0
    9.6794   -2.0632    0.0000 H   0  0  0  0  0  0  0  0  0  0  0  0
   10.0498   -1.2685    0.0000 H   0  0  0  0  0  0  0  0  0  0  0  0
    9.7715    2.6571    0.0000 H   0  0  0  0  0  0  0  0  0  0  0  0
    9.3857    1.9582    0.0000 H   0  0  0  0  0  0  0  0  0  0  0  0
   12.0780    0.4314    0.0000 H   0  0  0  0  0  0  0  0  0  0  0  0
   12.4798    1.1212    0.0000 H   0  0  0  0  0  0  0  0  0  0  0  0
   12.4798    1.9940    0.0000 H   0  0  0  0  0  0  0  0  0  0  0  0
   12.0780    2.6838    0.0000 H   0  0  0  0  0  0  0  0  0  0  0  0
    5.5072   -3.8153    0.0000 H   0  0  0  0  0  0  0  0  0  0  0  0
    6.3550   -4.0390    0.0000 H   0  0  0  0  0  0  0  0  0  0  0  0
    6.5787   -3.1912    0.0000 H   0  0  0  0  0  0  0  0  0  0  0  0
    4.5048   -3.1992    0.0000 H   0  0  0  0  0  0  0  0  0  0  0  0
    4.7350   -4.0452    0.0000 H   0  0  0  0  0  0  0  0  0  0  0  0
    5.5811   -3.8150    0.0000 H   0  0  0  0  0  0  0  0  0  0  0  0
   11.4891   -0.5528    0.0000 H   0  0  0  0  0  0  0  0  0  0  0  0
   12.3343   -0.3193    0.0000 H   0  0  0  0  0  0  0  0  0  0  0  0
   12.1008    0.5259    0.0000 H   0  0  0  0  0  0  0  0  0  0  0  0
   10.9485    3.8117    0.0000 H   0  0  0  0  0  0  0  0  0  0  0  0
   10.0990    4.0288    0.0000 H   0  0  0  0  0  0  0  0  0  0  0  0
    9.8818    3.1793    0.0000 H   0  0  0  0  0  0  0  0  0  0  0  0
   11.9556    3.2033    0.0000 H   0  0  0  0  0  0  0  0  0  0  0  0
   11.7189    4.0476    0.0000 H   0  0  0  0  0  0  0  0  0  0  0  0
   10.8746    3.8108    0.0000 H   0  0  0  0  0  0  0  0  0  0  0  0
    1.6921   -2.0485    0.0000 H   0  0  0  0  0  0  0  0  0  0  0  0
    1.4619   -2.8945    0.0000 H   0  0  0  0  0  0  0  0  0  0  0  0
    2.3079   -3.1247    0.0000 H   0  0  0  0  0  0  0  0  0  0  0  0
  1 19  1  0  0  0  0
  1 33  1  0  0  0  0
  2 33  2  0  0  0  0
  3  4  1  0  0  0  0
  3  6  1  0  0  0  0
  3  8  1  0  0  0  0
  3 18  1  0  0  0  0
  4  5  1  0  0  0  0
  4 15  1  0  0  0  0
  4 35  1  0  0  0  0
  5  7  1  0  0  0  0
  5 16  1  0  0  0  0
  5 21  1  0  0  0  0
  6  9  1  0  0  0  0
  6 14  1  0  0  0  0
  6 23  1  0  0  0  0
  7 10  1  0  0  0  0
  7 11  1  0  0  0  0
  7 36  1  0  0  0  0
  8 10  1  0  0  0  0
  8 37  1  0  0  0  0
  8 38  1  0  0  0  0
  9 12  1  0  0  0  0
  9 20  2  0  0  0  0
 10 39  1  0  0  0  0
 10 40  1  0  0  0  0
 11 19  1  0  0  0  0
 11 28  1  0  0  0  0
 11 29  1  0  0  0  0
 12 13  1  0  0  0  0
 12 24  1  0  0  0  0
 12 41  1  0  0  0  0
 13 17  1  0  0  0  0
 13 25  1  0  0  0  0
 13 30  1  0  0  0  0
 14 17  1  0  0  0  0
 14 42  1  0  0  0  0
 14 43  1  0  0  0  0
 15 20  1  0  0  0  0
 15 44  1  0  0  0  0
 15 45  1  0  0  0  0
 16 22  1  0  0  0  0
 16 46  1  0  0  0  0
 16 47  1  0  0  0  0
 17 48  1  0  0  0  0
 17 49  1  0  0  0  0
 18 50  1  0  0  0  0
 18 51  1  0  0  0  0
 18 52  1  0  0  0  0
 19 22  1  0  0  0  0
 19 53  1  0  0  0  0
 20 54  1  0  0  0  0
 21 55  1  0  0  0  0
 21 56  1  0  0  0  0
 21 57  1  0  0  0  0
 22 58  1  0  0  0  0
 22 59  1  0  0  0  0
 23 60  1  0  0  0  0
 23 61  1  0  0  0  0
 23 62  1  0  0  0  0
 24 26  1  0  0  0  0
 24 63  1  0  0  0  0
 24 64  1  0  0  0  0
 25 27  1  0  0  0  0
 25 65  1  0  0  0  0
 25 66  1  0  0  0  0
 26 27  1  0  0  0  0
 26 31  1  0  0  0  0
 26 32  1  0  0  0  0
 27 67  1  0  0  0  0
 27 68  1  0  0  0  0
 28 72  1  0  0  0  0
 28 73  1  0  0  0  0
 28 74  1  0  0  0  0
 29 69  1  0  0  0  0
 29 70  1  0  0  0  0
 29 71  1  0  0  0  0
 30 75  1  0  0  0  0
 30 76  1  0  0  0  0
 30 77  1  0  0  0  0
 31 81  1  0  0  0  0
 31 82  1  0  0  0  0
 31 83  1  0  0  0  0
 32 78  1  0  0  0  0
 32 79  1  0  0  0  0
 32 80  1  0  0  0  0
 33 34  1  0  0  0  0
 34 84  1  0  0  0  0
 34 85  1  0  0  0  0
 34 86  1  0  0  0  0
M  END
>  <PUBCHEM_COMPOUND_CID>
345510

>  <PUBCHEM_COMPOUND_CANONICALIZED>
1

>  <PUBCHEM_CACTVS_COMPLEXITY>
897

>  <PUBCHEM_CACTVS_HBOND_ACCEPTOR>
2

>  <PUBCHEM_CACTVS_HBOND_DONOR>
0

>  <PUBCHEM_CACTVS_ROTATABLE_BOND>
2

>  <PUBCHEM_CACTVS_SUBSKEYS>
AAADcfB8MAAAAAAAAAAAAAAAAAAAAAAAAAAwYMGCAAAAAADAAAAAGgAAAAAADxSggAICCAAABACIAiDSCAAAAAAgAAAACAAAAAgAAAIAAQACAAAEgAAIAAOAwPAPgAAAAAAAAADAAAYAADAAAAAAAAAAAA==

>  <PUBCHEM_IUPAC_OPENEYE_NAME>
(4,4,6a,6b,8a,11,11,14b-octamethyl-1,2,3,4a,5,6,7,8,9,10,12,12a,14,14a-tetradecahydropicen-3-yl) acetate

>  <PUBCHEM_IUPAC_CAS_NAME>
acetic acid (4,4,6a,6b,8a,11,11,14b-octamethyl-1,2,3,4a,5,6,7,8,9,10,12,12a,14,14a-tetradecahydropicen-3-yl) ester

>  <PUBCHEM_IUPAC_NAME>
(4,4,6a,6b,8a,11,11,14b-octamethyl-1,2,3,4a,5,6,7,8,9,10,12,12a,14,14a-tetradecahydropicen-3-yl) acetate

>  <PUBCHEM_IUPAC_SYSTEMATIC_NAME>
(4,4,6a,6b,8a,11,11,14b-octamethyl-1,2,3,4a,5,6,7,8,9,10,12,12a,14,14a-tetradecahydropicen-3-yl) ethanoate

>  <PUBCHEM_IUPAC_TRADITIONAL_NAME>
acetic acid (4,4,6a,6b,8a,11,11,14b-octamethyl-1,2,3,4a,5,6,7,8,9,10,12,12a,14,14a-tetradecahydropicen-3-yl) ester

>  <PUBCHEM_IUPAC_INCHI>
InChI=1S/C32H52O2/c1-21(33)34-26-13-14-30(7)24(28(26,4)5)12-15-32(9)25(30)11-10-22-23-20-27(2,3)16-17-29(23,6)18-19-31(22,32)8/h10,23-26H,11-20H2,1-9H3

>  <PUBCHEM_IUPAC_INCHIKEY>
UMRPOGLIBDXFNK-UHFFFAOYSA-N

>  <PUBCHEM_XLOGP3_AA>
9.7

>  <PUBCHEM_EXACT_MASS>
468.397

>  <PUBCHEM_MOLECULAR_FORMULA>
C32H52O2

>  <PUBCHEM_MOLECULAR_WEIGHT>
468.766

>  <PUBCHEM_OPENEYE_CAN_SMILES>
CC(=O)OC1CCC2(C(C1(C)C)CCC3(C2CC=C4C3(CCC5(C4CC(CC5)(C)C)C)C)C)C

>  <PUBCHEM_OPENEYE_ISO_SMILES>
CC(=O)OC1CCC2(C(C1(C)C)CCC3(C2CC=C4C3(CCC5(C4CC(CC5)(C)C)C)C)C)C

>  <PUBCHEM_CACTVS_TPSA>
26.3

>  <PUBCHEM_MONOISOTOPIC_WEIGHT>
468.397

>  <PUBCHEM_TOTAL_CHARGE>
0

>  <PUBCHEM_HEAVY_ATOM_COUNT>
34

>  <PUBCHEM_ATOM_DEF_STEREO_COUNT>
0

>  <PUBCHEM_ATOM_UDEF_STEREO_COUNT>
8

>  <PUBCHEM_BOND_DEF_STEREO_COUNT>
0

>  <PUBCHEM_BOND_UDEF_STEREO_COUNT>
0

>  <PUBCHEM_ISOTOPIC_ATOM_COUNT>
0

>  <PUBCHEM_COMPONENT_COUNT>
1

>  <PUBCHEM_CACTVS_TAUTO_COUNT>
1

>  <PUBCHEM_COORDINATE_TYPE>
1
5
255

>  <PUBCHEM_BONDANNOTATIONS>
19  1  3
12  24  3
13  30  3
3  18  3
4  15  3
5  21  3
6  23  3
7  10  3

$$$$
