3511
 OpenBabel06101807152D

 60 63  0  0  1  0  0  0  0  0999 V2000
    5.2414    1.9182    0.0000 O   0  0  0  0  0  0  0  0  0  0  0  0
    3.6718   -1.0713    0.0000 O   0  0  0  0  0  0  0  0  0  0  0  0
    7.5538    0.9121    0.0000 O   0  0  0  0  0  0  0  0  0  0  0  0
    8.9770   -1.3103    0.0000 O   0  0  0  0  0  0  0  0  0  0  0  0
    4.5559   -2.0493    0.0000 O   0  0  0  0  0  0  0  0  0  0  0  0
    2.0502    1.3462    0.0000 O   0  0  0  0  0  0  0  0  0  0  0  0
    6.2530   -0.6569    0.0000 C   0  0  3  0  0  0  0  0  0  0  0  0
    6.2480    0.3431    0.0000 C   0  0  3  0  0  0  0  0  0  0  0  0
    5.4741    0.9456    0.0000 C   0  0  3  0  0  0  0  0  0  0  0  0
    4.5199    0.7187    0.0000 C   0  0  3  0  0  0  0  0  0  0  0  0
    4.0999   -0.1676    0.0000 C   0  0  3  0  0  0  0  0  0  0  0  0
    7.2638   -0.0450    0.0000 C   0  0  3  0  0  0  0  0  0  0  0  0
    8.4411   -0.1460    0.0000 C   0  0  3  0  0  0  0  0  0  0  0  0
    7.0379   -1.2764    0.0000 C   0  0  0  0  0  0  0  0  0  0  0  0
    5.4851   -1.2670    0.0000 C   0  0  0  0  0  0  0  0  0  0  0  0
    8.0117   -1.0491    0.0000 C   0  0  3  0  0  0  0  0  0  0  0  0
    4.5287   -1.0497    0.0000 C   0  0  3  0  0  0  0  0  0  0  0  0
    7.0267    0.9705    0.0000 C   0  0  0  0  0  0  0  0  0  0  0  0
    3.1333   -0.0403    0.0000 C   0  0  0  0  0  0  0  0  0  0  0  0
    8.0027    0.7528    0.0000 C   0  0  0  0  0  0  0  0  0  0  0  0
    3.8092    1.3862    0.0000 C   0  0  0  0  0  0  0  0  0  0  0  0
    2.9539    0.9180    0.0000 C   0  0  3  0  0  0  0  0  0  0  0  0
    6.0894    1.7339    0.0000 C   0  0  0  0  0  0  0  0  0  0  0  0
    8.0616   -2.0478    0.0000 C   0  0  0  0  0  0  0  0  0  0  0  0
    2.1502   -0.2234    0.0000 C   0  0  0  0  0  0  0  0  0  0  0  0
    3.0036   -1.0319    0.0000 C   0  0  0  0  0  0  0  0  0  0  0  0
    6.8079    0.0769    0.0000 H   0  0  0  0  0  0  0  0  0  0  0  0
    4.6794    1.3179    0.0000 H   0  0  0  0  0  0  0  0  0  0  0  0
    6.7741    0.3353    0.0000 H   0  0  0  0  0  0  0  0  0  0  0  0
    9.0611   -0.1429    0.0000 H   0  0  0  0  0  0  0  0  0  0  0  0
    6.5551   -1.6654    0.0000 H   0  0  0  0  0  0  0  0  0  0  0  0
    7.3097   -1.8337    0.0000 H   0  0  0  0  0  0  0  0  0  0  0  0
    5.2161   -1.8257    0.0000 H   0  0  0  0  0  0  0  0  0  0  0  0
    5.9695   -1.6540    0.0000 H   0  0  0  0  0  0  0  0  0  0  0  0
    4.9141   -0.5641    0.0000 H   0  0  0  0  0  0  0  0  0  0  0  0
    7.2929    1.5304    0.0000 H   0  0  0  0  0  0  0  0  0  0  0  0
    6.5400    1.3546    0.0000 H   0  0  0  0  0  0  0  0  0  0  0  0
    8.6065    0.8938    0.0000 H   0  0  0  0  0  0  0  0  0  0  0  0
    7.9996    1.3728    0.0000 H   0  0  0  0  0  0  0  0  0  0  0  0
    4.2788    1.7910    0.0000 H   0  0  0  0  0  0  0  0  0  0  0  0
    3.4559    1.8957    0.0000 H   0  0  0  0  0  0  0  0  0  0  0  0
    2.4629    0.5395    0.0000 H   0  0  0  0  0  0  0  0  0  0  0  0
    6.5781    1.3524    0.0000 H   0  0  0  0  0  0  0  0  0  0  0  0
    6.4709    2.2226    0.0000 H   0  0  0  0  0  0  0  0  0  0  0  0
    5.6007    2.1154    0.0000 H   0  0  0  0  0  0  0  0  0  0  0  0
    7.4423   -2.0787    0.0000 H   0  0  0  0  0  0  0  0  0  0  0  0
    8.0925   -2.6671    0.0000 H   0  0  0  0  0  0  0  0  0  0  0  0
    8.6808   -2.0169    0.0000 H   0  0  0  0  0  0  0  0  0  0  0  0
    2.0367    0.3861    0.0000 H   0  0  0  0  0  0  0  0  0  0  0  0
    1.5407   -0.3369    0.0000 H   0  0  0  0  0  0  0  0  0  0  0  0
    2.2637   -0.8329    0.0000 H   0  0  0  0  0  0  0  0  0  0  0  0
    2.3888   -0.9515    0.0000 H   0  0  0  0  0  0  0  0  0  0  0  0
    2.9232   -1.6467    0.0000 H   0  0  0  0  0  0  0  0  0  0  0  0
    3.6184   -1.1123    0.0000 H   0  0  0  0  0  0  0  0  0  0  0  0
    5.6915    2.3446    0.0000 H   0  0  0  0  0  0  0  0  0  0  0  0
    3.6139   -1.6886    0.0000 H   0  0  0  0  0  0  0  0  0  0  0  0
    7.7336    1.5054    0.0000 H   0  0  0  0  0  0  0  0  0  0  0  0
    9.1360   -1.9096    0.0000 H   0  0  0  0  0  0  0  0  0  0  0  0
    5.1011   -2.3446    0.0000 H   0  0  0  0  0  0  0  0  0  0  0  0
    2.0000    1.9642    0.0000 H   0  0  0  0  0  0  0  0  0  0  0  0
  1  9  1  0  0  0  0
  1 55  1  0  0  0  0
  2 11  1  0  0  0  0
  2 56  1  0  0  0  0
  3 12  1  0  0  0  0
  3 57  1  0  0  0  0
  4 16  1  0  0  0  0
  4 58  1  0  0  0  0
  5 17  1  0  0  0  0
  5 59  1  0  0  0  0
  6 22  1  0  0  0  0
  6 60  1  0  0  0  0
  7  8  1  0  0  0  0
  7 12  1  0  0  0  0
  7 14  1  0  0  0  0
  7 15  1  0  0  0  0
  8  9  1  0  0  0  0
  8 18  1  0  0  0  0
  8 27  1  0  0  0  0
  9 10  1  0  0  0  0
  9 23  1  0  0  0  0
 10 11  1  0  0  0  0
 10 21  1  0  0  0  0
 10 28  1  0  0  0  0
 11 17  1  0  0  0  0
 11 19  1  0  0  0  0
 12 13  1  0  0  0  0
 12 29  1  0  0  0  0
 13 16  1  0  0  0  0
 13 20  1  0  0  0  0
 13 30  1  0  0  0  0
 14 16  1  0  0  0  0
 14 31  1  0  0  0  0
 14 32  1  0  0  0  0
 15 17  1  0  0  0  0
 15 33  1  0  0  0  0
 15 34  1  0  0  0  0
 16 24  1  0  0  0  0
 17 35  1  0  0  0  0
 18 20  1  0  0  0  0
 18 36  1  0  0  0  0
 18 37  1  0  0  0  0
 19 22  1  0  0  0  0
 19 25  1  0  0  0  0
 19 26  1  0  0  0  0
 20 38  1  0  0  0  0
 20 39  1  0  0  0  0
 21 22  1  0  0  0  0
 21 40  1  0  0  0  0
 21 41  1  0  0  0  0
 22 42  1  0  0  0  0
 23 43  1  0  0  0  0
 23 44  1  0  0  0  0
 23 45  1  0  0  0  0
 24 46  1  0  0  0  0
 24 47  1  0  0  0  0
 24 48  1  0  0  0  0
 25 49  1  0  0  0  0
 25 50  1  0  0  0  0
 25 51  1  0  0  0  0
 26 52  1  0  0  0  0
 26 53  1  0  0  0  0
 26 54  1  0  0  0  0
M  END
>  <PUBCHEM_COMPOUND_CID>
3511

>  <PUBCHEM_COMPOUND_CANONICALIZED>
1

>  <PUBCHEM_CACTVS_COMPLEXITY>
623

>  <PUBCHEM_CACTVS_HBOND_ACCEPTOR>
6

>  <PUBCHEM_CACTVS_HBOND_DONOR>
6

>  <PUBCHEM_CACTVS_ROTATABLE_BOND>
0

>  <PUBCHEM_CACTVS_SUBSKEYS>
AAADcfB4OAAAAAAAAAAAAAAAAAAAAYMAAAAwAAAABgwAAADAAAAAGgAACAAAD1SggAICAAAAAgAAAAAAAAAAAAAAAAAAAAAAAAABEAIAAAAAQAAFAAABAAHA4PQPgAAAAAAAAACAAAYAADAAAYQADAAAAA==

>  <PUBCHEM_IUPAC_INCHI>
InChI=1S/C20H34O6/c1-16(2)13(21)7-12-18(4,25)11-6-5-10-15(23)19(11,9-17(10,3)24)8-14(22)20(12,16)26/h10-15,21-26H,5-9H2,1-4H3

>  <PUBCHEM_IUPAC_INCHIKEY>
BWMFRQKICHXLSH-UHFFFAOYSA-N

>  <PUBCHEM_XLOGP3>
0.3

>  <PUBCHEM_EXACT_MASS>
370.236

>  <PUBCHEM_MOLECULAR_FORMULA>
C20H34O6

>  <PUBCHEM_MOLECULAR_WEIGHT>
370.486

>  <PUBCHEM_OPENEYE_CAN_SMILES>
CC1(C(CC2C1(C(CC34CC(C(C3O)CCC4C2(C)O)(C)O)O)O)O)C

>  <PUBCHEM_OPENEYE_ISO_SMILES>
CC1(C(CC2C1(C(CC34CC(C(C3O)CCC4C2(C)O)(C)O)O)O)O)C

>  <PUBCHEM_CACTVS_TPSA>
121

>  <PUBCHEM_MONOISOTOPIC_WEIGHT>
370.236

>  <PUBCHEM_TOTAL_CHARGE>
0

>  <PUBCHEM_HEAVY_ATOM_COUNT>
26

>  <PUBCHEM_ATOM_DEF_STEREO_COUNT>
0

>  <PUBCHEM_ATOM_UDEF_STEREO_COUNT>
10

>  <PUBCHEM_BOND_DEF_STEREO_COUNT>
0

>  <PUBCHEM_BOND_UDEF_STEREO_COUNT>
0

>  <PUBCHEM_ISOTOPIC_ATOM_COUNT>
0

>  <PUBCHEM_COMPONENT_COUNT>
1

>  <PUBCHEM_CACTVS_TAUTO_COUNT>
1

>  <PUBCHEM_COORDINATE_TYPE>
1
5
255

>  <PUBCHEM_BONDANNOTATIONS>
9  1  3
10  21  3
13  20  3
11  2  3
12  3  3
16  4  3
17  5  3
22  6  3
7  15  3
8  18  3

$$$$
