354368
 OpenBabel06101807152D

 34 36  0  0  0  0  0  0  0  0999 V2000
    6.3981   -1.7327    0.0000 O   0  0  0  0  0  0  0  0  0  0  0  0
    6.3981    1.2673    0.0000 O   0  0  0  0  0  0  0  0  0  0  0  0
    2.8680   -1.7568    0.0000 O   0  0  0  0  0  0  0  0  0  0  0  0
    7.2641   -0.2327    0.0000 C   0  0  0  0  0  0  0  0  0  0  0  0
    5.5320   -0.2327    0.0000 C   0  0  0  0  0  0  0  0  0  0  0  0
    5.5320   -1.2327    0.0000 C   0  0  0  0  0  0  0  0  0  0  0  0
    6.3981    0.2673    0.0000 C   0  0  0  0  0  0  0  0  0  0  0  0
    7.2641   -1.2327    0.0000 C   0  0  0  0  0  0  0  0  0  0  0  0
    8.1301    0.2673    0.0000 C   0  0  0  0  0  0  0  0  0  0  0  0
    4.6381    0.3020    0.0000 C   0  0  0  0  0  0  0  0  0  0  0  0
    4.6381   -1.7673    0.0000 C   0  0  0  0  0  0  0  0  0  0  0  0
    3.7320   -1.2535    0.0000 C   0  0  0  0  0  0  0  0  0  0  0  0
    8.1301   -1.7327    0.0000 C   0  0  0  0  0  0  0  0  0  0  0  0
    3.7320   -0.2119    0.0000 C   0  0  0  0  0  0  0  0  0  0  0  0
    8.9962   -0.2327    0.0000 C   0  0  0  0  0  0  0  0  0  0  0  0
    8.1301    1.2673    0.0000 C   0  0  0  0  0  0  0  0  0  0  0  0
    9.8622    0.2673    0.0000 C   0  0  0  0  0  0  0  0  0  0  0  0
    8.9962    1.7673    0.0000 C   0  0  0  0  0  0  0  0  0  0  0  0
    9.8622    1.2673    0.0000 C   0  0  0  0  0  0  0  0  0  0  0  0
    2.0000   -1.2602    0.0000 C   0  0  0  0  0  0  0  0  0  0  0  0
    4.6453    0.9220    0.0000 H   0  0  0  0  0  0  0  0  0  0  0  0
    4.6453   -2.3873    0.0000 H   0  0  0  0  0  0  0  0  0  0  0  0
    7.8201   -2.2696    0.0000 H   0  0  0  0  0  0  0  0  0  0  0  0
    8.6671   -2.0427    0.0000 H   0  0  0  0  0  0  0  0  0  0  0  0
    8.4401   -1.1957    0.0000 H   0  0  0  0  0  0  0  0  0  0  0  0
    3.1963    0.1002    0.0000 H   0  0  0  0  0  0  0  0  0  0  0  0
    8.9962   -0.8527    0.0000 H   0  0  0  0  0  0  0  0  0  0  0  0
    7.5932    1.5773    0.0000 H   0  0  0  0  0  0  0  0  0  0  0  0
   10.3991   -0.0427    0.0000 H   0  0  0  0  0  0  0  0  0  0  0  0
    8.9962    2.3873    0.0000 H   0  0  0  0  0  0  0  0  0  0  0  0
   10.3991    1.5773    0.0000 H   0  0  0  0  0  0  0  0  0  0  0  0
    2.3079   -0.7220    0.0000 H   0  0  0  0  0  0  0  0  0  0  0  0
    1.4619   -0.9522    0.0000 H   0  0  0  0  0  0  0  0  0  0  0  0
    1.6921   -1.7983    0.0000 H   0  0  0  0  0  0  0  0  0  0  0  0
  1  6  1  0  0  0  0
  1  8  1  0  0  0  0
  2  7  2  0  0  0  0
  3 12  1  0  0  0  0
  3 20  1  0  0  0  0
  4  7  1  0  0  0  0
  4  8  2  0  0  0  0
  4  9  1  0  0  0  0
  5  6  2  0  0  0  0
  5  7  1  0  0  0  0
  5 10  1  0  0  0  0
  6 11  1  0  0  0  0
  8 13  1  0  0  0  0
  9 15  2  0  0  0  0
  9 16  1  0  0  0  0
 10 14  2  0  0  0  0
 10 21  1  0  0  0  0
 11 12  2  0  0  0  0
 11 22  1  0  0  0  0
 12 14  1  0  0  0  0
 13 23  1  0  0  0  0
 13 24  1  0  0  0  0
 13 25  1  0  0  0  0
 14 26  1  0  0  0  0
 15 17  1  0  0  0  0
 15 27  1  0  0  0  0
 16 18  2  0  0  0  0
 16 28  1  0  0  0  0
 17 19  2  0  0  0  0
 17 29  1  0  0  0  0
 18 19  1  0  0  0  0
 18 30  1  0  0  0  0
 19 31  1  0  0  0  0
 20 32  1  0  0  0  0
 20 33  1  0  0  0  0
 20 34  1  0  0  0  0
M  END
>  <PUBCHEM_COMPOUND_CID>
354368

>  <PUBCHEM_COMPOUND_CANONICALIZED>
1

>  <PUBCHEM_CACTVS_COMPLEXITY>
407

>  <PUBCHEM_CACTVS_HBOND_ACCEPTOR>
3

>  <PUBCHEM_CACTVS_HBOND_DONOR>
0

>  <PUBCHEM_CACTVS_ROTATABLE_BOND>
2

>  <PUBCHEM_CACTVS_SUBSKEYS>
AAADccB4MAAAAAAAAAAAAAAAAAAAAAAAAAAwYIAAAAAAAACBQAAAGgAAAAAADASAmAIyBoAABACIAqBSAAACCAAkIAAIiAEGCMgMJzaENRqCOWCl4BUIqYeI7PzOIAAACAAIAABAAAAQABAAAAAAAAAAAA==

>  <PUBCHEM_IUPAC_OPENEYE_NAME>
7-methoxy-2-methyl-3-phenyl-chromen-4-one

>  <PUBCHEM_IUPAC_CAS_NAME>
7-methoxy-2-methyl-3-phenyl-1-benzopyran-4-one

>  <PUBCHEM_IUPAC_NAME>
7-methoxy-2-methyl-3-phenylchromen-4-one

>  <PUBCHEM_IUPAC_SYSTEMATIC_NAME>
7-methoxy-2-methyl-3-phenyl-chromen-4-one

>  <PUBCHEM_IUPAC_TRADITIONAL_NAME>
7-methoxy-2-methyl-3-phenyl-chromone

>  <PUBCHEM_IUPAC_INCHI>
InChI=1S/C17H14O3/c1-11-16(12-6-4-3-5-7-12)17(18)14-9-8-13(19-2)10-15(14)20-11/h3-10H,1-2H3

>  <PUBCHEM_IUPAC_INCHIKEY>
XRGWZIGGCNSFRY-UHFFFAOYSA-N

>  <PUBCHEM_XLOGP3>
3.4

>  <PUBCHEM_EXACT_MASS>
266.094

>  <PUBCHEM_MOLECULAR_FORMULA>
C17H14O3

>  <PUBCHEM_MOLECULAR_WEIGHT>
266.296

>  <PUBCHEM_OPENEYE_CAN_SMILES>
CC1=C(C(=O)C2=C(O1)C=C(C=C2)OC)C3=CC=CC=C3

>  <PUBCHEM_OPENEYE_ISO_SMILES>
CC1=C(C(=O)C2=C(O1)C=C(C=C2)OC)C3=CC=CC=C3

>  <PUBCHEM_CACTVS_TPSA>
35.5

>  <PUBCHEM_MONOISOTOPIC_WEIGHT>
266.094

>  <PUBCHEM_TOTAL_CHARGE>
0

>  <PUBCHEM_HEAVY_ATOM_COUNT>
20

>  <PUBCHEM_ATOM_DEF_STEREO_COUNT>
0

>  <PUBCHEM_ATOM_UDEF_STEREO_COUNT>
0

>  <PUBCHEM_BOND_DEF_STEREO_COUNT>
0

>  <PUBCHEM_BOND_UDEF_STEREO_COUNT>
0

>  <PUBCHEM_ISOTOPIC_ATOM_COUNT>
0

>  <PUBCHEM_COMPONENT_COUNT>
1

>  <PUBCHEM_CACTVS_TAUTO_COUNT>
3

>  <PUBCHEM_COORDINATE_TYPE>
1
5
255

>  <PUBCHEM_BONDANNOTATIONS>
1  6  8
1  8  8
10  14  8
11  12  8
12  14  8
15  17  8
16  18  8
17  19  8
18  19  8
4  7  8
4  8  8
5  10  8
5  6  8
5  7  8
6  11  8
9  15  8
9  16  8

$$$$
