35627
 OpenBabel06101807152D

 20 21  0  0  0  0  0  0  0  0999 V2000
    4.5981    1.0000    0.0000 Cl  0  0  0  0  0  0  0  0  0  0  0  0
    4.5981   -3.0000    0.0000 Cl  0  0  0  0  0  0  0  0  0  0  0  0
    6.3301   -0.0000    0.0000 Cl  0  0  0  0  0  0  0  0  0  0  0  0
    2.8660    0.0000    0.0000 O   0  0  0  0  0  0  0  0  0  0  0  0
    4.5981   -0.0000    0.0000 N   0  0  0  0  0  0  0  0  0  0  0  0
    3.7320   -1.5000    0.0000 N   0  0  0  0  0  0  0  0  0  0  0  0
    5.4641   -1.5000    0.0000 N   0  0  0  0  0  0  0  0  0  0  0  0
    2.8660    1.0000    0.0000 C   0  0  0  0  0  0  0  0  0  0  0  0
    3.7320    1.5000    0.0000 C   0  0  0  0  0  0  0  0  0  0  0  0
    2.0000    1.5000    0.0000 C   0  0  0  0  0  0  0  0  0  0  0  0
    3.7320    2.5000    0.0000 C   0  0  0  0  0  0  0  0  0  0  0  0
    2.0000    2.5000    0.0000 C   0  0  0  0  0  0  0  0  0  0  0  0
    2.8660    3.0000    0.0000 C   0  0  0  0  0  0  0  0  0  0  0  0
    3.7320   -0.5000    0.0000 C   0  0  0  0  0  0  0  0  0  0  0  0
    4.5981   -2.0000    0.0000 C   0  0  0  0  0  0  0  0  0  0  0  0
    5.4641   -0.5000    0.0000 C   0  0  0  0  0  0  0  0  0  0  0  0
    1.4631    1.1900    0.0000 H   0  0  0  0  0  0  0  0  0  0  0  0
    4.2690    2.8100    0.0000 H   0  0  0  0  0  0  0  0  0  0  0  0
    1.4631    2.8100    0.0000 H   0  0  0  0  0  0  0  0  0  0  0  0
    2.8660    3.6200    0.0000 H   0  0  0  0  0  0  0  0  0  0  0  0
  1  9  1  0  0  0  0
  2 15  1  0  0  0  0
  3 16  1  0  0  0  0
  4  8  1  0  0  0  0
  4 14  1  0  0  0  0
  5 14  2  0  0  0  0
  5 16  1  0  0  0  0
  6 14  1  0  0  0  0
  6 15  2  0  0  0  0
  7 15  1  0  0  0  0
  7 16  2  0  0  0  0
  8  9  1  0  0  0  0
  8 10  2  0  0  0  0
  9 11  2  0  0  0  0
 10 12  1  0  0  0  0
 10 17  1  0  0  0  0
 11 13  1  0  0  0  0
 11 18  1  0  0  0  0
 12 13  2  0  0  0  0
 12 19  1  0  0  0  0
 13 20  1  0  0  0  0
M  END
>  <PUBCHEM_COMPOUND_CID>
35627

>  <PUBCHEM_COMPOUND_CANONICALIZED>
1

>  <PUBCHEM_CACTVS_COMPLEXITY>
224

>  <PUBCHEM_CACTVS_HBOND_ACCEPTOR>
4

>  <PUBCHEM_CACTVS_HBOND_DONOR>
0

>  <PUBCHEM_CACTVS_ROTATABLE_BOND>
2

>  <PUBCHEM_CACTVS_SUBSKEYS>
AAADcYBzIAAGAAAAAAAAAAAAAAAAAAAAAAA8QAAAAAAAAAABwAAAHgIAAAAACAaAkCAxFoYIFACgACBCJAACCAkgJcAJiAAGC4iMLiOFMxqIMCAswBEIqAeAQAAAAAAAAAAACAAAAAAAAAAQAAAAAAAAAA==

>  <PUBCHEM_IUPAC_OPENEYE_NAME>
2,4-dichloro-6-(2-chlorophenoxy)-1,3,5-triazine

>  <PUBCHEM_IUPAC_CAS_NAME>
2,4-dichloro-6-(2-chlorophenoxy)-1,3,5-triazine

>  <PUBCHEM_IUPAC_NAME>
2,4-dichloro-6-(2-chlorophenoxy)-1,3,5-triazine

>  <PUBCHEM_IUPAC_SYSTEMATIC_NAME>
2,4-bis(chloranyl)-6-(2-chloranylphenoxy)-1,3,5-triazine

>  <PUBCHEM_IUPAC_TRADITIONAL_NAME>
2,4-dichloro-6-(2-chlorophenoxy)-s-triazine

>  <PUBCHEM_IUPAC_INCHI>
InChI=1S/C9H4Cl3N3O/c10-5-3-1-2-4-6(5)16-9-14-7(11)13-8(12)15-9/h1-4H

>  <PUBCHEM_IUPAC_INCHIKEY>
PJFPTKBWLCIUQU-UHFFFAOYSA-N

>  <PUBCHEM_XLOGP3_AA>
4.4

>  <PUBCHEM_EXACT_MASS>
274.942

>  <PUBCHEM_MOLECULAR_FORMULA>
C9H4Cl3N3O

>  <PUBCHEM_MOLECULAR_WEIGHT>
276.501

>  <PUBCHEM_OPENEYE_CAN_SMILES>
C1=CC=C(C(=C1)OC2=NC(=NC(=N2)Cl)Cl)Cl

>  <PUBCHEM_OPENEYE_ISO_SMILES>
C1=CC=C(C(=C1)OC2=NC(=NC(=N2)Cl)Cl)Cl

>  <PUBCHEM_CACTVS_TPSA>
47.9

>  <PUBCHEM_MONOISOTOPIC_WEIGHT>
274.942

>  <PUBCHEM_TOTAL_CHARGE>
0

>  <PUBCHEM_HEAVY_ATOM_COUNT>
16

>  <PUBCHEM_ATOM_DEF_STEREO_COUNT>
0

>  <PUBCHEM_ATOM_UDEF_STEREO_COUNT>
0

>  <PUBCHEM_BOND_DEF_STEREO_COUNT>
0

>  <PUBCHEM_BOND_UDEF_STEREO_COUNT>
0

>  <PUBCHEM_ISOTOPIC_ATOM_COUNT>
0

>  <PUBCHEM_COMPONENT_COUNT>
1

>  <PUBCHEM_CACTVS_TAUTO_COUNT>
1

>  <PUBCHEM_COORDINATE_TYPE>
1
5
255

>  <PUBCHEM_BONDANNOTATIONS>
10  12  8
11  13  8
12  13  8
5  14  8
5  16  8
6  14  8
6  15  8
7  15  8
7  16  8
8  10  8
8  9  8
9  11  8

$$$$
