358022
 OpenBabel06101807152D

 37 40  0  0  1  0  0  0  0  0999 V2000
    7.7011    0.1685    0.0000 O   0  0  0  0  0  0  0  0  0  0  0  0
    6.6281    2.4163    0.0000 O   0  0  0  0  0  0  0  0  0  0  0  0
    6.5535   -0.0798    0.0000 O   0  0  0  0  0  0  0  0  0  0  0  0
    5.8612   -0.0551    0.0000 O   0  0  0  0  0  0  0  0  0  0  0  0
    9.0300    2.3785    0.0000 O   0  0  0  0  0  0  0  0  0  0  0  0
    4.8484    2.3261    0.0000 O   0  0  0  0  0  0  0  0  0  0  0  0
    4.6783   -1.8269    0.0000 N   0  0  0  0  0  0  0  0  0  0  0  0
    6.9618    0.8330    0.0000 C   0  0  3  0  0  0  0  0  0  0  0  0
    7.3701    1.7458    0.0000 C   0  0  3  0  0  0  0  0  0  0  0  0
    5.9674    0.9393    0.0000 C   0  0  3  0  0  0  0  0  0  0  0  0
    8.3583    1.6377    0.0000 C   0  0  3  0  0  0  0  0  0  0  0  0
    4.9889    0.7330    0.0000 C   0  0  0  0  0  0  0  0  0  0  0  0
    8.5624    0.6648    0.0000 C   0  0  0  0  0  0  0  0  0  0  0  0
    5.7612    1.9178    0.0000 C   0  0  0  0  0  0  0  0  0  0  0  0
    4.6783   -0.2175    0.0000 C   0  0  0  0  0  0  0  0  0  0  0  0
    3.7320   -0.5222    0.0000 C   0  0  0  0  0  0  0  0  0  0  0  0
    5.2619   -1.0222    0.0000 C   0  0  0  0  0  0  0  0  0  0  0  0
    3.7320   -1.5222    0.0000 C   0  0  0  0  0  0  0  0  0  0  0  0
    2.8660   -0.0222    0.0000 C   0  0  0  0  0  0  0  0  0  0  0  0
    2.8660   -2.0222    0.0000 C   0  0  0  0  0  0  0  0  0  0  0  0
    2.0000   -0.5222    0.0000 C   0  0  0  0  0  0  0  0  0  0  0  0
    2.0000   -1.5222    0.0000 C   0  0  0  0  0  0  0  0  0  0  0  0
    7.6240    2.3115    0.0000 H   0  0  0  0  0  0  0  0  0  0  0  0
    8.1383    2.2174    0.0000 H   0  0  0  0  0  0  0  0  0  0  0  0
    4.9684    1.3527    0.0000 H   0  0  0  0  0  0  0  0  0  0  0  0
    4.3751    0.8204    0.0000 H   0  0  0  0  0  0  0  0  0  0  0  0
    8.8138    0.0980    0.0000 H   0  0  0  0  0  0  0  0  0  0  0  0
    9.1525    0.8552    0.0000 H   0  0  0  0  0  0  0  0  0  0  0  0
    6.9170   -0.5820    0.0000 H   0  0  0  0  0  0  0  0  0  0  0  0
    5.2944   -0.3063    0.0000 H   0  0  0  0  0  0  0  0  0  0  0  0
    9.6360    2.2475    0.0000 H   0  0  0  0  0  0  0  0  0  0  0  0
    5.8819   -1.0222    0.0000 H   0  0  0  0  0  0  0  0  0  0  0  0
    4.8709   -2.4163    0.0000 H   0  0  0  0  0  0  0  0  0  0  0  0
    2.8660    0.5978    0.0000 H   0  0  0  0  0  0  0  0  0  0  0  0
    2.8660   -2.6422    0.0000 H   0  0  0  0  0  0  0  0  0  0  0  0
    1.4631   -0.2122    0.0000 H   0  0  0  0  0  0  0  0  0  0  0  0
    1.4631   -1.8322    0.0000 H   0  0  0  0  0  0  0  0  0  0  0  0
  1  8  1  0  0  0  0
  1 13  1  0  0  0  0
  2  9  1  0  0  0  0
  2 14  1  0  0  0  0
  3  8  1  0  0  0  0
  3 29  1  0  0  0  0
  4 10  1  0  0  0  0
  4 30  1  0  0  0  0
  5 11  1  0  0  0  0
  5 31  1  0  0  0  0
  6 14  2  0  0  0  0
  7 17  1  0  0  0  0
  7 18  1  0  0  0  0
  7 33  1  0  0  0  0
  8  9  1  0  0  0  0
  8 10  1  0  0  0  0
  9 11  1  0  0  0  0
  9 23  1  0  0  0  0
 10 12  1  0  0  0  0
 10 14  1  0  0  0  0
 11 13  1  0  0  0  0
 11 24  1  0  0  0  0
 12 15  1  0  0  0  0
 12 25  1  0  0  0  0
 12 26  1  0  0  0  0
 13 27  1  0  0  0  0
 13 28  1  0  0  0  0
 15 16  1  0  0  0  0
 15 17  2  0  0  0  0
 16 18  1  0  0  0  0
 16 19  2  0  0  0  0
 17 32  1  0  0  0  0
 18 20  2  0  0  0  0
 19 21  1  0  0  0  0
 19 34  1  0  0  0  0
 20 22  1  0  0  0  0
 20 35  1  0  0  0  0
 21 22  2  0  0  0  0
 21 36  1  0  0  0  0
 22 37  1  0  0  0  0
M  END
>  <PUBCHEM_COMPOUND_CID>
358022

>  <PUBCHEM_COMPOUND_CANONICALIZED>
1

>  <PUBCHEM_CACTVS_COMPLEXITY>
487

>  <PUBCHEM_CACTVS_HBOND_ACCEPTOR>
6

>  <PUBCHEM_CACTVS_HBOND_DONOR>
4

>  <PUBCHEM_CACTVS_ROTATABLE_BOND>
2

>  <PUBCHEM_CACTVS_SUBSKEYS>
AAADccByOAAAAAAAAAAAAAAAAAAAAWJEgAAwAAAAAAASAFgB8AAAHgAQCAAADFzhngY8yPLJlgCoAzT3TAKCgCAxAiAI2aF4ZJgZMPbAkZGGYAhl8AHPyAf6/ffOgAAAAAACAAAAAAAAAAQAAAAAAAAAAA==

>  <PUBCHEM_IUPAC_OPENEYE_NAME>
3,6,6a-trihydroxy-6-(1H-indol-3-ylmethyl)-3,3a-dihydro-2H-furo[3,2-b]furan-5-one

>  <PUBCHEM_IUPAC_CAS_NAME>
3,6,6a-trihydroxy-6-(1H-indol-3-ylmethyl)-3,3a-dihydro-2H-furo[3,2-b]furan-5-one

>  <PUBCHEM_IUPAC_NAME>
3,6,6a-trihydroxy-6-(1H-indol-3-ylmethyl)-3,3a-dihydro-2H-furo[3,2-b]furan-5-one

>  <PUBCHEM_IUPAC_SYSTEMATIC_NAME>
6-(1H-indol-3-ylmethyl)-3,6,6a-tris(oxidanyl)-3,3a-dihydro-2H-furo[3,2-b]furan-5-one

>  <PUBCHEM_IUPAC_TRADITIONAL_NAME>
3,6,6a-trihydroxy-6-(1H-indol-3-ylmethyl)-3,3a-dihydro-2H-furo[3,2-b]furan-5-one

>  <PUBCHEM_IUPAC_INCHI>
InChI=1S/C15H15NO6/c17-11-7-21-15(20)12(11)22-13(18)14(15,19)5-8-6-16-10-4-2-1-3-9(8)10/h1-4,6,11-12,16-17,19-20H,5,7H2

>  <PUBCHEM_IUPAC_INCHIKEY>
OMSJCIOTCFHSIT-UHFFFAOYSA-N

>  <PUBCHEM_XLOGP3_AA>
-0.5

>  <PUBCHEM_EXACT_MASS>
305.09

>  <PUBCHEM_MOLECULAR_FORMULA>
C15H15NO6

>  <PUBCHEM_MOLECULAR_WEIGHT>
305.286

>  <PUBCHEM_OPENEYE_CAN_SMILES>
C1C(C2C(O1)(C(C(=O)O2)(CC3=CNC4=CC=CC=C43)O)O)O

>  <PUBCHEM_OPENEYE_ISO_SMILES>
C1C(C2C(O1)(C(C(=O)O2)(CC3=CNC4=CC=CC=C43)O)O)O

>  <PUBCHEM_CACTVS_TPSA>
112

>  <PUBCHEM_MONOISOTOPIC_WEIGHT>
305.09

>  <PUBCHEM_TOTAL_CHARGE>
0

>  <PUBCHEM_HEAVY_ATOM_COUNT>
22

>  <PUBCHEM_ATOM_DEF_STEREO_COUNT>
0

>  <PUBCHEM_ATOM_UDEF_STEREO_COUNT>
4

>  <PUBCHEM_BOND_DEF_STEREO_COUNT>
0

>  <PUBCHEM_BOND_UDEF_STEREO_COUNT>
0

>  <PUBCHEM_ISOTOPIC_ATOM_COUNT>
0

>  <PUBCHEM_COMPONENT_COUNT>
1

>  <PUBCHEM_CACTVS_TAUTO_COUNT>
1

>  <PUBCHEM_COORDINATE_TYPE>
1
5
255

>  <PUBCHEM_BONDANNOTATIONS>
15  16  8
15  17  8
16  18  8
16  19  8
18  20  8
19  21  8
9  2  3
20  22  8
21  22  8
8  3  3
10  4  3
11  5  3
7  17  8
7  18  8

$$$$
