3646533
 OpenBabel06101807152D

 33 35  0  0  0  0  0  0  0  0999 V2000
    7.1671   -1.7082    0.0000 O   0  0  0  0  0  0  0  0  0  0  0  0
    3.7702   -1.6365    0.0000 O   0  0  0  0  0  0  0  0  0  0  0  0
    5.5301    1.3982    0.0000 O   0  0  0  0  0  0  0  0  0  0  0  0
    3.7817    1.4328    0.0000 O   0  0  0  0  0  0  0  0  0  0  0  0
    6.3961   -0.1018    0.0000 C   0  0  0  0  0  0  0  0  0  0  0  0
    7.1671    0.5045    0.0000 C   0  0  0  0  0  0  0  0  0  0  0  0
    6.3961   -1.1018    0.0000 C   0  0  0  0  0  0  0  0  0  0  0  0
    5.5301    0.3982    0.0000 C   0  0  0  0  0  0  0  0  0  0  0  0
    4.6641   -0.1018    0.0000 C   0  0  0  0  0  0  0  0  0  0  0  0
    4.6641   -1.1018    0.0000 C   0  0  0  0  0  0  0  0  0  0  0  0
    5.5301   -1.6018    0.0000 C   0  0  0  0  0  0  0  0  0  0  0  0
    8.5467   -0.6018    0.0000 C   0  0  0  0  0  0  0  0  0  0  0  0
    8.1224    0.2824    0.0000 C   0  0  0  0  0  0  0  0  0  0  0  0
    8.1224   -1.4861    0.0000 C   0  0  0  0  0  0  0  0  0  0  0  0
    3.7702    0.4328    0.0000 C   0  0  0  0  0  0  0  0  0  0  0  0
    2.8641   -1.1226    0.0000 C   0  0  0  0  0  0  0  0  0  0  0  0
    9.5467   -0.6018    0.0000 C   0  0  0  0  0  0  0  0  0  0  0  0
    2.8641   -0.0810    0.0000 C   0  0  0  0  0  0  0  0  0  0  0  0
    2.0000   -1.6260    0.0000 C   0  0  0  0  0  0  0  0  0  0  0  0
    7.4388    1.0618    0.0000 H   0  0  0  0  0  0  0  0  0  0  0  0
    6.6846    0.8939    0.0000 H   0  0  0  0  0  0  0  0  0  0  0  0
    5.5301   -2.2218    0.0000 H   0  0  0  0  0  0  0  0  0  0  0  0
    8.5102    0.7661    0.0000 H   0  0  0  0  0  0  0  0  0  0  0  0
    8.1243   -2.1061    0.0000 H   0  0  0  0  0  0  0  0  0  0  0  0
    8.7271   -1.6227    0.0000 H   0  0  0  0  0  0  0  0  0  0  0  0
    9.5467   -1.2218    0.0000 H   0  0  0  0  0  0  0  0  0  0  0  0
   10.1667   -0.6018    0.0000 H   0  0  0  0  0  0  0  0  0  0  0  0
    9.5467    0.0182    0.0000 H   0  0  0  0  0  0  0  0  0  0  0  0
    2.3284    0.2311    0.0000 H   0  0  0  0  0  0  0  0  0  0  0  0
    6.0671    1.7082    0.0000 H   0  0  0  0  0  0  0  0  0  0  0  0
    1.6879   -1.0902    0.0000 H   0  0  0  0  0  0  0  0  0  0  0  0
    1.4643   -1.9380    0.0000 H   0  0  0  0  0  0  0  0  0  0  0  0
    2.3121   -2.1617    0.0000 H   0  0  0  0  0  0  0  0  0  0  0  0
  1  7  1  0  0  0  0
  1 14  1  0  0  0  0
  2 10  1  0  0  0  0
  2 16  1  0  0  0  0
  3  8  1  0  0  0  0
  3 30  1  0  0  0  0
  4 15  2  0  0  0  0
  5  6  1  0  0  0  0
  5  7  2  0  0  0  0
  5  8  1  0  0  0  0
  6 13  1  0  0  0  0
  6 20  1  0  0  0  0
  6 21  1  0  0  0  0
  7 11  1  0  0  0  0
  8  9  2  0  0  0  0
  9 10  1  0  0  0  0
  9 15  1  0  0  0  0
 10 11  2  0  0  0  0
 11 22  1  0  0  0  0
 12 13  2  0  0  0  0
 12 14  1  0  0  0  0
 12 17  1  0  0  0  0
 13 23  1  0  0  0  0
 14 24  1  0  0  0  0
 14 25  1  0  0  0  0
 15 18  1  0  0  0  0
 16 18  2  0  0  0  0
 16 19  1  0  0  0  0
 17 26  1  0  0  0  0
 17 27  1  0  0  0  0
 17 28  1  0  0  0  0
 18 29  1  0  0  0  0
 19 31  1  0  0  0  0
 19 32  1  0  0  0  0
 19 33  1  0  0  0  0
M  END
>  <PUBCHEM_COMPOUND_CID>
3646533

>  <PUBCHEM_COMPOUND_CANONICALIZED>
1

>  <PUBCHEM_CACTVS_COMPLEXITY>
451

>  <PUBCHEM_CACTVS_HBOND_ACCEPTOR>
4

>  <PUBCHEM_CACTVS_HBOND_DONOR>
1

>  <PUBCHEM_CACTVS_ROTATABLE_BOND>
0

>  <PUBCHEM_CACTVS_SUBSKEYS>
AAADccBwOAAAAAAAAAAAAAAAAAAAAAAAAAAwQAAABAAAAACBAAAAGgAACAAADASgmAIyBoAABgCIAqBSAAACCAAkIAAAiAEGCMgMJzaGNRqCeWCl4BUIuQeI7OzOIAACCAAIAABAAAQQABAAAAAAAAAAAA==

>  <PUBCHEM_IUPAC_OPENEYE_NAME>
5-hydroxy-2,8-dimethyl-6,9-dihydropyrano[3,2-h][1]benzoxepin-4-one

>  <PUBCHEM_IUPAC_CAS_NAME>
5-hydroxy-2,8-dimethyl-6,9-dihydropyrano[3,2-h][1]benzoxepin-4-one

>  <PUBCHEM_IUPAC_NAME>
5-hydroxy-2,8-dimethyl-6,9-dihydropyrano[3,2-h][1]benzoxepin-4-one

>  <PUBCHEM_IUPAC_SYSTEMATIC_NAME>
2,8-dimethyl-5-oxidanyl-6,9-dihydropyrano[3,2-h][1]benzoxepin-4-one

>  <PUBCHEM_IUPAC_TRADITIONAL_NAME>
5-hydroxy-2,8-dimethyl-6,9-dihydropyrano[3,2-h][1]benzoxepin-4-one

>  <PUBCHEM_IUPAC_INCHI>
InChI=1S/C15H14O4/c1-8-3-4-10-12(18-7-8)6-13-14(15(10)17)11(16)5-9(2)19-13/h3,5-6,17H,4,7H2,1-2H3

>  <PUBCHEM_IUPAC_INCHIKEY>
IUIHYYSAVUBPQO-UHFFFAOYSA-N

>  <PUBCHEM_XLOGP3_AA>
2.7

>  <PUBCHEM_EXACT_MASS>
258.089

>  <PUBCHEM_MOLECULAR_FORMULA>
C15H14O4

>  <PUBCHEM_MOLECULAR_WEIGHT>
258.273

>  <PUBCHEM_OPENEYE_CAN_SMILES>
CC1=CCC2=C(C=C3C(=C2O)C(=O)C=C(O3)C)OC1

>  <PUBCHEM_OPENEYE_ISO_SMILES>
CC1=CCC2=C(C=C3C(=C2O)C(=O)C=C(O3)C)OC1

>  <PUBCHEM_CACTVS_TPSA>
55.8

>  <PUBCHEM_MONOISOTOPIC_WEIGHT>
258.089

>  <PUBCHEM_TOTAL_CHARGE>
0

>  <PUBCHEM_HEAVY_ATOM_COUNT>
19

>  <PUBCHEM_ATOM_DEF_STEREO_COUNT>
0

>  <PUBCHEM_ATOM_UDEF_STEREO_COUNT>
0

>  <PUBCHEM_BOND_DEF_STEREO_COUNT>
0

>  <PUBCHEM_BOND_UDEF_STEREO_COUNT>
0

>  <PUBCHEM_ISOTOPIC_ATOM_COUNT>
0

>  <PUBCHEM_COMPONENT_COUNT>
1

>  <PUBCHEM_CACTVS_TAUTO_COUNT>
14

>  <PUBCHEM_COORDINATE_TYPE>
1
5
255

>  <PUBCHEM_BONDANNOTATIONS>
10  11  8
15  18  8
16  18  8
2  10  8
2  16  8
5  7  8
5  8  8
7  11  8
8  9  8
9  10  8
9  15  8

$$$$
