366721
 OpenBabel06101807152D

 35 37  0  0  1  0  0  0  0  0999 V2000
    3.7320   -3.2766    0.0000 Cl  0  0  0  0  0  0  0  0  0  0  0  0
    2.0000   -0.2766    0.0000 Cl  0  0  0  0  0  0  0  0  0  0  0  0
    5.2369    0.4797    0.0000 O   0  0  0  0  0  0  0  0  0  0  0  0
    7.1279   -1.2766    0.0000 O   0  0  0  0  0  0  0  0  0  0  0  0
    5.3387    1.5175    0.0000 O   0  0  0  0  0  0  0  0  0  0  0  0
   10.5073    2.0517    0.0000 O   0  5  0  0  0  0  0  0  0  0  0  0
    9.8001    0.4706    0.0000 O   0  0  0  0  0  0  0  0  0  0  0  0
    5.5443   -2.0814    0.0000 N   0  0  0  0  0  0  0  0  0  0  0  0
    9.6973    1.4653    0.0000 N   0  3  0  0  0  0  0  0  0  0  0  0
    5.5443   -0.4719    0.0000 C   0  0  3  0  0  0  0  0  0  0  0  0
    4.5981   -0.7766    0.0000 C   0  0  0  0  0  0  0  0  0  0  0  0
    6.3543    0.1145    0.0000 C   0  0  0  0  0  0  0  0  0  0  0  0
    4.5981   -1.7766    0.0000 C   0  0  0  0  0  0  0  0  0  0  0  0
    6.1279   -1.2766    0.0000 C   0  0  0  0  0  0  0  0  0  0  0  0
    3.7320   -0.2766    0.0000 C   0  0  0  0  0  0  0  0  0  0  0  0
    6.2515    1.1092    0.0000 C   0  0  0  0  0  0  0  0  0  0  0  0
    3.7320   -2.2766    0.0000 C   0  0  0  0  0  0  0  0  0  0  0  0
    2.8660   -0.7766    0.0000 C   0  0  0  0  0  0  0  0  0  0  0  0
    7.0616    1.6956    0.0000 C   0  0  0  0  0  0  0  0  0  0  0  0
    2.8660   -1.7766    0.0000 C   0  0  0  0  0  0  0  0  0  0  0  0
    7.9744    1.2872    0.0000 C   0  0  0  0  0  0  0  0  0  0  0  0
    6.9588    2.6903    0.0000 C   0  0  0  0  0  0  0  0  0  0  0  0
    8.7844    1.8736    0.0000 C   0  0  0  0  0  0  0  0  0  0  0  0
    7.7688    3.2766    0.0000 C   0  0  0  0  0  0  0  0  0  0  0  0
    8.6816    2.8683    0.0000 C   0  0  0  0  0  0  0  0  0  0  0  0
    6.6252   -0.4432    0.0000 H   0  0  0  0  0  0  0  0  0  0  0  0
    6.9506    0.2843    0.0000 H   0  0  0  0  0  0  0  0  0  0  0  0
    5.7369   -2.6707    0.0000 H   0  0  0  0  0  0  0  0  0  0  0  0
    3.7320    0.3434    0.0000 H   0  0  0  0  0  0  0  0  0  0  0  0
    4.6307    0.6096    0.0000 H   0  0  0  0  0  0  0  0  0  0  0  0
    2.3291   -2.0866    0.0000 H   0  0  0  0  0  0  0  0  0  0  0  0
    8.0381    0.6705    0.0000 H   0  0  0  0  0  0  0  0  0  0  0  0
    6.3928    2.9434    0.0000 H   0  0  0  0  0  0  0  0  0  0  0  0
    7.7050    3.8934    0.0000 H   0  0  0  0  0  0  0  0  0  0  0  0
    9.1838    3.2319    0.0000 H   0  0  0  0  0  0  0  0  0  0  0  0
  1 17  1  0  0  0  0
  2 18  1  0  0  0  0
  3 10  1  0  0  0  0
  3 30  1  0  0  0  0
  4 14  2  0  0  0  0
  5 16  2  0  0  0  0
  6  9  1  0  0  0  0
  7  9  2  0  0  0  0
  8 13  1  0  0  0  0
  8 14  1  0  0  0  0
  8 28  1  0  0  0  0
  9 23  1  0  0  0  0
 10 11  1  0  0  0  0
 10 12  1  0  0  0  0
 10 14  1  0  0  0  0
 11 13  1  0  0  0  0
 11 15  2  0  0  0  0
 12 16  1  0  0  0  0
 12 26  1  0  0  0  0
 12 27  1  0  0  0  0
 13 17  2  0  0  0  0
 15 18  1  0  0  0  0
 15 29  1  0  0  0  0
 16 19  1  0  0  0  0
 17 20  1  0  0  0  0
 18 20  2  0  0  0  0
 19 21  2  0  0  0  0
 19 22  1  0  0  0  0
 20 31  1  0  0  0  0
 21 23  1  0  0  0  0
 21 32  1  0  0  0  0
 22 24  2  0  0  0  0
 22 33  1  0  0  0  0
 23 25  2  0  0  0  0
 24 25  1  0  0  0  0
 24 34  1  0  0  0  0
 25 35  1  0  0  0  0
M  CHG  2   6  -1   9   1
M  END
>  <PUBCHEM_COMPOUND_CID>
366721

>  <PUBCHEM_COMPOUND_CANONICALIZED>
1

>  <PUBCHEM_CACTVS_COMPLEXITY>
583

>  <PUBCHEM_CACTVS_HBOND_ACCEPTOR>
5

>  <PUBCHEM_CACTVS_HBOND_DONOR>
2

>  <PUBCHEM_CACTVS_ROTATABLE_BOND>
3

>  <PUBCHEM_CACTVS_SUBSKEYS>
AAADccB7OAAGAAAAAAAAAAAAAAAAAWAAAAAwYAAAAAAAAFgBQAAAHgIUCAAADE6BmCAwwILQQgCJAqVSUwKCAAAlBwAoiAFAbsoKJjbBl5HEcQhm5AHY2YedyeCegABAYACCABAAAIDAAQQAIAAAAAAAAA==

>  <PUBCHEM_IUPAC_OPENEYE_NAME>
5,7-dichloro-3-hydroxy-3-[2-(3-nitrophenyl)-2-oxo-ethyl]indolin-2-one

>  <PUBCHEM_IUPAC_CAS_NAME>
5,7-dichloro-3-hydroxy-3-[2-(3-nitrophenyl)-2-oxoethyl]-1H-indol-2-one

>  <PUBCHEM_IUPAC_NAME>
5,7-dichloro-3-hydroxy-3-[2-(3-nitrophenyl)-2-oxoethyl]-1H-indol-2-one

>  <PUBCHEM_IUPAC_SYSTEMATIC_NAME>
5,7-bis(chloranyl)-3-[2-(3-nitrophenyl)-2-oxidanylidene-ethyl]-3-oxidanyl-1H-indol-2-one

>  <PUBCHEM_IUPAC_TRADITIONAL_NAME>
5,7-dichloro-3-hydroxy-3-[2-keto-2-(3-nitrophenyl)ethyl]oxindole

>  <PUBCHEM_IUPAC_INCHI>
InChI=1S/C16H10Cl2N2O5/c17-9-5-11-14(12(18)6-9)19-15(22)16(11,23)7-13(21)8-2-1-3-10(4-8)20(24)25/h1-6,23H,7H2,(H,19,22)

>  <PUBCHEM_IUPAC_INCHIKEY>
CGVKNDAEXKLQAY-UHFFFAOYSA-N

>  <PUBCHEM_XLOGP3_AA>
3

>  <PUBCHEM_EXACT_MASS>
379.997

>  <PUBCHEM_MOLECULAR_FORMULA>
C16H10Cl2N2O5

>  <PUBCHEM_MOLECULAR_WEIGHT>
381.165

>  <PUBCHEM_OPENEYE_CAN_SMILES>
C1=CC(=CC(=C1)[N+](=O)[O-])C(=O)CC2(C3=CC(=CC(=C3NC2=O)Cl)Cl)O

>  <PUBCHEM_OPENEYE_ISO_SMILES>
C1=CC(=CC(=C1)[N+](=O)[O-])C(=O)CC2(C3=CC(=CC(=C3NC2=O)Cl)Cl)O

>  <PUBCHEM_CACTVS_TPSA>
112

>  <PUBCHEM_MONOISOTOPIC_WEIGHT>
379.997

>  <PUBCHEM_TOTAL_CHARGE>
0

>  <PUBCHEM_HEAVY_ATOM_COUNT>
25

>  <PUBCHEM_ATOM_DEF_STEREO_COUNT>
0

>  <PUBCHEM_ATOM_UDEF_STEREO_COUNT>
1

>  <PUBCHEM_BOND_DEF_STEREO_COUNT>
0

>  <PUBCHEM_BOND_UDEF_STEREO_COUNT>
0

>  <PUBCHEM_ISOTOPIC_ATOM_COUNT>
0

>  <PUBCHEM_COMPONENT_COUNT>
1

>  <PUBCHEM_CACTVS_TAUTO_COUNT>
4

>  <PUBCHEM_COORDINATE_TYPE>
1
5
255

>  <PUBCHEM_BONDANNOTATIONS>
10  12  3
11  13  8
11  15  8
13  17  8
15  18  8
17  20  8
18  20  8
19  21  8
19  22  8
21  23  8
22  24  8
23  25  8
24  25  8

$$$$
