370147
 OpenBabel06101807152D

 56 62  0  0  0  0  0  0  0  0999 V2000
    5.2320   -1.8170    0.0000 S   0  0  0  0  0  0  0  0  0  0  0  0
    3.8660    2.5490    0.0000 P   0  0  0  0  0  0  0  0  0  0  0  0
    5.5981    2.5490    0.0000 P   0  0  0  0  0  0  0  0  0  0  0  0
    4.7320    1.0490    0.0000 P   0  0  0  0  0  0  0  0  0  0  0  0
    4.7320   -0.9510    0.0000 P   0  0  0  0  0  0  0  0  0  0  0  0
    4.2320   -1.8170    0.0000 O   0  0  0  0  0  0  0  0  0  0  0  0
    3.3660    3.4151    0.0000 N   0  0  0  0  0  0  0  0  0  0  0  0
    2.8660    2.5490    0.0000 N   0  0  0  0  0  0  0  0  0  0  0  0
    6.0981    3.4151    0.0000 N   0  0  0  0  0  0  0  0  0  0  0  0
    6.5981    2.5490    0.0000 N   0  0  0  0  0  0  0  0  0  0  0  0
    4.7320    3.0490    0.0000 N   0  0  0  0  0  0  0  0  0  0  0  0
    3.8660    1.5490    0.0000 N   0  0  0  0  0  0  0  0  0  0  0  0
    5.5981    1.5490    0.0000 N   0  0  0  0  0  0  0  0  0  0  0  0
    5.5981    0.5490    0.0000 N   0  0  0  0  0  0  0  0  0  0  0  0
    3.8660    0.5490    0.0000 N   0  0  0  0  0  0  0  0  0  0  0  0
    5.5981   -0.4510    0.0000 N   0  0  0  0  0  0  0  0  0  0  0  0
    3.8660   -0.4510    0.0000 N   0  0  0  0  0  0  0  0  0  0  0  0
    2.0000    3.0490    0.0000 C   0  0  0  0  0  0  0  0  0  0  0  0
    3.3660    4.4151    0.0000 C   0  0  0  0  0  0  0  0  0  0  0  0
    2.5000    3.9151    0.0000 C   0  0  0  0  0  0  0  0  0  0  0  0
    2.0000    2.0490    0.0000 C   0  0  0  0  0  0  0  0  0  0  0  0
    7.4641    2.0490    0.0000 C   0  0  0  0  0  0  0  0  0  0  0  0
    7.4641    3.0490    0.0000 C   0  0  0  0  0  0  0  0  0  0  0  0
    6.9641    3.9151    0.0000 C   0  0  0  0  0  0  0  0  0  0  0  0
    6.0981    4.4151    0.0000 C   0  0  0  0  0  0  0  0  0  0  0  0
    4.7320   -2.6830    0.0000 C   0  0  0  0  0  0  0  0  0  0  0  0
    4.2320   -3.5490    0.0000 C   0  0  0  0  0  0  0  0  0  0  0  0
    5.7320   -2.6830    0.0000 C   0  0  0  0  0  0  0  0  0  0  0  0
    4.7320   -4.4151    0.0000 C   0  0  0  0  0  0  0  0  0  0  0  0
    6.2320   -3.5490    0.0000 C   0  0  0  0  0  0  0  0  0  0  0  0
    5.7320   -4.4151    0.0000 C   0  0  0  0  0  0  0  0  0  0  0  0
    3.9766    4.5227    0.0000 H   0  0  0  0  0  0  0  0  0  0  0  0
    3.1540    4.9977    0.0000 H   0  0  0  0  0  0  0  0  0  0  0  0
    2.1015    4.3900    0.0000 H   0  0  0  0  0  0  0  0  0  0  0  0
    2.1015    3.4401    0.0000 H   0  0  0  0  0  0  0  0  0  0  0  0
    1.3894    1.9414    0.0000 H   0  0  0  0  0  0  0  0  0  0  0  0
    2.2120    1.4664    0.0000 H   0  0  0  0  0  0  0  0  0  0  0  0
    2.2120    3.6316    0.0000 H   0  0  0  0  0  0  0  0  0  0  0  0
    1.3894    3.1567    0.0000 H   0  0  0  0  0  0  0  0  0  0  0  0
    6.3101    4.9977    0.0000 H   0  0  0  0  0  0  0  0  0  0  0  0
    5.4875    4.5227    0.0000 H   0  0  0  0  0  0  0  0  0  0  0  0
    7.3626    3.4401    0.0000 H   0  0  0  0  0  0  0  0  0  0  0  0
    7.3626    4.3900    0.0000 H   0  0  0  0  0  0  0  0  0  0  0  0
    8.0747    3.1567    0.0000 H   0  0  0  0  0  0  0  0  0  0  0  0
    7.2520    3.6316    0.0000 H   0  0  0  0  0  0  0  0  0  0  0  0
    7.2520    1.4664    0.0000 H   0  0  0  0  0  0  0  0  0  0  0  0
    8.0747    1.9414    0.0000 H   0  0  0  0  0  0  0  0  0  0  0  0
    3.3291    0.8590    0.0000 H   0  0  0  0  0  0  0  0  0  0  0  0
    6.1350    0.8590    0.0000 H   0  0  0  0  0  0  0  0  0  0  0  0
    3.3291   -0.7610    0.0000 H   0  0  0  0  0  0  0  0  0  0  0  0
    6.1350   -0.7610    0.0000 H   0  0  0  0  0  0  0  0  0  0  0  0
    3.6120   -3.5490    0.0000 H   0  0  0  0  0  0  0  0  0  0  0  0
    6.0420   -2.1461    0.0000 H   0  0  0  0  0  0  0  0  0  0  0  0
    4.4220   -4.9520    0.0000 H   0  0  0  0  0  0  0  0  0  0  0  0
    6.8520   -3.5490    0.0000 H   0  0  0  0  0  0  0  0  0  0  0  0
    6.0420   -4.9520    0.0000 H   0  0  0  0  0  0  0  0  0  0  0  0
  1  5  2  0  0  0  0
  2  7  1  0  0  0  0
  2  8  1  0  0  0  0
  2 11  2  0  0  0  0
  2 12  1  0  0  0  0
  3  9  1  0  0  0  0
  3 10  1  0  0  0  0
  3 11  1  0  0  0  0
  3 13  2  0  0  0  0
  4 12  2  0  0  0  0
  4 13  1  0  0  0  0
  4 14  1  0  0  0  0
  4 15  1  0  0  0  0
  5  6  1  0  0  0  0
  5 16  1  0  0  0  0
  5 17  1  0  0  0  0
  6 26  1  0  0  0  0
  7 19  1  0  0  0  0
  7 20  1  0  0  0  0
  8 18  1  0  0  0  0
  8 21  1  0  0  0  0
  9 24  1  0  0  0  0
  9 25  1  0  0  0  0
 10 22  1  0  0  0  0
 10 23  1  0  0  0  0
 14 16  1  0  0  0  0
 14 49  1  0  0  0  0
 15 17  1  0  0  0  0
 15 48  1  0  0  0  0
 16 51  1  0  0  0  0
 17 50  1  0  0  0  0
 18 21  1  0  0  0  0
 18 38  1  0  0  0  0
 18 39  1  0  0  0  0
 19 20  1  0  0  0  0
 19 32  1  0  0  0  0
 19 33  1  0  0  0  0
 20 34  1  0  0  0  0
 20 35  1  0  0  0  0
 21 36  1  0  0  0  0
 21 37  1  0  0  0  0
 22 23  1  0  0  0  0
 22 46  1  0  0  0  0
 22 47  1  0  0  0  0
 23 44  1  0  0  0  0
 23 45  1  0  0  0  0
 24 25  1  0  0  0  0
 24 42  1  0  0  0  0
 24 43  1  0  0  0  0
 25 40  1  0  0  0  0
 25 41  1  0  0  0  0
 26 27  2  0  0  0  0
 26 28  1  0  0  0  0
 27 29  1  0  0  0  0
 27 52  1  0  0  0  0
 28 30  2  0  0  0  0
 28 53  1  0  0  0  0
 29 31  2  0  0  0  0
 29 54  1  0  0  0  0
 30 31  1  0  0  0  0
 30 55  1  0  0  0  0
 31 56  1  0  0  0  0
M  END
>  <PUBCHEM_COMPOUND_CID>
370147

>  <PUBCHEM_COMPOUND_CANONICALIZED>
1

>  <PUBCHEM_CACTVS_COMPLEXITY>
898

>  <PUBCHEM_CACTVS_HBOND_ACCEPTOR>
13

>  <PUBCHEM_CACTVS_HBOND_DONOR>
4

>  <PUBCHEM_CACTVS_ROTATABLE_BOND>
6

>  <PUBCHEM_CACTVS_SUBSKEYS>
AAADceBz4APAAAAAAAAAAAAAFiwAAAAAAAA8QIAAAAAAAAABAAAAHgAYgCAACATBkAQwBoICAQCAgCBCAAACAAAgIAIIiAAOCIgIJiKAERKAMAAkwBEIiAeAQAAAAAAAAAAAAAAAAAAAAAAAAAAAAAAAAA==

>  <PUBCHEM_IUPAC_OPENEYE_NAME>
2,2,4,4-tetrakis(aziridin-1-yl)-9-phenoxy-9-thioxo-1,3,5,7,8,10,11-heptaza-2$l^{5},4$l^{5},6$l^{5},9$l^{5}-tetraphosphaspiro[5.5]undeca-1(6),2,4-triene

>  <PUBCHEM_IUPAC_CAS_NAME>
2,2,4,4-tetrakis(1-aziridinyl)-9-phenoxy-9-sulfanylidene-1,3,5,7,8,10,11-heptaza-2$l^{5},4$l^{5},6$l^{5},9$l^{5}-tetraphosphaspiro[5.5]undeca-1(6),2,4-triene

>  <PUBCHEM_IUPAC_NAME>
2,2,4,4-tetrakis(aziridin-1-yl)-9-phenoxy-9-sulfanylidene-1,3,5,7,8,10,11-heptaza-2$l^{5},4$l^{5},6$l^{5},9$l^{5}-tetraphosphaspiro[5.5]undeca-1(6),2,4-triene

>  <PUBCHEM_IUPAC_SYSTEMATIC_NAME>
2,2,4,4-tetrakis(aziridin-1-yl)-9-phenoxy-9-sulfanylidene-1,3,5,7,8,10,11-heptaza-2$l^{5},4$l^{5},6$l^{5},9$l^{5}-tetraphosphaspiro[5.5]undeca-1(6),2,4-triene

>  <PUBCHEM_IUPAC_TRADITIONAL_NAME>
2,2,4,4-tetraethylenimino-9-phenoxy-9-thioxo-1,3,5,7,8,10,11-heptaza-2$l^{5},4$l^{5},6$l^{5},9$l^{5}-tetraphosphaspiro[5.5]undeca-1(6),2,4-triene

>  <PUBCHEM_IUPAC_INCHI>
InChI=1S/C14H25N11OP4S/c31-30(26-14-4-2-1-3-5-14)17-15-27(16-18-30)19-28(22-6-7-22,23-8-9-23)21-29(20-27,24-10-11-24)25-12-13-25/h1-5,15-16H,6-13H2,(H2,17,18,31)

>  <PUBCHEM_IUPAC_INCHIKEY>
BOINQHNDAWRRLG-UHFFFAOYSA-N

>  <PUBCHEM_XLOGP3_AA>
2.6

>  <PUBCHEM_EXACT_MASS>
519.091

>  <PUBCHEM_MOLECULAR_FORMULA>
C14H25N11OP4S

>  <PUBCHEM_MOLECULAR_WEIGHT>
519.385

>  <PUBCHEM_OPENEYE_CAN_SMILES>
C1CN1P2(=NP(=NP3(=N2)NNP(=S)(NN3)OC4=CC=CC=C4)(N5CC5)N6CC6)N7CC7

>  <PUBCHEM_OPENEYE_ISO_SMILES>
C1CN1P2(=NP(=NP3(=N2)NNP(=S)(NN3)OC4=CC=CC=C4)(N5CC5)N6CC6)N7CC7

>  <PUBCHEM_CACTVS_TPSA>
139

>  <PUBCHEM_MONOISOTOPIC_WEIGHT>
519.091

>  <PUBCHEM_TOTAL_CHARGE>
0

>  <PUBCHEM_HEAVY_ATOM_COUNT>
31

>  <PUBCHEM_ATOM_DEF_STEREO_COUNT>
0

>  <PUBCHEM_ATOM_UDEF_STEREO_COUNT>
0

>  <PUBCHEM_BOND_DEF_STEREO_COUNT>
0

>  <PUBCHEM_BOND_UDEF_STEREO_COUNT>
0

>  <PUBCHEM_ISOTOPIC_ATOM_COUNT>
0

>  <PUBCHEM_COMPONENT_COUNT>
1

>  <PUBCHEM_CACTVS_TAUTO_COUNT>
8

>  <PUBCHEM_COORDINATE_TYPE>
1
5
255

>  <PUBCHEM_BONDANNOTATIONS>
26  27  8
26  28  8
27  29  8
28  30  8
29  31  8
30  31  8

$$$$
