3726592
 OpenBabel06101807152D

 71 72  0  0  0  0  0  0  0  0999 V2000
    7.9244   -3.0120    0.0000 O   0  0  0  0  0  0  0  0  0  0  0  0
    6.2781   -2.4739    0.0000 N   0  0  0  0  0  0  0  0  0  0  0  0
    4.6783   -6.1907    0.0000 N   0  0  0  0  0  0  0  0  0  0  0  0
   11.4348    2.1530    0.0000 C   0  0  0  0  0  0  0  0  0  0  0  0
   12.4133    2.3592    0.0000 C   0  0  0  0  0  0  0  0  0  0  0  0
   11.1241    1.2025    0.0000 C   0  0  0  0  0  0  0  0  0  0  0  0
   12.7239    3.3098    0.0000 C   0  0  0  0  0  0  0  0  0  0  0  0
   10.1456    0.9963    0.0000 C   0  0  0  0  0  0  0  0  0  0  0  0
   13.7024    3.5160    0.0000 C   0  0  0  0  0  0  0  0  0  0  0  0
    9.8349    0.0458    0.0000 C   0  0  0  0  0  0  0  0  0  0  0  0
   14.0131    4.4665    0.0000 C   0  0  0  0  0  0  0  0  0  0  0  0
    8.8564   -0.1605    0.0000 C   0  0  0  0  0  0  0  0  0  0  0  0
   14.9916    4.6727    0.0000 C   0  0  0  0  0  0  0  0  0  0  0  0
    8.5458   -1.1110    0.0000 C   0  0  0  0  0  0  0  0  0  0  0  0
   15.3023    5.6232    0.0000 C   0  0  0  0  0  0  0  0  0  0  0  0
    7.5673   -1.3172    0.0000 C   0  0  0  0  0  0  0  0  0  0  0  0
   16.2808    5.8295    0.0000 C   0  0  0  0  0  0  0  0  0  0  0  0
    7.2566   -2.2677    0.0000 C   0  0  0  0  0  0  0  0  0  0  0  0
    4.9889   -3.6307    0.0000 C   0  0  0  0  0  0  0  0  0  0  0  0
    5.9674   -3.4244    0.0000 C   0  0  0  0  0  0  0  0  0  0  0  0
    4.6783   -4.5812    0.0000 C   0  0  0  0  0  0  0  0  0  0  0  0
   16.5914    6.7800    0.0000 C   0  0  0  0  0  0  0  0  0  0  0  0
    3.7320   -4.8859    0.0000 C   0  0  0  0  0  0  0  0  0  0  0  0
    3.7320   -5.8859    0.0000 C   0  0  0  0  0  0  0  0  0  0  0  0
    5.2619   -5.3859    0.0000 C   0  0  0  0  0  0  0  0  0  0  0  0
    2.8660   -4.3859    0.0000 C   0  0  0  0  0  0  0  0  0  0  0  0
    2.8660   -6.3859    0.0000 C   0  0  0  0  0  0  0  0  0  0  0  0
    2.0000   -4.8859    0.0000 C   0  0  0  0  0  0  0  0  0  0  0  0
    2.0000   -5.8859    0.0000 C   0  0  0  0  0  0  0  0  0  0  0  0
   11.4142    2.7727    0.0000 H   0  0  0  0  0  0  0  0  0  0  0  0
   10.8210    2.2404    0.0000 H   0  0  0  0  0  0  0  0  0  0  0  0
   12.4338    1.7396    0.0000 H   0  0  0  0  0  0  0  0  0  0  0  0
   13.0271    2.2719    0.0000 H   0  0  0  0  0  0  0  0  0  0  0  0
   11.1447    0.5828    0.0000 H   0  0  0  0  0  0  0  0  0  0  0  0
   11.7379    1.1152    0.0000 H   0  0  0  0  0  0  0  0  0  0  0  0
   12.7034    3.9294    0.0000 H   0  0  0  0  0  0  0  0  0  0  0  0
   12.1101    3.3971    0.0000 H   0  0  0  0  0  0  0  0  0  0  0  0
   10.1250    1.6159    0.0000 H   0  0  0  0  0  0  0  0  0  0  0  0
    9.5318    1.0836    0.0000 H   0  0  0  0  0  0  0  0  0  0  0  0
   13.7230    2.8963    0.0000 H   0  0  0  0  0  0  0  0  0  0  0  0
   14.3163    3.4286    0.0000 H   0  0  0  0  0  0  0  0  0  0  0  0
    9.8555   -0.5739    0.0000 H   0  0  0  0  0  0  0  0  0  0  0  0
   10.4488   -0.0416    0.0000 H   0  0  0  0  0  0  0  0  0  0  0  0
   13.9925    5.0862    0.0000 H   0  0  0  0  0  0  0  0  0  0  0  0
   13.3993    4.5538    0.0000 H   0  0  0  0  0  0  0  0  0  0  0  0
    8.8359    0.4592    0.0000 H   0  0  0  0  0  0  0  0  0  0  0  0
    8.2426   -0.0731    0.0000 H   0  0  0  0  0  0  0  0  0  0  0  0
   15.0122    4.0531    0.0000 H   0  0  0  0  0  0  0  0  0  0  0  0
   15.6054    4.5854    0.0000 H   0  0  0  0  0  0  0  0  0  0  0  0
    8.5663   -1.7306    0.0000 H   0  0  0  0  0  0  0  0  0  0  0  0
    9.1596   -1.1983    0.0000 H   0  0  0  0  0  0  0  0  0  0  0  0
   15.2817    6.2429    0.0000 H   0  0  0  0  0  0  0  0  0  0  0  0
   14.6885    5.7106    0.0000 H   0  0  0  0  0  0  0  0  0  0  0  0
    7.5467   -0.6975    0.0000 H   0  0  0  0  0  0  0  0  0  0  0  0
    6.9534   -1.2298    0.0000 H   0  0  0  0  0  0  0  0  0  0  0  0
   16.3013    5.2098    0.0000 H   0  0  0  0  0  0  0  0  0  0  0  0
   16.8946    5.7421    0.0000 H   0  0  0  0  0  0  0  0  0  0  0  0
    4.9684   -3.0110    0.0000 H   0  0  0  0  0  0  0  0  0  0  0  0
    4.3751   -3.5433    0.0000 H   0  0  0  0  0  0  0  0  0  0  0  0
    5.9880   -4.0441    0.0000 H   0  0  0  0  0  0  0  0  0  0  0  0
    6.5812   -3.5118    0.0000 H   0  0  0  0  0  0  0  0  0  0  0  0
   17.1808    6.5874    0.0000 H   0  0  0  0  0  0  0  0  0  0  0  0
   16.7841    7.3693    0.0000 H   0  0  0  0  0  0  0  0  0  0  0  0
   16.0021    6.9726    0.0000 H   0  0  0  0  0  0  0  0  0  0  0  0
    5.8640   -2.0125    0.0000 H   0  0  0  0  0  0  0  0  0  0  0  0
    5.8819   -5.3859    0.0000 H   0  0  0  0  0  0  0  0  0  0  0  0
    4.8709   -6.7800    0.0000 H   0  0  0  0  0  0  0  0  0  0  0  0
    2.8660   -3.7659    0.0000 H   0  0  0  0  0  0  0  0  0  0  0  0
    2.8660   -7.0059    0.0000 H   0  0  0  0  0  0  0  0  0  0  0  0
    1.4631   -4.5759    0.0000 H   0  0  0  0  0  0  0  0  0  0  0  0
    1.4631   -6.1959    0.0000 H   0  0  0  0  0  0  0  0  0  0  0  0
  1 18  2  0  0  0  0
  2 18  1  0  0  0  0
  2 20  1  0  0  0  0
  2 65  1  0  0  0  0
  3 24  1  0  0  0  0
  3 25  1  0  0  0  0
  3 67  1  0  0  0  0
  4  5  1  0  0  0  0
  4  6  1  0  0  0  0
  4 30  1  0  0  0  0
  4 31  1  0  0  0  0
  5  7  1  0  0  0  0
  5 32  1  0  0  0  0
  5 33  1  0  0  0  0
  6  8  1  0  0  0  0
  6 34  1  0  0  0  0
  6 35  1  0  0  0  0
  7  9  1  0  0  0  0
  7 36  1  0  0  0  0
  7 37  1  0  0  0  0
  8 10  1  0  0  0  0
  8 38  1  0  0  0  0
  8 39  1  0  0  0  0
  9 11  1  0  0  0  0
  9 40  1  0  0  0  0
  9 41  1  0  0  0  0
 10 12  1  0  0  0  0
 10 42  1  0  0  0  0
 10 43  1  0  0  0  0
 11 13  1  0  0  0  0
 11 44  1  0  0  0  0
 11 45  1  0  0  0  0
 12 14  1  0  0  0  0
 12 46  1  0  0  0  0
 12 47  1  0  0  0  0
 13 15  1  0  0  0  0
 13 48  1  0  0  0  0
 13 49  1  0  0  0  0
 14 16  1  0  0  0  0
 14 50  1  0  0  0  0
 14 51  1  0  0  0  0
 15 17  1  0  0  0  0
 15 52  1  0  0  0  0
 15 53  1  0  0  0  0
 16 18  1  0  0  0  0
 16 54  1  0  0  0  0
 16 55  1  0  0  0  0
 17 22  1  0  0  0  0
 17 56  1  0  0  0  0
 17 57  1  0  0  0  0
 19 20  1  0  0  0  0
 19 21  1  0  0  0  0
 19 58  1  0  0  0  0
 19 59  1  0  0  0  0
 20 60  1  0  0  0  0
 20 61  1  0  0  0  0
 21 23  1  0  0  0  0
 21 25  2  0  0  0  0
 22 62  1  0  0  0  0
 22 63  1  0  0  0  0
 22 64  1  0  0  0  0
 23 24  1  0  0  0  0
 23 26  2  0  0  0  0
 24 27  2  0  0  0  0
 25 66  1  0  0  0  0
 26 28  1  0  0  0  0
 26 68  1  0  0  0  0
 27 29  1  0  0  0  0
 27 69  1  0  0  0  0
 28 29  2  0  0  0  0
 28 70  1  0  0  0  0
 29 71  1  0  0  0  0
M  END
>  <PUBCHEM_COMPOUND_CID>
3726592

>  <PUBCHEM_COMPOUND_CANONICALIZED>
1

>  <PUBCHEM_CACTVS_COMPLEXITY>
412

>  <PUBCHEM_CACTVS_HBOND_ACCEPTOR>
1

>  <PUBCHEM_CACTVS_HBOND_DONOR>
2

>  <PUBCHEM_CACTVS_ROTATABLE_BOND>
17

>  <PUBCHEM_CACTVS_SUBSKEYS>
AAADcfB7IAAAAAAAAAAAAAAAAAAAAWAAAAAwAAAAAAAAAFgB8AAAHgAQAAAADAjBngQ+wPLJkACoAzV3VACCgCAxAiAI2aE4ZJgIIPLAkZGEIAhglgDIyAcYiMCOgAAAAAACAAAAAAAAAAQAAAAAAAAAAA==

>  <PUBCHEM_IUPAC_OPENEYE_NAME>
N-[2-(1H-indol-3-yl)ethyl]hexadecanamide

>  <PUBCHEM_IUPAC_CAS_NAME>
N-[2-(1H-indol-3-yl)ethyl]hexadecanamide

>  <PUBCHEM_IUPAC_NAME>
N-[2-(1H-indol-3-yl)ethyl]hexadecanamide

>  <PUBCHEM_IUPAC_SYSTEMATIC_NAME>
N-[2-(1H-indol-3-yl)ethyl]hexadecanamide

>  <PUBCHEM_IUPAC_TRADITIONAL_NAME>
N-[2-(1H-indol-3-yl)ethyl]palmitamide

>  <PUBCHEM_IUPAC_INCHI>
InChI=1S/C26H42N2O/c1-2-3-4-5-6-7-8-9-10-11-12-13-14-19-26(29)27-21-20-23-22-28-25-18-16-15-17-24(23)25/h15-18,22,28H,2-14,19-21H2,1H3,(H,27,29)

>  <PUBCHEM_IUPAC_INCHIKEY>
YZWBXGMMZOEBAN-UHFFFAOYSA-N

>  <PUBCHEM_XLOGP3>
9.1

>  <PUBCHEM_EXACT_MASS>
398.33

>  <PUBCHEM_MOLECULAR_FORMULA>
C26H42N2O

>  <PUBCHEM_MOLECULAR_WEIGHT>
398.635

>  <PUBCHEM_OPENEYE_CAN_SMILES>
CCCCCCCCCCCCCCCC(=O)NCCC1=CNC2=CC=CC=C21

>  <PUBCHEM_OPENEYE_ISO_SMILES>
CCCCCCCCCCCCCCCC(=O)NCCC1=CNC2=CC=CC=C21

>  <PUBCHEM_CACTVS_TPSA>
44.9

>  <PUBCHEM_MONOISOTOPIC_WEIGHT>
398.33

>  <PUBCHEM_TOTAL_CHARGE>
0

>  <PUBCHEM_HEAVY_ATOM_COUNT>
29

>  <PUBCHEM_ATOM_DEF_STEREO_COUNT>
0

>  <PUBCHEM_ATOM_UDEF_STEREO_COUNT>
0

>  <PUBCHEM_BOND_DEF_STEREO_COUNT>
0

>  <PUBCHEM_BOND_UDEF_STEREO_COUNT>
0

>  <PUBCHEM_ISOTOPIC_ATOM_COUNT>
0

>  <PUBCHEM_COMPONENT_COUNT>
1

>  <PUBCHEM_CACTVS_TAUTO_COUNT>
2

>  <PUBCHEM_COORDINATE_TYPE>
1
5
255

>  <PUBCHEM_BONDANNOTATIONS>
21  23  8
21  25  8
23  24  8
23  26  8
24  27  8
26  28  8
27  29  8
28  29  8
3  24  8
3  25  8

$$$$
