373912
 OpenBabel06101807152D

 24 25  0  0  0  0  0  0  0  0999 V2000
    3.7320   -1.5000    0.0000 O   0  0  0  0  0  0  0  0  0  0  0  0
    2.0000   -0.5000    0.0000 O   0  0  0  0  0  0  0  0  0  0  0  0
    4.5981    0.0000    0.0000 C   0  0  0  0  0  0  0  0  0  0  0  0
    4.5981    1.0000    0.0000 C   0  0  0  0  0  0  0  0  0  0  0  0
    5.4920   -0.5347    0.0000 C   0  0  0  0  0  0  0  0  0  0  0  0
    3.7320    1.5000    0.0000 C   0  0  0  0  0  0  0  0  0  0  0  0
    2.8660    1.0000    0.0000 C   0  0  0  0  0  0  0  0  0  0  0  0
    3.7320   -0.5000    0.0000 C   0  0  0  0  0  0  0  0  0  0  0  0
    5.4920    1.5346    0.0000 C   0  0  0  0  0  0  0  0  0  0  0  0
    2.8660    0.0000    0.0000 C   0  0  0  0  0  0  0  0  0  0  0  0
    6.3981   -0.0208    0.0000 C   0  0  0  0  0  0  0  0  0  0  0  0
    6.3981    1.0208    0.0000 C   0  0  0  0  0  0  0  0  0  0  0  0
    5.4804   -1.5346    0.0000 C   0  0  0  0  0  0  0  0  0  0  0  0
    2.0000    1.5000    0.0000 C   0  0  0  0  0  0  0  0  0  0  0  0
    3.7320    2.1200    0.0000 H   0  0  0  0  0  0  0  0  0  0  0  0
    5.4848    2.1546    0.0000 H   0  0  0  0  0  0  0  0  0  0  0  0
    6.9338   -0.3329    0.0000 H   0  0  0  0  0  0  0  0  0  0  0  0
    6.9338    1.3328    0.0000 H   0  0  0  0  0  0  0  0  0  0  0  0
    4.8605   -1.5275    0.0000 H   0  0  0  0  0  0  0  0  0  0  0  0
    5.4733   -2.1546    0.0000 H   0  0  0  0  0  0  0  0  0  0  0  0
    6.1004   -1.5418    0.0000 H   0  0  0  0  0  0  0  0  0  0  0  0
    2.3100    2.0369    0.0000 H   0  0  0  0  0  0  0  0  0  0  0  0
    1.4631    1.8100    0.0000 H   0  0  0  0  0  0  0  0  0  0  0  0
    1.6900    0.9630    0.0000 H   0  0  0  0  0  0  0  0  0  0  0  0
  1  8  2  0  0  0  0
  2 10  2  0  0  0  0
  3  4  1  0  0  0  0
  3  5  2  0  0  0  0
  3  8  1  0  0  0  0
  4  6  1  0  0  0  0
  4  9  2  0  0  0  0
  5 11  1  0  0  0  0
  5 13  1  0  0  0  0
  6  7  2  0  0  0  0
  6 15  1  0  0  0  0
  7 10  1  0  0  0  0
  7 14  1  0  0  0  0
  8 10  1  0  0  0  0
  9 12  1  0  0  0  0
  9 16  1  0  0  0  0
 11 12  2  0  0  0  0
 11 17  1  0  0  0  0
 12 18  1  0  0  0  0
 13 19  1  0  0  0  0
 13 20  1  0  0  0  0
 13 21  1  0  0  0  0
 14 22  1  0  0  0  0
 14 23  1  0  0  0  0
 14 24  1  0  0  0  0
M  END
>  <PUBCHEM_COMPOUND_CID>
373912

>  <PUBCHEM_COMPOUND_CANONICALIZED>
1

>  <PUBCHEM_CACTVS_COMPLEXITY>
314

>  <PUBCHEM_CACTVS_HBOND_ACCEPTOR>
2

>  <PUBCHEM_CACTVS_HBOND_DONOR>
0

>  <PUBCHEM_CACTVS_ROTATABLE_BOND>
0

>  <PUBCHEM_CACTVS_SUBSKEYS>
AAADccBwMAAAAAAAAAAAAAAAAAAAAAAAAAAwQAAAAAAAAACBAAAAGgAAAAAADASAmAAyAIAAAACIAqBSAAACAAAkAAAIiAEAAMgIIDKAFRCAIQAggAAIiYcIiMCOgAACAAAQAAAAAAQAACAAAAAAAAAAAA==

>  <PUBCHEM_IUPAC_OPENEYE_NAME>
3,8-dimethylnaphthalene-1,2-dione

>  <PUBCHEM_IUPAC_CAS_NAME>
3,8-dimethylnaphthalene-1,2-dione

>  <PUBCHEM_IUPAC_NAME>
3,8-dimethylnaphthalene-1,2-dione

>  <PUBCHEM_IUPAC_SYSTEMATIC_NAME>
3,8-dimethylnaphthalene-1,2-dione

>  <PUBCHEM_IUPAC_TRADITIONAL_NAME>
3,8-dimethyl-1,2-naphthoquinone

>  <PUBCHEM_IUPAC_INCHI>
InChI=1S/C12H10O2/c1-7-4-3-5-9-6-8(2)11(13)12(14)10(7)9/h3-6H,1-2H3

>  <PUBCHEM_IUPAC_INCHIKEY>
DKHAQNNRAKURNG-UHFFFAOYSA-N

>  <PUBCHEM_XLOGP3_AA>
2.2

>  <PUBCHEM_EXACT_MASS>
186.068

>  <PUBCHEM_MOLECULAR_FORMULA>
C12H10O2

>  <PUBCHEM_MOLECULAR_WEIGHT>
186.21

>  <PUBCHEM_OPENEYE_CAN_SMILES>
CC1=CC=CC2=C1C(=O)C(=O)C(=C2)C

>  <PUBCHEM_OPENEYE_ISO_SMILES>
CC1=CC=CC2=C1C(=O)C(=O)C(=C2)C

>  <PUBCHEM_CACTVS_TPSA>
34.1

>  <PUBCHEM_MONOISOTOPIC_WEIGHT>
186.068

>  <PUBCHEM_TOTAL_CHARGE>
0

>  <PUBCHEM_HEAVY_ATOM_COUNT>
14

>  <PUBCHEM_ATOM_DEF_STEREO_COUNT>
0

>  <PUBCHEM_ATOM_UDEF_STEREO_COUNT>
0

>  <PUBCHEM_BOND_DEF_STEREO_COUNT>
0

>  <PUBCHEM_BOND_UDEF_STEREO_COUNT>
0

>  <PUBCHEM_ISOTOPIC_ATOM_COUNT>
0

>  <PUBCHEM_COMPONENT_COUNT>
1

>  <PUBCHEM_CACTVS_TAUTO_COUNT>
18

>  <PUBCHEM_COORDINATE_TYPE>
1
5
255

>  <PUBCHEM_BONDANNOTATIONS>
11  12  8
3  4  8
3  5  8
4  9  8
5  11  8
9  12  8

$$$$
