3764
 OpenBabel06101807152D

 32 34  0  0  0  0  0  0  0  0999 V2000
    6.3981   -1.7327    0.0000 O   0  0  0  0  0  0  0  0  0  0  0  0
    2.8680   -1.7568    0.0000 O   0  0  0  0  0  0  0  0  0  0  0  0
    6.3981    1.2673    0.0000 O   0  0  0  0  0  0  0  0  0  0  0  0
   10.7282    1.7673    0.0000 O   0  0  0  0  0  0  0  0  0  0  0  0
    5.5320   -0.2327    0.0000 C   0  0  0  0  0  0  0  0  0  0  0  0
    7.2641   -0.2327    0.0000 C   0  0  0  0  0  0  0  0  0  0  0  0
    5.5320   -1.2327    0.0000 C   0  0  0  0  0  0  0  0  0  0  0  0
    6.3981    0.2673    0.0000 C   0  0  0  0  0  0  0  0  0  0  0  0
    8.1301    0.2673    0.0000 C   0  0  0  0  0  0  0  0  0  0  0  0
    4.6381    0.3020    0.0000 C   0  0  0  0  0  0  0  0  0  0  0  0
    7.2641   -1.2327    0.0000 C   0  0  0  0  0  0  0  0  0  0  0  0
    4.6381   -1.7673    0.0000 C   0  0  0  0  0  0  0  0  0  0  0  0
    3.7320   -1.2535    0.0000 C   0  0  0  0  0  0  0  0  0  0  0  0
    3.7320   -0.2119    0.0000 C   0  0  0  0  0  0  0  0  0  0  0  0
    8.9962   -0.2327    0.0000 C   0  0  0  0  0  0  0  0  0  0  0  0
    8.1301    1.2673    0.0000 C   0  0  0  0  0  0  0  0  0  0  0  0
    9.8622    0.2673    0.0000 C   0  0  0  0  0  0  0  0  0  0  0  0
    8.9962    1.7673    0.0000 C   0  0  0  0  0  0  0  0  0  0  0  0
    9.8622    1.2673    0.0000 C   0  0  0  0  0  0  0  0  0  0  0  0
    2.0000   -1.2602    0.0000 C   0  0  0  0  0  0  0  0  0  0  0  0
    4.6453    0.9220    0.0000 H   0  0  0  0  0  0  0  0  0  0  0  0
    4.6453   -2.3873    0.0000 H   0  0  0  0  0  0  0  0  0  0  0  0
    7.8010   -1.5427    0.0000 H   0  0  0  0  0  0  0  0  0  0  0  0
    3.1963    0.1002    0.0000 H   0  0  0  0  0  0  0  0  0  0  0  0
    8.9962   -0.8527    0.0000 H   0  0  0  0  0  0  0  0  0  0  0  0
    7.5932    1.5773    0.0000 H   0  0  0  0  0  0  0  0  0  0  0  0
   10.3991   -0.0427    0.0000 H   0  0  0  0  0  0  0  0  0  0  0  0
    8.9962    2.3873    0.0000 H   0  0  0  0  0  0  0  0  0  0  0  0
    2.3079   -0.7220    0.0000 H   0  0  0  0  0  0  0  0  0  0  0  0
    1.4619   -0.9522    0.0000 H   0  0  0  0  0  0  0  0  0  0  0  0
    1.6921   -1.7983    0.0000 H   0  0  0  0  0  0  0  0  0  0  0  0
   11.2651    1.4573    0.0000 H   0  0  0  0  0  0  0  0  0  0  0  0
  1  7  1  0  0  0  0
  1 11  1  0  0  0  0
  2 13  1  0  0  0  0
  2 20  1  0  0  0  0
  3  8  2  0  0  0  0
  4 19  1  0  0  0  0
  4 32  1  0  0  0  0
  5  7  2  0  0  0  0
  5  8  1  0  0  0  0
  5 10  1  0  0  0  0
  6  8  1  0  0  0  0
  6  9  1  0  0  0  0
  6 11  2  0  0  0  0
  7 12  1  0  0  0  0
  9 15  2  0  0  0  0
  9 16  1  0  0  0  0
 10 14  2  0  0  0  0
 10 21  1  0  0  0  0
 11 23  1  0  0  0  0
 12 13  2  0  0  0  0
 12 22  1  0  0  0  0
 13 14  1  0  0  0  0
 14 24  1  0  0  0  0
 15 17  1  0  0  0  0
 15 25  1  0  0  0  0
 16 18  2  0  0  0  0
 16 26  1  0  0  0  0
 17 19  2  0  0  0  0
 17 27  1  0  0  0  0
 18 19  1  0  0  0  0
 18 28  1  0  0  0  0
 20 29  1  0  0  0  0
 20 30  1  0  0  0  0
 20 31  1  0  0  0  0
M  END
>  <PUBCHEM_COMPOUND_CID>
3764

>  <PUBCHEM_COMPOUND_CANONICALIZED>
1

>  <PUBCHEM_CACTVS_COMPLEXITY>
395

>  <PUBCHEM_CACTVS_HBOND_ACCEPTOR>
4

>  <PUBCHEM_CACTVS_HBOND_DONOR>
1

>  <PUBCHEM_CACTVS_ROTATABLE_BOND>
2

>  <PUBCHEM_CACTVS_SUBSKEYS>
AAADccB4OAAAAAAAAAAAAAAAAAAAAAAAAAAwYIAAAAAAAACBQAAAGgAACAAADASgmAIyBoAABgCIAqBSAAACCAAkIAAIiAEGCMgMJzaGNRqAcWAl4BUIuYeI7PzOIAAACAAIAABAAAAQABAAAAAAAAAAAA==

>  <PUBCHEM_IUPAC_OPENEYE_NAME>
3-(4-hydroxyphenyl)-7-methoxy-chromen-4-one

>  <PUBCHEM_IUPAC_CAS_NAME>
3-(4-hydroxyphenyl)-7-methoxy-1-benzopyran-4-one

>  <PUBCHEM_IUPAC_NAME>
3-(4-hydroxyphenyl)-7-methoxychromen-4-one

>  <PUBCHEM_IUPAC_SYSTEMATIC_NAME>
3-(4-hydroxyphenyl)-7-methoxy-chromen-4-one

>  <PUBCHEM_IUPAC_TRADITIONAL_NAME>
3-(4-hydroxyphenyl)-7-methoxy-chromone

>  <PUBCHEM_IUPAC_INCHI>
InChI=1S/C16H12O4/c1-19-12-6-7-13-15(8-12)20-9-14(16(13)18)10-2-4-11(17)5-3-10/h2-9,17H,1H3

>  <PUBCHEM_IUPAC_INCHIKEY>
LNIQZRIHAMVRJA-UHFFFAOYSA-N

>  <PUBCHEM_XLOGP3_AA>
2.8

>  <PUBCHEM_EXACT_MASS>
268.074

>  <PUBCHEM_MOLECULAR_FORMULA>
C16H12O4

>  <PUBCHEM_MOLECULAR_WEIGHT>
268.268

>  <PUBCHEM_OPENEYE_CAN_SMILES>
COC1=CC2=C(C=C1)C(=O)C(=CO2)C3=CC=C(C=C3)O

>  <PUBCHEM_OPENEYE_ISO_SMILES>
COC1=CC2=C(C=C1)C(=O)C(=CO2)C3=CC=C(C=C3)O

>  <PUBCHEM_CACTVS_TPSA>
55.8

>  <PUBCHEM_MONOISOTOPIC_WEIGHT>
268.074

>  <PUBCHEM_TOTAL_CHARGE>
0

>  <PUBCHEM_HEAVY_ATOM_COUNT>
20

>  <PUBCHEM_ATOM_DEF_STEREO_COUNT>
0

>  <PUBCHEM_ATOM_UDEF_STEREO_COUNT>
0

>  <PUBCHEM_BOND_DEF_STEREO_COUNT>
0

>  <PUBCHEM_BOND_UDEF_STEREO_COUNT>
0

>  <PUBCHEM_ISOTOPIC_ATOM_COUNT>
0

>  <PUBCHEM_COMPONENT_COUNT>
1

>  <PUBCHEM_CACTVS_TAUTO_COUNT>
2

>  <PUBCHEM_COORDINATE_TYPE>
1
5
255

>  <PUBCHEM_BONDANNOTATIONS>
1  11  8
1  7  8
10  14  8
12  13  8
13  14  8
15  17  8
16  18  8
17  19  8
18  19  8
5  10  8
5  7  8
5  8  8
6  11  8
6  8  8
7  12  8
9  15  8
9  16  8

$$$$
