37720
 OpenBabel06101807152D

 53 54  0  0  1  0  0  0  0  0999 V2000
   10.3312    1.5000    0.0000 S   0  0  0  0  0  0  0  0  0  0  0  0
    5.1350    1.5000    0.0000 S   0  0  0  0  0  0  0  0  0  0  0  0
    3.4030   -0.5000    0.0000 S   0  0  0  0  0  0  0  0  0  0  0  0
   12.0632   -0.5000    0.0000 S   0  0  0  0  0  0  0  0  0  0  0  0
    7.7331    0.0000    0.0000 O   0  0  0  0  0  0  0  0  0  0  0  0
    6.8671   -1.5000    0.0000 O   0  0  0  0  0  0  0  0  0  0  0  0
    9.4651   -2.0000    0.0000 O   0  0  0  0  0  0  0  0  0  0  0  0
    9.4651    1.0000    0.0000 O   0  0  0  0  0  0  0  0  0  0  0  0
    6.0010    1.0000    0.0000 O   0  0  0  0  0  0  0  0  0  0  0  0
    4.2690    0.0000    0.0000 O   0  0  0  0  0  0  0  0  0  0  0  0
   11.1972   -0.0000    0.0000 O   0  0  0  0  0  0  0  0  0  0  0  0
    4.2690   -2.0000    0.0000 O   0  0  0  0  0  0  0  0  0  0  0  0
   11.1972   -2.0000    0.0000 O   0  0  0  0  0  0  0  0  0  0  0  0
   11.1972    2.0000    0.0000 O   0  0  0  0  0  0  0  0  0  0  0  0
    4.2690    2.0000    0.0000 O   0  0  0  0  0  0  0  0  0  0  0  0
    2.5369   -1.0000    0.0000 O   0  0  0  0  0  0  0  0  0  0  0  0
   12.9292   -1.0000    0.0000 O   0  0  0  0  0  0  0  0  0  0  0  0
    9.8312    2.3660    0.0000 O   0  0  0  0  0  0  0  0  0  0  0  0
   10.8312    0.6340    0.0000 O   0  0  0  0  0  0  0  0  0  0  0  0
    5.6350    2.3660    0.0000 O   0  0  0  0  0  0  0  0  0  0  0  0
    4.6350    0.6340    0.0000 O   0  0  0  0  0  0  0  0  0  0  0  0
    2.9030    0.3660    0.0000 O   0  0  0  0  0  0  0  0  0  0  0  0
    3.9030   -1.3660    0.0000 O   0  0  0  0  0  0  0  0  0  0  0  0
   12.5632    0.3660    0.0000 O   0  0  0  0  0  0  0  0  0  0  0  0
   11.5632   -1.3660    0.0000 O   0  0  0  0  0  0  0  0  0  0  0  0
    8.5991   -0.5000    0.0000 C   0  0  1  0  0  0  0  0  0  0  0  0
    9.4651    0.0000    0.0000 C   0  0  1  0  0  0  0  0  0  0  0  0
    6.0010    0.0000    0.0000 C   0  0  1  0  0  0  0  0  0  0  0  0
    6.8671   -0.5000    0.0000 C   0  0  2  0  0  0  0  0  0  0  0  0
    5.1350   -0.5000    0.0000 C   0  0  2  0  0  0  0  0  0  0  0  0
   10.3312   -0.5000    0.0000 C   0  0  2  0  0  0  0  0  0  0  0  0
    5.1350   -1.5000    0.0000 C   0  0  1  0  0  0  0  0  0  0  0  0
    8.5991   -1.5000    0.0000 C   0  0  0  0  0  0  0  0  0  0  0  0
   10.3312   -1.5000    0.0000 C   0  0  1  0  0  0  0  0  0  0  0  0
    6.0010   -2.0000    0.0000 C   0  0  0  0  0  0  0  0  0  0  0  0
    8.5991    0.1200    0.0000 H   0  0  0  0  0  0  0  0  0  0  0  0
   10.0021    0.3100    0.0000 H   0  0  0  0  0  0  0  0  0  0  0  0
    6.5380    0.3100    0.0000 H   0  0  0  0  0  0  0  0  0  0  0  0
    7.4040   -0.8100    0.0000 H   0  0  0  0  0  0  0  0  0  0  0  0
    5.1350    0.1200    0.0000 H   0  0  0  0  0  0  0  0  0  0  0  0
   10.8681   -0.8100    0.0000 H   0  0  0  0  0  0  0  0  0  0  0  0
    5.1350   -2.1200    0.0000 H   0  0  0  0  0  0  0  0  0  0  0  0
    7.9885   -1.3923    0.0000 H   0  0  0  0  0  0  0  0  0  0  0  0
    8.3871   -2.0826    0.0000 H   0  0  0  0  0  0  0  0  0  0  0  0
   10.3312   -2.1200    0.0000 H   0  0  0  0  0  0  0  0  0  0  0  0
    5.6025   -2.4750    0.0000 H   0  0  0  0  0  0  0  0  0  0  0  0
    6.3996   -2.4750    0.0000 H   0  0  0  0  0  0  0  0  0  0  0  0
    4.2690   -2.6200    0.0000 H   0  0  0  0  0  0  0  0  0  0  0  0
   11.1972   -2.6200    0.0000 H   0  0  0  0  0  0  0  0  0  0  0  0
   11.1972    2.6200    0.0000 H   0  0  0  0  0  0  0  0  0  0  0  0
    4.2690    2.6200    0.0000 H   0  0  0  0  0  0  0  0  0  0  0  0
    2.0000   -0.6900    0.0000 H   0  0  0  0  0  0  0  0  0  0  0  0
   13.4662   -0.6900    0.0000 H   0  0  0  0  0  0  0  0  0  0  0  0
  1  8  1  0  0  0  0
  1 14  1  0  0  0  0
  1 18  2  0  0  0  0
  1 19  2  0  0  0  0
  2  9  1  0  0  0  0
  2 15  1  0  0  0  0
  2 20  2  0  0  0  0
  2 21  2  0  0  0  0
  3 10  1  0  0  0  0
  3 16  1  0  0  0  0
  3 22  2  0  0  0  0
  3 23  2  0  0  0  0
  4 11  1  0  0  0  0
  4 17  1  0  0  0  0
  4 24  2  0  0  0  0
  4 25  2  0  0  0  0
  6 29  1  0  0  0  0
  6 35  1  0  0  0  0
  7 33  1  0  0  0  0
  7 34  1  0  0  0  0
 12 48  1  0  0  0  0
 13 49  1  0  0  0  0
 14 50  1  0  0  0  0
 15 51  1  0  0  0  0
 16 52  1  0  0  0  0
 17 53  1  0  0  0  0
 26  5  1  0  0  0  0
 26 27  1  1  0  0  0
 26 33  1  0  0  0  0
 26 36  1  0  0  0  0
 27  8  1  0  0  0  0
 27 31  1  6  0  0  0
 27 37  1  0  0  0  0
 28  9  1  0  0  0  0
 28 29  1  1  0  0  0
 28 38  1  0  0  0  0
 29  5  1  0  0  0  0
 29 39  1  1  0  0  0
 30 10  1  0  0  0  0
 30 28  1  6  0  0  0
 30 40  1  0  0  0  0
 31 11  1  0  0  0  0
 31 34  1  1  0  0  0
 31 41  1  0  0  0  0
 32 12  1  0  0  0  0
 32 30  1  6  0  0  0
 32 35  1  0  0  0  0
 32 42  1  0  0  0  0
 33 43  1  0  0  0  0
 33 44  1  0  0  0  0
 34 13  1  0  0  0  0
 34 45  1  1  0  0  0
 35 46  1  0  0  0  0
 35 47  1  0  0  0  0
M  END
>  <PUBCHEM_COMPOUND_CID>
37720

>  <PUBCHEM_COMPOUND_CANONICALIZED>
1

>  <PUBCHEM_CACTVS_COMPLEXITY>
1140

>  <PUBCHEM_CACTVS_HBOND_ACCEPTOR>
21

>  <PUBCHEM_CACTVS_HBOND_DONOR>
6

>  <PUBCHEM_CACTVS_ROTATABLE_BOND>
10

>  <PUBCHEM_CACTVS_SUBSKEYS>
AAADceBwPgBwAAAAAAAAAAAAAAAAAAAAAAAkSAAAAAAAAAAAAAAAGgAACAAACBSwgAMACAAABoAAAAAAADAAAAAAAAAAAAAAAAAREAIAAAAiQAAFAAAHAADAIAgAAAAAAAAAAAAAAAAAAAAAAAAAAAAAAA==

>  <PUBCHEM_IUPAC_OPENEYE_NAME>
[(2R,3R,4S,5R)-2-hydroxy-5-[(2S,3R,4S,5R)-5-hydroxy-3,4-disulfooxy-tetrahydropyran-2-yl]oxy-3-sulfooxy-tetrahydropyran-4-yl] hydrogen sulfate

>  <PUBCHEM_IUPAC_CAS_NAME>
sulfuric acid [(2R,3R,4S,5R)-2-hydroxy-5-[[(2S,3R,4S,5R)-5-hydroxy-3,4-disulfooxy-2-oxanyl]oxy]-3-sulfooxy-4-oxanyl] ester

>  <PUBCHEM_IUPAC_NAME>
[(2R,3R,4S,5R)-2-hydroxy-5-[(2S,3R,4S,5R)-5-hydroxy-3,4-disulfooxyoxan-2-yl]oxy-3-sulfooxyoxan-4-yl] hydrogen sulfate

>  <PUBCHEM_IUPAC_SYSTEMATIC_NAME>
[(2R,3R,4S,5R)-2-oxidanyl-5-[(2S,3R,4S,5R)-5-oxidanyl-3,4-disulfooxy-oxan-2-yl]oxy-3-sulfooxy-oxan-4-yl] hydrogen sulfate

>  <PUBCHEM_IUPAC_TRADITIONAL_NAME>
sulfuric acid [(2R,3R,4S,5R)-2-hydroxy-5-[(2S,3R,4S,5R)-5-hydroxy-3,4-disulfoxy-tetrahydropyran-2-yl]oxy-3-sulfoxy-tetrahydropyran-4-yl] ester

>  <PUBCHEM_IUPAC_INCHI>
InChI=1S/C10H18O21S4/c11-3-1-26-10(8(31-35(22,23)24)5(3)28-32(13,14)15)27-4-2-25-9(12)7(30-34(19,20)21)6(4)29-33(16,17)18/h3-12H,1-2H2,(H,13,14,15)(H,16,17,18)(H,19,20,21)(H,22,23,24)/t3-,4-,5+,6+,7-,8-,9-,10+/m1/s1

>  <PUBCHEM_IUPAC_INCHIKEY>
FCCNSUIJIOOXEZ-SJYYZXOBSA-N

>  <PUBCHEM_XLOGP3_AA>
-5.6

>  <PUBCHEM_EXACT_MASS>
601.922

>  <PUBCHEM_MOLECULAR_FORMULA>
C10H18O21S4

>  <PUBCHEM_MOLECULAR_WEIGHT>
602.473

>  <PUBCHEM_OPENEYE_CAN_SMILES>
C1C(C(C(C(O1)OC2COC(C(C2OS(=O)(=O)O)OS(=O)(=O)O)O)OS(=O)(=O)O)OS(=O)(=O)O)O

>  <PUBCHEM_OPENEYE_ISO_SMILES>
C1[C@H]([C@@H]([C@H]([C@@H](O1)O[C@@H]2CO[C@H]([C@@H]([C@H]2OS(=O)(=O)O)OS(=O)(=O)O)O)OS(=O)(=O)O)OS(=O)(=O)O)O

>  <PUBCHEM_CACTVS_TPSA>
356

>  <PUBCHEM_MONOISOTOPIC_WEIGHT>
601.922

>  <PUBCHEM_TOTAL_CHARGE>
0

>  <PUBCHEM_HEAVY_ATOM_COUNT>
35

>  <PUBCHEM_ATOM_DEF_STEREO_COUNT>
8

>  <PUBCHEM_ATOM_UDEF_STEREO_COUNT>
0

>  <PUBCHEM_BOND_DEF_STEREO_COUNT>
0

>  <PUBCHEM_BOND_UDEF_STEREO_COUNT>
0

>  <PUBCHEM_ISOTOPIC_ATOM_COUNT>
0

>  <PUBCHEM_COMPONENT_COUNT>
1

>  <PUBCHEM_CACTVS_TAUTO_COUNT>
1

>  <PUBCHEM_COORDINATE_TYPE>
1
5
255

>  <PUBCHEM_BONDANNOTATIONS>
30  10  6
31  11  5
32  12  5
34  13  6
26  5  5
29  5  6
27  8  6
28  9  5

$$$$
