3819775
 OpenBabel06101807152D

  8  7  0  0  0  0  0  0  0  0999 V2000
    2.5369    0.2500    0.0000 O   0  3  0  0  0  0  0  0  0  0  0  0
    3.4030   -1.2500    0.0000 O   0  0  0  0  0  0  0  0  0  0  0  0
    5.1350   -0.2500    0.0000 O   0  5  0  0  0  0  0  0  0  0  0  0
    4.2690    1.2500    0.0000 O   0  0  0  0  0  0  0  0  0  0  0  0
    3.4030   -0.2500    0.0000 C   0  0  0  0  0  0  0  0  0  0  0  0
    4.2690    0.2500    0.0000 C   0  0  0  0  0  0  0  0  0  0  0  0
    2.0000   -0.0600    0.0000 H   0  0  0  0  0  0  0  0  0  0  0  0
    2.5369    0.8700    0.0000 H   0  0  0  0  0  0  0  0  0  0  0  0
  1  5  1  0  0  0  0
  1  7  1  0  0  0  0
  1  8  1  0  0  0  0
  2  5  2  0  0  0  0
  3  6  1  0  0  0  0
  4  6  2  0  0  0  0
  5  6  1  0  0  0  0
M  CHG  2   1   1   3  -1
M  END
>  <PUBCHEM_COMPOUND_CID>
3819775

>  <PUBCHEM_COMPOUND_CANONICALIZED>
1

>  <PUBCHEM_CACTVS_COMPLEXITY>
78

>  <PUBCHEM_CACTVS_HBOND_ACCEPTOR>
3

>  <PUBCHEM_CACTVS_HBOND_DONOR>
1

>  <PUBCHEM_CACTVS_ROTATABLE_BOND>
0

>  <PUBCHEM_CACTVS_SUBSKEYS>
AAADcQBAOAAAAAAAAAAAAAAAAAAAAAAAAAAAAAAAAAAAAAAAAAAACgAACAAAAAAAgAAACAAAAgAIAACQCAIAAAAAAAAAAABAAAABAAAAAAAAAAAAAAABAAAAAAAAAAAAAAAAAAAAAAAAAAAAAAAAAAAAAA==

>  <PUBCHEM_IUPAC_OPENEYE_NAME>
2-oxo-2-oxonio-acetate

>  <PUBCHEM_IUPAC_CAS_NAME>
2-oxo-2-oxonioacetate

>  <PUBCHEM_IUPAC_NAME>
2-oxo-2-oxonioacetate

>  <PUBCHEM_IUPAC_SYSTEMATIC_NAME>
2-oxidaniumyl-2-oxidanylidene-ethanoate

>  <PUBCHEM_IUPAC_TRADITIONAL_NAME>
2-keto-2-oxonio-acetate

>  <PUBCHEM_IUPAC_INCHI>
InChI=1S/C2H2O4/c3-1(4)2(5)6/h(H,3,4)(H,5,6)

>  <PUBCHEM_IUPAC_INCHIKEY>
MUBZPKHOEPUJKR-UHFFFAOYSA-N

>  <PUBCHEM_XLOGP3_AA>
0.4

>  <PUBCHEM_EXACT_MASS>
89.995

>  <PUBCHEM_MOLECULAR_FORMULA>
C2H2O4

>  <PUBCHEM_MOLECULAR_WEIGHT>
90.034

>  <PUBCHEM_OPENEYE_CAN_SMILES>
C(=O)(C(=O)[O-])[OH2+]

>  <PUBCHEM_OPENEYE_ISO_SMILES>
C(=O)(C(=O)[O-])[OH2+]

>  <PUBCHEM_CACTVS_TPSA>
58.2

>  <PUBCHEM_MONOISOTOPIC_WEIGHT>
89.995

>  <PUBCHEM_TOTAL_CHARGE>
0

>  <PUBCHEM_HEAVY_ATOM_COUNT>
6

>  <PUBCHEM_ATOM_DEF_STEREO_COUNT>
0

>  <PUBCHEM_ATOM_UDEF_STEREO_COUNT>
0

>  <PUBCHEM_BOND_DEF_STEREO_COUNT>
0

>  <PUBCHEM_BOND_UDEF_STEREO_COUNT>
0

>  <PUBCHEM_ISOTOPIC_ATOM_COUNT>
0

>  <PUBCHEM_COMPONENT_COUNT>
1

>  <PUBCHEM_CACTVS_TAUTO_COUNT>
2

>  <PUBCHEM_COORDINATE_TYPE>
1
5
255

$$$$
