3819217
 OpenBabel06101807152D

 35 37  0  0  1  0  0  0  0  0999 V2000
    2.7320   -1.0843    0.0000 O   0  0  0  0  0  0  0  0  0  0  0  0
    6.3580    0.3810    0.0000 O   0  0  0  0  0  0  0  0  0  0  0  0
    2.8660    0.4157    0.0000 O   0  0  0  0  0  0  0  0  0  0  0  0
    8.1282    0.3915    0.0000 O   0  0  0  0  0  0  0  0  0  0  0  0
    3.2320   -1.9503    0.0000 C   0  0  0  0  0  0  0  0  0  0  0  0
    3.7320   -1.0843    0.0000 C   0  0  3  0  0  0  0  0  0  0  0  0
    4.5981   -0.5843    0.0000 C   0  0  0  0  0  0  0  0  0  0  0  0
    2.3660   -2.4503    0.0000 C   0  0  0  0  0  0  0  0  0  0  0  0
    4.0981   -2.4503    0.0000 C   0  0  0  0  0  0  0  0  0  0  0  0
    4.5981    0.4157    0.0000 C   0  0  0  0  0  0  0  0  0  0  0  0
    5.4641    0.9157    0.0000 C   0  0  0  0  0  0  0  0  0  0  0  0
    3.7320    0.9157    0.0000 C   0  0  0  0  0  0  0  0  0  0  0  0
    5.4641    1.9157    0.0000 C   0  0  0  0  0  0  0  0  0  0  0  0
    3.7320    1.9157    0.0000 C   0  0  0  0  0  0  0  0  0  0  0  0
    4.5981    2.4157    0.0000 C   0  0  0  0  0  0  0  0  0  0  0  0
    6.3580    2.4503    0.0000 C   0  0  0  0  0  0  0  0  0  0  0  0
    7.2641    0.8949    0.0000 C   0  0  0  0  0  0  0  0  0  0  0  0
    7.2641    1.9365    0.0000 C   0  0  0  0  0  0  0  0  0  0  0  0
    2.0000    0.9157    0.0000 C   0  0  0  0  0  0  0  0  0  0  0  0
    3.5716   -0.4854    0.0000 H   0  0  0  0  0  0  0  0  0  0  0  0
    4.8101   -1.1669    0.0000 H   0  0  0  0  0  0  0  0  0  0  0  0
    5.2087   -0.4767    0.0000 H   0  0  0  0  0  0  0  0  0  0  0  0
    3.7881   -2.9873    0.0000 H   0  0  0  0  0  0  0  0  0  0  0  0
    4.6350   -2.7603    0.0000 H   0  0  0  0  0  0  0  0  0  0  0  0
    4.4081   -1.9134    0.0000 H   0  0  0  0  0  0  0  0  0  0  0  0
    2.0560   -1.9134    0.0000 H   0  0  0  0  0  0  0  0  0  0  0  0
    1.8291   -2.7603    0.0000 H   0  0  0  0  0  0  0  0  0  0  0  0
    2.6760   -2.9873    0.0000 H   0  0  0  0  0  0  0  0  0  0  0  0
    3.1951    2.2257    0.0000 H   0  0  0  0  0  0  0  0  0  0  0  0
    4.5981    3.0357    0.0000 H   0  0  0  0  0  0  0  0  0  0  0  0
    6.3509    3.0703    0.0000 H   0  0  0  0  0  0  0  0  0  0  0  0
    7.7998    2.2486    0.0000 H   0  0  0  0  0  0  0  0  0  0  0  0
    2.3100    1.4526    0.0000 H   0  0  0  0  0  0  0  0  0  0  0  0
    1.4631    1.2257    0.0000 H   0  0  0  0  0  0  0  0  0  0  0  0
    1.6900    0.3787    0.0000 H   0  0  0  0  0  0  0  0  0  0  0  0
  1  5  1  0  0  0  0
  1  6  1  0  0  0  0
  2 11  1  0  0  0  0
  2 17  1  0  0  0  0
  3 12  1  0  0  0  0
  3 19  1  0  0  0  0
  4 17  2  0  0  0  0
  5  6  1  0  0  0  0
  5  8  1  0  0  0  0
  5  9  1  0  0  0  0
  6  7  1  0  0  0  0
  6 20  1  0  0  0  0
  7 10  1  0  0  0  0
  7 21  1  0  0  0  0
  7 22  1  0  0  0  0
  8 26  1  0  0  0  0
  8 27  1  0  0  0  0
  8 28  1  0  0  0  0
  9 23  1  0  0  0  0
  9 24  1  0  0  0  0
  9 25  1  0  0  0  0
 10 11  1  0  0  0  0
 10 12  2  0  0  0  0
 11 13  2  0  0  0  0
 12 14  1  0  0  0  0
 13 15  1  0  0  0  0
 13 16  1  0  0  0  0
 14 15  2  0  0  0  0
 14 29  1  0  0  0  0
 15 30  1  0  0  0  0
 16 18  2  0  0  0  0
 16 31  1  0  0  0  0
 17 18  1  0  0  0  0
 18 32  1  0  0  0  0
 19 33  1  0  0  0  0
 19 34  1  0  0  0  0
 19 35  1  0  0  0  0
M  END
>  <PUBCHEM_COMPOUND_CID>
3819217

>  <PUBCHEM_COMPOUND_CANONICALIZED>
1

>  <PUBCHEM_CACTVS_COMPLEXITY>
401

>  <PUBCHEM_CACTVS_HBOND_ACCEPTOR>
4

>  <PUBCHEM_CACTVS_HBOND_DONOR>
0

>  <PUBCHEM_CACTVS_ROTATABLE_BOND>
3

>  <PUBCHEM_CACTVS_SUBSKEYS>
AAADceBwOAAAAAAAAAAAAAAAEgAAAAAAAAAwQAAAAAAAAACBAAAAGgAAAAAADFSgmAIyDoAABACIAiDSCAACCAAgIAAIiAAGCMgMJyKEMRqCOiClwBUIqYfA4PwOIAACCAAIAABAAAQQABAAAAAAAAAAAA==

>  <PUBCHEM_IUPAC_OPENEYE_NAME>
8-[(3,3-dimethyloxiran-2-yl)methyl]-7-methoxy-chromen-2-one

>  <PUBCHEM_IUPAC_CAS_NAME>
8-[(3,3-dimethyl-2-oxiranyl)methyl]-7-methoxy-1-benzopyran-2-one

>  <PUBCHEM_IUPAC_NAME>
8-[(3,3-dimethyloxiran-2-yl)methyl]-7-methoxychromen-2-one

>  <PUBCHEM_IUPAC_SYSTEMATIC_NAME>
8-[(3,3-dimethyloxiran-2-yl)methyl]-7-methoxy-chromen-2-one

>  <PUBCHEM_IUPAC_TRADITIONAL_NAME>
8-[(3,3-dimethyloxiran-2-yl)methyl]-7-methoxy-coumarin

>  <PUBCHEM_IUPAC_INCHI>
InChI=1S/C15H16O4/c1-15(2)12(19-15)8-10-11(17-3)6-4-9-5-7-13(16)18-14(9)10/h4-7,12H,8H2,1-3H3

>  <PUBCHEM_IUPAC_INCHIKEY>
LSZONYLDFHGRDP-UHFFFAOYSA-N

>  <PUBCHEM_XLOGP3_AA>
2.5

>  <PUBCHEM_EXACT_MASS>
260.105

>  <PUBCHEM_MOLECULAR_FORMULA>
C15H16O4

>  <PUBCHEM_MOLECULAR_WEIGHT>
260.289

>  <PUBCHEM_OPENEYE_CAN_SMILES>
CC1(C(O1)CC2=C(C=CC3=C2OC(=O)C=C3)OC)C

>  <PUBCHEM_OPENEYE_ISO_SMILES>
CC1(C(O1)CC2=C(C=CC3=C2OC(=O)C=C3)OC)C

>  <PUBCHEM_CACTVS_TPSA>
48.1

>  <PUBCHEM_MONOISOTOPIC_WEIGHT>
260.105

>  <PUBCHEM_TOTAL_CHARGE>
0

>  <PUBCHEM_HEAVY_ATOM_COUNT>
19

>  <PUBCHEM_ATOM_DEF_STEREO_COUNT>
0

>  <PUBCHEM_ATOM_UDEF_STEREO_COUNT>
1

>  <PUBCHEM_BOND_DEF_STEREO_COUNT>
0

>  <PUBCHEM_BOND_UDEF_STEREO_COUNT>
0

>  <PUBCHEM_ISOTOPIC_ATOM_COUNT>
0

>  <PUBCHEM_COMPONENT_COUNT>
1

>  <PUBCHEM_CACTVS_TAUTO_COUNT>
1

>  <PUBCHEM_COORDINATE_TYPE>
1
5
255

>  <PUBCHEM_BONDANNOTATIONS>
10  11  8
10  12  8
11  13  8
12  14  8
13  15  8
13  16  8
14  15  8
16  18  8
17  18  8
2  11  8
2  17  8
6  7  3

$$$$
