382555
 OpenBabel06101807152D

 26 27  0  0  0  0  0  0  0  0999 V2000
    2.0000   -2.2207    0.0000 O   0  0  0  0  0  0  0  0  0  0  0  0
    5.6943   -2.0972    0.0000 O   0  0  0  0  0  0  0  0  0  0  0  0
    3.3175    1.2262    0.0000 C   0  0  0  0  0  0  0  0  0  0  0  0
    3.7953   -0.7224    0.0000 C   0  0  3  0  0  0  0  0  0  0  0  0
    4.0541    0.2436    0.0000 C   0  0  3  0  0  0  0  0  0  0  0  0
    2.0806   -0.3747    0.0000 C   0  0  0  0  0  0  0  0  0  0  0  0
    5.4531   -0.2653    0.0000 C   0  0  0  0  0  0  0  0  0  0  0  0
    2.4226   -1.3144    0.0000 C   0  0  0  0  0  0  0  0  0  0  0  0
    5.1943   -1.2312    0.0000 C   0  0  0  0  0  0  0  0  0  0  0  0
    3.4221    2.2207    0.0000 C   0  0  0  0  0  0  0  0  0  0  0  0
    2.4040    1.6329    0.0000 C   0  0  0  0  0  0  0  0  0  0  0  0
    3.5365   -1.6883    0.0000 C   0  0  0  0  0  0  0  0  0  0  0  0
    4.0401   -0.3763    0.0000 H   0  0  0  0  0  0  0  0  0  0  0  0
    6.0470   -0.4430    0.0000 H   0  0  0  0  0  0  0  0  0  0  0  0
    5.6480    0.3233    0.0000 H   0  0  0  0  0  0  0  0  0  0  0  0
    1.8863    0.2141    0.0000 H   0  0  0  0  0  0  0  0  0  0  0  0
    1.4948   -0.5779    0.0000 H   0  0  0  0  0  0  0  0  0  0  0  0
    4.0387    2.1559    0.0000 H   0  0  0  0  0  0  0  0  0  0  0  0
    3.4869    2.8373    0.0000 H   0  0  0  0  0  0  0  0  0  0  0  0
    2.8054    2.2855    0.0000 H   0  0  0  0  0  0  0  0  0  0  0  0
    2.6562    2.1993    0.0000 H   0  0  0  0  0  0  0  0  0  0  0  0
    1.8376    1.8851    0.0000 H   0  0  0  0  0  0  0  0  0  0  0  0
    2.1518    1.0665    0.0000 H   0  0  0  0  0  0  0  0  0  0  0  0
    2.9376   -1.5278    0.0000 H   0  0  0  0  0  0  0  0  0  0  0  0
    3.3760   -2.2872    0.0000 H   0  0  0  0  0  0  0  0  0  0  0  0
    4.1354   -1.8488    0.0000 H   0  0  0  0  0  0  0  0  0  0  0  0
  1  8  2  0  0  0  0
  2  9  2  0  0  0  0
  3  4  1  0  0  0  0
  3  5  1  0  0  0  0
  3 10  1  0  0  0  0
  3 11  1  0  0  0  0
  4  8  1  0  0  0  0
  4  9  1  0  0  0  0
  4 12  1  0  0  0  0
  5  6  1  0  0  0  0
  5  7  1  0  0  0  0
  5 13  1  0  0  0  0
  6  8  1  0  0  0  0
  6 16  1  0  0  0  0
  6 17  1  0  0  0  0
  7  9  1  0  0  0  0
  7 14  1  0  0  0  0
  7 15  1  0  0  0  0
 10 18  1  0  0  0  0
 10 19  1  0  0  0  0
 10 20  1  0  0  0  0
 11 21  1  0  0  0  0
 11 22  1  0  0  0  0
 11 23  1  0  0  0  0
 12 24  1  0  0  0  0
 12 25  1  0  0  0  0
 12 26  1  0  0  0  0
M  END
>  <PUBCHEM_COMPOUND_CID>
382555

>  <PUBCHEM_COMPOUND_CANONICALIZED>
1

>  <PUBCHEM_CACTVS_COMPLEXITY>
258

>  <PUBCHEM_CACTVS_HBOND_ACCEPTOR>
2

>  <PUBCHEM_CACTVS_HBOND_DONOR>
0

>  <PUBCHEM_CACTVS_ROTATABLE_BOND>
0

>  <PUBCHEM_CACTVS_SUBSKEYS>
AAADccBwMAAAAAAAAAAAAAAAAAAAAYMAAAAwAAAAAAAAAAAAAAAAGgAAAAAADwSAgAACAAAAAAAIAIAQAAAAAAAAAAAAAAEAAAAAABIIAAAAAAAAAAAAAAEIisCvgAAAAAAAAACAAAAAAAAAAQAACAAAAA==

>  <PUBCHEM_IUPAC_OPENEYE_NAME>
1,7,7-trimethylnorbornane-2,6-dione

>  <PUBCHEM_IUPAC_CAS_NAME>
4,7,7-trimethylbicyclo[2.2.1]heptane-3,5-dione

>  <PUBCHEM_IUPAC_NAME>
4,7,7-trimethylbicyclo[2.2.1]heptane-3,5-dione

>  <PUBCHEM_IUPAC_SYSTEMATIC_NAME>
4,7,7-trimethylbicyclo[2.2.1]heptane-3,5-dione

>  <PUBCHEM_IUPAC_TRADITIONAL_NAME>
1,7,7-trimethylnorbornane-2,6-quinone

>  <PUBCHEM_IUPAC_INCHI>
InChI=1S/C10H14O2/c1-9(2)6-4-7(11)10(9,3)8(12)5-6/h6H,4-5H2,1-3H3

>  <PUBCHEM_IUPAC_INCHIKEY>
PCEVUTCFZAQRKV-UHFFFAOYSA-N

>  <PUBCHEM_XLOGP3_AA>
1.2

>  <PUBCHEM_EXACT_MASS>
166.099

>  <PUBCHEM_MOLECULAR_FORMULA>
C10H14O2

>  <PUBCHEM_MOLECULAR_WEIGHT>
166.22

>  <PUBCHEM_OPENEYE_CAN_SMILES>
CC1(C2CC(=O)C1(C(=O)C2)C)C

>  <PUBCHEM_OPENEYE_ISO_SMILES>
CC1(C2CC(=O)C1(C(=O)C2)C)C

>  <PUBCHEM_CACTVS_TPSA>
34.1

>  <PUBCHEM_MONOISOTOPIC_WEIGHT>
166.099

>  <PUBCHEM_TOTAL_CHARGE>
0

>  <PUBCHEM_HEAVY_ATOM_COUNT>
12

>  <PUBCHEM_ATOM_DEF_STEREO_COUNT>
0

>  <PUBCHEM_ATOM_UDEF_STEREO_COUNT>
0

>  <PUBCHEM_BOND_DEF_STEREO_COUNT>
0

>  <PUBCHEM_BOND_UDEF_STEREO_COUNT>
0

>  <PUBCHEM_ISOTOPIC_ATOM_COUNT>
0

>  <PUBCHEM_COMPONENT_COUNT>
1

>  <PUBCHEM_CACTVS_TAUTO_COUNT>
3

>  <PUBCHEM_COORDINATE_TYPE>
1
5
255

$$$$
