384877
 OpenBabel06101807152D

 54 56  0  0  1  0  0  0  0  0999 V2000
    6.5468    2.8706    0.0000 O   0  0  0  0  0  0  0  0  0  0  0  0
    4.8255    3.3318    0.0000 O   0  0  0  0  0  0  0  0  0  0  0  0
    8.9035   -2.2910    0.0000 O   0  0  0  0  0  0  0  0  0  0  0  0
    2.8660   -1.8318    0.0000 O   0  0  0  0  0  0  0  0  0  0  0  0
   10.3898   -0.9528    0.0000 O   0  0  0  0  0  0  0  0  0  0  0  0
    4.5981   -2.8318    0.0000 O   0  0  0  0  0  0  0  0  0  0  0  0
    6.3776    1.2614    0.0000 C   0  0  2  0  0  0  0  0  0  0  0  0
    5.4641    1.6682    0.0000 C   0  0  1  0  0  0  0  0  0  0  0  0
    7.0468    2.0046    0.0000 C   0  0  0  0  0  0  0  0  0  0  0  0
    6.5856    0.2833    0.0000 C   0  0  0  0  0  0  0  0  0  0  0  0
    4.5981    1.1682    0.0000 C   0  0  0  0  0  0  0  0  0  0  0  0
    5.5686    2.6627    0.0000 C   0  0  0  0  0  0  0  0  0  0  0  0
    7.5366   -0.0257    0.0000 C   0  0  0  0  0  0  0  0  0  0  0  0
    4.5981    0.1682    0.0000 C   0  0  0  0  0  0  0  0  0  0  0  0
    7.7445   -1.0039    0.0000 C   0  0  0  0  0  0  0  0  0  0  0  0
    8.2798    0.6434    0.0000 C   0  0  0  0  0  0  0  0  0  0  0  0
    3.7320   -0.3318    0.0000 C   0  0  0  0  0  0  0  0  0  0  0  0
    5.4641   -0.3318    0.0000 C   0  0  0  0  0  0  0  0  0  0  0  0
    8.6956   -1.3129    0.0000 C   0  0  0  0  0  0  0  0  0  0  0  0
    3.7320   -1.3318    0.0000 C   0  0  0  0  0  0  0  0  0  0  0  0
    9.2308    0.3344    0.0000 C   0  0  0  0  0  0  0  0  0  0  0  0
    5.4641   -1.3318    0.0000 C   0  0  0  0  0  0  0  0  0  0  0  0
    9.4387   -0.6438    0.0000 C   0  0  0  0  0  0  0  0  0  0  0  0
    4.5981   -1.8318    0.0000 C   0  0  0  0  0  0  0  0  0  0  0  0
    9.8546   -2.6001    0.0000 C   0  0  0  0  0  0  0  0  0  0  0  0
    2.0000   -1.3318    0.0000 C   0  0  0  0  0  0  0  0  0  0  0  0
   11.1329   -0.2836    0.0000 C   0  0  0  0  0  0  0  0  0  0  0  0
    5.4641   -3.3318    0.0000 C   0  0  0  0  0  0  0  0  0  0  0  0
    5.8958    0.8713    0.0000 H   0  0  0  0  0  0  0  0  0  0  0  0
    4.9441    2.0058    0.0000 H   0  0  0  0  0  0  0  0  0  0  0  0
    7.4616    1.5438    0.0000 H   0  0  0  0  0  0  0  0  0  0  0  0
    7.5484    2.3690    0.0000 H   0  0  0  0  0  0  0  0  0  0  0  0
    5.9659    0.2617    0.0000 H   0  0  0  0  0  0  0  0  0  0  0  0
    6.4993   -0.3307    0.0000 H   0  0  0  0  0  0  0  0  0  0  0  0
    4.3860    1.7508    0.0000 H   0  0  0  0  0  0  0  0  0  0  0  0
    3.9875    1.0605    0.0000 H   0  0  0  0  0  0  0  0  0  0  0  0
    7.2838   -1.4187    0.0000 H   0  0  0  0  0  0  0  0  0  0  0  0
    8.1509    1.2498    0.0000 H   0  0  0  0  0  0  0  0  0  0  0  0
    3.1951   -0.0218    0.0000 H   0  0  0  0  0  0  0  0  0  0  0  0
    6.0010   -0.0218    0.0000 H   0  0  0  0  0  0  0  0  0  0  0  0
    9.6916    0.7492    0.0000 H   0  0  0  0  0  0  0  0  0  0  0  0
    6.0010   -1.6418    0.0000 H   0  0  0  0  0  0  0  0  0  0  0  0
    9.6630   -3.1897    0.0000 H   0  0  0  0  0  0  0  0  0  0  0  0
   10.4442   -2.7917    0.0000 H   0  0  0  0  0  0  0  0  0  0  0  0
   10.0461   -2.0104    0.0000 H   0  0  0  0  0  0  0  0  0  0  0  0
    2.3100   -0.7949    0.0000 H   0  0  0  0  0  0  0  0  0  0  0  0
    1.4631   -1.0218    0.0000 H   0  0  0  0  0  0  0  0  0  0  0  0
    1.6900   -1.8688    0.0000 H   0  0  0  0  0  0  0  0  0  0  0  0
   11.5478   -0.7444    0.0000 H   0  0  0  0  0  0  0  0  0  0  0  0
   11.5937    0.1312    0.0000 H   0  0  0  0  0  0  0  0  0  0  0  0
   10.7181    0.1771    0.0000 H   0  0  0  0  0  0  0  0  0  0  0  0
    5.1541   -3.8688    0.0000 H   0  0  0  0  0  0  0  0  0  0  0  0
    6.0010   -3.6418    0.0000 H   0  0  0  0  0  0  0  0  0  0  0  0
    5.7741   -2.7949    0.0000 H   0  0  0  0  0  0  0  0  0  0  0  0
  1  9  1  0  0  0  0
  1 12  1  0  0  0  0
  2 12  2  0  0  0  0
  3 19  1  0  0  0  0
  3 25  1  0  0  0  0
  4 20  1  0  0  0  0
  4 26  1  0  0  0  0
  5 23  1  0  0  0  0
  5 27  1  0  0  0  0
  6 24  1  0  0  0  0
  6 28  1  0  0  0  0
  7  8  1  6  0  0  0
  7  9  1  0  0  0  0
  7 10  1  0  0  0  0
  7 29  1  0  0  0  0
  8 11  1  0  0  0  0
  8 12  1  0  0  0  0
  8 30  1  6  0  0  0
  9 31  1  0  0  0  0
  9 32  1  0  0  0  0
 10 13  1  0  0  0  0
 10 33  1  0  0  0  0
 10 34  1  0  0  0  0
 11 14  1  0  0  0  0
 11 35  1  0  0  0  0
 11 36  1  0  0  0  0
 13 15  2  0  0  0  0
 13 16  1  0  0  0  0
 14 17  2  0  0  0  0
 14 18  1  0  0  0  0
 15 19  1  0  0  0  0
 15 37  1  0  0  0  0
 16 21  2  0  0  0  0
 16 38  1  0  0  0  0
 17 20  1  0  0  0  0
 17 39  1  0  0  0  0
 18 22  2  0  0  0  0
 18 40  1  0  0  0  0
 19 23  2  0  0  0  0
 20 24  2  0  0  0  0
 21 23  1  0  0  0  0
 21 41  1  0  0  0  0
 22 24  1  0  0  0  0
 22 42  1  0  0  0  0
 25 43  1  0  0  0  0
 25 44  1  0  0  0  0
 25 45  1  0  0  0  0
 26 46  1  0  0  0  0
 26 47  1  0  0  0  0
 26 48  1  0  0  0  0
 27 49  1  0  0  0  0
 27 50  1  0  0  0  0
 27 51  1  0  0  0  0
 28 52  1  0  0  0  0
 28 53  1  0  0  0  0
 28 54  1  0  0  0  0
M  END
>  <PUBCHEM_COMPOUND_CID>
384877

>  <PUBCHEM_COMPOUND_CANONICALIZED>
1

>  <PUBCHEM_CACTVS_COMPLEXITY>
497

>  <PUBCHEM_CACTVS_HBOND_ACCEPTOR>
6

>  <PUBCHEM_CACTVS_HBOND_DONOR>
0

>  <PUBCHEM_CACTVS_ROTATABLE_BOND>
8

>  <PUBCHEM_CACTVS_SUBSKEYS>
AAADceB4OAAAAAAAAAAAAAAAAAAAASAAAAAwYAAAAAAAAAABQAAAGgAAAAAADQSgmAIyDoAABACIAiDSCAACCAAgIAAIiAEGiIgNJjKEMRqCMCIkwBEKqAeKyPCOoAABAAAAQABAAAIAAACAAAAAAAAAAA==

>  <PUBCHEM_IUPAC_OPENEYE_NAME>
(3R,4R)-3,4-bis[(3,4-dimethoxyphenyl)methyl]tetrahydrofuran-2-one

>  <PUBCHEM_IUPAC_CAS_NAME>
(3R,4R)-3,4-bis[(3,4-dimethoxyphenyl)methyl]-2-oxolanone

>  <PUBCHEM_IUPAC_NAME>
(3R,4R)-3,4-bis[(3,4-dimethoxyphenyl)methyl]oxolan-2-one

>  <PUBCHEM_IUPAC_SYSTEMATIC_NAME>
(3R,4R)-3,4-bis[(3,4-dimethoxyphenyl)methyl]oxolan-2-one

>  <PUBCHEM_IUPAC_TRADITIONAL_NAME>
(3R,4R)-3,4-diveratryltetrahydrofuran-2-one

>  <PUBCHEM_IUPAC_INCHI>
InChI=1S/C22H26O6/c1-24-18-7-5-14(11-20(18)26-3)9-16-13-28-22(23)17(16)10-15-6-8-19(25-2)21(12-15)27-4/h5-8,11-12,16-17H,9-10,13H2,1-4H3/t16-,17+/m0/s1

>  <PUBCHEM_IUPAC_INCHIKEY>
SNAOLIMFHAAIER-DLBZAZTESA-N

>  <PUBCHEM_XLOGP3_AA>
3.9

>  <PUBCHEM_EXACT_MASS>
386.173

>  <PUBCHEM_MOLECULAR_FORMULA>
C22H26O6

>  <PUBCHEM_MOLECULAR_WEIGHT>
386.444

>  <PUBCHEM_OPENEYE_CAN_SMILES>
COC1=C(C=C(C=C1)CC2COC(=O)C2CC3=CC(=C(C=C3)OC)OC)OC

>  <PUBCHEM_OPENEYE_ISO_SMILES>
COC1=C(C=C(C=C1)C[C@H]2COC(=O)[C@@H]2CC3=CC(=C(C=C3)OC)OC)OC

>  <PUBCHEM_CACTVS_TPSA>
63.2

>  <PUBCHEM_MONOISOTOPIC_WEIGHT>
386.173

>  <PUBCHEM_TOTAL_CHARGE>
0

>  <PUBCHEM_HEAVY_ATOM_COUNT>
28

>  <PUBCHEM_ATOM_DEF_STEREO_COUNT>
2

>  <PUBCHEM_ATOM_UDEF_STEREO_COUNT>
0

>  <PUBCHEM_BOND_DEF_STEREO_COUNT>
0

>  <PUBCHEM_BOND_UDEF_STEREO_COUNT>
0

>  <PUBCHEM_ISOTOPIC_ATOM_COUNT>
0

>  <PUBCHEM_COMPONENT_COUNT>
1

>  <PUBCHEM_CACTVS_TAUTO_COUNT>
2

>  <PUBCHEM_COORDINATE_TYPE>
1
5
255

>  <PUBCHEM_BONDANNOTATIONS>
13  15  8
13  16  8
14  17  8
14  18  8
15  19  8
16  21  8
17  20  8
18  22  8
19  23  8
20  24  8
21  23  8
22  24  8
7  10  6
8  11  5

$$$$
