3879
 OpenBabel06101807152D

145153  0  0  1  0  0  0  0  0999 V2000
   21.7823    0.9837    0.0000 O   0  0  0  0  0  0  0  0  0  0  0  0
   20.9028   -2.5129    0.0000 O   0  0  0  0  0  0  0  0  0  0  0  0
   16.3933    2.0569    0.0000 O   0  0  0  0  0  0  0  0  0  0  0  0
   23.0232   -3.8944    0.0000 O   0  0  0  0  0  0  0  0  0  0  0  0
   14.6613    2.0569    0.0000 O   0  0  0  0  0  0  0  0  0  0  0  0
   24.7827   -4.1769    0.0000 O   0  0  0  0  0  0  0  0  0  0  0  0
   14.6613   -0.9431    0.0000 O   0  0  0  0  0  0  0  0  0  0  0  0
   12.9292    0.0569    0.0000 O   0  0  0  0  0  0  0  0  0  0  0  0
   12.0632    1.5569    0.0000 O   0  0  0  0  0  0  0  0  0  0  0  0
    9.4651    2.0569    0.0000 O   0  0  0  0  0  0  0  0  0  0  0  0
    9.4651    0.0569    0.0000 O   0  0  0  0  0  0  0  0  0  0  0  0
    7.7331    2.0569    0.0000 O   0  0  0  0  0  0  0  0  0  0  0  0
    6.0010    0.0569    0.0000 O   0  0  0  0  0  0  0  0  0  0  0  0
    7.7331   -0.9431    0.0000 O   0  0  0  0  0  0  0  0  0  0  0  0
    5.1350    1.5569    0.0000 O   0  0  0  0  0  0  0  0  0  0  0  0
    4.2690   -0.9431    0.0000 O   0  0  0  0  0  0  0  0  0  0  0  0
    2.5369    0.0569    0.0000 O   0  0  0  0  0  0  0  0  0  0  0  0
    2.5369    2.0569    0.0000 O   0  0  0  0  0  0  0  0  0  0  0  0
    3.4030    3.5569    0.0000 O   0  0  0  0  0  0  0  0  0  0  0  0
    6.0010   -0.9431    0.0000 O   0  0  0  0  0  0  0  0  0  0  0  0
   21.7785   -0.0162    0.0000 C   0  0  3  0  0  0  0  0  0  0  0  0
   20.9144    0.4871    0.0000 C   0  0  3  0  0  0  0  0  0  0  0  0
   20.0464   -0.0096    0.0000 C   0  0  3  0  0  0  0  0  0  0  0  0
   21.7746   -1.0162    0.0000 C   0  0  3  0  0  0  0  0  0  0  0  0
   19.1384    0.5008    0.0000 C   0  0  3  0  0  0  0  0  0  0  0  0
   19.1344    1.5424    0.0000 C   0  0  3  0  0  0  0  0  0  0  0  0
   20.9067   -1.5129    0.0000 C   0  0  3  0  0  0  0  0  0  0  0  0
   20.0426   -1.0096    0.0000 C   0  0  0  0  0  0  0  0  0  0  0  0
   22.7197   -1.3246    0.0000 C   0  0  3  0  0  0  0  0  0  0  0  0
   22.7259    0.2848    0.0000 C   0  0  0  0  0  0  0  0  0  0  0  0
   20.9345    1.5285    0.0000 C   0  0  0  0  0  0  0  0  0  0  0  0
   20.0385    2.0597    0.0000 C   0  0  0  0  0  0  0  0  0  0  0  0
   23.3064   -0.5221    0.0000 C   0  0  0  0  0  0  0  0  0  0  0  0
   18.2094   -0.0597    0.0000 C   0  0  0  0  0  0  0  0  0  0  0  0
   21.7708   -2.0162    0.0000 C   0  0  0  0  0  0  0  0  0  0  0  0
   18.2011    2.0957    0.0000 C   0  0  0  0  0  0  0  0  0  0  0  0
   19.1423   -0.4992    0.0000 C   0  0  0  0  0  0  0  0  0  0  0  0
   17.2635    0.4719    0.0000 C   0  0  0  0  0  0  0  0  0  0  0  0
   17.2594    1.5569    0.0000 C   0  0  3  0  0  0  0  0  0  0  0  0
   23.0267   -2.2763    0.0000 C   0  0  0  0  0  0  0  0  0  0  0  0
   22.4372   -3.0841    0.0000 C   0  0  0  0  0  0  0  0  0  0  0  0
   23.9771   -2.5874    0.0000 C   0  0  0  0  0  0  0  0  0  0  0  0
   23.9749   -3.5874    0.0000 C   0  0  0  0  0  0  0  0  0  0  0  0
   15.5273    1.5569    0.0000 C   0  0  3  0  0  0  0  0  0  0  0  0
   15.5273    0.5569    0.0000 C   0  0  0  0  0  0  0  0  0  0  0  0
   14.6613    0.0569    0.0000 C   0  0  3  0  0  0  0  0  0  0  0  0
   13.7953    1.5569    0.0000 C   0  0  3  0  0  0  0  0  0  0  0  0
   13.7953    0.5569    0.0000 C   0  0  3  0  0  0  0  0  0  0  0  0
   12.9292    2.0569    0.0000 C   0  0  0  0  0  0  0  0  0  0  0  0
   12.0632    0.5569    0.0000 C   0  0  3  0  0  0  0  0  0  0  0  0
   11.1972    0.0569    0.0000 C   0  0  0  0  0  0  0  0  0  0  0  0
   10.3312    0.5569    0.0000 C   0  0  3  0  0  0  0  0  0  0  0  0
   11.1972    2.0569    0.0000 C   0  0  3  0  0  0  0  0  0  0  0  0
   10.3312    1.5569    0.0000 C   0  0  3  0  0  0  0  0  0  0  0  0
   11.1972    3.0569    0.0000 C   0  0  0  0  0  0  0  0  0  0  0  0
    8.5991    1.5569    0.0000 C   0  0  3  0  0  0  0  0  0  0  0  0
    8.5991    0.5569    0.0000 C   0  0  0  0  0  0  0  0  0  0  0  0
    7.7331    0.0569    0.0000 C   0  0  3  0  0  0  0  0  0  0  0  0
    6.8671    0.5569    0.0000 C   0  0  3  0  0  0  0  0  0  0  0  0
    6.8671    1.5569    0.0000 C   0  0  3  0  0  0  0  0  0  0  0  0
    6.0010    2.0569    0.0000 C   0  0  0  0  0  0  0  0  0  0  0  0
    5.1350    0.5569    0.0000 C   0  0  3  0  0  0  0  0  0  0  0  0
    4.2690    0.0569    0.0000 C   0  0  3  0  0  0  0  0  0  0  0  0
    3.4030    0.5569    0.0000 C   0  0  3  0  0  0  0  0  0  0  0  0
    3.4030    1.5569    0.0000 C   0  0  3  0  0  0  0  0  0  0  0  0
    4.2690    2.0569    0.0000 C   0  0  3  0  0  0  0  0  0  0  0  0
    6.8671   -1.4431    0.0000 C   0  0  0  0  0  0  0  0  0  0  0  0
    4.2690    3.0569    0.0000 C   0  0  0  0  0  0  0  0  0  0  0  0
    6.8671   -2.4431    0.0000 C   0  0  0  0  0  0  0  0  0  0  0  0
   21.4549    0.7909    0.0000 H   0  0  0  0  0  0  0  0  0  0  0  0
   20.5822   -0.3216    0.0000 H   0  0  0  0  0  0  0  0  0  0  0  0
   19.1392    2.1624    0.0000 H   0  0  0  0  0  0  0  0  0  0  0  0
   20.3685   -1.8208    0.0000 H   0  0  0  0  0  0  0  0  0  0  0  0
   19.4324   -0.8995    0.0000 H   0  0  0  0  0  0  0  0  0  0  0  0
   19.8283   -1.5914    0.0000 H   0  0  0  0  0  0  0  0  0  0  0  0
   23.3318   -1.4232    0.0000 H   0  0  0  0  0  0  0  0  0  0  0  0
   23.2644    0.5920    0.0000 H   0  0  0  0  0  0  0  0  0  0  0  0
   22.4770    0.8527    0.0000 H   0  0  0  0  0  0  0  0  0  0  0  0
   21.5432    1.4107    0.0000 H   0  0  0  0  0  0  0  0  0  0  0  0
   21.1547    2.1081    0.0000 H   0  0  0  0  0  0  0  0  0  0  0  0
   20.4412    2.5311    0.0000 H   0  0  0  0  0  0  0  0  0  0  0  0
   19.6430    2.5372    0.0000 H   0  0  0  0  0  0  0  0  0  0  0  0
   23.7656   -0.9386    0.0000 H   0  0  0  0  0  0  0  0  0  0  0  0
   23.7688   -0.1092    0.0000 H   0  0  0  0  0  0  0  0  0  0  0  0
   17.8176   -0.5403    0.0000 H   0  0  0  0  0  0  0  0  0  0  0  0
   18.6158   -0.5279    0.0000 H   0  0  0  0  0  0  0  0  0  0  0  0
   21.1508   -2.0138    0.0000 H   0  0  0  0  0  0  0  0  0  0  0  0
   21.7684   -2.6362    0.0000 H   0  0  0  0  0  0  0  0  0  0  0  0
   22.3908   -2.0186    0.0000 H   0  0  0  0  0  0  0  0  0  0  0  0
   18.6039    2.5671    0.0000 H   0  0  0  0  0  0  0  0  0  0  0  0
   17.8056    2.5732    0.0000 H   0  0  0  0  0  0  0  0  0  0  0  0
   18.5223   -0.5016    0.0000 H   0  0  0  0  0  0  0  0  0  0  0  0
   19.1446   -1.1192    0.0000 H   0  0  0  0  0  0  0  0  0  0  0  0
   19.7622   -0.4968    0.0000 H   0  0  0  0  0  0  0  0  0  0  0  0
   16.6523    0.5756    0.0000 H   0  0  0  0  0  0  0  0  0  0  0  0
   17.0567   -0.1126    0.0000 H   0  0  0  0  0  0  0  0  0  0  0  0
   16.7230    1.2458    0.0000 H   0  0  0  0  0  0  0  0  0  0  0  0
   22.3205    1.2917    0.0000 H   0  0  0  0  0  0  0  0  0  0  0  0
   20.3647   -2.8208    0.0000 H   0  0  0  0  0  0  0  0  0  0  0  0
   21.9773   -2.6682    0.0000 H   0  0  0  0  0  0  0  0  0  0  0  0
   21.9755   -3.4980    0.0000 H   0  0  0  0  0  0  0  0  0  0  0  0
   24.4794   -2.2240    0.0000 H   0  0  0  0  0  0  0  0  0  0  0  0
   15.5273    2.1769    0.0000 H   0  0  0  0  0  0  0  0  0  0  0  0
   15.7394   -0.0257    0.0000 H   0  0  0  0  0  0  0  0  0  0  0  0
   16.1379    0.6645    0.0000 H   0  0  0  0  0  0  0  0  0  0  0  0
   14.1244   -0.2531    0.0000 H   0  0  0  0  0  0  0  0  0  0  0  0
   13.7953    2.1769    0.0000 H   0  0  0  0  0  0  0  0  0  0  0  0
   13.2583    0.8669    0.0000 H   0  0  0  0  0  0  0  0  0  0  0  0
   13.2392    2.5938    0.0000 H   0  0  0  0  0  0  0  0  0  0  0  0
   12.3923    2.3669    0.0000 H   0  0  0  0  0  0  0  0  0  0  0  0
   12.6192    1.5199    0.0000 H   0  0  0  0  0  0  0  0  0  0  0  0
   15.1982   -1.2531    0.0000 H   0  0  0  0  0  0  0  0  0  0  0  0
   12.0632   -0.0631    0.0000 H   0  0  0  0  0  0  0  0  0  0  0  0
   10.7987   -0.4181    0.0000 H   0  0  0  0  0  0  0  0  0  0  0  0
   11.5957   -0.4181    0.0000 H   0  0  0  0  0  0  0  0  0  0  0  0
    9.7942    0.8669    0.0000 H   0  0  0  0  0  0  0  0  0  0  0  0
   11.7341    2.3669    0.0000 H   0  0  0  0  0  0  0  0  0  0  0  0
   10.3312    2.1769    0.0000 H   0  0  0  0  0  0  0  0  0  0  0  0
   11.8172    3.0569    0.0000 H   0  0  0  0  0  0  0  0  0  0  0  0
   11.1972    3.6769    0.0000 H   0  0  0  0  0  0  0  0  0  0  0  0
   10.5772    3.0569    0.0000 H   0  0  0  0  0  0  0  0  0  0  0  0
    9.4651   -0.5631    0.0000 H   0  0  0  0  0  0  0  0  0  0  0  0
    8.5991    2.1769    0.0000 H   0  0  0  0  0  0  0  0  0  0  0  0
    8.8112   -0.0257    0.0000 H   0  0  0  0  0  0  0  0  0  0  0  0
    9.2097    0.6645    0.0000 H   0  0  0  0  0  0  0  0  0  0  0  0
    8.2700   -0.2531    0.0000 H   0  0  0  0  0  0  0  0  0  0  0  0
    6.3301    0.8669    0.0000 H   0  0  0  0  0  0  0  0  0  0  0  0
    6.8671    2.1769    0.0000 H   0  0  0  0  0  0  0  0  0  0  0  0
    6.3110    2.5938    0.0000 H   0  0  0  0  0  0  0  0  0  0  0  0
    5.4641    2.3669    0.0000 H   0  0  0  0  0  0  0  0  0  0  0  0
    5.6910    1.5199    0.0000 H   0  0  0  0  0  0  0  0  0  0  0  0
    5.1350   -0.0631    0.0000 H   0  0  0  0  0  0  0  0  0  0  0  0
    3.7320   -0.2531    0.0000 H   0  0  0  0  0  0  0  0  0  0  0  0
    2.8660    0.8669    0.0000 H   0  0  0  0  0  0  0  0  0  0  0  0
    3.4030    2.1769    0.0000 H   0  0  0  0  0  0  0  0  0  0  0  0
    4.8059    2.3669    0.0000 H   0  0  0  0  0  0  0  0  0  0  0  0
    4.8796    2.9492    0.0000 H   0  0  0  0  0  0  0  0  0  0  0  0
    4.4810    3.6395    0.0000 H   0  0  0  0  0  0  0  0  0  0  0  0
    3.7320   -1.2531    0.0000 H   0  0  0  0  0  0  0  0  0  0  0  0
    2.0000    0.3669    0.0000 H   0  0  0  0  0  0  0  0  0  0  0  0
    2.0000    1.7469    0.0000 H   0  0  0  0  0  0  0  0  0  0  0  0
    6.2471   -2.4431    0.0000 H   0  0  0  0  0  0  0  0  0  0  0  0
    6.8671   -3.0631    0.0000 H   0  0  0  0  0  0  0  0  0  0  0  0
    7.4871   -2.4431    0.0000 H   0  0  0  0  0  0  0  0  0  0  0  0
    3.4030    4.1769    0.0000 H   0  0  0  0  0  0  0  0  0  0  0  0
  1 21  1  0  0  0  0
  1 98  1  0  0  0  0
  2 27  1  0  0  0  0
  2 99  1  0  0  0  0
  3 39  1  0  0  0  0
  3 44  1  0  0  0  0
  4 41  1  0  0  0  0
  4 43  1  0  0  0  0
  5 44  1  0  0  0  0
  5 47  1  0  0  0  0
  6 43  2  0  0  0  0
  7 46  1  0  0  0  0
  7112  1  0  0  0  0
  8 48  1  0  0  0  0
  8 50  1  0  0  0  0
  9 50  1  0  0  0  0
  9 53  1  0  0  0  0
 10 54  1  0  0  0  0
 10 56  1  0  0  0  0
 11 52  1  0  0  0  0
 11122  1  0  0  0  0
 12 56  1  0  0  0  0
 12 60  1  0  0  0  0
 13 59  1  0  0  0  0
 13 62  1  0  0  0  0
 14 58  1  0  0  0  0
 14 67  1  0  0  0  0
 15 62  1  0  0  0  0
 15 66  1  0  0  0  0
 16 63  1  0  0  0  0
 16139  1  0  0  0  0
 17 64  1  0  0  0  0
 17140  1  0  0  0  0
 18 65  1  0  0  0  0
 18141  1  0  0  0  0
 19 68  1  0  0  0  0
 19145  1  0  0  0  0
 20 67  2  0  0  0  0
 21 22  1  0  0  0  0
 21 24  1  0  0  0  0
 21 30  1  0  0  0  0
 22 23  1  0  0  0  0
 22 31  1  0  0  0  0
 22 70  1  0  0  0  0
 23 25  1  0  0  0  0
 23 28  1  0  0  0  0
 23 71  1  0  0  0  0
 24 27  1  0  0  0  0
 24 29  1  0  0  0  0
 24 35  1  0  0  0  0
 25 26  1  0  0  0  0
 25 34  1  0  0  0  0
 25 37  1  0  0  0  0
 26 32  1  0  0  0  0
 26 36  1  0  0  0  0
 26 72  1  0  0  0  0
 27 28  1  0  0  0  0
 27 73  1  0  0  0  0
 28 74  1  0  0  0  0
 28 75  1  0  0  0  0
 29 33  1  0  0  0  0
 29 40  1  0  0  0  0
 29 76  1  0  0  0  0
 30 33  1  0  0  0  0
 30 77  1  0  0  0  0
 30 78  1  0  0  0  0
 31 32  1  0  0  0  0
 31 79  1  0  0  0  0
 31 80  1  0  0  0  0
 32 81  1  0  0  0  0
 32 82  1  0  0  0  0
 33 83  1  0  0  0  0
 33 84  1  0  0  0  0
 34 38  1  0  0  0  0
 34 85  1  0  0  0  0
 34 86  1  0  0  0  0
 35 87  1  0  0  0  0
 35 88  1  0  0  0  0
 35 89  1  0  0  0  0
 36 39  1  0  0  0  0
 36 90  1  0  0  0  0
 36 91  1  0  0  0  0
 37 92  1  0  0  0  0
 37 93  1  0  0  0  0
 37 94  1  0  0  0  0
 38 39  1  0  0  0  0
 38 95  1  0  0  0  0
 38 96  1  0  0  0  0
 39 97  1  0  0  0  0
 40 41  1  0  0  0  0
 40 42  2  0  0  0  0
 41100  1  0  0  0  0
 41101  1  0  0  0  0
 42 43  1  0  0  0  0
 42102  1  0  0  0  0
 44 45  1  0  0  0  0
 44103  1  0  0  0  0
 45 46  1  0  0  0  0
 45104  1  0  0  0  0
 45105  1  0  0  0  0
 46 48  1  0  0  0  0
 46106  1  0  0  0  0
 47 48  1  0  0  0  0
 47 49  1  0  0  0  0
 47107  1  0  0  0  0
 48108  1  0  0  0  0
 49109  1  0  0  0  0
 49110  1  0  0  0  0
 49111  1  0  0  0  0
 50 51  1  0  0  0  0
 50113  1  0  0  0  0
 51 52  1  0  0  0  0
 51114  1  0  0  0  0
 51115  1  0  0  0  0
 52 54  1  0  0  0  0
 52116  1  0  0  0  0
 53 54  1  0  0  0  0
 53 55  1  0  0  0  0
 53117  1  0  0  0  0
 54118  1  0  0  0  0
 55119  1  0  0  0  0
 55120  1  0  0  0  0
 55121  1  0  0  0  0
 56 57  1  0  0  0  0
 56123  1  0  0  0  0
 57 58  1  0  0  0  0
 57124  1  0  0  0  0
 57125  1  0  0  0  0
 58 59  1  0  0  0  0
 58126  1  0  0  0  0
 59 60  1  0  0  0  0
 59127  1  0  0  0  0
 60 61  1  0  0  0  0
 60128  1  0  0  0  0
 61129  1  0  0  0  0
 61130  1  0  0  0  0
 61131  1  0  0  0  0
 62 63  1  0  0  0  0
 62132  1  0  0  0  0
 63 64  1  0  0  0  0
 63133  1  0  0  0  0
 64 65  1  0  0  0  0
 64134  1  0  0  0  0
 65 66  1  0  0  0  0
 65135  1  0  0  0  0
 66 68  1  0  0  0  0
 66136  1  0  0  0  0
 67 69  1  0  0  0  0
 68137  1  0  0  0  0
 68138  1  0  0  0  0
 69142  1  0  0  0  0
 69143  1  0  0  0  0
 69144  1  0  0  0  0
M  END
>  <PUBCHEM_COMPOUND_CID>
3879

>  <PUBCHEM_COMPOUND_CANONICALIZED>
1

>  <PUBCHEM_CACTVS_COMPLEXITY>
1870

>  <PUBCHEM_CACTVS_HBOND_ACCEPTOR>
20

>  <PUBCHEM_CACTVS_HBOND_DONOR>
8

>  <PUBCHEM_CACTVS_ROTATABLE_BOND>
12

>  <PUBCHEM_CACTVS_SUBSKEYS>
AAADcfB8PgAAAAAAAAAAAAAAAAAAAYIAAAA0aNEiAAAAAGDAAAAAGgAACAAAD1SwgAMCCAAABgCIAiDSCAAAAAAgAAAACAAAAEgRFAIAIQAiUAAFgAAPIQPA4PwPgAAAAAAAAADAAAYQADAAAYAADAAAAA==

>  <PUBCHEM_IUPAC_OPENEYE_NAME>
[6-[6-[6-[[12,14-dihydroxy-10,13-dimethyl-17-(5-oxo-2H-furan-3-yl)-1,2,3,4,5,6,7,8,9,11,12,15,16,17-tetradecahydrocyclopenta[a]phenanthren-3-yl]oxy]-4-hydroxy-2-methyl-tetrahydropyran-3-yl]oxy-4-hydroxy-2-methyl-tetrahydropyran-3-yl]oxy-2-methyl-3-[3,4,5-trihydroxy-6-(hydroxymethyl)tetrahydropyran-2-yl]oxy-tetrahydropyran-4-yl] acetate

>  <PUBCHEM_IUPAC_CAS_NAME>
acetic acid [6-[[6-[[6-[[12,14-dihydroxy-10,13-dimethyl-17-(5-oxo-2H-furan-3-yl)-1,2,3,4,5,6,7,8,9,11,12,15,16,17-tetradecahydrocyclopenta[a]phenanthren-3-yl]oxy]-4-hydroxy-2-methyl-3-oxanyl]oxy]-4-hydroxy-2-methyl-3-oxanyl]oxy]-2-methyl-3-[[3,4,5-trihydroxy-6-(hydroxymethyl)-2-oxanyl]oxy]-4-oxanyl] ester

>  <PUBCHEM_IUPAC_NAME>
[6-[6-[6-[[12,14-dihydroxy-10,13-dimethyl-17-(5-oxo-2H-furan-3-yl)-1,2,3,4,5,6,7,8,9,11,12,15,16,17-tetradecahydrocyclopenta[a]phenanthren-3-yl]oxy]-4-hydroxy-2-methyloxan-3-yl]oxy-4-hydroxy-2-methyloxan-3-yl]oxy-2-methyl-3-[3,4,5-trihydroxy-6-(hydroxymethyl)oxan-2-yl]oxyoxan-4-yl] acetate

>  <PUBCHEM_IUPAC_SYSTEMATIC_NAME>
[6-[6-[6-[[10,13-dimethyl-12,14-bis(oxidanyl)-17-(5-oxidanylidene-2H-furan-3-yl)-1,2,3,4,5,6,7,8,9,11,12,15,16,17-tetradecahydrocyclopenta[a]phenanthren-3-yl]oxy]-2-methyl-4-oxidanyl-oxan-3-yl]oxy-2-methyl-4-oxidanyl-oxan-3-yl]oxy-3-[6-(hydroxymethyl)-3,4,5-tris(oxidanyl)oxan-2-yl]oxy-2-methyl-oxan-4-yl] ethanoate

>  <PUBCHEM_IUPAC_TRADITIONAL_NAME>
acetic acid [6-[6-[6-[[12,14-dihydroxy-17-(5-keto-2H-furan-3-yl)-10,13-dimethyl-1,2,3,4,5,6,7,8,9,11,12,15,16,17-tetradecahydrocyclopenta[a]phenanthren-3-yl]oxy]-4-hydroxy-2-methyl-tetrahydropyran-3-yl]oxy-4-hydroxy-2-methyl-tetrahydropyran-3-yl]oxy-2-methyl-3-(3,4,5-trihydroxy-6-methylol-tetrahydropyran-2-yl)oxy-tetrahydropyran-4-yl] ester

>  <PUBCHEM_IUPAC_INCHI>
InChI=1S/C49H76O20/c1-21-43(67-38-17-32(53)44(22(2)62-38)68-39-18-33(64-24(4)51)45(23(3)63-39)69-46-42(58)41(57)40(56)34(19-50)66-46)31(52)16-37(61-21)65-27-9-11-47(5)26(14-27)7-8-29-30(47)15-35(54)48(6)28(10-12-49(29,48)59)25-13-36(55)60-20-25/h13,21-23,26-35,37-46,50,52-54,56-59H,7-12,14-20H2,1-6H3

>  <PUBCHEM_IUPAC_INCHIKEY>
JAYAGJDXJIDEKI-UHFFFAOYSA-N

>  <PUBCHEM_XLOGP3>
0.2

>  <PUBCHEM_EXACT_MASS>
984.493

>  <PUBCHEM_MOLECULAR_FORMULA>
C49H76O20

>  <PUBCHEM_MOLECULAR_WEIGHT>
985.127

>  <PUBCHEM_OPENEYE_CAN_SMILES>
CC1C(C(CC(O1)OC2CCC3(C(C2)CCC4C3CC(C5(C4(CCC5C6=CC(=O)OC6)O)C)O)C)O)OC7CC(C(C(O7)C)OC8CC(C(C(O8)C)OC9C(C(C(C(O9)CO)O)O)O)OC(=O)C)O

>  <PUBCHEM_OPENEYE_ISO_SMILES>
CC1C(C(CC(O1)OC2CCC3(C(C2)CCC4C3CC(C5(C4(CCC5C6=CC(=O)OC6)O)C)O)C)O)OC7CC(C(C(O7)C)OC8CC(C(C(O8)C)OC9C(C(C(C(O9)CO)O)O)O)OC(=O)C)O

>  <PUBCHEM_CACTVS_TPSA>
288

>  <PUBCHEM_MONOISOTOPIC_WEIGHT>
984.493

>  <PUBCHEM_TOTAL_CHARGE>
0

>  <PUBCHEM_HEAVY_ATOM_COUNT>
69

>  <PUBCHEM_ATOM_DEF_STEREO_COUNT>
0

>  <PUBCHEM_ATOM_UDEF_STEREO_COUNT>
26

>  <PUBCHEM_BOND_DEF_STEREO_COUNT>
0

>  <PUBCHEM_BOND_UDEF_STEREO_COUNT>
0

>  <PUBCHEM_ISOTOPIC_ATOM_COUNT>
0

>  <PUBCHEM_COMPONENT_COUNT>
1

>  <PUBCHEM_CACTVS_TAUTO_COUNT>
1

>  <PUBCHEM_COORDINATE_TYPE>
1
5
255

>  <PUBCHEM_BONDANNOTATIONS>
21  1  3
54  10  3
56  10  3
52  11  3
59  13  3
62  13  3
58  14  3
63  16  3
64  17  3
65  18  3
27  2  3
22  31  3
23  28  3
24  35  3
25  37  3
26  32  3
29  40  3
39  3  3
44  3  3
47  49  3
53  55  3
60  61  3
66  68  3
46  7  3
48  8  3
50  8  3

$$$$
