389572
 OpenBabel06101807152D

 51 54  0  0  0  0  0  0  0  0999 V2000
    6.3981   -0.1837    0.0000 S   0  0  0  0  0  0  0  0  0  0  0  0
    7.3981   -0.1837    0.0000 O   0  0  0  0  0  0  0  0  0  0  0  0
    5.3981   -0.1837    0.0000 O   0  0  0  0  0  0  0  0  0  0  0  0
    6.3981    2.8163    0.0000 N   0  0  0  0  0  0  0  0  0  0  0  0
    4.6660    2.8163    0.0000 N   0  0  0  0  0  0  0  0  0  0  0  0
    6.3981    0.8163    0.0000 N   0  0  0  0  0  0  0  0  0  0  0  0
    4.6660    0.8163    0.0000 N   0  0  0  0  0  0  0  0  0  0  0  0
    6.3981   -4.1837    0.0000 N   0  0  0  0  0  0  0  0  0  0  0  0
    8.5452    3.4786    0.0000 C   0  0  0  0  0  0  0  0  0  0  0  0
    8.0452    4.3446    0.0000 C   0  0  0  0  0  0  0  0  0  0  0  0
    8.1799    2.5478    0.0000 C   0  0  0  0  0  0  0  0  0  0  0  0
    7.0564    4.4937    0.0000 C   0  0  0  0  0  0  0  0  0  0  0  0
    7.2243    2.2530    0.0000 C   0  0  0  0  0  0  0  0  0  0  0  0
    6.3233    3.8135    0.0000 C   0  0  0  0  0  0  0  0  0  0  0  0
    5.5321    2.3163    0.0000 C   0  0  0  0  0  0  0  0  0  0  0  0
    5.5321    1.3163    0.0000 C   0  0  0  0  0  0  0  0  0  0  0  0
    3.8000    2.3163    0.0000 C   0  0  0  0  0  0  0  0  0  0  0  0
    3.8000    1.3163    0.0000 C   0  0  0  0  0  0  0  0  0  0  0  0
    6.3981   -1.1837    0.0000 C   0  0  0  0  0  0  0  0  0  0  0  0
    2.9061    2.8510    0.0000 C   0  0  0  0  0  0  0  0  0  0  0  0
    2.9061    0.7816    0.0000 C   0  0  0  0  0  0  0  0  0  0  0  0
    2.0000    2.3371    0.0000 C   0  0  0  0  0  0  0  0  0  0  0  0
    2.0000    1.2955    0.0000 C   0  0  0  0  0  0  0  0  0  0  0  0
    5.5321   -1.6837    0.0000 C   0  0  0  0  0  0  0  0  0  0  0  0
    7.2641   -1.6837    0.0000 C   0  0  0  0  0  0  0  0  0  0  0  0
    5.5321   -2.6837    0.0000 C   0  0  0  0  0  0  0  0  0  0  0  0
    7.2641   -2.6837    0.0000 C   0  0  0  0  0  0  0  0  0  0  0  0
    6.3981   -3.1837    0.0000 C   0  0  0  0  0  0  0  0  0  0  0  0
    8.6377    4.5274    0.0000 H   0  0  0  0  0  0  0  0  0  0  0  0
    7.9989    4.9629    0.0000 H   0  0  0  0  0  0  0  0  0  0  0  0
    9.0575    3.1294    0.0000 H   0  0  0  0  0  0  0  0  0  0  0  0
    8.9997    3.9003    0.0000 H   0  0  0  0  0  0  0  0  0  0  0  0
    7.2829    5.0708    0.0000 H   0  0  0  0  0  0  0  0  0  0  0  0
    6.5441    4.8430    0.0000 H   0  0  0  0  0  0  0  0  0  0  0  0
    8.2262    1.9295    0.0000 H   0  0  0  0  0  0  0  0  0  0  0  0
    8.7930    2.4553    0.0000 H   0  0  0  0  0  0  0  0  0  0  0  0
    6.0134    4.3505    0.0000 H   0  0  0  0  0  0  0  0  0  0  0  0
    5.7309    3.6308    0.0000 H   0  0  0  0  0  0  0  0  0  0  0  0
    6.7698    1.8313    0.0000 H   0  0  0  0  0  0  0  0  0  0  0  0
    7.5343    1.7161    0.0000 H   0  0  0  0  0  0  0  0  0  0  0  0
    6.9350    1.1263    0.0000 H   0  0  0  0  0  0  0  0  0  0  0  0
    2.9132    3.4709    0.0000 H   0  0  0  0  0  0  0  0  0  0  0  0
    2.9132    0.1617    0.0000 H   0  0  0  0  0  0  0  0  0  0  0  0
    1.4643    2.6492    0.0000 H   0  0  0  0  0  0  0  0  0  0  0  0
    1.4643    0.9834    0.0000 H   0  0  0  0  0  0  0  0  0  0  0  0
    4.9951   -1.3737    0.0000 H   0  0  0  0  0  0  0  0  0  0  0  0
    7.8010   -1.3737    0.0000 H   0  0  0  0  0  0  0  0  0  0  0  0
    4.9951   -2.9937    0.0000 H   0  0  0  0  0  0  0  0  0  0  0  0
    7.8010   -2.9937    0.0000 H   0  0  0  0  0  0  0  0  0  0  0  0
    6.9350   -4.4937    0.0000 H   0  0  0  0  0  0  0  0  0  0  0  0
    5.8612   -4.4937    0.0000 H   0  0  0  0  0  0  0  0  0  0  0  0
  1  2  2  0  0  0  0
  1  3  2  0  0  0  0
  1  6  1  0  0  0  0
  1 19  1  0  0  0  0
  4 13  1  0  0  0  0
  4 14  1  0  0  0  0
  4 15  1  0  0  0  0
  5 15  2  0  0  0  0
  5 17  1  0  0  0  0
  6 16  1  0  0  0  0
  6 41  1  0  0  0  0
  7 16  2  0  0  0  0
  7 18  1  0  0  0  0
  8 28  1  0  0  0  0
  8 50  1  0  0  0  0
  8 51  1  0  0  0  0
  9 10  1  0  0  0  0
  9 11  1  0  0  0  0
  9 31  1  0  0  0  0
  9 32  1  0  0  0  0
 10 12  1  0  0  0  0
 10 29  1  0  0  0  0
 10 30  1  0  0  0  0
 11 13  1  0  0  0  0
 11 35  1  0  0  0  0
 11 36  1  0  0  0  0
 12 14  1  0  0  0  0
 12 33  1  0  0  0  0
 12 34  1  0  0  0  0
 13 39  1  0  0  0  0
 13 40  1  0  0  0  0
 14 37  1  0  0  0  0
 14 38  1  0  0  0  0
 15 16  1  0  0  0  0
 17 18  1  0  0  0  0
 17 20  2  0  0  0  0
 18 21  2  0  0  0  0
 19 24  2  0  0  0  0
 19 25  1  0  0  0  0
 20 22  1  0  0  0  0
 20 42  1  0  0  0  0
 21 23  1  0  0  0  0
 21 43  1  0  0  0  0
 22 23  2  0  0  0  0
 22 44  1  0  0  0  0
 23 45  1  0  0  0  0
 24 26  1  0  0  0  0
 24 46  1  0  0  0  0
 25 27  2  0  0  0  0
 25 47  1  0  0  0  0
 26 28  2  0  0  0  0
 26 48  1  0  0  0  0
 27 28  1  0  0  0  0
 27 49  1  0  0  0  0
M  END
>  <PUBCHEM_COMPOUND_CID>
389572

>  <PUBCHEM_COMPOUND_CANONICALIZED>
1

>  <PUBCHEM_CACTVS_COMPLEXITY>
594

>  <PUBCHEM_CACTVS_HBOND_ACCEPTOR>
7

>  <PUBCHEM_CACTVS_HBOND_DONOR>
2

>  <PUBCHEM_CACTVS_ROTATABLE_BOND>
4

>  <PUBCHEM_CACTVS_SUBSKEYS>
AAADceB7sABAAAAAAAAAAAAAAAAAAAAAAAA8YIAABYAAAACx9AAAHAQQQAAACAjBVgQx8bNIEAKgASZiZHDCgD0hEiAJmDg4dJiIYOLAmZGUIAhokALIyCcQAAAAAAQAAAAAACAACAAAAAAAQAAAAAAAAA==

>  <PUBCHEM_IUPAC_OPENEYE_NAME>
4-amino-N-[3-(azepan-1-yl)quinoxalin-2-yl]benzenesulfonamide

>  <PUBCHEM_IUPAC_CAS_NAME>
4-amino-N-[3-(1-azepanyl)-2-quinoxalinyl]benzenesulfonamide

>  <PUBCHEM_IUPAC_NAME>
4-amino-N-[3-(azepan-1-yl)quinoxalin-2-yl]benzenesulfonamide

>  <PUBCHEM_IUPAC_SYSTEMATIC_NAME>
4-azanyl-N-[3-(azepan-1-yl)quinoxalin-2-yl]benzenesulfonamide

>  <PUBCHEM_IUPAC_TRADITIONAL_NAME>
4-amino-N-[3-(azepan-1-yl)quinoxalin-2-yl]benzenesulfonamide

>  <PUBCHEM_IUPAC_INCHI>
InChI=1S/C20H23N5O2S/c21-15-9-11-16(12-10-15)28(26,27)24-19-20(25-13-5-1-2-6-14-25)23-18-8-4-3-7-17(18)22-19/h3-4,7-12H,1-2,5-6,13-14,21H2,(H,22,24)

>  <PUBCHEM_IUPAC_INCHIKEY>
QXSSXKUBUFTBPN-UHFFFAOYSA-N

>  <PUBCHEM_XLOGP3_AA>
3

>  <PUBCHEM_EXACT_MASS>
397.157

>  <PUBCHEM_MOLECULAR_FORMULA>
C20H23N5O2S

>  <PUBCHEM_MOLECULAR_WEIGHT>
397.497

>  <PUBCHEM_OPENEYE_CAN_SMILES>
C1CCCN(CC1)C2=NC3=CC=CC=C3N=C2NS(=O)(=O)C4=CC=C(C=C4)N

>  <PUBCHEM_OPENEYE_ISO_SMILES>
C1CCCN(CC1)C2=NC3=CC=CC=C3N=C2NS(=O)(=O)C4=CC=C(C=C4)N

>  <PUBCHEM_CACTVS_TPSA>
110

>  <PUBCHEM_MONOISOTOPIC_WEIGHT>
397.157

>  <PUBCHEM_TOTAL_CHARGE>
0

>  <PUBCHEM_HEAVY_ATOM_COUNT>
28

>  <PUBCHEM_ATOM_DEF_STEREO_COUNT>
0

>  <PUBCHEM_ATOM_UDEF_STEREO_COUNT>
0

>  <PUBCHEM_BOND_DEF_STEREO_COUNT>
0

>  <PUBCHEM_BOND_UDEF_STEREO_COUNT>
0

>  <PUBCHEM_ISOTOPIC_ATOM_COUNT>
0

>  <PUBCHEM_COMPONENT_COUNT>
1

>  <PUBCHEM_CACTVS_TAUTO_COUNT>
2

>  <PUBCHEM_COORDINATE_TYPE>
1
5
255

>  <PUBCHEM_BONDANNOTATIONS>
15  16  8
17  18  8
17  20  8
18  21  8
19  24  8
19  25  8
20  22  8
21  23  8
22  23  8
24  26  8
25  27  8
26  28  8
27  28  8
5  15  8
5  17  8
7  16  8
7  18  8

$$$$
