392169
 OpenBabel06101807152D

 48 52  0  0  0  0  0  0  0  0999 V2000
    2.8937   -3.6578    0.0000 O   0  0  0  0  0  0  0  0  0  0  0  0
    4.6493    3.6506    0.0000 O   0  0  0  0  0  0  0  0  0  0  0  0
    2.9180    0.4964    0.0000 O   0  0  0  0  0  0  0  0  0  0  0  0
    6.4203    0.4933    0.0000 O   0  0  0  0  0  0  0  0  0  0  0  0
    5.5161   -1.0036    0.0000 O   0  0  0  0  0  0  0  0  0  0  0  0
    3.8334   -4.2003    0.0000 C   0  0  0  0  0  0  0  0  0  0  0  0
    5.5847    4.2003    0.0000 C   0  0  0  0  0  0  0  0  0  0  0  0
    3.7841   -1.0036    0.0000 C   0  0  0  0  0  0  0  0  0  0  0  0
    3.8001   -2.0451    0.0000 C   0  0  0  0  0  0  0  0  0  0  0  0
    4.6501    0.4964    0.0000 C   0  0  0  0  0  0  0  0  0  0  0  0
    5.5681    2.0449    0.0000 C   0  0  0  0  0  0  0  0  0  0  0  0
    4.6660    2.5657    0.0000 C   0  0  0  0  0  0  0  0  0  0  0  0
    2.9021   -2.5728    0.0000 C   0  0  0  0  0  0  0  0  0  0  0  0
    3.7841    0.9964    0.0000 C   0  0  0  0  0  0  0  0  0  0  0  0
    2.9180   -0.5036    0.0000 C   0  0  0  0  0  0  0  0  0  0  0  0
    4.6501   -0.5036    0.0000 C   0  0  0  0  0  0  0  0  0  0  0  0
    5.5601    1.0033    0.0000 C   0  0  0  0  0  0  0  0  0  0  0  0
    4.7688   -3.6506    0.0000 C   0  0  0  0  0  0  0  0  0  0  0  0
    6.5244    3.6578    0.0000 C   0  0  0  0  0  0  0  0  0  0  0  0
    4.7520   -2.5657    0.0000 C   0  0  0  0  0  0  0  0  0  0  0  0
    3.7680    2.0379    0.0000 C   0  0  0  0  0  0  0  0  0  0  0  0
    6.5160    2.5728    0.0000 C   0  0  0  0  0  0  0  0  0  0  0  0
    4.3367   -5.0644    0.0000 C   0  0  0  0  0  0  0  0  0  0  0  0
    3.3367   -5.0682    0.0000 C   0  0  0  0  0  0  0  0  0  0  0  0
    6.0814    5.0682    0.0000 C   0  0  0  0  0  0  0  0  0  0  0  0
    5.0814    5.0644    0.0000 C   0  0  0  0  0  0  0  0  0  0  0  0
    2.0000   -2.0520    0.0000 C   0  0  0  0  0  0  0  0  0  0  0  0
    2.0080   -1.0104    0.0000 C   0  0  0  0  0  0  0  0  0  0  0  0
    5.3093   -3.9543    0.0000 H   0  0  0  0  0  0  0  0  0  0  0  0
    7.0625    3.9657    0.0000 H   0  0  0  0  0  0  0  0  0  0  0  0
    5.2829   -2.2454    0.0000 H   0  0  0  0  0  0  0  0  0  0  0  0
    3.2275    2.3417    0.0000 H   0  0  0  0  0  0  0  0  0  0  0  0
    7.0493    2.2566    0.0000 H   0  0  0  0  0  0  0  0  0  0  0  0
    3.8010   -5.3764    0.0000 H   0  0  0  0  0  0  0  0  0  0  0  0
    2.7986   -4.7603    0.0000 H   0  0  0  0  0  0  0  0  0  0  0  0
    3.0288   -5.6064    0.0000 H   0  0  0  0  0  0  0  0  0  0  0  0
    3.8748   -5.3762    0.0000 H   0  0  0  0  0  0  0  0  0  0  0  0
    4.6488   -5.6001    0.0000 H   0  0  0  0  0  0  0  0  0  0  0  0
    4.8724   -4.7523    0.0000 H   0  0  0  0  0  0  0  0  0  0  0  0
    5.6171    5.3764    0.0000 H   0  0  0  0  0  0  0  0  0  0  0  0
    4.7693    5.6001    0.0000 H   0  0  0  0  0  0  0  0  0  0  0  0
    4.5457    4.7523    0.0000 H   0  0  0  0  0  0  0  0  0  0  0  0
    6.6195    4.7603    0.0000 H   0  0  0  0  0  0  0  0  0  0  0  0
    6.3893    5.6064    0.0000 H   0  0  0  0  0  0  0  0  0  0  0  0
    5.5433    5.3762    0.0000 H   0  0  0  0  0  0  0  0  0  0  0  0
    1.4619   -2.3599    0.0000 H   0  0  0  0  0  0  0  0  0  0  0  0
    1.4747   -0.6942    0.0000 H   0  0  0  0  0  0  0  0  0  0  0  0
    6.9608    0.7971    0.0000 H   0  0  0  0  0  0  0  0  0  0  0  0
  1  6  1  0  0  0  0
  1 13  1  0  0  0  0
  2  7  1  0  0  0  0
  2 12  1  0  0  0  0
  3 14  1  0  0  0  0
  3 15  1  0  0  0  0
  4 17  1  0  0  0  0
  4 48  1  0  0  0  0
  5 16  2  0  0  0  0
  6 18  1  0  0  0  0
  6 23  1  0  0  0  0
  6 24  1  0  0  0  0
  7 19  1  0  0  0  0
  7 25  1  0  0  0  0
  7 26  1  0  0  0  0
  8  9  1  0  0  0  0
  8 15  2  0  0  0  0
  8 16  1  0  0  0  0
  9 13  2  0  0  0  0
  9 20  1  0  0  0  0
 10 14  1  0  0  0  0
 10 16  1  0  0  0  0
 10 17  2  0  0  0  0
 11 12  2  0  0  0  0
 11 17  1  0  0  0  0
 11 22  1  0  0  0  0
 12 21  1  0  0  0  0
 13 27  1  0  0  0  0
 14 21  2  0  0  0  0
 15 28  1  0  0  0  0
 18 20  2  0  0  0  0
 18 29  1  0  0  0  0
 19 22  2  0  0  0  0
 19 30  1  0  0  0  0
 20 31  1  0  0  0  0
 21 32  1  0  0  0  0
 22 33  1  0  0  0  0
 23 34  1  0  0  0  0
 23 38  1  0  0  0  0
 23 39  1  0  0  0  0
 24 35  1  0  0  0  0
 24 36  1  0  0  0  0
 24 37  1  0  0  0  0
 25 43  1  0  0  0  0
 25 44  1  0  0  0  0
 25 45  1  0  0  0  0
 26 40  1  0  0  0  0
 26 41  1  0  0  0  0
 26 42  1  0  0  0  0
 27 28  2  0  0  0  0
 27 46  1  0  0  0  0
 28 47  1  0  0  0  0
M  END
>  <PUBCHEM_COMPOUND_CID>
392169

>  <PUBCHEM_COMPOUND_CANONICALIZED>
1

>  <PUBCHEM_CACTVS_COMPLEXITY>
723

>  <PUBCHEM_CACTVS_HBOND_ACCEPTOR>
5

>  <PUBCHEM_CACTVS_HBOND_DONOR>
1

>  <PUBCHEM_CACTVS_ROTATABLE_BOND>
0

>  <PUBCHEM_CACTVS_SUBSKEYS>
AAADceB4OAAAAAAAAAAAAAAAAAAAAAAAAAA0YIECAAAAAACRQAAAGgAACAAADESAmAAyBoAABgCIAqBSAAACCAAkIAAIiAEGCMgMJzaGNBqCeWCl4BUIuQfK7PzOoQADCAAYAABCAAYQADAAAAAAAAAAAA==

>  <PUBCHEM_IUPAC_INCHI>
InChI=1S/C23H20O5/c1-22(2)9-7-12-14(27-22)5-6-15-18(12)21(25)19-17(26-15)11-16-13(20(19)24)8-10-23(3,4)28-16/h5-11,24H,1-4H3

>  <PUBCHEM_IUPAC_INCHIKEY>
CGUOCNBOCVGVNB-UHFFFAOYSA-N

>  <PUBCHEM_XLOGP3_AA>
5

>  <PUBCHEM_EXACT_MASS>
376.131

>  <PUBCHEM_MOLECULAR_FORMULA>
C23H20O5

>  <PUBCHEM_MOLECULAR_WEIGHT>
376.408

>  <PUBCHEM_OPENEYE_CAN_SMILES>
CC1(C=CC2=C(O1)C=CC3=C2C(=O)C4=C(C5=C(C=C4O3)OC(C=C5)(C)C)O)C

>  <PUBCHEM_OPENEYE_ISO_SMILES>
CC1(C=CC2=C(O1)C=CC3=C2C(=O)C4=C(C5=C(C=C4O3)OC(C=C5)(C)C)O)C

>  <PUBCHEM_CACTVS_TPSA>
65

>  <PUBCHEM_MONOISOTOPIC_WEIGHT>
376.131

>  <PUBCHEM_TOTAL_CHARGE>
0

>  <PUBCHEM_HEAVY_ATOM_COUNT>
28

>  <PUBCHEM_ATOM_DEF_STEREO_COUNT>
0

>  <PUBCHEM_ATOM_UDEF_STEREO_COUNT>
0

>  <PUBCHEM_BOND_DEF_STEREO_COUNT>
0

>  <PUBCHEM_BOND_UDEF_STEREO_COUNT>
0

>  <PUBCHEM_ISOTOPIC_ATOM_COUNT>
0

>  <PUBCHEM_COMPONENT_COUNT>
1

>  <PUBCHEM_CACTVS_TAUTO_COUNT>
5

>  <PUBCHEM_COORDINATE_TYPE>
1
5
255

>  <PUBCHEM_BONDANNOTATIONS>
10  14  8
10  16  8
10  17  8
11  12  8
11  17  8
12  21  8
13  27  8
14  21  8
15  28  8
27  28  8
3  14  8
3  15  8
8  15  8
8  16  8
8  9  8
9  13  8

$$$$
