392450
 OpenBabel06101807152D

 52 54  0  0  0  0  0  0  0  0999 V2000
    4.6660   -0.1481    0.0000 O   0  0  0  0  0  0  0  0  0  0  0  0
    8.1962   -0.1723    0.0000 O   0  0  0  0  0  0  0  0  0  0  0  0
    6.4144    2.8864    0.0000 O   0  0  0  0  0  0  0  0  0  0  0  0
    4.6660    2.8519    0.0000 O   0  0  0  0  0  0  0  0  0  0  0  0
    2.9176   -1.1827    0.0000 O   0  0  0  0  0  0  0  0  0  0  0  0
    6.4260   -0.1828    0.0000 C   0  0  0  0  0  0  0  0  0  0  0  0
    5.5321    0.3519    0.0000 C   0  0  0  0  0  0  0  0  0  0  0  0
    5.5321    1.3518    0.0000 C   0  0  0  0  0  0  0  0  0  0  0  0
    7.3321    1.3727    0.0000 C   0  0  0  0  0  0  0  0  0  0  0  0
    7.3321    0.3310    0.0000 C   0  0  0  0  0  0  0  0  0  0  0  0
    6.4260    1.8865    0.0000 C   0  0  0  0  0  0  0  0  0  0  0  0
    6.4144   -1.1827    0.0000 C   0  0  0  0  0  0  0  0  0  0  0  0
    8.1962    1.8760    0.0000 C   0  0  0  0  0  0  0  0  0  0  0  0
    4.6660    1.8518    0.0000 C   0  0  0  0  0  0  0  0  0  0  0  0
    3.8000    1.3518    0.0000 C   0  0  0  0  0  0  0  0  0  0  0  0
    3.8000    0.3519    0.0000 C   0  0  0  0  0  0  0  0  0  0  0  0
    7.2746   -1.6927    0.0000 C   0  0  0  0  0  0  0  0  0  0  0  0
    9.0641    1.3793    0.0000 C   0  0  0  0  0  0  0  0  0  0  0  0
    2.9061    1.8865    0.0000 C   0  0  0  0  0  0  0  0  0  0  0  0
    2.9061   -0.1828    0.0000 C   0  0  0  0  0  0  0  0  0  0  0  0
    7.2631   -2.6927    0.0000 C   0  0  0  0  0  0  0  0  0  0  0  0
    9.9282    1.8827    0.0000 C   0  0  0  0  0  0  0  0  0  0  0  0
    2.0000    1.3727    0.0000 C   0  0  0  0  0  0  0  0  0  0  0  0
    2.0000    0.3310    0.0000 C   0  0  0  0  0  0  0  0  0  0  0  0
    8.1232   -3.2026    0.0000 C   0  0  0  0  0  0  0  0  0  0  0  0
    6.3913   -3.1826    0.0000 C   0  0  0  0  0  0  0  0  0  0  0  0
   10.7961    1.3860    0.0000 C   0  0  0  0  0  0  0  0  0  0  0  0
    9.9243    2.8827    0.0000 C   0  0  0  0  0  0  0  0  0  0  0  0
    5.8051   -1.0680    0.0000 H   0  0  0  0  0  0  0  0  0  0  0  0
    6.1957   -1.7629    0.0000 H   0  0  0  0  0  0  0  0  0  0  0  0
    8.5929    2.3525    0.0000 H   0  0  0  0  0  0  0  0  0  0  0  0
    7.7958    2.3494    0.0000 H   0  0  0  0  0  0  0  0  0  0  0  0
    7.8151   -1.3889    0.0000 H   0  0  0  0  0  0  0  0  0  0  0  0
    9.0665    0.7593    0.0000 H   0  0  0  0  0  0  0  0  0  0  0  0
    2.9132    2.5065    0.0000 H   0  0  0  0  0  0  0  0  0  0  0  0
    8.7343    0.1356    0.0000 H   0  0  0  0  0  0  0  0  0  0  0  0
    6.9478    3.2026    0.0000 H   0  0  0  0  0  0  0  0  0  0  0  0
    1.4643    1.6847    0.0000 H   0  0  0  0  0  0  0  0  0  0  0  0
    1.4643    0.0190    0.0000 H   0  0  0  0  0  0  0  0  0  0  0  0
    7.8071   -3.7360    0.0000 H   0  0  0  0  0  0  0  0  0  0  0  0
    8.6566   -3.5188    0.0000 H   0  0  0  0  0  0  0  0  0  0  0  0
    8.4394   -2.6693    0.0000 H   0  0  0  0  0  0  0  0  0  0  0  0
    6.0875   -2.6421    0.0000 H   0  0  0  0  0  0  0  0  0  0  0  0
    5.8508   -3.4864    0.0000 H   0  0  0  0  0  0  0  0  0  0  0  0
    6.6951   -3.7231    0.0000 H   0  0  0  0  0  0  0  0  0  0  0  0
   10.5443    2.8851    0.0000 H   0  0  0  0  0  0  0  0  0  0  0  0
    9.9220    3.5027    0.0000 H   0  0  0  0  0  0  0  0  0  0  0  0
    9.3044    2.8803    0.0000 H   0  0  0  0  0  0  0  0  0  0  0  0
   10.4882    0.8479    0.0000 H   0  0  0  0  0  0  0  0  0  0  0  0
   11.3343    1.0781    0.0000 H   0  0  0  0  0  0  0  0  0  0  0  0
   11.1041    1.9242    0.0000 H   0  0  0  0  0  0  0  0  0  0  0  0
    2.3843   -1.4989    0.0000 H   0  0  0  0  0  0  0  0  0  0  0  0
  1  7  1  0  0  0  0
  1 16  1  0  0  0  0
  2 10  1  0  0  0  0
  2 36  1  0  0  0  0
  3 11  1  0  0  0  0
  3 37  1  0  0  0  0
  4 14  2  0  0  0  0
  5 20  1  0  0  0  0
  5 52  1  0  0  0  0
  6  7  1  0  0  0  0
  6 10  2  0  0  0  0
  6 12  1  0  0  0  0
  7  8  2  0  0  0  0
  8 11  1  0  0  0  0
  8 14  1  0  0  0  0
  9 10  1  0  0  0  0
  9 11  2  0  0  0  0
  9 13  1  0  0  0  0
 12 17  1  0  0  0  0
 12 29  1  0  0  0  0
 12 30  1  0  0  0  0
 13 18  1  0  0  0  0
 13 31  1  0  0  0  0
 13 32  1  0  0  0  0
 14 15  1  0  0  0  0
 15 16  2  0  0  0  0
 15 19  1  0  0  0  0
 16 20  1  0  0  0  0
 17 21  2  0  0  0  0
 17 33  1  0  0  0  0
 18 22  2  0  0  0  0
 18 34  1  0  0  0  0
 19 23  2  0  0  0  0
 19 35  1  0  0  0  0
 20 24  2  0  0  0  0
 21 25  1  0  0  0  0
 21 26  1  0  0  0  0
 22 27  1  0  0  0  0
 22 28  1  0  0  0  0
 23 24  1  0  0  0  0
 23 38  1  0  0  0  0
 24 39  1  0  0  0  0
 25 40  1  0  0  0  0
 25 41  1  0  0  0  0
 25 42  1  0  0  0  0
 26 43  1  0  0  0  0
 26 44  1  0  0  0  0
 26 45  1  0  0  0  0
 27 49  1  0  0  0  0
 27 50  1  0  0  0  0
 27 51  1  0  0  0  0
 28 46  1  0  0  0  0
 28 47  1  0  0  0  0
 28 48  1  0  0  0  0
M  END
>  <PUBCHEM_COMPOUND_CID>
392450

>  <PUBCHEM_COMPOUND_CANONICALIZED>
1

>  <PUBCHEM_CACTVS_COMPLEXITY>
631

>  <PUBCHEM_CACTVS_HBOND_ACCEPTOR>
5

>  <PUBCHEM_CACTVS_HBOND_DONOR>
3

>  <PUBCHEM_CACTVS_ROTATABLE_BOND>
4

>  <PUBCHEM_CACTVS_SUBSKEYS>
AAADceB4OAAAAAAAAAAAAAAAAAAAAAAAAAA0YIAAAAAAAACRQAAAGgAACAAADASAmAAyBoAABgCIAqBSAAACCAAkIAAIiAEGiMgNJzaGNRqCeWOl4BULuYeK7PzOIAADCAAIQABAAAYQABCAAAAAAAAAAA==

>  <PUBCHEM_IUPAC_OPENEYE_NAME>
1,3,5-trihydroxy-2,4-bis(3-methylbut-2-enyl)xanthen-9-one

>  <PUBCHEM_IUPAC_CAS_NAME>
1,3,5-trihydroxy-2,4-bis(3-methylbut-2-enyl)-9-xanthenone

>  <PUBCHEM_IUPAC_NAME>
1,3,5-trihydroxy-2,4-bis(3-methylbut-2-enyl)xanthen-9-one

>  <PUBCHEM_IUPAC_SYSTEMATIC_NAME>
2,4-bis(3-methylbut-2-enyl)-1,3,5-tris(oxidanyl)xanthen-9-one

>  <PUBCHEM_IUPAC_TRADITIONAL_NAME>
1,3,5-trihydroxy-2,4-bis(3-methylbut-2-enyl)xanthone

>  <PUBCHEM_IUPAC_INCHI>
InChI=1S/C23H24O5/c1-12(2)8-10-14-19(25)16(11-9-13(3)4)23-18(20(14)26)21(27)15-6-5-7-17(24)22(15)28-23/h5-9,24-26H,10-11H2,1-4H3

>  <PUBCHEM_IUPAC_INCHIKEY>
GVQOVMKBYJKZSY-UHFFFAOYSA-N

>  <PUBCHEM_XLOGP3_AA>
6.3

>  <PUBCHEM_EXACT_MASS>
380.162

>  <PUBCHEM_MOLECULAR_FORMULA>
C23H24O5

>  <PUBCHEM_MOLECULAR_WEIGHT>
380.44

>  <PUBCHEM_OPENEYE_CAN_SMILES>
CC(=CCC1=C(C2=C(C(=C1O)CC=C(C)C)OC3=C(C2=O)C=CC=C3O)O)C

>  <PUBCHEM_OPENEYE_ISO_SMILES>
CC(=CCC1=C(C2=C(C(=C1O)CC=C(C)C)OC3=C(C2=O)C=CC=C3O)O)C

>  <PUBCHEM_CACTVS_TPSA>
87

>  <PUBCHEM_MONOISOTOPIC_WEIGHT>
380.162

>  <PUBCHEM_TOTAL_CHARGE>
0

>  <PUBCHEM_HEAVY_ATOM_COUNT>
28

>  <PUBCHEM_ATOM_DEF_STEREO_COUNT>
0

>  <PUBCHEM_ATOM_UDEF_STEREO_COUNT>
0

>  <PUBCHEM_BOND_DEF_STEREO_COUNT>
0

>  <PUBCHEM_BOND_UDEF_STEREO_COUNT>
0

>  <PUBCHEM_ISOTOPIC_ATOM_COUNT>
0

>  <PUBCHEM_COMPONENT_COUNT>
1

>  <PUBCHEM_CACTVS_TAUTO_COUNT>
24

>  <PUBCHEM_COORDINATE_TYPE>
1
5
255

>  <PUBCHEM_BONDANNOTATIONS>
1  16  8
1  7  8
14  15  8
15  16  8
15  19  8
16  20  8
19  23  8
20  24  8
23  24  8
6  10  8
6  7  8
7  8  8
8  11  8
8  14  8
9  10  8
9  11  8

$$$$
