403815
 OpenBabel06101807152D

 47 49  0  0  0  0  0  0  0  0999 V2000
    8.0901   -0.1743    0.0000 O   0  0  0  0  0  0  0  0  0  0  0  0
    6.3301    2.8604    0.0000 O   0  0  0  0  0  0  0  0  0  0  0  0
    4.5981   -0.1396    0.0000 O   0  0  0  0  0  0  0  0  0  0  0  0
    8.0785    2.8950    0.0000 O   0  0  0  0  0  0  0  0  0  0  0  0
   10.7166   -2.6671    0.0000 O   0  0  0  0  0  0  0  0  0  0  0  0
   12.4525   -1.6738    0.0000 O   0  0  0  0  0  0  0  0  0  0  0  0
    5.4641    1.3604    0.0000 C   0  0  0  0  0  0  0  0  0  0  0  0
    7.1962    1.3604    0.0000 C   0  0  0  0  0  0  0  0  0  0  0  0
    7.1962    0.3604    0.0000 C   0  0  0  0  0  0  0  0  0  0  0  0
    6.3301    1.8604    0.0000 C   0  0  0  0  0  0  0  0  0  0  0  0
    4.5981    1.8604    0.0000 C   0  0  0  0  0  0  0  0  0  0  0  0
    5.4641    0.3604    0.0000 C   0  0  0  0  0  0  0  0  0  0  0  0
    6.3301   -0.1396    0.0000 C   0  0  0  0  0  0  0  0  0  0  0  0
    8.9962    0.3396    0.0000 C   0  0  0  0  0  0  0  0  0  0  0  0
    8.0901    1.8951    0.0000 C   0  0  0  0  0  0  0  0  0  0  0  0
    8.9962    1.3812    0.0000 C   0  0  0  0  0  0  0  0  0  0  0  0
    9.8602   -0.1637    0.0000 C   0  0  0  0  0  0  0  0  0  0  0  0
    3.7320    1.3604    0.0000 C   0  0  0  0  0  0  0  0  0  0  0  0
    2.8660    1.8604    0.0000 C   0  0  0  0  0  0  0  0  0  0  0  0
    9.8564   -1.1637    0.0000 C   0  0  0  0  0  0  0  0  0  0  0  0
   10.7282    0.3329    0.0000 C   0  0  0  0  0  0  0  0  0  0  0  0
   10.7205   -1.6671    0.0000 C   0  0  0  0  0  0  0  0  0  0  0  0
   11.5923   -0.1704    0.0000 C   0  0  0  0  0  0  0  0  0  0  0  0
   11.5884   -1.1704    0.0000 C   0  0  0  0  0  0  0  0  0  0  0  0
    2.0000    1.3604    0.0000 C   0  0  0  0  0  0  0  0  0  0  0  0
    2.8660    2.8604    0.0000 C   0  0  0  0  0  0  0  0  0  0  0  0
   11.5807   -3.1704    0.0000 C   0  0  0  0  0  0  0  0  0  0  0  0
    4.9966    2.3354    0.0000 H   0  0  0  0  0  0  0  0  0  0  0  0
    4.1996    2.3354    0.0000 H   0  0  0  0  0  0  0  0  0  0  0  0
    6.3301   -0.7596    0.0000 H   0  0  0  0  0  0  0  0  0  0  0  0
    9.5319    1.6933    0.0000 H   0  0  0  0  0  0  0  0  0  0  0  0
    3.7320    0.7404    0.0000 H   0  0  0  0  0  0  0  0  0  0  0  0
    9.3183   -1.4717    0.0000 H   0  0  0  0  0  0  0  0  0  0  0  0
   10.7306    0.9529    0.0000 H   0  0  0  0  0  0  0  0  0  0  0  0
    5.7932    3.1704    0.0000 H   0  0  0  0  0  0  0  0  0  0  0  0
   12.1304    0.1375    0.0000 H   0  0  0  0  0  0  0  0  0  0  0  0
    4.5981   -0.7596    0.0000 H   0  0  0  0  0  0  0  0  0  0  0  0
    3.4860    2.8604    0.0000 H   0  0  0  0  0  0  0  0  0  0  0  0
    2.8660    3.4804    0.0000 H   0  0  0  0  0  0  0  0  0  0  0  0
    2.2460    2.8604    0.0000 H   0  0  0  0  0  0  0  0  0  0  0  0
    1.6900    1.8973    0.0000 H   0  0  0  0  0  0  0  0  0  0  0  0
    1.4631    1.0504    0.0000 H   0  0  0  0  0  0  0  0  0  0  0  0
    2.3100    0.8235    0.0000 H   0  0  0  0  0  0  0  0  0  0  0  0
   12.9907   -1.3658    0.0000 H   0  0  0  0  0  0  0  0  0  0  0  0
   11.2687   -3.7061    0.0000 H   0  0  0  0  0  0  0  0  0  0  0  0
   12.1165   -3.4825    0.0000 H   0  0  0  0  0  0  0  0  0  0  0  0
   11.8928   -2.6347    0.0000 H   0  0  0  0  0  0  0  0  0  0  0  0
  1  9  1  0  0  0  0
  1 14  1  0  0  0  0
  2 10  1  0  0  0  0
  2 35  1  0  0  0  0
  3 12  1  0  0  0  0
  3 37  1  0  0  0  0
  4 15  2  0  0  0  0
  5 22  1  0  0  0  0
  5 27  1  0  0  0  0
  6 24  1  0  0  0  0
  6 44  1  0  0  0  0
  7 10  1  0  0  0  0
  7 11  1  0  0  0  0
  7 12  2  0  0  0  0
  8  9  1  0  0  0  0
  8 10  2  0  0  0  0
  8 15  1  0  0  0  0
  9 13  2  0  0  0  0
 11 18  1  0  0  0  0
 11 28  1  0  0  0  0
 11 29  1  0  0  0  0
 12 13  1  0  0  0  0
 13 30  1  0  0  0  0
 14 16  2  0  0  0  0
 14 17  1  0  0  0  0
 15 16  1  0  0  0  0
 16 31  1  0  0  0  0
 17 20  2  0  0  0  0
 17 21  1  0  0  0  0
 18 19  2  0  0  0  0
 18 32  1  0  0  0  0
 19 25  1  0  0  0  0
 19 26  1  0  0  0  0
 20 22  1  0  0  0  0
 20 33  1  0  0  0  0
 21 23  2  0  0  0  0
 21 34  1  0  0  0  0
 22 24  2  0  0  0  0
 23 24  1  0  0  0  0
 23 36  1  0  0  0  0
 25 41  1  0  0  0  0
 25 42  1  0  0  0  0
 25 43  1  0  0  0  0
 26 38  1  0  0  0  0
 26 39  1  0  0  0  0
 26 40  1  0  0  0  0
 27 45  1  0  0  0  0
 27 46  1  0  0  0  0
 27 47  1  0  0  0  0
M  END
>  <PUBCHEM_COMPOUND_CID>
403815

>  <PUBCHEM_COMPOUND_CANONICALIZED>
1

>  <PUBCHEM_CACTVS_COMPLEXITY>
608

>  <PUBCHEM_CACTVS_HBOND_ACCEPTOR>
6

>  <PUBCHEM_CACTVS_HBOND_DONOR>
3

>  <PUBCHEM_CACTVS_ROTATABLE_BOND>
4

>  <PUBCHEM_CACTVS_SUBSKEYS>
AAADceB4OAAAAAAAAAAAAAAAAAAAAAAAAAAwYIAAAAAAAACBQAAAGgAACAAADASAmAIyBoAABgCIAqBSAAACCAAkIAAIiAEGiMgNJzaGNRqCeWOl4BULuQfI7PzOIAADCAAIQABAAAYQABCAAAAAAAAAAA==

>  <PUBCHEM_IUPAC_OPENEYE_NAME>
5,7-dihydroxy-2-(4-hydroxy-3-methoxy-phenyl)-6-(3-methylbut-2-enyl)chromen-4-one

>  <PUBCHEM_IUPAC_CAS_NAME>
5,7-dihydroxy-2-(4-hydroxy-3-methoxyphenyl)-6-(3-methylbut-2-enyl)-1-benzopyran-4-one

>  <PUBCHEM_IUPAC_NAME>
5,7-dihydroxy-2-(4-hydroxy-3-methoxyphenyl)-6-(3-methylbut-2-enyl)chromen-4-one

>  <PUBCHEM_IUPAC_SYSTEMATIC_NAME>
2-(3-methoxy-4-oxidanyl-phenyl)-6-(3-methylbut-2-enyl)-5,7-bis(oxidanyl)chromen-4-one

>  <PUBCHEM_IUPAC_TRADITIONAL_NAME>
5,7-dihydroxy-2-(4-hydroxy-3-methoxy-phenyl)-6-(3-methylbut-2-enyl)chromone

>  <PUBCHEM_IUPAC_INCHI>
InChI=1S/C21H20O6/c1-11(2)4-6-13-15(23)9-19-20(21(13)25)16(24)10-17(27-19)12-5-7-14(22)18(8-12)26-3/h4-5,7-10,22-23,25H,6H2,1-3H3

>  <PUBCHEM_IUPAC_INCHIKEY>
IXCUTZUASDSIJO-UHFFFAOYSA-N

>  <PUBCHEM_XLOGP3_AA>
4.6

>  <PUBCHEM_EXACT_MASS>
368.126

>  <PUBCHEM_MOLECULAR_FORMULA>
C21H20O6

>  <PUBCHEM_MOLECULAR_WEIGHT>
368.385

>  <PUBCHEM_OPENEYE_CAN_SMILES>
CC(=CCC1=C(C=C2C(=C1O)C(=O)C=C(O2)C3=CC(=C(C=C3)O)OC)O)C

>  <PUBCHEM_OPENEYE_ISO_SMILES>
CC(=CCC1=C(C=C2C(=C1O)C(=O)C=C(O2)C3=CC(=C(C=C3)O)OC)O)C

>  <PUBCHEM_CACTVS_TPSA>
96.2

>  <PUBCHEM_MONOISOTOPIC_WEIGHT>
368.126

>  <PUBCHEM_TOTAL_CHARGE>
0

>  <PUBCHEM_HEAVY_ATOM_COUNT>
27

>  <PUBCHEM_ATOM_DEF_STEREO_COUNT>
0

>  <PUBCHEM_ATOM_UDEF_STEREO_COUNT>
0

>  <PUBCHEM_BOND_DEF_STEREO_COUNT>
0

>  <PUBCHEM_BOND_UDEF_STEREO_COUNT>
0

>  <PUBCHEM_ISOTOPIC_ATOM_COUNT>
0

>  <PUBCHEM_COMPONENT_COUNT>
1

>  <PUBCHEM_CACTVS_TAUTO_COUNT>
69

>  <PUBCHEM_COORDINATE_TYPE>
1
5
255

>  <PUBCHEM_BONDANNOTATIONS>
1  14  8
1  9  8
12  13  8
14  16  8
15  16  8
17  20  8
17  21  8
20  22  8
21  23  8
22  24  8
23  24  8
7  10  8
7  12  8
8  10  8
8  15  8
8  9  8
9  13  8

$$$$
