4082203
 OpenBabel06101807152D

  1  0  0  0  0  0  0  0  0  0999 V2000
    2.0000    0.0000    0.0000 Si  0  0  0  0  0  0  0  0  0  0  0  0
M  CHG  1   1   4
M  END
>  <PUBCHEM_COMPOUND_CID>
4082203

>  <PUBCHEM_COMPOUND_CANONICALIZED>
1

>  <PUBCHEM_CACTVS_COMPLEXITY>
0

>  <PUBCHEM_CACTVS_HBOND_ACCEPTOR>
0

>  <PUBCHEM_CACTVS_HBOND_DONOR>
0

>  <PUBCHEM_CACTVS_ROTATABLE_BOND>
0

>  <PUBCHEM_CACTVS_SUBSKEYS>
AAADcQAAAAgAAAAAAAAAAAAAAAAAAAAAAAAAAAAAAAAAAAAAAAAAAAAAAAAAAAAAAAAAAAAAAAAAAAAAAAAAAAAAAAAAAAAAAAAAAAAAAAAAAAAAAAAAAAAAAAAAAAAAAAAAAAAAAAAAAAAAAAAAAAAAAA==

>  <PUBCHEM_IUPAC_OPENEYE_NAME>
silicon(4+)

>  <PUBCHEM_IUPAC_CAS_NAME>
silicon(4+)

>  <PUBCHEM_IUPAC_NAME>
silicon(4+)

>  <PUBCHEM_IUPAC_SYSTEMATIC_NAME>
silicon(4+)

>  <PUBCHEM_IUPAC_TRADITIONAL_NAME>
silicon(4+)

>  <PUBCHEM_IUPAC_INCHI>
InChI=1S/Si/q+4

>  <PUBCHEM_IUPAC_INCHIKEY>
RWMKKWXZFRMVPB-UHFFFAOYSA-N

>  <PUBCHEM_EXACT_MASS>
27.977

>  <PUBCHEM_MOLECULAR_FORMULA>
Si+4

>  <PUBCHEM_MOLECULAR_WEIGHT>
28.085

>  <PUBCHEM_OPENEYE_CAN_SMILES>
[Si+4]

>  <PUBCHEM_OPENEYE_ISO_SMILES>
[Si+4]

>  <PUBCHEM_CACTVS_TPSA>
0

>  <PUBCHEM_MONOISOTOPIC_WEIGHT>
27.977

>  <PUBCHEM_TOTAL_CHARGE>
4

>  <PUBCHEM_HEAVY_ATOM_COUNT>
1

>  <PUBCHEM_ATOM_DEF_STEREO_COUNT>
0

>  <PUBCHEM_ATOM_UDEF_STEREO_COUNT>
0

>  <PUBCHEM_BOND_DEF_STEREO_COUNT>
0

>  <PUBCHEM_BOND_UDEF_STEREO_COUNT>
0

>  <PUBCHEM_ISOTOPIC_ATOM_COUNT>
0

>  <PUBCHEM_COMPONENT_COUNT>
1

>  <PUBCHEM_CACTVS_TAUTO_COUNT>
1

>  <PUBCHEM_COORDINATE_TYPE>
1
5
255

$$$$
