40923
 OpenBabel06101807152D

 25 24  0  0  1  0  0  0  0  0999 V2000
    4.5981   -0.5950    0.0000 O   0  0  0  0  0  0  0  0  0  0  0  0
    4.5981    0.4050    0.0000 C   0  0  3  0  0  0  0  0  0  0  0  0
    3.7320    0.9050    0.0000 C   0  0  0  0  0  0  0  0  0  0  0  0
    5.4641    0.9050    0.0000 C   0  0  0  0  0  0  0  0  0  0  0  0
    2.8660    0.4050    0.0000 C   0  0  0  0  0  0  0  0  0  0  0  0
    6.3301    0.4050    0.0000 C   0  0  0  0  0  0  0  0  0  0  0  0
    2.0000    0.9050    0.0000 C   0  0  0  0  0  0  0  0  0  0  0  0
    7.1962    0.9050    0.0000 C   0  0  0  0  0  0  0  0  0  0  0  0
    8.0622    0.4050    0.0000 C   0  0  0  0  0  0  0  0  0  0  0  0
    5.3342   -0.0200    0.0000 H   0  0  0  0  0  0  0  0  0  0  0  0
    4.1306    1.3800    0.0000 H   0  0  0  0  0  0  0  0  0  0  0  0
    3.3335    1.3800    0.0000 H   0  0  0  0  0  0  0  0  0  0  0  0
    5.8626    1.3800    0.0000 H   0  0  0  0  0  0  0  0  0  0  0  0
    5.0656    1.3800    0.0000 H   0  0  0  0  0  0  0  0  0  0  0  0
    2.4675   -0.0699    0.0000 H   0  0  0  0  0  0  0  0  0  0  0  0
    3.2646   -0.0699    0.0000 H   0  0  0  0  0  0  0  0  0  0  0  0
    5.9316   -0.0699    0.0000 H   0  0  0  0  0  0  0  0  0  0  0  0
    6.7287   -0.0699    0.0000 H   0  0  0  0  0  0  0  0  0  0  0  0
    2.3100    1.4419    0.0000 H   0  0  0  0  0  0  0  0  0  0  0  0
    1.4631    1.2150    0.0000 H   0  0  0  0  0  0  0  0  0  0  0  0
    1.6900    0.3681    0.0000 H   0  0  0  0  0  0  0  0  0  0  0  0
    4.0611   -0.9050    0.0000 H   0  0  0  0  0  0  0  0  0  0  0  0
    7.1962    1.5250    0.0000 H   0  0  0  0  0  0  0  0  0  0  0  0
    8.0622   -0.2150    0.0000 H   0  0  0  0  0  0  0  0  0  0  0  0
    8.5991    0.7150    0.0000 H   0  0  0  0  0  0  0  0  0  0  0  0
  1  2  1  0  0  0  0
  1 22  1  0  0  0  0
  2  3  1  0  0  0  0
  2  4  1  0  0  0  0
  2 10  1  0  0  0  0
  3  5  1  0  0  0  0
  3 11  1  0  0  0  0
  3 12  1  0  0  0  0
  4  6  1  0  0  0  0
  4 13  1  0  0  0  0
  4 14  1  0  0  0  0
  5  7  1  0  0  0  0
  5 15  1  0  0  0  0
  5 16  1  0  0  0  0
  6  8  1  0  0  0  0
  6 17  1  0  0  0  0
  6 18  1  0  0  0  0
  7 19  1  0  0  0  0
  7 20  1  0  0  0  0
  7 21  1  0  0  0  0
  8  9  2  0  0  0  0
  8 23  1  0  0  0  0
  9 24  1  0  0  0  0
  9 25  1  0  0  0  0
M  END
>  <PUBCHEM_COMPOUND_CID>
40923

>  <PUBCHEM_COMPOUND_CANONICALIZED>
1

>  <PUBCHEM_CACTVS_COMPLEXITY>
69

>  <PUBCHEM_CACTVS_HBOND_ACCEPTOR>
1

>  <PUBCHEM_CACTVS_HBOND_DONOR>
1

>  <PUBCHEM_CACTVS_ROTATABLE_BOND>
5

>  <PUBCHEM_CACTVS_SUBSKEYS>
AAADceBwIAAAAAAAAAAAAAAAAAAAAAAAAAAAAAAAAAAAAAAAAAAAGgAACAAACBSggAICAAAAAgCAACBCAAAAAAAgAAAIAAAAAAgAEAIAAQAAQAAEgAAAAAEAgAAAAAAAAAAAAAAAAAAAAAAAAAAAAAAAAA==

>  <PUBCHEM_IUPAC_OPENEYE_NAME>
oct-7-en-4-ol

>  <PUBCHEM_IUPAC_CAS_NAME>
7-octen-4-ol

>  <PUBCHEM_IUPAC_NAME>
oct-7-en-4-ol

>  <PUBCHEM_IUPAC_SYSTEMATIC_NAME>
oct-7-en-4-ol

>  <PUBCHEM_IUPAC_TRADITIONAL_NAME>
oct-7-en-4-ol

>  <PUBCHEM_IUPAC_INCHI>
InChI=1S/C8H16O/c1-3-5-7-8(9)6-4-2/h3,8-9H,1,4-7H2,2H3

>  <PUBCHEM_IUPAC_INCHIKEY>
MJWKMORBWQZWOT-UHFFFAOYSA-N

>  <PUBCHEM_XLOGP3_AA>
2.3

>  <PUBCHEM_EXACT_MASS>
128.12

>  <PUBCHEM_MOLECULAR_FORMULA>
C8H16O

>  <PUBCHEM_MOLECULAR_WEIGHT>
128.215

>  <PUBCHEM_OPENEYE_CAN_SMILES>
CCCC(CCC=C)O

>  <PUBCHEM_OPENEYE_ISO_SMILES>
CCCC(CCC=C)O

>  <PUBCHEM_CACTVS_TPSA>
20.2

>  <PUBCHEM_MONOISOTOPIC_WEIGHT>
128.12

>  <PUBCHEM_TOTAL_CHARGE>
0

>  <PUBCHEM_HEAVY_ATOM_COUNT>
9

>  <PUBCHEM_ATOM_DEF_STEREO_COUNT>
0

>  <PUBCHEM_ATOM_UDEF_STEREO_COUNT>
1

>  <PUBCHEM_BOND_DEF_STEREO_COUNT>
0

>  <PUBCHEM_BOND_UDEF_STEREO_COUNT>
0

>  <PUBCHEM_ISOTOPIC_ATOM_COUNT>
0

>  <PUBCHEM_COMPONENT_COUNT>
1

>  <PUBCHEM_CACTVS_TAUTO_COUNT>
1

>  <PUBCHEM_COORDINATE_TYPE>
1
5
255

>  <PUBCHEM_BONDANNOTATIONS>
2  10  3

$$$$
