41493
 OpenBabel06101807152D

 41 41  0  0  1  0  0  0  0  0999 V2000
    4.0981    1.3854    0.0000 O   0  0  0  0  0  0  0  0  0  0  0  0
    4.5981    2.5194    0.0000 O   0  0  0  0  0  0  0  0  0  0  0  0
    2.0000   -0.9806    0.0000 O   0  0  0  0  0  0  0  0  0  0  0  0
    3.3660   -4.0194    0.0000 O   0  0  0  0  0  0  0  0  0  0  0  0
    4.5981    0.5194    0.0000 C   0  0  3  0  0  0  0  0  0  0  0  0
    5.4641    1.0194    0.0000 C   0  0  0  0  0  0  0  0  0  0  0  0
    3.7320    0.0194    0.0000 C   0  0  0  0  0  0  0  0  0  0  0  0
    5.0981   -0.3466    0.0000 C   0  0  0  0  0  0  0  0  0  0  0  0
    5.4641    2.0194    0.0000 C   0  0  0  0  0  0  0  0  0  0  0  0
    6.3301    2.5194    0.0000 C   0  0  0  0  0  0  0  0  0  0  0  0
    3.7320   -0.9806    0.0000 C   0  0  0  0  0  0  0  0  0  0  0  0
    6.3301    3.5194    0.0000 C   0  0  0  0  0  0  0  0  0  0  0  0
    7.1962    4.0194    0.0000 C   0  0  0  0  0  0  0  0  0  0  0  0
    5.4641    4.0194    0.0000 C   0  0  0  0  0  0  0  0  0  0  0  0
    2.8660   -1.4806    0.0000 C   0  0  0  0  0  0  0  0  0  0  0  0
    2.8660   -2.4806    0.0000 C   0  0  0  0  0  0  0  0  0  0  0  0
    2.0570   -3.0684    0.0000 C   0  0  0  0  0  0  0  0  0  0  0  0
    3.6750   -3.0684    0.0000 C   0  0  0  0  0  0  0  0  0  0  0  0
    2.3660   -4.0194    0.0000 C   0  0  0  0  0  0  0  0  0  0  0  0
    5.6762    0.4368    0.0000 H   0  0  0  0  0  0  0  0  0  0  0  0
    6.0747    1.1271    0.0000 H   0  0  0  0  0  0  0  0  0  0  0  0
    3.5200    0.6020    0.0000 H   0  0  0  0  0  0  0  0  0  0  0  0
    3.1215   -0.0882    0.0000 H   0  0  0  0  0  0  0  0  0  0  0  0
    4.5611   -0.6566    0.0000 H   0  0  0  0  0  0  0  0  0  0  0  0
    5.4081   -0.8835    0.0000 H   0  0  0  0  0  0  0  0  0  0  0  0
    5.6350   -0.0366    0.0000 H   0  0  0  0  0  0  0  0  0  0  0  0
    6.5422    1.9368    0.0000 H   0  0  0  0  0  0  0  0  0  0  0  0
    6.9407    2.6271    0.0000 H   0  0  0  0  0  0  0  0  0  0  0  0
    3.9441   -1.5632    0.0000 H   0  0  0  0  0  0  0  0  0  0  0  0
    4.3426   -0.8729    0.0000 H   0  0  0  0  0  0  0  0  0  0  0  0
    6.8671    3.2094    0.0000 H   0  0  0  0  0  0  0  0  0  0  0  0
    3.4781    1.3854    0.0000 H   0  0  0  0  0  0  0  0  0  0  0  0
    7.5062    3.4825    0.0000 H   0  0  0  0  0  0  0  0  0  0  0  0
    5.7741    4.5564    0.0000 H   0  0  0  0  0  0  0  0  0  0  0  0
    4.9272    4.3294    0.0000 H   0  0  0  0  0  0  0  0  0  0  0  0
    5.1541    3.4825    0.0000 H   0  0  0  0  0  0  0  0  0  0  0  0
    7.7331    4.3294    0.0000 H   0  0  0  0  0  0  0  0  0  0  0  0
    6.8862    4.5564    0.0000 H   0  0  0  0  0  0  0  0  0  0  0  0
    1.4674   -2.8768    0.0000 H   0  0  0  0  0  0  0  0  0  0  0  0
    4.2647   -2.8768    0.0000 H   0  0  0  0  0  0  0  0  0  0  0  0
    2.0016   -4.5210    0.0000 H   0  0  0  0  0  0  0  0  0  0  0  0
  1  5  1  0  0  0  0
  1 32  1  0  0  0  0
  2  9  2  0  0  0  0
  3 15  2  0  0  0  0
  4 18  1  0  0  0  0
  4 19  1  0  0  0  0
  5  6  1  0  0  0  0
  5  7  1  0  0  0  0
  5  8  1  0  0  0  0
  6  9  1  0  0  0  0
  6 20  1  0  0  0  0
  6 21  1  0  0  0  0
  7 11  1  0  0  0  0
  7 22  1  0  0  0  0
  7 23  1  0  0  0  0
  8 24  1  0  0  0  0
  8 25  1  0  0  0  0
  8 26  1  0  0  0  0
  9 10  1  0  0  0  0
 10 12  1  0  0  0  0
 10 27  1  0  0  0  0
 10 28  1  0  0  0  0
 11 15  1  0  0  0  0
 11 29  1  0  0  0  0
 11 30  1  0  0  0  0
 12 13  1  0  0  0  0
 12 14  1  0  0  0  0
 12 31  1  0  0  0  0
 13 33  1  0  0  0  0
 13 37  1  0  0  0  0
 13 38  1  0  0  0  0
 14 34  1  0  0  0  0
 14 35  1  0  0  0  0
 14 36  1  0  0  0  0
 15 16  1  0  0  0  0
 16 17  1  0  0  0  0
 16 18  2  0  0  0  0
 17 19  2  0  0  0  0
 17 39  1  0  0  0  0
 18 40  1  0  0  0  0
 19 41  1  0  0  0  0
M  END
>  <PUBCHEM_COMPOUND_CID>
41493

>  <PUBCHEM_COMPOUND_CANONICALIZED>
1

>  <PUBCHEM_CACTVS_COMPLEXITY>
324

>  <PUBCHEM_CACTVS_HBOND_ACCEPTOR>
4

>  <PUBCHEM_CACTVS_HBOND_DONOR>
1

>  <PUBCHEM_CACTVS_ROTATABLE_BOND>
8

>  <PUBCHEM_CACTVS_SUBSKEYS>
AAADceBwOAAAAAAAAAAAAAAAAAAAASAAAAAAAAAAAAAAAAABgAAAGgAACAAADUSgmAIyBIAABkCIAqhSgAACCAAkIAAIiAEGCMgMJhYMNQqCWWCk4BEIKYOLyPCOAAAAAAAAAAAAAAAAAAAAAAAAAAAAAA==

>  <PUBCHEM_IUPAC_OPENEYE_NAME>
1-(3-furyl)-4-hydroxy-4,8-dimethyl-nonane-1,6-dione

>  <PUBCHEM_IUPAC_CAS_NAME>
1-(3-furanyl)-4-hydroxy-4,8-dimethylnonane-1,6-dione

>  <PUBCHEM_IUPAC_NAME>
1-(furan-3-yl)-4-hydroxy-4,8-dimethylnonane-1,6-dione

>  <PUBCHEM_IUPAC_SYSTEMATIC_NAME>
1-(furan-3-yl)-4,8-dimethyl-4-oxidanyl-nonane-1,6-dione

>  <PUBCHEM_IUPAC_TRADITIONAL_NAME>
1-(3-furyl)-4-hydroxy-4,8-dimethyl-nonane-1,6-dione

>  <PUBCHEM_IUPAC_INCHI>
InChI=1S/C15H22O4/c1-11(2)8-13(16)9-15(3,18)6-4-14(17)12-5-7-19-10-12/h5,7,10-11,18H,4,6,8-9H2,1-3H3

>  <PUBCHEM_IUPAC_INCHIKEY>
SUMMQMXACBFGLA-UHFFFAOYSA-N

>  <PUBCHEM_XLOGP3_AA>
1.4

>  <PUBCHEM_EXACT_MASS>
266.152

>  <PUBCHEM_MOLECULAR_FORMULA>
C15H22O4

>  <PUBCHEM_MOLECULAR_WEIGHT>
266.337

>  <PUBCHEM_OPENEYE_CAN_SMILES>
CC(C)CC(=O)CC(C)(CCC(=O)C1=COC=C1)O

>  <PUBCHEM_OPENEYE_ISO_SMILES>
CC(C)CC(=O)CC(C)(CCC(=O)C1=COC=C1)O

>  <PUBCHEM_CACTVS_TPSA>
67.5

>  <PUBCHEM_MONOISOTOPIC_WEIGHT>
266.152

>  <PUBCHEM_TOTAL_CHARGE>
0

>  <PUBCHEM_HEAVY_ATOM_COUNT>
19

>  <PUBCHEM_ATOM_DEF_STEREO_COUNT>
0

>  <PUBCHEM_ATOM_UDEF_STEREO_COUNT>
1

>  <PUBCHEM_BOND_DEF_STEREO_COUNT>
0

>  <PUBCHEM_BOND_UDEF_STEREO_COUNT>
0

>  <PUBCHEM_ISOTOPIC_ATOM_COUNT>
0

>  <PUBCHEM_COMPONENT_COUNT>
1

>  <PUBCHEM_CACTVS_TAUTO_COUNT>
6

>  <PUBCHEM_COORDINATE_TYPE>
1
5
255

>  <PUBCHEM_BONDANNOTATIONS>
5  1  3
16  17  8
16  18  8
17  19  8
4  18  8
4  19  8

$$$$
