4155678
 OpenBabel06101807152D

 58 60  0  0  1  0  0  0  0  0999 V2000
    7.7331    0.5000    0.0000 O   0  0  0  0  0  0  0  0  0  0  0  0
    4.2690   -0.5000    0.0000 O   0  0  0  0  0  0  0  0  0  0  0  0
    6.0010   -0.5000    0.0000 O   0  0  0  0  0  0  0  0  0  0  0  0
    6.0010    2.5000    0.0000 O   0  0  0  0  0  0  0  0  0  0  0  0
    9.4651    0.5000    0.0000 O   0  0  0  0  0  0  0  0  0  0  0  0
    7.7331    3.5000    0.0000 O   0  0  0  0  0  0  0  0  0  0  0  0
    6.0010   -2.5000    0.0000 O   0  0  0  0  0  0  0  0  0  0  0  0
    4.2690   -3.5000    0.0000 O   0  0  0  0  0  0  0  0  0  0  0  0
    9.4651    2.5000    0.0000 O   0  0  0  0  0  0  0  0  0  0  0  0
    2.5369   -2.5000    0.0000 O   0  0  0  0  0  0  0  0  0  0  0  0
    2.5369    0.5000    0.0000 O   0  0  0  0  0  0  0  0  0  0  0  0
    6.8671    1.0000    0.0000 C   0  0  3  0  0  0  0  0  0  0  0  0
    6.8671    2.0000    0.0000 C   0  0  3  0  0  0  0  0  0  0  0  0
    7.7331    2.5000    0.0000 C   0  0  3  0  0  0  0  0  0  0  0  0
    5.1350   -2.0000    0.0000 C   0  0  3  0  0  0  0  0  0  0  0  0
    4.2690   -2.5000    0.0000 C   0  0  3  0  0  0  0  0  0  0  0  0
    5.1350   -1.0000    0.0000 C   0  0  3  0  0  0  0  0  0  0  0  0
    8.5991    2.0000    0.0000 C   0  0  3  0  0  0  0  0  0  0  0  0
    3.4030   -2.0000    0.0000 C   0  0  3  0  0  0  0  0  0  0  0  0
    3.4030   -1.0000    0.0000 C   0  0  3  0  0  0  0  0  0  0  0  0
    8.5991    1.0000    0.0000 C   0  0  3  0  0  0  0  0  0  0  0  0
    6.0010    0.5000    0.0000 C   0  0  0  0  0  0  0  0  0  0  0  0
    2.5369   -0.5000    0.0000 C   0  0  0  0  0  0  0  0  0  0  0  0
    9.4651   -0.5000    0.0000 C   0  0  0  0  0  0  0  0  0  0  0  0
   10.3312   -1.0000    0.0000 C   0  0  0  0  0  0  0  0  0  0  0  0
   10.3312   -2.0000    0.0000 C   0  0  0  0  0  0  0  0  0  0  0  0
   11.1972   -0.5000    0.0000 C   0  0  0  0  0  0  0  0  0  0  0  0
   11.1972   -2.5000    0.0000 C   0  0  0  0  0  0  0  0  0  0  0  0
   12.0632   -1.0000    0.0000 C   0  0  0  0  0  0  0  0  0  0  0  0
   12.0632   -2.0000    0.0000 C   0  0  0  0  0  0  0  0  0  0  0  0
    6.8671    0.1500    0.0000 H   0  0  0  0  0  0  0  0  0  0  0  0
    6.1309    1.5750    0.0000 H   0  0  0  0  0  0  0  0  0  0  0  0
    6.9970    2.9250    0.0000 H   0  0  0  0  0  0  0  0  0  0  0  0
    5.1350   -2.8500    0.0000 H   0  0  0  0  0  0  0  0  0  0  0  0
    3.5329   -2.9250    0.0000 H   0  0  0  0  0  0  0  0  0  0  0  0
    5.1350   -0.1500    0.0000 H   0  0  0  0  0  0  0  0  0  0  0  0
    8.5991    2.8500    0.0000 H   0  0  0  0  0  0  0  0  0  0  0  0
    2.6668   -1.5750    0.0000 H   0  0  0  0  0  0  0  0  0  0  0  0
    3.4030   -0.1500    0.0000 H   0  0  0  0  0  0  0  0  0  0  0  0
    8.5991    0.1500    0.0000 H   0  0  0  0  0  0  0  0  0  0  0  0
    5.7890    1.0826    0.0000 H   0  0  0  0  0  0  0  0  0  0  0  0
    5.3905    0.3923    0.0000 H   0  0  0  0  0  0  0  0  0  0  0  0
    1.9264   -0.3923    0.0000 H   0  0  0  0  0  0  0  0  0  0  0  0
    2.3249   -1.0826    0.0000 H   0  0  0  0  0  0  0  0  0  0  0  0
    6.0010    3.1200    0.0000 H   0  0  0  0  0  0  0  0  0  0  0  0
    8.2700    3.8100    0.0000 H   0  0  0  0  0  0  0  0  0  0  0  0
    6.5380   -2.1900    0.0000 H   0  0  0  0  0  0  0  0  0  0  0  0
    3.7320   -3.8100    0.0000 H   0  0  0  0  0  0  0  0  0  0  0  0
   10.0021    2.1900    0.0000 H   0  0  0  0  0  0  0  0  0  0  0  0
    2.0000   -2.1900    0.0000 H   0  0  0  0  0  0  0  0  0  0  0  0
    8.8546   -0.3923    0.0000 H   0  0  0  0  0  0  0  0  0  0  0  0
    9.2531   -1.0826    0.0000 H   0  0  0  0  0  0  0  0  0  0  0  0
    2.0000    0.8100    0.0000 H   0  0  0  0  0  0  0  0  0  0  0  0
    9.7942   -2.3100    0.0000 H   0  0  0  0  0  0  0  0  0  0  0  0
   11.1972    0.1200    0.0000 H   0  0  0  0  0  0  0  0  0  0  0  0
   11.1972   -3.1200    0.0000 H   0  0  0  0  0  0  0  0  0  0  0  0
   12.6002   -0.6900    0.0000 H   0  0  0  0  0  0  0  0  0  0  0  0
   12.6002   -2.3100    0.0000 H   0  0  0  0  0  0  0  0  0  0  0  0
  1 12  1  0  0  0  0
  1 21  1  0  0  0  0
  2 17  1  0  0  0  0
  2 20  1  0  0  0  0
  3 17  1  0  0  0  0
  3 22  1  0  0  0  0
  4 13  1  0  0  0  0
  4 45  1  0  0  0  0
  5 21  1  0  0  0  0
  5 24  1  0  0  0  0
  6 14  1  0  0  0  0
  6 46  1  0  0  0  0
  7 15  1  0  0  0  0
  7 47  1  0  0  0  0
  8 16  1  0  0  0  0
  8 48  1  0  0  0  0
  9 18  1  0  0  0  0
  9 49  1  0  0  0  0
 10 19  1  0  0  0  0
 10 50  1  0  0  0  0
 11 23  1  0  0  0  0
 11 53  1  0  0  0  0
 12 13  1  0  0  0  0
 12 22  1  0  0  0  0
 12 31  1  0  0  0  0
 13 14  1  0  0  0  0
 13 32  1  0  0  0  0
 14 18  1  0  0  0  0
 14 33  1  0  0  0  0
 15 16  1  0  0  0  0
 15 17  1  0  0  0  0
 15 34  1  0  0  0  0
 16 19  1  0  0  0  0
 16 35  1  0  0  0  0
 17 36  1  0  0  0  0
 18 21  1  0  0  0  0
 18 37  1  0  0  0  0
 19 20  1  0  0  0  0
 19 38  1  0  0  0  0
 20 23  1  0  0  0  0
 20 39  1  0  0  0  0
 21 40  1  0  0  0  0
 22 41  1  0  0  0  0
 22 42  1  0  0  0  0
 23 43  1  0  0  0  0
 23 44  1  0  0  0  0
 24 25  1  0  0  0  0
 24 51  1  0  0  0  0
 24 52  1  0  0  0  0
 25 26  2  0  0  0  0
 25 27  1  0  0  0  0
 26 28  1  0  0  0  0
 26 54  1  0  0  0  0
 27 29  2  0  0  0  0
 27 55  1  0  0  0  0
 28 30  2  0  0  0  0
 28 56  1  0  0  0  0
 29 30  1  0  0  0  0
 29 57  1  0  0  0  0
 30 58  1  0  0  0  0
M  END
>  <PUBCHEM_COMPOUND_CID>
4155678

>  <PUBCHEM_COMPOUND_CANONICALIZED>
1

>  <PUBCHEM_CACTVS_COMPLEXITY>
517

>  <PUBCHEM_CACTVS_HBOND_ACCEPTOR>
11

>  <PUBCHEM_CACTVS_HBOND_DONOR>
7

>  <PUBCHEM_CACTVS_ROTATABLE_BOND>
7

>  <PUBCHEM_CACTVS_SUBSKEYS>
AAADceB4PAAAAAAAAAAAAAAAAAAAAAAAAAA0SIAAAAAAAAABAAAAGgAACAAADBSwmAMwCIAABgCAAiBCAAACAAAgAAAIiAAACIgZNiKAMRiicAAlwAEPqAfA4CwOAAAAAAAAAAAAAAAAAAAAAAAAAAAAAA==

>  <PUBCHEM_IUPAC_OPENEYE_NAME>
2-[(6-benzyloxy-3,4,5-trihydroxy-tetrahydropyran-2-yl)methoxy]-6-(hydroxymethyl)tetrahydropyran-3,4,5-triol

>  <PUBCHEM_IUPAC_CAS_NAME>
2-(hydroxymethyl)-6-[(3,4,5-trihydroxy-6-phenylmethoxy-2-oxanyl)methoxy]oxane-3,4,5-triol

>  <PUBCHEM_IUPAC_NAME>
2-(hydroxymethyl)-6-[(3,4,5-trihydroxy-6-phenylmethoxyoxan-2-yl)methoxy]oxane-3,4,5-triol

>  <PUBCHEM_IUPAC_SYSTEMATIC_NAME>
2-(hydroxymethyl)-6-[[3,4,5-tris(oxidanyl)-6-phenylmethoxy-oxan-2-yl]methoxy]oxane-3,4,5-triol

>  <PUBCHEM_IUPAC_TRADITIONAL_NAME>
2-[(6-benzoxy-3,4,5-trihydroxy-tetrahydropyran-2-yl)methoxy]-6-methylol-tetrahydropyran-3,4,5-triol

>  <PUBCHEM_IUPAC_INCHI>
InChI=1S/C19H28O11/c20-6-10-12(21)14(23)16(25)19(29-10)28-8-11-13(22)15(24)17(26)18(30-11)27-7-9-4-2-1-3-5-9/h1-5,10-26H,6-8H2

>  <PUBCHEM_IUPAC_INCHIKEY>
LLEMMFPELBNINR-UHFFFAOYSA-N

>  <PUBCHEM_XLOGP3>
-2.8

>  <PUBCHEM_EXACT_MASS>
432.163

>  <PUBCHEM_MOLECULAR_FORMULA>
C19H28O11

>  <PUBCHEM_MOLECULAR_WEIGHT>
432.422

>  <PUBCHEM_OPENEYE_CAN_SMILES>
C1=CC=C(C=C1)COC2C(C(C(C(O2)COC3C(C(C(C(O3)CO)O)O)O)O)O)O

>  <PUBCHEM_OPENEYE_ISO_SMILES>
C1=CC=C(C=C1)COC2C(C(C(C(O2)COC3C(C(C(C(O3)CO)O)O)O)O)O)O

>  <PUBCHEM_CACTVS_TPSA>
179

>  <PUBCHEM_MONOISOTOPIC_WEIGHT>
432.163

>  <PUBCHEM_TOTAL_CHARGE>
0

>  <PUBCHEM_HEAVY_ATOM_COUNT>
30

>  <PUBCHEM_ATOM_DEF_STEREO_COUNT>
0

>  <PUBCHEM_ATOM_UDEF_STEREO_COUNT>
10

>  <PUBCHEM_BOND_DEF_STEREO_COUNT>
0

>  <PUBCHEM_BOND_UDEF_STEREO_COUNT>
0

>  <PUBCHEM_ISOTOPIC_ATOM_COUNT>
0

>  <PUBCHEM_COMPONENT_COUNT>
1

>  <PUBCHEM_CACTVS_TAUTO_COUNT>
1

>  <PUBCHEM_COORDINATE_TYPE>
1
5
255

>  <PUBCHEM_BONDANNOTATIONS>
12  31  3
13  32  3
14  33  3
15  34  3
16  35  3
17  36  3
18  37  3
19  38  3
20  39  3
21  40  3
25  26  8
25  27  8
26  28  8
27  29  8
28  30  8
29  30  8

$$$$
