42607642
 OpenBabel06101807152D

 58 59  0  0  0  0  0  0  0  0999 V2000
    4.2690   -3.9050    0.0000 O   0  0  0  0  0  0  0  0  0  0  0  0
    8.5991    3.5950    0.0000 O   0  0  0  0  0  0  0  0  0  0  0  0
    2.5369   -0.9050    0.0000 O   0  0  0  0  0  0  0  0  0  0  0  0
    4.2690    2.0950    0.0000 O   0  0  0  0  0  0  0  0  0  0  0  0
    3.4030    0.5950    0.0000 O   0  0  0  0  0  0  0  0  0  0  0  0
    5.1350   -2.4050    0.0000 C   0  0  0  0  0  0  0  0  0  0  0  0
    7.7331    2.0950    0.0000 C   0  0  0  0  0  0  0  0  0  0  0  0
    6.0010   -2.9050    0.0000 C   0  0  0  0  0  0  0  0  0  0  0  0
    8.5991    1.5950    0.0000 C   0  0  0  0  0  0  0  0  0  0  0  0
    4.2690   -0.9050    0.0000 C   0  0  0  0  0  0  0  0  0  0  0  0
    5.1350   -1.4050    0.0000 C   0  0  0  0  0  0  0  0  0  0  0  0
    6.0010    2.0950    0.0000 C   0  0  0  0  0  0  0  0  0  0  0  0
    6.8671    1.5950    0.0000 C   0  0  0  0  0  0  0  0  0  0  0  0
    4.2690   -2.9050    0.0000 C   0  0  0  0  0  0  0  0  0  0  0  0
    7.7331    3.0950    0.0000 C   0  0  0  0  0  0  0  0  0  0  0  0
    3.4030   -1.4050    0.0000 C   0  0  0  0  0  0  0  0  0  0  0  0
    3.4030   -2.4050    0.0000 C   0  0  0  0  0  0  0  0  0  0  0  0
    6.8671   -2.4050    0.0000 C   0  0  0  0  0  0  0  0  0  0  0  0
    5.1350    1.5950    0.0000 C   0  0  0  0  0  0  0  0  0  0  0  0
    4.2690    0.0950    0.0000 C   0  0  0  0  0  0  0  0  0  0  0  0
    6.0010    3.0950    0.0000 C   0  0  0  0  0  0  0  0  0  0  0  0
    9.4651    2.0950    0.0000 C   0  0  0  0  0  0  0  0  0  0  0  0
    6.8671    3.5950    0.0000 C   0  0  0  0  0  0  0  0  0  0  0  0
    5.1350    0.5950    0.0000 C   0  0  0  0  0  0  0  0  0  0  0  0
    7.7331   -2.9050    0.0000 C   0  0  0  0  0  0  0  0  0  0  0  0
   10.3312    1.5950    0.0000 C   0  0  0  0  0  0  0  0  0  0  0  0
    8.5991   -2.4050    0.0000 C   0  0  0  0  0  0  0  0  0  0  0  0
    7.7331   -3.9050    0.0000 C   0  0  0  0  0  0  0  0  0  0  0  0
   11.1972    2.0950    0.0000 C   0  0  0  0  0  0  0  0  0  0  0  0
   10.3312    0.5950    0.0000 C   0  0  0  0  0  0  0  0  0  0  0  0
    5.6025   -3.3800    0.0000 H   0  0  0  0  0  0  0  0  0  0  0  0
    6.3996   -3.3800    0.0000 H   0  0  0  0  0  0  0  0  0  0  0  0
    8.2006    1.1200    0.0000 H   0  0  0  0  0  0  0  0  0  0  0  0
    8.9976    1.1200    0.0000 H   0  0  0  0  0  0  0  0  0  0  0  0
    5.6720   -1.0950    0.0000 H   0  0  0  0  0  0  0  0  0  0  0  0
    6.8671    0.9750    0.0000 H   0  0  0  0  0  0  0  0  0  0  0  0
    6.8671   -1.7850    0.0000 H   0  0  0  0  0  0  0  0  0  0  0  0
    2.8660   -2.7150    0.0000 H   0  0  0  0  0  0  0  0  0  0  0  0
    5.4641    3.4050    0.0000 H   0  0  0  0  0  0  0  0  0  0  0  0
    9.4651    2.7150    0.0000 H   0  0  0  0  0  0  0  0  0  0  0  0
    6.8671    4.2150    0.0000 H   0  0  0  0  0  0  0  0  0  0  0  0
    5.6720    0.2850    0.0000 H   0  0  0  0  0  0  0  0  0  0  0  0
    8.9091   -2.9419    0.0000 H   0  0  0  0  0  0  0  0  0  0  0  0
    9.1360   -2.0950    0.0000 H   0  0  0  0  0  0  0  0  0  0  0  0
    8.2891   -1.8681    0.0000 H   0  0  0  0  0  0  0  0  0  0  0  0
    7.1131   -3.9050    0.0000 H   0  0  0  0  0  0  0  0  0  0  0  0
    7.7331   -4.5250    0.0000 H   0  0  0  0  0  0  0  0  0  0  0  0
    8.3531   -3.9050    0.0000 H   0  0  0  0  0  0  0  0  0  0  0  0
   11.5072    1.5581    0.0000 H   0  0  0  0  0  0  0  0  0  0  0  0
    9.7112    0.5950    0.0000 H   0  0  0  0  0  0  0  0  0  0  0  0
   10.3312   -0.0250    0.0000 H   0  0  0  0  0  0  0  0  0  0  0  0
   10.9512    0.5950    0.0000 H   0  0  0  0  0  0  0  0  0  0  0  0
   11.7341    2.4050    0.0000 H   0  0  0  0  0  0  0  0  0  0  0  0
   10.8872    2.6319    0.0000 H   0  0  0  0  0  0  0  0  0  0  0  0
    3.7320   -4.2150    0.0000 H   0  0  0  0  0  0  0  0  0  0  0  0
    8.5991    4.2150    0.0000 H   0  0  0  0  0  0  0  0  0  0  0  0
    2.0000   -1.2150    0.0000 H   0  0  0  0  0  0  0  0  0  0  0  0
    4.2690    2.7150    0.0000 H   0  0  0  0  0  0  0  0  0  0  0  0
  1 14  1  0  0  0  0
  1 55  1  0  0  0  0
  2 15  1  0  0  0  0
  2 56  1  0  0  0  0
  3 16  1  0  0  0  0
  3 57  1  0  0  0  0
  4 19  1  0  0  0  0
  4 58  1  0  0  0  0
  5 20  2  0  0  0  0
  6  8  1  0  0  0  0
  6 11  2  0  0  0  0
  6 14  1  0  0  0  0
  7  9  1  0  0  0  0
  7 13  1  0  0  0  0
  7 15  2  0  0  0  0
  8 18  1  0  0  0  0
  8 31  1  0  0  0  0
  8 32  1  0  0  0  0
  9 22  1  0  0  0  0
  9 33  1  0  0  0  0
  9 34  1  0  0  0  0
 10 11  1  0  0  0  0
 10 16  2  0  0  0  0
 10 20  1  0  0  0  0
 11 35  1  0  0  0  0
 12 13  2  0  0  0  0
 12 19  1  0  0  0  0
 12 21  1  0  0  0  0
 13 36  1  0  0  0  0
 14 17  2  0  0  0  0
 15 23  1  0  0  0  0
 16 17  1  0  0  0  0
 17 38  1  0  0  0  0
 18 25  2  0  0  0  0
 18 37  1  0  0  0  0
 19 24  2  0  0  0  0
 20 24  1  0  0  0  0
 21 23  2  0  0  0  0
 21 39  1  0  0  0  0
 22 26  2  0  0  0  0
 22 40  1  0  0  0  0
 23 41  1  0  0  0  0
 24 42  1  0  0  0  0
 25 27  1  0  0  0  0
 25 28  1  0  0  0  0
 26 29  1  0  0  0  0
 26 30  1  0  0  0  0
 27 43  1  0  0  0  0
 27 44  1  0  0  0  0
 27 45  1  0  0  0  0
 28 46  1  0  0  0  0
 28 47  1  0  0  0  0
 28 48  1  0  0  0  0
 29 49  1  0  0  0  0
 29 53  1  0  0  0  0
 29 54  1  0  0  0  0
 30 50  1  0  0  0  0
 30 51  1  0  0  0  0
 30 52  1  0  0  0  0
M  END
>  <PUBCHEM_COMPOUND_CID>
42607642

>  <PUBCHEM_COMPOUND_CANONICALIZED>
1

>  <PUBCHEM_CACTVS_COMPLEXITY>
669

>  <PUBCHEM_CACTVS_HBOND_ACCEPTOR>
5

>  <PUBCHEM_CACTVS_HBOND_DONOR>
4

>  <PUBCHEM_CACTVS_ROTATABLE_BOND>
7

>  <PUBCHEM_CACTVS_SUBSKEYS>
AAADceB4OAAAAAAAAAAAAAAAAAAAAAAAAAAwYAAAAAAAAAABQAAAGgAACAAADASAmAAyBoAAAgCIAqBSAAACAAAkIAAIiAEGCMgIJzaCFRKAcUAl4BUImYeI7OTOIAACCAAIAABAAAQQABAAAAAAAAAAAA==

>  <PUBCHEM_IUPAC_OPENEYE_NAME>
(Z)-1-[2,4-dihydroxy-5-(3-methylbut-2-enyl)phenyl]-3-hydroxy-3-[4-hydroxy-3-(3-methylbut-2-enyl)phenyl]prop-2-en-1-one

>  <PUBCHEM_IUPAC_CAS_NAME>
(Z)-1-[2,4-dihydroxy-5-(3-methylbut-2-enyl)phenyl]-3-hydroxy-3-[4-hydroxy-3-(3-methylbut-2-enyl)phenyl]-2-propen-1-one

>  <PUBCHEM_IUPAC_NAME>
(Z)-1-[2,4-dihydroxy-5-(3-methylbut-2-enyl)phenyl]-3-hydroxy-3-[4-hydroxy-3-(3-methylbut-2-enyl)phenyl]prop-2-en-1-one

>  <PUBCHEM_IUPAC_SYSTEMATIC_NAME>
(Z)-1-[5-(3-methylbut-2-enyl)-2,4-bis(oxidanyl)phenyl]-3-[3-(3-methylbut-2-enyl)-4-oxidanyl-phenyl]-3-oxidanyl-prop-2-en-1-one

>  <PUBCHEM_IUPAC_TRADITIONAL_NAME>
(Z)-1-[2,4-dihydroxy-5-(3-methylbut-2-enyl)phenyl]-3-hydroxy-3-[4-hydroxy-3-(3-methylbut-2-enyl)phenyl]prop-2-en-1-one

>  <PUBCHEM_IUPAC_INCHI>
InChI=1S/C25H28O5/c1-15(2)5-7-17-11-18(9-10-21(17)26)22(27)13-24(29)20-12-19(8-6-16(3)4)23(28)14-25(20)30/h5-6,9-14,26-28,30H,7-8H2,1-4H3/b22-13-

>  <PUBCHEM_IUPAC_INCHIKEY>
FFPFIAFZJXSGDK-XKZIYDEJSA-N

>  <PUBCHEM_XLOGP3_AA>
6.5

>  <PUBCHEM_EXACT_MASS>
408.194

>  <PUBCHEM_MOLECULAR_FORMULA>
C25H28O5

>  <PUBCHEM_MOLECULAR_WEIGHT>
408.494

>  <PUBCHEM_OPENEYE_CAN_SMILES>
CC(=CCC1=C(C=CC(=C1)C(=CC(=O)C2=CC(=C(C=C2O)O)CC=C(C)C)O)O)C

>  <PUBCHEM_OPENEYE_ISO_SMILES>
CC(=CCC1=C(C=CC(=C1)/C(=C/C(=O)C2=CC(=C(C=C2O)O)CC=C(C)C)/O)O)C

>  <PUBCHEM_CACTVS_TPSA>
98

>  <PUBCHEM_MONOISOTOPIC_WEIGHT>
408.194

>  <PUBCHEM_TOTAL_CHARGE>
0

>  <PUBCHEM_HEAVY_ATOM_COUNT>
30

>  <PUBCHEM_ATOM_DEF_STEREO_COUNT>
0

>  <PUBCHEM_ATOM_UDEF_STEREO_COUNT>
0

>  <PUBCHEM_BOND_DEF_STEREO_COUNT>
1

>  <PUBCHEM_BOND_UDEF_STEREO_COUNT>
0

>  <PUBCHEM_ISOTOPIC_ATOM_COUNT>
0

>  <PUBCHEM_COMPONENT_COUNT>
1

>  <PUBCHEM_CACTVS_TAUTO_COUNT>
153

>  <PUBCHEM_COORDINATE_TYPE>
1
5
255

>  <PUBCHEM_BONDANNOTATIONS>
10  11  8
10  16  8
12  13  8
12  21  8
14  17  8
15  23  8
16  17  8
21  23  8
6  11  8
6  14  8
7  13  8
7  15  8

$$$$
