42608066
 OpenBabel06101807152D

 78 82  0  0  1  0  0  0  0  0999 V2000
    6.8671   -4.2787    0.0000 O   0  0  0  0  0  0  0  0  0  0  0  0
    6.0010   -1.7787    0.0000 O   0  0  0  0  0  0  0  0  0  0  0  0
    5.1350   -4.2787    0.0000 O   0  0  0  0  0  0  0  0  0  0  0  0
    8.5991   -3.2787    0.0000 O   0  0  0  0  0  0  0  0  0  0  0  0
    6.8671   -0.2787    0.0000 O   0  0  0  0  0  0  0  0  0  0  0  0
    8.5991   -1.2787    0.0000 O   0  0  0  0  0  0  0  0  0  0  0  0
    6.8671   -6.2787    0.0000 O   0  0  0  0  0  0  0  0  0  0  0  0
    5.1350   -7.2787    0.0000 O   0  0  0  0  0  0  0  0  0  0  0  0
    3.4030   -6.2787    0.0000 O   0  0  0  0  0  0  0  0  0  0  0  0
    4.2690   -2.7787    0.0000 O   0  0  0  0  0  0  0  0  0  0  0  0
    2.5369   -4.7787    0.0000 O   0  0  0  0  0  0  0  0  0  0  0  0
    5.0928    2.7733    0.0000 O   0  0  0  0  0  0  0  0  0  0  0  0
    3.3273   -0.2514    0.0000 O   0  0  0  0  0  0  0  0  0  0  0  0
    2.4890    1.2833    0.0000 O   0  0  0  0  0  0  0  0  0  0  0  0
    5.9723    6.2699    0.0000 O   0  0  0  0  0  0  0  0  0  0  0  0
    4.2442    7.2766    0.0000 O   0  0  0  0  0  0  0  0  0  0  0  0
    6.8671   -3.2787    0.0000 C   0  0  3  0  0  0  0  0  0  0  0  0
    7.7331   -2.7787    0.0000 C   0  0  3  0  0  0  0  0  0  0  0  0
    6.0010   -2.7787    0.0000 C   0  0  3  0  0  0  0  0  0  0  0  0
    6.0010   -4.7787    0.0000 C   0  0  3  0  0  0  0  0  0  0  0  0
    7.7331   -1.7787    0.0000 C   0  0  3  0  0  0  0  0  0  0  0  0
    6.0010   -5.7787    0.0000 C   0  0  3  0  0  0  0  0  0  0  0  0
    5.1350   -6.2787    0.0000 C   0  0  3  0  0  0  0  0  0  0  0  0
    4.2690   -5.7787    0.0000 C   0  0  3  0  0  0  0  0  0  0  0  0
    4.2690   -4.7787    0.0000 C   0  0  3  0  0  0  0  0  0  0  0  0
    6.8671   -1.2787    0.0000 C   0  0  3  0  0  0  0  0  0  0  0  0
    5.1350   -3.2787    0.0000 C   0  0  0  0  0  0  0  0  0  0  0  0
    3.4030   -4.2787    0.0000 C   0  0  0  0  0  0  0  0  0  0  0  0
    6.0010    0.2213    0.0000 C   0  0  0  0  0  0  0  0  0  0  0  0
    5.9970    1.2630    0.0000 C   0  0  0  0  0  0  0  0  0  0  0  0
    5.0970   -0.2960    0.0000 C   0  0  0  0  0  0  0  0  0  0  0  0
    5.0890    1.7733    0.0000 C   0  0  0  0  0  0  0  0  0  0  0  0
    4.2210    1.2766    0.0000 C   0  0  0  0  0  0  0  0  0  0  0  0
    4.2287    3.2766    0.0000 C   0  0  3  0  0  0  0  0  0  0  0  0
    4.2010    0.2352    0.0000 C   0  0  0  0  0  0  0  0  0  0  0  0
    3.3608    2.7800    0.0000 C   0  0  0  0  0  0  0  0  0  0  0  0
    3.3569    1.7800    0.0000 C   0  0  0  0  0  0  0  0  0  0  0  0
    4.2326    4.2766    0.0000 C   0  0  0  0  0  0  0  0  0  0  0  0
    5.1005    4.7733    0.0000 C   0  0  0  0  0  0  0  0  0  0  0  0
    3.3685    4.7800    0.0000 C   0  0  0  0  0  0  0  0  0  0  0  0
    5.1044    5.7733    0.0000 C   0  0  0  0  0  0  0  0  0  0  0  0
    3.3119   -1.2513    0.0000 C   0  0  0  0  0  0  0  0  0  0  0  0
    3.3724    5.7800    0.0000 C   0  0  0  0  0  0  0  0  0  0  0  0
    4.2403    6.2766    0.0000 C   0  0  0  0  0  0  0  0  0  0  0  0
    7.4040   -3.5887    0.0000 H   0  0  0  0  0  0  0  0  0  0  0  0
    8.2700   -2.4687    0.0000 H   0  0  0  0  0  0  0  0  0  0  0  0
    5.4641   -2.4687    0.0000 H   0  0  0  0  0  0  0  0  0  0  0  0
    6.0010   -4.1587    0.0000 H   0  0  0  0  0  0  0  0  0  0  0  0
    7.7331   -1.1587    0.0000 H   0  0  0  0  0  0  0  0  0  0  0  0
    6.0010   -6.3987    0.0000 H   0  0  0  0  0  0  0  0  0  0  0  0
    4.5981   -6.5887    0.0000 H   0  0  0  0  0  0  0  0  0  0  0  0
    3.7320   -5.4687    0.0000 H   0  0  0  0  0  0  0  0  0  0  0  0
    4.2690   -4.1587    0.0000 H   0  0  0  0  0  0  0  0  0  0  0  0
    6.3301   -0.9687    0.0000 H   0  0  0  0  0  0  0  0  0  0  0  0
    4.7365   -3.7536    0.0000 H   0  0  0  0  0  0  0  0  0  0  0  0
    5.5335   -3.7536    0.0000 H   0  0  0  0  0  0  0  0  0  0  0  0
    3.8015   -3.8037    0.0000 H   0  0  0  0  0  0  0  0  0  0  0  0
    3.0044   -3.8037    0.0000 H   0  0  0  0  0  0  0  0  0  0  0  0
    9.1360   -2.9687    0.0000 H   0  0  0  0  0  0  0  0  0  0  0  0
    8.5991   -0.6587    0.0000 H   0  0  0  0  0  0  0  0  0  0  0  0
    7.4040   -5.9687    0.0000 H   0  0  0  0  0  0  0  0  0  0  0  0
    5.6720   -7.5887    0.0000 H   0  0  0  0  0  0  0  0  0  0  0  0
    3.4030   -6.8987    0.0000 H   0  0  0  0  0  0  0  0  0  0  0  0
    4.2690   -2.1587    0.0000 H   0  0  0  0  0  0  0  0  0  0  0  0
    2.0000   -4.4687    0.0000 H   0  0  0  0  0  0  0  0  0  0  0  0
    6.5316    1.5771    0.0000 H   0  0  0  0  0  0  0  0  0  0  0  0
    5.0922   -0.9160    0.0000 H   0  0  0  0  0  0  0  0  0  0  0  0
    4.7669    3.5846    0.0000 H   0  0  0  0  0  0  0  0  0  0  0  0
    3.1510    3.3634    0.0000 H   0  0  0  0  0  0  0  0  0  0  0  0
    2.7498    2.6747    0.0000 H   0  0  0  0  0  0  0  0  0  0  0  0
    5.6363    4.4612    0.0000 H   0  0  0  0  0  0  0  0  0  0  0  0
    2.8304    4.4720    0.0000 H   0  0  0  0  0  0  0  0  0  0  0  0
    2.8366    6.0920    0.0000 H   0  0  0  0  0  0  0  0  0  0  0  0
    2.6920   -1.2417    0.0000 H   0  0  0  0  0  0  0  0  0  0  0  0
    3.3024   -1.8712    0.0000 H   0  0  0  0  0  0  0  0  0  0  0  0
    3.9318   -1.2608    0.0000 H   0  0  0  0  0  0  0  0  0  0  0  0
    5.9747    6.8899    0.0000 H   0  0  0  0  0  0  0  0  0  0  0  0
    3.7084    7.5887    0.0000 H   0  0  0  0  0  0  0  0  0  0  0  0
  1 17  1  0  0  0  0
  1 20  1  0  0  0  0
  2 19  1  0  0  0  0
  2 26  1  0  0  0  0
  3 20  1  0  0  0  0
  3 25  1  0  0  0  0
  4 18  1  0  0  0  0
  4 59  1  0  0  0  0
  5 26  1  0  0  0  0
  5 29  1  0  0  0  0
  6 21  1  0  0  0  0
  6 60  1  0  0  0  0
  7 22  1  0  0  0  0
  7 61  1  0  0  0  0
  8 23  1  0  0  0  0
  8 62  1  0  0  0  0
  9 24  1  0  0  0  0
  9 63  1  0  0  0  0
 10 27  1  0  0  0  0
 10 64  1  0  0  0  0
 11 28  1  0  0  0  0
 11 65  1  0  0  0  0
 12 32  1  0  0  0  0
 12 34  1  0  0  0  0
 13 35  1  0  0  0  0
 13 42  1  0  0  0  0
 14 37  2  0  0  0  0
 15 41  1  0  0  0  0
 15 77  1  0  0  0  0
 16 44  1  0  0  0  0
 16 78  1  0  0  0  0
 17 18  1  0  0  0  0
 17 19  1  0  0  0  0
 17 45  1  0  0  0  0
 18 21  1  0  0  0  0
 18 46  1  0  0  0  0
 19 27  1  0  0  0  0
 19 47  1  0  0  0  0
 20 22  1  0  0  0  0
 20 48  1  0  0  0  0
 21 26  1  0  0  0  0
 21 49  1  0  0  0  0
 22 23  1  0  0  0  0
 22 50  1  0  0  0  0
 23 24  1  0  0  0  0
 23 51  1  0  0  0  0
 24 25  1  0  0  0  0
 24 52  1  0  0  0  0
 25 28  1  0  0  0  0
 25 53  1  0  0  0  0
 26 54  1  0  0  0  0
 27 55  1  0  0  0  0
 27 56  1  0  0  0  0
 28 57  1  0  0  0  0
 28 58  1  0  0  0  0
 29 30  2  0  0  0  0
 29 31  1  0  0  0  0
 30 32  1  0  0  0  0
 30 66  1  0  0  0  0
 31 35  2  0  0  0  0
 31 67  1  0  0  0  0
 32 33  2  0  0  0  0
 33 35  1  0  0  0  0
 33 37  1  0  0  0  0
 34 36  1  0  0  0  0
 34 38  1  0  0  0  0
 34 68  1  0  0  0  0
 36 37  1  0  0  0  0
 36 69  1  0  0  0  0
 36 70  1  0  0  0  0
 38 39  2  0  0  0  0
 38 40  1  0  0  0  0
 39 41  1  0  0  0  0
 39 71  1  0  0  0  0
 40 43  2  0  0  0  0
 40 72  1  0  0  0  0
 41 44  2  0  0  0  0
 42 74  1  0  0  0  0
 42 75  1  0  0  0  0
 42 76  1  0  0  0  0
 43 44  1  0  0  0  0
 43 73  1  0  0  0  0
M  END
>  <PUBCHEM_COMPOUND_CID>
42608066

>  <PUBCHEM_COMPOUND_CANONICALIZED>
1

>  <PUBCHEM_CACTVS_COMPLEXITY>
957

>  <PUBCHEM_CACTVS_HBOND_ACCEPTOR>
16

>  <PUBCHEM_CACTVS_HBOND_DONOR>
9

>  <PUBCHEM_CACTVS_ROTATABLE_BOND>
8

>  <PUBCHEM_CACTVS_SUBSKEYS>
AAADcfB4PgAAAAAAAAAAAAAAAAAAAAAAAAA0aJECAAAAAACRQAAAGgAACAAADBSwmAMyDoAABgCIAqBSAAACCAAkIAAIiAEGiMgdNzaGNRqieWGl4BUPuQfI7PzOIAABCAAIQABAAAIQABCAAAAAAAAAAA==

>  <PUBCHEM_IUPAC_OPENEYE_NAME>
7-[3,4-dihydroxy-6-(hydroxymethyl)-5-[3,4,5-trihydroxy-6-(hydroxymethyl)tetrahydropyran-2-yl]oxy-tetrahydropyran-2-yl]oxy-2-(3,4-dihydroxyphenyl)-5-methoxy-chroman-4-one

>  <PUBCHEM_IUPAC_CAS_NAME>
7-[[3,4-dihydroxy-6-(hydroxymethyl)-5-[[3,4,5-trihydroxy-6-(hydroxymethyl)-2-oxanyl]oxy]-2-oxanyl]oxy]-2-(3,4-dihydroxyphenyl)-5-methoxy-3,4-dihydro-2H-1-benzopyran-4-one

>  <PUBCHEM_IUPAC_NAME>
7-[3,4-dihydroxy-6-(hydroxymethyl)-5-[3,4,5-trihydroxy-6-(hydroxymethyl)oxan-2-yl]oxyoxan-2-yl]oxy-2-(3,4-dihydroxyphenyl)-5-methoxy-2,3-dihydrochromen-4-one

>  <PUBCHEM_IUPAC_SYSTEMATIC_NAME>
2-[3,4-bis(oxidanyl)phenyl]-7-[6-(hydroxymethyl)-5-[6-(hydroxymethyl)-3,4,5-tris(oxidanyl)oxan-2-yl]oxy-3,4-bis(oxidanyl)oxan-2-yl]oxy-5-methoxy-2,3-dihydrochromen-4-one

>  <PUBCHEM_IUPAC_TRADITIONAL_NAME>
7-[3,4-dihydroxy-6-methylol-5-(3,4,5-trihydroxy-6-methylol-tetrahydropyran-2-yl)oxy-tetrahydropyran-2-yl]oxy-2-(3,4-dihydroxyphenyl)-5-methoxy-chroman-4-one

>  <PUBCHEM_IUPAC_INCHI>
InChI=1S/C28H34O16/c1-39-16-5-11(6-17-20(16)14(33)7-15(41-17)10-2-3-12(31)13(32)4-10)40-27-25(38)23(36)26(19(9-30)43-27)44-28-24(37)22(35)21(34)18(8-29)42-28/h2-6,15,18-19,21-32,34-38H,7-9H2,1H3

>  <PUBCHEM_IUPAC_INCHIKEY>
CEJOKNKJINIMGF-UHFFFAOYSA-N

>  <PUBCHEM_XLOGP3_AA>
-2.1

>  <PUBCHEM_EXACT_MASS>
626.185

>  <PUBCHEM_MOLECULAR_FORMULA>
C28H34O16

>  <PUBCHEM_MOLECULAR_WEIGHT>
626.564

>  <PUBCHEM_OPENEYE_CAN_SMILES>
COC1=C2C(=O)CC(OC2=CC(=C1)OC3C(C(C(C(O3)CO)OC4C(C(C(C(O4)CO)O)O)O)O)O)C5=CC(=C(C=C5)O)O

>  <PUBCHEM_OPENEYE_ISO_SMILES>
COC1=C2C(=O)CC(OC2=CC(=C1)OC3C(C(C(C(O3)CO)OC4C(C(C(C(O4)CO)O)O)O)O)O)C5=CC(=C(C=C5)O)O

>  <PUBCHEM_CACTVS_TPSA>
255

>  <PUBCHEM_MONOISOTOPIC_WEIGHT>
626.185

>  <PUBCHEM_TOTAL_CHARGE>
0

>  <PUBCHEM_HEAVY_ATOM_COUNT>
44

>  <PUBCHEM_ATOM_DEF_STEREO_COUNT>
0

>  <PUBCHEM_ATOM_UDEF_STEREO_COUNT>
11

>  <PUBCHEM_BOND_DEF_STEREO_COUNT>
0

>  <PUBCHEM_BOND_UDEF_STEREO_COUNT>
0

>  <PUBCHEM_ISOTOPIC_ATOM_COUNT>
0

>  <PUBCHEM_COMPONENT_COUNT>
1

>  <PUBCHEM_CACTVS_TAUTO_COUNT>
20

>  <PUBCHEM_COORDINATE_TYPE>
1
5
255

>  <PUBCHEM_BONDANNOTATIONS>
17  1  3
20  1  3
19  27  3
25  28  3
29  30  8
29  31  8
30  32  8
31  35  8
32  33  8
33  35  8
34  38  3
38  39  8
38  40  8
39  41  8
18  4  3
40  43  8
41  44  8
43  44  8
26  5  3
21  6  3
22  7  3
23  8  3
24  9  3

$$$$
