42605184
 OpenBabel06101807152D

 41 43  0  0  0  0  0  0  0  0999 V2000
    6.0812    0.3292    0.0000 O   0  0  0  0  0  0  0  0  0  0  0  0
    2.5369    0.1340    0.0000 O   0  0  0  0  0  0  0  0  0  0  0  0
    9.6648    2.8660    0.0000 O   0  0  0  0  0  0  0  0  0  0  0  0
    9.6648   -0.5981    0.0000 O   0  0  0  0  0  0  0  0  0  0  0  0
    5.1350    0.6340    0.0000 C   0  0  0  0  0  0  0  0  0  0  0  0
    4.2690    0.1340    0.0000 C   0  0  0  0  0  0  0  0  0  0  0  0
    5.1350    1.6340    0.0000 C   0  0  0  0  0  0  0  0  0  0  0  0
    4.2690   -0.8660    0.0000 C   0  0  0  0  0  0  0  0  0  0  0  0
    6.6648    1.1340    0.0000 C   0  0  0  0  0  0  0  0  0  0  0  0
    6.0812    1.9387    0.0000 C   0  0  0  0  0  0  0  0  0  0  0  0
    3.4030    0.6340    0.0000 C   0  0  0  0  0  0  0  0  0  0  0  0
    4.2690    2.1340    0.0000 C   0  0  0  0  0  0  0  0  0  0  0  0
    7.6648    1.1340    0.0000 C   0  0  0  0  0  0  0  0  0  0  0  0
    3.4030    1.6340    0.0000 C   0  0  0  0  0  0  0  0  0  0  0  0
    3.4030   -1.3660    0.0000 C   0  0  0  0  0  0  0  0  0  0  0  0
    3.4030   -2.3660    0.0000 C   0  0  0  0  0  0  0  0  0  0  0  0
    8.1648    0.2679    0.0000 C   0  0  0  0  0  0  0  0  0  0  0  0
    8.1648    2.0000    0.0000 C   0  0  0  0  0  0  0  0  0  0  0  0
    9.1648    2.0000    0.0000 C   0  0  0  0  0  0  0  0  0  0  0  0
    9.1648    0.2679    0.0000 C   0  0  0  0  0  0  0  0  0  0  0  0
    2.5369   -2.8660    0.0000 C   0  0  0  0  0  0  0  0  0  0  0  0
    4.2690   -2.8660    0.0000 C   0  0  0  0  0  0  0  0  0  0  0  0
    9.6648    1.1340    0.0000 C   0  0  0  0  0  0  0  0  0  0  0  0
    4.4810   -1.4486    0.0000 H   0  0  0  0  0  0  0  0  0  0  0  0
    4.8796   -0.7584    0.0000 H   0  0  0  0  0  0  0  0  0  0  0  0
    6.2738    2.5280    0.0000 H   0  0  0  0  0  0  0  0  0  0  0  0
    4.2690    2.7540    0.0000 H   0  0  0  0  0  0  0  0  0  0  0  0
    2.8660    1.9440    0.0000 H   0  0  0  0  0  0  0  0  0  0  0  0
    2.8660   -1.0560    0.0000 H   0  0  0  0  0  0  0  0  0  0  0  0
    7.8548   -0.2690    0.0000 H   0  0  0  0  0  0  0  0  0  0  0  0
    7.8548    2.5369    0.0000 H   0  0  0  0  0  0  0  0  0  0  0  0
    2.0000    0.4440    0.0000 H   0  0  0  0  0  0  0  0  0  0  0  0
    2.2269   -2.3291    0.0000 H   0  0  0  0  0  0  0  0  0  0  0  0
    3.9590   -3.4030    0.0000 H   0  0  0  0  0  0  0  0  0  0  0  0
    4.8059   -3.1760    0.0000 H   0  0  0  0  0  0  0  0  0  0  0  0
    4.5790   -2.3291    0.0000 H   0  0  0  0  0  0  0  0  0  0  0  0
    2.0000   -3.1760    0.0000 H   0  0  0  0  0  0  0  0  0  0  0  0
    2.8469   -3.4030    0.0000 H   0  0  0  0  0  0  0  0  0  0  0  0
   10.2848    1.1340    0.0000 H   0  0  0  0  0  0  0  0  0  0  0  0
   10.2848    2.8660    0.0000 H   0  0  0  0  0  0  0  0  0  0  0  0
   10.2848   -0.5981    0.0000 H   0  0  0  0  0  0  0  0  0  0  0  0
  1  5  1  0  0  0  0
  1  9  1  0  0  0  0
  2 11  1  0  0  0  0
  2 32  1  0  0  0  0
  3 19  1  0  0  0  0
  3 40  1  0  0  0  0
  4 20  1  0  0  0  0
  4 41  1  0  0  0  0
  5  6  1  0  0  0  0
  5  7  2  0  0  0  0
  6  8  1  0  0  0  0
  6 11  2  0  0  0  0
  7 10  1  0  0  0  0
  7 12  1  0  0  0  0
  8 15  1  0  0  0  0
  8 24  1  0  0  0  0
  8 25  1  0  0  0  0
  9 10  2  0  0  0  0
  9 13  1  0  0  0  0
 10 26  1  0  0  0  0
 11 14  1  0  0  0  0
 12 14  2  0  0  0  0
 12 27  1  0  0  0  0
 13 17  2  0  0  0  0
 13 18  1  0  0  0  0
 14 28  1  0  0  0  0
 15 16  2  0  0  0  0
 15 29  1  0  0  0  0
 16 21  1  0  0  0  0
 16 22  1  0  0  0  0
 17 20  1  0  0  0  0
 17 30  1  0  0  0  0
 18 19  2  0  0  0  0
 18 31  1  0  0  0  0
 19 23  1  0  0  0  0
 20 23  2  0  0  0  0
 21 33  1  0  0  0  0
 21 37  1  0  0  0  0
 21 38  1  0  0  0  0
 22 34  1  0  0  0  0
 22 35  1  0  0  0  0
 22 36  1  0  0  0  0
 23 39  1  0  0  0  0
M  END
>  <PUBCHEM_COMPOUND_CID>
42605184

>  <PUBCHEM_COMPOUND_CANONICALIZED>
1

>  <PUBCHEM_CACTVS_COMPLEXITY>
421

>  <PUBCHEM_CACTVS_HBOND_ACCEPTOR>
4

>  <PUBCHEM_CACTVS_HBOND_DONOR>
3

>  <PUBCHEM_CACTVS_ROTATABLE_BOND>
3

>  <PUBCHEM_CACTVS_SUBSKEYS>
AAADceB4OAAAAAAAAAAAAAAAAAAAASAAAAAwYAAAAAAAAEgB9AAAGgAACAAADASAmAAyBsAABkCIAqBSAAACCAAkIAAIiAEGCMgMJzaGNRqCeWCl4BUIuYfK7PzOIAADCAAIAABAAAYQABAAAAAAAAAAAA==

>  <PUBCHEM_IUPAC_OPENEYE_NAME>
5-[6-hydroxy-7-(3-methylbut-2-enyl)benzofuran-2-yl]benzene-1,3-diol

>  <PUBCHEM_IUPAC_CAS_NAME>
5-[6-hydroxy-7-(3-methylbut-2-enyl)-2-benzofuranyl]benzene-1,3-diol

>  <PUBCHEM_IUPAC_NAME>
5-[6-hydroxy-7-(3-methylbut-2-enyl)-1-benzofuran-2-yl]benzene-1,3-diol

>  <PUBCHEM_IUPAC_SYSTEMATIC_NAME>
5-[7-(3-methylbut-2-enyl)-6-oxidanyl-1-benzofuran-2-yl]benzene-1,3-diol

>  <PUBCHEM_IUPAC_TRADITIONAL_NAME>
5-[6-hydroxy-7-(3-methylbut-2-enyl)benzofuran-2-yl]resorcinol

>  <PUBCHEM_IUPAC_INCHI>
InChI=1S/C19H18O4/c1-11(2)3-5-16-17(22)6-4-12-9-18(23-19(12)16)13-7-14(20)10-15(21)8-13/h3-4,6-10,20-22H,5H2,1-2H3

>  <PUBCHEM_IUPAC_INCHIKEY>
PMSZSXKBGUQXFG-UHFFFAOYSA-N

>  <PUBCHEM_XLOGP3_AA>
4.8

>  <PUBCHEM_EXACT_MASS>
310.121

>  <PUBCHEM_MOLECULAR_FORMULA>
C19H18O4

>  <PUBCHEM_MOLECULAR_WEIGHT>
310.349

>  <PUBCHEM_OPENEYE_CAN_SMILES>
CC(=CCC1=C(C=CC2=C1OC(=C2)C3=CC(=CC(=C3)O)O)O)C

>  <PUBCHEM_OPENEYE_ISO_SMILES>
CC(=CCC1=C(C=CC2=C1OC(=C2)C3=CC(=CC(=C3)O)O)O)C

>  <PUBCHEM_CACTVS_TPSA>
73.8

>  <PUBCHEM_MONOISOTOPIC_WEIGHT>
310.121

>  <PUBCHEM_TOTAL_CHARGE>
0

>  <PUBCHEM_HEAVY_ATOM_COUNT>
23

>  <PUBCHEM_ATOM_DEF_STEREO_COUNT>
0

>  <PUBCHEM_ATOM_UDEF_STEREO_COUNT>
0

>  <PUBCHEM_BOND_DEF_STEREO_COUNT>
0

>  <PUBCHEM_BOND_UDEF_STEREO_COUNT>
0

>  <PUBCHEM_ISOTOPIC_ATOM_COUNT>
0

>  <PUBCHEM_COMPONENT_COUNT>
1

>  <PUBCHEM_CACTVS_TAUTO_COUNT>
25

>  <PUBCHEM_COORDINATE_TYPE>
1
5
255

>  <PUBCHEM_BONDANNOTATIONS>
1  5  8
1  9  8
11  14  8
12  14  8
13  17  8
13  18  8
17  20  8
18  19  8
19  23  8
20  23  8
5  6  8
5  7  8
6  11  8
7  10  8
7  12  8
9  10  8

$$$$
