42607632
 OpenBabel06101807152D

 49 51  0  0  0  0  0  0  0  0999 V2000
   11.6065    0.8997    0.0000 O   0  0  0  0  0  0  0  0  0  0  0  0
   11.6065   -0.7097    0.0000 O   0  0  0  0  0  0  0  0  0  0  0  0
    8.0622   -0.9050    0.0000 O   0  0  0  0  0  0  0  0  0  0  0  0
    9.7942    2.0950    0.0000 O   0  0  0  0  0  0  0  0  0  0  0  0
    2.8660    1.0950    0.0000 O   0  0  0  0  0  0  0  0  0  0  0  0
    2.8660   -0.9050    0.0000 O   0  0  0  0  0  0  0  0  0  0  0  0
    4.5981   -1.9050    0.0000 O   0  0  0  0  0  0  0  0  0  0  0  0
    4.5981    2.0950    0.0000 O   0  0  0  0  0  0  0  0  0  0  0  0
    8.0622    2.0950    0.0000 O   0  0  0  0  0  0  0  0  0  0  0  0
    8.9282    0.5950    0.0000 C   0  0  0  0  0  0  0  0  0  0  0  0
   10.6603    0.5950    0.0000 C   0  0  0  0  0  0  0  0  0  0  0  0
   10.6603   -0.4050    0.0000 C   0  0  0  0  0  0  0  0  0  0  0  0
    9.7942    1.0950    0.0000 C   0  0  0  0  0  0  0  0  0  0  0  0
    8.9282   -0.4050    0.0000 C   0  0  0  0  0  0  0  0  0  0  0  0
    9.7942   -0.9050    0.0000 C   0  0  0  0  0  0  0  0  0  0  0  0
    5.4641    0.5950    0.0000 C   0  0  0  0  0  0  0  0  0  0  0  0
    8.0622    1.0950    0.0000 C   0  0  0  0  0  0  0  0  0  0  0  0
   12.1901    0.0950    0.0000 C   0  0  0  0  0  0  0  0  0  0  0  0
    4.5981    1.0950    0.0000 C   0  0  0  0  0  0  0  0  0  0  0  0
    3.7320    0.5950    0.0000 C   0  0  0  0  0  0  0  0  0  0  0  0
    6.3301    1.0950    0.0000 C   0  0  0  0  0  0  0  0  0  0  0  0
    5.4641   -0.4050    0.0000 C   0  0  0  0  0  0  0  0  0  0  0  0
    7.1962    0.5950    0.0000 C   0  0  0  0  0  0  0  0  0  0  0  0
    3.7320   -0.4050    0.0000 C   0  0  0  0  0  0  0  0  0  0  0  0
    4.5981   -0.9050    0.0000 C   0  0  0  0  0  0  0  0  0  0  0  0
    8.0622   -1.9050    0.0000 C   0  0  0  0  0  0  0  0  0  0  0  0
    2.0000    0.5950    0.0000 C   0  0  0  0  0  0  0  0  0  0  0  0
    2.8660   -1.9050    0.0000 C   0  0  0  0  0  0  0  0  0  0  0  0
    5.4641   -2.4050    0.0000 C   0  0  0  0  0  0  0  0  0  0  0  0
    9.7942   -1.5250    0.0000 H   0  0  0  0  0  0  0  0  0  0  0  0
   12.6510   -0.3197    0.0000 H   0  0  0  0  0  0  0  0  0  0  0  0
   12.6510    0.5097    0.0000 H   0  0  0  0  0  0  0  0  0  0  0  0
    6.0010   -0.7150    0.0000 H   0  0  0  0  0  0  0  0  0  0  0  0
    6.3301    1.7150    0.0000 H   0  0  0  0  0  0  0  0  0  0  0  0
    7.1962   -0.0250    0.0000 H   0  0  0  0  0  0  0  0  0  0  0  0
   10.3312    2.4050    0.0000 H   0  0  0  0  0  0  0  0  0  0  0  0
    7.4422   -1.9050    0.0000 H   0  0  0  0  0  0  0  0  0  0  0  0
    8.0622   -2.5250    0.0000 H   0  0  0  0  0  0  0  0  0  0  0  0
    8.6822   -1.9050    0.0000 H   0  0  0  0  0  0  0  0  0  0  0  0
    4.0611    2.4050    0.0000 H   0  0  0  0  0  0  0  0  0  0  0  0
    1.6900    1.1319    0.0000 H   0  0  0  0  0  0  0  0  0  0  0  0
    1.4631    0.2850    0.0000 H   0  0  0  0  0  0  0  0  0  0  0  0
    2.3100    0.0581    0.0000 H   0  0  0  0  0  0  0  0  0  0  0  0
    2.2460   -1.9050    0.0000 H   0  0  0  0  0  0  0  0  0  0  0  0
    2.8660   -2.5250    0.0000 H   0  0  0  0  0  0  0  0  0  0  0  0
    3.4860   -1.9050    0.0000 H   0  0  0  0  0  0  0  0  0  0  0  0
    5.1541   -2.9419    0.0000 H   0  0  0  0  0  0  0  0  0  0  0  0
    6.0010   -2.7150    0.0000 H   0  0  0  0  0  0  0  0  0  0  0  0
    5.7741   -1.8681    0.0000 H   0  0  0  0  0  0  0  0  0  0  0  0
  1 11  1  0  0  0  0
  1 18  1  0  0  0  0
  2 12  1  0  0  0  0
  2 18  1  0  0  0  0
  3 14  1  0  0  0  0
  3 26  1  0  0  0  0
  4 13  1  0  0  0  0
  4 36  1  0  0  0  0
  5 20  1  0  0  0  0
  5 27  1  0  0  0  0
  6 24  1  0  0  0  0
  6 28  1  0  0  0  0
  7 25  1  0  0  0  0
  7 29  1  0  0  0  0
  8 19  1  0  0  0  0
  8 40  1  0  0  0  0
  9 17  2  0  0  0  0
 10 13  1  0  0  0  0
 10 14  2  0  0  0  0
 10 17  1  0  0  0  0
 11 12  1  0  0  0  0
 11 13  2  0  0  0  0
 12 15  2  0  0  0  0
 14 15  1  0  0  0  0
 15 30  1  0  0  0  0
 16 19  1  0  0  0  0
 16 21  1  0  0  0  0
 16 22  2  0  0  0  0
 17 23  1  0  0  0  0
 18 31  1  0  0  0  0
 18 32  1  0  0  0  0
 19 20  2  0  0  0  0
 20 24  1  0  0  0  0
 21 23  2  0  0  0  0
 21 34  1  0  0  0  0
 22 25  1  0  0  0  0
 22 33  1  0  0  0  0
 23 35  1  0  0  0  0
 24 25  2  0  0  0  0
 26 37  1  0  0  0  0
 26 38  1  0  0  0  0
 26 39  1  0  0  0  0
 27 41  1  0  0  0  0
 27 42  1  0  0  0  0
 27 43  1  0  0  0  0
 28 44  1  0  0  0  0
 28 45  1  0  0  0  0
 28 46  1  0  0  0  0
 29 47  1  0  0  0  0
 29 48  1  0  0  0  0
 29 49  1  0  0  0  0
M  END
>  <PUBCHEM_COMPOUND_CID>
42607632

>  <PUBCHEM_COMPOUND_CANONICALIZED>
1

>  <PUBCHEM_CACTVS_COMPLEXITY>
582

>  <PUBCHEM_CACTVS_HBOND_ACCEPTOR>
9

>  <PUBCHEM_CACTVS_HBOND_DONOR>
2

>  <PUBCHEM_CACTVS_ROTATABLE_BOND>
7

>  <PUBCHEM_CACTVS_SUBSKEYS>
AAADceB4PAAAAAAAAAAAAAAAAAAAASAAAAAwYAAAAAAAAEgBQAAAGgAACAAADASAmAMyDoAABgCIAqBSAAACCAAkIAAIiAEGiMgdJzaGNRqgcWMl4BUPuYfK7LzOIQABCAAIQABCAAIQABCAAAAAAAAAAA==

>  <PUBCHEM_IUPAC_OPENEYE_NAME>
(E)-1-(4-hydroxy-6-methoxy-1,3-benzodioxol-5-yl)-3-(2-hydroxy-3,4,5-trimethoxy-phenyl)prop-2-en-1-one

>  <PUBCHEM_IUPAC_CAS_NAME>
(E)-1-(4-hydroxy-6-methoxy-1,3-benzodioxol-5-yl)-3-(2-hydroxy-3,4,5-trimethoxyphenyl)-2-propen-1-one

>  <PUBCHEM_IUPAC_NAME>
(E)-1-(4-hydroxy-6-methoxy-1,3-benzodioxol-5-yl)-3-(2-hydroxy-3,4,5-trimethoxyphenyl)prop-2-en-1-one

>  <PUBCHEM_IUPAC_SYSTEMATIC_NAME>
(E)-1-(6-methoxy-4-oxidanyl-1,3-benzodioxol-5-yl)-3-(3,4,5-trimethoxy-2-oxidanyl-phenyl)prop-2-en-1-one

>  <PUBCHEM_IUPAC_TRADITIONAL_NAME>
(E)-1-(4-hydroxy-6-methoxy-1,3-benzodioxol-5-yl)-3-(2-hydroxy-3,4,5-trimethoxy-phenyl)prop-2-en-1-one

>  <PUBCHEM_IUPAC_INCHI>
InChI=1S/C20H20O9/c1-24-12-8-14-18(29-9-28-14)17(23)15(12)11(21)6-5-10-7-13(25-2)19(26-3)20(27-4)16(10)22/h5-8,22-23H,9H2,1-4H3/b6-5+

>  <PUBCHEM_IUPAC_INCHIKEY>
ILKANIJAWAXWLU-AATRIKPKSA-N

>  <PUBCHEM_XLOGP3_AA>
3.2

>  <PUBCHEM_EXACT_MASS>
404.111

>  <PUBCHEM_MOLECULAR_FORMULA>
C20H20O9

>  <PUBCHEM_MOLECULAR_WEIGHT>
404.371

>  <PUBCHEM_OPENEYE_CAN_SMILES>
COC1=C(C(=C(C(=C1)C=CC(=O)C2=C(C=C3C(=C2O)OCO3)OC)O)OC)OC

>  <PUBCHEM_OPENEYE_ISO_SMILES>
COC1=C(C(=C(C(=C1)/C=C/C(=O)C2=C(C=C3C(=C2O)OCO3)OC)O)OC)OC

>  <PUBCHEM_CACTVS_TPSA>
113

>  <PUBCHEM_MONOISOTOPIC_WEIGHT>
404.111

>  <PUBCHEM_TOTAL_CHARGE>
0

>  <PUBCHEM_HEAVY_ATOM_COUNT>
29

>  <PUBCHEM_ATOM_DEF_STEREO_COUNT>
0

>  <PUBCHEM_ATOM_UDEF_STEREO_COUNT>
0

>  <PUBCHEM_BOND_DEF_STEREO_COUNT>
1

>  <PUBCHEM_BOND_UDEF_STEREO_COUNT>
0

>  <PUBCHEM_ISOTOPIC_ATOM_COUNT>
0

>  <PUBCHEM_COMPONENT_COUNT>
1

>  <PUBCHEM_CACTVS_TAUTO_COUNT>
19

>  <PUBCHEM_COORDINATE_TYPE>
1
5
255

>  <PUBCHEM_BONDANNOTATIONS>
10  13  8
10  14  8
11  12  8
11  13  8
12  15  8
14  15  8
16  19  8
16  22  8
19  20  8
20  24  8
22  25  8
24  25  8

$$$$
