42607783
 OpenBabel06101807152D

 40 42  0  0  0  0  0  0  0  0999 V2000
    6.0812   -0.3227    0.0000 O   0  0  0  0  0  0  0  0  0  0  0  0
    4.2690    2.4820    0.0000 O   0  0  0  0  0  0  0  0  0  0  0  0
    2.5369   -0.5179    0.0000 O   0  0  0  0  0  0  0  0  0  0  0  0
    2.5369    1.4820    0.0000 O   0  0  0  0  0  0  0  0  0  0  0  0
    6.3919    2.2373    0.0000 O   0  0  0  0  0  0  0  0  0  0  0  0
    9.6648   -2.9820    0.0000 O   0  0  0  0  0  0  0  0  0  0  0  0
    5.1350    0.9821    0.0000 C   0  0  0  0  0  0  0  0  0  0  0  0
    5.1350   -0.0179    0.0000 C   0  0  0  0  0  0  0  0  0  0  0  0
    4.2690    1.4820    0.0000 C   0  0  0  0  0  0  0  0  0  0  0  0
    6.0812    1.2868    0.0000 C   0  0  0  0  0  0  0  0  0  0  0  0
    6.6648    0.4821    0.0000 C   0  0  0  0  0  0  0  0  0  0  0  0
    4.2690   -0.5179    0.0000 C   0  0  0  0  0  0  0  0  0  0  0  0
    3.4030    0.9821    0.0000 C   0  0  0  0  0  0  0  0  0  0  0  0
    3.4030   -0.0179    0.0000 C   0  0  0  0  0  0  0  0  0  0  0  0
    7.6648    0.4821    0.0000 C   0  0  0  0  0  0  0  0  0  0  0  0
    8.1648   -0.3840    0.0000 C   0  0  0  0  0  0  0  0  0  0  0  0
    7.6648   -1.2500    0.0000 C   0  0  0  0  0  0  0  0  0  0  0  0
    9.1648   -0.3840    0.0000 C   0  0  0  0  0  0  0  0  0  0  0  0
    8.1648   -2.1160    0.0000 C   0  0  0  0  0  0  0  0  0  0  0  0
    9.6648   -1.2500    0.0000 C   0  0  0  0  0  0  0  0  0  0  0  0
    9.1648   -2.1160    0.0000 C   0  0  0  0  0  0  0  0  0  0  0  0
    3.4030    2.9820    0.0000 C   0  0  0  0  0  0  0  0  0  0  0  0
    2.5369   -1.5180    0.0000 C   0  0  0  0  0  0  0  0  0  0  0  0
   10.6648   -2.9820    0.0000 C   0  0  0  0  0  0  0  0  0  0  0  0
    4.2690   -1.1380    0.0000 H   0  0  0  0  0  0  0  0  0  0  0  0
    7.9748    1.0190    0.0000 H   0  0  0  0  0  0  0  0  0  0  0  0
    7.0448   -1.2500    0.0000 H   0  0  0  0  0  0  0  0  0  0  0  0
    9.4748    0.1530    0.0000 H   0  0  0  0  0  0  0  0  0  0  0  0
    7.8548   -2.6530    0.0000 H   0  0  0  0  0  0  0  0  0  0  0  0
   10.2848   -1.2500    0.0000 H   0  0  0  0  0  0  0  0  0  0  0  0
    2.0000    1.1720    0.0000 H   0  0  0  0  0  0  0  0  0  0  0  0
    3.7130    3.5190    0.0000 H   0  0  0  0  0  0  0  0  0  0  0  0
    2.8660    3.2920    0.0000 H   0  0  0  0  0  0  0  0  0  0  0  0
    3.0930    2.4451    0.0000 H   0  0  0  0  0  0  0  0  0  0  0  0
    1.9169   -1.5180    0.0000 H   0  0  0  0  0  0  0  0  0  0  0  0
    2.5369   -2.1380    0.0000 H   0  0  0  0  0  0  0  0  0  0  0  0
    3.1569   -1.5180    0.0000 H   0  0  0  0  0  0  0  0  0  0  0  0
   10.6648   -3.6020    0.0000 H   0  0  0  0  0  0  0  0  0  0  0  0
   11.2848   -2.9820    0.0000 H   0  0  0  0  0  0  0  0  0  0  0  0
   10.6648   -2.3620    0.0000 H   0  0  0  0  0  0  0  0  0  0  0  0
  1  8  1  0  0  0  0
  1 11  1  0  0  0  0
  2  9  1  0  0  0  0
  2 22  1  0  0  0  0
  3 14  1  0  0  0  0
  3 23  1  0  0  0  0
  4 13  1  0  0  0  0
  4 31  1  0  0  0  0
  5 10  2  0  0  0  0
  6 21  1  0  0  0  0
  6 24  1  0  0  0  0
  7  8  1  0  0  0  0
  7  9  2  0  0  0  0
  7 10  1  0  0  0  0
  8 12  2  0  0  0  0
  9 13  1  0  0  0  0
 10 11  1  0  0  0  0
 11 15  2  0  0  0  0
 12 14  1  0  0  0  0
 12 25  1  0  0  0  0
 13 14  2  0  0  0  0
 15 16  1  0  0  0  0
 15 26  1  0  0  0  0
 16 17  2  0  0  0  0
 16 18  1  0  0  0  0
 17 19  1  0  0  0  0
 17 27  1  0  0  0  0
 18 20  2  0  0  0  0
 18 28  1  0  0  0  0
 19 21  2  0  0  0  0
 19 29  1  0  0  0  0
 20 21  1  0  0  0  0
 20 30  1  0  0  0  0
 22 32  1  0  0  0  0
 22 33  1  0  0  0  0
 22 34  1  0  0  0  0
 23 35  1  0  0  0  0
 23 36  1  0  0  0  0
 23 37  1  0  0  0  0
 24 38  1  0  0  0  0
 24 39  1  0  0  0  0
 24 40  1  0  0  0  0
M  END
>  <PUBCHEM_COMPOUND_CID>
42607783

>  <PUBCHEM_COMPOUND_CANONICALIZED>
1

>  <PUBCHEM_CACTVS_COMPLEXITY>
482

>  <PUBCHEM_CACTVS_HBOND_ACCEPTOR>
6

>  <PUBCHEM_CACTVS_HBOND_DONOR>
1

>  <PUBCHEM_CACTVS_ROTATABLE_BOND>
4

>  <PUBCHEM_CACTVS_SUBSKEYS>
AAADceB4OAAAAAAAAAAAAAAAAAAAASAAAAAwYAAAAAAAAEgBQAAAGgAACAAADASAmAIyBoAABgCIAqBSAAICCAAkIAAIiAFGiMgNJzaGNR6CeWOl4BULuYfK7LzOIQABCAAIQABCAAIQABCAAAAAAAAAAA==

>  <PUBCHEM_IUPAC_OPENEYE_NAME>
(2Z)-5-hydroxy-4,6-dimethoxy-2-[(4-methoxyphenyl)methylene]benzofuran-3-one

>  <PUBCHEM_IUPAC_CAS_NAME>
(2Z)-5-hydroxy-4,6-dimethoxy-2-[(4-methoxyphenyl)methylidene]-3-benzofuranone

>  <PUBCHEM_IUPAC_NAME>
(2Z)-5-hydroxy-4,6-dimethoxy-2-[(4-methoxyphenyl)methylidene]-1-benzofuran-3-one

>  <PUBCHEM_IUPAC_SYSTEMATIC_NAME>
(2Z)-4,6-dimethoxy-2-[(4-methoxyphenyl)methylidene]-5-oxidanyl-1-benzofuran-3-one

>  <PUBCHEM_IUPAC_TRADITIONAL_NAME>
(2Z)-5-hydroxy-4,6-dimethoxy-2-p-anisylidene-coumaran-3-one

>  <PUBCHEM_IUPAC_INCHI>
InChI=1S/C18H16O6/c1-21-11-6-4-10(5-7-11)8-14-16(19)15-12(24-14)9-13(22-2)17(20)18(15)23-3/h4-9,20H,1-3H3/b14-8-

>  <PUBCHEM_IUPAC_INCHIKEY>
SDBGODOJRLLNSU-ZSOIEALJSA-N

>  <PUBCHEM_XLOGP3_AA>
3.2

>  <PUBCHEM_EXACT_MASS>
328.095

>  <PUBCHEM_MOLECULAR_FORMULA>
C18H16O6

>  <PUBCHEM_MOLECULAR_WEIGHT>
328.32

>  <PUBCHEM_OPENEYE_CAN_SMILES>
COC1=CC=C(C=C1)C=C2C(=O)C3=C(C(=C(C=C3O2)OC)O)OC

>  <PUBCHEM_OPENEYE_ISO_SMILES>
COC1=CC=C(C=C1)/C=C\2/C(=O)C3=C(C(=C(C=C3O2)OC)O)OC

>  <PUBCHEM_CACTVS_TPSA>
74.2

>  <PUBCHEM_MONOISOTOPIC_WEIGHT>
328.095

>  <PUBCHEM_TOTAL_CHARGE>
0

>  <PUBCHEM_HEAVY_ATOM_COUNT>
24

>  <PUBCHEM_ATOM_DEF_STEREO_COUNT>
0

>  <PUBCHEM_ATOM_UDEF_STEREO_COUNT>
0

>  <PUBCHEM_BOND_DEF_STEREO_COUNT>
1

>  <PUBCHEM_BOND_UDEF_STEREO_COUNT>
0

>  <PUBCHEM_ISOTOPIC_ATOM_COUNT>
0

>  <PUBCHEM_COMPONENT_COUNT>
1

>  <PUBCHEM_CACTVS_TAUTO_COUNT>
3

>  <PUBCHEM_COORDINATE_TYPE>
1
5
255

>  <PUBCHEM_BONDANNOTATIONS>
12  14  8
13  14  8
16  17  8
16  18  8
17  19  8
18  20  8
19  21  8
20  21  8
7  8  8
7  9  8
8  12  8
9  13  8

$$$$
