42607935
 OpenBabel06101807152D

 56 59  0  0  1  0  0  0  0  0999 V2000
   10.4366    1.3006    0.0000 O   0  0  0  0  0  0  0  0  0  0  0  0
    6.9006    1.3284    0.0000 O   0  0  0  0  0  0  0  0  0  0  0  0
    8.6605   -1.7063    0.0000 O   0  0  0  0  0  0  0  0  0  0  0  0
    6.9121   -1.7409    0.0000 O   0  0  0  0  0  0  0  0  0  0  0  0
    2.5381    2.8279    0.0000 O   0  0  0  0  0  0  0  0  0  0  0  0
   10.4446    2.3422    0.0000 C   0  0  0  0  0  0  0  0  0  0  0  0
    8.6605    1.2937    0.0000 C   0  0  0  0  0  0  0  0  0  0  0  0
    7.7945    0.7937    0.0000 C   0  0  0  0  0  0  0  0  0  0  0  0
    9.5266    0.7937    0.0000 C   0  0  0  0  0  0  0  0  0  0  0  0
    5.9945    0.8145    0.0000 C   0  0  3  0  0  0  0  0  0  0  0  0
    7.7945   -0.2063    0.0000 C   0  0  0  0  0  0  0  0  0  0  0  0
    9.5266   -0.2063    0.0000 C   0  0  0  0  0  0  0  0  0  0  0  0
    5.9945   -0.2271    0.0000 C   0  0  0  0  0  0  0  0  0  0  0  0
    8.6605   -0.7063    0.0000 C   0  0  0  0  0  0  0  0  0  0  0  0
    6.9006   -0.7409    0.0000 C   0  0  0  0  0  0  0  0  0  0  0  0
    9.5425    2.8630    0.0000 C   0  0  0  0  0  0  0  0  0  0  0  0
    8.6445    2.3352    0.0000 C   0  0  0  0  0  0  0  0  0  0  0  0
   10.3926   -0.7063    0.0000 C   0  0  0  0  0  0  0  0  0  0  0  0
    5.1304    1.3179    0.0000 C   0  0  0  0  0  0  0  0  0  0  0  0
   10.9479    3.2063    0.0000 C   0  0  0  0  0  0  0  0  0  0  0  0
   11.4446    2.3383    0.0000 C   0  0  0  0  0  0  0  0  0  0  0  0
   10.3926   -1.7063    0.0000 C   0  0  0  0  0  0  0  0  0  0  0  0
    5.1343    2.3179    0.0000 C   0  0  0  0  0  0  0  0  0  0  0  0
    4.2625    0.8212    0.0000 C   0  0  0  0  0  0  0  0  0  0  0  0
   11.2586   -2.2063    0.0000 C   0  0  0  0  0  0  0  0  0  0  0  0
    4.2702    2.8212    0.0000 C   0  0  0  0  0  0  0  0  0  0  0  0
    3.3984    1.3246    0.0000 C   0  0  0  0  0  0  0  0  0  0  0  0
    3.4022    2.3246    0.0000 C   0  0  0  0  0  0  0  0  0  0  0  0
   11.2586   -3.2063    0.0000 C   0  0  0  0  0  0  0  0  0  0  0  0
   12.1246   -1.7063    0.0000 C   0  0  0  0  0  0  0  0  0  0  0  0
    5.9981    1.4345    0.0000 H   0  0  0  0  0  0  0  0  0  0  0  0
    5.3836   -0.1210    0.0000 H   0  0  0  0  0  0  0  0  0  0  0  0
    5.7854   -0.8108    0.0000 H   0  0  0  0  0  0  0  0  0  0  0  0
    9.5401    3.4830    0.0000 H   0  0  0  0  0  0  0  0  0  0  0  0
    8.1040    2.6390    0.0000 H   0  0  0  0  0  0  0  0  0  0  0  0
   11.0032   -0.8139    0.0000 H   0  0  0  0  0  0  0  0  0  0  0  0
   10.6046   -0.1237    0.0000 H   0  0  0  0  0  0  0  0  0  0  0  0
   11.4422    1.7183    0.0000 H   0  0  0  0  0  0  0  0  0  0  0  0
   11.4837    2.8942    0.0000 H   0  0  0  0  0  0  0  0  0  0  0  0
   11.2600    3.7420    0.0000 H   0  0  0  0  0  0  0  0  0  0  0  0
   10.4122    3.5183    0.0000 H   0  0  0  0  0  0  0  0  0  0  0  0
   12.0646    2.3359    0.0000 H   0  0  0  0  0  0  0  0  0  0  0  0
   11.4470    2.9583    0.0000 H   0  0  0  0  0  0  0  0  0  0  0  0
    9.8556   -2.0163    0.0000 H   0  0  0  0  0  0  0  0  0  0  0  0
    5.6724    2.6258    0.0000 H   0  0  0  0  0  0  0  0  0  0  0  0
    4.2601    0.2012    0.0000 H   0  0  0  0  0  0  0  0  0  0  0  0
    9.1975   -2.0163    0.0000 H   0  0  0  0  0  0  0  0  0  0  0  0
    4.2726    3.4412    0.0000 H   0  0  0  0  0  0  0  0  0  0  0  0
    2.8602    1.0166    0.0000 H   0  0  0  0  0  0  0  0  0  0  0  0
   10.6386   -3.2063    0.0000 H   0  0  0  0  0  0  0  0  0  0  0  0
   12.4346   -2.2432    0.0000 H   0  0  0  0  0  0  0  0  0  0  0  0
   12.6616   -1.3963    0.0000 H   0  0  0  0  0  0  0  0  0  0  0  0
   11.8146   -1.1693    0.0000 H   0  0  0  0  0  0  0  0  0  0  0  0
   11.2586   -3.8263    0.0000 H   0  0  0  0  0  0  0  0  0  0  0  0
   11.8786   -3.2063    0.0000 H   0  0  0  0  0  0  0  0  0  0  0  0
    2.0000    2.5200    0.0000 H   0  0  0  0  0  0  0  0  0  0  0  0
  1  6  1  0  0  0  0
  1  9  1  0  0  0  0
  2  8  1  0  0  0  0
  2 10  1  0  0  0  0
  3 14  1  0  0  0  0
  3 47  1  0  0  0  0
  4 15  2  0  0  0  0
  5 28  1  0  0  0  0
  5 56  1  0  0  0  0
  6 16  1  0  0  0  0
  6 20  1  0  0  0  0
  6 21  1  0  0  0  0
  7  8  1  0  0  0  0
  7  9  2  0  0  0  0
  7 17  1  0  0  0  0
  8 11  2  0  0  0  0
  9 12  1  0  0  0  0
 10 13  1  0  0  0  0
 10 19  1  0  0  0  0
 10 31  1  0  0  0  0
 11 14  1  0  0  0  0
 11 15  1  0  0  0  0
 12 14  2  0  0  0  0
 12 18  1  0  0  0  0
 13 15  1  0  0  0  0
 13 32  1  0  0  0  0
 13 33  1  0  0  0  0
 16 17  2  0  0  0  0
 16 34  1  0  0  0  0
 17 35  1  0  0  0  0
 18 22  1  0  0  0  0
 18 36  1  0  0  0  0
 18 37  1  0  0  0  0
 19 23  2  0  0  0  0
 19 24  1  0  0  0  0
 20 39  1  0  0  0  0
 20 40  1  0  0  0  0
 20 41  1  0  0  0  0
 21 38  1  0  0  0  0
 21 42  1  0  0  0  0
 21 43  1  0  0  0  0
 22 25  2  0  0  0  0
 22 44  1  0  0  0  0
 23 26  1  0  0  0  0
 23 45  1  0  0  0  0
 24 27  2  0  0  0  0
 24 46  1  0  0  0  0
 25 29  1  0  0  0  0
 25 30  1  0  0  0  0
 26 28  2  0  0  0  0
 26 48  1  0  0  0  0
 27 28  1  0  0  0  0
 27 49  1  0  0  0  0
 29 50  1  0  0  0  0
 29 54  1  0  0  0  0
 29 55  1  0  0  0  0
 30 51  1  0  0  0  0
 30 52  1  0  0  0  0
 30 53  1  0  0  0  0
M  END
>  <PUBCHEM_COMPOUND_CID>
42607935

>  <PUBCHEM_COMPOUND_CANONICALIZED>
1

>  <PUBCHEM_CACTVS_COMPLEXITY>
698

>  <PUBCHEM_CACTVS_HBOND_ACCEPTOR>
5

>  <PUBCHEM_CACTVS_HBOND_DONOR>
2

>  <PUBCHEM_CACTVS_ROTATABLE_BOND>
3

>  <PUBCHEM_CACTVS_SUBSKEYS>
AAADceB4OAAAAAAAAAAAAAAAAAAAAAAAAAA0YIEAAAAAAACRQAAAGgAACAAADFSgmAIyBoAABgCIAqBSAAACCAAkIAAIiAEGCMgMJzaGNRqCeWCl4BUIuQeI7OzOIAACCAAIAABAAAQQABAAAAAAAAAAAA==

>  <PUBCHEM_IUPAC_OPENEYE_NAME>
5-hydroxy-2-(4-hydroxyphenyl)-8,8-dimethyl-6-(3-methylbut-2-enyl)-2,3-dihydropyrano[2,3-h]chromen-4-one

>  <PUBCHEM_IUPAC_CAS_NAME>
5-hydroxy-2-(4-hydroxyphenyl)-8,8-dimethyl-6-(3-methylbut-2-enyl)-2,3-dihydropyrano[2,3-h][1]benzopyran-4-one

>  <PUBCHEM_IUPAC_NAME>
5-hydroxy-2-(4-hydroxyphenyl)-8,8-dimethyl-6-(3-methylbut-2-enyl)-2,3-dihydropyrano[2,3-h]chromen-4-one

>  <PUBCHEM_IUPAC_SYSTEMATIC_NAME>
2-(4-hydroxyphenyl)-8,8-dimethyl-6-(3-methylbut-2-enyl)-5-oxidanyl-2,3-dihydropyrano[2,3-h]chromen-4-one

>  <PUBCHEM_IUPAC_TRADITIONAL_NAME>
5-hydroxy-2-(4-hydroxyphenyl)-8,8-dimethyl-6-(3-methylbut-2-enyl)-2,3-dihydropyrano[2,3-h]chromen-4-one

>  <PUBCHEM_IUPAC_INCHI>
InChI=1S/C25H26O5/c1-14(2)5-10-17-22(28)21-19(27)13-20(15-6-8-16(26)9-7-15)29-24(21)18-11-12-25(3,4)30-23(17)18/h5-9,11-12,20,26,28H,10,13H2,1-4H3

>  <PUBCHEM_IUPAC_INCHIKEY>
TXWYWZHIUMRYOS-UHFFFAOYSA-N

>  <PUBCHEM_XLOGP3_AA>
5.6

>  <PUBCHEM_EXACT_MASS>
406.178

>  <PUBCHEM_MOLECULAR_FORMULA>
C25H26O5

>  <PUBCHEM_MOLECULAR_WEIGHT>
406.478

>  <PUBCHEM_OPENEYE_CAN_SMILES>
CC(=CCC1=C2C(=C3C(=C1O)C(=O)CC(O3)C4=CC=C(C=C4)O)C=CC(O2)(C)C)C

>  <PUBCHEM_OPENEYE_ISO_SMILES>
CC(=CCC1=C2C(=C3C(=C1O)C(=O)CC(O3)C4=CC=C(C=C4)O)C=CC(O2)(C)C)C

>  <PUBCHEM_CACTVS_TPSA>
76

>  <PUBCHEM_MONOISOTOPIC_WEIGHT>
406.178

>  <PUBCHEM_TOTAL_CHARGE>
0

>  <PUBCHEM_HEAVY_ATOM_COUNT>
30

>  <PUBCHEM_ATOM_DEF_STEREO_COUNT>
0

>  <PUBCHEM_ATOM_UDEF_STEREO_COUNT>
1

>  <PUBCHEM_BOND_DEF_STEREO_COUNT>
0

>  <PUBCHEM_BOND_UDEF_STEREO_COUNT>
0

>  <PUBCHEM_ISOTOPIC_ATOM_COUNT>
0

>  <PUBCHEM_COMPONENT_COUNT>
1

>  <PUBCHEM_CACTVS_TAUTO_COUNT>
22

>  <PUBCHEM_COORDINATE_TYPE>
1
5
255

>  <PUBCHEM_BONDANNOTATIONS>
10  19  3
11  14  8
12  14  8
19  23  8
19  24  8
23  26  8
24  27  8
26  28  8
27  28  8
7  8  8
7  9  8
8  11  8
9  12  8

$$$$
