42607666
 OpenBabel06101807152D

 35 36  0  0  0  0  0  0  0  0999 V2000
    2.8660   -0.5950    0.0000 O   0  0  0  0  0  0  0  0  0  0  0  0
    3.7320    0.9050    0.0000 O   0  0  0  0  0  0  0  0  0  0  0  0
    4.5981   -3.5950    0.0000 O   0  0  0  0  0  0  0  0  0  0  0  0
    5.4641    1.9050    0.0000 C   0  0  0  0  0  0  0  0  0  0  0  0
    5.4641    0.9050    0.0000 C   0  0  0  0  0  0  0  0  0  0  0  0
    6.3301    2.4050    0.0000 C   0  0  0  0  0  0  0  0  0  0  0  0
    4.5981    0.4050    0.0000 C   0  0  0  0  0  0  0  0  0  0  0  0
    4.5981   -0.5950    0.0000 C   0  0  0  0  0  0  0  0  0  0  0  0
    3.7320   -1.0950    0.0000 C   0  0  0  0  0  0  0  0  0  0  0  0
    7.1962    1.9050    0.0000 C   0  0  0  0  0  0  0  0  0  0  0  0
    6.3301    3.4050    0.0000 C   0  0  0  0  0  0  0  0  0  0  0  0
    5.4641   -1.0950    0.0000 C   0  0  0  0  0  0  0  0  0  0  0  0
    3.7320   -2.0950    0.0000 C   0  0  0  0  0  0  0  0  0  0  0  0
    5.4641   -2.0950    0.0000 C   0  0  0  0  0  0  0  0  0  0  0  0
    4.5981   -2.5950    0.0000 C   0  0  0  0  0  0  0  0  0  0  0  0
    8.0622    2.4050    0.0000 C   0  0  0  0  0  0  0  0  0  0  0  0
    7.1962    3.9050    0.0000 C   0  0  0  0  0  0  0  0  0  0  0  0
    8.0622    3.4050    0.0000 C   0  0  0  0  0  0  0  0  0  0  0  0
    2.0000   -1.0950    0.0000 C   0  0  0  0  0  0  0  0  0  0  0  0
    5.2520    2.4876    0.0000 H   0  0  0  0  0  0  0  0  0  0  0  0
    4.8535    1.7973    0.0000 H   0  0  0  0  0  0  0  0  0  0  0  0
    5.6762    0.3224    0.0000 H   0  0  0  0  0  0  0  0  0  0  0  0
    6.0747    1.0127    0.0000 H   0  0  0  0  0  0  0  0  0  0  0  0
    7.1962    1.2850    0.0000 H   0  0  0  0  0  0  0  0  0  0  0  0
    5.7932    3.7150    0.0000 H   0  0  0  0  0  0  0  0  0  0  0  0
    6.0010   -0.7850    0.0000 H   0  0  0  0  0  0  0  0  0  0  0  0
    3.1951   -2.4050    0.0000 H   0  0  0  0  0  0  0  0  0  0  0  0
    6.0010   -2.4050    0.0000 H   0  0  0  0  0  0  0  0  0  0  0  0
    8.5991    2.0950    0.0000 H   0  0  0  0  0  0  0  0  0  0  0  0
    7.1962    4.5250    0.0000 H   0  0  0  0  0  0  0  0  0  0  0  0
    8.5991    3.7150    0.0000 H   0  0  0  0  0  0  0  0  0  0  0  0
    1.6900   -0.5581    0.0000 H   0  0  0  0  0  0  0  0  0  0  0  0
    1.4631   -1.4050    0.0000 H   0  0  0  0  0  0  0  0  0  0  0  0
    2.3100   -1.6319    0.0000 H   0  0  0  0  0  0  0  0  0  0  0  0
    5.1350   -3.9050    0.0000 H   0  0  0  0  0  0  0  0  0  0  0  0
  1  9  1  0  0  0  0
  1 19  1  0  0  0  0
  2  7  2  0  0  0  0
  3 15  1  0  0  0  0
  3 35  1  0  0  0  0
  4  5  1  0  0  0  0
  4  6  1  0  0  0  0
  4 20  1  0  0  0  0
  4 21  1  0  0  0  0
  5  7  1  0  0  0  0
  5 22  1  0  0  0  0
  5 23  1  0  0  0  0
  6 10  2  0  0  0  0
  6 11  1  0  0  0  0
  7  8  1  0  0  0  0
  8  9  2  0  0  0  0
  8 12  1  0  0  0  0
  9 13  1  0  0  0  0
 10 16  1  0  0  0  0
 10 24  1  0  0  0  0
 11 17  2  0  0  0  0
 11 25  1  0  0  0  0
 12 14  2  0  0  0  0
 12 26  1  0  0  0  0
 13 15  2  0  0  0  0
 13 27  1  0  0  0  0
 14 15  1  0  0  0  0
 14 28  1  0  0  0  0
 16 18  2  0  0  0  0
 16 29  1  0  0  0  0
 17 18  1  0  0  0  0
 17 30  1  0  0  0  0
 18 31  1  0  0  0  0
 19 32  1  0  0  0  0
 19 33  1  0  0  0  0
 19 34  1  0  0  0  0
M  END
>  <PUBCHEM_COMPOUND_CID>
42607666

>  <PUBCHEM_COMPOUND_CANONICALIZED>
1

>  <PUBCHEM_CACTVS_COMPLEXITY>
284

>  <PUBCHEM_CACTVS_HBOND_ACCEPTOR>
3

>  <PUBCHEM_CACTVS_HBOND_DONOR>
1

>  <PUBCHEM_CACTVS_ROTATABLE_BOND>
5

>  <PUBCHEM_CACTVS_SUBSKEYS>
AAADceB4MAAAAAAAAAAAAAAAAAAAAAAAAAAwYAAAAAAAAAABQAAAGgAACAAADASAmAIyBoAABgCIAqBSAAACCAAkIAAIiAEGCMgMJzaGNRqAcWAl4BUIuYeI7OzOIAAACAAIAABAAAAQABAAAAAAAAAAAA==

>  <PUBCHEM_IUPAC_OPENEYE_NAME>
1-(4-hydroxy-2-methoxy-phenyl)-3-phenyl-propan-1-one

>  <PUBCHEM_IUPAC_CAS_NAME>
1-(4-hydroxy-2-methoxyphenyl)-3-phenyl-1-propanone

>  <PUBCHEM_IUPAC_NAME>
1-(4-hydroxy-2-methoxyphenyl)-3-phenylpropan-1-one

>  <PUBCHEM_IUPAC_SYSTEMATIC_NAME>
1-(2-methoxy-4-oxidanyl-phenyl)-3-phenyl-propan-1-one

>  <PUBCHEM_IUPAC_TRADITIONAL_NAME>
1-(4-hydroxy-2-methoxy-phenyl)-3-phenyl-propan-1-one

>  <PUBCHEM_IUPAC_INCHI>
InChI=1S/C16H16O3/c1-19-16-11-13(17)8-9-14(16)15(18)10-7-12-5-3-2-4-6-12/h2-6,8-9,11,17H,7,10H2,1H3

>  <PUBCHEM_IUPAC_INCHIKEY>
CSEOFFVAVSWEAR-UHFFFAOYSA-N

>  <PUBCHEM_XLOGP3_AA>
3.1

>  <PUBCHEM_EXACT_MASS>
256.11

>  <PUBCHEM_MOLECULAR_FORMULA>
C16H16O3

>  <PUBCHEM_MOLECULAR_WEIGHT>
256.301

>  <PUBCHEM_OPENEYE_CAN_SMILES>
COC1=C(C=CC(=C1)O)C(=O)CCC2=CC=CC=C2

>  <PUBCHEM_OPENEYE_ISO_SMILES>
COC1=C(C=CC(=C1)O)C(=O)CCC2=CC=CC=C2

>  <PUBCHEM_CACTVS_TPSA>
46.5

>  <PUBCHEM_MONOISOTOPIC_WEIGHT>
256.11

>  <PUBCHEM_TOTAL_CHARGE>
0

>  <PUBCHEM_HEAVY_ATOM_COUNT>
19

>  <PUBCHEM_ATOM_DEF_STEREO_COUNT>
0

>  <PUBCHEM_ATOM_UDEF_STEREO_COUNT>
0

>  <PUBCHEM_BOND_DEF_STEREO_COUNT>
0

>  <PUBCHEM_BOND_UDEF_STEREO_COUNT>
0

>  <PUBCHEM_ISOTOPIC_ATOM_COUNT>
0

>  <PUBCHEM_COMPONENT_COUNT>
1

>  <PUBCHEM_CACTVS_TAUTO_COUNT>
9

>  <PUBCHEM_COORDINATE_TYPE>
1
5
255

>  <PUBCHEM_BONDANNOTATIONS>
10  16  8
11  17  8
12  14  8
13  15  8
14  15  8
16  18  8
17  18  8
6  10  8
6  11  8
8  12  8
8  9  8
9  13  8

$$$$
