42645954
 OpenBabel06101807152D

 64 67  0  0  0  0  0  0  0  0999 V2000
    6.3496   -3.6428    0.0000 O   0  0  0  0  0  0  0  0  0  0  0  0
    6.3739    0.5115    0.0000 O   0  0  0  0  0  0  0  0  0  0  0  0
    4.5879   -2.5336    0.0000 O   0  0  0  0  0  0  0  0  0  0  0  0
    8.9720   -0.9885    0.0000 O   0  0  0  0  0  0  0  0  0  0  0  0
    9.8761    0.5083    0.0000 O   0  0  0  0  0  0  0  0  0  0  0  0
    8.1180    3.5807    0.0000 O   0  0  0  0  0  0  0  0  0  0  0  0
    7.2892   -4.1853    0.0000 C   0  0  0  0  0  0  0  0  0  0  0  0
    7.2560   -2.0300    0.0000 C   0  0  0  0  0  0  0  0  0  0  0  0
    7.2399   -0.9885    0.0000 C   0  0  0  0  0  0  0  0  0  0  0  0
    6.3579   -2.5578    0.0000 C   0  0  0  0  0  0  0  0  0  0  0  0
    6.3739   -0.4885    0.0000 C   0  0  0  0  0  0  0  0  0  0  0  0
    5.4639   -0.9954    0.0000 C   0  0  0  0  0  0  0  0  0  0  0  0
    5.4558   -2.0370    0.0000 C   0  0  0  0  0  0  0  0  0  0  0  0
    8.2246   -3.6355    0.0000 C   0  0  0  0  0  0  0  0  0  0  0  0
    8.2079   -2.5507    0.0000 C   0  0  0  0  0  0  0  0  0  0  0  0
    8.1059   -0.4885    0.0000 C   0  0  0  0  0  0  0  0  0  0  0  0
    8.1059    0.5115    0.0000 C   0  0  0  0  0  0  0  0  0  0  0  0
    7.7925   -5.0493    0.0000 C   0  0  0  0  0  0  0  0  0  0  0  0
    6.7925   -5.0532    0.0000 C   0  0  0  0  0  0  0  0  0  0  0  0
    7.2399    1.0115    0.0000 C   0  0  0  0  0  0  0  0  0  0  0  0
    4.6037   -0.4854    0.0000 C   0  0  0  0  0  0  0  0  0  0  0  0
    9.0159    1.0183    0.0000 C   0  0  0  0  0  0  0  0  0  0  0  0
    9.0239    2.0599    0.0000 C   0  0  0  0  0  0  0  0  0  0  0  0
    7.2238    2.0530    0.0000 C   0  0  0  0  0  0  0  0  0  0  0  0
    8.1219    2.5807    0.0000 C   0  0  0  0  0  0  0  0  0  0  0  0
    3.7319   -0.9754    0.0000 C   0  0  0  0  0  0  0  0  0  0  0  0
    9.8919    2.5566    0.0000 C   0  0  0  0  0  0  0  0  0  0  0  0
    2.8718   -0.4654    0.0000 C   0  0  0  0  0  0  0  0  0  0  0  0
    9.8958    3.5566    0.0000 C   0  0  0  0  0  0  0  0  0  0  0  0
    2.0000   -0.9553    0.0000 C   0  0  0  0  0  0  0  0  0  0  0  0
    2.8833    0.5346    0.0000 C   0  0  0  0  0  0  0  0  0  0  0  0
   10.7637    4.0532    0.0000 C   0  0  0  0  0  0  0  0  0  0  0  0
   10.7676    5.0532    0.0000 C   0  0  0  0  0  0  0  0  0  0  0  0
   11.6278    3.5499    0.0000 C   0  0  0  0  0  0  0  0  0  0  0  0
    8.7651   -3.9393    0.0000 H   0  0  0  0  0  0  0  0  0  0  0  0
    8.7387   -2.2304    0.0000 H   0  0  0  0  0  0  0  0  0  0  0  0
    6.2544   -4.7453    0.0000 H   0  0  0  0  0  0  0  0  0  0  0  0
    6.4846   -5.5913    0.0000 H   0  0  0  0  0  0  0  0  0  0  0  0
    7.3307   -5.3611    0.0000 H   0  0  0  0  0  0  0  0  0  0  0  0
    7.2568   -5.3614    0.0000 H   0  0  0  0  0  0  0  0  0  0  0  0
    8.1046   -5.5851    0.0000 H   0  0  0  0  0  0  0  0  0  0  0  0
    8.3283   -4.7373    0.0000 H   0  0  0  0  0  0  0  0  0  0  0  0
    5.0077   -0.0151    0.0000 H   0  0  0  0  0  0  0  0  0  0  0  0
    4.2107   -0.0059    0.0000 H   0  0  0  0  0  0  0  0  0  0  0  0
    6.6834    2.3567    0.0000 H   0  0  0  0  0  0  0  0  0  0  0  0
    3.7248   -1.5953    0.0000 H   0  0  0  0  0  0  0  0  0  0  0  0
   10.1017    1.9731    0.0000 H   0  0  0  0  0  0  0  0  0  0  0  0
   10.5029    2.6619    0.0000 H   0  0  0  0  0  0  0  0  0  0  0  0
    4.5855   -3.1536    0.0000 H   0  0  0  0  0  0  0  0  0  0  0  0
    9.3600    3.8686    0.0000 H   0  0  0  0  0  0  0  0  0  0  0  0
   10.4166    0.8121    0.0000 H   0  0  0  0  0  0  0  0  0  0  0  0
    7.5799    3.8886    0.0000 H   0  0  0  0  0  0  0  0  0  0  0  0
    1.6962   -0.4148    0.0000 H   0  0  0  0  0  0  0  0  0  0  0  0
    1.4595   -1.2591    0.0000 H   0  0  0  0  0  0  0  0  0  0  0  0
    2.3038   -1.4958    0.0000 H   0  0  0  0  0  0  0  0  0  0  0  0
    3.5033    0.5274    0.0000 H   0  0  0  0  0  0  0  0  0  0  0  0
    2.8905    1.1545    0.0000 H   0  0  0  0  0  0  0  0  0  0  0  0
    2.2634    0.5417    0.0000 H   0  0  0  0  0  0  0  0  0  0  0  0
   11.3875    5.0508    0.0000 H   0  0  0  0  0  0  0  0  0  0  0  0
   11.3157    3.0141    0.0000 H   0  0  0  0  0  0  0  0  0  0  0  0
   12.1635    3.2378    0.0000 H   0  0  0  0  0  0  0  0  0  0  0  0
   11.9399    4.0856    0.0000 H   0  0  0  0  0  0  0  0  0  0  0  0
   10.7699    5.6732    0.0000 H   0  0  0  0  0  0  0  0  0  0  0  0
   10.1476    5.0556    0.0000 H   0  0  0  0  0  0  0  0  0  0  0  0
  1  7  1  0  0  0  0
  1 10  1  0  0  0  0
  2 11  1  0  0  0  0
  2 20  1  0  0  0  0
  3 13  1  0  0  0  0
  3 49  1  0  0  0  0
  4 16  2  0  0  0  0
  5 22  1  0  0  0  0
  5 51  1  0  0  0  0
  6 25  1  0  0  0  0
  6 52  1  0  0  0  0
  7 14  1  0  0  0  0
  7 18  1  0  0  0  0
  7 19  1  0  0  0  0
  8  9  2  0  0  0  0
  8 10  1  0  0  0  0
  8 15  1  0  0  0  0
  9 11  1  0  0  0  0
  9 16  1  0  0  0  0
 10 13  2  0  0  0  0
 11 12  2  0  0  0  0
 12 13  1  0  0  0  0
 12 21  1  0  0  0  0
 14 15  2  0  0  0  0
 14 35  1  0  0  0  0
 15 36  1  0  0  0  0
 16 17  1  0  0  0  0
 17 20  2  0  0  0  0
 17 22  1  0  0  0  0
 18 40  1  0  0  0  0
 18 41  1  0  0  0  0
 18 42  1  0  0  0  0
 19 37  1  0  0  0  0
 19 38  1  0  0  0  0
 19 39  1  0  0  0  0
 20 24  1  0  0  0  0
 21 26  1  0  0  0  0
 21 43  1  0  0  0  0
 21 44  1  0  0  0  0
 22 23  2  0  0  0  0
 23 25  1  0  0  0  0
 23 27  1  0  0  0  0
 24 25  2  0  0  0  0
 24 45  1  0  0  0  0
 26 28  2  0  0  0  0
 26 46  1  0  0  0  0
 27 29  1  0  0  0  0
 27 47  1  0  0  0  0
 27 48  1  0  0  0  0
 28 30  1  0  0  0  0
 28 31  1  0  0  0  0
 29 32  2  0  0  0  0
 29 50  1  0  0  0  0
 30 53  1  0  0  0  0
 30 54  1  0  0  0  0
 30 55  1  0  0  0  0
 31 56  1  0  0  0  0
 31 57  1  0  0  0  0
 31 58  1  0  0  0  0
 32 33  1  0  0  0  0
 32 34  1  0  0  0  0
 33 59  1  0  0  0  0
 33 63  1  0  0  0  0
 33 64  1  0  0  0  0
 34 60  1  0  0  0  0
 34 61  1  0  0  0  0
 34 62  1  0  0  0  0
M  END
>  <PUBCHEM_COMPOUND_CID>
42645954

>  <PUBCHEM_COMPOUND_CANONICALIZED>
1

>  <PUBCHEM_CACTVS_COMPLEXITY>
864

>  <PUBCHEM_CACTVS_HBOND_ACCEPTOR>
6

>  <PUBCHEM_CACTVS_HBOND_DONOR>
3

>  <PUBCHEM_CACTVS_ROTATABLE_BOND>
4

>  <PUBCHEM_CACTVS_SUBSKEYS>
AAADceB4OAAAAAAAAAAAAAAAAAAAAAAAAAA0YIEAAAAAAACRQAAAGgAACAAADESAmAAyBoAABgCIAqBSAAACCAAkIAAIiAEGiMgNJzaGNRqCeWOl4BULuQfK7PzO4QADCAAYQADCAAYQADCAAAAAAAAAAA==

>  <PUBCHEM_IUPAC_OPENEYE_NAME>
5,9,11-trihydroxy-3,3-dimethyl-6,10-bis(3-methylbut-2-enyl)pyrano[3,2-a]xanthen-12-one

>  <PUBCHEM_IUPAC_CAS_NAME>
5,9,11-trihydroxy-3,3-dimethyl-6,10-bis(3-methylbut-2-enyl)-12-pyrano[3,2-a]xanthenone

>  <PUBCHEM_IUPAC_NAME>
5,9,11-trihydroxy-3,3-dimethyl-6,10-bis(3-methylbut-2-enyl)pyrano[3,2-a]xanthen-12-one

>  <PUBCHEM_IUPAC_SYSTEMATIC_NAME>
3,3-dimethyl-6,10-bis(3-methylbut-2-enyl)-5,9,11-tris(oxidanyl)pyrano[3,2-a]xanthen-12-one

>  <PUBCHEM_IUPAC_TRADITIONAL_NAME>
5,9,11-trihydroxy-3,3-dimethyl-6,10-bis(3-methylbut-2-enyl)pyrano[3,2-a]xanthen-12-one

>  <PUBCHEM_IUPAC_INCHI>
InChI=1S/C28H30O6/c1-14(2)7-9-16-19(29)13-20-22(23(16)30)25(32)21-17-11-12-28(5,6)34-27(17)24(31)18(26(21)33-20)10-8-15(3)4/h7-8,11-13,29-31H,9-10H2,1-6H3

>  <PUBCHEM_IUPAC_INCHIKEY>
ADFJMFQSYNRLEH-UHFFFAOYSA-N

>  <PUBCHEM_XLOGP3_AA>
7.2

>  <PUBCHEM_EXACT_MASS>
462.204

>  <PUBCHEM_MOLECULAR_FORMULA>
C28H30O6

>  <PUBCHEM_MOLECULAR_WEIGHT>
462.542

>  <PUBCHEM_OPENEYE_CAN_SMILES>
CC(=CCC1=C(C=C2C(=C1O)C(=O)C3=C4C=CC(OC4=C(C(=C3O2)CC=C(C)C)O)(C)C)O)C

>  <PUBCHEM_OPENEYE_ISO_SMILES>
CC(=CCC1=C(C=C2C(=C1O)C(=O)C3=C4C=CC(OC4=C(C(=C3O2)CC=C(C)C)O)(C)C)O)C

>  <PUBCHEM_CACTVS_TPSA>
96.2

>  <PUBCHEM_MONOISOTOPIC_WEIGHT>
462.204

>  <PUBCHEM_TOTAL_CHARGE>
0

>  <PUBCHEM_HEAVY_ATOM_COUNT>
34

>  <PUBCHEM_ATOM_DEF_STEREO_COUNT>
0

>  <PUBCHEM_ATOM_UDEF_STEREO_COUNT>
0

>  <PUBCHEM_BOND_DEF_STEREO_COUNT>
0

>  <PUBCHEM_BOND_UDEF_STEREO_COUNT>
0

>  <PUBCHEM_ISOTOPIC_ATOM_COUNT>
0

>  <PUBCHEM_COMPONENT_COUNT>
1

>  <PUBCHEM_CACTVS_TAUTO_COUNT>
45

>  <PUBCHEM_COORDINATE_TYPE>
1
5
255

>  <PUBCHEM_BONDANNOTATIONS>
10  13  8
11  12  8
12  13  8
16  17  8
17  20  8
17  22  8
2  11  8
2  20  8
20  24  8
22  23  8
23  25  8
24  25  8
8  10  8
8  9  8
9  11  8
9  16  8

$$$$
