42759
 OpenBabel06101807152D

 45 45  0  0  0  0  0  0  0  0999 V2000
    3.7320   -0.5950    0.0000 O   0  0  0  0  0  0  0  0  0  0  0  0
    2.8660   -4.0950    0.0000 O   0  0  0  0  0  0  0  0  0  0  0  0
    4.5981   -5.0950    0.0000 O   0  0  0  0  0  0  0  0  0  0  0  0
    5.4641   -0.5950    0.0000 N   0  0  0  0  0  0  0  0  0  0  0  0
    7.1962    2.4050    0.0000 C   0  0  0  0  0  0  0  0  0  0  0  0
    6.3301    1.9050    0.0000 C   0  0  0  0  0  0  0  0  0  0  0  0
    7.1962    3.4050    0.0000 C   0  0  0  0  0  0  0  0  0  0  0  0
    6.3301    0.9050    0.0000 C   0  0  0  0  0  0  0  0  0  0  0  0
    8.0622    3.9050    0.0000 C   0  0  0  0  0  0  0  0  0  0  0  0
    5.4641    0.4050    0.0000 C   0  0  0  0  0  0  0  0  0  0  0  0
    8.0622    4.9050    0.0000 C   0  0  0  0  0  0  0  0  0  0  0  0
    8.9282    5.4050    0.0000 C   0  0  0  0  0  0  0  0  0  0  0  0
    4.5981   -1.0950    0.0000 C   0  0  0  0  0  0  0  0  0  0  0  0
    4.5981   -2.0950    0.0000 C   0  0  0  0  0  0  0  0  0  0  0  0
    3.7320   -2.5950    0.0000 C   0  0  0  0  0  0  0  0  0  0  0  0
    5.4641   -2.5950    0.0000 C   0  0  0  0  0  0  0  0  0  0  0  0
    3.7320   -3.5950    0.0000 C   0  0  0  0  0  0  0  0  0  0  0  0
    5.4641   -3.5950    0.0000 C   0  0  0  0  0  0  0  0  0  0  0  0
    4.5981   -4.0950    0.0000 C   0  0  0  0  0  0  0  0  0  0  0  0
    2.0000   -3.5950    0.0000 C   0  0  0  0  0  0  0  0  0  0  0  0
    7.4082    1.8224    0.0000 H   0  0  0  0  0  0  0  0  0  0  0  0
    7.8067    2.5127    0.0000 H   0  0  0  0  0  0  0  0  0  0  0  0
    6.1181    2.4876    0.0000 H   0  0  0  0  0  0  0  0  0  0  0  0
    5.7196    1.7973    0.0000 H   0  0  0  0  0  0  0  0  0  0  0  0
    6.9841    3.9876    0.0000 H   0  0  0  0  0  0  0  0  0  0  0  0
    6.5856    3.2973    0.0000 H   0  0  0  0  0  0  0  0  0  0  0  0
    6.5422    0.3224    0.0000 H   0  0  0  0  0  0  0  0  0  0  0  0
    6.9407    1.0127    0.0000 H   0  0  0  0  0  0  0  0  0  0  0  0
    8.2742    3.3224    0.0000 H   0  0  0  0  0  0  0  0  0  0  0  0
    8.6728    4.0127    0.0000 H   0  0  0  0  0  0  0  0  0  0  0  0
    5.2520    0.9876    0.0000 H   0  0  0  0  0  0  0  0  0  0  0  0
    4.8535    0.2973    0.0000 H   0  0  0  0  0  0  0  0  0  0  0  0
    7.8501    5.4876    0.0000 H   0  0  0  0  0  0  0  0  0  0  0  0
    7.4516    4.7973    0.0000 H   0  0  0  0  0  0  0  0  0  0  0  0
    6.0010   -0.9050    0.0000 H   0  0  0  0  0  0  0  0  0  0  0  0
    9.2382    4.8681    0.0000 H   0  0  0  0  0  0  0  0  0  0  0  0
    9.4651    5.7150    0.0000 H   0  0  0  0  0  0  0  0  0  0  0  0
    8.6182    5.9419    0.0000 H   0  0  0  0  0  0  0  0  0  0  0  0
    3.1951   -2.2850    0.0000 H   0  0  0  0  0  0  0  0  0  0  0  0
    6.0010   -2.2850    0.0000 H   0  0  0  0  0  0  0  0  0  0  0  0
    6.0010   -3.9050    0.0000 H   0  0  0  0  0  0  0  0  0  0  0  0
    5.1350   -5.4050    0.0000 H   0  0  0  0  0  0  0  0  0  0  0  0
    2.3100   -3.0581    0.0000 H   0  0  0  0  0  0  0  0  0  0  0  0
    1.4631   -3.2850    0.0000 H   0  0  0  0  0  0  0  0  0  0  0  0
    1.6900   -4.1319    0.0000 H   0  0  0  0  0  0  0  0  0  0  0  0
  1 13  2  0  0  0  0
  2 17  1  0  0  0  0
  2 20  1  0  0  0  0
  3 19  1  0  0  0  0
  3 42  1  0  0  0  0
  4 10  1  0  0  0  0
  4 13  1  0  0  0  0
  4 35  1  0  0  0  0
  5  6  1  0  0  0  0
  5  7  1  0  0  0  0
  5 21  1  0  0  0  0
  5 22  1  0  0  0  0
  6  8  1  0  0  0  0
  6 23  1  0  0  0  0
  6 24  1  0  0  0  0
  7  9  1  0  0  0  0
  7 25  1  0  0  0  0
  7 26  1  0  0  0  0
  8 10  1  0  0  0  0
  8 27  1  0  0  0  0
  8 28  1  0  0  0  0
  9 11  1  0  0  0  0
  9 29  1  0  0  0  0
  9 30  1  0  0  0  0
 10 31  1  0  0  0  0
 10 32  1  0  0  0  0
 11 12  1  0  0  0  0
 11 33  1  0  0  0  0
 11 34  1  0  0  0  0
 12 36  1  0  0  0  0
 12 37  1  0  0  0  0
 12 38  1  0  0  0  0
 13 14  1  0  0  0  0
 14 15  2  0  0  0  0
 14 16  1  0  0  0  0
 15 17  1  0  0  0  0
 15 39  1  0  0  0  0
 16 18  2  0  0  0  0
 16 40  1  0  0  0  0
 17 19  2  0  0  0  0
 18 19  1  0  0  0  0
 18 41  1  0  0  0  0
 20 43  1  0  0  0  0
 20 44  1  0  0  0  0
 20 45  1  0  0  0  0
M  END
>  <PUBCHEM_COMPOUND_CID>
42759

>  <PUBCHEM_COMPOUND_CANONICALIZED>
1

>  <PUBCHEM_CACTVS_COMPLEXITY>
270

>  <PUBCHEM_CACTVS_HBOND_ACCEPTOR>
3

>  <PUBCHEM_CACTVS_HBOND_DONOR>
2

>  <PUBCHEM_CACTVS_ROTATABLE_BOND>
9

>  <PUBCHEM_CACTVS_SUBSKEYS>
AAADceB6MAAAAAAAAAAAAAAAAAAAAAAAAAAwAAAAAAAAAAABAAAAHgAQCAAADATBmAYyBoLABgCIAiFSEACCCAAkIAAIiIEOjMgNJjKGtRuEcStk1hGLuYe63JLOIAABAAAAQABAAAIAAACAAAAAAAAAAA==

>  <PUBCHEM_IUPAC_OPENEYE_NAME>
4-hydroxy-3-methoxy-N-octyl-benzamide

>  <PUBCHEM_IUPAC_CAS_NAME>
4-hydroxy-3-methoxy-N-octylbenzamide

>  <PUBCHEM_IUPAC_NAME>
4-hydroxy-3-methoxy-N-octylbenzamide

>  <PUBCHEM_IUPAC_SYSTEMATIC_NAME>
3-methoxy-N-octyl-4-oxidanyl-benzamide

>  <PUBCHEM_IUPAC_TRADITIONAL_NAME>
4-hydroxy-3-methoxy-N-octyl-benzamide

>  <PUBCHEM_IUPAC_INCHI>
InChI=1S/C16H25NO3/c1-3-4-5-6-7-8-11-17-16(19)13-9-10-14(18)15(12-13)20-2/h9-10,12,18H,3-8,11H2,1-2H3,(H,17,19)

>  <PUBCHEM_IUPAC_INCHIKEY>
CMUQEPIYTHQKDV-UHFFFAOYSA-N

>  <PUBCHEM_XLOGP3>
4.1

>  <PUBCHEM_EXACT_MASS>
279.183

>  <PUBCHEM_MOLECULAR_FORMULA>
C16H25NO3

>  <PUBCHEM_MOLECULAR_WEIGHT>
279.38

>  <PUBCHEM_OPENEYE_CAN_SMILES>
CCCCCCCCNC(=O)C1=CC(=C(C=C1)O)OC

>  <PUBCHEM_OPENEYE_ISO_SMILES>
CCCCCCCCNC(=O)C1=CC(=C(C=C1)O)OC

>  <PUBCHEM_CACTVS_TPSA>
58.6

>  <PUBCHEM_MONOISOTOPIC_WEIGHT>
279.183

>  <PUBCHEM_TOTAL_CHARGE>
0

>  <PUBCHEM_HEAVY_ATOM_COUNT>
20

>  <PUBCHEM_ATOM_DEF_STEREO_COUNT>
0

>  <PUBCHEM_ATOM_UDEF_STEREO_COUNT>
0

>  <PUBCHEM_BOND_DEF_STEREO_COUNT>
0

>  <PUBCHEM_BOND_UDEF_STEREO_COUNT>
0

>  <PUBCHEM_ISOTOPIC_ATOM_COUNT>
0

>  <PUBCHEM_COMPONENT_COUNT>
1

>  <PUBCHEM_CACTVS_TAUTO_COUNT>
9

>  <PUBCHEM_COORDINATE_TYPE>
1
5
255

>  <PUBCHEM_BONDANNOTATIONS>
14  15  8
14  16  8
15  17  8
16  18  8
17  19  8
18  19  8

$$$$
