4278576
 OpenBabel06101807152D

 74 78  0  0  1  0  0  0  0  0999 V2000
    8.1101   -2.7787    0.0000 O   0  0  0  0  0  0  0  0  0  0  0  0
    7.2441   -0.2787    0.0000 O   0  0  0  0  0  0  0  0  0  0  0  0
    6.3781   -2.7787    0.0000 O   0  0  0  0  0  0  0  0  0  0  0  0
    6.3781   -1.7787    0.0000 O   0  0  0  0  0  0  0  0  0  0  0  0
    9.8422   -1.7787    0.0000 O   0  0  0  0  0  0  0  0  0  0  0  0
    9.8422    0.2213    0.0000 O   0  0  0  0  0  0  0  0  0  0  0  0
    8.1101   -4.7787    0.0000 O   0  0  0  0  0  0  0  0  0  0  0  0
    6.3781   -5.7787    0.0000 O   0  0  0  0  0  0  0  0  0  0  0  0
    4.6460   -4.7787    0.0000 O   0  0  0  0  0  0  0  0  0  0  0  0
    8.9761    1.7213    0.0000 O   0  0  0  0  0  0  0  0  0  0  0  0
    4.6038    1.2733    0.0000 O   0  0  0  0  0  0  0  0  0  0  0  0
    2.8383   -1.7514    0.0000 O   0  0  0  0  0  0  0  0  0  0  0  0
    2.0000   -0.2167    0.0000 O   0  0  0  0  0  0  0  0  0  0  0  0
    5.4834    4.7699    0.0000 O   0  0  0  0  0  0  0  0  0  0  0  0
    3.7552    5.7766    0.0000 O   0  0  0  0  0  0  0  0  0  0  0  0
    8.1101   -1.7787    0.0000 C   0  0  3  0  0  0  0  0  0  0  0  0
    8.9761   -1.2787    0.0000 C   0  0  3  0  0  0  0  0  0  0  0  0
    8.9761   -0.2787    0.0000 C   0  0  3  0  0  0  0  0  0  0  0  0
    7.2441   -3.2787    0.0000 C   0  0  3  0  0  0  0  0  0  0  0  0
    7.2441   -1.2787    0.0000 C   0  0  3  0  0  0  0  0  0  0  0  0
    7.2441   -4.2787    0.0000 C   0  0  3  0  0  0  0  0  0  0  0  0
    8.1101    0.2213    0.0000 C   0  0  3  0  0  0  0  0  0  0  0  0
    6.3781   -4.7787    0.0000 C   0  0  3  0  0  0  0  0  0  0  0  0
    5.5120   -4.2787    0.0000 C   0  0  3  0  0  0  0  0  0  0  0  0
    5.5120   -3.2787    0.0000 C   0  0  3  0  0  0  0  0  0  0  0  0
    8.1101    1.2213    0.0000 C   0  0  0  0  0  0  0  0  0  0  0  0
    4.6460   -2.7787    0.0000 C   0  0  0  0  0  0  0  0  0  0  0  0
    5.5120   -1.2787    0.0000 C   0  0  0  0  0  0  0  0  0  0  0  0
    5.5080   -0.2370    0.0000 C   0  0  0  0  0  0  0  0  0  0  0  0
    4.6080   -1.7960    0.0000 C   0  0  0  0  0  0  0  0  0  0  0  0
    4.6000    0.2733    0.0000 C   0  0  0  0  0  0  0  0  0  0  0  0
    3.7320   -0.2234    0.0000 C   0  0  0  0  0  0  0  0  0  0  0  0
    3.7398    1.7766    0.0000 C   0  0  3  0  0  0  0  0  0  0  0  0
    3.7120   -1.2648    0.0000 C   0  0  0  0  0  0  0  0  0  0  0  0
    2.8718    1.2800    0.0000 C   0  0  0  0  0  0  0  0  0  0  0  0
    2.8680    0.2800    0.0000 C   0  0  0  0  0  0  0  0  0  0  0  0
    3.7436    2.7766    0.0000 C   0  0  0  0  0  0  0  0  0  0  0  0
    4.6116    3.2733    0.0000 C   0  0  0  0  0  0  0  0  0  0  0  0
    2.8795    3.2800    0.0000 C   0  0  0  0  0  0  0  0  0  0  0  0
    4.6154    4.2733    0.0000 C   0  0  0  0  0  0  0  0  0  0  0  0
    2.8834    4.2800    0.0000 C   0  0  0  0  0  0  0  0  0  0  0  0
    3.7513    4.7766    0.0000 C   0  0  0  0  0  0  0  0  0  0  0  0
    7.5732   -2.0887    0.0000 H   0  0  0  0  0  0  0  0  0  0  0  0
    8.9761   -1.8987    0.0000 H   0  0  0  0  0  0  0  0  0  0  0  0
    9.5131   -0.5887    0.0000 H   0  0  0  0  0  0  0  0  0  0  0  0
    7.2441   -2.6587    0.0000 H   0  0  0  0  0  0  0  0  0  0  0  0
    6.7072   -0.9687    0.0000 H   0  0  0  0  0  0  0  0  0  0  0  0
    7.2441   -4.8987    0.0000 H   0  0  0  0  0  0  0  0  0  0  0  0
    7.5732    0.5313    0.0000 H   0  0  0  0  0  0  0  0  0  0  0  0
    5.8411   -5.0887    0.0000 H   0  0  0  0  0  0  0  0  0  0  0  0
    4.9751   -3.9687    0.0000 H   0  0  0  0  0  0  0  0  0  0  0  0
    5.5120   -2.6587    0.0000 H   0  0  0  0  0  0  0  0  0  0  0  0
    7.8981    1.8039    0.0000 H   0  0  0  0  0  0  0  0  0  0  0  0
    7.4995    1.1137    0.0000 H   0  0  0  0  0  0  0  0  0  0  0  0
    4.9560   -2.2417    0.0000 H   0  0  0  0  0  0  0  0  0  0  0  0
    4.1091   -2.4687    0.0000 H   0  0  0  0  0  0  0  0  0  0  0  0
    4.3360   -3.3156    0.0000 H   0  0  0  0  0  0  0  0  0  0  0  0
   10.3791   -1.4687    0.0000 H   0  0  0  0  0  0  0  0  0  0  0  0
   10.3791   -0.0887    0.0000 H   0  0  0  0  0  0  0  0  0  0  0  0
    8.1101   -5.3987    0.0000 H   0  0  0  0  0  0  0  0  0  0  0  0
    5.8411   -6.0887    0.0000 H   0  0  0  0  0  0  0  0  0  0  0  0
    4.1091   -4.4687    0.0000 H   0  0  0  0  0  0  0  0  0  0  0  0
    8.9761    2.3413    0.0000 H   0  0  0  0  0  0  0  0  0  0  0  0
    6.0426    0.0771    0.0000 H   0  0  0  0  0  0  0  0  0  0  0  0
    4.6032   -2.4160    0.0000 H   0  0  0  0  0  0  0  0  0  0  0  0
    4.2779    2.0846    0.0000 H   0  0  0  0  0  0  0  0  0  0  0  0
    2.6620    1.8634    0.0000 H   0  0  0  0  0  0  0  0  0  0  0  0
    2.2608    1.1747    0.0000 H   0  0  0  0  0  0  0  0  0  0  0  0
    5.1473    2.9612    0.0000 H   0  0  0  0  0  0  0  0  0  0  0  0
    2.3414    2.9720    0.0000 H   0  0  0  0  0  0  0  0  0  0  0  0
    2.8288   -2.3713    0.0000 H   0  0  0  0  0  0  0  0  0  0  0  0
    2.3476    4.5920    0.0000 H   0  0  0  0  0  0  0  0  0  0  0  0
    5.4857    5.3899    0.0000 H   0  0  0  0  0  0  0  0  0  0  0  0
    3.2194    6.0887    0.0000 H   0  0  0  0  0  0  0  0  0  0  0  0
  1 16  1  0  0  0  0
  1 19  1  0  0  0  0
  2 20  1  0  0  0  0
  2 22  1  0  0  0  0
  3 19  1  0  0  0  0
  3 25  1  0  0  0  0
  4 20  1  0  0  0  0
  4 28  1  0  0  0  0
  5 17  1  0  0  0  0
  5 58  1  0  0  0  0
  6 18  1  0  0  0  0
  6 59  1  0  0  0  0
  7 21  1  0  0  0  0
  7 60  1  0  0  0  0
  8 23  1  0  0  0  0
  8 61  1  0  0  0  0
  9 24  1  0  0  0  0
  9 62  1  0  0  0  0
 10 26  1  0  0  0  0
 10 63  1  0  0  0  0
 11 31  1  0  0  0  0
 11 33  1  0  0  0  0
 12 34  1  0  0  0  0
 12 71  1  0  0  0  0
 13 36  2  0  0  0  0
 14 40  1  0  0  0  0
 14 73  1  0  0  0  0
 15 42  1  0  0  0  0
 15 74  1  0  0  0  0
 16 17  1  0  0  0  0
 16 20  1  0  0  0  0
 16 43  1  0  0  0  0
 17 18  1  0  0  0  0
 17 44  1  0  0  0  0
 18 22  1  0  0  0  0
 18 45  1  0  0  0  0
 19 21  1  0  0  0  0
 19 46  1  0  0  0  0
 20 47  1  0  0  0  0
 21 23  1  0  0  0  0
 21 48  1  0  0  0  0
 22 26  1  0  0  0  0
 22 49  1  0  0  0  0
 23 24  1  0  0  0  0
 23 50  1  0  0  0  0
 24 25  1  0  0  0  0
 24 51  1  0  0  0  0
 25 27  1  0  0  0  0
 25 52  1  0  0  0  0
 26 53  1  0  0  0  0
 26 54  1  0  0  0  0
 27 55  1  0  0  0  0
 27 56  1  0  0  0  0
 27 57  1  0  0  0  0
 28 29  1  0  0  0  0
 28 30  2  0  0  0  0
 29 31  2  0  0  0  0
 29 64  1  0  0  0  0
 30 34  1  0  0  0  0
 30 65  1  0  0  0  0
 31 32  1  0  0  0  0
 32 34  2  0  0  0  0
 32 36  1  0  0  0  0
 33 35  1  0  0  0  0
 33 37  1  0  0  0  0
 33 66  1  0  0  0  0
 35 36  1  0  0  0  0
 35 67  1  0  0  0  0
 35 68  1  0  0  0  0
 37 38  2  0  0  0  0
 37 39  1  0  0  0  0
 38 40  1  0  0  0  0
 38 69  1  0  0  0  0
 39 41  2  0  0  0  0
 39 70  1  0  0  0  0
 40 42  2  0  0  0  0
 41 42  1  0  0  0  0
 41 72  1  0  0  0  0
M  END
>  <PUBCHEM_COMPOUND_CID>
4278576

>  <PUBCHEM_COMPOUND_CANONICALIZED>
1

>  <PUBCHEM_CACTVS_COMPLEXITY>
924

>  <PUBCHEM_CACTVS_HBOND_ACCEPTOR>
15

>  <PUBCHEM_CACTVS_HBOND_DONOR>
9

>  <PUBCHEM_CACTVS_ROTATABLE_BOND>
6

>  <PUBCHEM_CACTVS_SUBSKEYS>
AAADcfB4PAAAAAAAAAAAAAAAAAAAAAAAAAA0aJECAAAAAACRQAAAGgAACAAADBSwmAMyDoAABgCIAqBSAAACCAAkIAAIiAEGiMgdNzaGNRqieWGl4BUPuQfI7PzOIAABCAAIQABAAAIQABCAAAAAAAAAAA==

>  <PUBCHEM_IUPAC_OPENEYE_NAME>
7-[4,5-dihydroxy-6-(hydroxymethyl)-3-(3,4,5-trihydroxy-6-methyl-tetrahydropyran-2-yl)oxy-tetrahydropyran-2-yl]oxy-2-(3,4-dihydroxyphenyl)-5-hydroxy-chroman-4-one

>  <PUBCHEM_IUPAC_CAS_NAME>
7-[[4,5-dihydroxy-6-(hydroxymethyl)-3-[(3,4,5-trihydroxy-6-methyl-2-oxanyl)oxy]-2-oxanyl]oxy]-2-(3,4-dihydroxyphenyl)-5-hydroxy-3,4-dihydro-2H-1-benzopyran-4-one

>  <PUBCHEM_IUPAC_NAME>
7-[4,5-dihydroxy-6-(hydroxymethyl)-3-(3,4,5-trihydroxy-6-methyloxan-2-yl)oxyoxan-2-yl]oxy-2-(3,4-dihydroxyphenyl)-5-hydroxy-2,3-dihydrochromen-4-one

>  <PUBCHEM_IUPAC_SYSTEMATIC_NAME>
2-[3,4-bis(oxidanyl)phenyl]-7-[6-(hydroxymethyl)-3-[6-methyl-3,4,5-tris(oxidanyl)oxan-2-yl]oxy-4,5-bis(oxidanyl)oxan-2-yl]oxy-5-oxidanyl-2,3-dihydrochromen-4-one

>  <PUBCHEM_IUPAC_TRADITIONAL_NAME>
7-[4,5-dihydroxy-6-methylol-3-(3,4,5-trihydroxy-6-methyl-tetrahydropyran-2-yl)oxy-tetrahydropyran-2-yl]oxy-2-(3,4-dihydroxyphenyl)-5-hydroxy-chroman-4-one

>  <PUBCHEM_IUPAC_INCHI>
InChI=1S/C27H32O15/c1-9-20(33)22(35)24(37)26(38-9)42-25-23(36)21(34)18(8-28)41-27(25)39-11-5-14(31)19-15(32)7-16(40-17(19)6-11)10-2-3-12(29)13(30)4-10/h2-6,9,16,18,20-31,33-37H,7-8H2,1H3

>  <PUBCHEM_IUPAC_INCHIKEY>
OBKKEZLIABHSGY-UHFFFAOYSA-N

>  <PUBCHEM_XLOGP3_AA>
-0.9

>  <PUBCHEM_EXACT_MASS>
596.174

>  <PUBCHEM_MOLECULAR_FORMULA>
C27H32O15

>  <PUBCHEM_MOLECULAR_WEIGHT>
596.538

>  <PUBCHEM_OPENEYE_CAN_SMILES>
CC1C(C(C(C(O1)OC2C(C(C(OC2OC3=CC(=C4C(=O)CC(OC4=C3)C5=CC(=C(C=C5)O)O)O)CO)O)O)O)O)O

>  <PUBCHEM_OPENEYE_ISO_SMILES>
CC1C(C(C(C(O1)OC2C(C(C(OC2OC3=CC(=C4C(=O)CC(OC4=C3)C5=CC(=C(C=C5)O)O)O)CO)O)O)O)O)O

>  <PUBCHEM_CACTVS_TPSA>
245

>  <PUBCHEM_MONOISOTOPIC_WEIGHT>
596.174

>  <PUBCHEM_TOTAL_CHARGE>
0

>  <PUBCHEM_HEAVY_ATOM_COUNT>
42

>  <PUBCHEM_ATOM_DEF_STEREO_COUNT>
0

>  <PUBCHEM_ATOM_UDEF_STEREO_COUNT>
11

>  <PUBCHEM_BOND_DEF_STEREO_COUNT>
0

>  <PUBCHEM_BOND_UDEF_STEREO_COUNT>
0

>  <PUBCHEM_ISOTOPIC_ATOM_COUNT>
0

>  <PUBCHEM_COMPONENT_COUNT>
1

>  <PUBCHEM_CACTVS_TAUTO_COUNT>
90

>  <PUBCHEM_COORDINATE_TYPE>
1
5
255

>  <PUBCHEM_BONDANNOTATIONS>
16  1  3
19  1  3
22  26  3
25  27  3
28  29  8
28  30  8
29  31  8
30  34  8
31  32  8
32  34  8
33  37  3
37  38  8
37  39  8
38  40  8
39  41  8
20  4  3
40  42  8
41  42  8
17  5  3
18  6  3
21  7  3
23  8  3
24  9  3

$$$$
