4287569
 OpenBabel06101807152D

 87 90  0  0  1  0  0  0  0  0999 V2000
   13.7953    0.8856    0.0000 O   0  0  0  0  0  0  0  0  0  0  0  0
   12.7953    1.8856    0.0000 O   0  0  0  0  0  0  0  0  0  0  0  0
   12.0632    0.8856    0.0000 O   0  0  0  0  0  0  0  0  0  0  0  0
    7.7331    0.3856    0.0000 O   0  0  0  0  0  0  0  0  0  0  0  0
    9.4651    0.3856    0.0000 O   0  0  0  0  0  0  0  0  0  0  0  0
   15.0553    3.1456    0.0000 O   0  0  0  0  0  0  0  0  0  0  0  0
   13.2953    4.4244    0.0000 O   0  0  0  0  0  0  0  0  0  0  0  0
   13.7953   -1.1144    0.0000 O   0  0  0  0  0  0  0  0  0  0  0  0
   10.3312   -1.1144    0.0000 O   0  0  0  0  0  0  0  0  0  0  0  0
   12.0632   -2.1144    0.0000 O   0  0  0  0  0  0  0  0  0  0  0  0
    6.0010   -0.6144    0.0000 O   0  0  0  0  0  0  0  0  0  0  0  0
    5.1350   -2.1144    0.0000 O   0  0  0  0  0  0  0  0  0  0  0  0
   15.4895    2.2457    0.0000 O   0  0  0  0  0  0  0  0  0  0  0  0
    6.0010    2.3856    0.0000 O   0  0  0  0  0  0  0  0  0  0  0  0
    9.4651    2.3856    0.0000 O   0  0  0  0  0  0  0  0  0  0  0  0
    7.7331    3.3856    0.0000 O   0  0  0  0  0  0  0  0  0  0  0  0
   11.3273    4.1238    0.0000 O   0  0  0  0  0  0  0  0  0  0  0  0
    4.2690    0.3856    0.0000 O   0  0  0  0  0  0  0  0  0  0  0  0
    2.5369   -0.6144    0.0000 O   0  0  0  0  0  0  0  0  0  0  0  0
    2.5369   -2.6144    0.0000 O   0  0  0  0  0  0  0  0  0  0  0  0
    5.1350   -4.1144    0.0000 O   0  0  0  0  0  0  0  0  0  0  0  0
   13.7953    1.8856    0.0000 C   0  0  3  0  0  0  0  0  0  0  0  0
   14.1043    2.8366    0.0000 C   0  0  3  0  0  0  0  0  0  0  0  0
   13.2953    3.4244    0.0000 C   0  0  3  0  0  0  0  0  0  0  0  0
   12.9292    0.3856    0.0000 C   0  0  3  0  0  0  0  0  0  0  0  0
   12.4862    2.8366    0.0000 C   0  0  3  0  0  0  0  0  0  0  0  0
   11.1972    0.3856    0.0000 C   0  0  3  0  0  0  0  0  0  0  0  0
   12.9292   -0.6144    0.0000 C   0  0  3  0  0  0  0  0  0  0  0  0
   11.1972   -0.6144    0.0000 C   0  0  3  0  0  0  0  0  0  0  0  0
   12.0632   -1.1144    0.0000 C   0  0  3  0  0  0  0  0  0  0  0  0
   14.7463    1.5766    0.0000 C   0  0  0  0  0  0  0  0  0  0  0  0
    6.8671    0.8856    0.0000 C   0  0  3  0  0  0  0  0  0  0  0  0
    8.5991    0.8856    0.0000 C   0  0  3  0  0  0  0  0  0  0  0  0
    6.8671    1.8856    0.0000 C   0  0  3  0  0  0  0  0  0  0  0  0
   10.3312    0.8856    0.0000 C   0  0  0  0  0  0  0  0  0  0  0  0
    8.5991    1.8856    0.0000 C   0  0  3  0  0  0  0  0  0  0  0  0
    7.7331    2.3856    0.0000 C   0  0  3  0  0  0  0  0  0  0  0  0
   11.5352    3.1456    0.0000 C   0  0  0  0  0  0  0  0  0  0  0  0
    6.0010    0.3856    0.0000 C   0  0  0  0  0  0  0  0  0  0  0  0
    5.1350   -1.1144    0.0000 C   0  0  3  0  0  0  0  0  0  0  0  0
    4.2690   -0.6144    0.0000 C   0  0  3  0  0  0  0  0  0  0  0  0
    3.4030   -1.1144    0.0000 C   0  0  3  0  0  0  0  0  0  0  0  0
    3.4030   -2.1144    0.0000 C   0  0  3  0  0  0  0  0  0  0  0  0
    4.2690   -2.6144    0.0000 C   0  0  3  0  0  0  0  0  0  0  0  0
    4.2690   -3.6144    0.0000 C   0  0  0  0  0  0  0  0  0  0  0  0
   14.2013    3.4490    0.0000 H   0  0  0  0  0  0  0  0  0  0  0  0
   13.8477    3.7059    0.0000 H   0  0  0  0  0  0  0  0  0  0  0  0
   13.4662    0.0756    0.0000 H   0  0  0  0  0  0  0  0  0  0  0  0
   12.0478    2.3982    0.0000 H   0  0  0  0  0  0  0  0  0  0  0  0
   11.1972    1.0056    0.0000 H   0  0  0  0  0  0  0  0  0  0  0  0
   12.9292   -1.2344    0.0000 H   0  0  0  0  0  0  0  0  0  0  0  0
   10.6603   -0.3044    0.0000 H   0  0  0  0  0  0  0  0  0  0  0  0
   11.5263   -1.4244    0.0000 H   0  0  0  0  0  0  0  0  0  0  0  0
    6.8671    0.2656    0.0000 H   0  0  0  0  0  0  0  0  0  0  0  0
   14.4552    1.0291    0.0000 H   0  0  0  0  0  0  0  0  0  0  0  0
   15.2349    1.1948    0.0000 H   0  0  0  0  0  0  0  0  0  0  0  0
    8.5991    0.2656    0.0000 H   0  0  0  0  0  0  0  0  0  0  0  0
    6.8671    2.5056    0.0000 H   0  0  0  0  0  0  0  0  0  0  0  0
   10.7297    1.3605    0.0000 H   0  0  0  0  0  0  0  0  0  0  0  0
    9.9326    1.3605    0.0000 H   0  0  0  0  0  0  0  0  0  0  0  0
    8.5991    2.5056    0.0000 H   0  0  0  0  0  0  0  0  0  0  0  0
    8.2700    2.6956    0.0000 H   0  0  0  0  0  0  0  0  0  0  0  0
   10.9156    3.1240    0.0000 H   0  0  0  0  0  0  0  0  0  0  0  0
   11.4489    2.5317    0.0000 H   0  0  0  0  0  0  0  0  0  0  0  0
    5.7890    0.9682    0.0000 H   0  0  0  0  0  0  0  0  0  0  0  0
    5.3905    0.2779    0.0000 H   0  0  0  0  0  0  0  0  0  0  0  0
    5.1350   -0.4944    0.0000 H   0  0  0  0  0  0  0  0  0  0  0  0
    3.7320   -0.3044    0.0000 H   0  0  0  0  0  0  0  0  0  0  0  0
    3.9399   -1.4244    0.0000 H   0  0  0  0  0  0  0  0  0  0  0  0
    3.4030   -2.7344    0.0000 H   0  0  0  0  0  0  0  0  0  0  0  0
    4.8059   -2.9244    0.0000 H   0  0  0  0  0  0  0  0  0  0  0  0
   15.1842    3.7521    0.0000 H   0  0  0  0  0  0  0  0  0  0  0  0
   13.8322    4.7344    0.0000 H   0  0  0  0  0  0  0  0  0  0  0  0
   13.7953   -1.7344    0.0000 H   0  0  0  0  0  0  0  0  0  0  0  0
   10.3312   -1.7344    0.0000 H   0  0  0  0  0  0  0  0  0  0  0  0
   11.5263   -2.4244    0.0000 H   0  0  0  0  0  0  0  0  0  0  0  0
   16.0791    2.0541    0.0000 H   0  0  0  0  0  0  0  0  0  0  0  0
    5.4641    2.0756    0.0000 H   0  0  0  0  0  0  0  0  0  0  0  0
    7.1962    3.6956    0.0000 H   0  0  0  0  0  0  0  0  0  0  0  0
    9.4651    3.0056    0.0000 H   0  0  0  0  0  0  0  0  0  0  0  0
    3.6584   -3.5068    0.0000 H   0  0  0  0  0  0  0  0  0  0  0  0
    4.0569   -4.1970    0.0000 H   0  0  0  0  0  0  0  0  0  0  0  0
   10.7376    4.3154    0.0000 H   0  0  0  0  0  0  0  0  0  0  0  0
    3.7320    0.6956    0.0000 H   0  0  0  0  0  0  0  0  0  0  0  0
    2.0000   -0.9244    0.0000 H   0  0  0  0  0  0  0  0  0  0  0  0
    2.5369   -3.2344    0.0000 H   0  0  0  0  0  0  0  0  0  0  0  0
    5.1350   -4.7344    0.0000 H   0  0  0  0  0  0  0  0  0  0  0  0
  1 22  1  0  0  0  0
  1 25  1  0  0  0  0
  2 22  1  0  0  0  0
  2 26  1  0  0  0  0
  3 25  1  0  0  0  0
  3 27  1  0  0  0  0
  4 32  1  0  0  0  0
  4 33  1  0  0  0  0
  5 33  1  0  0  0  0
  5 35  1  0  0  0  0
  6 23  1  0  0  0  0
  6 72  1  0  0  0  0
  7 24  1  0  0  0  0
  7 73  1  0  0  0  0
  8 28  1  0  0  0  0
  8 74  1  0  0  0  0
  9 29  1  0  0  0  0
  9 75  1  0  0  0  0
 10 30  1  0  0  0  0
 10 76  1  0  0  0  0
 11 39  1  0  0  0  0
 11 40  1  0  0  0  0
 12 40  1  0  0  0  0
 12 44  1  0  0  0  0
 13 31  1  0  0  0  0
 13 77  1  0  0  0  0
 14 34  1  0  0  0  0
 14 78  1  0  0  0  0
 15 36  1  0  0  0  0
 15 80  1  0  0  0  0
 16 37  1  0  0  0  0
 16 79  1  0  0  0  0
 17 38  1  0  0  0  0
 17 83  1  0  0  0  0
 18 41  1  0  0  0  0
 18 84  1  0  0  0  0
 19 42  1  0  0  0  0
 19 85  1  0  0  0  0
 20 43  1  0  0  0  0
 20 86  1  0  0  0  0
 21 45  1  0  0  0  0
 21 87  1  0  0  0  0
 22 23  1  0  0  0  0
 22 31  1  0  0  0  0
 23 24  1  0  0  0  0
 23 46  1  0  0  0  0
 24 26  1  0  0  0  0
 24 47  1  0  0  0  0
 25 28  1  0  0  0  0
 25 48  1  0  0  0  0
 26 38  1  0  0  0  0
 26 49  1  0  0  0  0
 27 29  1  0  0  0  0
 27 35  1  0  0  0  0
 27 50  1  0  0  0  0
 28 30  1  0  0  0  0
 28 51  1  0  0  0  0
 29 30  1  0  0  0  0
 29 52  1  0  0  0  0
 30 53  1  0  0  0  0
 31 55  1  0  0  0  0
 31 56  1  0  0  0  0
 32 34  1  0  0  0  0
 32 39  1  0  0  0  0
 32 54  1  0  0  0  0
 33 36  1  0  0  0  0
 33 57  1  0  0  0  0
 34 37  1  0  0  0  0
 34 58  1  0  0  0  0
 35 59  1  0  0  0  0
 35 60  1  0  0  0  0
 36 37  1  0  0  0  0
 36 61  1  0  0  0  0
 37 62  1  0  0  0  0
 38 63  1  0  0  0  0
 38 64  1  0  0  0  0
 39 65  1  0  0  0  0
 39 66  1  0  0  0  0
 40 41  1  0  0  0  0
 40 67  1  0  0  0  0
 41 42  1  0  0  0  0
 41 68  1  0  0  0  0
 42 43  1  0  0  0  0
 42 69  1  0  0  0  0
 43 44  1  0  0  0  0
 43 70  1  0  0  0  0
 44 45  1  0  0  0  0
 44 71  1  0  0  0  0
 45 81  1  0  0  0  0
 45 82  1  0  0  0  0
M  END
>  <PUBCHEM_COMPOUND_CID>
4287569

>  <PUBCHEM_COMPOUND_CANONICALIZED>
1

>  <PUBCHEM_CACTVS_COMPLEXITY>
933

>  <PUBCHEM_CACTVS_HBOND_ACCEPTOR>
21

>  <PUBCHEM_CACTVS_HBOND_DONOR>
14

>  <PUBCHEM_CACTVS_ROTATABLE_BOND>
11

>  <PUBCHEM_CACTVS_SUBSKEYS>
AAADcfB4PgAAAAAAAAAAAAAAAAAAASAAAAAkSJAAAAAAAAAAAAAAGgAACAAACBSwgAMACAAABgAAAAAAAAAAAAAAAAAAAAAAAAAREAIAAAAiQAAFAAAHAAHAYAwAAAAAAAAAAAAAAAAAAAAAAAAAAAAAAA==

>  <PUBCHEM_IUPAC_OPENEYE_NAME>
2-[[6-[[6-[3,4-dihydroxy-2,5-bis(hydroxymethyl)tetrahydrofuran-2-yl]oxy-3,4,5-trihydroxy-tetrahydropyran-2-yl]methoxy]-3,4,5-trihydroxy-tetrahydropyran-2-yl]methoxy]-6-(hydroxymethyl)tetrahydropyran-3,4,5-triol

>  <PUBCHEM_IUPAC_CAS_NAME>
2-[[6-[[6-[[3,4-dihydroxy-2,5-bis(hydroxymethyl)-2-oxolanyl]oxy]-3,4,5-trihydroxy-2-oxanyl]methoxy]-3,4,5-trihydroxy-2-oxanyl]methoxy]-6-(hydroxymethyl)oxane-3,4,5-triol

>  <PUBCHEM_IUPAC_NAME>
2-[[6-[[6-[3,4-dihydroxy-2,5-bis(hydroxymethyl)oxolan-2-yl]oxy-3,4,5-trihydroxyoxan-2-yl]methoxy]-3,4,5-trihydroxyoxan-2-yl]methoxy]-6-(hydroxymethyl)oxane-3,4,5-triol

>  <PUBCHEM_IUPAC_SYSTEMATIC_NAME>
2-[[6-[[6-[2,5-bis(hydroxymethyl)-3,4-bis(oxidanyl)oxolan-2-yl]oxy-3,4,5-tris(oxidanyl)oxan-2-yl]methoxy]-3,4,5-tris(oxidanyl)oxan-2-yl]methoxy]-6-(hydroxymethyl)oxane-3,4,5-triol

>  <PUBCHEM_IUPAC_TRADITIONAL_NAME>
2-[[6-[[6-(3,4-dihydroxy-2,5-dimethylol-tetrahydrofuran-2-yl)oxy-3,4,5-trihydroxy-tetrahydropyran-2-yl]methoxy]-3,4,5-trihydroxy-tetrahydropyran-2-yl]methoxy]-6-methylol-tetrahydropyran-3,4,5-triol

>  <PUBCHEM_IUPAC_INCHI>
InChI=1S/C24H42O21/c25-1-6-10(28)14(32)17(35)21(41-6)39-3-8-11(29)15(33)18(36)22(42-8)40-4-9-12(30)16(34)19(37)23(43-9)45-24(5-27)20(38)13(31)7(2-26)44-24/h6-23,25-38H,1-5H2

>  <PUBCHEM_IUPAC_INCHIKEY>
UQZIYBXSHAGNOE-UHFFFAOYSA-N

>  <PUBCHEM_XLOGP3>
-8

>  <PUBCHEM_EXACT_MASS>
666.222

>  <PUBCHEM_MOLECULAR_FORMULA>
C24H42O21

>  <PUBCHEM_MOLECULAR_WEIGHT>
666.579

>  <PUBCHEM_OPENEYE_CAN_SMILES>
C(C1C(C(C(C(O1)OCC2C(C(C(C(O2)OCC3C(C(C(C(O3)OC4(C(C(C(O4)CO)O)O)CO)O)O)O)O)O)O)O)O)O)O

>  <PUBCHEM_OPENEYE_ISO_SMILES>
C(C1C(C(C(C(O1)OCC2C(C(C(C(O2)OCC3C(C(C(C(O3)OC4(C(C(C(O4)CO)O)O)CO)O)O)O)O)O)O)O)O)O)O

>  <PUBCHEM_CACTVS_TPSA>
348

>  <PUBCHEM_MONOISOTOPIC_WEIGHT>
666.222

>  <PUBCHEM_TOTAL_CHARGE>
0

>  <PUBCHEM_HEAVY_ATOM_COUNT>
45

>  <PUBCHEM_ATOM_DEF_STEREO_COUNT>
0

>  <PUBCHEM_ATOM_UDEF_STEREO_COUNT>
19

>  <PUBCHEM_BOND_DEF_STEREO_COUNT>
0

>  <PUBCHEM_BOND_UDEF_STEREO_COUNT>
0

>  <PUBCHEM_ISOTOPIC_ATOM_COUNT>
0

>  <PUBCHEM_COMPONENT_COUNT>
1

>  <PUBCHEM_CACTVS_TAUTO_COUNT>
1

>  <PUBCHEM_COORDINATE_TYPE>
1
5
255

>  <PUBCHEM_BONDANNOTATIONS>
25  1  3
30  10  3
40  11  3
34  14  3
36  15  3
37  16  3
41  18  3
42  19  3
43  20  3
22  31  3
26  38  3
27  35  3
32  39  3
44  45  3
33  5  3
23  6  3
24  7  3
28  8  3
29  9  3

$$$$
