433955
 OpenBabel06101807152D

 29 30  0  0  1  0  0  0  0  0999 V2000
    2.0000    1.4827    0.0000 O   0  0  0  0  0  0  0  0  0  0  0  0
    4.5981   -0.0173    0.0000 N   0  0  3  0  0  0  0  0  0  0  0  0
    4.5981    0.9827    0.0000 C   0  0  3  0  0  0  0  0  0  0  0  0
    3.7320   -0.5173    0.0000 C   0  0  3  0  0  0  0  0  0  0  0  0
    5.4920    1.5173    0.0000 C   0  0  0  0  0  0  0  0  0  0  0  0
    5.4920   -0.5520    0.0000 C   0  0  0  0  0  0  0  0  0  0  0  0
    3.7320    1.4827    0.0000 C   0  0  0  0  0  0  0  0  0  0  0  0
    6.3981    1.0035    0.0000 C   0  0  0  0  0  0  0  0  0  0  0  0
    6.3981   -0.0381    0.0000 C   0  0  0  0  0  0  0  0  0  0  0  0
    2.8660   -0.0173    0.0000 C   0  0  0  0  0  0  0  0  0  0  0  0
    2.8660    0.9827    0.0000 C   0  0  0  0  0  0  0  0  0  0  0  0
    3.7320   -1.5173    0.0000 C   0  0  0  0  0  0  0  0  0  0  0  0
    4.5933    1.6026    0.0000 H   0  0  0  0  0  0  0  0  0  0  0  0
    4.2690   -0.8273    0.0000 H   0  0  0  0  0  0  0  0  0  0  0  0
    5.8856    1.9964    0.0000 H   0  0  0  0  0  0  0  0  0  0  0  0
    5.0874    1.9871    0.0000 H   0  0  0  0  0  0  0  0  0  0  0  0
    5.0874   -1.0218    0.0000 H   0  0  0  0  0  0  0  0  0  0  0  0
    5.8856   -1.0310    0.0000 H   0  0  0  0  0  0  0  0  0  0  0  0
    4.1306    1.9576    0.0000 H   0  0  0  0  0  0  0  0  0  0  0  0
    3.3335    1.9576    0.0000 H   0  0  0  0  0  0  0  0  0  0  0  0
    7.0089    0.8974    0.0000 H   0  0  0  0  0  0  0  0  0  0  0  0
    6.6071    1.5872    0.0000 H   0  0  0  0  0  0  0  0  0  0  0  0
    6.6071   -0.6218    0.0000 H   0  0  0  0  0  0  0  0  0  0  0  0
    7.0089    0.0679    0.0000 H   0  0  0  0  0  0  0  0  0  0  0  0
    2.2554    0.0903    0.0000 H   0  0  0  0  0  0  0  0  0  0  0  0
    2.6540   -0.5999    0.0000 H   0  0  0  0  0  0  0  0  0  0  0  0
    3.1120   -1.5173    0.0000 H   0  0  0  0  0  0  0  0  0  0  0  0
    3.7320   -2.1373    0.0000 H   0  0  0  0  0  0  0  0  0  0  0  0
    4.3520   -1.5173    0.0000 H   0  0  0  0  0  0  0  0  0  0  0  0
  1 11  2  0  0  0  0
  2  3  1  0  0  0  0
  2  4  1  0  0  0  0
  2  6  1  0  0  0  0
  3  5  1  0  0  0  0
  3  7  1  0  0  0  0
  3 13  1  0  0  0  0
  4 10  1  0  0  0  0
  4 12  1  0  0  0  0
  4 14  1  0  0  0  0
  5  8  1  0  0  0  0
  5 15  1  0  0  0  0
  5 16  1  0  0  0  0
  6  9  1  0  0  0  0
  6 17  1  0  0  0  0
  6 18  1  0  0  0  0
  7 11  1  0  0  0  0
  7 19  1  0  0  0  0
  7 20  1  0  0  0  0
  8  9  1  0  0  0  0
  8 21  1  0  0  0  0
  8 22  1  0  0  0  0
  9 23  1  0  0  0  0
  9 24  1  0  0  0  0
 10 11  1  0  0  0  0
 10 25  1  0  0  0  0
 10 26  1  0  0  0  0
 12 27  1  0  0  0  0
 12 28  1  0  0  0  0
 12 29  1  0  0  0  0
M  END
>  <PUBCHEM_COMPOUND_CID>
433955

>  <PUBCHEM_COMPOUND_CANONICALIZED>
1

>  <PUBCHEM_CACTVS_COMPLEXITY>
190

>  <PUBCHEM_CACTVS_HBOND_ACCEPTOR>
2

>  <PUBCHEM_CACTVS_HBOND_DONOR>
0

>  <PUBCHEM_CACTVS_ROTATABLE_BOND>
0

>  <PUBCHEM_CACTVS_SUBSKEYS>
AAADceByIAAAAAAAAAAAAAAAAAAAAAAAAAAsWAAAAAAAAACwAAAAHgAAAAAACCzBgAQCAAMAAAAIAIAQAAAAAAAAAAAAAAEIAAAAABoAgAAEAAAAAACAAAEYiICAAAAAAAAAAAAAAAAAAAAAAAAAAAAAAA==

>  <PUBCHEM_IUPAC_OPENEYE_NAME>
4-methyl-1,3,4,6,7,8,9,9a-octahydroquinolizin-2-one

>  <PUBCHEM_IUPAC_CAS_NAME>
4-methyl-1,3,4,6,7,8,9,9a-octahydroquinolizin-2-one

>  <PUBCHEM_IUPAC_NAME>
4-methyl-1,3,4,6,7,8,9,9a-octahydroquinolizin-2-one

>  <PUBCHEM_IUPAC_SYSTEMATIC_NAME>
4-methyl-1,3,4,6,7,8,9,9a-octahydroquinolizin-2-one

>  <PUBCHEM_IUPAC_TRADITIONAL_NAME>
4-methylquinolizidin-2-one

>  <PUBCHEM_IUPAC_INCHI>
InChI=1S/C10H17NO/c1-8-6-10(12)7-9-4-2-3-5-11(8)9/h8-9H,2-7H2,1H3

>  <PUBCHEM_IUPAC_INCHIKEY>
GDQCWCOVKFXWMP-UHFFFAOYSA-N

>  <PUBCHEM_XLOGP3_AA>
1.1

>  <PUBCHEM_EXACT_MASS>
167.131

>  <PUBCHEM_MOLECULAR_FORMULA>
C10H17NO

>  <PUBCHEM_MOLECULAR_WEIGHT>
167.252

>  <PUBCHEM_OPENEYE_CAN_SMILES>
CC1CC(=O)CC2N1CCCC2

>  <PUBCHEM_OPENEYE_ISO_SMILES>
CC1CC(=O)CC2N1CCCC2

>  <PUBCHEM_CACTVS_TPSA>
20.3

>  <PUBCHEM_MONOISOTOPIC_WEIGHT>
167.131

>  <PUBCHEM_TOTAL_CHARGE>
0

>  <PUBCHEM_HEAVY_ATOM_COUNT>
12

>  <PUBCHEM_ATOM_DEF_STEREO_COUNT>
0

>  <PUBCHEM_ATOM_UDEF_STEREO_COUNT>
2

>  <PUBCHEM_BOND_DEF_STEREO_COUNT>
0

>  <PUBCHEM_BOND_UDEF_STEREO_COUNT>
0

>  <PUBCHEM_ISOTOPIC_ATOM_COUNT>
0

>  <PUBCHEM_COMPONENT_COUNT>
1

>  <PUBCHEM_CACTVS_TAUTO_COUNT>
3

>  <PUBCHEM_COORDINATE_TYPE>
1
5
255

>  <PUBCHEM_BONDANNOTATIONS>
3  7  3
4  12  3

$$$$
