437080
 OpenBabel06101807152D

134142  0  0  1  0  0  0  0  0999 V2000
   10.8882    4.0403    0.0000 O   0  0  0  0  0  0  0  0  0  0  0  0
    9.4651   -4.2038    0.0000 O   0  0  0  0  0  0  0  0  0  0  0  0
    7.7331   -4.2038    0.0000 O   0  0  0  0  0  0  0  0  0  0  0  0
    9.4651   -6.2038    0.0000 O   0  0  0  0  0  0  0  0  0  0  0  0
    7.7331   -7.2038    0.0000 O   0  0  0  0  0  0  0  0  0  0  0  0
    6.0010   -6.2038    0.0000 O   0  0  0  0  0  0  0  0  0  0  0  0
   10.3312   -4.7038    0.0000 O   0  0  0  0  0  0  0  0  0  0  0  0
    6.0010   -3.2038    0.0000 O   0  0  0  0  0  0  0  0  0  0  0  0
    5.1350   -4.7038    0.0000 O   0  0  0  0  0  0  0  0  0  0  0  0
   11.1972   -7.2038    0.0000 O   0  0  0  0  0  0  0  0  0  0  0  0
   12.9292   -6.2038    0.0000 O   0  0  0  0  0  0  0  0  0  0  0  0
    4.2690   -7.2038    0.0000 O   0  0  0  0  0  0  0  0  0  0  0  0
   12.9292   -4.2038    0.0000 O   0  0  0  0  0  0  0  0  0  0  0  0
    2.5369   -6.2038    0.0000 O   0  0  0  0  0  0  0  0  0  0  0  0
    2.5369   -4.2038    0.0000 O   0  0  0  0  0  0  0  0  0  0  0  0
   10.8378    5.1213    0.0000 N   0  0  0  0  0  0  0  0  0  0  0  0
    9.4944    1.9931    0.0000 C   0  0  3  0  0  0  0  0  0  0  0  0
   10.3623    1.4965    0.0000 C   0  0  3  0  0  0  0  0  0  0  0  0
    9.6999    2.9657    0.0000 C   0  0  3  0  0  0  0  0  0  0  0  0
   10.3662    0.4965    0.0000 C   0  0  3  0  0  0  0  0  0  0  0  0
   10.6882    3.0726    0.0000 C   0  0  3  0  0  0  0  0  0  0  0  0
    9.5021   -0.0069    0.0000 C   0  0  3  0  0  0  0  0  0  0  0  0
   11.0968    2.1664    0.0000 C   0  0  0  0  0  0  0  0  0  0  0  0
    9.2976    3.8683    0.0000 C   0  0  3  0  0  0  0  0  0  0  0  0
    8.6303    1.4898    0.0000 C   0  0  0  0  0  0  0  0  0  0  0  0
    8.6342    0.4898    0.0000 C   0  0  0  0  0  0  0  0  0  0  0  0
   10.0305    4.5311    0.0000 C   0  0  3  0  0  0  0  0  0  0  0  0
    9.4901   -1.0484    0.0000 C   0  0  3  0  0  0  0  0  0  0  0  0
    8.6264    2.4898    0.0000 C   0  0  0  0  0  0  0  0  0  0  0  0
   11.2781   -0.0069    0.0000 C   0  0  0  0  0  0  0  0  0  0  0  0
   10.3901   -1.5727    0.0000 C   0  0  0  0  0  0  0  0  0  0  0  0
    9.1158    4.9351    0.0000 C   0  0  0  0  0  0  0  0  0  0  0  0
    8.5402   -1.5727    0.0000 C   0  0  0  0  0  0  0  0  0  0  0  0
    8.3192    4.0750    0.0000 C   0  0  0  0  0  0  0  0  0  0  0  0
   11.2902   -1.0484    0.0000 C   0  0  0  0  0  0  0  0  0  0  0  0
    8.6260   -0.5451    0.0000 C   0  0  0  0  0  0  0  0  0  0  0  0
   10.4027   -2.6576    0.0000 C   0  0  0  0  0  0  0  0  0  0  0  0
    8.5276   -2.6576    0.0000 C   0  0  0  0  0  0  0  0  0  0  0  0
    9.0083    5.9293    0.0000 C   0  0  0  0  0  0  0  0  0  0  0  0
    9.4651   -3.2038    0.0000 C   0  0  3  0  0  0  0  0  0  0  0  0
   10.7303    6.1155    0.0000 C   0  0  0  0  0  0  0  0  0  0  0  0
    9.8155    6.5195    0.0000 C   0  0  3  0  0  0  0  0  0  0  0  0
    9.7080    7.5138    0.0000 C   0  0  0  0  0  0  0  0  0  0  0  0
    8.5991   -4.7038    0.0000 C   0  0  3  0  0  0  0  0  0  0  0  0
    8.5991   -5.7038    0.0000 C   0  0  3  0  0  0  0  0  0  0  0  0
    7.7331   -6.2038    0.0000 C   0  0  3  0  0  0  0  0  0  0  0  0
    6.8671   -4.7038    0.0000 C   0  0  3  0  0  0  0  0  0  0  0  0
    6.8671   -5.7038    0.0000 C   0  0  3  0  0  0  0  0  0  0  0  0
    6.0010   -4.2038    0.0000 C   0  0  0  0  0  0  0  0  0  0  0  0
   10.3312   -5.7038    0.0000 C   0  0  3  0  0  0  0  0  0  0  0  0
   11.1972   -6.2038    0.0000 C   0  0  3  0  0  0  0  0  0  0  0  0
    5.1350   -5.7038    0.0000 C   0  0  3  0  0  0  0  0  0  0  0  0
   12.0632   -5.7038    0.0000 C   0  0  3  0  0  0  0  0  0  0  0  0
   11.1972   -4.2038    0.0000 C   0  0  3  0  0  0  0  0  0  0  0  0
    4.2690   -6.2038    0.0000 C   0  0  3  0  0  0  0  0  0  0  0  0
   12.0632   -4.7038    0.0000 C   0  0  3  0  0  0  0  0  0  0  0  0
    3.4030   -5.7038    0.0000 C   0  0  3  0  0  0  0  0  0  0  0  0
    4.2690   -4.2038    0.0000 C   0  0  3  0  0  0  0  0  0  0  0  0
    3.4030   -4.7038    0.0000 C   0  0  3  0  0  0  0  0  0  0  0  0
   11.1972   -3.2038    0.0000 C   0  0  0  0  0  0  0  0  0  0  0  0
    4.2690   -3.2038    0.0000 C   0  0  0  0  0  0  0  0  0  0  0  0
   11.1406    1.1548    0.0000 H   0  0  0  0  0  0  0  0  0  0  0  0
    8.8546    2.8762    0.0000 H   0  0  0  0  0  0  0  0  0  0  0  0
   11.0974    0.9300    0.0000 H   0  0  0  0  0  0  0  0  0  0  0  0
   11.5330    3.1658    0.0000 H   0  0  0  0  0  0  0  0  0  0  0  0
   10.2366   -0.4347    0.0000 H   0  0  0  0  0  0  0  0  0  0  0  0
   11.4642    1.6670    0.0000 H   0  0  0  0  0  0  0  0  0  0  0  0
   11.6321    2.4792    0.0000 H   0  0  0  0  0  0  0  0  0  0  0  0
    8.7632    3.2073    0.0000 H   0  0  0  0  0  0  0  0  0  0  0  0
    8.4160    2.0716    0.0000 H   0  0  0  0  0  0  0  0  0  0  0  0
    8.0201    1.3798    0.0000 H   0  0  0  0  0  0  0  0  0  0  0  0
    8.0232    0.5951    0.0000 H   0  0  0  0  0  0  0  0  0  0  0  0
    8.4244   -0.0936    0.0000 H   0  0  0  0  0  0  0  0  0  0  0  0
    8.9344    3.0279    0.0000 H   0  0  0  0  0  0  0  0  0  0  0  0
    8.0883    2.7977    0.0000 H   0  0  0  0  0  0  0  0  0  0  0  0
    8.3185    1.9517    0.0000 H   0  0  0  0  0  0  0  0  0  0  0  0
   11.8902   -0.1059    0.0000 H   0  0  0  0  0  0  0  0  0  0  0  0
   11.4804    0.5792    0.0000 H   0  0  0  0  0  0  0  0  0  0  0  0
    8.4972    4.9765    0.0000 H   0  0  0  0  0  0  0  0  0  0  0  0
    8.9676    4.3331    0.0000 H   0  0  0  0  0  0  0  0  0  0  0  0
    8.3379   -0.9866    0.0000 H   0  0  0  0  0  0  0  0  0  0  0  0
    7.9281   -1.6717    0.0000 H   0  0  0  0  0  0  0  0  0  0  0  0
    8.4473    4.6816    0.0000 H   0  0  0  0  0  0  0  0  0  0  0  0
    7.7125    4.2032    0.0000 H   0  0  0  0  0  0  0  0  0  0  0  0
    8.1910    3.4684    0.0000 H   0  0  0  0  0  0  0  0  0  0  0  0
   11.8295   -1.3543    0.0000 H   0  0  0  0  0  0  0  0  0  0  0  0
   11.4049    4.8708    0.0000 H   0  0  0  0  0  0  0  0  0  0  0  0
    8.9380   -0.0093    0.0000 H   0  0  0  0  0  0  0  0  0  0  0  0
    8.0902   -0.2330    0.0000 H   0  0  0  0  0  0  0  0  0  0  0  0
    8.3139   -1.0808    0.0000 H   0  0  0  0  0  0  0  0  0  0  0  0
   10.6185   -3.2389    0.0000 H   0  0  0  0  0  0  0  0  0  0  0  0
   11.0123   -2.5445    0.0000 H   0  0  0  0  0  0  0  0  0  0  0  0
    7.9180   -2.5445    0.0000 H   0  0  0  0  0  0  0  0  0  0  0  0
    8.3118   -3.2389    0.0000 H   0  0  0  0  0  0  0  0  0  0  0  0
    8.7348    6.4858    0.0000 H   0  0  0  0  0  0  0  0  0  0  0  0
    8.4128    5.7567    0.0000 H   0  0  0  0  0  0  0  0  0  0  0  0
   10.2021   -3.6273    0.0000 H   0  0  0  0  0  0  0  0  0  0  0  0
   11.3489    6.0741    0.0000 H   0  0  0  0  0  0  0  0  0  0  0  0
   10.8785    6.7176    0.0000 H   0  0  0  0  0  0  0  0  0  0  0  0
   10.5017    7.0212    0.0000 H   0  0  0  0  0  0  0  0  0  0  0  0
   10.3244    7.5804    0.0000 H   0  0  0  0  0  0  0  0  0  0  0  0
    9.6414    8.1302    0.0000 H   0  0  0  0  0  0  0  0  0  0  0  0
    9.0916    7.4471    0.0000 H   0  0  0  0  0  0  0  0  0  0  0  0
    8.5991   -3.8538    0.0000 H   0  0  0  0  0  0  0  0  0  0  0  0
    8.5991   -6.5538    0.0000 H   0  0  0  0  0  0  0  0  0  0  0  0
    6.9970   -6.6288    0.0000 H   0  0  0  0  0  0  0  0  0  0  0  0
    6.8671   -3.8538    0.0000 H   0  0  0  0  0  0  0  0  0  0  0  0
    6.1309   -5.2787    0.0000 H   0  0  0  0  0  0  0  0  0  0  0  0
    5.3905   -4.0961    0.0000 H   0  0  0  0  0  0  0  0  0  0  0  0
    5.7890   -4.7864    0.0000 H   0  0  0  0  0  0  0  0  0  0  0  0
    9.5950   -5.2787    0.0000 H   0  0  0  0  0  0  0  0  0  0  0  0
    7.1962   -7.5138    0.0000 H   0  0  0  0  0  0  0  0  0  0  0  0
   11.9333   -6.6288    0.0000 H   0  0  0  0  0  0  0  0  0  0  0  0
    5.1350   -6.5538    0.0000 H   0  0  0  0  0  0  0  0  0  0  0  0
    5.4641   -2.8938    0.0000 H   0  0  0  0  0  0  0  0  0  0  0  0
   12.7993   -5.2787    0.0000 H   0  0  0  0  0  0  0  0  0  0  0  0
   10.4611   -3.7788    0.0000 H   0  0  0  0  0  0  0  0  0  0  0  0
    3.5329   -6.6288    0.0000 H   0  0  0  0  0  0  0  0  0  0  0  0
   12.0632   -3.8538    0.0000 H   0  0  0  0  0  0  0  0  0  0  0  0
    2.6668   -5.2787    0.0000 H   0  0  0  0  0  0  0  0  0  0  0  0
   11.7341   -7.5138    0.0000 H   0  0  0  0  0  0  0  0  0  0  0  0
    5.0051   -3.7788    0.0000 H   0  0  0  0  0  0  0  0  0  0  0  0
    3.4030   -3.8538    0.0000 H   0  0  0  0  0  0  0  0  0  0  0  0
   11.8172   -3.2038    0.0000 H   0  0  0  0  0  0  0  0  0  0  0  0
   11.1972   -2.5838    0.0000 H   0  0  0  0  0  0  0  0  0  0  0  0
   10.5772   -3.2038    0.0000 H   0  0  0  0  0  0  0  0  0  0  0  0
   13.4662   -5.8938    0.0000 H   0  0  0  0  0  0  0  0  0  0  0  0
    3.7320   -7.5138    0.0000 H   0  0  0  0  0  0  0  0  0  0  0  0
   13.4662   -4.5138    0.0000 H   0  0  0  0  0  0  0  0  0  0  0  0
    4.8890   -3.2038    0.0000 H   0  0  0  0  0  0  0  0  0  0  0  0
    4.2690   -2.5838    0.0000 H   0  0  0  0  0  0  0  0  0  0  0  0
    3.6490   -3.2038    0.0000 H   0  0  0  0  0  0  0  0  0  0  0  0
    2.0000   -5.8938    0.0000 H   0  0  0  0  0  0  0  0  0  0  0  0
    2.5369   -3.5838    0.0000 H   0  0  0  0  0  0  0  0  0  0  0  0
  1 21  1  0  0  0  0
  1 27  1  0  0  0  0
  2 40  1  0  0  0  0
  2 44  1  0  0  0  0
  3 44  1  0  0  0  0
  3 47  1  0  0  0  0
  4 45  1  0  0  0  0
  4 50  1  0  0  0  0
  5 46  1  0  0  0  0
  5112  1  0  0  0  0
  6 48  1  0  0  0  0
  6 52  1  0  0  0  0
  7 50  1  0  0  0  0
  7 54  1  0  0  0  0
  8 49  1  0  0  0  0
  8115  1  0  0  0  0
  9 52  1  0  0  0  0
  9 58  1  0  0  0  0
 10 51  1  0  0  0  0
 10121  1  0  0  0  0
 11 53  1  0  0  0  0
 11127  1  0  0  0  0
 12 55  1  0  0  0  0
 12128  1  0  0  0  0
 13 56  1  0  0  0  0
 13129  1  0  0  0  0
 14 57  1  0  0  0  0
 14133  1  0  0  0  0
 15 59  1  0  0  0  0
 15134  1  0  0  0  0
 16 27  1  0  0  0  0
 16 41  1  0  0  0  0
 16 87  1  0  0  0  0
 17 18  1  0  0  0  0
 17 19  1  0  0  0  0
 17 25  1  0  0  0  0
 17 29  1  0  0  0  0
 18 20  1  0  0  0  0
 18 23  1  0  0  0  0
 18 62  1  0  0  0  0
 19 21  1  0  0  0  0
 19 24  1  0  0  0  0
 19 63  1  0  0  0  0
 20 22  1  0  0  0  0
 20 30  1  0  0  0  0
 20 64  1  0  0  0  0
 21 23  1  0  0  0  0
 21 65  1  0  0  0  0
 22 26  1  0  0  0  0
 22 28  1  0  0  0  0
 22 66  1  0  0  0  0
 23 67  1  0  0  0  0
 23 68  1  0  0  0  0
 24 27  1  0  0  0  0
 24 34  1  0  0  0  0
 24 69  1  0  0  0  0
 25 26  1  0  0  0  0
 25 70  1  0  0  0  0
 25 71  1  0  0  0  0
 26 72  1  0  0  0  0
 26 73  1  0  0  0  0
 27 32  1  0  0  0  0
 28 31  1  0  0  0  0
 28 33  1  0  0  0  0
 28 36  1  0  0  0  0
 29 74  1  0  0  0  0
 29 75  1  0  0  0  0
 29 76  1  0  0  0  0
 30 35  1  0  0  0  0
 30 77  1  0  0  0  0
 30 78  1  0  0  0  0
 31 35  2  0  0  0  0
 31 37  1  0  0  0  0
 32 39  1  0  0  0  0
 32 79  1  0  0  0  0
 32 80  1  0  0  0  0
 33 38  1  0  0  0  0
 33 81  1  0  0  0  0
 33 82  1  0  0  0  0
 34 83  1  0  0  0  0
 34 84  1  0  0  0  0
 34 85  1  0  0  0  0
 35 86  1  0  0  0  0
 36 88  1  0  0  0  0
 36 89  1  0  0  0  0
 36 90  1  0  0  0  0
 37 40  1  0  0  0  0
 37 91  1  0  0  0  0
 37 92  1  0  0  0  0
 38 40  1  0  0  0  0
 38 93  1  0  0  0  0
 38 94  1  0  0  0  0
 39 42  1  0  0  0  0
 39 95  1  0  0  0  0
 39 96  1  0  0  0  0
 40 97  1  0  0  0  0
 41 42  1  0  0  0  0
 41 98  1  0  0  0  0
 41 99  1  0  0  0  0
 42 43  1  0  0  0  0
 42100  1  0  0  0  0
 43101  1  0  0  0  0
 43102  1  0  0  0  0
 43103  1  0  0  0  0
 44 45  1  0  0  0  0
 44104  1  0  0  0  0
 45 46  1  0  0  0  0
 45105  1  0  0  0  0
 46 48  1  0  0  0  0
 46106  1  0  0  0  0
 47 48  1  0  0  0  0
 47 49  1  0  0  0  0
 47107  1  0  0  0  0
 48108  1  0  0  0  0
 49109  1  0  0  0  0
 49110  1  0  0  0  0
 50 51  1  0  0  0  0
 50111  1  0  0  0  0
 51 53  1  0  0  0  0
 51113  1  0  0  0  0
 52 55  1  0  0  0  0
 52114  1  0  0  0  0
 53 56  1  0  0  0  0
 53116  1  0  0  0  0
 54 56  1  0  0  0  0
 54 60  1  0  0  0  0
 54117  1  0  0  0  0
 55 57  1  0  0  0  0
 55118  1  0  0  0  0
 56119  1  0  0  0  0
 57 59  1  0  0  0  0
 57120  1  0  0  0  0
 58 59  1  0  0  0  0
 58 61  1  0  0  0  0
 58122  1  0  0  0  0
 59123  1  0  0  0  0
 60124  1  0  0  0  0
 60125  1  0  0  0  0
 60126  1  0  0  0  0
 61130  1  0  0  0  0
 61131  1  0  0  0  0
 61132  1  0  0  0  0
M  END
>  <PUBCHEM_COMPOUND_CID>
437080

>  <PUBCHEM_COMPOUND_CANONICALIZED>
1

>  <PUBCHEM_CACTVS_COMPLEXITY>
1610

>  <PUBCHEM_CACTVS_HBOND_ACCEPTOR>
16

>  <PUBCHEM_CACTVS_HBOND_DONOR>
9

>  <PUBCHEM_CACTVS_ROTATABLE_BOND>
7

>  <PUBCHEM_CACTVS_SUBSKEYS>
AAADcfB+PAAAAAAAAAAAAAAAAAAAAaIAAAA8aJEiAAASAGCAAAAAHgAQCAAADxzxgAcCCALABgCAAiBCAAAAAAAgAAAACIAIAAkREAIAgQAuQAAF0ACPAAPw8PwPgAAAAAAAAADAAAQAACAAAYAADAAAAA==

>  <PUBCHEM_IUPAC_INCHI>
InChI=1S/C45H73NO15/c1-19-9-14-45(46-17-19)20(2)30-28(61-45)16-27-25-8-7-23-15-24(10-12-43(23,5)26(25)11-13-44(27,30)6)57-42-39(60-41-36(53)34(51)32(49)22(4)56-41)37(54)38(29(18-47)58-42)59-40-35(52)33(50)31(48)21(3)55-40/h7,19-22,24-42,46-54H,8-18H2,1-6H3

>  <PUBCHEM_IUPAC_INCHIKEY>
MBWUSSKCCUMJHO-UHFFFAOYSA-N

>  <PUBCHEM_XLOGP3_AA>
1.1

>  <PUBCHEM_EXACT_MASS>
867.498

>  <PUBCHEM_MOLECULAR_FORMULA>
C45H73NO15

>  <PUBCHEM_MOLECULAR_WEIGHT>
868.071

>  <PUBCHEM_OPENEYE_CAN_SMILES>
CC1CCC2(C(C3C(O2)CC4C3(CCC5C4CC=C6C5(CCC(C6)OC7C(C(C(C(O7)CO)OC8C(C(C(C(O8)C)O)O)O)O)OC9C(C(C(C(O9)C)O)O)O)C)C)C)NC1

>  <PUBCHEM_OPENEYE_ISO_SMILES>
CC1CCC2(C(C3C(O2)CC4C3(CCC5C4CC=C6C5(CCC(C6)OC7C(C(C(C(O7)CO)OC8C(C(C(C(O8)C)O)O)O)O)OC9C(C(C(C(O9)C)O)O)O)C)C)C)NC1

>  <PUBCHEM_CACTVS_TPSA>
239

>  <PUBCHEM_MONOISOTOPIC_WEIGHT>
867.498

>  <PUBCHEM_TOTAL_CHARGE>
0

>  <PUBCHEM_HEAVY_ATOM_COUNT>
61

>  <PUBCHEM_ATOM_DEF_STEREO_COUNT>
0

>  <PUBCHEM_ATOM_UDEF_STEREO_COUNT>
26

>  <PUBCHEM_BOND_DEF_STEREO_COUNT>
0

>  <PUBCHEM_BOND_UDEF_STEREO_COUNT>
0

>  <PUBCHEM_ISOTOPIC_ATOM_COUNT>
0

>  <PUBCHEM_COMPONENT_COUNT>
1

>  <PUBCHEM_CACTVS_TAUTO_COUNT>
1

>  <PUBCHEM_COORDINATE_TYPE>
1
5
255

>  <PUBCHEM_BONDANNOTATIONS>
17  29  3
18  62  3
19  63  3
20  64  3
21  65  3
22  66  3
24  69  3
27  32  3
28  36  3
40  97  3
42  100  3
44  104  3
45  105  3
46  106  3
47  107  3
48  108  3
50  111  3
51  113  3
52  114  3
53  116  3
54  117  3
55  118  3
56  119  3
57  120  3
58  122  3
59  123  3

$$$$
