441045
 OpenBabel06101807152D

 27 28  0  0  1  0  0  0  0  0999 V2000
    4.2690    1.6550    0.0000 O   0  0  0  0  0  0  0  0  0  0  0  0
    2.5369    0.6550    0.0000 O   0  0  0  0  0  0  0  0  0  0  0  0
    6.0010   -1.3450    0.0000 N   0  0  0  0  0  0  0  0  0  0  0  0
    6.0010    0.6550    0.0000 N   0  0  0  0  0  0  0  0  0  0  0  0
    7.7610   -1.3797    0.0000 N   0  0  0  0  0  0  0  0  0  0  0  0
    8.6671    0.1758    0.0000 N   0  0  0  0  0  0  0  0  0  0  0  0
    4.2690    0.6550    0.0000 C   0  0  2  0  0  0  0  0  0  0  0  0
    5.1350    0.1550    0.0000 C   0  0  0  0  0  0  0  0  0  0  0  0
    3.4030    0.1550    0.0000 C   0  0  2  0  0  0  0  0  0  0  0  0
    5.1350   -0.8450    0.0000 C   0  0  0  0  0  0  0  0  0  0  0  0
    3.4030   -0.8450    0.0000 C   0  0  0  0  0  0  0  0  0  0  0  0
    6.8671   -0.8450    0.0000 C   0  0  0  0  0  0  0  0  0  0  0  0
    6.8671    0.1550    0.0000 C   0  0  0  0  0  0  0  0  0  0  0  0
    7.7610    0.6897    0.0000 C   0  0  0  0  0  0  0  0  0  0  0  0
    8.6671   -0.8658    0.0000 C   0  0  0  0  0  0  0  0  0  0  0  0
    4.8059    0.9650    0.0000 H   0  0  0  0  0  0  0  0  0  0  0  0
    3.4030    0.7750    0.0000 H   0  0  0  0  0  0  0  0  0  0  0  0
    4.5244   -0.7373    0.0000 H   0  0  0  0  0  0  0  0  0  0  0  0
    4.9230   -1.4276    0.0000 H   0  0  0  0  0  0  0  0  0  0  0  0
    6.0010   -1.9650    0.0000 H   0  0  0  0  0  0  0  0  0  0  0  0
    2.7830   -0.8450    0.0000 H   0  0  0  0  0  0  0  0  0  0  0  0
    3.4030   -1.4650    0.0000 H   0  0  0  0  0  0  0  0  0  0  0  0
    4.0230   -0.8450    0.0000 H   0  0  0  0  0  0  0  0  0  0  0  0
    3.7320    1.9650    0.0000 H   0  0  0  0  0  0  0  0  0  0  0  0
    2.0000    0.3450    0.0000 H   0  0  0  0  0  0  0  0  0  0  0  0
    7.7538    1.3096    0.0000 H   0  0  0  0  0  0  0  0  0  0  0  0
    9.2028   -1.1779    0.0000 H   0  0  0  0  0  0  0  0  0  0  0  0
  1 24  1  0  0  0  0
  2 25  1  0  0  0  0
  3 10  1  0  0  0  0
  3 12  1  0  0  0  0
  3 20  1  0  0  0  0
  4  8  2  0  0  0  0
  4 13  1  0  0  0  0
  5 12  2  0  0  0  0
  5 15  1  0  0  0  0
  6 14  1  0  0  0  0
  6 15  2  0  0  0  0
  7  1  1  0  0  0  0
  7  8  1  0  0  0  0
  7  9  1  0  0  0  0
  7 16  1  1  0  0  0
  8 10  1  0  0  0  0
  9  2  1  0  0  0  0
  9 11  1  0  0  0  0
  9 17  1  1  0  0  0
 10 18  1  0  0  0  0
 10 19  1  0  0  0  0
 11 21  1  0  0  0  0
 11 22  1  0  0  0  0
 11 23  1  0  0  0  0
 12 13  1  0  0  0  0
 13 14  2  0  0  0  0
 14 26  1  0  0  0  0
 15 27  1  0  0  0  0
M  END
>  <PUBCHEM_COMPOUND_CID>
441045

>  <PUBCHEM_COMPOUND_CANONICALIZED>
1

>  <PUBCHEM_CACTVS_COMPLEXITY>
259

>  <PUBCHEM_CACTVS_HBOND_ACCEPTOR>
6

>  <PUBCHEM_CACTVS_HBOND_DONOR>
3

>  <PUBCHEM_CACTVS_ROTATABLE_BOND>
2

>  <PUBCHEM_CACTVS_SUBSKEYS>
AAADccBzsAAAAAAAAAAAAAAAAAAAAAAAAAAsQAAAAAAAAACBgAAAHgAQCAAACBzhkgYv8JbIEgCgARZnZASAgCkREqABUKA4dBCBWIJAyEAURAgOAALBACAwAAAAAAAAAAAAAAAAAAAAAAAAAAAAAAAAAA==

>  <PUBCHEM_IUPAC_OPENEYE_NAME>
(1R,2S)-1-(7,8-dihydropteridin-6-yl)propane-1,2-diol

>  <PUBCHEM_IUPAC_CAS_NAME>
(1R,2S)-1-(7,8-dihydropteridin-6-yl)propane-1,2-diol

>  <PUBCHEM_IUPAC_NAME>
(1R,2S)-1-(7,8-dihydropteridin-6-yl)propane-1,2-diol

>  <PUBCHEM_IUPAC_SYSTEMATIC_NAME>
(1R,2S)-1-(7,8-dihydropteridin-6-yl)propane-1,2-diol

>  <PUBCHEM_IUPAC_TRADITIONAL_NAME>
(1R,2S)-1-(7,8-dihydropteridin-6-yl)propane-1,2-diol

>  <PUBCHEM_IUPAC_INCHI>
InChI=1S/C9H12N4O2/c1-5(14)8(15)6-3-11-9-7(13-6)2-10-4-12-9/h2,4-5,8,14-15H,3H2,1H3,(H,10,11,12)/t5-,8-/m0/s1

>  <PUBCHEM_IUPAC_INCHIKEY>
BQADMILWYUBNTA-XNCJUZBTSA-N

>  <PUBCHEM_XLOGP3_AA>
-0.8

>  <PUBCHEM_EXACT_MASS>
208.096

>  <PUBCHEM_MOLECULAR_FORMULA>
C9H12N4O2

>  <PUBCHEM_MOLECULAR_WEIGHT>
208.221

>  <PUBCHEM_OPENEYE_CAN_SMILES>
CC(C(C1=NC2=CN=CN=C2NC1)O)O

>  <PUBCHEM_OPENEYE_ISO_SMILES>
C[C@@H]([C@@H](C1=NC2=CN=CN=C2NC1)O)O

>  <PUBCHEM_CACTVS_TPSA>
90.6

>  <PUBCHEM_MONOISOTOPIC_WEIGHT>
208.096

>  <PUBCHEM_TOTAL_CHARGE>
0

>  <PUBCHEM_HEAVY_ATOM_COUNT>
15

>  <PUBCHEM_ATOM_DEF_STEREO_COUNT>
2

>  <PUBCHEM_ATOM_UDEF_STEREO_COUNT>
0

>  <PUBCHEM_BOND_DEF_STEREO_COUNT>
0

>  <PUBCHEM_BOND_UDEF_STEREO_COUNT>
0

>  <PUBCHEM_ISOTOPIC_ATOM_COUNT>
0

>  <PUBCHEM_COMPONENT_COUNT>
1

>  <PUBCHEM_CACTVS_TAUTO_COUNT>
22

>  <PUBCHEM_COORDINATE_TYPE>
1
5
255

>  <PUBCHEM_BONDANNOTATIONS>
7  1  6
12  13  8
13  14  8
9  2  6
5  12  8
5  15  8
6  14  8
6  15  8

$$$$
