44139000
 OpenBabel06101807152D

 54 56  0  0  0  0  0  0  0  0999 V2000
    6.0812    0.4943    0.0000 O   0  0  0  0  0  0  0  0  0  0  0  0
    2.5369    0.2990    0.0000 O   0  0  0  0  0  0  0  0  0  0  0  0
    9.6648   -0.4330    0.0000 O   0  0  0  0  0  0  0  0  0  0  0  0
    9.6648    3.0311    0.0000 O   0  0  0  0  0  0  0  0  0  0  0  0
    5.1350    0.7990    0.0000 C   0  0  0  0  0  0  0  0  0  0  0  0
    5.1350    1.7990    0.0000 C   0  0  0  0  0  0  0  0  0  0  0  0
    6.6648    1.2990    0.0000 C   0  0  0  0  0  0  0  0  0  0  0  0
    4.2690    0.2990    0.0000 C   0  0  0  0  0  0  0  0  0  0  0  0
    7.6648    1.2990    0.0000 C   0  0  0  0  0  0  0  0  0  0  0  0
    8.1648    0.4330    0.0000 C   0  0  0  0  0  0  0  0  0  0  0  0
    6.0812    2.1038    0.0000 C   0  0  0  0  0  0  0  0  0  0  0  0
    4.2690   -0.7010    0.0000 C   0  0  0  0  0  0  0  0  0  0  0  0
    7.6648   -0.4330    0.0000 C   0  0  0  0  0  0  0  0  0  0  0  0
    3.4030    0.7990    0.0000 C   0  0  0  0  0  0  0  0  0  0  0  0
    4.2690    2.2990    0.0000 C   0  0  0  0  0  0  0  0  0  0  0  0
    8.1648    2.1651    0.0000 C   0  0  0  0  0  0  0  0  0  0  0  0
    9.1648    0.4330    0.0000 C   0  0  0  0  0  0  0  0  0  0  0  0
    3.4030    1.7990    0.0000 C   0  0  0  0  0  0  0  0  0  0  0  0
    9.1648    2.1651    0.0000 C   0  0  0  0  0  0  0  0  0  0  0  0
    3.4030   -1.2010    0.0000 C   0  0  0  0  0  0  0  0  0  0  0  0
    9.6648    1.2990    0.0000 C   0  0  0  0  0  0  0  0  0  0  0  0
    8.1648   -1.2990    0.0000 C   0  0  0  0  0  0  0  0  0  0  0  0
    3.4030   -2.2010    0.0000 C   0  0  0  0  0  0  0  0  0  0  0  0
    7.6648   -2.1651    0.0000 C   0  0  0  0  0  0  0  0  0  0  0  0
    2.5369   -2.7010    0.0000 C   0  0  0  0  0  0  0  0  0  0  0  0
    4.2690   -2.7010    0.0000 C   0  0  0  0  0  0  0  0  0  0  0  0
    8.1648   -3.0311    0.0000 C   0  0  0  0  0  0  0  0  0  0  0  0
    6.6648   -2.1651    0.0000 C   0  0  0  0  0  0  0  0  0  0  0  0
    6.2738    2.6931    0.0000 H   0  0  0  0  0  0  0  0  0  0  0  0
    4.4810   -1.2836    0.0000 H   0  0  0  0  0  0  0  0  0  0  0  0
    4.8796   -0.5933    0.0000 H   0  0  0  0  0  0  0  0  0  0  0  0
    7.1899   -0.0345    0.0000 H   0  0  0  0  0  0  0  0  0  0  0  0
    7.1899   -0.8315    0.0000 H   0  0  0  0  0  0  0  0  0  0  0  0
    4.2690    2.9190    0.0000 H   0  0  0  0  0  0  0  0  0  0  0  0
    7.8548    2.7020    0.0000 H   0  0  0  0  0  0  0  0  0  0  0  0
    2.8660    2.1090    0.0000 H   0  0  0  0  0  0  0  0  0  0  0  0
    2.8660   -0.8910    0.0000 H   0  0  0  0  0  0  0  0  0  0  0  0
   10.2848    1.2990    0.0000 H   0  0  0  0  0  0  0  0  0  0  0  0
    8.7848   -1.2990    0.0000 H   0  0  0  0  0  0  0  0  0  0  0  0
    2.0000    0.6090    0.0000 H   0  0  0  0  0  0  0  0  0  0  0  0
   10.2848   -0.4330    0.0000 H   0  0  0  0  0  0  0  0  0  0  0  0
    2.2269   -2.1640    0.0000 H   0  0  0  0  0  0  0  0  0  0  0  0
    2.0000   -3.0110    0.0000 H   0  0  0  0  0  0  0  0  0  0  0  0
    2.8469   -3.2379    0.0000 H   0  0  0  0  0  0  0  0  0  0  0  0
    3.9590   -3.2379    0.0000 H   0  0  0  0  0  0  0  0  0  0  0  0
    4.8059   -3.0110    0.0000 H   0  0  0  0  0  0  0  0  0  0  0  0
    4.5790   -2.1640    0.0000 H   0  0  0  0  0  0  0  0  0  0  0  0
    6.6648   -1.5451    0.0000 H   0  0  0  0  0  0  0  0  0  0  0  0
    6.0448   -2.1651    0.0000 H   0  0  0  0  0  0  0  0  0  0  0  0
    7.6279   -3.3411    0.0000 H   0  0  0  0  0  0  0  0  0  0  0  0
    8.4748   -3.5680    0.0000 H   0  0  0  0  0  0  0  0  0  0  0  0
    8.7018   -2.7211    0.0000 H   0  0  0  0  0  0  0  0  0  0  0  0
    6.6648   -2.7851    0.0000 H   0  0  0  0  0  0  0  0  0  0  0  0
   10.2848    3.0311    0.0000 H   0  0  0  0  0  0  0  0  0  0  0  0
  1  5  1  0  0  0  0
  1  7  1  0  0  0  0
  2 14  1  0  0  0  0
  2 40  1  0  0  0  0
  3 17  1  0  0  0  0
  3 41  1  0  0  0  0
  4 19  1  0  0  0  0
  4 54  1  0  0  0  0
  5  6  2  0  0  0  0
  5  8  1  0  0  0  0
  6 11  1  0  0  0  0
  6 15  1  0  0  0  0
  7  9  1  0  0  0  0
  7 11  2  0  0  0  0
  8 12  1  0  0  0  0
  8 14  2  0  0  0  0
  9 10  2  0  0  0  0
  9 16  1  0  0  0  0
 10 13  1  0  0  0  0
 10 17  1  0  0  0  0
 11 29  1  0  0  0  0
 12 20  1  0  0  0  0
 12 30  1  0  0  0  0
 12 31  1  0  0  0  0
 13 22  1  0  0  0  0
 13 32  1  0  0  0  0
 13 33  1  0  0  0  0
 14 18  1  0  0  0  0
 15 18  2  0  0  0  0
 15 34  1  0  0  0  0
 16 19  2  0  0  0  0
 16 35  1  0  0  0  0
 17 21  2  0  0  0  0
 18 36  1  0  0  0  0
 19 21  1  0  0  0  0
 20 23  2  0  0  0  0
 20 37  1  0  0  0  0
 21 38  1  0  0  0  0
 22 24  2  0  0  0  0
 22 39  1  0  0  0  0
 23 25  1  0  0  0  0
 23 26  1  0  0  0  0
 24 27  1  0  0  0  0
 24 28  1  0  0  0  0
 25 42  1  0  0  0  0
 25 43  1  0  0  0  0
 25 44  1  0  0  0  0
 26 45  1  0  0  0  0
 26 46  1  0  0  0  0
 26 47  1  0  0  0  0
 27 50  1  0  0  0  0
 27 51  1  0  0  0  0
 27 52  1  0  0  0  0
 28 48  1  0  0  0  0
 28 49  1  0  0  0  0
 28 53  1  0  0  0  0
M  END
>  <PUBCHEM_COMPOUND_CID>
44139000

>  <PUBCHEM_COMPOUND_CANONICALIZED>
1

>  <PUBCHEM_CACTVS_COMPLEXITY>
575

>  <PUBCHEM_CACTVS_HBOND_ACCEPTOR>
4

>  <PUBCHEM_CACTVS_HBOND_DONOR>
3

>  <PUBCHEM_CACTVS_ROTATABLE_BOND>
5

>  <PUBCHEM_CACTVS_SUBSKEYS>
AAADceB4OAAAAAAAAAAAAAAAAAAAASAAAAAwYAAAAAAAAEgB9AAAGgAACAAADASAmAAyBsAABkCIAqBSAAACCAAkIAAIiAEGCMgMJzaGNRqCeWCl4BUIuYfK7PzOoAADCAAYAABAAAYQADAAAAAAAAAAAA==

>  <PUBCHEM_IUPAC_OPENEYE_NAME>
5-[6-hydroxy-7-(3-methylbut-2-enyl)benzofuran-2-yl]-4-(3-methylbut-2-enyl)benzene-1,3-diol

>  <PUBCHEM_IUPAC_CAS_NAME>
5-[6-hydroxy-7-(3-methylbut-2-enyl)-2-benzofuranyl]-4-(3-methylbut-2-enyl)benzene-1,3-diol

>  <PUBCHEM_IUPAC_NAME>
5-[6-hydroxy-7-(3-methylbut-2-enyl)-1-benzofuran-2-yl]-4-(3-methylbut-2-enyl)benzene-1,3-diol

>  <PUBCHEM_IUPAC_SYSTEMATIC_NAME>
4-(3-methylbut-2-enyl)-5-[7-(3-methylbut-2-enyl)-6-oxidanyl-1-benzofuran-2-yl]benzene-1,3-diol

>  <PUBCHEM_IUPAC_TRADITIONAL_NAME>
5-[6-hydroxy-7-(3-methylbut-2-enyl)benzofuran-2-yl]-4-(3-methylbut-2-enyl)resorcinol

>  <PUBCHEM_IUPAC_INCHI>
InChI=1S/C24H26O4/c1-14(2)5-8-18-20(12-17(25)13-22(18)27)23-11-16-7-10-21(26)19(24(16)28-23)9-6-15(3)4/h5-7,10-13,25-27H,8-9H2,1-4H3

>  <PUBCHEM_IUPAC_INCHIKEY>
RIKHTPZRKHGXPO-UHFFFAOYSA-N

>  <PUBCHEM_XLOGP3_AA>
6.8

>  <PUBCHEM_EXACT_MASS>
378.183

>  <PUBCHEM_MOLECULAR_FORMULA>
C24H26O4

>  <PUBCHEM_MOLECULAR_WEIGHT>
378.468

>  <PUBCHEM_OPENEYE_CAN_SMILES>
CC(=CCC1=C(C=CC2=C1OC(=C2)C3=CC(=CC(=C3CC=C(C)C)O)O)O)C

>  <PUBCHEM_OPENEYE_ISO_SMILES>
CC(=CCC1=C(C=CC2=C1OC(=C2)C3=CC(=CC(=C3CC=C(C)C)O)O)O)C

>  <PUBCHEM_CACTVS_TPSA>
73.8

>  <PUBCHEM_MONOISOTOPIC_WEIGHT>
378.183

>  <PUBCHEM_TOTAL_CHARGE>
0

>  <PUBCHEM_HEAVY_ATOM_COUNT>
28

>  <PUBCHEM_ATOM_DEF_STEREO_COUNT>
0

>  <PUBCHEM_ATOM_UDEF_STEREO_COUNT>
0

>  <PUBCHEM_BOND_DEF_STEREO_COUNT>
0

>  <PUBCHEM_BOND_UDEF_STEREO_COUNT>
0

>  <PUBCHEM_ISOTOPIC_ATOM_COUNT>
0

>  <PUBCHEM_COMPONENT_COUNT>
1

>  <PUBCHEM_CACTVS_TAUTO_COUNT>
44

>  <PUBCHEM_COORDINATE_TYPE>
1
5
255

>  <PUBCHEM_BONDANNOTATIONS>
1  5  8
1  7  8
10  17  8
14  18  8
15  18  8
16  19  8
17  21  8
19  21  8
5  6  8
5  8  8
6  11  8
6  15  8
7  11  8
8  14  8
9  10  8
9  16  8

$$$$
