44139122
 OpenBabel06101807152D

 80 82  0  0  0  0  0  0  0  0999 V2000
    6.0812   -0.8047    0.0000 O   0  0  0  0  0  0  0  0  0  0  0  0
    9.6648    1.7320    0.0000 O   0  0  0  0  0  0  0  0  0  0  0  0
    9.6648   -1.7320    0.0000 O   0  0  0  0  0  0  0  0  0  0  0  0
    2.5369   -1.0000    0.0000 O   0  0  0  0  0  0  0  0  0  0  0  0
    7.6648    0.0000    0.0000 C   0  0  0  0  0  0  0  0  0  0  0  0
    8.1648   -0.8660    0.0000 C   0  0  0  0  0  0  0  0  0  0  0  0
    8.1648    0.8660    0.0000 C   0  0  0  0  0  0  0  0  0  0  0  0
    7.6648   -1.7320    0.0000 C   0  0  0  0  0  0  0  0  0  0  0  0
    7.6648    1.7320    0.0000 C   0  0  0  0  0  0  0  0  0  0  0  0
    6.6648    0.0000    0.0000 C   0  0  0  0  0  0  0  0  0  0  0  0
    9.1648    0.8660    0.0000 C   0  0  0  0  0  0  0  0  0  0  0  0
    9.1648   -0.8660    0.0000 C   0  0  0  0  0  0  0  0  0  0  0  0
    9.6648   -0.0000    0.0000 C   0  0  0  0  0  0  0  0  0  0  0  0
    8.1648   -2.5981    0.0000 C   0  0  0  0  0  0  0  0  0  0  0  0
    8.1648    2.5981    0.0000 C   0  0  0  0  0  0  0  0  0  0  0  0
    6.0812    0.8047    0.0000 C   0  0  0  0  0  0  0  0  0  0  0  0
    5.1350    0.5000    0.0000 C   0  0  0  0  0  0  0  0  0  0  0  0
    7.6648   -3.4641    0.0000 C   0  0  0  0  0  0  0  0  0  0  0  0
    7.6648    3.4641    0.0000 C   0  0  0  0  0  0  0  0  0  0  0  0
    5.1350   -0.5000    0.0000 C   0  0  0  0  0  0  0  0  0  0  0  0
    8.1648   -4.3301    0.0000 C   0  0  0  0  0  0  0  0  0  0  0  0
    8.1648    4.3301    0.0000 C   0  0  0  0  0  0  0  0  0  0  0  0
    7.6648   -5.1962    0.0000 C   0  0  0  0  0  0  0  0  0  0  0  0
    7.6648    5.1962    0.0000 C   0  0  0  0  0  0  0  0  0  0  0  0
    4.2690    1.0000    0.0000 C   0  0  0  0  0  0  0  0  0  0  0  0
    6.6648   -3.4641    0.0000 C   0  0  0  0  0  0  0  0  0  0  0  0
    6.6648    3.4641    0.0000 C   0  0  0  0  0  0  0  0  0  0  0  0
    4.2690   -1.0000    0.0000 C   0  0  0  0  0  0  0  0  0  0  0  0
    3.4030   -0.5000    0.0000 C   0  0  0  0  0  0  0  0  0  0  0  0
    3.4030    0.5000    0.0000 C   0  0  0  0  0  0  0  0  0  0  0  0
    8.1648   -6.0622    0.0000 C   0  0  0  0  0  0  0  0  0  0  0  0
    8.1648    6.0622    0.0000 C   0  0  0  0  0  0  0  0  0  0  0  0
    7.6648   -6.9282    0.0000 C   0  0  0  0  0  0  0  0  0  0  0  0
    7.6648    6.9282    0.0000 C   0  0  0  0  0  0  0  0  0  0  0  0
    8.1648   -7.7942    0.0000 C   0  0  0  0  0  0  0  0  0  0  0  0
    6.6648   -6.9282    0.0000 C   0  0  0  0  0  0  0  0  0  0  0  0
    8.1648    7.7942    0.0000 C   0  0  0  0  0  0  0  0  0  0  0  0
    6.6648    6.9282    0.0000 C   0  0  0  0  0  0  0  0  0  0  0  0
    7.1899   -1.3335    0.0000 H   0  0  0  0  0  0  0  0  0  0  0  0
    7.1899   -2.1306    0.0000 H   0  0  0  0  0  0  0  0  0  0  0  0
    7.1899    2.1306    0.0000 H   0  0  0  0  0  0  0  0  0  0  0  0
    7.1899    1.3335    0.0000 H   0  0  0  0  0  0  0  0  0  0  0  0
   10.2848   -0.0000    0.0000 H   0  0  0  0  0  0  0  0  0  0  0  0
    8.7848   -2.5981    0.0000 H   0  0  0  0  0  0  0  0  0  0  0  0
    8.7848    2.5981    0.0000 H   0  0  0  0  0  0  0  0  0  0  0  0
    6.2738    1.3940    0.0000 H   0  0  0  0  0  0  0  0  0  0  0  0
    8.6398   -4.7287    0.0000 H   0  0  0  0  0  0  0  0  0  0  0  0
    8.6398   -3.9316    0.0000 H   0  0  0  0  0  0  0  0  0  0  0  0
    8.6398    3.9316    0.0000 H   0  0  0  0  0  0  0  0  0  0  0  0
    8.6398    4.7287    0.0000 H   0  0  0  0  0  0  0  0  0  0  0  0
    7.1899   -4.7976    0.0000 H   0  0  0  0  0  0  0  0  0  0  0  0
    7.1899   -5.5947    0.0000 H   0  0  0  0  0  0  0  0  0  0  0  0
    7.1899    5.5947    0.0000 H   0  0  0  0  0  0  0  0  0  0  0  0
    7.1899    4.7976    0.0000 H   0  0  0  0  0  0  0  0  0  0  0  0
    4.2690    1.6200    0.0000 H   0  0  0  0  0  0  0  0  0  0  0  0
    6.6648   -2.8441    0.0000 H   0  0  0  0  0  0  0  0  0  0  0  0
    6.0448   -3.4641    0.0000 H   0  0  0  0  0  0  0  0  0  0  0  0
    6.6648   -4.0841    0.0000 H   0  0  0  0  0  0  0  0  0  0  0  0
    6.6648    4.0841    0.0000 H   0  0  0  0  0  0  0  0  0  0  0  0
    6.0448    3.4641    0.0000 H   0  0  0  0  0  0  0  0  0  0  0  0
    6.6648    2.8441    0.0000 H   0  0  0  0  0  0  0  0  0  0  0  0
    4.2690   -1.6200    0.0000 H   0  0  0  0  0  0  0  0  0  0  0  0
   10.2848    1.7320    0.0000 H   0  0  0  0  0  0  0  0  0  0  0  0
   10.2848   -1.7320    0.0000 H   0  0  0  0  0  0  0  0  0  0  0  0
    2.8660    0.8100    0.0000 H   0  0  0  0  0  0  0  0  0  0  0  0
    8.7848   -6.0622    0.0000 H   0  0  0  0  0  0  0  0  0  0  0  0
    8.7848    6.0622    0.0000 H   0  0  0  0  0  0  0  0  0  0  0  0
    6.6648   -6.3082    0.0000 H   0  0  0  0  0  0  0  0  0  0  0  0
    6.0448   -6.9282    0.0000 H   0  0  0  0  0  0  0  0  0  0  0  0
    6.6648   -7.5482    0.0000 H   0  0  0  0  0  0  0  0  0  0  0  0
    7.6279   -8.1042    0.0000 H   0  0  0  0  0  0  0  0  0  0  0  0
    8.4748   -8.3312    0.0000 H   0  0  0  0  0  0  0  0  0  0  0  0
    8.7018   -7.4842    0.0000 H   0  0  0  0  0  0  0  0  0  0  0  0
    6.6648    7.5482    0.0000 H   0  0  0  0  0  0  0  0  0  0  0  0
    6.0448    6.9282    0.0000 H   0  0  0  0  0  0  0  0  0  0  0  0
    6.6648    6.3082    0.0000 H   0  0  0  0  0  0  0  0  0  0  0  0
    8.7018    7.4842    0.0000 H   0  0  0  0  0  0  0  0  0  0  0  0
    8.4748    8.3312    0.0000 H   0  0  0  0  0  0  0  0  0  0  0  0
    7.6279    8.1042    0.0000 H   0  0  0  0  0  0  0  0  0  0  0  0
    2.0000   -0.6900    0.0000 H   0  0  0  0  0  0  0  0  0  0  0  0
  1 10  1  0  0  0  0
  1 20  1  0  0  0  0
  2 11  1  0  0  0  0
  2 63  1  0  0  0  0
  3 12  1  0  0  0  0
  3 64  1  0  0  0  0
  4 29  1  0  0  0  0
  4 80  1  0  0  0  0
  5  6  2  0  0  0  0
  5  7  1  0  0  0  0
  5 10  1  0  0  0  0
  6  8  1  0  0  0  0
  6 12  1  0  0  0  0
  7  9  1  0  0  0  0
  7 11  2  0  0  0  0
  8 14  1  0  0  0  0
  8 39  1  0  0  0  0
  8 40  1  0  0  0  0
  9 15  1  0  0  0  0
  9 41  1  0  0  0  0
  9 42  1  0  0  0  0
 10 16  2  0  0  0  0
 11 13  1  0  0  0  0
 12 13  2  0  0  0  0
 13 43  1  0  0  0  0
 14 18  2  0  0  0  0
 14 44  1  0  0  0  0
 15 19  2  0  0  0  0
 15 45  1  0  0  0  0
 16 17  1  0  0  0  0
 16 46  1  0  0  0  0
 17 20  2  0  0  0  0
 17 25  1  0  0  0  0
 18 21  1  0  0  0  0
 18 26  1  0  0  0  0
 19 22  1  0  0  0  0
 19 27  1  0  0  0  0
 20 28  1  0  0  0  0
 21 23  1  0  0  0  0
 21 47  1  0  0  0  0
 21 48  1  0  0  0  0
 22 24  1  0  0  0  0
 22 49  1  0  0  0  0
 22 50  1  0  0  0  0
 23 31  1  0  0  0  0
 23 51  1  0  0  0  0
 23 52  1  0  0  0  0
 24 32  1  0  0  0  0
 24 53  1  0  0  0  0
 24 54  1  0  0  0  0
 25 30  2  0  0  0  0
 25 55  1  0  0  0  0
 26 56  1  0  0  0  0
 26 57  1  0  0  0  0
 26 58  1  0  0  0  0
 27 59  1  0  0  0  0
 27 60  1  0  0  0  0
 27 61  1  0  0  0  0
 28 29  2  0  0  0  0
 28 62  1  0  0  0  0
 29 30  1  0  0  0  0
 30 65  1  0  0  0  0
 31 33  2  0  0  0  0
 31 66  1  0  0  0  0
 32 34  2  0  0  0  0
 32 67  1  0  0  0  0
 33 35  1  0  0  0  0
 33 36  1  0  0  0  0
 34 37  1  0  0  0  0
 34 38  1  0  0  0  0
 35 71  1  0  0  0  0
 35 72  1  0  0  0  0
 35 73  1  0  0  0  0
 36 68  1  0  0  0  0
 36 69  1  0  0  0  0
 36 70  1  0  0  0  0
 37 77  1  0  0  0  0
 37 78  1  0  0  0  0
 37 79  1  0  0  0  0
 38 74  1  0  0  0  0
 38 75  1  0  0  0  0
 38 76  1  0  0  0  0
M  END
>  <PUBCHEM_COMPOUND_CID>
44139122

>  <PUBCHEM_COMPOUND_CANONICALIZED>
1

>  <PUBCHEM_CACTVS_COMPLEXITY>
808

>  <PUBCHEM_CACTVS_HBOND_ACCEPTOR>
4

>  <PUBCHEM_CACTVS_HBOND_DONOR>
3

>  <PUBCHEM_CACTVS_ROTATABLE_BOND>
11

>  <PUBCHEM_CACTVS_SUBSKEYS>
AAADcfB8OAAAAAAAAAAAAAAAAAAAASAAAAAwYAAAAAAAAEgB9AAAGgAACAAADASAmAAyBsAABkCIAqBSAAACCAAkIAAIiAEGCMgMJzaGNRqCeWCl4BUIuYfK7PzOoAADCAAYAABAAAYQADAAAAAAAAAAAA==

>  <PUBCHEM_IUPAC_OPENEYE_NAME>
4,6-bis[(2E)-3,7-dimethylocta-2,6-dienyl]-5-(6-hydroxybenzofuran-2-yl)benzene-1,3-diol

>  <PUBCHEM_IUPAC_CAS_NAME>
4,6-bis[(2E)-3,7-dimethylocta-2,6-dienyl]-5-(6-hydroxy-2-benzofuranyl)benzene-1,3-diol

>  <PUBCHEM_IUPAC_NAME>
4,6-bis[(2E)-3,7-dimethylocta-2,6-dienyl]-5-(6-hydroxy-1-benzofuran-2-yl)benzene-1,3-diol

>  <PUBCHEM_IUPAC_SYSTEMATIC_NAME>
4,6-bis[(2E)-3,7-dimethylocta-2,6-dienyl]-5-(6-oxidanyl-1-benzofuran-2-yl)benzene-1,3-diol

>  <PUBCHEM_IUPAC_TRADITIONAL_NAME>
4,6-bis[(2E)-3,7-dimethylocta-2,6-dienyl]-5-(6-hydroxybenzofuran-2-yl)resorcinol

>  <PUBCHEM_IUPAC_INCHI>
InChI=1S/C34H42O4/c1-22(2)9-7-11-24(5)13-17-28-30(36)21-31(37)29(18-14-25(6)12-8-10-23(3)4)34(28)33-19-26-15-16-27(35)20-32(26)38-33/h9-10,13-16,19-21,35-37H,7-8,11-12,17-18H2,1-6H3/b24-13+,25-14+

>  <PUBCHEM_IUPAC_INCHIKEY>
OVUSTWLJYDNBQM-GUJRAXHGSA-N

>  <PUBCHEM_XLOGP3_AA>
10.5

>  <PUBCHEM_EXACT_MASS>
514.308

>  <PUBCHEM_MOLECULAR_FORMULA>
C34H42O4

>  <PUBCHEM_MOLECULAR_WEIGHT>
514.706

>  <PUBCHEM_OPENEYE_CAN_SMILES>
CC(=CCCC(=CCC1=C(C(=C(C=C1O)O)CC=C(C)CCC=C(C)C)C2=CC3=C(O2)C=C(C=C3)O)C)C

>  <PUBCHEM_OPENEYE_ISO_SMILES>
CC(=CCC/C(=C/CC1=C(C(=C(C=C1O)O)C/C=C(\C)/CCC=C(C)C)C2=CC3=C(O2)C=C(C=C3)O)/C)C

>  <PUBCHEM_CACTVS_TPSA>
73.8

>  <PUBCHEM_MONOISOTOPIC_WEIGHT>
514.308

>  <PUBCHEM_TOTAL_CHARGE>
0

>  <PUBCHEM_HEAVY_ATOM_COUNT>
38

>  <PUBCHEM_ATOM_DEF_STEREO_COUNT>
0

>  <PUBCHEM_ATOM_UDEF_STEREO_COUNT>
0

>  <PUBCHEM_BOND_DEF_STEREO_COUNT>
2

>  <PUBCHEM_BOND_UDEF_STEREO_COUNT>
0

>  <PUBCHEM_ISOTOPIC_ATOM_COUNT>
0

>  <PUBCHEM_COMPONENT_COUNT>
1

>  <PUBCHEM_CACTVS_TAUTO_COUNT>
25

>  <PUBCHEM_COORDINATE_TYPE>
1
5
255

>  <PUBCHEM_BONDANNOTATIONS>
1  10  8
1  20  8
10  16  8
11  13  8
12  13  8
16  17  8
17  20  8
17  25  8
20  28  8
25  30  8
28  29  8
29  30  8
5  6  8
5  7  8
6  12  8
7  11  8

$$$$
