441453
 OpenBabel06101807152D

 22 21  0  0  1  0  0  0  0  0999 V2000
    3.4030   -1.8450    0.0000 O   0  0  0  0  0  0  0  0  0  0  0  0
    2.5369    0.6550    0.0000 O   0  0  0  0  0  0  0  0  0  0  0  0
    3.4030    2.1550    0.0000 O   0  0  0  0  0  0  0  0  0  0  0  0
    6.0010   -0.3450    0.0000 O   0  0  0  0  0  0  0  0  0  0  0  0
    7.7331    0.6550    0.0000 O   0  0  0  0  0  0  0  0  0  0  0  0
    6.8671    2.1550    0.0000 O   0  0  0  0  0  0  0  0  0  0  0  0
    5.1350    1.1550    0.0000 N   0  0  0  0  0  0  0  0  0  0  0  0
    4.2690    0.6550    0.0000 C   0  0  1  0  0  0  0  0  0  0  0  0
    4.2690   -0.3450    0.0000 C   0  0  0  0  0  0  0  0  0  0  0  0
    3.4030   -0.8450    0.0000 C   0  0  0  0  0  0  0  0  0  0  0  0
    3.4030    1.1550    0.0000 C   0  0  0  0  0  0  0  0  0  0  0  0
    6.0010    0.6550    0.0000 C   0  0  0  0  0  0  0  0  0  0  0  0
    6.8671    1.1550    0.0000 C   0  0  0  0  0  0  0  0  0  0  0  0
    4.2690    1.2750    0.0000 H   0  0  0  0  0  0  0  0  0  0  0  0
    4.4810   -0.9276    0.0000 H   0  0  0  0  0  0  0  0  0  0  0  0
    4.8796   -0.2373    0.0000 H   0  0  0  0  0  0  0  0  0  0  0  0
    3.1909   -0.2624    0.0000 H   0  0  0  0  0  0  0  0  0  0  0  0
    2.7924   -0.9527    0.0000 H   0  0  0  0  0  0  0  0  0  0  0  0
    5.1350    1.7750    0.0000 H   0  0  0  0  0  0  0  0  0  0  0  0
    2.8660   -2.1550    0.0000 H   0  0  0  0  0  0  0  0  0  0  0  0
    2.0000    0.9650    0.0000 H   0  0  0  0  0  0  0  0  0  0  0  0
    8.2700    0.9650    0.0000 H   0  0  0  0  0  0  0  0  0  0  0  0
  1 10  1  0  0  0  0
  1 20  1  0  0  0  0
  2 11  1  0  0  0  0
  2 21  1  0  0  0  0
  3 11  2  0  0  0  0
  4 12  2  0  0  0  0
  5 13  1  0  0  0  0
  5 22  1  0  0  0  0
  6 13  2  0  0  0  0
  7 12  1  0  0  0  0
  7 19  1  0  0  0  0
  8  7  1  0  0  0  0
  8  9  1  0  0  0  0
  8 11  1  0  0  0  0
  8 14  1  6  0  0  0
  9 10  1  0  0  0  0
  9 15  1  0  0  0  0
  9 16  1  0  0  0  0
 10 17  1  0  0  0  0
 10 18  1  0  0  0  0
 12 13  1  0  0  0  0
M  END
>  <PUBCHEM_COMPOUND_CID>
441453

>  <PUBCHEM_COMPOUND_CANONICALIZED>
1

>  <PUBCHEM_CACTVS_COMPLEXITY>
225

>  <PUBCHEM_CACTVS_HBOND_ACCEPTOR>
6

>  <PUBCHEM_CACTVS_HBOND_DONOR>
4

>  <PUBCHEM_CACTVS_ROTATABLE_BOND>
5

>  <PUBCHEM_CACTVS_SUBSKEYS>
AAADccBiOAAAAAAAAAAAAAAAAAAAAAAAAAAAAAAAAAAAAAAAAAAAHgAQCAAACCjhgAYACALAAgAIAAGQGAIAAAAAAAAAAIHIAAACEBAAACAEQAAGFgCQAABCAAAAAAAAAAAAAAAAAAAAAAAAAAAAAAAAAA==

>  <PUBCHEM_IUPAC_OPENEYE_NAME>
(2S)-4-hydroxy-2-(oxaloamino)butanoic acid

>  <PUBCHEM_IUPAC_CAS_NAME>
(2S)-4-hydroxy-2-(oxaloamino)butanoic acid

>  <PUBCHEM_IUPAC_NAME>
(2S)-4-hydroxy-2-(oxaloamino)butanoic acid

>  <PUBCHEM_IUPAC_SYSTEMATIC_NAME>
(2S)-2-(carboxycarbonylamino)-4-oxidanyl-butanoic acid

>  <PUBCHEM_IUPAC_TRADITIONAL_NAME>
(2S)-4-hydroxy-2-(oxaloamino)butyric acid

>  <PUBCHEM_IUPAC_INCHI>
InChI=1S/C6H9NO6/c8-2-1-3(5(10)11)7-4(9)6(12)13/h3,8H,1-2H2,(H,7,9)(H,10,11)(H,12,13)/t3-/m0/s1

>  <PUBCHEM_IUPAC_INCHIKEY>
DSGLBKHWTOFZAT-VKHMYHEASA-N

>  <PUBCHEM_XLOGP3_AA>
-1.2

>  <PUBCHEM_EXACT_MASS>
191.043

>  <PUBCHEM_MOLECULAR_FORMULA>
C6H9NO6

>  <PUBCHEM_MOLECULAR_WEIGHT>
191.139

>  <PUBCHEM_OPENEYE_CAN_SMILES>
C(CO)C(C(=O)O)NC(=O)C(=O)O

>  <PUBCHEM_OPENEYE_ISO_SMILES>
C(CO)[C@@H](C(=O)O)NC(=O)C(=O)O

>  <PUBCHEM_CACTVS_TPSA>
124

>  <PUBCHEM_MONOISOTOPIC_WEIGHT>
191.043

>  <PUBCHEM_TOTAL_CHARGE>
0

>  <PUBCHEM_HEAVY_ATOM_COUNT>
13

>  <PUBCHEM_ATOM_DEF_STEREO_COUNT>
1

>  <PUBCHEM_ATOM_UDEF_STEREO_COUNT>
0

>  <PUBCHEM_BOND_DEF_STEREO_COUNT>
0

>  <PUBCHEM_BOND_UDEF_STEREO_COUNT>
0

>  <PUBCHEM_ISOTOPIC_ATOM_COUNT>
0

>  <PUBCHEM_COMPONENT_COUNT>
1

>  <PUBCHEM_CACTVS_TAUTO_COUNT>
2

>  <PUBCHEM_COORDINATE_TYPE>
1
5
255

>  <PUBCHEM_BONDANNOTATIONS>
8  7  5

$$$$
