44184105
 OpenBabel06101807152D

116122  0  0  1  0  0  0  0  0999 V2000
   11.1972    0.5724    0.0000 O   0  0  0  0  0  0  0  0  0  0  0  0
   11.1972   -1.4276    0.0000 O   0  0  0  0  0  0  0  0  0  0  0  0
    9.4651    0.5724    0.0000 O   0  0  0  0  0  0  0  0  0  0  0  0
   10.3312   -2.9276    0.0000 O   0  0  0  0  0  0  0  0  0  0  0  0
   12.0632    3.0724    0.0000 O   0  0  0  0  0  0  0  0  0  0  0  0
    9.4651   -2.4276    0.0000 O   0  0  0  0  0  0  0  0  0  0  0  0
    7.7331   -1.4276    0.0000 O   0  0  0  0  0  0  0  0  0  0  0  0
    9.4651    1.5724    0.0000 O   0  0  0  0  0  0  0  0  0  0  0  0
   12.9292    1.5724    0.0000 O   0  0  0  0  0  0  0  0  0  0  0  0
    9.4651    3.5724    0.0000 O   0  0  0  0  0  0  0  0  0  0  0  0
   12.9292   -2.4276    0.0000 O   0  0  0  0  0  0  0  0  0  0  0  0
   12.9292   -4.4276    0.0000 O   0  0  0  0  0  0  0  0  0  0  0  0
   11.1972   -5.4276    0.0000 O   0  0  0  0  0  0  0  0  0  0  0  0
    7.7331    1.5724    0.0000 O   0  0  0  0  0  0  0  0  0  0  0  0
    8.5991   -3.9276    0.0000 O   0  0  0  0  0  0  0  0  0  0  0  0
   10.3312    5.0724    0.0000 O   0  0  0  0  0  0  0  0  0  0  0  0
   15.5273    2.0724    0.0000 O   0  0  0  0  0  0  0  0  0  0  0  0
   12.9292    3.5724    0.0000 O   0  0  0  0  0  0  0  0  0  0  0  0
    7.7331   -5.4276    0.0000 O   0  0  0  0  0  0  0  0  0  0  0  0
   13.7735    5.1039    0.0000 O   0  0  0  0  0  0  0  0  0  0  0  0
   17.3133    5.1175    0.0000 O   0  0  0  0  0  0  0  0  0  0  0  0
   16.3933   -1.4276    0.0000 O   0  0  0  0  0  0  0  0  0  0  0  0
   14.6613   -2.4276    0.0000 O   0  0  0  0  0  0  0  0  0  0  0  0
    2.5369   -4.4276    0.0000 O   0  0  0  0  0  0  0  0  0  0  0  0
    2.5369   -2.4276    0.0000 O   0  0  0  0  0  0  0  0  0  0  0  0
   10.3312   -0.9276    0.0000 C   0  0  1  0  0  0  0  0  0  0  0  0
   10.3312    0.0725    0.0000 C   0  0  2  0  0  0  0  0  0  0  0  0
    9.4651   -1.4276    0.0000 C   0  0  2  0  0  0  0  0  0  0  0  0
    8.5991   -0.9276    0.0000 C   0  0  1  0  0  0  0  0  0  0  0  0
   11.1972    1.5724    0.0000 C   0  0  2  0  0  0  0  0  0  0  0  0
    8.5991    0.0725    0.0000 C   0  0  1  0  0  0  0  0  0  0  0  0
   10.3312    2.0724    0.0000 C   0  0  2  0  0  0  0  0  0  0  0  0
   11.1972   -2.4276    0.0000 C   0  0  2  0  0  0  0  0  0  0  0  0
   10.3312    3.0724    0.0000 C   0  0  1  0  0  0  0  0  0  0  0  0
   12.0632   -2.9276    0.0000 C   0  0  1  0  0  0  0  0  0  0  0  0
   12.0632    2.0724    0.0000 C   0  0  1  0  0  0  0  0  0  0  0  0
   12.0632   -3.9276    0.0000 C   0  0  2  0  0  0  0  0  0  0  0  0
   11.1972    3.5724    0.0000 C   0  0  1  0  0  0  0  0  0  0  0  0
   11.1972   -4.4276    0.0000 C   0  0  1  0  0  0  0  0  0  0  0  0
   10.3312   -3.9276    0.0000 C   0  0  1  0  0  0  0  0  0  0  0  0
    7.7331    0.5724    0.0000 C   0  0  0  0  0  0  0  0  0  0  0  0
   11.1972    4.5724    0.0000 C   0  0  0  0  0  0  0  0  0  0  0  0
    9.4651   -4.4276    0.0000 C   0  0  0  0  0  0  0  0  0  0  0  0
   13.7953    2.0724    0.0000 C   0  0  0  0  0  0  0  0  0  0  0  0
   14.6613    1.5724    0.0000 C   0  0  0  0  0  0  0  0  0  0  0  0
   13.7953    3.0724    0.0000 C   0  0  0  0  0  0  0  0  0  0  0  0
    7.7331   -4.4276    0.0000 C   0  0  0  0  0  0  0  0  0  0  0  0
   14.6613    3.5724    0.0000 C   0  0  0  0  0  0  0  0  0  0  0  0
   14.6613    0.5724    0.0000 C   0  0  0  0  0  0  0  0  0  0  0  0
   15.5273    3.0724    0.0000 C   0  0  0  0  0  0  0  0  0  0  0  0
   14.6452    4.6140    0.0000 C   0  0  0  0  0  0  0  0  0  0  0  0
    6.8671   -3.9276    0.0000 C   0  0  0  0  0  0  0  0  0  0  0  0
   16.4373    3.5793    0.0000 C   0  0  0  0  0  0  0  0  0  0  0  0
   15.5273    0.0725    0.0000 C   0  0  0  0  0  0  0  0  0  0  0  0
   13.7953    0.0725    0.0000 C   0  0  0  0  0  0  0  0  0  0  0  0
   15.5433    5.1417    0.0000 C   0  0  0  0  0  0  0  0  0  0  0  0
   16.4453    4.6209    0.0000 C   0  0  0  0  0  0  0  0  0  0  0  0
   15.5273   -0.9276    0.0000 C   0  0  0  0  0  0  0  0  0  0  0  0
   13.7953   -0.9276    0.0000 C   0  0  0  0  0  0  0  0  0  0  0  0
    6.0010   -4.4276    0.0000 C   0  0  0  0  0  0  0  0  0  0  0  0
   14.6613   -1.4276    0.0000 C   0  0  0  0  0  0  0  0  0  0  0  0
    5.1350   -3.9276    0.0000 C   0  0  0  0  0  0  0  0  0  0  0  0
    4.2690   -4.4276    0.0000 C   0  0  0  0  0  0  0  0  0  0  0  0
    5.1350   -2.9276    0.0000 C   0  0  0  0  0  0  0  0  0  0  0  0
    3.4030   -3.9276    0.0000 C   0  0  0  0  0  0  0  0  0  0  0  0
    4.2690   -2.4276    0.0000 C   0  0  0  0  0  0  0  0  0  0  0  0
    3.4030   -2.9276    0.0000 C   0  0  0  0  0  0  0  0  0  0  0  0
    2.5369   -5.4276    0.0000 C   0  0  0  0  0  0  0  0  0  0  0  0
   10.8681   -0.6176    0.0000 H   0  0  0  0  0  0  0  0  0  0  0  0
   10.3312    0.6924    0.0000 H   0  0  0  0  0  0  0  0  0  0  0  0
   10.0021   -1.7376    0.0000 H   0  0  0  0  0  0  0  0  0  0  0  0
    8.5991   -1.5476    0.0000 H   0  0  0  0  0  0  0  0  0  0  0  0
   10.6603    1.2624    0.0000 H   0  0  0  0  0  0  0  0  0  0  0  0
    8.5991    0.6924    0.0000 H   0  0  0  0  0  0  0  0  0  0  0  0
    9.7942    2.3824    0.0000 H   0  0  0  0  0  0  0  0  0  0  0  0
   10.6603   -2.1176    0.0000 H   0  0  0  0  0  0  0  0  0  0  0  0
   10.3312    3.6924    0.0000 H   0  0  0  0  0  0  0  0  0  0  0  0
   12.6002   -3.2376    0.0000 H   0  0  0  0  0  0  0  0  0  0  0  0
   12.0632    1.4524    0.0000 H   0  0  0  0  0  0  0  0  0  0  0  0
   12.0632   -4.5476    0.0000 H   0  0  0  0  0  0  0  0  0  0  0  0
   11.7341    3.8824    0.0000 H   0  0  0  0  0  0  0  0  0  0  0  0
   10.6603   -4.7376    0.0000 H   0  0  0  0  0  0  0  0  0  0  0  0
    9.7942   -3.6176    0.0000 H   0  0  0  0  0  0  0  0  0  0  0  0
    7.1225    0.6801    0.0000 H   0  0  0  0  0  0  0  0  0  0  0  0
    7.5210   -0.0102    0.0000 H   0  0  0  0  0  0  0  0  0  0  0  0
    8.9282   -2.7376    0.0000 H   0  0  0  0  0  0  0  0  0  0  0  0
   11.8078    4.4648    0.0000 H   0  0  0  0  0  0  0  0  0  0  0  0
   11.4092    5.1551    0.0000 H   0  0  0  0  0  0  0  0  0  0  0  0
    9.0666   -4.9025    0.0000 H   0  0  0  0  0  0  0  0  0  0  0  0
    9.8637   -4.9025    0.0000 H   0  0  0  0  0  0  0  0  0  0  0  0
    7.1962   -1.1176    0.0000 H   0  0  0  0  0  0  0  0  0  0  0  0
    8.9282    1.8824    0.0000 H   0  0  0  0  0  0  0  0  0  0  0  0
    9.4651    4.1924    0.0000 H   0  0  0  0  0  0  0  0  0  0  0  0
   13.4662   -2.7376    0.0000 H   0  0  0  0  0  0  0  0  0  0  0  0
   12.9292   -5.0476    0.0000 H   0  0  0  0  0  0  0  0  0  0  0  0
   10.6603   -5.7376    0.0000 H   0  0  0  0  0  0  0  0  0  0  0  0
    7.1962    1.8824    0.0000 H   0  0  0  0  0  0  0  0  0  0  0  0
   10.3312    5.6924    0.0000 H   0  0  0  0  0  0  0  0  0  0  0  0
    6.8671   -3.3076    0.0000 H   0  0  0  0  0  0  0  0  0  0  0  0
   16.9706    3.2631    0.0000 H   0  0  0  0  0  0  0  0  0  0  0  0
   16.0643    0.3824    0.0000 H   0  0  0  0  0  0  0  0  0  0  0  0
   13.2583    0.3824    0.0000 H   0  0  0  0  0  0  0  0  0  0  0  0
   15.5409    5.7617    0.0000 H   0  0  0  0  0  0  0  0  0  0  0  0
   13.2583   -1.2376    0.0000 H   0  0  0  0  0  0  0  0  0  0  0  0
    6.0010   -5.0476    0.0000 H   0  0  0  0  0  0  0  0  0  0  0  0
   13.7663    5.7239    0.0000 H   0  0  0  0  0  0  0  0  0  0  0  0
   17.3157    5.7376    0.0000 H   0  0  0  0  0  0  0  0  0  0  0  0
   16.9303   -1.1176    0.0000 H   0  0  0  0  0  0  0  0  0  0  0  0
   15.1982   -2.7376    0.0000 H   0  0  0  0  0  0  0  0  0  0  0  0
    4.2690   -5.0476    0.0000 H   0  0  0  0  0  0  0  0  0  0  0  0
    5.6720   -2.6176    0.0000 H   0  0  0  0  0  0  0  0  0  0  0  0
    4.2690   -1.8076    0.0000 H   0  0  0  0  0  0  0  0  0  0  0  0
    2.0000   -2.7376    0.0000 H   0  0  0  0  0  0  0  0  0  0  0  0
    1.9169   -5.4276    0.0000 H   0  0  0  0  0  0  0  0  0  0  0  0
    2.5369   -6.0476    0.0000 H   0  0  0  0  0  0  0  0  0  0  0  0
    3.1569   -5.4276    0.0000 H   0  0  0  0  0  0  0  0  0  0  0  0
  3 27  1  0  0  0  0
  3 31  1  0  0  0  0
  4 33  1  0  0  0  0
  4 40  1  0  0  0  0
  5 36  1  0  0  0  0
  5 38  1  0  0  0  0
  6 86  1  0  0  0  0
  7 91  1  0  0  0  0
  8 92  1  0  0  0  0
  9 44  1  0  0  0  0
 10 93  1  0  0  0  0
 11 94  1  0  0  0  0
 12 95  1  0  0  0  0
 13 96  1  0  0  0  0
 14 41  1  0  0  0  0
 14 97  1  0  0  0  0
 15 43  1  0  0  0  0
 15 47  1  0  0  0  0
 16 42  1  0  0  0  0
 16 98  1  0  0  0  0
 17 45  1  0  0  0  0
 17 50  1  0  0  0  0
 18 46  2  0  0  0  0
 19 47  2  0  0  0  0
 20 51  1  0  0  0  0
 20106  1  0  0  0  0
 21 57  1  0  0  0  0
 21107  1  0  0  0  0
 22 58  1  0  0  0  0
 22108  1  0  0  0  0
 23 61  1  0  0  0  0
 23109  1  0  0  0  0
 24 65  1  0  0  0  0
 24 68  1  0  0  0  0
 25 67  1  0  0  0  0
 25113  1  0  0  0  0
 26  2  1  0  0  0  0
 26 27  1  6  0  0  0
 26 69  1  0  0  0  0
 27  1  1  0  0  0  0
 27 70  1  6  0  0  0
 28  6  1  0  0  0  0
 28 26  1  1  0  0  0
 28 71  1  0  0  0  0
 29  7  1  0  0  0  0
 29 28  1  6  0  0  0
 29 72  1  0  0  0  0
 30  1  1  0  0  0  0
 30 32  1  6  0  0  0
 30 73  1  0  0  0  0
 31 29  1  6  0  0  0
 31 41  1  0  0  0  0
 31 74  1  0  0  0  0
 32  8  1  0  0  0  0
 32 34  1  1  0  0  0
 32 75  1  0  0  0  0
 33  2  1  0  0  0  0
 33 35  1  6  0  0  0
 33 76  1  0  0  0  0
 34 10  1  0  0  0  0
 34 38  1  6  0  0  0
 34 77  1  0  0  0  0
 35 11  1  0  0  0  0
 35 37  1  6  0  0  0
 35 78  1  0  0  0  0
 36  9  1  0  0  0  0
 36 30  1  1  0  0  0
 36 79  1  0  0  0  0
 37 12  1  0  0  0  0
 37 39  1  1  0  0  0
 37 80  1  0  0  0  0
 38 42  1  0  0  0  0
 38 81  1  6  0  0  0
 39 13  1  0  0  0  0
 39 40  1  6  0  0  0
 39 82  1  0  0  0  0
 40 43  1  0  0  0  0
 40 83  1  6  0  0  0
 41 84  1  0  0  0  0
 41 85  1  0  0  0  0
 42 87  1  0  0  0  0
 42 88  1  0  0  0  0
 43 89  1  0  0  0  0
 43 90  1  0  0  0  0
 44 45  2  0  0  0  0
 44 46  1  0  0  0  0
 45 49  1  0  0  0  0
 46 48  1  0  0  0  0
 47 52  1  0  0  0  0
 48 50  1  0  0  0  0
 48 51  2  0  0  0  0
 49 54  2  0  0  0  0
 49 55  1  0  0  0  0
 50 53  2  0  0  0  0
 51 56  1  0  0  0  0
 52 60  2  0  0  0  0
 52 99  1  0  0  0  0
 53 57  1  0  0  0  0
 53100  1  0  0  0  0
 54 58  1  0  0  0  0
 54101  1  0  0  0  0
 55 59  2  0  0  0  0
 55102  1  0  0  0  0
 56 57  2  0  0  0  0
 56103  1  0  0  0  0
 58 61  2  0  0  0  0
 59 61  1  0  0  0  0
 59104  1  0  0  0  0
 60 62  1  0  0  0  0
 60105  1  0  0  0  0
 62 63  2  0  0  0  0
 62 64  1  0  0  0  0
 63 65  1  0  0  0  0
 63110  1  0  0  0  0
 64 66  2  0  0  0  0
 64111  1  0  0  0  0
 65 67  2  0  0  0  0
 66 67  1  0  0  0  0
 66112  1  0  0  0  0
 68114  1  0  0  0  0
 68115  1  0  0  0  0
 68116  1  0  0  0  0
M  END
>  <PUBCHEM_COMPOUND_CID>
44184105

>  <PUBCHEM_COMPOUND_CANONICALIZED>
1

>  <PUBCHEM_CACTVS_COMPLEXITY>
1750

>  <PUBCHEM_CACTVS_HBOND_ACCEPTOR>
25

>  <PUBCHEM_CACTVS_HBOND_DONOR>
14

>  <PUBCHEM_CACTVS_ROTATABLE_BOND>
15

>  <PUBCHEM_CACTVS_SUBSKEYS>
AAADcfB8PgAAAAAAAAAAAAAAAAAAAAAAAAA0aNECAAAAAACBUAAAGgAACAAADBSwmAMyDoAABgCIAqDSCAICCAAkIAAIiAFGiMgdNzaGNR6ieWOl4BUPuYfI7LzOIAABCAAIQABAAAIQABCAAAAAAAAAAA==

>  <PUBCHEM_IUPAC_OPENEYE_NAME>
[(2R,3S,4S,5R,6S)-6-[(2S,3R,4S,5S,6R)-2-[(2S,3R,4S,5S,6R)-2-[2-(3,4-dihydroxyphenyl)-5,7-dihydroxy-4-oxo-chromen-3-yl]oxy-4,5-dihydroxy-6-(hydroxymethyl)tetrahydropyran-3-yl]oxy-4,5-dihydroxy-6-(hydroxymethyl)tetrahydropyran-3-yl]oxy-3,4,5-trihydroxy-tetrahydropyran-2-yl]methyl (E)-3-(4-hydroxy-3-methoxy-phenyl)prop-2-enoate

>  <PUBCHEM_IUPAC_CAS_NAME>
(E)-3-(4-hydroxy-3-methoxyphenyl)-2-propenoic acid [(2R,3S,4S,5R,6S)-6-[[(2S,3R,4S,5S,6R)-2-[[(2S,3R,4S,5S,6R)-2-[[2-(3,4-dihydroxyphenyl)-5,7-dihydroxy-4-oxo-1-benzopyran-3-yl]oxy]-4,5-dihydroxy-6-(hydroxymethyl)-3-oxanyl]oxy]-4,5-dihydroxy-6-(hydroxymethyl)-3-oxanyl]oxy]-3,4,5-trihydroxy-2-oxanyl]methyl ester

>  <PUBCHEM_IUPAC_NAME>
[(2R,3S,4S,5R,6S)-6-[(2S,3R,4S,5S,6R)-2-[(2S,3R,4S,5S,6R)-2-[2-(3,4-dihydroxyphenyl)-5,7-dihydroxy-4-oxochromen-3-yl]oxy-4,5-dihydroxy-6-(hydroxymethyl)oxan-3-yl]oxy-4,5-dihydroxy-6-(hydroxymethyl)oxan-3-yl]oxy-3,4,5-trihydroxyoxan-2-yl]methyl (E)-3-(4-hydroxy-3-methoxyphenyl)prop-2-enoate

>  <PUBCHEM_IUPAC_SYSTEMATIC_NAME>
[(2R,3S,4S,5R,6S)-6-[(2S,3R,4S,5S,6R)-2-[(2S,3R,4S,5S,6R)-2-[2-[3,4-bis(oxidanyl)phenyl]-5,7-bis(oxidanyl)-4-oxidanylidene-chromen-3-yl]oxy-6-(hydroxymethyl)-4,5-bis(oxidanyl)oxan-3-yl]oxy-6-(hydroxymethyl)-4,5-bis(oxidanyl)oxan-3-yl]oxy-3,4,5-tris(oxidanyl)oxan-2-yl]methyl (E)-3-(3-methoxy-4-oxidanyl-phenyl)prop-2-enoate

>  <PUBCHEM_IUPAC_TRADITIONAL_NAME>
(E)-3-(4-hydroxy-3-methoxy-phenyl)acrylic acid [(2R,3S,4S,5R,6S)-6-[(2S,3R,4S,5S,6R)-2-[(2S,3R,4S,5S,6R)-2-[2-(3,4-dihydroxyphenyl)-5,7-dihydroxy-4-keto-chromen-3-yl]oxy-4,5-dihydroxy-6-methylol-tetrahydropyran-3-yl]oxy-4,5-dihydroxy-6-methylol-tetrahydropyran-3-yl]oxy-3,4,5-trihydroxy-tetrahydropyran-2-yl]methyl ester

>  <PUBCHEM_IUPAC_INCHI>
InChI=1S/C43H48O25/c1-60-22-8-15(2-5-19(22)48)3-7-27(51)61-14-26-31(54)33(56)36(59)41(65-26)67-39-34(57)29(52)25(13-45)64-43(39)68-40-35(58)30(53)24(12-44)63-42(40)66-38-32(55)28-21(50)10-17(46)11-23(28)62-37(38)16-4-6-18(47)20(49)9-16/h2-11,24-26,29-31,33-36,39-50,52-54,56-59H,12-14H2,1H3/b7-3+/t24-,25-,26-,29-,30-,31-,33+,34+,35+,36-,39-,40-,41+,42+,43+/m1/s1

>  <PUBCHEM_IUPAC_INCHIKEY>
AZGSHRDQKXNYSL-BTTGAAGASA-N

>  <PUBCHEM_XLOGP3_AA>
-1.1

>  <PUBCHEM_EXACT_MASS>
964.248

>  <PUBCHEM_MOLECULAR_FORMULA>
C43H48O25

>  <PUBCHEM_MOLECULAR_WEIGHT>
964.832

>  <PUBCHEM_OPENEYE_CAN_SMILES>
COC1=C(C=CC(=C1)C=CC(=O)OCC2C(C(C(C(O2)OC3C(C(C(OC3OC4C(C(C(OC4OC5=C(OC6=CC(=CC(=C6C5=O)O)O)C7=CC(=C(C=C7)O)O)CO)O)O)CO)O)O)O)O)O)O

>  <PUBCHEM_OPENEYE_ISO_SMILES>
COC1=C(C=CC(=C1)/C=C/C(=O)OC[C@@H]2[C@H]([C@@H]([C@H]([C@@H](O2)O[C@@H]3[C@H]([C@@H]([C@H](O[C@H]3O[C@@H]4[C@H]([C@@H]([C@H](O[C@H]4OC5=C(OC6=CC(=CC(=C6C5=O)O)O)C7=CC(=C(C=C7)O)O)CO)O)O)CO)O)O)O)O)O)O

>  <PUBCHEM_CACTVS_TPSA>
400

>  <PUBCHEM_MONOISOTOPIC_WEIGHT>
964.248

>  <PUBCHEM_TOTAL_CHARGE>
0

>  <PUBCHEM_HEAVY_ATOM_COUNT>
68

>  <PUBCHEM_ATOM_DEF_STEREO_COUNT>
15

>  <PUBCHEM_ATOM_UDEF_STEREO_COUNT>
0

>  <PUBCHEM_BOND_DEF_STEREO_COUNT>
1

>  <PUBCHEM_BOND_UDEF_STEREO_COUNT>
0

>  <PUBCHEM_ISOTOPIC_ATOM_COUNT>
0

>  <PUBCHEM_COMPONENT_COUNT>
1

>  <PUBCHEM_CACTVS_TAUTO_COUNT>
810

>  <PUBCHEM_COORDINATE_TYPE>
1
5
255

>  <PUBCHEM_BONDANNOTATIONS>
27  1  5
30  1  6
34  10  6
35  11  6
37  12  5
39  13  6
17  45  8
17  50  8
26  2  6
33  2  5
31  41  5
38  42  5
40  43  5
44  45  8
44  46  8
46  48  8
48  50  8
48  51  8
49  54  8
49  55  8
50  53  8
51  56  8
53  57  8
54  58  8
55  59  8
56  57  8
58  61  8
59  61  8
28  6  5
62  63  8
62  64  8
63  65  8
64  66  8
65  67  8
66  67  8
29  7  6
32  8  5
36  9  5

$$$$
