441908
 OpenBabel06101807152D

154163  0  0  1  0  0  0  0  0999 V2000
    7.4216    0.7012    0.0000 O   0  0  0  0  0  0  0  0  0  0  0  0
    8.2623    4.2737    0.0000 O   0  0  0  0  0  0  0  0  0  0  0  0
    4.6173    3.2427    0.0000 O   0  0  0  0  0  0  0  0  0  0  0  0
   13.6382   -1.9193    0.0000 O   0  0  0  0  0  0  0  0  0  0  0  0
    4.0132    0.7754    0.0000 O   0  0  0  0  0  0  0  0  0  0  0  0
   14.5042   -0.4193    0.0000 O   0  0  0  0  0  0  0  0  0  0  0  0
    5.4717    4.7493    0.0000 O   0  0  0  0  0  0  0  0  0  0  0  0
   15.3703   -2.9193    0.0000 O   0  0  0  0  0  0  0  0  0  0  0  0
   17.1023   -1.9193    0.0000 O   0  0  0  0  0  0  0  0  0  0  0  0
   17.1023    0.0807    0.0000 O   0  0  0  0  0  0  0  0  0  0  0  0
   13.6382   -2.9193    0.0000 O   0  0  0  0  0  0  0  0  0  0  0  0
   15.3703   -4.9193    0.0000 O   0  0  0  0  0  0  0  0  0  0  0  0
   16.2363    1.5807    0.0000 O   0  0  0  0  0  0  0  0  0  0  0  0
   13.6382   -5.9193    0.0000 O   0  0  0  0  0  0  0  0  0  0  0  0
   11.9062   -4.9193    0.0000 O   0  0  0  0  0  0  0  0  0  0  0  0
   18.8344    1.0807    0.0000 O   0  0  0  0  0  0  0  0  0  0  0  0
   18.8344    3.0807    0.0000 O   0  0  0  0  0  0  0  0  0  0  0  0
   11.0401   -3.4193    0.0000 O   0  0  0  0  0  0  0  0  0  0  0  0
   17.1023    4.0807    0.0000 O   0  0  0  0  0  0  0  0  0  0  0  0
   15.3703    4.0807    0.0000 O   0  0  0  0  0  0  0  0  0  0  0  0
    8.2862    1.2045    0.0000 C   0  0  1  0  0  0  0  0  0  0  0  0
    9.1503    1.7078    0.0000 C   0  0  2  0  0  0  0  0  0  0  0  0
   10.0182    1.2112    0.0000 C   0  0  1  0  0  0  0  0  0  0  0  0
    8.2900    0.2045    0.0000 C   0  0  1  0  0  0  0  0  0  0  0  0
   10.0221    0.2112    0.0000 C   0  0  2  0  0  0  0  0  0  0  0  0
    7.3742    1.7078    0.0000 C   0  0  1  0  0  0  0  0  0  0  0  0
    9.1580   -0.2921    0.0000 C   0  0  0  0  0  0  0  0  0  0  0  0
   10.9181   -0.3200    0.0000 C   0  0  2  0  0  0  0  0  0  0  0  0
    7.3622    2.7494    0.0000 C   0  0  1  0  0  0  0  0  0  0  0  0
    9.1623    2.7494    0.0000 C   0  0  0  0  0  0  0  0  0  0  0  0
   10.9101    1.7493    0.0000 C   0  0  0  0  0  0  0  0  0  0  0  0
   11.8222    0.1973    0.0000 C   0  0  1  0  0  0  0  0  0  0  0  0
    8.2623    3.2737    0.0000 C   0  0  2  0  0  0  0  0  0  0  0  0
    6.4496    1.1402    0.0000 C   0  0  0  0  0  0  0  0  0  0  0  0
    9.7901    2.4764    0.0000 C   0  0  0  0  0  0  0  0  0  0  0  0
   11.8181    1.2389    0.0000 C   0  0  0  0  0  0  0  0  0  0  0  0
   10.3566    2.1522    0.0000 C   0  0  0  0  0  0  0  0  0  0  0  0
    6.4247    3.2955    0.0000 C   0  0  0  0  0  0  0  0  0  0  0  0
   10.8972   -1.4048    0.0000 C   0  0  0  0  0  0  0  0  0  0  0  0
   12.7680   -0.3343    0.0000 C   0  0  0  0  0  0  0  0  0  0  0  0
    5.4997    1.6645    0.0000 C   0  0  1  0  0  0  0  0  0  0  0  0
    5.4871    2.7494    0.0000 C   0  0  1  0  0  0  0  0  0  0  0  0
   10.0501   -0.8167    0.0000 C   0  0  0  0  0  0  0  0  0  0  0  0
    7.3506    3.7493    0.0000 C   0  0  0  0  0  0  0  0  0  0  0  0
   12.7722   -1.4193    0.0000 C   0  0  2  0  0  0  0  0  0  0  0  0
   11.8305   -1.9581    0.0000 C   0  0  0  0  0  0  0  0  0  0  0  0
   13.2613    0.5356    0.0000 C   0  0  0  0  0  0  0  0  0  0  0  0
   13.7680   -0.3266    0.0000 C   0  0  0  0  0  0  0  0  0  0  0  0
    5.0131    0.7908    0.0000 C   0  0  0  0  0  0  0  0  0  0  0  0
    4.4998    1.6491    0.0000 C   0  0  0  0  0  0  0  0  0  0  0  0
   14.5042   -1.4193    0.0000 C   0  0  2  0  0  0  0  0  0  0  0  0
    4.6096    4.2427    0.0000 C   0  0  0  0  0  0  0  0  0  0  0  0
   15.3703   -1.9193    0.0000 C   0  0  1  0  0  0  0  0  0  0  0  0
    3.7397    4.7360    0.0000 C   0  0  0  0  0  0  0  0  0  0  0  0
   16.2363   -1.4193    0.0000 C   0  0  2  0  0  0  0  0  0  0  0  0
   15.3703    0.0807    0.0000 C   0  0  0  0  0  0  0  0  0  0  0  0
   16.2363   -0.4193    0.0000 C   0  0  2  0  0  0  0  0  0  0  0  0
    3.7320    5.7360    0.0000 C   0  0  0  0  0  0  0  0  0  0  0  0
    2.8776    4.2293    0.0000 C   0  0  0  0  0  0  0  0  0  0  0  0
   14.5042   -3.4193    0.0000 C   0  0  2  0  0  0  0  0  0  0  0  0
    2.8622    6.2293    0.0000 C   0  0  0  0  0  0  0  0  0  0  0  0
    2.0077    4.7226    0.0000 C   0  0  0  0  0  0  0  0  0  0  0  0
   14.5042   -4.4193    0.0000 C   0  0  1  0  0  0  0  0  0  0  0  0
    2.0000    5.7226    0.0000 C   0  0  0  0  0  0  0  0  0  0  0  0
   17.1023    1.0807    0.0000 C   0  0  2  0  0  0  0  0  0  0  0  0
   13.6382   -4.9193    0.0000 C   0  0  2  0  0  0  0  0  0  0  0  0
   12.7722   -3.4193    0.0000 C   0  0  1  0  0  0  0  0  0  0  0  0
   12.7722   -4.4193    0.0000 C   0  0  1  0  0  0  0  0  0  0  0  0
   17.9683    1.5807    0.0000 C   0  0  1  0  0  0  0  0  0  0  0  0
   17.9683    2.5807    0.0000 C   0  0  2  0  0  0  0  0  0  0  0  0
   11.9062   -2.9193    0.0000 C   0  0  0  0  0  0  0  0  0  0  0  0
   16.2363    2.5807    0.0000 C   0  0  1  0  0  0  0  0  0  0  0  0
   17.1023    3.0807    0.0000 C   0  0  1  0  0  0  0  0  0  0  0  0
   15.3703    3.0807    0.0000 C   0  0  0  0  0  0  0  0  0  0  0  0
    7.8680   -0.5333    0.0000 H   0  0  0  0  0  0  0  0  0  0  0  0
   10.7598    0.6334    0.0000 H   0  0  0  0  0  0  0  0  0  0  0  0
    8.1037    2.1441    0.0000 H   0  0  0  0  0  0  0  0  0  0  0  0
    8.7613   -0.7686    0.0000 H   0  0  0  0  0  0  0  0  0  0  0  0
    9.5584   -0.7656    0.0000 H   0  0  0  0  0  0  0  0  0  0  0  0
    9.7719    2.6362    0.0000 H   0  0  0  0  0  0  0  0  0  0  0  0
    9.3781    3.3306    0.0000 H   0  0  0  0  0  0  0  0  0  0  0  0
   11.3019    2.2298    0.0000 H   0  0  0  0  0  0  0  0  0  0  0  0
   10.5037    2.2175    0.0000 H   0  0  0  0  0  0  0  0  0  0  0  0
   12.5550    0.6280    0.0000 H   0  0  0  0  0  0  0  0  0  0  0  0
    8.7998    3.5827    0.0000 H   0  0  0  0  0  0  0  0  0  0  0  0
    6.0615    0.6567    0.0000 H   0  0  0  0  0  0  0  0  0  0  0  0
    6.8596    0.6751    0.0000 H   0  0  0  0  0  0  0  0  0  0  0  0
   10.2666    2.0797    0.0000 H   0  0  0  0  0  0  0  0  0  0  0  0
   10.1868    2.9528    0.0000 H   0  0  0  0  0  0  0  0  0  0  0  0
    9.3136    2.8730    0.0000 H   0  0  0  0  0  0  0  0  0  0  0  0
   12.4294    1.1352    0.0000 H   0  0  0  0  0  0  0  0  0  0  0  0
   12.0249    1.8234    0.0000 H   0  0  0  0  0  0  0  0  0  0  0  0
   10.9400    1.9424    0.0000 H   0  0  0  0  0  0  0  0  0  0  0  0
   10.5664    2.7356    0.0000 H   0  0  0  0  0  0  0  0  0  0  0  0
    9.7732    2.3620    0.0000 H   0  0  0  0  0  0  0  0  0  0  0  0
    6.8238    3.7700    0.0000 H   0  0  0  0  0  0  0  0  0  0  0  0
    6.0255    3.7700    0.0000 H   0  0  0  0  0  0  0  0  0  0  0  0
   10.2885   -1.2870    0.0000 H   0  0  0  0  0  0  0  0  0  0  0  0
   10.6769   -1.9844    0.0000 H   0  0  0  0  0  0  0  0  0  0  0  0
    4.9532    2.4342    0.0000 H   0  0  0  0  0  0  0  0  0  0  0  0
    9.7422   -0.2786    0.0000 H   0  0  0  0  0  0  0  0  0  0  0  0
    9.5120   -1.1246    0.0000 H   0  0  0  0  0  0  0  0  0  0  0  0
   10.3581   -1.3548    0.0000 H   0  0  0  0  0  0  0  0  0  0  0  0
    7.9706    3.7565    0.0000 H   0  0  0  0  0  0  0  0  0  0  0  0
    7.3435    4.3693    0.0000 H   0  0  0  0  0  0  0  0  0  0  0  0
    6.7307    3.7422    0.0000 H   0  0  0  0  0  0  0  0  0  0  0  0
   13.3085   -1.1082    0.0000 H   0  0  0  0  0  0  0  0  0  0  0  0
   11.4277   -2.4295    0.0000 H   0  0  0  0  0  0  0  0  0  0  0  0
   12.2259   -2.4356    0.0000 H   0  0  0  0  0  0  0  0  0  0  0  0
    8.7992    4.5837    0.0000 H   0  0  0  0  0  0  0  0  0  0  0  0
   13.8006    0.2297    0.0000 H   0  0  0  0  0  0  0  0  0  0  0  0
   13.5672    1.0749    0.0000 H   0  0  0  0  0  0  0  0  0  0  0  0
   12.7220    0.8414    0.0000 H   0  0  0  0  0  0  0  0  0  0  0  0
   13.7727   -0.9466    0.0000 H   0  0  0  0  0  0  0  0  0  0  0  0
   14.3880   -0.3218    0.0000 H   0  0  0  0  0  0  0  0  0  0  0  0
   13.7632    0.2934    0.0000 H   0  0  0  0  0  0  0  0  0  0  0  0
    4.4714    1.0925    0.0000 H   0  0  0  0  0  0  0  0  0  0  0  0
    4.7114    0.2492    0.0000 H   0  0  0  0  0  0  0  0  0  0  0  0
    5.5547    0.4892    0.0000 H   0  0  0  0  0  0  0  0  0  0  0  0
    4.1816    2.1812    0.0000 H   0  0  0  0  0  0  0  0  0  0  0  0
   13.9673   -1.1093    0.0000 H   0  0  0  0  0  0  0  0  0  0  0  0
   15.9072   -2.2293    0.0000 H   0  0  0  0  0  0  0  0  0  0  0  0
   16.7732   -1.1093    0.0000 H   0  0  0  0  0  0  0  0  0  0  0  0
   15.7688    0.5557    0.0000 H   0  0  0  0  0  0  0  0  0  0  0  0
   14.9717    0.5557    0.0000 H   0  0  0  0  0  0  0  0  0  0  0  0
   16.2363    0.2007    0.0000 H   0  0  0  0  0  0  0  0  0  0  0  0
    4.2665    6.0501    0.0000 H   0  0  0  0  0  0  0  0  0  0  0  0
    2.8823    3.6094    0.0000 H   0  0  0  0  0  0  0  0  0  0  0  0
   14.5042   -2.7993    0.0000 H   0  0  0  0  0  0  0  0  0  0  0  0
   17.6392   -1.6093    0.0000 H   0  0  0  0  0  0  0  0  0  0  0  0
    2.8574    6.8492    0.0000 H   0  0  0  0  0  0  0  0  0  0  0  0
    1.4732    4.4085    0.0000 H   0  0  0  0  0  0  0  0  0  0  0  0
   14.5042   -5.0393    0.0000 H   0  0  0  0  0  0  0  0  0  0  0  0
    1.4607    6.0285    0.0000 H   0  0  0  0  0  0  0  0  0  0  0  0
   16.5654    0.7707    0.0000 H   0  0  0  0  0  0  0  0  0  0  0  0
   13.1013   -5.2293    0.0000 H   0  0  0  0  0  0  0  0  0  0  0  0
   12.7722   -2.7993    0.0000 H   0  0  0  0  0  0  0  0  0  0  0  0
   12.2352   -4.1093    0.0000 H   0  0  0  0  0  0  0  0  0  0  0  0
   17.9683    0.9607    0.0000 H   0  0  0  0  0  0  0  0  0  0  0  0
   15.9072   -4.6093    0.0000 H   0  0  0  0  0  0  0  0  0  0  0  0
   17.9683    3.2007    0.0000 H   0  0  0  0  0  0  0  0  0  0  0  0
   12.3047   -2.4443    0.0000 H   0  0  0  0  0  0  0  0  0  0  0  0
   11.5076   -2.4443    0.0000 H   0  0  0  0  0  0  0  0  0  0  0  0
   15.6993    2.2707    0.0000 H   0  0  0  0  0  0  0  0  0  0  0  0
   16.5654    3.3907    0.0000 H   0  0  0  0  0  0  0  0  0  0  0  0
   14.1751   -6.2293    0.0000 H   0  0  0  0  0  0  0  0  0  0  0  0
   11.9062   -5.5393    0.0000 H   0  0  0  0  0  0  0  0  0  0  0  0
   19.3713    1.3907    0.0000 H   0  0  0  0  0  0  0  0  0  0  0  0
   14.7597    3.1884    0.0000 H   0  0  0  0  0  0  0  0  0  0  0  0
   15.1582    2.4981    0.0000 H   0  0  0  0  0  0  0  0  0  0  0  0
   18.8344    3.7007    0.0000 H   0  0  0  0  0  0  0  0  0  0  0  0
   10.5032   -3.1093    0.0000 H   0  0  0  0  0  0  0  0  0  0  0  0
   17.6392    4.3907    0.0000 H   0  0  0  0  0  0  0  0  0  0  0  0
   14.8333    4.3907    0.0000 H   0  0  0  0  0  0  0  0  0  0  0  0
  1 24  1  0  0  0  0
  2110  1  0  0  0  0
  3 52  1  0  0  0  0
  5 50  2  0  0  0  0
  6 51  1  0  0  0  0
  6 56  1  0  0  0  0
  7 52  2  0  0  0  0
  9130  1  0  0  0  0
 11 60  1  0  0  0  0
 11 67  1  0  0  0  0
 12140  1  0  0  0  0
 13 65  1  0  0  0  0
 13 72  1  0  0  0  0
 14146  1  0  0  0  0
 15147  1  0  0  0  0
 16148  1  0  0  0  0
 17151  1  0  0  0  0
 18 71  1  0  0  0  0
 18152  1  0  0  0  0
 19153  1  0  0  0  0
 20 74  1  0  0  0  0
 20154  1  0  0  0  0
 21  1  1  0  0  0  0
 21 22  1  1  0  0  0
 22 23  1  1  0  0  0
 22 30  1  0  0  0  0
 22 35  1  0  0  0  0
 23 25  1  1  0  0  0
 23 31  1  0  0  0  0
 23 37  1  0  0  0  0
 24 21  1  6  0  0  0
 24 27  1  0  0  0  0
 24 75  1  0  0  0  0
 25 27  1  0  0  0  0
 25 28  1  1  0  0  0
 25 76  1  0  0  0  0
 26 21  1  6  0  0  0
 26 34  1  0  0  0  0
 26 77  1  0  0  0  0
 27 78  1  0  0  0  0
 27 79  1  0  0  0  0
 28 32  1  1  0  0  0
 28 39  1  0  0  0  0
 28 43  1  0  0  0  0
 29 26  1  1  0  0  0
 29 38  1  0  0  0  0
 29 44  1  0  0  0  0
 30 33  1  0  0  0  0
 30 80  1  0  0  0  0
 30 81  1  0  0  0  0
 31 36  1  0  0  0  0
 31 82  1  0  0  0  0
 31 83  1  0  0  0  0
 32 36  1  0  0  0  0
 32 40  1  0  0  0  0
 32 84  1  6  0  0  0
 33  2  1  0  0  0  0
 33 29  1  6  0  0  0
 33 85  1  0  0  0  0
 34 41  1  0  0  0  0
 34 86  1  0  0  0  0
 34 87  1  0  0  0  0
 35 88  1  0  0  0  0
 35 89  1  0  0  0  0
 35 90  1  0  0  0  0
 36 91  1  0  0  0  0
 36 92  1  0  0  0  0
 37 93  1  0  0  0  0
 37 94  1  0  0  0  0
 37 95  1  0  0  0  0
 38 42  1  0  0  0  0
 38 96  1  0  0  0  0
 38 97  1  0  0  0  0
 39 46  1  0  0  0  0
 39 98  1  0  0  0  0
 39 99  1  0  0  0  0
 40 45  1  0  0  0  0
 40 47  1  0  0  0  0
 40 48  1  0  0  0  0
 41 42  1  6  0  0  0
 41 49  1  0  0  0  0
 41 50  1  0  0  0  0
 42  3  1  0  0  0  0
 42100  1  6  0  0  0
 43101  1  0  0  0  0
 43102  1  0  0  0  0
 43103  1  0  0  0  0
 44104  1  0  0  0  0
 44105  1  0  0  0  0
 44106  1  0  0  0  0
 45  4  1  0  0  0  0
 45 46  1  0  0  0  0
 45107  1  6  0  0  0
 46108  1  0  0  0  0
 46109  1  0  0  0  0
 47111  1  0  0  0  0
 47112  1  0  0  0  0
 47113  1  0  0  0  0
 48114  1  0  0  0  0
 48115  1  0  0  0  0
 48116  1  0  0  0  0
 49117  1  0  0  0  0
 49118  1  0  0  0  0
 49119  1  0  0  0  0
 50120  1  0  0  0  0
 51  4  1  0  0  0  0
 51 53  1  1  0  0  0
 51121  1  0  0  0  0
 52 54  1  0  0  0  0
 53  8  1  0  0  0  0
 53 55  1  1  0  0  0
 53122  1  0  0  0  0
 54 58  2  0  0  0  0
 54 59  1  0  0  0  0
 55  9  1  0  0  0  0
 55 57  1  6  0  0  0
 55123  1  0  0  0  0
 56 57  1  0  0  0  0
 56124  1  0  0  0  0
 56125  1  0  0  0  0
 57 10  1  0  0  0  0
 57126  1  1  0  0  0
 58 61  1  0  0  0  0
 58127  1  0  0  0  0
 59 62  2  0  0  0  0
 59128  1  0  0  0  0
 60  8  1  0  0  0  0
 60 63  1  6  0  0  0
 60129  1  0  0  0  0
 61 64  2  0  0  0  0
 61131  1  0  0  0  0
 62 64  1  0  0  0  0
 62132  1  0  0  0  0
 63 12  1  0  0  0  0
 63 66  1  6  0  0  0
 63133  1  0  0  0  0
 64134  1  0  0  0  0
 65 10  1  0  0  0  0
 65 69  1  1  0  0  0
 65135  1  0  0  0  0
 66 14  1  0  0  0  0
 66 68  1  1  0  0  0
 66136  1  0  0  0  0
 67 68  1  6  0  0  0
 67 71  1  0  0  0  0
 67137  1  0  0  0  0
 68 15  1  0  0  0  0
 68138  1  1  0  0  0
 69 16  1  0  0  0  0
 69 70  1  6  0  0  0
 69139  1  0  0  0  0
 70 17  1  0  0  0  0
 70 73  1  6  0  0  0
 70141  1  0  0  0  0
 71142  1  0  0  0  0
 71143  1  0  0  0  0
 72 73  1  1  0  0  0
 72 74  1  0  0  0  0
 72144  1  0  0  0  0
 73 19  1  0  0  0  0
 73145  1  6  0  0  0
 74149  1  0  0  0  0
 74150  1  0  0  0  0
M  END
>  <PUBCHEM_COMPOUND_CID>
441908

>  <PUBCHEM_COMPOUND_CANONICALIZED>
1

>  <PUBCHEM_CACTVS_COMPLEXITY>
2060

>  <PUBCHEM_CACTVS_HBOND_ACCEPTOR>
20

>  <PUBCHEM_CACTVS_HBOND_DONOR>
10

>  <PUBCHEM_CACTVS_ROTATABLE_BOND>
12

>  <PUBCHEM_CACTVS_SUBSKEYS>
AAADcfB8PgAAAAAAAAAAAAAAEgAAAAAAAAA0aNGDBIAAAADBAAAAGgAACAAAD1SwmAMyCIAABgCIAijSiAACAAAkAAAIiAEACMgZNjaANRiicQAl4AEPqYfI7PzPgAAAAAAAAADCAAYAADAAAAAAAAAAAA==

>  <PUBCHEM_IUPAC_INCHI>
InChI=1S/C54H80O20/c1-48(2)29-13-16-52(6)30(17-34-54(74-34)31-18-49(3,24-57)35(71-44(66)25-11-9-8-10-12-25)20-51(31,5)32(58)19-53(52,54)7)50(29,4)15-14-33(48)72-47-43(73-46-42(65)40(63)37(60)27(22-56)69-46)38(61)28(23-67-47)70-45-41(64)39(62)36(59)26(21-55)68-45/h8-12,24,26-43,45-47,55-56,58-65H,13-23H2,1-7H3/t26-,27-,28+,29+,30-,31-,32+,33+,34-,35+,36-,37-,38+,39+,40+,41-,42-,43-,45+,46+,47+,49+,50+,51+,52-,53+,54-/m1/s1

>  <PUBCHEM_IUPAC_INCHIKEY>
RTMPAEPNXWUCGZ-ITFDNFFVSA-N

>  <PUBCHEM_XLOGP3_AA>
2

>  <PUBCHEM_EXACT_MASS>
1048.524

>  <PUBCHEM_MOLECULAR_FORMULA>
C54H80O20

>  <PUBCHEM_MOLECULAR_WEIGHT>
1049.214

>  <PUBCHEM_OPENEYE_CAN_SMILES>
CC1(C2CCC3(C(C2(CCC1OC4C(C(C(CO4)OC5C(C(C(C(O5)CO)O)O)O)O)OC6C(C(C(C(O6)CO)O)O)O)C)CC7C8(C3(CC(C9(C8CC(C(C9)OC(=O)C1=CC=CC=C1)(C)C=O)C)O)C)O7)C)C

>  <PUBCHEM_OPENEYE_ISO_SMILES>
C[C@]12CC[C@@H](C([C@@H]1CC[C@@]3([C@@H]2C[C@@H]4[C@]5([C@]3(C[C@@H]([C@@]6([C@H]5C[C@@]([C@H](C6)OC(=O)C7=CC=CC=C7)(C)C=O)C)O)C)O4)C)(C)C)O[C@H]8[C@@H]([C@H]([C@H](CO8)O[C@H]9[C@@H]([C@H]([C@@H]([C@H](O9)CO)O)O)O)O)O[C@H]1[C@@H]([C@H]([C@@H]([C@H](O1)CO)O)O)O

>  <PUBCHEM_CACTVS_TPSA>
314

>  <PUBCHEM_MONOISOTOPIC_WEIGHT>
1048.524

>  <PUBCHEM_TOTAL_CHARGE>
0

>  <PUBCHEM_HEAVY_ATOM_COUNT>
74

>  <PUBCHEM_ATOM_DEF_STEREO_COUNT>
27

>  <PUBCHEM_ATOM_UDEF_STEREO_COUNT>
0

>  <PUBCHEM_BOND_DEF_STEREO_COUNT>
0

>  <PUBCHEM_BOND_UDEF_STEREO_COUNT>
0

>  <PUBCHEM_ISOTOPIC_ATOM_COUNT>
0

>  <PUBCHEM_COMPONENT_COUNT>
1

>  <PUBCHEM_CACTVS_TAUTO_COUNT>
1

>  <PUBCHEM_COORDINATE_TYPE>
1
5
255

>  <PUBCHEM_BONDANNOTATIONS>
21  1  5
57  10  6
65  10  6
63  12  6
66  14  5
68  15  6
69  16  5
70  17  6
73  19  5
33  2  5
22  35  6
23  37  5
24  75  6
25  76  6
26  77  5
28  43  5
29  44  5
42  3  5
32  84  6
45  4  5
51  4  6
41  49  6
54  58  8
54  59  8
58  61  8
59  62  8
61  64  8
62  64  8
67  71  5
72  74  6
53  8  5
60  8  5
55  9  6

$$$$
