441930
 OpenBabel06101807152D

160168  0  0  1  0  0  0  0  0999 V2000
   11.1972   -1.6941    0.0000 O   0  0  0  0  0  0  0  0  0  0  0  0
   13.9913    5.3844    0.0000 O   0  0  0  0  0  0  0  0  0  0  0  0
   12.9510    7.5853    0.0000 O   0  0  0  0  0  0  0  0  0  0  0  0
   13.9453    6.7704    0.0000 O   0  0  0  0  0  0  0  0  0  0  0  0
    9.4651   -1.6941    0.0000 O   0  0  0  0  0  0  0  0  0  0  0  0
   11.1972   -3.6941    0.0000 O   0  0  0  0  0  0  0  0  0  0  0  0
    9.4651   -4.6941    0.0000 O   0  0  0  0  0  0  0  0  0  0  0  0
    7.7331   -3.6941    0.0000 O   0  0  0  0  0  0  0  0  0  0  0  0
    7.7331   -0.6941    0.0000 O   0  0  0  0  0  0  0  0  0  0  0  0
    8.5991   -5.1941    0.0000 O   0  0  0  0  0  0  0  0  0  0  0  0
    6.0010   -0.6941    0.0000 O   0  0  0  0  0  0  0  0  0  0  0  0
    6.0010   -4.6941    0.0000 O   0  0  0  0  0  0  0  0  0  0  0  0
    6.0010   -6.6941    0.0000 O   0  0  0  0  0  0  0  0  0  0  0  0
    7.7331   -7.6941    0.0000 O   0  0  0  0  0  0  0  0  0  0  0  0
    7.7331    1.3059    0.0000 O   0  0  0  0  0  0  0  0  0  0  0  0
    6.0010    2.3059    0.0000 O   0  0  0  0  0  0  0  0  0  0  0  0
    4.2690    1.3059    0.0000 O   0  0  0  0  0  0  0  0  0  0  0  0
    5.1350   -5.1941    0.0000 O   0  0  0  0  0  0  0  0  0  0  0  0
    4.2690   -7.6941    0.0000 O   0  0  0  0  0  0  0  0  0  0  0  0
    2.5369   -6.6941    0.0000 O   0  0  0  0  0  0  0  0  0  0  0  0
    2.5369   -4.6941    0.0000 O   0  0  0  0  0  0  0  0  0  0  0  0
   12.0983    3.0061    0.0000 C   0  0  2  0  0  0  0  0  0  0  0  0
   11.2342    2.5027    0.0000 C   0  0  1  0  0  0  0  0  0  0  0  0
   11.2221    1.4612    0.0000 C   0  0  2  0  0  0  0  0  0  0  0  0
   12.0944    4.0061    0.0000 C   0  0  1  0  0  0  0  0  0  0  0  0
   12.1222    0.9369    0.0000 C   0  0  1  0  0  0  0  0  0  0  0  0
   13.0102    2.5027    0.0000 C   0  0  0  0  0  0  0  0  0  0  0  0
   13.0222    1.4612    0.0000 C   0  0  0  0  0  0  0  0  0  0  0  0
   12.1347   -0.1480    0.0000 C   0  0  0  0  0  0  0  0  0  0  0  0
   11.2264    4.5027    0.0000 C   0  0  0  0  0  0  0  0  0  0  0  0
   11.2064    5.5442    0.0000 C   0  0  1  0  0  0  0  0  0  0  0  0
   10.3662    2.9994    0.0000 C   0  0  0  0  0  0  0  0  0  0  0  0
   10.2722    0.9369    0.0000 C   0  0  0  0  0  0  0  0  0  0  0  0
   13.0024    4.5164    0.0000 C   0  0  0  0  0  0  0  0  0  0  0  0
   12.1024    6.0754    0.0000 C   0  0  1  0  0  0  0  0  0  0  0  0
   13.0065    5.5580    0.0000 C   0  0  2  0  0  0  0  0  0  0  0  0
   13.0824    3.1835    0.0000 C   0  0  0  0  0  0  0  0  0  0  0  0
   11.1972   -0.6941    0.0000 C   0  0  2  0  0  0  0  0  0  0  0  0
   10.3580    1.9645    0.0000 C   0  0  0  0  0  0  0  0  0  0  0  0
   10.3624    3.9994    0.0000 C   0  0  0  0  0  0  0  0  0  0  0  0
   10.2597   -0.1480    0.0000 C   0  0  0  0  0  0  0  0  0  0  0  0
   13.0799    3.8362    0.0000 C   0  0  0  0  0  0  0  0  0  0  0  0
   10.2524    6.0611    0.0000 C   0  0  0  0  0  0  0  0  0  0  0  0
   12.1066    7.1604    0.0000 C   0  0  0  0  0  0  0  0  0  0  0  0
   10.2315    7.1459    0.0000 C   0  0  0  0  0  0  0  0  0  0  0  0
   13.1347   -0.1403    0.0000 C   0  0  0  0  0  0  0  0  0  0  0  0
   12.6414   -1.0102    0.0000 C   0  0  0  0  0  0  0  0  0  0  0  0
   11.1648    7.6992    0.0000 C   0  0  0  0  0  0  0  0  0  0  0  0
   12.9626    6.5854    0.0000 C   0  0  0  0  0  0  0  0  0  0  0  0
    9.7182    8.0041    0.0000 C   0  0  0  0  0  0  0  0  0  0  0  0
    9.2317    7.1305    0.0000 C   0  0  0  0  0  0  0  0  0  0  0  0
   10.3312   -2.1941    0.0000 C   0  0  2  0  0  0  0  0  0  0  0  0
   10.3312   -3.1941    0.0000 C   0  0  1  0  0  0  0  0  0  0  0  0
    9.4651   -3.6941    0.0000 C   0  0  2  0  0  0  0  0  0  0  0  0
    8.5991   -2.1941    0.0000 C   0  0  1  0  0  0  0  0  0  0  0  0
    8.5991   -3.1941    0.0000 C   0  0  1  0  0  0  0  0  0  0  0  0
    7.7331   -1.6941    0.0000 C   0  0  0  0  0  0  0  0  0  0  0  0
    7.7331   -4.6941    0.0000 C   0  0  2  0  0  0  0  0  0  0  0  0
    6.8671   -5.1941    0.0000 C   0  0  1  0  0  0  0  0  0  0  0  0
    6.8671   -0.1941    0.0000 C   0  0  2  0  0  0  0  0  0  0  0  0
    6.8671   -6.1941    0.0000 C   0  0  1  0  0  0  0  0  0  0  0  0
    8.5991   -6.1941    0.0000 C   0  0  2  0  0  0  0  0  0  0  0  0
    7.7331   -6.6941    0.0000 C   0  0  2  0  0  0  0  0  0  0  0  0
    6.8671    0.8059    0.0000 C   0  0  1  0  0  0  0  0  0  0  0  0
    6.0010    1.3059    0.0000 C   0  0  2  0  0  0  0  0  0  0  0  0
    9.4651   -6.6941    0.0000 C   0  0  0  0  0  0  0  0  0  0  0  0
    5.1350   -0.1941    0.0000 C   0  0  0  0  0  0  0  0  0  0  0  0
    5.1350    0.8059    0.0000 C   0  0  1  0  0  0  0  0  0  0  0  0
    5.1350   -6.1941    0.0000 C   0  0  2  0  0  0  0  0  0  0  0  0
    4.2690   -6.6941    0.0000 C   0  0  1  0  0  0  0  0  0  0  0  0
    3.4030   -6.1941    0.0000 C   0  0  1  0  0  0  0  0  0  0  0  0
    4.2690   -4.6941    0.0000 C   0  0  2  0  0  0  0  0  0  0  0  0
    3.4030   -5.1941    0.0000 C   0  0  2  0  0  0  0  0  0  0  0  0
    4.2690   -3.6941    0.0000 C   0  0  0  0  0  0  0  0  0  0  0  0
   11.9686    2.0749    0.0000 H   0  0  0  0  0  0  0  0  0  0  0  0
   12.8616    0.5176    0.0000 H   0  0  0  0  0  0  0  0  0  0  0  0
   13.6222    2.4037    0.0000 H   0  0  0  0  0  0  0  0  0  0  0  0
   13.2125    3.0888    0.0000 H   0  0  0  0  0  0  0  0  0  0  0  0
   13.2380    0.8800    0.0000 H   0  0  0  0  0  0  0  0  0  0  0  0
   13.6318    1.5743    0.0000 H   0  0  0  0  0  0  0  0  0  0  0  0
   10.4803    5.1023    0.0000 H   0  0  0  0  0  0  0  0  0  0  0  0
    9.7552    3.1047    0.0000 H   0  0  0  0  0  0  0  0  0  0  0  0
   10.1564    2.4160    0.0000 H   0  0  0  0  0  0  0  0  0  0  0  0
   10.0699    1.5230    0.0000 H   0  0  0  0  0  0  0  0  0  0  0  0
    9.6602    0.8379    0.0000 H   0  0  0  0  0  0  0  0  0  0  0  0
   13.2092    3.9319    0.0000 H   0  0  0  0  0  0  0  0  0  0  0  0
   13.6137    4.6202    0.0000 H   0  0  0  0  0  0  0  0  0  0  0  0
   13.2174    6.1411    0.0000 H   0  0  0  0  0  0  0  0  0  0  0  0
   13.1924    2.5734    0.0000 H   0  0  0  0  0  0  0  0  0  0  0  0
   13.6925    3.2936    0.0000 H   0  0  0  0  0  0  0  0  0  0  0  0
   12.9724    3.7937    0.0000 H   0  0  0  0  0  0  0  0  0  0  0  0
   11.7347   -1.0031    0.0000 H   0  0  0  0  0  0  0  0  0  0  0  0
   10.6701    2.5003    0.0000 H   0  0  0  0  0  0  0  0  0  0  0  0
    9.8223    2.2766    0.0000 H   0  0  0  0  0  0  0  0  0  0  0  0
   10.0460    1.4288    0.0000 H   0  0  0  0  0  0  0  0  0  0  0  0
    9.8242    4.3073    0.0000 H   0  0  0  0  0  0  0  0  0  0  0  0
    9.6501   -0.0349    0.0000 H   0  0  0  0  0  0  0  0  0  0  0  0
   10.0439   -0.7293    0.0000 H   0  0  0  0  0  0  0  0  0  0  0  0
   12.9746    3.2252    0.0000 H   0  0  0  0  0  0  0  0  0  0  0  0
   13.6909    3.7309    0.0000 H   0  0  0  0  0  0  0  0  0  0  0  0
   13.1852    4.4472    0.0000 H   0  0  0  0  0  0  0  0  0  0  0  0
    9.6397    6.1554    0.0000 H   0  0  0  0  0  0  0  0  0  0  0  0
   10.0547    5.4735    0.0000 H   0  0  0  0  0  0  0  0  0  0  0  0
   12.7170    7.0519    0.0000 H   0  0  0  0  0  0  0  0  0  0  0  0
   12.3179    7.7433    0.0000 H   0  0  0  0  0  0  0  0  0  0  0  0
   13.1395   -0.7603    0.0000 H   0  0  0  0  0  0  0  0  0  0  0  0
   13.7547   -0.1355    0.0000 H   0  0  0  0  0  0  0  0  0  0  0  0
   13.1299    0.4797    0.0000 H   0  0  0  0  0  0  0  0  0  0  0  0
   12.1069   -1.3243    0.0000 H   0  0  0  0  0  0  0  0  0  0  0  0
   12.9555   -1.5447    0.0000 H   0  0  0  0  0  0  0  0  0  0  0  0
   13.1759   -0.6960    0.0000 H   0  0  0  0  0  0  0  0  0  0  0  0
   11.5603    8.1767    0.0000 H   0  0  0  0  0  0  0  0  0  0  0  0
   10.7621    8.1706    0.0000 H   0  0  0  0  0  0  0  0  0  0  0  0
   14.2033    4.8018    0.0000 H   0  0  0  0  0  0  0  0  0  0  0  0
    9.2221    7.7504    0.0000 H   0  0  0  0  0  0  0  0  0  0  0  0
    8.6117    7.1209    0.0000 H   0  0  0  0  0  0  0  0  0  0  0  0
   10.2503    8.3224    0.0000 H   0  0  0  0  0  0  0  0  0  0  0  0
    9.4000    8.5362    0.0000 H   0  0  0  0  0  0  0  0  0  0  0  0
    9.1862    7.6859    0.0000 H   0  0  0  0  0  0  0  0  0  0  0  0
    9.2412    6.5106    0.0000 H   0  0  0  0  0  0  0  0  0  0  0  0
   10.3312   -1.5741    0.0000 H   0  0  0  0  0  0  0  0  0  0  0  0
   13.4843    7.9015    0.0000 H   0  0  0  0  0  0  0  0  0  0  0  0
   10.3312   -3.8141    0.0000 H   0  0  0  0  0  0  0  0  0  0  0  0
    8.9282   -4.0041    0.0000 H   0  0  0  0  0  0  0  0  0  0  0  0
    8.5991   -1.5741    0.0000 H   0  0  0  0  0  0  0  0  0  0  0  0
    8.0622   -2.8841    0.0000 H   0  0  0  0  0  0  0  0  0  0  0  0
   11.7341   -3.3841    0.0000 H   0  0  0  0  0  0  0  0  0  0  0  0
    7.1225   -1.5865    0.0000 H   0  0  0  0  0  0  0  0  0  0  0  0
    7.5210   -2.2767    0.0000 H   0  0  0  0  0  0  0  0  0  0  0  0
   10.0021   -5.0041    0.0000 H   0  0  0  0  0  0  0  0  0  0  0  0
    7.1962   -4.3841    0.0000 H   0  0  0  0  0  0  0  0  0  0  0  0
    7.4292   -4.5741    0.0000 H   0  0  0  0  0  0  0  0  0  0  0  0
    6.8671   -0.8141    0.0000 H   0  0  0  0  0  0  0  0  0  0  0  0
    6.3301   -5.8841    0.0000 H   0  0  0  0  0  0  0  0  0  0  0  0
    9.1360   -5.8841    0.0000 H   0  0  0  0  0  0  0  0  0  0  0  0
    8.2700   -7.0041    0.0000 H   0  0  0  0  0  0  0  0  0  0  0  0
    7.4040    0.4959    0.0000 H   0  0  0  0  0  0  0  0  0  0  0  0
    6.0010   -4.0741    0.0000 H   0  0  0  0  0  0  0  0  0  0  0  0
    6.5380    1.6159    0.0000 H   0  0  0  0  0  0  0  0  0  0  0  0
    9.1551   -7.2311    0.0000 H   0  0  0  0  0  0  0  0  0  0  0  0
   10.0021   -7.0041    0.0000 H   0  0  0  0  0  0  0  0  0  0  0  0
    9.7751   -6.1572    0.0000 H   0  0  0  0  0  0  0  0  0  0  0  0
    4.5244   -0.0865    0.0000 H   0  0  0  0  0  0  0  0  0  0  0  0
    4.9230   -0.7767    0.0000 H   0  0  0  0  0  0  0  0  0  0  0  0
    5.1350    1.4259    0.0000 H   0  0  0  0  0  0  0  0  0  0  0  0
    7.1962   -8.0041    0.0000 H   0  0  0  0  0  0  0  0  0  0  0  0
    7.7331    1.9259    0.0000 H   0  0  0  0  0  0  0  0  0  0  0  0
    5.1350   -6.8141    0.0000 H   0  0  0  0  0  0  0  0  0  0  0  0
    5.4641    2.6159    0.0000 H   0  0  0  0  0  0  0  0  0  0  0  0
    3.7320   -7.0041    0.0000 H   0  0  0  0  0  0  0  0  0  0  0  0
    3.7320    0.9959    0.0000 H   0  0  0  0  0  0  0  0  0  0  0  0
    2.8660   -5.8841    0.0000 H   0  0  0  0  0  0  0  0  0  0  0  0
    4.8059   -4.3841    0.0000 H   0  0  0  0  0  0  0  0  0  0  0  0
    3.4030   -4.5741    0.0000 H   0  0  0  0  0  0  0  0  0  0  0  0
    3.7320   -8.0041    0.0000 H   0  0  0  0  0  0  0  0  0  0  0  0
    4.8890   -3.6941    0.0000 H   0  0  0  0  0  0  0  0  0  0  0  0
    4.2690   -3.0741    0.0000 H   0  0  0  0  0  0  0  0  0  0  0  0
    3.6490   -3.6941    0.0000 H   0  0  0  0  0  0  0  0  0  0  0  0
    2.0000   -6.3841    0.0000 H   0  0  0  0  0  0  0  0  0  0  0  0
    2.5369   -4.0741    0.0000 H   0  0  0  0  0  0  0  0  0  0  0  0
  2114  1  0  0  0  0
  3 49  1  0  0  0  0
  3122  1  0  0  0  0
  4 49  2  0  0  0  0
  5 52  1  0  0  0  0
  5 55  1  0  0  0  0
  6127  1  0  0  0  0
  7130  1  0  0  0  0
  9 57  1  0  0  0  0
 10 58  1  0  0  0  0
 10 62  1  0  0  0  0
 11 60  1  0  0  0  0
 11 67  1  0  0  0  0
 12138  1  0  0  0  0
 14146  1  0  0  0  0
 15147  1  0  0  0  0
 16149  1  0  0  0  0
 17151  1  0  0  0  0
 18 69  1  0  0  0  0
 18 72  1  0  0  0  0
 19155  1  0  0  0  0
 20159  1  0  0  0  0
 21160  1  0  0  0  0
 22 23  1  1  0  0  0
 22 27  1  0  0  0  0
 22 37  1  0  0  0  0
 23 24  1  1  0  0  0
 23 32  1  0  0  0  0
 23 75  1  0  0  0  0
 24 26  1  1  0  0  0
 24 33  1  0  0  0  0
 24 39  1  0  0  0  0
 25 22  1  1  0  0  0
 25 30  1  0  0  0  0
 25 34  1  0  0  0  0
 25 42  1  0  0  0  0
 26 28  1  0  0  0  0
 26 29  1  0  0  0  0
 26 76  1  6  0  0  0
 27 28  1  0  0  0  0
 27 77  1  0  0  0  0
 27 78  1  0  0  0  0
 28 79  1  0  0  0  0
 28 80  1  0  0  0  0
 29 38  1  0  0  0  0
 29 46  1  0  0  0  0
 29 47  1  0  0  0  0
 30 31  1  0  0  0  0
 30 40  2  0  0  0  0
 31 35  1  1  0  0  0
 31 43  1  0  0  0  0
 31 81  1  0  0  0  0
 32 40  1  0  0  0  0
 32 82  1  0  0  0  0
 32 83  1  0  0  0  0
 33 41  1  0  0  0  0
 33 84  1  0  0  0  0
 33 85  1  0  0  0  0
 34 36  1  0  0  0  0
 34 86  1  0  0  0  0
 34 87  1  0  0  0  0
 35 36  1  6  0  0  0
 35 44  1  0  0  0  0
 35 49  1  0  0  0  0
 36  2  1  0  0  0  0
 36 88  1  1  0  0  0
 37 89  1  0  0  0  0
 37 90  1  0  0  0  0
 37 91  1  0  0  0  0
 38  1  1  0  0  0  0
 38 41  1  0  0  0  0
 38 92  1  6  0  0  0
 39 93  1  0  0  0  0
 39 94  1  0  0  0  0
 39 95  1  0  0  0  0
 40 96  1  0  0  0  0
 41 97  1  0  0  0  0
 41 98  1  0  0  0  0
 42 99  1  0  0  0  0
 42100  1  0  0  0  0
 42101  1  0  0  0  0
 43 45  1  0  0  0  0
 43102  1  0  0  0  0
 43103  1  0  0  0  0
 44 48  1  0  0  0  0
 44104  1  0  0  0  0
 44105  1  0  0  0  0
 45 48  1  0  0  0  0
 45 50  1  0  0  0  0
 45 51  1  0  0  0  0
 46106  1  0  0  0  0
 46107  1  0  0  0  0
 46108  1  0  0  0  0
 47109  1  0  0  0  0
 47110  1  0  0  0  0
 47111  1  0  0  0  0
 48112  1  0  0  0  0
 48113  1  0  0  0  0
 50117  1  0  0  0  0
 50118  1  0  0  0  0
 50119  1  0  0  0  0
 51115  1  0  0  0  0
 51116  1  0  0  0  0
 51120  1  0  0  0  0
 52  1  1  0  0  0  0
 52 53  1  6  0  0  0
 52121  1  0  0  0  0
 53  6  1  0  0  0  0
 53 54  1  6  0  0  0
 53123  1  0  0  0  0
 54  7  1  0  0  0  0
 54 56  1  1  0  0  0
 54124  1  0  0  0  0
 55 56  1  6  0  0  0
 55 57  1  0  0  0  0
 55125  1  0  0  0  0
 56  8  1  0  0  0  0
 56126  1  1  0  0  0
 57128  1  0  0  0  0
 57129  1  0  0  0  0
 58  8  1  0  0  0  0
 58 59  1  6  0  0  0
 58131  1  0  0  0  0
 59 12  1  0  0  0  0
 59 61  1  6  0  0  0
 59132  1  0  0  0  0
 60  9  1  0  0  0  0
 60 64  1  1  0  0  0
 60133  1  0  0  0  0
 61 13  1  0  0  0  0
 61 63  1  6  0  0  0
 61134  1  0  0  0  0
 62 63  1  6  0  0  0
 62 66  1  0  0  0  0
 62135  1  0  0  0  0
 63 14  1  0  0  0  0
 63136  1  1  0  0  0
 64 15  1  0  0  0  0
 64 65  1  6  0  0  0
 64137  1  0  0  0  0
 65 16  1  0  0  0  0
 65 68  1  1  0  0  0
 65139  1  0  0  0  0
 66140  1  0  0  0  0
 66141  1  0  0  0  0
 66142  1  0  0  0  0
 67 68  1  0  0  0  0
 67143  1  0  0  0  0
 67144  1  0  0  0  0
 68 17  1  0  0  0  0
 68145  1  6  0  0  0
 69 13  1  0  0  0  0
 69 70  1  1  0  0  0
 69148  1  0  0  0  0
 70 19  1  0  0  0  0
 70 71  1  6  0  0  0
 70150  1  0  0  0  0
 71 20  1  0  0  0  0
 71 73  1  6  0  0  0
 71152  1  0  0  0  0
 72 73  1  1  0  0  0
 72 74  1  0  0  0  0
 72153  1  0  0  0  0
 73 21  1  0  0  0  0
 73154  1  6  0  0  0
 74156  1  0  0  0  0
 74157  1  0  0  0  0
 74158  1  0  0  0  0
M  END
>  <PUBCHEM_COMPOUND_CID>
441930

>  <PUBCHEM_COMPOUND_CANONICALIZED>
1

>  <PUBCHEM_CACTVS_COMPLEXITY>
2060

>  <PUBCHEM_CACTVS_HBOND_ACCEPTOR>
21

>  <PUBCHEM_CACTVS_HBOND_DONOR>
12

>  <PUBCHEM_CACTVS_ROTATABLE_BOND>
10

>  <PUBCHEM_CACTVS_SUBSKEYS>
AAADcfB8PgAAAAAAAAAAAAAAAAAAAAAAAAA0aNGiAAAAAADAAAAAGgAACAAADxSwgAMCCAAABgCIAiDSCAAAAAAgAAAACAEAAAgREBYAAQAiQAAFoAAPAAPI6PyPgAAAAAAAAADAAAYAADAAAAAAAAAAAA==

>  <PUBCHEM_IUPAC_OPENEYE_NAME>
(4aR,5R,6aR,6aS,6bR,8aR,10S,12aR,14bS)-10-[(2R,3R,4R,5S,6R)-5-[(2S,3R,4R,5S,6S)-3,5-dihydroxy-6-methyl-4-[(2S,3R,4R,5R,6S)-3,4,5-trihydroxy-6-methyl-tetrahydropyran-2-yl]oxy-tetrahydropyran-2-yl]oxy-3,4-dihydroxy-6-[[(2S,3R,4S,5R)-3,4,5-trihydroxytetrahydropyran-2-yl]oxymethyl]tetrahydropyran-2-yl]oxy-5-hydroxy-2,2,6a,6b,9,9,12a-heptamethyl-1,3,4,5,6,6a,7,8,8a,10,11,12,13,14b-tetradecahydropicene-4a-carboxylic acid

>  <PUBCHEM_IUPAC_CAS_NAME>
(4aR,5R,6aR,6aS,6bR,8aR,10S,12aR,14bS)-10-[[(2R,3R,4R,5S,6R)-5-[[(2S,3R,4R,5S,6S)-3,5-dihydroxy-6-methyl-4-[[(2S,3R,4R,5R,6S)-3,4,5-trihydroxy-6-methyl-2-oxanyl]oxy]-2-oxanyl]oxy]-3,4-dihydroxy-6-[[(2S,3R,4S,5R)-3,4,5-trihydroxy-2-oxanyl]oxymethyl]-2-oxanyl]oxy]-5-hydroxy-2,2,6a,6b,9,9,12a-heptamethyl-1,3,4,5,6,6a,7,8,8a,10,11,12,13,14b-tetradecahydropicene-4a-carboxylic acid

>  <PUBCHEM_IUPAC_NAME>
(4aR,5R,6aR,6aS,6bR,8aR,10S,12aR,14bS)-10-[(2R,3R,4R,5S,6R)-5-[(2S,3R,4R,5S,6S)-3,5-dihydroxy-6-methyl-4-[(2S,3R,4R,5R,6S)-3,4,5-trihydroxy-6-methyloxan-2-yl]oxyoxan-2-yl]oxy-3,4-dihydroxy-6-[[(2S,3R,4S,5R)-3,4,5-trihydroxyoxan-2-yl]oxymethyl]oxan-2-yl]oxy-5-hydroxy-2,2,6a,6b,9,9,12a-heptamethyl-1,3,4,5,6,6a,7,8,8a,10,11,12,13,14b-tetradecahydropicene-4a-carboxylic acid

>  <PUBCHEM_IUPAC_SYSTEMATIC_NAME>
(4aR,5R,6aR,6aS,6bR,8aR,10S,12aR,14bS)-2,2,6a,6b,9,9,12a-heptamethyl-10-[(2R,3R,4R,5S,6R)-5-[(2S,3R,4R,5S,6S)-6-methyl-4-[(2S,3R,4R,5R,6S)-6-methyl-3,4,5-tris(oxidanyl)oxan-2-yl]oxy-3,5-bis(oxidanyl)oxan-2-yl]oxy-3,4-bis(oxidanyl)-6-[[(2S,3R,4S,5R)-3,4,5-tris(oxidanyl)oxan-2-yl]oxymethyl]oxan-2-yl]oxy-5-oxidanyl-1,3,4,5,6,6a,7,8,8a,10,11,12,13,14b-tetradecahydropicene-4a-carboxylic acid

>  <PUBCHEM_IUPAC_TRADITIONAL_NAME>
(4aR,5R,6aR,6aS,6bR,8aR,10S,12aR,14bS)-10-[(2R,3R,4R,5S,6R)-5-[(2S,3R,4R,5S,6S)-3,5-dihydroxy-6-methyl-4-[(2S,3R,4R,5R,6S)-3,4,5-trihydroxy-6-methyl-tetrahydropyran-2-yl]oxy-tetrahydropyran-2-yl]oxy-3,4-dihydroxy-6-[[(2S,3R,4S,5R)-3,4,5-trihydroxytetrahydropyran-2-yl]oxymethyl]tetrahydropyran-2-yl]oxy-5-hydroxy-2,2,6a,6b,9,9,12a-heptamethyl-1,3,4,5,6,6a,7,8,8a,10,11,12,13,14b-tetradecahydropicene-4a-carboxylic acid

>  <PUBCHEM_IUPAC_INCHI>
InChI=1S/C53H86O21/c1-22-32(56)35(59)38(62)44(69-22)74-42-33(57)23(2)70-46(40(42)64)73-41-27(21-68-43-37(61)34(58)26(54)20-67-43)71-45(39(63)36(41)60)72-31-13-14-50(7)28(49(31,5)6)12-15-51(8)29(50)11-10-24-25-18-48(3,4)16-17-53(25,47(65)66)30(55)19-52(24,51)9/h10,22-23,25-46,54-64H,11-21H2,1-9H3,(H,65,66)/t22-,23-,25-,26+,27+,28-,29+,30+,31-,32-,33-,34-,35+,36+,37+,38+,39+,40+,41+,42+,43-,44-,45-,46-,50-,51+,52+,53+/m0/s1

>  <PUBCHEM_IUPAC_INCHIKEY>
GAMQIEGJRMEAEJ-NIJXBJTFSA-N

>  <PUBCHEM_XLOGP3_AA>
1

>  <PUBCHEM_EXACT_MASS>
1058.566

>  <PUBCHEM_MOLECULAR_FORMULA>
C53H86O21

>  <PUBCHEM_MOLECULAR_WEIGHT>
1059.25

>  <PUBCHEM_OPENEYE_CAN_SMILES>
CC1C(C(C(C(O1)OC2C(C(OC(C2O)OC3C(OC(C(C3O)O)OC4CCC5(C(C4(C)C)CCC6(C5CC=C7C6(CC(C8(C7CC(CC8)(C)C)C(=O)O)O)C)C)C)COC9C(C(C(CO9)O)O)O)C)O)O)O)O

>  <PUBCHEM_OPENEYE_ISO_SMILES>
C[C@H]1[C@@H]([C@H]([C@H]([C@@H](O1)O[C@@H]2[C@H]([C@@H](O[C@H]([C@@H]2O)O[C@@H]3[C@H](O[C@H]([C@@H]([C@H]3O)O)O[C@H]4CC[C@]5([C@H](C4(C)C)CC[C@@]6([C@@H]5CC=C7[C@]6(C[C@H]([C@@]8([C@H]7CC(CC8)(C)C)C(=O)O)O)C)C)C)CO[C@H]9[C@@H]([C@H]([C@@H](CO9)O)O)O)C)O)O)O)O

>  <PUBCHEM_CACTVS_TPSA>
334

>  <PUBCHEM_MONOISOTOPIC_WEIGHT>
1058.566

>  <PUBCHEM_TOTAL_CHARGE>
0

>  <PUBCHEM_HEAVY_ATOM_COUNT>
74

>  <PUBCHEM_ATOM_DEF_STEREO_COUNT>
28

>  <PUBCHEM_ATOM_UDEF_STEREO_COUNT>
0

>  <PUBCHEM_BOND_DEF_STEREO_COUNT>
0

>  <PUBCHEM_BOND_UDEF_STEREO_COUNT>
0

>  <PUBCHEM_ISOTOPIC_ATOM_COUNT>
0

>  <PUBCHEM_COMPONENT_COUNT>
1

>  <PUBCHEM_CACTVS_TAUTO_COUNT>
1

>  <PUBCHEM_COORDINATE_TYPE>
1
5
255

>  <PUBCHEM_BONDANNOTATIONS>
38  1  5
52  1  5
59  12  5
61  13  5
69  13  5
63  14  6
64  15  5
65  16  6
68  17  5
70  19  6
36  2  6
71  20  6
73  21  5
22  37  5
23  75  6
24  39  5
25  42  6
26  76  6
31  81  5
35  49  5
55  57  5
53  6  6
62  66  5
54  7  5
72  74  6
56  8  6
58  8  6
60  9  6

$$$$
