441907
 OpenBabel06101807152D

160169  0  0  1  0  0  0  0  0999 V2000
    7.4216    0.1945    0.0000 O   0  0  0  0  0  0  0  0  0  0  0  0
    8.2623    3.7670    0.0000 O   0  0  0  0  0  0  0  0  0  0  0  0
    4.6173    2.7360    0.0000 O   0  0  0  0  0  0  0  0  0  0  0  0
   13.6382   -2.4259    0.0000 O   0  0  0  0  0  0  0  0  0  0  0  0
   12.7546    0.8911    0.0000 O   0  0  0  0  0  0  0  0  0  0  0  0
    4.0132    0.2688    0.0000 O   0  0  0  0  0  0  0  0  0  0  0  0
   14.5042   -0.9259    0.0000 O   0  0  0  0  0  0  0  0  0  0  0  0
    5.4717    4.2427    0.0000 O   0  0  0  0  0  0  0  0  0  0  0  0
   15.3703   -3.4259    0.0000 O   0  0  0  0  0  0  0  0  0  0  0  0
   17.1023   -2.4259    0.0000 O   0  0  0  0  0  0  0  0  0  0  0  0
   17.1023   -0.4259    0.0000 O   0  0  0  0  0  0  0  0  0  0  0  0
   13.6382   -3.4259    0.0000 O   0  0  0  0  0  0  0  0  0  0  0  0
   15.3703   -5.4259    0.0000 O   0  0  0  0  0  0  0  0  0  0  0  0
   16.2363    1.0741    0.0000 O   0  0  0  0  0  0  0  0  0  0  0  0
   13.6382   -6.4259    0.0000 O   0  0  0  0  0  0  0  0  0  0  0  0
   11.9062   -5.4259    0.0000 O   0  0  0  0  0  0  0  0  0  0  0  0
   18.8344    0.5741    0.0000 O   0  0  0  0  0  0  0  0  0  0  0  0
   18.8344    2.5741    0.0000 O   0  0  0  0  0  0  0  0  0  0  0  0
   11.0401   -3.9259    0.0000 O   0  0  0  0  0  0  0  0  0  0  0  0
   17.1023    3.5741    0.0000 O   0  0  0  0  0  0  0  0  0  0  0  0
   15.3703    3.5741    0.0000 O   0  0  0  0  0  0  0  0  0  0  0  0
    4.5941    5.7360    0.0000 N   0  0  0  0  0  0  0  0  0  0  0  0
    8.2862    0.6978    0.0000 C   0  0  1  0  0  0  0  0  0  0  0  0
    9.1503    1.2012    0.0000 C   0  0  2  0  0  0  0  0  0  0  0  0
   10.0182    0.7045    0.0000 C   0  0  1  0  0  0  0  0  0  0  0  0
    8.2900   -0.3021    0.0000 C   0  0  1  0  0  0  0  0  0  0  0  0
   10.0221   -0.2955    0.0000 C   0  0  2  0  0  0  0  0  0  0  0  0
    7.3742    1.2012    0.0000 C   0  0  1  0  0  0  0  0  0  0  0  0
    9.1580   -0.7988    0.0000 C   0  0  0  0  0  0  0  0  0  0  0  0
   10.9181   -0.8267    0.0000 C   0  0  2  0  0  0  0  0  0  0  0  0
    7.3622    2.2427    0.0000 C   0  0  1  0  0  0  0  0  0  0  0  0
    9.1623    2.2427    0.0000 C   0  0  0  0  0  0  0  0  0  0  0  0
   10.9101    1.2426    0.0000 C   0  0  0  0  0  0  0  0  0  0  0  0
   11.8222   -0.3093    0.0000 C   0  0  1  0  0  0  0  0  0  0  0  0
    8.2623    2.7670    0.0000 C   0  0  2  0  0  0  0  0  0  0  0  0
    6.4496    0.6335    0.0000 C   0  0  0  0  0  0  0  0  0  0  0  0
    9.7901    1.9697    0.0000 C   0  0  0  0  0  0  0  0  0  0  0  0
   11.8181    0.7323    0.0000 C   0  0  0  0  0  0  0  0  0  0  0  0
   10.3566    1.6455    0.0000 C   0  0  0  0  0  0  0  0  0  0  0  0
    6.4247    2.7889    0.0000 C   0  0  0  0  0  0  0  0  0  0  0  0
   12.7680   -0.8409    0.0000 C   0  0  1  0  0  0  0  0  0  0  0  0
   10.8972   -1.9115    0.0000 C   0  0  0  0  0  0  0  0  0  0  0  0
    5.4997    1.1578    0.0000 C   0  0  1  0  0  0  0  0  0  0  0  0
    5.4871    2.2427    0.0000 C   0  0  1  0  0  0  0  0  0  0  0  0
   10.0501   -1.3233    0.0000 C   0  0  0  0  0  0  0  0  0  0  0  0
    7.3506    3.2427    0.0000 C   0  0  0  0  0  0  0  0  0  0  0  0
   12.7722   -1.9259    0.0000 C   0  0  2  0  0  0  0  0  0  0  0  0
   11.8305   -2.4648    0.0000 C   0  0  0  0  0  0  0  0  0  0  0  0
   13.2613    0.0289    0.0000 C   0  0  0  0  0  0  0  0  0  0  0  0
   13.7680   -0.8332    0.0000 C   0  0  0  0  0  0  0  0  0  0  0  0
    5.0131    0.2842    0.0000 C   0  0  0  0  0  0  0  0  0  0  0  0
    4.4998    1.1424    0.0000 C   0  0  0  0  0  0  0  0  0  0  0  0
   14.5042   -1.9259    0.0000 C   0  0  2  0  0  0  0  0  0  0  0  0
    4.6096    3.7360    0.0000 C   0  0  0  0  0  0  0  0  0  0  0  0
   15.3703   -2.4259    0.0000 C   0  0  1  0  0  0  0  0  0  0  0  0
    3.7397    4.2293    0.0000 C   0  0  0  0  0  0  0  0  0  0  0  0
   16.2363   -1.9259    0.0000 C   0  0  2  0  0  0  0  0  0  0  0  0
   15.3703   -0.4259    0.0000 C   0  0  0  0  0  0  0  0  0  0  0  0
   16.2363   -0.9259    0.0000 C   0  0  2  0  0  0  0  0  0  0  0  0
    3.7320    5.2293    0.0000 C   0  0  0  0  0  0  0  0  0  0  0  0
    2.8776    3.7227    0.0000 C   0  0  0  0  0  0  0  0  0  0  0  0
   14.5042   -3.9259    0.0000 C   0  0  2  0  0  0  0  0  0  0  0  0
    2.8622    5.7226    0.0000 C   0  0  0  0  0  0  0  0  0  0  0  0
    2.0077    4.2160    0.0000 C   0  0  0  0  0  0  0  0  0  0  0  0
   14.5042   -4.9259    0.0000 C   0  0  1  0  0  0  0  0  0  0  0  0
    2.0000    5.2160    0.0000 C   0  0  0  0  0  0  0  0  0  0  0  0
   17.1023    0.5741    0.0000 C   0  0  2  0  0  0  0  0  0  0  0  0
   13.6382   -5.4259    0.0000 C   0  0  2  0  0  0  0  0  0  0  0  0
   12.7722   -3.9259    0.0000 C   0  0  1  0  0  0  0  0  0  0  0  0
    4.5864    6.7359    0.0000 C   0  0  0  0  0  0  0  0  0  0  0  0
   12.7722   -4.9259    0.0000 C   0  0  1  0  0  0  0  0  0  0  0  0
   17.9683    1.0741    0.0000 C   0  0  1  0  0  0  0  0  0  0  0  0
   17.9683    2.0741    0.0000 C   0  0  2  0  0  0  0  0  0  0  0  0
   11.9062   -3.4259    0.0000 C   0  0  0  0  0  0  0  0  0  0  0  0
   16.2363    2.0741    0.0000 C   0  0  1  0  0  0  0  0  0  0  0  0
   17.1023    2.5741    0.0000 C   0  0  1  0  0  0  0  0  0  0  0  0
   15.3703    2.5741    0.0000 C   0  0  0  0  0  0  0  0  0  0  0  0
    7.8680   -1.0400    0.0000 H   0  0  0  0  0  0  0  0  0  0  0  0
   10.7598    0.1267    0.0000 H   0  0  0  0  0  0  0  0  0  0  0  0
    8.1037    1.6375    0.0000 H   0  0  0  0  0  0  0  0  0  0  0  0
    8.7613   -1.2753    0.0000 H   0  0  0  0  0  0  0  0  0  0  0  0
    9.5584   -1.2722    0.0000 H   0  0  0  0  0  0  0  0  0  0  0  0
    9.7719    2.1296    0.0000 H   0  0  0  0  0  0  0  0  0  0  0  0
    9.3781    2.8240    0.0000 H   0  0  0  0  0  0  0  0  0  0  0  0
   11.3019    1.7232    0.0000 H   0  0  0  0  0  0  0  0  0  0  0  0
   10.5037    1.7108    0.0000 H   0  0  0  0  0  0  0  0  0  0  0  0
   12.5550    0.1213    0.0000 H   0  0  0  0  0  0  0  0  0  0  0  0
    8.7998    3.0760    0.0000 H   0  0  0  0  0  0  0  0  0  0  0  0
    6.0615    0.1500    0.0000 H   0  0  0  0  0  0  0  0  0  0  0  0
    6.8596    0.1685    0.0000 H   0  0  0  0  0  0  0  0  0  0  0  0
   10.2666    1.5730    0.0000 H   0  0  0  0  0  0  0  0  0  0  0  0
   10.1868    2.4462    0.0000 H   0  0  0  0  0  0  0  0  0  0  0  0
    9.3136    2.3664    0.0000 H   0  0  0  0  0  0  0  0  0  0  0  0
   12.4294    0.6285    0.0000 H   0  0  0  0  0  0  0  0  0  0  0  0
   12.0249    1.3168    0.0000 H   0  0  0  0  0  0  0  0  0  0  0  0
   10.9400    1.4357    0.0000 H   0  0  0  0  0  0  0  0  0  0  0  0
   10.5664    2.2290    0.0000 H   0  0  0  0  0  0  0  0  0  0  0  0
    9.7732    1.8553    0.0000 H   0  0  0  0  0  0  0  0  0  0  0  0
    6.8238    3.2633    0.0000 H   0  0  0  0  0  0  0  0  0  0  0  0
    6.0255    3.2633    0.0000 H   0  0  0  0  0  0  0  0  0  0  0  0
   10.2885   -1.7936    0.0000 H   0  0  0  0  0  0  0  0  0  0  0  0
   10.6769   -2.4910    0.0000 H   0  0  0  0  0  0  0  0  0  0  0  0
    4.9532    1.9276    0.0000 H   0  0  0  0  0  0  0  0  0  0  0  0
    9.7422   -0.7852    0.0000 H   0  0  0  0  0  0  0  0  0  0  0  0
    9.5120   -1.6313    0.0000 H   0  0  0  0  0  0  0  0  0  0  0  0
   10.3581   -1.8615    0.0000 H   0  0  0  0  0  0  0  0  0  0  0  0
    7.9706    3.2498    0.0000 H   0  0  0  0  0  0  0  0  0  0  0  0
    7.3435    3.8626    0.0000 H   0  0  0  0  0  0  0  0  0  0  0  0
    6.7307    3.2355    0.0000 H   0  0  0  0  0  0  0  0  0  0  0  0
   13.3085   -1.6149    0.0000 H   0  0  0  0  0  0  0  0  0  0  0  0
   11.4277   -2.9362    0.0000 H   0  0  0  0  0  0  0  0  0  0  0  0
   12.2259   -2.9423    0.0000 H   0  0  0  0  0  0  0  0  0  0  0  0
    8.7992    4.0770    0.0000 H   0  0  0  0  0  0  0  0  0  0  0  0
   13.7393   -0.3659    0.0000 H   0  0  0  0  0  0  0  0  0  0  0  0
   13.7332    0.4311    0.0000 H   0  0  0  0  0  0  0  0  0  0  0  0
   13.7727   -1.4532    0.0000 H   0  0  0  0  0  0  0  0  0  0  0  0
   14.3880   -0.8285    0.0000 H   0  0  0  0  0  0  0  0  0  0  0  0
   13.7632   -0.2133    0.0000 H   0  0  0  0  0  0  0  0  0  0  0  0
    4.4714    0.5859    0.0000 H   0  0  0  0  0  0  0  0  0  0  0  0
    4.7114   -0.2575    0.0000 H   0  0  0  0  0  0  0  0  0  0  0  0
    5.5547   -0.0175    0.0000 H   0  0  0  0  0  0  0  0  0  0  0  0
    4.1816    1.6745    0.0000 H   0  0  0  0  0  0  0  0  0  0  0  0
   13.0605    1.4304    0.0000 H   0  0  0  0  0  0  0  0  0  0  0  0
   13.9673   -1.6159    0.0000 H   0  0  0  0  0  0  0  0  0  0  0  0
   15.9072   -2.7359    0.0000 H   0  0  0  0  0  0  0  0  0  0  0  0
   16.7732   -1.6159    0.0000 H   0  0  0  0  0  0  0  0  0  0  0  0
   15.7688    0.0490    0.0000 H   0  0  0  0  0  0  0  0  0  0  0  0
   14.9717    0.0490    0.0000 H   0  0  0  0  0  0  0  0  0  0  0  0
   16.2363   -0.3059    0.0000 H   0  0  0  0  0  0  0  0  0  0  0  0
    2.8823    3.1027    0.0000 H   0  0  0  0  0  0  0  0  0  0  0  0
   14.5042   -3.3059    0.0000 H   0  0  0  0  0  0  0  0  0  0  0  0
   17.6392   -2.1159    0.0000 H   0  0  0  0  0  0  0  0  0  0  0  0
    2.8574    6.3426    0.0000 H   0  0  0  0  0  0  0  0  0  0  0  0
    1.4732    3.9018    0.0000 H   0  0  0  0  0  0  0  0  0  0  0  0
    5.1334    5.4301    0.0000 H   0  0  0  0  0  0  0  0  0  0  0  0
   14.5042   -5.5459    0.0000 H   0  0  0  0  0  0  0  0  0  0  0  0
    1.4607    5.5218    0.0000 H   0  0  0  0  0  0  0  0  0  0  0  0
   16.5654    0.2641    0.0000 H   0  0  0  0  0  0  0  0  0  0  0  0
   13.1013   -5.7359    0.0000 H   0  0  0  0  0  0  0  0  0  0  0  0
   12.7722   -3.3059    0.0000 H   0  0  0  0  0  0  0  0  0  0  0  0
    5.2064    6.7407    0.0000 H   0  0  0  0  0  0  0  0  0  0  0  0
    4.5817    7.3559    0.0000 H   0  0  0  0  0  0  0  0  0  0  0  0
    3.9664    6.7312    0.0000 H   0  0  0  0  0  0  0  0  0  0  0  0
   12.2352   -4.6159    0.0000 H   0  0  0  0  0  0  0  0  0  0  0  0
   17.9683    0.4541    0.0000 H   0  0  0  0  0  0  0  0  0  0  0  0
   15.9072   -5.1159    0.0000 H   0  0  0  0  0  0  0  0  0  0  0  0
   17.9683    2.6941    0.0000 H   0  0  0  0  0  0  0  0  0  0  0  0
   12.3047   -2.9510    0.0000 H   0  0  0  0  0  0  0  0  0  0  0  0
   11.5076   -2.9510    0.0000 H   0  0  0  0  0  0  0  0  0  0  0  0
   15.6993    1.7641    0.0000 H   0  0  0  0  0  0  0  0  0  0  0  0
   16.5654    2.8841    0.0000 H   0  0  0  0  0  0  0  0  0  0  0  0
   14.1751   -6.7359    0.0000 H   0  0  0  0  0  0  0  0  0  0  0  0
   11.9062   -6.0459    0.0000 H   0  0  0  0  0  0  0  0  0  0  0  0
   19.3713    0.8841    0.0000 H   0  0  0  0  0  0  0  0  0  0  0  0
   14.7597    2.6817    0.0000 H   0  0  0  0  0  0  0  0  0  0  0  0
   15.1582    1.9915    0.0000 H   0  0  0  0  0  0  0  0  0  0  0  0
   18.8344    3.1941    0.0000 H   0  0  0  0  0  0  0  0  0  0  0  0
   10.5032   -3.6159    0.0000 H   0  0  0  0  0  0  0  0  0  0  0  0
   17.6392    3.8841    0.0000 H   0  0  0  0  0  0  0  0  0  0  0  0
   14.8333    3.8841    0.0000 H   0  0  0  0  0  0  0  0  0  0  0  0
  1 26  1  0  0  0  0
  2113  1  0  0  0  0
  3 54  1  0  0  0  0
  5 49  1  0  0  0  0
  5123  1  0  0  0  0
  6 52  2  0  0  0  0
  7 53  1  0  0  0  0
  7 58  1  0  0  0  0
  8 54  2  0  0  0  0
 10132  1  0  0  0  0
 12 62  1  0  0  0  0
 12 69  1  0  0  0  0
 13146  1  0  0  0  0
 14 67  1  0  0  0  0
 14 75  1  0  0  0  0
 15152  1  0  0  0  0
 16153  1  0  0  0  0
 17154  1  0  0  0  0
 18157  1  0  0  0  0
 19 74  1  0  0  0  0
 19158  1  0  0  0  0
 20159  1  0  0  0  0
 21 77  1  0  0  0  0
 21160  1  0  0  0  0
 22 60  1  0  0  0  0
 22 70  1  0  0  0  0
 22135  1  0  0  0  0
 23  1  1  0  0  0  0
 23 24  1  1  0  0  0
 24 25  1  1  0  0  0
 24 32  1  0  0  0  0
 24 37  1  0  0  0  0
 25 27  1  1  0  0  0
 25 33  1  0  0  0  0
 25 39  1  0  0  0  0
 26 23  1  6  0  0  0
 26 29  1  0  0  0  0
 26 78  1  0  0  0  0
 27 29  1  0  0  0  0
 27 30  1  1  0  0  0
 27 79  1  0  0  0  0
 28 23  1  6  0  0  0
 28 36  1  0  0  0  0
 28 80  1  0  0  0  0
 29 81  1  0  0  0  0
 29 82  1  0  0  0  0
 30 34  1  1  0  0  0
 30 42  1  0  0  0  0
 30 45  1  0  0  0  0
 31 28  1  1  0  0  0
 31 40  1  0  0  0  0
 31 46  1  0  0  0  0
 32 35  1  0  0  0  0
 32 83  1  0  0  0  0
 32 84  1  0  0  0  0
 33 38  1  0  0  0  0
 33 85  1  0  0  0  0
 33 86  1  0  0  0  0
 34 38  1  0  0  0  0
 34 41  1  1  0  0  0
 34 87  1  0  0  0  0
 35  2  1  0  0  0  0
 35 31  1  6  0  0  0
 35 88  1  0  0  0  0
 36 43  1  0  0  0  0
 36 89  1  0  0  0  0
 36 90  1  0  0  0  0
 37 91  1  0  0  0  0
 37 92  1  0  0  0  0
 37 93  1  0  0  0  0
 38 94  1  0  0  0  0
 38 95  1  0  0  0  0
 39 96  1  0  0  0  0
 39 97  1  0  0  0  0
 39 98  1  0  0  0  0
 40 44  1  0  0  0  0
 40 99  1  0  0  0  0
 40100  1  0  0  0  0
 41 47  1  6  0  0  0
 41 49  1  0  0  0  0
 41 50  1  0  0  0  0
 42 48  1  0  0  0  0
 42101  1  0  0  0  0
 42102  1  0  0  0  0
 43 44  1  6  0  0  0
 43 51  1  0  0  0  0
 43 52  1  0  0  0  0
 44  3  1  0  0  0  0
 44103  1  6  0  0  0
 45104  1  0  0  0  0
 45105  1  0  0  0  0
 45106  1  0  0  0  0
 46107  1  0  0  0  0
 46108  1  0  0  0  0
 46109  1  0  0  0  0
 47  4  1  0  0  0  0
 47 48  1  0  0  0  0
 47110  1  6  0  0  0
 48111  1  0  0  0  0
 48112  1  0  0  0  0
 49114  1  0  0  0  0
 49115  1  0  0  0  0
 50116  1  0  0  0  0
 50117  1  0  0  0  0
 50118  1  0  0  0  0
 51119  1  0  0  0  0
 51120  1  0  0  0  0
 51121  1  0  0  0  0
 52122  1  0  0  0  0
 53  4  1  0  0  0  0
 53 55  1  1  0  0  0
 53124  1  0  0  0  0
 54 56  1  0  0  0  0
 55  9  1  0  0  0  0
 55 57  1  1  0  0  0
 55125  1  0  0  0  0
 56 60  1  0  0  0  0
 56 61  2  0  0  0  0
 57 10  1  0  0  0  0
 57 59  1  6  0  0  0
 57126  1  0  0  0  0
 58 59  1  0  0  0  0
 58127  1  0  0  0  0
 58128  1  0  0  0  0
 59 11  1  0  0  0  0
 59129  1  1  0  0  0
 60 63  2  0  0  0  0
 61 64  1  0  0  0  0
 61130  1  0  0  0  0
 62  9  1  0  0  0  0
 62 65  1  6  0  0  0
 62131  1  0  0  0  0
 63 66  1  0  0  0  0
 63133  1  0  0  0  0
 64 66  2  0  0  0  0
 64134  1  0  0  0  0
 65 13  1  0  0  0  0
 65 68  1  6  0  0  0
 65136  1  0  0  0  0
 66137  1  0  0  0  0
 67 11  1  0  0  0  0
 67 72  1  1  0  0  0
 67138  1  0  0  0  0
 68 15  1  0  0  0  0
 68 71  1  1  0  0  0
 68139  1  0  0  0  0
 69 71  1  6  0  0  0
 69 74  1  0  0  0  0
 69140  1  0  0  0  0
 70141  1  0  0  0  0
 70142  1  0  0  0  0
 70143  1  0  0  0  0
 71 16  1  0  0  0  0
 71144  1  1  0  0  0
 72 17  1  0  0  0  0
 72 73  1  6  0  0  0
 72145  1  0  0  0  0
 73 18  1  0  0  0  0
 73 76  1  6  0  0  0
 73147  1  0  0  0  0
 74148  1  0  0  0  0
 74149  1  0  0  0  0
 75 76  1  1  0  0  0
 75 77  1  0  0  0  0
 75150  1  0  0  0  0
 76 20  1  0  0  0  0
 76151  1  6  0  0  0
 77155  1  0  0  0  0
 77156  1  0  0  0  0
M  END
>  <PUBCHEM_COMPOUND_CID>
441907

>  <PUBCHEM_COMPOUND_CANONICALIZED>
1

>  <PUBCHEM_CACTVS_COMPLEXITY>
2150

>  <PUBCHEM_CACTVS_HBOND_ACCEPTOR>
22

>  <PUBCHEM_CACTVS_HBOND_DONOR>
12

>  <PUBCHEM_CACTVS_ROTATABLE_BOND>
14

>  <PUBCHEM_CACTVS_SUBSKEYS>
AAADcfB+PgAAAAAAAAAAAAAAEgAAAAAAAAA0aNGDBIAAAADBAAAAHgAQCAAAD1yxmAcyyILABgCIAizSyACCAAAlAgAIiIEIbMgZNj7AtZmmcYhn8AFP6cfY7PzPgAAAAAACAADCAAYAADQAAAAAAAAAAA==

>  <PUBCHEM_IUPAC_INCHI>
InChI=1S/C55H83NO21/c1-49(23-59)17-32-51(3,19-36(49)74-45(69)25-10-8-9-11-26(25)56-7)33(61)18-54(6)53(5)15-12-30-50(2,31(53)16-35-55(32,54)77-35)14-13-34(52(30,4)24-60)75-48-44(76-47-43(68)41(66)38(63)28(21-58)72-47)39(64)29(22-70-48)73-46-42(67)40(65)37(62)27(20-57)71-46/h8-11,23,27-44,46-48,56-58,60-68H,12-22,24H2,1-7H3/t27-,28-,29+,30-,31-,32-,33+,34+,35-,36+,37-,38-,39+,40+,41+,42-,43-,44-,46+,47+,48+,49+,50+,51+,52+,53-,54+,55-/m1/s1

>  <PUBCHEM_IUPAC_INCHIKEY>
SYXUBXTYGFJFEH-PFTGTSLFSA-N

>  <PUBCHEM_XLOGP3_AA>
1.3

>  <PUBCHEM_EXACT_MASS>
1093.546

>  <PUBCHEM_MOLECULAR_FORMULA>
C55H83NO21

>  <PUBCHEM_MOLECULAR_WEIGHT>
1094.255

>  <PUBCHEM_OPENEYE_CAN_SMILES>
CC12CCC(C(C1CCC3(C2CC4C5(C3(CC(C6(C5CC(C(C6)OC(=O)C7=CC=CC=C7NC)(C)C=O)C)O)C)O4)C)(C)CO)OC8C(C(C(CO8)OC9C(C(C(C(O9)CO)O)O)O)O)OC1C(C(C(C(O1)CO)O)O)O

>  <PUBCHEM_OPENEYE_ISO_SMILES>
C[C@]12CC[C@@H]([C@@]([C@@H]1CC[C@@]3([C@@H]2C[C@@H]4[C@]5([C@]3(C[C@@H]([C@@]6([C@H]5C[C@@]([C@H](C6)OC(=O)C7=CC=CC=C7NC)(C)C=O)C)O)C)O4)C)(C)CO)O[C@H]8[C@@H]([C@H]([C@H](CO8)O[C@H]9[C@@H]([C@H]([C@@H]([C@H](O9)CO)O)O)O)O)O[C@H]1[C@@H]([C@H]([C@@H]([C@H](O1)CO)O)O)O

>  <PUBCHEM_CACTVS_TPSA>
346

>  <PUBCHEM_MONOISOTOPIC_WEIGHT>
1093.546

>  <PUBCHEM_TOTAL_CHARGE>
0

>  <PUBCHEM_HEAVY_ATOM_COUNT>
77

>  <PUBCHEM_ATOM_DEF_STEREO_COUNT>
28

>  <PUBCHEM_ATOM_UDEF_STEREO_COUNT>
0

>  <PUBCHEM_BOND_DEF_STEREO_COUNT>
0

>  <PUBCHEM_BOND_UDEF_STEREO_COUNT>
0

>  <PUBCHEM_ISOTOPIC_ATOM_COUNT>
0

>  <PUBCHEM_COMPONENT_COUNT>
1

>  <PUBCHEM_CACTVS_TAUTO_COUNT>
4

>  <PUBCHEM_COORDINATE_TYPE>
1
5
255

>  <PUBCHEM_BONDANNOTATIONS>
23  1  5
57  10  6
59  11  6
67  11  6
65  13  6
68  15  5
71  16  6
72  17  5
73  18  6
35  2  5
76  20  5
24  37  6
25  39  5
26  78  6
27  79  6
28  80  5
44  3  5
30  45  5
31  46  5
34  87  6
47  4  5
53  4  6
41  50  5
43  51  6
56  60  8
56  61  8
60  63  8
61  64  8
63  66  8
64  66  8
69  74  5
75  77  6
55  9  5
62  9  5

$$$$
