441938
 OpenBabel06101807152D

200210  0  0  1  0  0  0  0  0999 V2000
    7.7331    2.8059    0.0000 O   0  0  0  0  0  0  0  0  0  0  0  0
   10.1773    3.4976    0.0000 O   0  0  0  0  0  0  0  0  0  0  0  0
    6.0010    2.8059    0.0000 O   0  0  0  0  0  0  0  0  0  0  0  0
    7.7331    0.8059    0.0000 O   0  0  0  0  0  0  0  0  0  0  0  0
    6.0010   -0.1941    0.0000 O   0  0  0  0  0  0  0  0  0  0  0  0
    4.2690    0.8059    0.0000 O   0  0  0  0  0  0  0  0  0  0  0  0
    4.2690    3.8059    0.0000 O   0  0  0  0  0  0  0  0  0  0  0  0
    3.4030    2.3059    0.0000 O   0  0  0  0  0  0  0  0  0  0  0  0
    4.2690   -0.1941    0.0000 O   0  0  0  0  0  0  0  0  0  0  0  0
    6.0010   -2.1941    0.0000 O   0  0  0  0  0  0  0  0  0  0  0  0
    4.2690   -3.1941    0.0000 O   0  0  0  0  0  0  0  0  0  0  0  0
    2.5369   -2.1941    0.0000 O   0  0  0  0  0  0  0  0  0  0  0  0
    5.1350   -3.6941    0.0000 O   0  0  0  0  0  0  0  0  0  0  0  0
    7.7331   -3.1941    0.0000 O   0  0  0  0  0  0  0  0  0  0  0  0
    7.7331   -5.1941    0.0000 O   0  0  0  0  0  0  0  0  0  0  0  0
    6.0010   -6.1941    0.0000 O   0  0  0  0  0  0  0  0  0  0  0  0
    4.2690   -6.1941    0.0000 O   0  0  0  0  0  0  0  0  0  0  0  0
    7.7331   -6.1941    0.0000 O   0  0  0  0  0  0  0  0  0  0  0  0
    6.0010   -8.1941    0.0000 O   0  0  0  0  0  0  0  0  0  0  0  0
    7.7331   -9.1941    0.0000 O   0  0  0  0  0  0  0  0  0  0  0  0
    9.4651   -8.1941    0.0000 O   0  0  0  0  0  0  0  0  0  0  0  0
    6.8671   -9.6941    0.0000 O   0  0  0  0  0  0  0  0  0  0  0  0
    9.4651   -5.1941    0.0000 O   0  0  0  0  0  0  0  0  0  0  0  0
    4.2690   -9.1941    0.0000 O   0  0  0  0  0  0  0  0  0  0  0  0
    4.2690  -11.1941    0.0000 O   0  0  0  0  0  0  0  0  0  0  0  0
   11.1972   -5.1941    0.0000 O   0  0  0  0  0  0  0  0  0  0  0  0
    6.0010  -12.1941    0.0000 O   0  0  0  0  0  0  0  0  0  0  0  0
    9.4651   -3.1941    0.0000 O   0  0  0  0  0  0  0  0  0  0  0  0
    7.7331  -12.1941    0.0000 O   0  0  0  0  0  0  0  0  0  0  0  0
   11.1972   -2.1941    0.0000 O   0  0  0  0  0  0  0  0  0  0  0  0
   12.9292   -3.1941    0.0000 O   0  0  0  0  0  0  0  0  0  0  0  0
    7.7580    5.9612    0.0000 C   0  0  2  0  0  0  0  0  0  0  0  0
    8.6342    7.5061    0.0000 C   0  0  2  0  0  0  0  0  0  0  0  0
    7.7701    7.0028    0.0000 C   0  0  2  0  0  0  0  0  0  0  0  0
    8.6581    5.4369    0.0000 C   0  0  2  0  0  0  0  0  0  0  0  0
    8.6303    8.5061    0.0000 C   0  0  1  0  0  0  0  0  0  0  0  0
    8.6706    4.3520    0.0000 C   0  0  2  0  0  0  0  0  0  0  0  0
    9.5461    7.0028    0.0000 C   0  0  0  0  0  0  0  0  0  0  0  0
    9.5581    5.9612    0.0000 C   0  0  0  0  0  0  0  0  0  0  0  0
    6.8081    5.4369    0.0000 C   0  0  0  0  0  0  0  0  0  0  0  0
    6.9021    7.4994    0.0000 C   0  0  0  0  0  0  0  0  0  0  0  0
    7.7624    9.0027    0.0000 C   0  0  0  0  0  0  0  0  0  0  0  0
    7.7331    3.8059    0.0000 C   0  0  2  0  0  0  0  0  0  0  0  0
    7.7423   10.0442    0.0000 C   0  0  1  0  0  0  0  0  0  0  0  0
    6.7956    4.3520    0.0000 C   0  0  0  0  0  0  0  0  0  0  0  0
    6.8939    6.4645    0.0000 C   0  0  0  0  0  0  0  0  0  0  0  0
    9.6183    7.6835    0.0000 C   0  0  0  0  0  0  0  0  0  0  0  0
    8.6383   10.5754    0.0000 C   0  0  1  0  0  0  0  0  0  0  0  0
    6.8983    8.4994    0.0000 C   0  0  0  0  0  0  0  0  0  0  0  0
    9.5383    9.0164    0.0000 C   0  0  0  0  0  0  0  0  0  0  0  0
    9.6158    8.3362    0.0000 C   0  0  0  0  0  0  0  0  0  0  0  0
    9.6706    4.3597    0.0000 C   0  0  0  0  0  0  0  0  0  0  0  0
    9.1773    3.4898    0.0000 C   0  0  0  0  0  0  0  0  0  0  0  0
    6.7884   10.5611    0.0000 C   0  0  0  0  0  0  0  0  0  0  0  0
    9.5424   10.0581    0.0000 C   0  0  0  0  0  0  0  0  0  0  0  0
    8.6424   11.6604    0.0000 C   0  0  0  0  0  0  0  0  0  0  0  0
    6.7674   11.6459    0.0000 C   0  0  0  0  0  0  0  0  0  0  0  0
    7.7007   12.1992    0.0000 C   0  0  0  0  0  0  0  0  0  0  0  0
    9.4985   11.0854    0.0000 C   0  0  0  0  0  0  0  0  0  0  0  0
    6.2542   12.5041    0.0000 C   0  0  0  0  0  0  0  0  0  0  0  0
    5.7676   11.6305    0.0000 C   0  0  0  0  0  0  0  0  0  0  0  0
    6.8671    2.3059    0.0000 C   0  0  2  0  0  0  0  0  0  0  0  0
    6.8671    1.3059    0.0000 C   0  0  1  0  0  0  0  0  0  0  0  0
    6.0010    0.8059    0.0000 C   0  0  2  0  0  0  0  0  0  0  0  0
    5.1350    2.3059    0.0000 C   0  0  1  0  0  0  0  0  0  0  0  0
    5.1350    1.3059    0.0000 C   0  0  1  0  0  0  0  0  0  0  0  0
    4.2690    2.8059    0.0000 C   0  0  0  0  0  0  0  0  0  0  0  0
    5.1350   -0.6941    0.0000 C   0  0  2  0  0  0  0  0  0  0  0  0
    5.1350   -1.6941    0.0000 C   0  0  1  0  0  0  0  0  0  0  0  0
    4.2690   -2.1941    0.0000 C   0  0  2  0  0  0  0  0  0  0  0  0
    3.4030   -0.6941    0.0000 C   0  0  0  0  0  0  0  0  0  0  0  0
    3.4030   -1.6941    0.0000 C   0  0  2  0  0  0  0  0  0  0  0  0
    6.0010   -3.1941    0.0000 C   0  0  2  0  0  0  0  0  0  0  0  0
    6.8671   -3.6941    0.0000 C   0  0  1  0  0  0  0  0  0  0  0  0
    6.8671   -4.6941    0.0000 C   0  0  2  0  0  0  0  0  0  0  0  0
    5.1350   -4.6941    0.0000 C   0  0  1  0  0  0  0  0  0  0  0  0
    6.0010   -5.1941    0.0000 C   0  0  2  0  0  0  0  0  0  0  0  0
    4.2690   -5.1941    0.0000 C   0  0  0  0  0  0  0  0  0  0  0  0
    6.8671   -6.6941    0.0000 C   0  0  2  0  0  0  0  0  0  0  0  0
    6.8671   -7.6941    0.0000 C   0  0  2  0  0  0  0  0  0  0  0  0
    7.7331   -8.1941    0.0000 C   0  0  2  0  0  0  0  0  0  0  0  0
    8.5991   -6.6941    0.0000 C   0  0  1  0  0  0  0  0  0  0  0  0
    8.5991   -7.6941    0.0000 C   0  0  1  0  0  0  0  0  0  0  0  0
    9.4651   -6.1941    0.0000 C   0  0  0  0  0  0  0  0  0  0  0  0
    6.0010   -9.1941    0.0000 C   0  0  2  0  0  0  0  0  0  0  0  0
    5.1350   -9.6941    0.0000 C   0  0  1  0  0  0  0  0  0  0  0  0
    5.1350  -10.6941    0.0000 C   0  0  2  0  0  0  0  0  0  0  0  0
    6.8671  -10.6941    0.0000 C   0  0  1  0  0  0  0  0  0  0  0  0
    6.0010  -11.1941    0.0000 C   0  0  2  0  0  0  0  0  0  0  0  0
   10.3312   -4.6941    0.0000 C   0  0  2  0  0  0  0  0  0  0  0  0
   10.3312   -3.6941    0.0000 C   0  0  1  0  0  0  0  0  0  0  0  0
    7.7331  -11.1941    0.0000 C   0  0  0  0  0  0  0  0  0  0  0  0
   11.1972   -3.1941    0.0000 C   0  0  1  0  0  0  0  0  0  0  0  0
   12.0632   -4.6941    0.0000 C   0  0  2  0  0  0  0  0  0  0  0  0
   12.0632   -3.6941    0.0000 C   0  0  2  0  0  0  0  0  0  0  0  0
   12.9292   -5.1941    0.0000 C   0  0  0  0  0  0  0  0  0  0  0  0
    8.5045    6.5749    0.0000 H   0  0  0  0  0  0  0  0  0  0  0  0
    9.3974    5.0176    0.0000 H   0  0  0  0  0  0  0  0  0  0  0  0
   10.1581    6.9037    0.0000 H   0  0  0  0  0  0  0  0  0  0  0  0
    9.7484    7.5888    0.0000 H   0  0  0  0  0  0  0  0  0  0  0  0
    9.7739    5.3800    0.0000 H   0  0  0  0  0  0  0  0  0  0  0  0
   10.1677    6.0743    0.0000 H   0  0  0  0  0  0  0  0  0  0  0  0
    6.6058    6.0230    0.0000 H   0  0  0  0  0  0  0  0  0  0  0  0
    6.1961    5.3379    0.0000 H   0  0  0  0  0  0  0  0  0  0  0  0
    6.2911    7.6047    0.0000 H   0  0  0  0  0  0  0  0  0  0  0  0
    6.6923    6.9160    0.0000 H   0  0  0  0  0  0  0  0  0  0  0  0
    8.2706    3.4969    0.0000 H   0  0  0  0  0  0  0  0  0  0  0  0
    7.0162    9.6023    0.0000 H   0  0  0  0  0  0  0  0  0  0  0  0
    6.1860    4.4651    0.0000 H   0  0  0  0  0  0  0  0  0  0  0  0
    6.5798    3.7708    0.0000 H   0  0  0  0  0  0  0  0  0  0  0  0
    7.2060    7.0003    0.0000 H   0  0  0  0  0  0  0  0  0  0  0  0
    6.3582    6.7766    0.0000 H   0  0  0  0  0  0  0  0  0  0  0  0
    6.5818    5.9288    0.0000 H   0  0  0  0  0  0  0  0  0  0  0  0
    9.7283    7.0734    0.0000 H   0  0  0  0  0  0  0  0  0  0  0  0
   10.2284    7.7936    0.0000 H   0  0  0  0  0  0  0  0  0  0  0  0
    9.5083    8.2937    0.0000 H   0  0  0  0  0  0  0  0  0  0  0  0
    6.3601    8.8073    0.0000 H   0  0  0  0  0  0  0  0  0  0  0  0
   10.0729    8.7023    0.0000 H   0  0  0  0  0  0  0  0  0  0  0  0
    9.5105    7.7252    0.0000 H   0  0  0  0  0  0  0  0  0  0  0  0
   10.2268    8.2309    0.0000 H   0  0  0  0  0  0  0  0  0  0  0  0
    9.7211    8.9472    0.0000 H   0  0  0  0  0  0  0  0  0  0  0  0
   10.2516    4.5762    0.0000 H   0  0  0  0  0  0  0  0  0  0  0  0
    9.5582    4.9694    0.0000 H   0  0  0  0  0  0  0  0  0  0  0  0
    8.6428    3.1757    0.0000 H   0  0  0  0  0  0  0  0  0  0  0  0
    9.4914    2.9553    0.0000 H   0  0  0  0  0  0  0  0  0  0  0  0
    9.7118    3.8040    0.0000 H   0  0  0  0  0  0  0  0  0  0  0  0
    6.1756   10.6554    0.0000 H   0  0  0  0  0  0  0  0  0  0  0  0
    6.5906    9.9735    0.0000 H   0  0  0  0  0  0  0  0  0  0  0  0
   10.0793   10.3681    0.0000 H   0  0  0  0  0  0  0  0  0  0  0  0
    9.2529   11.5519    0.0000 H   0  0  0  0  0  0  0  0  0  0  0  0
    8.8538   12.2433    0.0000 H   0  0  0  0  0  0  0  0  0  0  0  0
    8.0962   12.6767    0.0000 H   0  0  0  0  0  0  0  0  0  0  0  0
    7.2980   12.6706    0.0000 H   0  0  0  0  0  0  0  0  0  0  0  0
    9.8146   10.5521    0.0000 H   0  0  0  0  0  0  0  0  0  0  0  0
   10.0318   11.4016    0.0000 H   0  0  0  0  0  0  0  0  0  0  0  0
    9.1823   11.6187    0.0000 H   0  0  0  0  0  0  0  0  0  0  0  0
    6.7862   12.8224    0.0000 H   0  0  0  0  0  0  0  0  0  0  0  0
    5.9359   13.0362    0.0000 H   0  0  0  0  0  0  0  0  0  0  0  0
    5.7220   12.1859    0.0000 H   0  0  0  0  0  0  0  0  0  0  0  0
    5.7580   12.2504    0.0000 H   0  0  0  0  0  0  0  0  0  0  0  0
    5.1476   11.6209    0.0000 H   0  0  0  0  0  0  0  0  0  0  0  0
    5.7771   11.0106    0.0000 H   0  0  0  0  0  0  0  0  0  0  0  0
    7.4040    1.9959    0.0000 H   0  0  0  0  0  0  0  0  0  0  0  0
   10.7972    3.5023    0.0000 H   0  0  0  0  0  0  0  0  0  0  0  0
    6.8671    0.6859    0.0000 H   0  0  0  0  0  0  0  0  0  0  0  0
    5.4641    0.4959    0.0000 H   0  0  0  0  0  0  0  0  0  0  0  0
    5.1350    2.9259    0.0000 H   0  0  0  0  0  0  0  0  0  0  0  0
    4.5981    1.6159    0.0000 H   0  0  0  0  0  0  0  0  0  0  0  0
    7.7331    0.1859    0.0000 H   0  0  0  0  0  0  0  0  0  0  0  0
    3.7320    1.1159    0.0000 H   0  0  0  0  0  0  0  0  0  0  0  0
    5.1350   -0.0741    0.0000 H   0  0  0  0  0  0  0  0  0  0  0  0
    5.1350   -2.3141    0.0000 H   0  0  0  0  0  0  0  0  0  0  0  0
    3.7320    4.1159    0.0000 H   0  0  0  0  0  0  0  0  0  0  0  0
    3.7320   -2.5041    0.0000 H   0  0  0  0  0  0  0  0  0  0  0  0
    3.1909   -0.1115    0.0000 H   0  0  0  0  0  0  0  0  0  0  0  0
    2.7924   -0.8018    0.0000 H   0  0  0  0  0  0  0  0  0  0  0  0
    2.8660   -1.3841    0.0000 H   0  0  0  0  0  0  0  0  0  0  0  0
    6.5380   -2.8841    0.0000 H   0  0  0  0  0  0  0  0  0  0  0  0
    3.7320   -3.5041    0.0000 H   0  0  0  0  0  0  0  0  0  0  0  0
    2.0000   -1.8841    0.0000 H   0  0  0  0  0  0  0  0  0  0  0  0
    7.4040   -4.0041    0.0000 H   0  0  0  0  0  0  0  0  0  0  0  0
    6.8671   -5.3141    0.0000 H   0  0  0  0  0  0  0  0  0  0  0  0
    4.5981   -4.3841    0.0000 H   0  0  0  0  0  0  0  0  0  0  0  0
    5.4641   -5.5041    0.0000 H   0  0  0  0  0  0  0  0  0  0  0  0
    8.2700   -3.5041    0.0000 H   0  0  0  0  0  0  0  0  0  0  0  0
    4.0569   -4.6115    0.0000 H   0  0  0  0  0  0  0  0  0  0  0  0
    3.6584   -5.3018    0.0000 H   0  0  0  0  0  0  0  0  0  0  0  0
    8.2700   -4.8841    0.0000 H   0  0  0  0  0  0  0  0  0  0  0  0
    6.3301   -7.0041    0.0000 H   0  0  0  0  0  0  0  0  0  0  0  0
    7.8148   -8.0041    0.0000 H   0  0  0  0  0  0  0  0  0  0  0  0
    3.7320   -6.5041    0.0000 H   0  0  0  0  0  0  0  0  0  0  0  0
    8.2700   -8.5041    0.0000 H   0  0  0  0  0  0  0  0  0  0  0  0
    8.5991   -6.0741    0.0000 H   0  0  0  0  0  0  0  0  0  0  0  0
    9.1360   -7.3841    0.0000 H   0  0  0  0  0  0  0  0  0  0  0  0
    9.6772   -6.7767    0.0000 H   0  0  0  0  0  0  0  0  0  0  0  0
   10.0757   -6.0865    0.0000 H   0  0  0  0  0  0  0  0  0  0  0  0
    5.4641   -8.8841    0.0000 H   0  0  0  0  0  0  0  0  0  0  0  0
    8.2700   -9.5041    0.0000 H   0  0  0  0  0  0  0  0  0  0  0  0
    5.6971   -9.0741    0.0000 H   0  0  0  0  0  0  0  0  0  0  0  0
   10.0021   -7.8841    0.0000 H   0  0  0  0  0  0  0  0  0  0  0  0
    5.1350  -11.3141    0.0000 H   0  0  0  0  0  0  0  0  0  0  0  0
    7.4040  -10.3841    0.0000 H   0  0  0  0  0  0  0  0  0  0  0  0
    6.5380  -11.5041    0.0000 H   0  0  0  0  0  0  0  0  0  0  0  0
    9.7942   -4.3841    0.0000 H   0  0  0  0  0  0  0  0  0  0  0  0
   10.3312   -3.0741    0.0000 H   0  0  0  0  0  0  0  0  0  0  0  0
    8.3437  -11.3018    0.0000 H   0  0  0  0  0  0  0  0  0  0  0  0
    7.9451  -10.6115    0.0000 H   0  0  0  0  0  0  0  0  0  0  0  0
    3.7320   -9.5041    0.0000 H   0  0  0  0  0  0  0  0  0  0  0  0
   11.7341   -2.8841    0.0000 H   0  0  0  0  0  0  0  0  0  0  0  0
   12.0632   -5.3141    0.0000 H   0  0  0  0  0  0  0  0  0  0  0  0
   12.6002   -4.0041    0.0000 H   0  0  0  0  0  0  0  0  0  0  0  0
    4.2690  -11.8141    0.0000 H   0  0  0  0  0  0  0  0  0  0  0  0
    5.4641  -12.5041    0.0000 H   0  0  0  0  0  0  0  0  0  0  0  0
   12.6192   -5.7311    0.0000 H   0  0  0  0  0  0  0  0  0  0  0  0
   13.4662   -5.5041    0.0000 H   0  0  0  0  0  0  0  0  0  0  0  0
   13.2392   -4.6572    0.0000 H   0  0  0  0  0  0  0  0  0  0  0  0
    9.4651   -2.5741    0.0000 H   0  0  0  0  0  0  0  0  0  0  0  0
    8.2700  -12.5041    0.0000 H   0  0  0  0  0  0  0  0  0  0  0  0
   11.7341   -1.8841    0.0000 H   0  0  0  0  0  0  0  0  0  0  0  0
   13.4662   -3.5041    0.0000 H   0  0  0  0  0  0  0  0  0  0  0  0
  2 52  1  0  0  0  0
  2144  1  0  0  0  0
  3 62  1  0  0  0  0
  3 65  1  0  0  0  0
  4149  1  0  0  0  0
  6150  1  0  0  0  0
  7 67  1  0  0  0  0
  7153  1  0  0  0  0
  8 67  2  0  0  0  0
  9 68  1  0  0  0  0
  9 71  1  0  0  0  0
 11159  1  0  0  0  0
 12160  1  0  0  0  0
 13 73  1  0  0  0  0
 13 76  1  0  0  0  0
 14165  1  0  0  0  0
 15168  1  0  0  0  0
 17 78  1  0  0  0  0
 17171  1  0  0  0  0
 18 79  1  0  0  0  0
 18 82  1  0  0  0  0
 20178  1  0  0  0  0
 21180  1  0  0  0  0
 22 85  1  0  0  0  0
 22 88  1  0  0  0  0
 23 84  1  0  0  0  0
 24188  1  0  0  0  0
 25192  1  0  0  0  0
 26 90  1  0  0  0  0
 26 94  1  0  0  0  0
 27193  1  0  0  0  0
 28197  1  0  0  0  0
 29 92  1  0  0  0  0
 29198  1  0  0  0  0
 30199  1  0  0  0  0
 31200  1  0  0  0  0
 32 34  1  6  0  0  0
 32 40  1  0  0  0  0
 32 46  1  0  0  0  0
 33 34  1  1  0  0  0
 33 38  1  0  0  0  0
 33 47  1  0  0  0  0
 34 41  1  0  0  0  0
 34 97  1  6  0  0  0
 35 32  1  6  0  0  0
 35 39  1  0  0  0  0
 35 98  1  0  0  0  0
 36 33  1  1  0  0  0
 36 42  1  0  0  0  0
 36 50  1  0  0  0  0
 36 51  1  0  0  0  0
 37 35  1  6  0  0  0
 37 52  1  0  0  0  0
 37 53  1  0  0  0  0
 38 39  1  0  0  0  0
 38 99  1  0  0  0  0
 38100  1  0  0  0  0
 39101  1  0  0  0  0
 39102  1  0  0  0  0
 40 45  1  0  0  0  0
 40103  1  0  0  0  0
 40104  1  0  0  0  0
 41 49  1  0  0  0  0
 41105  1  0  0  0  0
 41106  1  0  0  0  0
 42 44  1  0  0  0  0
 42 49  2  0  0  0  0
 43  1  1  0  0  0  0
 43 37  1  1  0  0  0
 43 45  1  0  0  0  0
 43107  1  0  0  0  0
 44 48  1  1  0  0  0
 44 54  1  0  0  0  0
 44108  1  0  0  0  0
 45109  1  0  0  0  0
 45110  1  0  0  0  0
 46111  1  0  0  0  0
 46112  1  0  0  0  0
 46113  1  0  0  0  0
 47114  1  0  0  0  0
 47115  1  0  0  0  0
 47116  1  0  0  0  0
 48 55  1  0  0  0  0
 48 56  1  0  0  0  0
 48 59  1  1  0  0  0
 49117  1  0  0  0  0
 50 55  2  0  0  0  0
 50118  1  0  0  0  0
 51119  1  0  0  0  0
 51120  1  0  0  0  0
 51121  1  0  0  0  0
 52122  1  0  0  0  0
 52123  1  0  0  0  0
 53124  1  0  0  0  0
 53125  1  0  0  0  0
 53126  1  0  0  0  0
 54 57  1  0  0  0  0
 54127  1  0  0  0  0
 54128  1  0  0  0  0
 55129  1  0  0  0  0
 56 58  1  0  0  0  0
 56130  1  0  0  0  0
 56131  1  0  0  0  0
 57 58  1  0  0  0  0
 57 60  1  0  0  0  0
 57 61  1  0  0  0  0
 58132  1  0  0  0  0
 58133  1  0  0  0  0
 59134  1  0  0  0  0
 59135  1  0  0  0  0
 59136  1  0  0  0  0
 60137  1  0  0  0  0
 60138  1  0  0  0  0
 60139  1  0  0  0  0
 61140  1  0  0  0  0
 61141  1  0  0  0  0
 61142  1  0  0  0  0
 62  1  1  0  0  0  0
 62 63  1  1  0  0  0
 62143  1  0  0  0  0
 63  4  1  0  0  0  0
 63 64  1  6  0  0  0
 63145  1  0  0  0  0
 64  5  1  0  0  0  0
 64 66  1  1  0  0  0
 64146  1  0  0  0  0
 65 66  1  6  0  0  0
 65 67  1  0  0  0  0
 65147  1  0  0  0  0
 66  6  1  0  0  0  0
 66148  1  1  0  0  0
 68  5  1  0  0  0  0
 68 69  1  6  0  0  0
 68151  1  0  0  0  0
 69 10  1  0  0  0  0
 69 70  1  6  0  0  0
 69152  1  0  0  0  0
 70 11  1  0  0  0  0
 70 72  1  1  0  0  0
 70154  1  0  0  0  0
 71 72  1  0  0  0  0
 71155  1  0  0  0  0
 71156  1  0  0  0  0
 72 12  1  0  0  0  0
 72157  1  6  0  0  0
 73 10  1  0  0  0  0
 73 74  1  1  0  0  0
 73158  1  0  0  0  0
 74 14  1  0  0  0  0
 74 75  1  6  0  0  0
 74161  1  0  0  0  0
 75 15  1  0  0  0  0
 75 77  1  1  0  0  0
 75162  1  0  0  0  0
 76 77  1  6  0  0  0
 76 78  1  0  0  0  0
 76163  1  0  0  0  0
 77 16  1  0  0  0  0
 77164  1  6  0  0  0
 78166  1  0  0  0  0
 78167  1  0  0  0  0
 79 16  1  0  0  0  0
 79 80  1  6  0  0  0
 79169  1  0  0  0  0
 80 19  1  0  0  0  0
 80 81  1  6  0  0  0
 80170  1  0  0  0  0
 81 20  1  0  0  0  0
 81 83  1  6  0  0  0
 81172  1  0  0  0  0
 82 83  1  1  0  0  0
 82 84  1  0  0  0  0
 82173  1  0  0  0  0
 83 21  1  0  0  0  0
 83174  1  6  0  0  0
 84175  1  0  0  0  0
 84176  1  0  0  0  0
 85 19  1  0  0  0  0
 85 86  1  6  0  0  0
 85177  1  0  0  0  0
 86 24  1  0  0  0  0
 86 87  1  6  0  0  0
 86179  1  0  0  0  0
 87 25  1  0  0  0  0
 87 89  1  6  0  0  0
 87181  1  0  0  0  0
 88 89  1  1  0  0  0
 88 92  1  0  0  0  0
 88182  1  0  0  0  0
 89 27  1  0  0  0  0
 89183  1  1  0  0  0
 90 23  1  0  0  0  0
 90 91  1  1  0  0  0
 90184  1  0  0  0  0
 91 28  1  0  0  0  0
 91 93  1  6  0  0  0
 91185  1  0  0  0  0
 92186  1  0  0  0  0
 92187  1  0  0  0  0
 93 30  1  0  0  0  0
 93 95  1  6  0  0  0
 93189  1  0  0  0  0
 94 95  1  1  0  0  0
 94 96  1  0  0  0  0
 94190  1  0  0  0  0
 95 31  1  0  0  0  0
 95191  1  6  0  0  0
 96194  1  0  0  0  0
 96195  1  0  0  0  0
 96196  1  0  0  0  0
M  END
>  <PUBCHEM_COMPOUND_CID>
441938

>  <PUBCHEM_COMPOUND_CANONICALIZED>
1

>  <PUBCHEM_CACTVS_COMPLEXITY>
2750

>  <PUBCHEM_CACTVS_HBOND_ACCEPTOR>
31

>  <PUBCHEM_CACTVS_HBOND_DONOR>
18

>  <PUBCHEM_CACTVS_ROTATABLE_BOND>
17

>  <PUBCHEM_CACTVS_SUBSKEYS>
AAADcfB8PgAAAAAAAAAAAAAAAAAAAAAAAAA0aNEiQAAAAADAAAAAGgAACAAADxSwgAMCCAAABgCIAiDSCAIAAAAgAAAICAFAAAgREBYAAQQiQAAFoAAPAAPK7PxPgAAAAAAAAADAAAYAADAAAAAAAAAAAA==

>  <PUBCHEM_IUPAC_OPENEYE_NAME>
(2S,3S,4S,5R,6R)-6-[[(3S,4S,4aR,6aR,6bS,8aR,12aR,14aR,14bR)-4-(hydroxymethyl)-4,6a,6b,8a,11,11,14b-heptamethyl-1,2,3,4a,5,6,9,10,12,12a,14,14a-dodecahydropicen-3-yl]oxy]-4-[(2S,3R,4S,5S)-3-[(2S,3R,4R,5R,6R)-5-[(2S,3R,4S,5S,6R)-4,5-dihydroxy-3-[(2S,3R,4S,5R,6R)-3,4,5-trihydroxy-6-(hydroxymethyl)tetrahydropyran-2-yl]oxy-6-[[(2R,3R,4R,5R,6S)-3,4,5-trihydroxy-6-methyl-tetrahydropyran-2-yl]oxymethyl]tetrahydropyran-2-yl]oxy-3,4-dihydroxy-6-(hydroxymethyl)tetrahydropyran-2-yl]oxy-4,5-dihydroxy-tetrahydropyran-2-yl]oxy-3,5-dihydroxy-tetrahydropyran-2-carboxylic acid

>  <PUBCHEM_IUPAC_CAS_NAME>
(2S,3S,4S,5R,6R)-6-[[(3S,4S,4aR,6aR,6bS,8aR,12aR,14aR,14bR)-4-(hydroxymethyl)-4,6a,6b,8a,11,11,14b-heptamethyl-1,2,3,4a,5,6,9,10,12,12a,14,14a-dodecahydropicen-3-yl]oxy]-4-[[(2S,3R,4S,5S)-3-[[(2S,3R,4R,5R,6R)-5-[[(2S,3R,4S,5S,6R)-4,5-dihydroxy-3-[[(2S,3R,4S,5R,6R)-3,4,5-trihydroxy-6-(hydroxymethyl)-2-oxanyl]oxy]-6-[[(2R,3R,4R,5R,6S)-3,4,5-trihydroxy-6-methyl-2-oxanyl]oxymethyl]-2-oxanyl]oxy]-3,4-dihydroxy-6-(hydroxymethyl)-2-oxanyl]oxy]-4,5-dihydroxy-2-oxanyl]oxy]-3,5-dihydroxy-2-oxanecarboxylic acid

>  <PUBCHEM_IUPAC_NAME>
(2S,3S,4S,5R,6R)-6-[[(3S,4S,4aR,6aR,6bS,8aR,12aR,14aR,14bR)-4-(hydroxymethyl)-4,6a,6b,8a,11,11,14b-heptamethyl-1,2,3,4a,5,6,9,10,12,12a,14,14a-dodecahydropicen-3-yl]oxy]-4-[(2S,3R,4S,5S)-3-[(2S,3R,4R,5R,6R)-5-[(2S,3R,4S,5S,6R)-4,5-dihydroxy-3-[(2S,3R,4S,5R,6R)-3,4,5-trihydroxy-6-(hydroxymethyl)oxan-2-yl]oxy-6-[[(2R,3R,4R,5R,6S)-3,4,5-trihydroxy-6-methyloxan-2-yl]oxymethyl]oxan-2-yl]oxy-3,4-dihydroxy-6-(hydroxymethyl)oxan-2-yl]oxy-4,5-dihydroxyoxan-2-yl]oxy-3,5-dihydroxyoxane-2-carboxylic acid

>  <PUBCHEM_IUPAC_SYSTEMATIC_NAME>
(2S,3S,4S,5R,6R)-6-[[(3S,4S,4aR,6aR,6bS,8aR,12aR,14aR,14bR)-4-(hydroxymethyl)-4,6a,6b,8a,11,11,14b-heptamethyl-1,2,3,4a,5,6,9,10,12,12a,14,14a-dodecahydropicen-3-yl]oxy]-4-[(2S,3R,4S,5S)-3-[(2S,3R,4R,5R,6R)-6-(hydroxymethyl)-5-[(2S,3R,4S,5S,6R)-3-[(2S,3R,4S,5R,6R)-6-(hydroxymethyl)-3,4,5-tris(oxidanyl)oxan-2-yl]oxy-6-[[(2R,3R,4R,5R,6S)-6-methyl-3,4,5-tris(oxidanyl)oxan-2-yl]oxymethyl]-4,5-bis(oxidanyl)oxan-2-yl]oxy-3,4-bis(oxidanyl)oxan-2-yl]oxy-4,5-bis(oxidanyl)oxan-2-yl]oxy-3,5-bis(oxidanyl)oxane-2-carboxylic acid

>  <PUBCHEM_IUPAC_TRADITIONAL_NAME>
(2S,3S,4S,5R,6R)-6-[[(3S,4S,4aR,6aR,6bS,8aR,12aR,14aR,14bR)-4,6a,6b,8a,11,11,14b-heptamethyl-4-methylol-1,2,3,4a,5,6,9,10,12,12a,14,14a-dodecahydropicen-3-yl]oxy]-4-[(2S,3R,4S,5S)-3-[(2S,3R,4R,5R,6R)-5-[(2S,3R,4S,5S,6R)-4,5-dihydroxy-3-[(2S,3R,4S,5R,6R)-3,4,5-trihydroxy-6-methylol-tetrahydropyran-2-yl]oxy-6-[[(2R,3R,4R,5R,6S)-3,4,5-trihydroxy-6-methyl-tetrahydropyran-2-yl]oxymethyl]tetrahydropyran-2-yl]oxy-3,4-dihydroxy-6-methylol-tetrahydropyran-2-yl]oxy-4,5-dihydroxy-tetrahydropyran-2-yl]oxy-3,5-dihydroxy-tetrahydropyran-2-carboxylic acid

>  <PUBCHEM_IUPAC_INCHI>
InChI=1S/C65H104O31/c1-25-35(70)39(74)43(78)54(87-25)86-23-31-38(73)41(76)52(96-55-44(79)40(75)37(72)29(20-66)88-55)59(90-31)92-48-30(21-67)89-56(45(80)42(48)77)95-51-36(71)28(69)22-85-58(51)93-49-46(81)50(53(83)84)94-57(47(49)82)91-34-12-13-62(5)32(63(34,6)24-68)11-14-65(8)33(62)10-9-26-27-19-60(2,3)15-16-61(27,4)17-18-64(26,65)7/h9,17-18,25,27-52,54-59,66-82H,10-16,19-24H2,1-8H3,(H,83,84)/t25-,27-,28-,29+,30+,31+,32+,33+,34-,35-,36-,37-,38+,39+,40-,41-,42+,43+,44+,45+,46-,47+,48-,49-,50-,51+,52+,54+,55-,56-,57+,58-,59-,61+,62-,63+,64+,65+/m0/s1

>  <PUBCHEM_IUPAC_INCHIKEY>
CVMFAOXHGIFMQV-BVXNWBLKSA-N

>  <PUBCHEM_XLOGP3_AA>
-2.2

>  <PUBCHEM_EXACT_MASS>
1380.656

>  <PUBCHEM_MOLECULAR_FORMULA>
C65H104O31

>  <PUBCHEM_MOLECULAR_WEIGHT>
1381.516

>  <PUBCHEM_OPENEYE_CAN_SMILES>
CC1C(C(C(C(O1)OCC2C(C(C(C(O2)OC3C(OC(C(C3O)O)OC4C(C(COC4OC5C(C(OC(C5O)OC6CCC7(C(C6(C)CO)CCC8(C7CC=C9C8(C=CC1(C9CC(CC1)(C)C)C)C)C)C)C(=O)O)O)O)O)CO)OC1C(C(C(C(O1)CO)O)O)O)O)O)O)O)O

>  <PUBCHEM_OPENEYE_ISO_SMILES>
C[C@H]1[C@@H]([C@H]([C@H]([C@@H](O1)OC[C@@H]2[C@H]([C@@H]([C@H]([C@@H](O2)O[C@H]3[C@H](O[C@H]([C@@H]([C@H]3O)O)O[C@@H]4[C@H]([C@H](CO[C@H]4O[C@H]5[C@@H]([C@H](O[C@H]([C@@H]5O)O[C@H]6CC[C@]7([C@H]([C@@]6(C)CO)CC[C@@]8([C@@H]7CC=C9[C@]8(C=C[C@@]1([C@H]9CC(CC1)(C)C)C)C)C)C)C(=O)O)O)O)O)CO)O[C@H]1[C@@H]([C@H]([C@H]([C@H](O1)CO)O)O)O)O)O)O)O)O

>  <PUBCHEM_CACTVS_TPSA>
492

>  <PUBCHEM_MONOISOTOPIC_WEIGHT>
1380.656

>  <PUBCHEM_TOTAL_CHARGE>
0

>  <PUBCHEM_HEAVY_ATOM_COUNT>
96

>  <PUBCHEM_ATOM_DEF_STEREO_COUNT>
38

>  <PUBCHEM_ATOM_UDEF_STEREO_COUNT>
0

>  <PUBCHEM_BOND_DEF_STEREO_COUNT>
0

>  <PUBCHEM_BOND_UDEF_STEREO_COUNT>
0

>  <PUBCHEM_ISOTOPIC_ATOM_COUNT>
0

>  <PUBCHEM_COMPONENT_COUNT>
1

>  <PUBCHEM_CACTVS_TAUTO_COUNT>
1

>  <PUBCHEM_COORDINATE_TYPE>
1
5
255

>  <PUBCHEM_BONDANNOTATIONS>
43  1  5
62  1  5
69  10  6
73  10  5
70  11  5
72  12  5
74  14  6
75  15  5
77  16  5
79  16  6
80  19  5
85  19  6
81  20  6
83  21  5
90  23  5
86  24  5
87  25  6
89  27  6
91  28  6
93  30  6
95  31  5
32  46  5
33  47  5
34  97  6
35  98  6
36  51  6
37  53  6
63  4  6
44  108  5
48  59  5
64  5  5
68  5  5
66  6  6
65  67  5
76  78  5
82  84  6
88  92  6
94  96  6

$$$$
