44257408
 OpenBabel06101807152D

 43 47  0  0  1  0  0  0  0  0999 V2000
    2.9180    1.5056    0.0000 O   0  0  0  0  0  0  0  0  0  0  0  0
    2.0000   -1.0429    0.0000 O   0  0  0  0  0  0  0  0  0  0  0  0
    4.7689   -0.1681    0.0000 O   0  0  0  0  0  0  0  0  0  0  0  0
    5.5161    0.0056    0.0000 O   0  0  0  0  0  0  0  0  0  0  0  0
    4.8839    4.5871    0.0000 O   0  0  0  0  0  0  0  0  0  0  0  0
    5.6405   -3.1314    0.0000 O   0  0  0  0  0  0  0  0  0  0  0  0
    3.8372   -4.1911    0.0000 O   0  0  0  0  0  0  0  0  0  0  0  0
    3.7841    0.0056    0.0000 C   0  0  3  0  0  0  0  0  0  0  0  0
    2.9180    0.5056    0.0000 C   0  0  3  0  0  0  0  0  0  0  0  0
    3.8001   -1.0359    0.0000 C   0  0  0  0  0  0  0  0  0  0  0  0
    2.0080   -0.0013    0.0000 C   0  0  0  0  0  0  0  0  0  0  0  0
    4.6501    0.5056    0.0000 C   0  0  0  0  0  0  0  0  0  0  0  0
    4.6501    1.5056    0.0000 C   0  0  0  0  0  0  0  0  0  0  0  0
    2.9021   -1.5637    0.0000 C   0  0  0  0  0  0  0  0  0  0  0  0
    3.7841    2.0056    0.0000 C   0  0  0  0  0  0  0  0  0  0  0  0
    4.7520   -1.5566    0.0000 C   0  0  0  0  0  0  0  0  0  0  0  0
    5.5601    2.0124    0.0000 C   0  0  0  0  0  0  0  0  0  0  0  0
    2.8937   -2.6486    0.0000 C   0  0  0  0  0  0  0  0  0  0  0  0
    3.7680    3.0471    0.0000 C   0  0  0  0  0  0  0  0  0  0  0  0
    4.7688   -2.6414    0.0000 C   0  0  0  0  0  0  0  0  0  0  0  0
    5.5681    3.0540    0.0000 C   0  0  0  0  0  0  0  0  0  0  0  0
    4.6660    3.5748    0.0000 C   0  0  0  0  0  0  0  0  0  0  0  0
    3.8334   -3.1911    0.0000 C   0  0  0  0  0  0  0  0  0  0  0  0
    6.3358    3.7489    0.0000 C   0  0  0  0  0  0  0  0  0  0  0  0
    5.9138    4.6945    0.0000 C   0  0  0  0  0  0  0  0  0  0  0  0
    5.6521   -4.1313    0.0000 C   0  0  0  0  0  0  0  0  0  0  0  0
    2.9731   -4.6945    0.0000 C   0  0  0  0  0  0  0  0  0  0  0  0
    2.3835    0.8197    0.0000 H   0  0  0  0  0  0  0  0  0  0  0  0
    1.8035    0.5840    0.0000 H   0  0  0  0  0  0  0  0  0  0  0  0
    1.3964   -0.1026    0.0000 H   0  0  0  0  0  0  0  0  0  0  0  0
    5.2829   -1.2363    0.0000 H   0  0  0  0  0  0  0  0  0  0  0  0
    4.9809   -0.7507    0.0000 H   0  0  0  0  0  0  0  0  0  0  0  0
    6.0934    1.6962    0.0000 H   0  0  0  0  0  0  0  0  0  0  0  0
    2.3556   -2.9566    0.0000 H   0  0  0  0  0  0  0  0  0  0  0  0
    3.2275    3.3509    0.0000 H   0  0  0  0  0  0  0  0  0  0  0  0
    6.9425    3.6210    0.0000 H   0  0  0  0  0  0  0  0  0  0  0  0
    6.2238    5.2314    0.0000 H   0  0  0  0  0  0  0  0  0  0  0  0
    5.0321   -4.1385    0.0000 H   0  0  0  0  0  0  0  0  0  0  0  0
    5.6592   -4.7513    0.0000 H   0  0  0  0  0  0  0  0  0  0  0  0
    6.2720   -4.1241    0.0000 H   0  0  0  0  0  0  0  0  0  0  0  0
    2.6610   -4.1587    0.0000 H   0  0  0  0  0  0  0  0  0  0  0  0
    2.4374   -5.0065    0.0000 H   0  0  0  0  0  0  0  0  0  0  0  0
    3.2852   -5.2302    0.0000 H   0  0  0  0  0  0  0  0  0  0  0  0
  1  9  1  0  0  0  0
  1 15  1  0  0  0  0
  2 11  1  0  0  0  0
  2 14  1  0  0  0  0
  3  8  1  0  0  0  0
  3 32  1  0  0  0  0
  4 12  2  0  0  0  0
  5 22  1  0  0  0  0
  5 25  1  0  0  0  0
  6 20  1  0  0  0  0
  6 26  1  0  0  0  0
  7 23  1  0  0  0  0
  7 27  1  0  0  0  0
  8  9  1  0  0  0  0
  8 10  1  0  0  0  0
  8 12  1  0  0  0  0
  9 11  1  0  0  0  0
  9 28  1  0  0  0  0
 10 14  1  0  0  0  0
 10 16  2  0  0  0  0
 11 29  1  0  0  0  0
 11 30  1  0  0  0  0
 12 13  1  0  0  0  0
 13 15  2  0  0  0  0
 13 17  1  0  0  0  0
 14 18  2  0  0  0  0
 15 19  1  0  0  0  0
 16 20  1  0  0  0  0
 16 31  1  0  0  0  0
 17 21  2  0  0  0  0
 17 33  1  0  0  0  0
 18 23  1  0  0  0  0
 18 34  1  0  0  0  0
 19 22  2  0  0  0  0
 19 35  1  0  0  0  0
 20 23  2  0  0  0  0
 21 22  1  0  0  0  0
 21 24  1  0  0  0  0
 24 25  2  0  0  0  0
 24 36  1  0  0  0  0
 25 37  1  0  0  0  0
 26 38  1  0  0  0  0
 26 39  1  0  0  0  0
 26 40  1  0  0  0  0
 27 41  1  0  0  0  0
 27 42  1  0  0  0  0
 27 43  1  0  0  0  0
M  END
>  <PUBCHEM_COMPOUND_CID>
44257408

>  <PUBCHEM_COMPOUND_CANONICALIZED>
1

>  <PUBCHEM_CACTVS_COMPLEXITY>
597

>  <PUBCHEM_CACTVS_HBOND_ACCEPTOR>
7

>  <PUBCHEM_CACTVS_HBOND_DONOR>
1

>  <PUBCHEM_CACTVS_ROTATABLE_BOND>
2

>  <PUBCHEM_CACTVS_SUBSKEYS>
AAADceB4OAAAAAAAAAAAAAAAAAAAASAAAAA0aIEAAAAAAEiR9AAAGgAACAAADFSgmAIyBsAABkCIAqhSgAICCAAkIAAIiAFGiMgNJzaENRqCeWKl4BULuYfK7vzuoQADCAAIQABCAAYQABCAAAAAAAAAAA==

>  <PUBCHEM_IUPAC_INCHI>
InChI=1S/C20H16O7/c1-23-16-6-12-15(8-17(16)24-2)26-9-18-20(12,22)19(21)11-5-10-3-4-25-13(10)7-14(11)27-18/h3-8,18,22H,9H2,1-2H3

>  <PUBCHEM_IUPAC_INCHIKEY>
SXKFYDWIBCRCRI-UHFFFAOYSA-N

>  <PUBCHEM_XLOGP3_AA>
2.5

>  <PUBCHEM_EXACT_MASS>
368.09

>  <PUBCHEM_MOLECULAR_FORMULA>
C20H16O7

>  <PUBCHEM_MOLECULAR_WEIGHT>
368.341

>  <PUBCHEM_OPENEYE_CAN_SMILES>
COC1=C(C=C2C(=C1)C3(C(CO2)OC4=C(C3=O)C=C5C=COC5=C4)O)OC

>  <PUBCHEM_OPENEYE_ISO_SMILES>
COC1=C(C=C2C(=C1)C3(C(CO2)OC4=C(C3=O)C=C5C=COC5=C4)O)OC

>  <PUBCHEM_CACTVS_TPSA>
87.4

>  <PUBCHEM_MONOISOTOPIC_WEIGHT>
368.09

>  <PUBCHEM_TOTAL_CHARGE>
0

>  <PUBCHEM_HEAVY_ATOM_COUNT>
27

>  <PUBCHEM_ATOM_DEF_STEREO_COUNT>
0

>  <PUBCHEM_ATOM_UDEF_STEREO_COUNT>
2

>  <PUBCHEM_BOND_DEF_STEREO_COUNT>
0

>  <PUBCHEM_BOND_UDEF_STEREO_COUNT>
0

>  <PUBCHEM_ISOTOPIC_ATOM_COUNT>
0

>  <PUBCHEM_COMPONENT_COUNT>
1

>  <PUBCHEM_CACTVS_TAUTO_COUNT>
1

>  <PUBCHEM_COORDINATE_TYPE>
1
5
255

>  <PUBCHEM_BONDANNOTATIONS>
10  14  8
10  16  8
13  15  8
13  17  8
14  18  8
15  19  8
16  20  8
17  21  8
18  23  8
19  22  8
20  23  8
21  22  8
21  24  8
24  25  8
8  3  3
5  22  8
5  25  8
9  11  3

$$$$
