44258129
 OpenBabel06101807152D

 98103  0  0  1  0  0  0  0  0999 V2000
    8.0622   -2.1796    0.0000 O   0  0  0  0  0  0  0  0  0  0  0  0
    4.5981   -2.1796    0.0000 O   0  0  0  0  0  0  0  0  0  0  0  0
    6.3301   -0.1796    0.0000 O   0  0  0  0  0  0  0  0  0  0  0  0
    9.0327   -0.6850    0.0000 O   0  0  0  0  0  0  0  0  0  0  0  0
    5.4641   -3.6796    0.0000 O   0  0  0  0  0  0  0  0  0  0  0  0
    6.3301   -3.1796    0.0000 O   0  0  0  0  0  0  0  0  0  0  0  0
    8.0622   -0.1796    0.0000 O   0  0  0  0  0  0  0  0  0  0  0  0
   11.3769   -0.8432    0.0000 O   0  0  0  0  0  0  0  0  0  0  0  0
   10.0497   -3.0644    0.0000 O   0  0  0  0  0  0  0  0  0  0  0  0
    2.8660   -3.1796    0.0000 O   0  0  0  0  0  0  0  0  0  0  0  0
    4.5981    0.8204    0.0000 O   0  0  0  0  0  0  0  0  0  0  0  0
    2.8660   -5.1796    0.0000 O   0  0  0  0  0  0  0  0  0  0  0  0
    4.5981   -6.1796    0.0000 O   0  0  0  0  0  0  0  0  0  0  0  0
   12.2051   -1.7033    0.0000 O   0  0  0  0  0  0  0  0  0  0  0  0
    7.1962   -4.6796    0.0000 O   0  0  0  0  0  0  0  0  0  0  0  0
    2.8660    0.8204    0.0000 O   0  0  0  0  0  0  0  0  0  0  0  0
    9.8181    2.8829    0.0000 O   0  0  0  0  0  0  0  0  0  0  0  0
    6.3159    2.8996    0.0000 O   0  0  0  0  0  0  0  0  0  0  0  0
    7.2259    4.3930    0.0000 O   0  0  0  0  0  0  0  0  0  0  0  0
    2.8660    3.8204    0.0000 O   0  0  0  0  0  0  0  0  0  0  0  0
    2.0000    2.3204    0.0000 O   0  0  0  0  0  0  0  0  0  0  0  0
   13.2861    3.8696    0.0000 O   0  0  0  0  0  0  0  0  0  0  0  0
   13.2938    5.8696    0.0000 O   0  0  0  0  0  0  0  0  0  0  0  0
    5.4641   -1.6796    0.0000 C   0  0  1  0  0  0  0  0  0  0  0  0
    6.3301   -2.1796    0.0000 C   0  0  1  0  0  0  0  0  0  0  0  0
    7.1962   -1.6796    0.0000 C   0  0  3  0  0  0  0  0  0  0  0  0
    5.4641   -0.6796    0.0000 C   0  0  3  0  0  0  0  0  0  0  0  0
    7.1962   -0.6796    0.0000 C   0  0  1  0  0  0  0  0  0  0  0  0
    8.9282   -1.6796    0.0000 C   0  0  2  0  0  0  0  0  0  0  0  0
   10.5109   -1.3432    0.0000 C   0  0  3  0  0  0  0  0  0  0  0  0
    9.8418   -2.0863    0.0000 C   0  0  2  0  0  0  0  0  0  0  0  0
    4.5981   -3.1796    0.0000 C   0  0  2  0  0  0  0  0  0  0  0  0
    3.7320   -3.6796    0.0000 C   0  0  3  0  0  0  0  0  0  0  0  0
    3.7320   -4.6796    0.0000 C   0  0  2  0  0  0  0  0  0  0  0  0
   10.0109   -0.4771    0.0000 C   0  0  0  0  0  0  0  0  0  0  0  0
    4.5981   -5.1796    0.0000 C   0  0  1  0  0  0  0  0  0  0  0  0
    5.4641   -4.6796    0.0000 C   0  0  3  0  0  0  0  0  0  0  0  0
    4.5981   -0.1796    0.0000 C   0  0  0  0  0  0  0  0  0  0  0  0
   11.2540   -2.0123    0.0000 C   0  0  0  0  0  0  0  0  0  0  0  0
    6.3301   -5.1796    0.0000 C   0  0  0  0  0  0  0  0  0  0  0  0
    8.0622    0.8204    0.0000 C   0  0  0  0  0  0  0  0  0  0  0  0
    3.7320    1.3204    0.0000 C   0  0  0  0  0  0  0  0  0  0  0  0
    8.9622    1.3447    0.0000 C   0  0  0  0  0  0  0  0  0  0  0  0
    7.1621    1.3447    0.0000 C   0  0  0  0  0  0  0  0  0  0  0  0
    8.9502    2.3863    0.0000 C   0  0  0  0  0  0  0  0  0  0  0  0
    7.1742    2.3863    0.0000 C   0  0  0  0  0  0  0  0  0  0  0  0
    3.7320    2.3204    0.0000 C   0  0  0  0  0  0  0  0  0  0  0  0
    8.0861    2.8896    0.0000 C   0  0  0  0  0  0  0  0  0  0  0  0
    8.0900    3.8896    0.0000 C   0  0  0  0  0  0  0  0  0  0  0  0
    2.8660    2.8204    0.0000 C   0  0  0  0  0  0  0  0  0  0  0  0
    9.8220    3.8829    0.0000 C   0  0  0  0  0  0  0  0  0  0  0  0
    8.9579    4.3863    0.0000 C   0  0  0  0  0  0  0  0  0  0  0  0
   10.6899    4.3796    0.0000 C   0  0  0  0  0  0  0  0  0  0  0  0
   11.5540    3.8763    0.0000 C   0  0  0  0  0  0  0  0  0  0  0  0
   10.6938    5.3796    0.0000 C   0  0  0  0  0  0  0  0  0  0  0  0
   12.4220    4.3729    0.0000 C   0  0  0  0  0  0  0  0  0  0  0  0
   11.5617    5.8762    0.0000 C   0  0  0  0  0  0  0  0  0  0  0  0
   12.4258    5.3729    0.0000 C   0  0  0  0  0  0  0  0  0  0  0  0
    4.9272   -1.3696    0.0000 H   0  0  0  0  0  0  0  0  0  0  0  0
    5.7932   -2.4896    0.0000 H   0  0  0  0  0  0  0  0  0  0  0  0
    7.7331   -1.3696    0.0000 H   0  0  0  0  0  0  0  0  0  0  0  0
    5.4641   -0.0596    0.0000 H   0  0  0  0  0  0  0  0  0  0  0  0
    7.1962   -0.0596    0.0000 H   0  0  0  0  0  0  0  0  0  0  0  0
    8.9606   -2.2987    0.0000 H   0  0  0  0  0  0  0  0  0  0  0  0
   10.4406   -2.2468    0.0000 H   0  0  0  0  0  0  0  0  0  0  0  0
    4.0611   -2.8696    0.0000 H   0  0  0  0  0  0  0  0  0  0  0  0
    4.2690   -3.9896    0.0000 H   0  0  0  0  0  0  0  0  0  0  0  0
    3.7320   -5.2996    0.0000 H   0  0  0  0  0  0  0  0  0  0  0  0
   10.5773   -0.2250    0.0000 H   0  0  0  0  0  0  0  0  0  0  0  0
    9.8193    0.1125    0.0000 H   0  0  0  0  0  0  0  0  0  0  0  0
    5.1350   -5.4896    0.0000 H   0  0  0  0  0  0  0  0  0  0  0  0
    6.0010   -4.3696    0.0000 H   0  0  0  0  0  0  0  0  0  0  0  0
    3.9875   -0.0719    0.0000 H   0  0  0  0  0  0  0  0  0  0  0  0
    4.3860   -0.7622    0.0000 H   0  0  0  0  0  0  0  0  0  0  0  0
   10.7655   -2.3940    0.0000 H   0  0  0  0  0  0  0  0  0  0  0  0
   11.5451   -2.5597    0.0000 H   0  0  0  0  0  0  0  0  0  0  0  0
    6.8671   -3.4896    0.0000 H   0  0  0  0  0  0  0  0  0  0  0  0
    5.9316   -5.6545    0.0000 H   0  0  0  0  0  0  0  0  0  0  0  0
    6.7287   -5.6545    0.0000 H   0  0  0  0  0  0  0  0  0  0  0  0
   11.3769   -0.2232    0.0000 H   0  0  0  0  0  0  0  0  0  0  0  0
    9.5889   -3.4793    0.0000 H   0  0  0  0  0  0  0  0  0  0  0  0
    2.3291   -3.4896    0.0000 H   0  0  0  0  0  0  0  0  0  0  0  0
    2.8660   -5.7996    0.0000 H   0  0  0  0  0  0  0  0  0  0  0  0
    5.1350   -6.4896    0.0000 H   0  0  0  0  0  0  0  0  0  0  0  0
   12.6658   -2.1181    0.0000 H   0  0  0  0  0  0  0  0  0  0  0  0
    7.7331   -4.9896    0.0000 H   0  0  0  0  0  0  0  0  0  0  0  0
    9.5016    1.0389    0.0000 H   0  0  0  0  0  0  0  0  0  0  0  0
    6.6228    1.0389    0.0000 H   0  0  0  0  0  0  0  0  0  0  0  0
    4.3426    2.2128    0.0000 H   0  0  0  0  0  0  0  0  0  0  0  0
    3.9441    2.9030    0.0000 H   0  0  0  0  0  0  0  0  0  0  0  0
    6.3255    3.5195    0.0000 H   0  0  0  0  0  0  0  0  0  0  0  0
    8.9603    5.0063    0.0000 H   0  0  0  0  0  0  0  0  0  0  0  0
    2.3291    4.1304    0.0000 H   0  0  0  0  0  0  0  0  0  0  0  0
   11.5516    3.2563    0.0000 H   0  0  0  0  0  0  0  0  0  0  0  0
   10.1581    5.6916    0.0000 H   0  0  0  0  0  0  0  0  0  0  0  0
   11.5641    6.4962    0.0000 H   0  0  0  0  0  0  0  0  0  0  0  0
   13.8242    4.1775    0.0000 H   0  0  0  0  0  0  0  0  0  0  0  0
   13.2962    6.4896    0.0000 H   0  0  0  0  0  0  0  0  0  0  0  0
  1 26  1  0  0  0  0
  3 27  1  0  0  0  0
  3 28  1  0  0  0  0
  4 29  1  0  0  0  0
  4 35  1  0  0  0  0
  5 32  1  0  0  0  0
  5 37  1  0  0  0  0
  6 77  1  0  0  0  0
  7 41  1  0  0  0  0
  8 30  1  0  0  0  0
  8 80  1  0  0  0  0
  9 81  1  0  0  0  0
 10 33  1  0  0  0  0
 10 82  1  0  0  0  0
 11 38  1  0  0  0  0
 11 42  1  0  0  0  0
 12 83  1  0  0  0  0
 13 84  1  0  0  0  0
 14 39  1  0  0  0  0
 14 85  1  0  0  0  0
 15 40  1  0  0  0  0
 15 86  1  0  0  0  0
 16 42  2  0  0  0  0
 17 45  1  0  0  0  0
 17 51  1  0  0  0  0
 18 46  1  0  0  0  0
 18 91  1  0  0  0  0
 19 49  2  0  0  0  0
 20 50  1  0  0  0  0
 20 93  1  0  0  0  0
 21 50  2  0  0  0  0
 22 56  1  0  0  0  0
 22 97  1  0  0  0  0
 23 58  1  0  0  0  0
 23 98  1  0  0  0  0
 24  2  1  0  0  0  0
 24 25  1  1  0  0  0
 24 27  1  0  0  0  0
 24 59  1  0  0  0  0
 25  6  1  0  0  0  0
 25 26  1  6  0  0  0
 25 60  1  0  0  0  0
 26 61  1  0  0  0  0
 27 38  1  0  0  0  0
 27 62  1  0  0  0  0
 28  7  1  0  0  0  0
 28 26  1  6  0  0  0
 28 63  1  0  0  0  0
 29  1  1  0  0  0  0
 29 31  1  6  0  0  0
 29 64  1  0  0  0  0
 30 35  1  0  0  0  0
 30 39  1  0  0  0  0
 31  9  1  0  0  0  0
 31 30  1  6  0  0  0
 31 65  1  0  0  0  0
 32  2  1  0  0  0  0
 32 33  1  6  0  0  0
 32 66  1  0  0  0  0
 33 67  1  0  0  0  0
 34 12  1  0  0  0  0
 34 33  1  1  0  0  0
 34 68  1  0  0  0  0
 35 69  1  0  0  0  0
 35 70  1  0  0  0  0
 36 13  1  0  0  0  0
 36 34  1  6  0  0  0
 36 37  1  0  0  0  0
 36 71  1  0  0  0  0
 37 40  1  0  0  0  0
 37 72  1  0  0  0  0
 38 73  1  0  0  0  0
 38 74  1  0  0  0  0
 39 75  1  0  0  0  0
 39 76  1  0  0  0  0
 40 78  1  0  0  0  0
 40 79  1  0  0  0  0
 41 43  1  0  0  0  0
 41 44  2  0  0  0  0
 42 47  1  0  0  0  0
 43 45  2  0  0  0  0
 43 87  1  0  0  0  0
 44 46  1  0  0  0  0
 44 88  1  0  0  0  0
 45 48  1  0  0  0  0
 46 48  2  0  0  0  0
 47 50  1  0  0  0  0
 47 89  1  0  0  0  0
 47 90  1  0  0  0  0
 48 49  1  0  0  0  0
 49 52  1  0  0  0  0
 51 52  2  0  0  0  0
 51 53  1  0  0  0  0
 52 92  1  0  0  0  0
 53 54  2  0  0  0  0
 53 55  1  0  0  0  0
 54 56  1  0  0  0  0
 54 94  1  0  0  0  0
 55 57  2  0  0  0  0
 55 95  1  0  0  0  0
 56 58  2  0  0  0  0
 57 58  1  0  0  0  0
 57 96  1  0  0  0  0
M  END
>  <PUBCHEM_COMPOUND_CID>
44258129

>  <PUBCHEM_COMPOUND_CANONICALIZED>
1

>  <PUBCHEM_CACTVS_COMPLEXITY>
1480

>  <PUBCHEM_CACTVS_HBOND_ACCEPTOR>
23

>  <PUBCHEM_CACTVS_HBOND_DONOR>
12

>  <PUBCHEM_CACTVS_ROTATABLE_BOND>
14

>  <PUBCHEM_CACTVS_SUBSKEYS>
AAADcfB8PgAAAAAAAAAAAAAAAAAAASAAAAA0aIECAAAAAACBQAAAGgAACAAADFSwmAMwDoAABgCIAqDSCAACCAAkIAAIiAEGiMgdNzaONRqieWGl4BUPuQfI7LzOIAABCAAIQABAAAIQABCAAAAAAAAAAA==

>  <PUBCHEM_IUPAC_OPENEYE_NAME>
3-[[(3S,4S,6S)-5-[(2S,3S)-3,4-dihydroxy-4-(hydroxymethyl)tetrahydrofuran-2-yl]oxy-6-[2-(3,4-dihydroxyphenyl)-5-hydroxy-4-oxo-chromen-7-yl]oxy-4-hydroxy-3-[(2S,4S,5S)-3,4,5-trihydroxy-6-(hydroxymethyl)tetrahydropyran-2-yl]oxy-tetrahydropyran-2-yl]methoxy]-3-oxo-propanoic acid

>  <PUBCHEM_IUPAC_CAS_NAME>
3-[[(3S,4S,6S)-5-[[(2S,3S)-3,4-dihydroxy-4-(hydroxymethyl)-2-oxolanyl]oxy]-6-[[2-(3,4-dihydroxyphenyl)-5-hydroxy-4-oxo-1-benzopyran-7-yl]oxy]-4-hydroxy-3-[[(2S,4S,5S)-3,4,5-trihydroxy-6-(hydroxymethyl)-2-oxanyl]oxy]-2-oxanyl]methoxy]-3-oxopropanoic acid

>  <PUBCHEM_IUPAC_NAME>
3-[[(3S,4S,6S)-5-[(2S,3S)-3,4-dihydroxy-4-(hydroxymethyl)oxolan-2-yl]oxy-6-[2-(3,4-dihydroxyphenyl)-5-hydroxy-4-oxochromen-7-yl]oxy-4-hydroxy-3-[(2S,4S,5S)-3,4,5-trihydroxy-6-(hydroxymethyl)oxan-2-yl]oxyoxan-2-yl]methoxy]-3-oxopropanoic acid

>  <PUBCHEM_IUPAC_SYSTEMATIC_NAME>
3-[[(3S,4S,6S)-6-[2-[3,4-bis(oxidanyl)phenyl]-5-oxidanyl-4-oxidanylidene-chromen-7-yl]oxy-5-[(2S,3S)-4-(hydroxymethyl)-3,4-bis(oxidanyl)oxolan-2-yl]oxy-3-[(2S,4S,5S)-6-(hydroxymethyl)-3,4,5-tris(oxidanyl)oxan-2-yl]oxy-4-oxidanyl-oxan-2-yl]methoxy]-3-oxidanylidene-propanoic acid

>  <PUBCHEM_IUPAC_TRADITIONAL_NAME>
3-[[(3S,4S,6S)-5-[(2S,3S)-3,4-dihydroxy-4-methylol-tetrahydrofuran-2-yl]oxy-6-[2-(3,4-dihydroxyphenyl)-5-hydroxy-4-keto-chromen-7-yl]oxy-4-hydroxy-3-[(2S,4S,5S)-3,4,5-trihydroxy-6-methylol-tetrahydropyran-2-yl]oxy-tetrahydropyran-2-yl]methoxy]-3-keto-propionic acid

>  <PUBCHEM_IUPAC_INCHI>
InChI=1S/C35H40O23/c36-8-20-25(45)26(46)27(47)32(55-20)57-29-21(9-51-23(44)7-22(42)43)56-33(30(28(29)48)58-34-31(49)35(50,10-37)11-52-34)53-13-4-16(40)24-17(41)6-18(54-19(24)5-13)12-1-2-14(38)15(39)3-12/h1-6,20-21,25-34,36-40,45-50H,7-11H2,(H,42,43)/t20?,21?,25-,26+,27?,28+,29-,30?,31-,32+,33-,34+,35?/m1/s1

>  <PUBCHEM_IUPAC_INCHIKEY>
UAGBVLJNVRPERW-GGBSEEMMSA-N

>  <PUBCHEM_XLOGP3_AA>
-2.6

>  <PUBCHEM_EXACT_MASS>
828.196

>  <PUBCHEM_MOLECULAR_FORMULA>
C35H40O23

>  <PUBCHEM_MOLECULAR_WEIGHT>
828.682

>  <PUBCHEM_OPENEYE_CAN_SMILES>
C1C(C(C(O1)OC2C(C(C(OC2OC3=CC(=C4C(=C3)OC(=CC4=O)C5=CC(=C(C=C5)O)O)O)COC(=O)CC(=O)O)OC6C(C(C(C(O6)CO)O)O)O)O)O)(CO)O

>  <PUBCHEM_OPENEYE_ISO_SMILES>
C1C([C@@H]([C@@H](O1)OC2[C@H]([C@@H](C(O[C@H]2OC3=CC(=C4C(=C3)OC(=CC4=O)C5=CC(=C(C=C5)O)O)O)COC(=O)CC(=O)O)O[C@H]6C([C@H]([C@@H](C(O6)CO)O)O)O)O)O)(CO)O

>  <PUBCHEM_CACTVS_TPSA>
368

>  <PUBCHEM_MONOISOTOPIC_WEIGHT>
828.196

>  <PUBCHEM_TOTAL_CHARGE>
0

>  <PUBCHEM_HEAVY_ATOM_COUNT>
58

>  <PUBCHEM_ATOM_DEF_STEREO_COUNT>
8

>  <PUBCHEM_ATOM_UDEF_STEREO_COUNT>
5

>  <PUBCHEM_BOND_DEF_STEREO_COUNT>
0

>  <PUBCHEM_BOND_UDEF_STEREO_COUNT>
0

>  <PUBCHEM_ISOTOPIC_ATOM_COUNT>
0

>  <PUBCHEM_COMPONENT_COUNT>
1

>  <PUBCHEM_CACTVS_TAUTO_COUNT>
68

>  <PUBCHEM_COORDINATE_TYPE>
1
5
255

>  <PUBCHEM_BONDANNOTATIONS>
26  1  3
29  1  6
33  10  3
34  12  6
36  13  5
17  45  8
17  51  8
24  2  6
32  2  6
27  38  3
37  40  3
41  43  8
41  44  8
43  45  8
44  46  8
45  48  8
46  48  8
48  49  8
49  52  8
51  52  8
53  54  8
53  55  8
54  56  8
55  57  8
56  58  8
57  58  8
25  6  5
28  7  5
30  8  3
31  9  6

$$$$
