44257395
 OpenBabel06101807152D

 39 41  0  0  1  0  0  0  0  0999 V2000
    5.5301   -1.7379    0.0000 O   0  0  0  0  0  0  0  0  0  0  0  0
    5.5301    1.2621    0.0000 O   0  0  0  0  0  0  0  0  0  0  0  0
    8.1282   -1.2379    0.0000 O   0  0  0  0  0  0  0  0  0  0  0  0
    3.7817    1.2967    0.0000 O   0  0  0  0  0  0  0  0  0  0  0  0
    2.0000   -1.7621    0.0000 O   0  0  0  0  0  0  0  0  0  0  0  0
    9.8602    1.7621    0.0000 O   0  0  0  0  0  0  0  0  0  0  0  0
    6.3961   -0.2379    0.0000 C   0  0  3  0  0  0  0  0  0  0  0  0
    6.3961   -1.2379    0.0000 C   0  0  0  0  0  0  0  0  0  0  0  0
    7.2622    0.2621    0.0000 C   0  0  0  0  0  0  0  0  0  0  0  0
    5.5301    0.2621    0.0000 C   0  0  0  0  0  0  0  0  0  0  0  0
    4.6641   -0.2379    0.0000 C   0  0  0  0  0  0  0  0  0  0  0  0
    4.6641   -1.2379    0.0000 C   0  0  0  0  0  0  0  0  0  0  0  0
    8.1282   -0.2379    0.0000 C   0  0  0  0  0  0  0  0  0  0  0  0
    3.7702    0.2967    0.0000 C   0  0  0  0  0  0  0  0  0  0  0  0
    7.2622    1.2621    0.0000 C   0  0  0  0  0  0  0  0  0  0  0  0
    3.7702   -1.7726    0.0000 C   0  0  0  0  0  0  0  0  0  0  0  0
    2.8641   -0.2171    0.0000 C   0  0  0  0  0  0  0  0  0  0  0  0
    8.9942    0.2621    0.0000 C   0  0  0  0  0  0  0  0  0  0  0  0
    2.8641   -1.2587    0.0000 C   0  0  0  0  0  0  0  0  0  0  0  0
    8.1282    1.7621    0.0000 C   0  0  0  0  0  0  0  0  0  0  0  0
    8.9942    1.2621    0.0000 C   0  0  0  0  0  0  0  0  0  0  0  0
    8.9942   -1.7379    0.0000 C   0  0  0  0  0  0  0  0  0  0  0  0
    2.9215    1.8066    0.0000 C   0  0  0  0  0  0  0  0  0  0  0  0
    6.9331   -0.5479    0.0000 H   0  0  0  0  0  0  0  0  0  0  0  0
    6.6082   -1.8205    0.0000 H   0  0  0  0  0  0  0  0  0  0  0  0
    7.0067   -1.1303    0.0000 H   0  0  0  0  0  0  0  0  0  0  0  0
    6.7252    1.5721    0.0000 H   0  0  0  0  0  0  0  0  0  0  0  0
    3.7773   -2.3926    0.0000 H   0  0  0  0  0  0  0  0  0  0  0  0
    2.3284    0.0950    0.0000 H   0  0  0  0  0  0  0  0  0  0  0  0
    9.5312   -0.0479    0.0000 H   0  0  0  0  0  0  0  0  0  0  0  0
    8.1282    2.3821    0.0000 H   0  0  0  0  0  0  0  0  0  0  0  0
    8.6842   -2.2749    0.0000 H   0  0  0  0  0  0  0  0  0  0  0  0
    9.5312   -2.0479    0.0000 H   0  0  0  0  0  0  0  0  0  0  0  0
    9.3042   -1.2010    0.0000 H   0  0  0  0  0  0  0  0  0  0  0  0
    3.2377    2.3400    0.0000 H   0  0  0  0  0  0  0  0  0  0  0  0
    2.3882    2.1228    0.0000 H   0  0  0  0  0  0  0  0  0  0  0  0
    2.6054    1.2733    0.0000 H   0  0  0  0  0  0  0  0  0  0  0  0
    2.0024   -2.3821    0.0000 H   0  0  0  0  0  0  0  0  0  0  0  0
    9.8602    2.3821    0.0000 H   0  0  0  0  0  0  0  0  0  0  0  0
  1  8  1  0  0  0  0
  1 12  1  0  0  0  0
  2 10  2  0  0  0  0
  3 13  1  0  0  0  0
  3 22  1  0  0  0  0
  4 14  1  0  0  0  0
  4 23  1  0  0  0  0
  5 19  1  0  0  0  0
  5 38  1  0  0  0  0
  6 21  1  0  0  0  0
  6 39  1  0  0  0  0
  7  8  1  0  0  0  0
  7  9  1  0  0  0  0
  7 10  1  0  0  0  0
  7 24  1  0  0  0  0
  8 25  1  0  0  0  0
  8 26  1  0  0  0  0
  9 13  2  0  0  0  0
  9 15  1  0  0  0  0
 10 11  1  0  0  0  0
 11 12  2  0  0  0  0
 11 14  1  0  0  0  0
 12 16  1  0  0  0  0
 13 18  1  0  0  0  0
 14 17  2  0  0  0  0
 15 20  2  0  0  0  0
 15 27  1  0  0  0  0
 16 19  2  0  0  0  0
 16 28  1  0  0  0  0
 17 19  1  0  0  0  0
 17 29  1  0  0  0  0
 18 21  2  0  0  0  0
 18 30  1  0  0  0  0
 20 21  1  0  0  0  0
 20 31  1  0  0  0  0
 22 32  1  0  0  0  0
 22 33  1  0  0  0  0
 22 34  1  0  0  0  0
 23 35  1  0  0  0  0
 23 36  1  0  0  0  0
 23 37  1  0  0  0  0
M  END
>  <PUBCHEM_COMPOUND_CID>
44257395

>  <PUBCHEM_COMPOUND_CANONICALIZED>
1

>  <PUBCHEM_CACTVS_COMPLEXITY>
427

>  <PUBCHEM_CACTVS_HBOND_ACCEPTOR>
6

>  <PUBCHEM_CACTVS_HBOND_DONOR>
2

>  <PUBCHEM_CACTVS_ROTATABLE_BOND>
3

>  <PUBCHEM_CACTVS_SUBSKEYS>
AAADceB4OAAAAAAAAAAAAAAAAAAAAAAAAAA0YIAAAAAAAACRQAAAGgAACAAADQSgmAIyBoAABgCIAqBSAAACCAAkIAAIiAEGCMgMJzaGNRqCeWCl4BUIuQfK7PzOoAAACAAIAABAAAAQABAAAAAAAAAAAA==

>  <PUBCHEM_IUPAC_OPENEYE_NAME>
7-hydroxy-3-(4-hydroxy-2-methoxy-phenyl)-5-methoxy-chroman-4-one

>  <PUBCHEM_IUPAC_CAS_NAME>
7-hydroxy-3-(4-hydroxy-2-methoxyphenyl)-5-methoxy-3,4-dihydro-2H-1-benzopyran-4-one

>  <PUBCHEM_IUPAC_NAME>
7-hydroxy-3-(4-hydroxy-2-methoxyphenyl)-5-methoxy-2,3-dihydrochromen-4-one

>  <PUBCHEM_IUPAC_SYSTEMATIC_NAME>
5-methoxy-3-(2-methoxy-4-oxidanyl-phenyl)-7-oxidanyl-2,3-dihydrochromen-4-one

>  <PUBCHEM_IUPAC_TRADITIONAL_NAME>
7-hydroxy-3-(4-hydroxy-2-methoxy-phenyl)-5-methoxy-chroman-4-one

>  <PUBCHEM_IUPAC_INCHI>
InChI=1S/C17H16O6/c1-21-13-5-9(18)3-4-11(13)12-8-23-15-7-10(19)6-14(22-2)16(15)17(12)20/h3-7,12,18-19H,8H2,1-2H3

>  <PUBCHEM_IUPAC_INCHIKEY>
VXWBAOPTFLXYTN-UHFFFAOYSA-N

>  <PUBCHEM_XLOGP3_AA>
2.3

>  <PUBCHEM_EXACT_MASS>
316.095

>  <PUBCHEM_MOLECULAR_FORMULA>
C17H16O6

>  <PUBCHEM_MOLECULAR_WEIGHT>
316.309

>  <PUBCHEM_OPENEYE_CAN_SMILES>
COC1=C(C=CC(=C1)O)C2COC3=CC(=CC(=C3C2=O)OC)O

>  <PUBCHEM_OPENEYE_ISO_SMILES>
COC1=C(C=CC(=C1)O)C2COC3=CC(=CC(=C3C2=O)OC)O

>  <PUBCHEM_CACTVS_TPSA>
85.2

>  <PUBCHEM_MONOISOTOPIC_WEIGHT>
316.095

>  <PUBCHEM_TOTAL_CHARGE>
0

>  <PUBCHEM_HEAVY_ATOM_COUNT>
23

>  <PUBCHEM_ATOM_DEF_STEREO_COUNT>
0

>  <PUBCHEM_ATOM_UDEF_STEREO_COUNT>
1

>  <PUBCHEM_BOND_DEF_STEREO_COUNT>
0

>  <PUBCHEM_BOND_UDEF_STEREO_COUNT>
0

>  <PUBCHEM_ISOTOPIC_ATOM_COUNT>
0

>  <PUBCHEM_COMPONENT_COUNT>
1

>  <PUBCHEM_CACTVS_TAUTO_COUNT>
37

>  <PUBCHEM_COORDINATE_TYPE>
1
5
255

>  <PUBCHEM_BONDANNOTATIONS>
11  12  8
11  14  8
12  16  8
13  18  8
14  17  8
15  20  8
16  19  8
17  19  8
18  21  8
20  21  8
7  9  3
9  13  8
9  15  8

$$$$
