44259702
 OpenBabel06101807152D

 47 49  0  0  0  0  0  0  0  0999 V2000
    5.5301   -0.1754    0.0000 O   0  0  0  0  0  0  0  0  0  0  0  0
    7.2622    1.8246    0.0000 O   0  0  0  0  0  0  0  0  0  0  0  0
    2.0000   -0.1995    0.0000 O   0  0  0  0  0  0  0  0  0  0  0  0
    3.7817    2.8592    0.0000 O   0  0  0  0  0  0  0  0  0  0  0  0
    5.5301    2.8246    0.0000 O   0  0  0  0  0  0  0  0  0  0  0  0
    8.1282   -2.6754    0.0000 O   0  0  0  0  0  0  0  0  0  0  0  0
    9.8602   -1.6754    0.0000 O   0  0  0  0  0  0  0  0  0  0  0  0
    4.6641    1.3246    0.0000 C   0  0  0  0  0  0  0  0  0  0  0  0
    4.6641    0.3246    0.0000 C   0  0  0  0  0  0  0  0  0  0  0  0
    6.3961    0.3246    0.0000 C   0  0  0  0  0  0  0  0  0  0  0  0
    3.7702    1.8593    0.0000 C   0  0  0  0  0  0  0  0  0  0  0  0
    2.8641    1.3454    0.0000 C   0  0  0  0  0  0  0  0  0  0  0  0
    5.5301    1.8246    0.0000 C   0  0  0  0  0  0  0  0  0  0  0  0
    6.3961    1.3246    0.0000 C   0  0  0  0  0  0  0  0  0  0  0  0
    7.2622   -0.1754    0.0000 C   0  0  0  0  0  0  0  0  0  0  0  0
    3.7702   -0.2101    0.0000 C   0  0  0  0  0  0  0  0  0  0  0  0
    2.8641    0.3038    0.0000 C   0  0  0  0  0  0  0  0  0  0  0  0
    7.2622   -1.1754    0.0000 C   0  0  0  0  0  0  0  0  0  0  0  0
    2.0000    1.8488    0.0000 C   0  0  0  0  0  0  0  0  0  0  0  0
    8.1282    0.3246    0.0000 C   0  0  0  0  0  0  0  0  0  0  0  0
    8.1282   -1.6754    0.0000 C   0  0  0  0  0  0  0  0  0  0  0  0
    8.9942   -1.1754    0.0000 C   0  0  0  0  0  0  0  0  0  0  0  0
    8.9942   -0.1754    0.0000 C   0  0  0  0  0  0  0  0  0  0  0  0
    7.2622    2.8246    0.0000 C   0  0  0  0  0  0  0  0  0  0  0  0
    2.0038   -1.1995    0.0000 C   0  0  0  0  0  0  0  0  0  0  0  0
    8.9942   -3.1754    0.0000 C   0  0  0  0  0  0  0  0  0  0  0  0
   10.7263   -1.1754    0.0000 C   0  0  0  0  0  0  0  0  0  0  0  0
    3.7773   -0.8300    0.0000 H   0  0  0  0  0  0  0  0  0  0  0  0
    6.7252   -1.4854    0.0000 H   0  0  0  0  0  0  0  0  0  0  0  0
    2.3121    2.3845    0.0000 H   0  0  0  0  0  0  0  0  0  0  0  0
    1.4643    2.1608    0.0000 H   0  0  0  0  0  0  0  0  0  0  0  0
    1.6879    1.3130    0.0000 H   0  0  0  0  0  0  0  0  0  0  0  0
    8.1282    0.9446    0.0000 H   0  0  0  0  0  0  0  0  0  0  0  0
    9.5312    0.1346    0.0000 H   0  0  0  0  0  0  0  0  0  0  0  0
    3.2484    3.1754    0.0000 H   0  0  0  0  0  0  0  0  0  0  0  0
    7.8822    2.8246    0.0000 H   0  0  0  0  0  0  0  0  0  0  0  0
    7.2622    3.4446    0.0000 H   0  0  0  0  0  0  0  0  0  0  0  0
    6.6422    2.8246    0.0000 H   0  0  0  0  0  0  0  0  0  0  0  0
    1.3839   -1.2019    0.0000 H   0  0  0  0  0  0  0  0  0  0  0  0
    2.0062   -1.8195    0.0000 H   0  0  0  0  0  0  0  0  0  0  0  0
    2.6238   -1.1971    0.0000 H   0  0  0  0  0  0  0  0  0  0  0  0
    8.6842   -3.7123    0.0000 H   0  0  0  0  0  0  0  0  0  0  0  0
    9.5312   -3.4854    0.0000 H   0  0  0  0  0  0  0  0  0  0  0  0
    9.3042   -2.6385    0.0000 H   0  0  0  0  0  0  0  0  0  0  0  0
   11.0363   -1.7123    0.0000 H   0  0  0  0  0  0  0  0  0  0  0  0
   11.2632   -0.8654    0.0000 H   0  0  0  0  0  0  0  0  0  0  0  0
   10.4163   -0.6385    0.0000 H   0  0  0  0  0  0  0  0  0  0  0  0
  1  9  1  0  0  0  0
  1 10  1  0  0  0  0
  2 14  1  0  0  0  0
  2 24  1  0  0  0  0
  3 17  1  0  0  0  0
  3 25  1  0  0  0  0
  4 11  1  0  0  0  0
  4 35  1  0  0  0  0
  5 13  2  0  0  0  0
  6 21  1  0  0  0  0
  6 26  1  0  0  0  0
  7 22  1  0  0  0  0
  7 27  1  0  0  0  0
  8  9  1  0  0  0  0
  8 11  2  0  0  0  0
  8 13  1  0  0  0  0
  9 16  2  0  0  0  0
 10 14  2  0  0  0  0
 10 15  1  0  0  0  0
 11 12  1  0  0  0  0
 12 17  2  0  0  0  0
 12 19  1  0  0  0  0
 13 14  1  0  0  0  0
 15 18  2  0  0  0  0
 15 20  1  0  0  0  0
 16 17  1  0  0  0  0
 16 28  1  0  0  0  0
 18 21  1  0  0  0  0
 18 29  1  0  0  0  0
 19 30  1  0  0  0  0
 19 31  1  0  0  0  0
 19 32  1  0  0  0  0
 20 23  2  0  0  0  0
 20 33  1  0  0  0  0
 21 22  2  0  0  0  0
 22 23  1  0  0  0  0
 23 34  1  0  0  0  0
 24 36  1  0  0  0  0
 24 37  1  0  0  0  0
 24 38  1  0  0  0  0
 25 39  1  0  0  0  0
 25 40  1  0  0  0  0
 25 41  1  0  0  0  0
 26 42  1  0  0  0  0
 26 43  1  0  0  0  0
 26 44  1  0  0  0  0
 27 45  1  0  0  0  0
 27 46  1  0  0  0  0
 27 47  1  0  0  0  0
M  END
>  <PUBCHEM_COMPOUND_CID>
44259702

>  <PUBCHEM_COMPOUND_CANONICALIZED>
1

>  <PUBCHEM_CACTVS_COMPLEXITY>
575

>  <PUBCHEM_CACTVS_HBOND_ACCEPTOR>
7

>  <PUBCHEM_CACTVS_HBOND_DONOR>
1

>  <PUBCHEM_CACTVS_ROTATABLE_BOND>
5

>  <PUBCHEM_CACTVS_SUBSKEYS>
AAADceB4OAAAAAAAAAAAAAAAAAAAAAAAAAAwYIAAAAAAAACBQAAAGgAACAAADASAmAIyBoAABgCIAqBSAAICCAAkIAAIiAFGiMgNJzaGNR6CeWKl4BUKuQfI7PzOIAADCAAIQABAAAYQABCAAAAAAAAAAA==

>  <PUBCHEM_IUPAC_OPENEYE_NAME>
2-(3,4-dimethoxyphenyl)-5-hydroxy-3,7-dimethoxy-6-methyl-chromen-4-one

>  <PUBCHEM_IUPAC_CAS_NAME>
2-(3,4-dimethoxyphenyl)-5-hydroxy-3,7-dimethoxy-6-methyl-1-benzopyran-4-one

>  <PUBCHEM_IUPAC_NAME>
2-(3,4-dimethoxyphenyl)-5-hydroxy-3,7-dimethoxy-6-methylchromen-4-one

>  <PUBCHEM_IUPAC_SYSTEMATIC_NAME>
2-(3,4-dimethoxyphenyl)-3,7-dimethoxy-6-methyl-5-oxidanyl-chromen-4-one

>  <PUBCHEM_IUPAC_TRADITIONAL_NAME>
2-(3,4-dimethoxyphenyl)-5-hydroxy-3,7-dimethoxy-6-methyl-chromone

>  <PUBCHEM_IUPAC_INCHI>
InChI=1S/C20H20O7/c1-10-13(24-3)9-15-16(17(10)21)18(22)20(26-5)19(27-15)11-6-7-12(23-2)14(8-11)25-4/h6-9,21H,1-5H3

>  <PUBCHEM_IUPAC_INCHIKEY>
AWXHAWRTEQFRHZ-UHFFFAOYSA-N

>  <PUBCHEM_XLOGP3_AA>
3.8

>  <PUBCHEM_EXACT_MASS>
372.121

>  <PUBCHEM_MOLECULAR_FORMULA>
C20H20O7

>  <PUBCHEM_MOLECULAR_WEIGHT>
372.373

>  <PUBCHEM_OPENEYE_CAN_SMILES>
CC1=C(C=C2C(=C1O)C(=O)C(=C(O2)C3=CC(=C(C=C3)OC)OC)OC)OC

>  <PUBCHEM_OPENEYE_ISO_SMILES>
CC1=C(C=C2C(=C1O)C(=O)C(=C(O2)C3=CC(=C(C=C3)OC)OC)OC)OC

>  <PUBCHEM_CACTVS_TPSA>
83.4

>  <PUBCHEM_MONOISOTOPIC_WEIGHT>
372.121

>  <PUBCHEM_TOTAL_CHARGE>
0

>  <PUBCHEM_HEAVY_ATOM_COUNT>
27

>  <PUBCHEM_ATOM_DEF_STEREO_COUNT>
0

>  <PUBCHEM_ATOM_UDEF_STEREO_COUNT>
0

>  <PUBCHEM_BOND_DEF_STEREO_COUNT>
0

>  <PUBCHEM_BOND_UDEF_STEREO_COUNT>
0

>  <PUBCHEM_ISOTOPIC_ATOM_COUNT>
0

>  <PUBCHEM_COMPONENT_COUNT>
1

>  <PUBCHEM_CACTVS_TAUTO_COUNT>
5

>  <PUBCHEM_COORDINATE_TYPE>
1
5
255

>  <PUBCHEM_BONDANNOTATIONS>
1  10  8
1  9  8
10  14  8
11  12  8
12  17  8
13  14  8
15  18  8
15  20  8
16  17  8
18  21  8
20  23  8
21  22  8
22  23  8
8  11  8
8  13  8
8  9  8
9  16  8

$$$$
