44257595
 OpenBabel06101807152D

 40 42  0  0  0  0  0  0  0  0999 V2000
    6.3981   -0.4254    0.0000 O   0  0  0  0  0  0  0  0  0  0  0  0
    7.2641   -1.9254    0.0000 O   0  0  0  0  0  0  0  0  0  0  0  0
    8.9962    1.0746    0.0000 O   0  0  0  0  0  0  0  0  0  0  0  0
    2.8680    1.5988    0.0000 O   0  0  0  0  0  0  0  0  0  0  0  0
    4.6497    2.6092    0.0000 O   0  0  0  0  0  0  0  0  0  0  0  0
    6.3981    2.5746    0.0000 O   0  0  0  0  0  0  0  0  0  0  0  0
    5.5320    1.0746    0.0000 C   0  0  0  0  0  0  0  0  0  0  0  0
    7.2641    0.0746    0.0000 C   0  0  0  0  0  0  0  0  0  0  0  0
    8.1301   -0.4254    0.0000 C   0  0  0  0  0  0  0  0  0  0  0  0
    5.5320    0.0746    0.0000 C   0  0  0  0  0  0  0  0  0  0  0  0
    6.3981    1.5746    0.0000 C   0  0  0  0  0  0  0  0  0  0  0  0
    7.2641    1.0746    0.0000 C   0  0  0  0  0  0  0  0  0  0  0  0
    4.6381    1.6093    0.0000 C   0  0  0  0  0  0  0  0  0  0  0  0
    8.1301   -1.4254    0.0000 C   0  0  0  0  0  0  0  0  0  0  0  0
    8.9962    0.0746    0.0000 C   0  0  0  0  0  0  0  0  0  0  0  0
    4.6381   -0.4601    0.0000 C   0  0  0  0  0  0  0  0  0  0  0  0
    3.7320    1.0954    0.0000 C   0  0  0  0  0  0  0  0  0  0  0  0
    3.7320    0.0538    0.0000 C   0  0  0  0  0  0  0  0  0  0  0  0
    8.9962   -1.9254    0.0000 C   0  0  0  0  0  0  0  0  0  0  0  0
    9.8622   -0.4254    0.0000 C   0  0  0  0  0  0  0  0  0  0  0  0
    9.8622   -1.4254    0.0000 C   0  0  0  0  0  0  0  0  0  0  0  0
    7.2641   -2.9254    0.0000 C   0  0  0  0  0  0  0  0  0  0  0  0
    9.8622    1.5746    0.0000 C   0  0  0  0  0  0  0  0  0  0  0  0
    2.0000    1.1021    0.0000 C   0  0  0  0  0  0  0  0  0  0  0  0
    7.8010    1.3846    0.0000 H   0  0  0  0  0  0  0  0  0  0  0  0
    4.6453   -1.0800    0.0000 H   0  0  0  0  0  0  0  0  0  0  0  0
    3.1963   -0.2583    0.0000 H   0  0  0  0  0  0  0  0  0  0  0  0
    8.9962   -2.5454    0.0000 H   0  0  0  0  0  0  0  0  0  0  0  0
   10.3991   -0.1154    0.0000 H   0  0  0  0  0  0  0  0  0  0  0  0
   10.3991   -1.7354    0.0000 H   0  0  0  0  0  0  0  0  0  0  0  0
    4.1164    2.9254    0.0000 H   0  0  0  0  0  0  0  0  0  0  0  0
    6.6441   -2.9254    0.0000 H   0  0  0  0  0  0  0  0  0  0  0  0
    7.2641   -3.5454    0.0000 H   0  0  0  0  0  0  0  0  0  0  0  0
    7.8841   -2.9254    0.0000 H   0  0  0  0  0  0  0  0  0  0  0  0
   10.1722    1.0377    0.0000 H   0  0  0  0  0  0  0  0  0  0  0  0
   10.3991    1.8846    0.0000 H   0  0  0  0  0  0  0  0  0  0  0  0
    9.5522    2.1115    0.0000 H   0  0  0  0  0  0  0  0  0  0  0  0
    1.6921    1.6402    0.0000 H   0  0  0  0  0  0  0  0  0  0  0  0
    1.4619    0.7942    0.0000 H   0  0  0  0  0  0  0  0  0  0  0  0
    2.3079    0.5640    0.0000 H   0  0  0  0  0  0  0  0  0  0  0  0
  1  8  1  0  0  0  0
  1 10  1  0  0  0  0
  2 14  1  0  0  0  0
  2 22  1  0  0  0  0
  3 15  1  0  0  0  0
  3 23  1  0  0  0  0
  4 17  1  0  0  0  0
  4 24  1  0  0  0  0
  5 13  1  0  0  0  0
  5 31  1  0  0  0  0
  6 11  2  0  0  0  0
  7 10  2  0  0  0  0
  7 11  1  0  0  0  0
  7 13  1  0  0  0  0
  8  9  1  0  0  0  0
  8 12  2  0  0  0  0
  9 14  2  0  0  0  0
  9 15  1  0  0  0  0
 10 16  1  0  0  0  0
 11 12  1  0  0  0  0
 12 25  1  0  0  0  0
 13 17  2  0  0  0  0
 14 19  1  0  0  0  0
 15 20  2  0  0  0  0
 16 18  2  0  0  0  0
 16 26  1  0  0  0  0
 17 18  1  0  0  0  0
 18 27  1  0  0  0  0
 19 21  2  0  0  0  0
 19 28  1  0  0  0  0
 20 21  1  0  0  0  0
 20 29  1  0  0  0  0
 21 30  1  0  0  0  0
 22 32  1  0  0  0  0
 22 33  1  0  0  0  0
 22 34  1  0  0  0  0
 23 35  1  0  0  0  0
 23 36  1  0  0  0  0
 23 37  1  0  0  0  0
 24 38  1  0  0  0  0
 24 39  1  0  0  0  0
 24 40  1  0  0  0  0
M  END
>  <PUBCHEM_COMPOUND_CID>
44257595

>  <PUBCHEM_COMPOUND_CANONICALIZED>
1

>  <PUBCHEM_CACTVS_COMPLEXITY>
478

>  <PUBCHEM_CACTVS_HBOND_ACCEPTOR>
6

>  <PUBCHEM_CACTVS_HBOND_DONOR>
1

>  <PUBCHEM_CACTVS_ROTATABLE_BOND>
4

>  <PUBCHEM_CACTVS_SUBSKEYS>
AAADceB4OAAAAAAAAAAAAAAAAAAAAAAAAAAwYIAAAAAAAACBQAAAGgAACAAADASAmAIyBoAABgCIAqBSAAACCAAkIAAIiAEGiMgNJzaGNRqCeWOl4BULuQfK6LyOAQABCAAIQAACAAIQABCAAAAAAAAAAA==

>  <PUBCHEM_IUPAC_OPENEYE_NAME>
2-(2,6-dimethoxyphenyl)-5-hydroxy-6-methoxy-chromen-4-one

>  <PUBCHEM_IUPAC_CAS_NAME>
2-(2,6-dimethoxyphenyl)-5-hydroxy-6-methoxy-1-benzopyran-4-one

>  <PUBCHEM_IUPAC_NAME>
2-(2,6-dimethoxyphenyl)-5-hydroxy-6-methoxychromen-4-one

>  <PUBCHEM_IUPAC_SYSTEMATIC_NAME>
2-(2,6-dimethoxyphenyl)-6-methoxy-5-oxidanyl-chromen-4-one

>  <PUBCHEM_IUPAC_TRADITIONAL_NAME>
2-(2,6-dimethoxyphenyl)-5-hydroxy-6-methoxy-chromone

>  <PUBCHEM_IUPAC_INCHI>
InChI=1S/C18H16O6/c1-21-11-5-4-6-12(22-2)17(11)15-9-10(19)16-13(24-15)7-8-14(23-3)18(16)20/h4-9,20H,1-3H3

>  <PUBCHEM_IUPAC_INCHIKEY>
BFXYIQRRGIMMSR-UHFFFAOYSA-N

>  <PUBCHEM_XLOGP3_AA>
3.3

>  <PUBCHEM_EXACT_MASS>
328.095

>  <PUBCHEM_MOLECULAR_FORMULA>
C18H16O6

>  <PUBCHEM_MOLECULAR_WEIGHT>
328.32

>  <PUBCHEM_OPENEYE_CAN_SMILES>
COC1=C(C(=CC=C1)OC)C2=CC(=O)C3=C(O2)C=CC(=C3O)OC

>  <PUBCHEM_OPENEYE_ISO_SMILES>
COC1=C(C(=CC=C1)OC)C2=CC(=O)C3=C(O2)C=CC(=C3O)OC

>  <PUBCHEM_CACTVS_TPSA>
74.2

>  <PUBCHEM_MONOISOTOPIC_WEIGHT>
328.095

>  <PUBCHEM_TOTAL_CHARGE>
0

>  <PUBCHEM_HEAVY_ATOM_COUNT>
24

>  <PUBCHEM_ATOM_DEF_STEREO_COUNT>
0

>  <PUBCHEM_ATOM_UDEF_STEREO_COUNT>
0

>  <PUBCHEM_BOND_DEF_STEREO_COUNT>
0

>  <PUBCHEM_BOND_UDEF_STEREO_COUNT>
0

>  <PUBCHEM_ISOTOPIC_ATOM_COUNT>
0

>  <PUBCHEM_COMPONENT_COUNT>
1

>  <PUBCHEM_CACTVS_TAUTO_COUNT>
5

>  <PUBCHEM_COORDINATE_TYPE>
1
5
255

>  <PUBCHEM_BONDANNOTATIONS>
1  10  8
1  8  8
10  16  8
11  12  8
13  17  8
14  19  8
15  20  8
16  18  8
17  18  8
19  21  8
20  21  8
7  10  8
7  11  8
7  13  8
8  12  8
9  14  8
9  15  8

$$$$
