44257865
 OpenBabel06101807152D

 56 58  0  0  0  0  0  0  0  0999 V2000
    6.0682    0.5746    0.0000 O   0  0  0  0  0  0  0  0  0  0  0  0
   10.3984   -0.9254    0.0000 O   0  0  0  0  0  0  0  0  0  0  0  0
    6.0682    3.5746    0.0000 O   0  0  0  0  0  0  0  0  0  0  0  0
    4.3198    3.6092    0.0000 O   0  0  0  0  0  0  0  0  0  0  0  0
    2.5381    0.5505    0.0000 O   0  0  0  0  0  0  0  0  0  0  0  0
    8.6663   -0.9254    0.0000 C   0  0  0  0  0  0  0  0  0  0  0  0
    9.5323    0.5746    0.0000 C   0  0  0  0  0  0  0  0  0  0  0  0
    7.8003    0.5746    0.0000 C   0  0  0  0  0  0  0  0  0  0  0  0
    9.5323   -0.4254    0.0000 C   0  0  0  0  0  0  0  0  0  0  0  0
    7.8003   -0.4254    0.0000 C   0  0  0  0  0  0  0  0  0  0  0  0
    8.6663    1.0746    0.0000 C   0  0  0  0  0  0  0  0  0  0  0  0
    8.6663   -1.9254    0.0000 C   0  0  0  0  0  0  0  0  0  0  0  0
   10.3984    1.0746    0.0000 C   0  0  0  0  0  0  0  0  0  0  0  0
    6.9343    1.0746    0.0000 C   0  0  0  0  0  0  0  0  0  0  0  0
    5.2022    2.0746    0.0000 C   0  0  0  0  0  0  0  0  0  0  0  0
    6.9343    2.0746    0.0000 C   0  0  0  0  0  0  0  0  0  0  0  0
    5.2022    1.0746    0.0000 C   0  0  0  0  0  0  0  0  0  0  0  0
    7.8003   -2.4254    0.0000 C   0  0  0  0  0  0  0  0  0  0  0  0
   10.3984    2.0746    0.0000 C   0  0  0  0  0  0  0  0  0  0  0  0
    6.0682    2.5746    0.0000 C   0  0  0  0  0  0  0  0  0  0  0  0
    7.8003   -3.4254    0.0000 C   0  0  0  0  0  0  0  0  0  0  0  0
   11.2644    2.5746    0.0000 C   0  0  0  0  0  0  0  0  0  0  0  0
    4.3083    2.6093    0.0000 C   0  0  0  0  0  0  0  0  0  0  0  0
    4.3083    0.5399    0.0000 C   0  0  0  0  0  0  0  0  0  0  0  0
    3.4022    1.0538    0.0000 C   0  0  0  0  0  0  0  0  0  0  0  0
    3.4022    2.0954    0.0000 C   0  0  0  0  0  0  0  0  0  0  0  0
    6.9343   -3.9254    0.0000 C   0  0  0  0  0  0  0  0  0  0  0  0
    8.6663   -3.9254    0.0000 C   0  0  0  0  0  0  0  0  0  0  0  0
   11.2644    3.5746    0.0000 C   0  0  0  0  0  0  0  0  0  0  0  0
   12.1304    2.0746    0.0000 C   0  0  0  0  0  0  0  0  0  0  0  0
    7.2634   -0.7354    0.0000 H   0  0  0  0  0  0  0  0  0  0  0  0
    8.6663    1.6946    0.0000 H   0  0  0  0  0  0  0  0  0  0  0  0
    8.8784   -2.5080    0.0000 H   0  0  0  0  0  0  0  0  0  0  0  0
    9.2769   -1.8177    0.0000 H   0  0  0  0  0  0  0  0  0  0  0  0
   10.6104    0.4920    0.0000 H   0  0  0  0  0  0  0  0  0  0  0  0
   11.0090    1.1823    0.0000 H   0  0  0  0  0  0  0  0  0  0  0  0
    7.4712    2.3846    0.0000 H   0  0  0  0  0  0  0  0  0  0  0  0
    7.2634   -2.1154    0.0000 H   0  0  0  0  0  0  0  0  0  0  0  0
    9.8614    2.3846    0.0000 H   0  0  0  0  0  0  0  0  0  0  0  0
    4.3154   -0.0800    0.0000 H   0  0  0  0  0  0  0  0  0  0  0  0
   10.9353   -0.6154    0.0000 H   0  0  0  0  0  0  0  0  0  0  0  0
    2.8665    2.4075    0.0000 H   0  0  0  0  0  0  0  0  0  0  0  0
    6.6243   -3.3885    0.0000 H   0  0  0  0  0  0  0  0  0  0  0  0
    8.3563   -4.4623    0.0000 H   0  0  0  0  0  0  0  0  0  0  0  0
    9.2033   -4.2354    0.0000 H   0  0  0  0  0  0  0  0  0  0  0  0
    8.9763   -3.3885    0.0000 H   0  0  0  0  0  0  0  0  0  0  0  0
    6.3973   -4.2354    0.0000 H   0  0  0  0  0  0  0  0  0  0  0  0
    7.2443   -4.4623    0.0000 H   0  0  0  0  0  0  0  0  0  0  0  0
   11.8844    3.5746    0.0000 H   0  0  0  0  0  0  0  0  0  0  0  0
   11.2644    4.1946    0.0000 H   0  0  0  0  0  0  0  0  0  0  0  0
   10.6444    3.5746    0.0000 H   0  0  0  0  0  0  0  0  0  0  0  0
   11.8204    1.5377    0.0000 H   0  0  0  0  0  0  0  0  0  0  0  0
   12.6674    1.7646    0.0000 H   0  0  0  0  0  0  0  0  0  0  0  0
   12.4404    2.6115    0.0000 H   0  0  0  0  0  0  0  0  0  0  0  0
    3.7865    3.9254    0.0000 H   0  0  0  0  0  0  0  0  0  0  0  0
    2.0000    0.8584    0.0000 H   0  0  0  0  0  0  0  0  0  0  0  0
  1 14  1  0  0  0  0
  1 17  1  0  0  0  0
  2  9  1  0  0  0  0
  2 41  1  0  0  0  0
  3 20  2  0  0  0  0
  4 23  1  0  0  0  0
  4 55  1  0  0  0  0
  5 25  1  0  0  0  0
  5 56  1  0  0  0  0
  6  9  2  0  0  0  0
  6 10  1  0  0  0  0
  6 12  1  0  0  0  0
  7  9  1  0  0  0  0
  7 11  2  0  0  0  0
  7 13  1  0  0  0  0
  8 10  2  0  0  0  0
  8 11  1  0  0  0  0
  8 14  1  0  0  0  0
 10 31  1  0  0  0  0
 11 32  1  0  0  0  0
 12 18  1  0  0  0  0
 12 33  1  0  0  0  0
 12 34  1  0  0  0  0
 13 19  1  0  0  0  0
 13 35  1  0  0  0  0
 13 36  1  0  0  0  0
 14 16  2  0  0  0  0
 15 17  1  0  0  0  0
 15 20  1  0  0  0  0
 15 23  2  0  0  0  0
 16 20  1  0  0  0  0
 16 37  1  0  0  0  0
 17 24  2  0  0  0  0
 18 21  2  0  0  0  0
 18 38  1  0  0  0  0
 19 22  2  0  0  0  0
 19 39  1  0  0  0  0
 21 27  1  0  0  0  0
 21 28  1  0  0  0  0
 22 29  1  0  0  0  0
 22 30  1  0  0  0  0
 23 26  1  0  0  0  0
 24 25  1  0  0  0  0
 24 40  1  0  0  0  0
 25 26  2  0  0  0  0
 26 42  1  0  0  0  0
 27 43  1  0  0  0  0
 27 47  1  0  0  0  0
 27 48  1  0  0  0  0
 28 44  1  0  0  0  0
 28 45  1  0  0  0  0
 28 46  1  0  0  0  0
 29 49  1  0  0  0  0
 29 50  1  0  0  0  0
 29 51  1  0  0  0  0
 30 52  1  0  0  0  0
 30 53  1  0  0  0  0
 30 54  1  0  0  0  0
M  END
>  <PUBCHEM_COMPOUND_CID>
44257865

>  <PUBCHEM_COMPOUND_CANONICALIZED>
1

>  <PUBCHEM_CACTVS_COMPLEXITY>
683

>  <PUBCHEM_CACTVS_HBOND_ACCEPTOR>
5

>  <PUBCHEM_CACTVS_HBOND_DONOR>
3

>  <PUBCHEM_CACTVS_ROTATABLE_BOND>
5

>  <PUBCHEM_CACTVS_SUBSKEYS>
AAADceB4OAAAAAAAAAAAAAAAAAAAAAAAAAAwYIAAAAAAAACBQAAAGgAACAAADASAmAAyBoAABgCIAqBSAAACCAAkIAAAiAEGCMgMJzaGNRqCeWCl4BUIuQeI7OzOIAACCAAIAABAAAQQABAAAAAAAAAAAA==

>  <PUBCHEM_IUPAC_OPENEYE_NAME>
5,7-dihydroxy-2-[4-hydroxy-3,5-bis(3-methylbut-2-enyl)phenyl]chromen-4-one

>  <PUBCHEM_IUPAC_CAS_NAME>
5,7-dihydroxy-2-[4-hydroxy-3,5-bis(3-methylbut-2-enyl)phenyl]-1-benzopyran-4-one

>  <PUBCHEM_IUPAC_NAME>
5,7-dihydroxy-2-[4-hydroxy-3,5-bis(3-methylbut-2-enyl)phenyl]chromen-4-one

>  <PUBCHEM_IUPAC_SYSTEMATIC_NAME>
2-[3,5-bis(3-methylbut-2-enyl)-4-oxidanyl-phenyl]-5,7-bis(oxidanyl)chromen-4-one

>  <PUBCHEM_IUPAC_TRADITIONAL_NAME>
5,7-dihydroxy-2-[4-hydroxy-3,5-bis(3-methylbut-2-enyl)phenyl]chromone

>  <PUBCHEM_IUPAC_INCHI>
InChI=1S/C25H26O5/c1-14(2)5-7-16-9-18(10-17(25(16)29)8-6-15(3)4)22-13-21(28)24-20(27)11-19(26)12-23(24)30-22/h5-6,9-13,26-27,29H,7-8H2,1-4H3

>  <PUBCHEM_IUPAC_INCHIKEY>
DOFKPAVSYGZVQD-UHFFFAOYSA-N

>  <PUBCHEM_XLOGP3>
5.6

>  <PUBCHEM_EXACT_MASS>
406.178

>  <PUBCHEM_MOLECULAR_FORMULA>
C25H26O5

>  <PUBCHEM_MOLECULAR_WEIGHT>
406.478

>  <PUBCHEM_OPENEYE_CAN_SMILES>
CC(=CCC1=CC(=CC(=C1O)CC=C(C)C)C2=CC(=O)C3=C(C=C(C=C3O2)O)O)C

>  <PUBCHEM_OPENEYE_ISO_SMILES>
CC(=CCC1=CC(=CC(=C1O)CC=C(C)C)C2=CC(=O)C3=C(C=C(C=C3O2)O)O)C

>  <PUBCHEM_CACTVS_TPSA>
87

>  <PUBCHEM_MONOISOTOPIC_WEIGHT>
406.178

>  <PUBCHEM_TOTAL_CHARGE>
0

>  <PUBCHEM_HEAVY_ATOM_COUNT>
30

>  <PUBCHEM_ATOM_DEF_STEREO_COUNT>
0

>  <PUBCHEM_ATOM_UDEF_STEREO_COUNT>
0

>  <PUBCHEM_BOND_DEF_STEREO_COUNT>
0

>  <PUBCHEM_BOND_UDEF_STEREO_COUNT>
0

>  <PUBCHEM_ISOTOPIC_ATOM_COUNT>
0

>  <PUBCHEM_COMPONENT_COUNT>
1

>  <PUBCHEM_CACTVS_TAUTO_COUNT>
57

>  <PUBCHEM_COORDINATE_TYPE>
1
5
255

>  <PUBCHEM_BONDANNOTATIONS>
1  14  8
1  17  8
14  16  8
15  17  8
15  20  8
15  23  8
16  20  8
17  24  8
23  26  8
24  25  8
25  26  8
6  10  8
6  9  8
7  11  8
7  9  8
8  10  8
8  11  8

$$$$
