44259603
 OpenBabel06101807152D

 39 41  0  0  0  0  0  0  0  0999 V2000
    8.1301    2.2500    0.0000 S   0  0  0  0  0  0  0  0  0  0  0  0
    6.3981   -0.7500    0.0000 O   0  0  0  0  0  0  0  0  0  0  0  0
    8.1301    1.2500    0.0000 O   0  0  0  0  0  0  0  0  0  0  0  0
    2.8680   -0.7742    0.0000 O   0  0  0  0  0  0  0  0  0  0  0  0
    4.6497    2.2846    0.0000 O   0  0  0  0  0  0  0  0  0  0  0  0
    6.3981    2.2500    0.0000 O   0  0  0  0  0  0  0  0  0  0  0  0
    8.9962   -3.2500    0.0000 O   0  0  0  0  0  0  0  0  0  0  0  0
   10.7282   -2.2500    0.0000 O   0  0  0  0  0  0  0  0  0  0  0  0
    8.1301    3.2500    0.0000 O   0  0  0  0  0  0  0  0  0  0  0  0
    9.1301    2.2500    0.0000 O   0  0  0  0  0  0  0  0  0  0  0  0
    7.1301    2.2500    0.0000 O   0  0  0  0  0  0  0  0  0  0  0  0
    5.5320    0.7500    0.0000 C   0  0  0  0  0  0  0  0  0  0  0  0
    5.5320   -0.2500    0.0000 C   0  0  0  0  0  0  0  0  0  0  0  0
    7.2641   -0.2500    0.0000 C   0  0  0  0  0  0  0  0  0  0  0  0
    7.2641    0.7500    0.0000 C   0  0  0  0  0  0  0  0  0  0  0  0
    6.3981    1.2500    0.0000 C   0  0  0  0  0  0  0  0  0  0  0  0
    8.1301   -0.7500    0.0000 C   0  0  0  0  0  0  0  0  0  0  0  0
    4.6381    1.2847    0.0000 C   0  0  0  0  0  0  0  0  0  0  0  0
    4.6381   -0.7847    0.0000 C   0  0  0  0  0  0  0  0  0  0  0  0
    3.7320   -0.2708    0.0000 C   0  0  0  0  0  0  0  0  0  0  0  0
    3.7320    0.7708    0.0000 C   0  0  0  0  0  0  0  0  0  0  0  0
    8.1301   -1.7500    0.0000 C   0  0  0  0  0  0  0  0  0  0  0  0
    8.9962   -0.2500    0.0000 C   0  0  0  0  0  0  0  0  0  0  0  0
    8.9962   -2.2500    0.0000 C   0  0  0  0  0  0  0  0  0  0  0  0
    9.8622   -0.7500    0.0000 C   0  0  0  0  0  0  0  0  0  0  0  0
    9.8622   -1.7500    0.0000 C   0  0  0  0  0  0  0  0  0  0  0  0
    2.0000   -0.2775    0.0000 C   0  0  0  0  0  0  0  0  0  0  0  0
    4.6453   -1.4046    0.0000 H   0  0  0  0  0  0  0  0  0  0  0  0
    3.1963    1.0829    0.0000 H   0  0  0  0  0  0  0  0  0  0  0  0
    7.5932   -2.0600    0.0000 H   0  0  0  0  0  0  0  0  0  0  0  0
    8.9962    0.3700    0.0000 H   0  0  0  0  0  0  0  0  0  0  0  0
   10.3991   -0.4400    0.0000 H   0  0  0  0  0  0  0  0  0  0  0  0
    4.1164    2.6008    0.0000 H   0  0  0  0  0  0  0  0  0  0  0  0
    2.3079    0.2606    0.0000 H   0  0  0  0  0  0  0  0  0  0  0  0
    1.4619    0.0304    0.0000 H   0  0  0  0  0  0  0  0  0  0  0  0
    1.6921   -0.8156    0.0000 H   0  0  0  0  0  0  0  0  0  0  0  0
    8.4592   -3.5600    0.0000 H   0  0  0  0  0  0  0  0  0  0  0  0
   11.2651   -1.9400    0.0000 H   0  0  0  0  0  0  0  0  0  0  0  0
    8.6671    3.5600    0.0000 H   0  0  0  0  0  0  0  0  0  0  0  0
  1  3  1  0  0  0  0
  1  9  1  0  0  0  0
  1 10  2  0  0  0  0
  1 11  2  0  0  0  0
  2 13  1  0  0  0  0
  2 14  1  0  0  0  0
  3 15  1  0  0  0  0
  4 20  1  0  0  0  0
  4 27  1  0  0  0  0
  5 18  1  0  0  0  0
  5 33  1  0  0  0  0
  6 16  2  0  0  0  0
  7 24  1  0  0  0  0
  7 37  1  0  0  0  0
  8 26  1  0  0  0  0
  8 38  1  0  0  0  0
  9 39  1  0  0  0  0
 12 13  1  0  0  0  0
 12 16  1  0  0  0  0
 12 18  2  0  0  0  0
 13 19  2  0  0  0  0
 14 15  2  0  0  0  0
 14 17  1  0  0  0  0
 15 16  1  0  0  0  0
 17 22  2  0  0  0  0
 17 23  1  0  0  0  0
 18 21  1  0  0  0  0
 19 20  1  0  0  0  0
 19 28  1  0  0  0  0
 20 21  2  0  0  0  0
 21 29  1  0  0  0  0
 22 24  1  0  0  0  0
 22 30  1  0  0  0  0
 23 25  2  0  0  0  0
 23 31  1  0  0  0  0
 24 26  2  0  0  0  0
 25 26  1  0  0  0  0
 25 32  1  0  0  0  0
 27 34  1  0  0  0  0
 27 35  1  0  0  0  0
 27 36  1  0  0  0  0
M  END
>  <PUBCHEM_COMPOUND_CID>
44259603

>  <PUBCHEM_COMPOUND_CANONICALIZED>
1

>  <PUBCHEM_CACTVS_COMPLEXITY>
711

>  <PUBCHEM_CACTVS_HBOND_ACCEPTOR>
10

>  <PUBCHEM_CACTVS_HBOND_DONOR>
4

>  <PUBCHEM_CACTVS_ROTATABLE_BOND>
4

>  <PUBCHEM_CACTVS_SUBSKEYS>
AAADccB4PABAAAAAAAAAAAAAAAAAAAAAAAAwYIAAAAAAAACBQAAAGgAACAAADASAmAIyBoAABoCIAqBSADICCAAkIAAIiAFGiMgNJzaGNRqCeWGl4BUJuQfI7LzOIAABCAAIQABAAAIQABCAAAAAAAAAAA==

>  <PUBCHEM_IUPAC_OPENEYE_NAME>
[2-(3,4-dihydroxyphenyl)-5-hydroxy-7-methoxy-4-oxo-chromen-3-yl] hydrogen sulfate

>  <PUBCHEM_IUPAC_CAS_NAME>
sulfuric acid [2-(3,4-dihydroxyphenyl)-5-hydroxy-7-methoxy-4-oxo-1-benzopyran-3-yl] ester

>  <PUBCHEM_IUPAC_NAME>
[2-(3,4-dihydroxyphenyl)-5-hydroxy-7-methoxy-4-oxochromen-3-yl] hydrogen sulfate

>  <PUBCHEM_IUPAC_SYSTEMATIC_NAME>
[2-[3,4-bis(oxidanyl)phenyl]-7-methoxy-5-oxidanyl-4-oxidanylidene-chromen-3-yl] hydrogen sulfate

>  <PUBCHEM_IUPAC_TRADITIONAL_NAME>
sulfuric acid [2-(3,4-dihydroxyphenyl)-5-hydroxy-4-keto-7-methoxy-chromen-3-yl] ester

>  <PUBCHEM_IUPAC_INCHI>
InChI=1S/C16H12O10S/c1-24-8-5-11(19)13-12(6-8)25-15(7-2-3-9(17)10(18)4-7)16(14(13)20)26-27(21,22)23/h2-6,17-19H,1H3,(H,21,22,23)

>  <PUBCHEM_IUPAC_INCHIKEY>
ZSMARJBHMMLACO-UHFFFAOYSA-N

>  <PUBCHEM_XLOGP3_AA>
1.9

>  <PUBCHEM_EXACT_MASS>
396.015

>  <PUBCHEM_MOLECULAR_FORMULA>
C16H12O10S

>  <PUBCHEM_MOLECULAR_WEIGHT>
396.322

>  <PUBCHEM_OPENEYE_CAN_SMILES>
COC1=CC(=C2C(=C1)OC(=C(C2=O)OS(=O)(=O)O)C3=CC(=C(C=C3)O)O)O

>  <PUBCHEM_OPENEYE_ISO_SMILES>
COC1=CC(=C2C(=C1)OC(=C(C2=O)OS(=O)(=O)O)C3=CC(=C(C=C3)O)O)O

>  <PUBCHEM_CACTVS_TPSA>
168

>  <PUBCHEM_MONOISOTOPIC_WEIGHT>
396.015

>  <PUBCHEM_TOTAL_CHARGE>
0

>  <PUBCHEM_HEAVY_ATOM_COUNT>
27

>  <PUBCHEM_ATOM_DEF_STEREO_COUNT>
0

>  <PUBCHEM_ATOM_UDEF_STEREO_COUNT>
0

>  <PUBCHEM_BOND_DEF_STEREO_COUNT>
0

>  <PUBCHEM_BOND_UDEF_STEREO_COUNT>
0

>  <PUBCHEM_ISOTOPIC_ATOM_COUNT>
0

>  <PUBCHEM_COMPONENT_COUNT>
1

>  <PUBCHEM_CACTVS_TAUTO_COUNT>
68

>  <PUBCHEM_COORDINATE_TYPE>
1
5
255

>  <PUBCHEM_BONDANNOTATIONS>
12  13  8
12  16  8
12  18  8
13  19  8
14  15  8
15  16  8
17  22  8
17  23  8
18  21  8
19  20  8
2  13  8
2  14  8
20  21  8
22  24  8
23  25  8
24  26  8
25  26  8

$$$$
