44258663
 OpenBabel06101807152D

 56 60  0  0  1  0  0  0  0  0999 V2000
    7.3920   -2.0168    0.0000 O   0  0  0  0  0  0  0  0  0  0  0  0
    4.6119    1.1387    0.0000 O   0  0  0  0  0  0  0  0  0  0  0  0
    5.5098   -3.4374    0.0000 O   0  0  0  0  0  0  0  0  0  0  0  0
    3.7517   -0.3650    0.0000 O   0  0  0  0  0  0  0  0  0  0  0  0
    7.2757    2.6633    0.0000 O   0  0  0  0  0  0  0  0  0  0  0  0
    6.3944    4.2760    0.0000 O   0  0  0  0  0  0  0  0  0  0  0  0
    2.7796    4.2899    0.0000 O   0  0  0  0  0  0  0  0  0  0  0  0
    7.2539   -0.3681    0.0000 C   0  0  3  0  0  0  0  0  0  0  0  0
    7.8718   -1.1465    0.0000 C   0  0  0  0  0  0  0  0  0  0  0  0
    6.3879   -0.8681    0.0000 C   0  0  0  0  0  0  0  0  0  0  0  0
    7.2539    0.6319    0.0000 C   0  0  0  0  0  0  0  0  0  0  0  0
    6.4040   -1.9096    0.0000 C   0  0  0  0  0  0  0  0  0  0  0  0
    5.5219   -0.3681    0.0000 C   0  0  0  0  0  0  0  0  0  0  0  0
    6.3879    1.1319    0.0000 C   0  0  0  0  0  0  0  0  0  0  0  0
    8.7271   -1.6647    0.0000 C   0  0  0  0  0  0  0  0  0  0  0  0
    8.6290   -0.4932    0.0000 C   0  0  0  0  0  0  0  0  0  0  0  0
    5.5219    0.6319    0.0000 C   0  0  0  0  0  0  0  0  0  0  0  0
    5.5059   -2.4374    0.0000 C   0  0  0  0  0  0  0  0  0  0  0  0
    4.6119   -0.8750    0.0000 C   0  0  0  0  0  0  0  0  0  0  0  0
    4.6038   -1.9166    0.0000 C   0  0  0  0  0  0  0  0  0  0  0  0
    6.4040    2.1734    0.0000 C   0  0  0  0  0  0  0  0  0  0  0  0
    5.5059    2.7011    0.0000 C   0  0  0  0  0  0  0  0  0  0  0  0
    3.7359   -2.4132    0.0000 C   0  0  0  0  0  0  0  0  0  0  0  0
    4.6038    2.1803    0.0000 C   0  0  0  0  0  0  0  0  0  0  0  0
    5.5226    3.7860    0.0000 C   0  0  0  0  0  0  0  0  0  0  0  0
    3.6560    2.7083    0.0000 C   0  0  0  0  0  0  0  0  0  0  0  0
    3.7320   -3.4132    0.0000 C   0  0  0  0  0  0  0  0  0  0  0  0
    4.5872    4.3357    0.0000 C   0  0  0  0  0  0  0  0  0  0  0  0
    3.6476    3.7932    0.0000 C   0  0  0  0  0  0  0  0  0  0  0  0
    2.8641   -3.9099    0.0000 C   0  0  0  0  0  0  0  0  0  0  0  0
    2.8602   -4.9099    0.0000 C   0  0  0  0  0  0  0  0  0  0  0  0
    2.0000   -3.4066    0.0000 C   0  0  0  0  0  0  0  0  0  0  0  0
    7.8394   -0.1640    0.0000 H   0  0  0  0  0  0  0  0  0  0  0  0
    7.8645    0.5242    0.0000 H   0  0  0  0  0  0  0  0  0  0  0  0
    7.4660    1.2145    0.0000 H   0  0  0  0  0  0  0  0  0  0  0  0
    8.4058   -2.1950    0.0000 H   0  0  0  0  0  0  0  0  0  0  0  0
    9.2573   -1.9860    0.0000 H   0  0  0  0  0  0  0  0  0  0  0  0
    9.0484   -1.1345    0.0000 H   0  0  0  0  0  0  0  0  0  0  0  0
    9.0340   -0.9627    0.0000 H   0  0  0  0  0  0  0  0  0  0  0  0
    9.0984   -0.0882    0.0000 H   0  0  0  0  0  0  0  0  0  0  0  0
    8.2240   -0.0238    0.0000 H   0  0  0  0  0  0  0  0  0  0  0  0
    3.5261   -1.8298    0.0000 H   0  0  0  0  0  0  0  0  0  0  0  0
    3.1249   -2.5185    0.0000 H   0  0  0  0  0  0  0  0  0  0  0  0
    6.0479   -3.7453    0.0000 H   0  0  0  0  0  0  0  0  0  0  0  0
    3.2112   -0.6688    0.0000 H   0  0  0  0  0  0  0  0  0  0  0  0
    3.1226    2.3921    0.0000 H   0  0  0  0  0  0  0  0  0  0  0  0
    4.2678   -3.7253    0.0000 H   0  0  0  0  0  0  0  0  0  0  0  0
    4.5896    4.9557    0.0000 H   0  0  0  0  0  0  0  0  0  0  0  0
    6.4016    4.8959    0.0000 H   0  0  0  0  0  0  0  0  0  0  0  0
    2.2402   -4.9075    0.0000 H   0  0  0  0  0  0  0  0  0  0  0  0
    2.3121   -2.8708    0.0000 H   0  0  0  0  0  0  0  0  0  0  0  0
    1.4643   -3.0945    0.0000 H   0  0  0  0  0  0  0  0  0  0  0  0
    1.6879   -3.9423    0.0000 H   0  0  0  0  0  0  0  0  0  0  0  0
    2.8578   -5.5299    0.0000 H   0  0  0  0  0  0  0  0  0  0  0  0
    3.4802   -4.9123    0.0000 H   0  0  0  0  0  0  0  0  0  0  0  0
    2.7772    4.9099    0.0000 H   0  0  0  0  0  0  0  0  0  0  0  0
  1  9  1  0  0  0  0
  1 12  1  0  0  0  0
  2 17  1  0  0  0  0
  2 24  1  0  0  0  0
  3 18  1  0  0  0  0
  3 44  1  0  0  0  0
  4 19  1  0  0  0  0
  4 45  1  0  0  0  0
  5 21  2  0  0  0  0
  6 25  1  0  0  0  0
  6 49  1  0  0  0  0
  7 29  1  0  0  0  0
  7 56  1  0  0  0  0
  8  9  1  0  0  0  0
  8 10  1  0  0  0  0
  8 11  1  0  0  0  0
  8 33  1  0  0  0  0
  9 15  1  0  0  0  0
  9 16  1  0  0  0  0
 10 12  1  0  0  0  0
 10 13  2  0  0  0  0
 11 14  1  0  0  0  0
 11 34  1  0  0  0  0
 11 35  1  0  0  0  0
 12 18  2  0  0  0  0
 13 17  1  0  0  0  0
 13 19  1  0  0  0  0
 14 17  2  0  0  0  0
 14 21  1  0  0  0  0
 15 36  1  0  0  0  0
 15 37  1  0  0  0  0
 15 38  1  0  0  0  0
 16 39  1  0  0  0  0
 16 40  1  0  0  0  0
 16 41  1  0  0  0  0
 18 20  1  0  0  0  0
 19 20  2  0  0  0  0
 20 23  1  0  0  0  0
 21 22  1  0  0  0  0
 22 24  1  0  0  0  0
 22 25  2  0  0  0  0
 23 27  1  0  0  0  0
 23 42  1  0  0  0  0
 23 43  1  0  0  0  0
 24 26  2  0  0  0  0
 25 28  1  0  0  0  0
 26 29  1  0  0  0  0
 26 46  1  0  0  0  0
 27 30  2  0  0  0  0
 27 47  1  0  0  0  0
 28 29  2  0  0  0  0
 28 48  1  0  0  0  0
 30 31  1  0  0  0  0
 30 32  1  0  0  0  0
 31 50  1  0  0  0  0
 31 54  1  0  0  0  0
 31 55  1  0  0  0  0
 32 51  1  0  0  0  0
 32 52  1  0  0  0  0
 32 53  1  0  0  0  0
M  END
>  <PUBCHEM_COMPOUND_CID>
44258663

>  <PUBCHEM_COMPOUND_CANONICALIZED>
1

>  <PUBCHEM_CACTVS_COMPLEXITY>
856

>  <PUBCHEM_CACTVS_HBOND_ACCEPTOR>
7

>  <PUBCHEM_CACTVS_HBOND_DONOR>
4

>  <PUBCHEM_CACTVS_ROTATABLE_BOND>
2

>  <PUBCHEM_CACTVS_SUBSKEYS>
AAADceB4OAAAAAAAAAAAAAAAAAAAASAAAAAwYIEAAAAAAEiRQAAAGgAACAAADUSAmAAyBoAABgCIAqBSAAACCAAkIAAAiAEGiMgNJzaGNRqCeWOl4BULuQfI7PzO4QADCAAYQADCAAYQADCAAAAAAAAAAA==

>  <PUBCHEM_IUPAC_INCHI>
InChI=1S/C25H24O7/c1-10(2)5-6-12-20(28)19-17-14(25(3,4)32-24(17)22(12)30)9-13-21(29)18-15(27)7-11(26)8-16(18)31-23(13)19/h5,7-8,14,26-28,30H,6,9H2,1-4H3

>  <PUBCHEM_IUPAC_INCHIKEY>
WQIPFMCXBWXUAV-UHFFFAOYSA-N

>  <PUBCHEM_XLOGP3_AA>
4.7

>  <PUBCHEM_EXACT_MASS>
436.152

>  <PUBCHEM_MOLECULAR_FORMULA>
C25H24O7

>  <PUBCHEM_MOLECULAR_WEIGHT>
436.46

>  <PUBCHEM_OPENEYE_CAN_SMILES>
CC(=CCC1=C(C2=C3C(CC4=C2OC5=CC(=CC(=C5C4=O)O)O)C(OC3=C1O)(C)C)O)C

>  <PUBCHEM_OPENEYE_ISO_SMILES>
CC(=CCC1=C(C2=C3C(CC4=C2OC5=CC(=CC(=C5C4=O)O)O)C(OC3=C1O)(C)C)O)C

>  <PUBCHEM_CACTVS_TPSA>
116

>  <PUBCHEM_MONOISOTOPIC_WEIGHT>
436.152

>  <PUBCHEM_TOTAL_CHARGE>
0

>  <PUBCHEM_HEAVY_ATOM_COUNT>
32

>  <PUBCHEM_ATOM_DEF_STEREO_COUNT>
0

>  <PUBCHEM_ATOM_UDEF_STEREO_COUNT>
1

>  <PUBCHEM_BOND_DEF_STEREO_COUNT>
0

>  <PUBCHEM_BOND_UDEF_STEREO_COUNT>
0

>  <PUBCHEM_ISOTOPIC_ATOM_COUNT>
0

>  <PUBCHEM_COMPONENT_COUNT>
1

>  <PUBCHEM_CACTVS_TAUTO_COUNT>
372

>  <PUBCHEM_COORDINATE_TYPE>
1
5
255

>  <PUBCHEM_BONDANNOTATIONS>
10  12  8
10  13  8
12  18  8
13  19  8
14  17  8
14  21  8
18  20  8
19  20  8
2  17  8
2  24  8
21  22  8
22  24  8
22  25  8
24  26  8
25  28  8
26  29  8
28  29  8
8  11  3

$$$$
