44258211
 OpenBabel06101807152D

 38 40  0  0  0  0  0  0  0  0999 V2000
    3.4037    0.2971    0.0000 S   0  0  0  0  0  0  0  0  0  0  0  0
    7.8018   -0.1754    0.0000 O   0  0  0  0  0  0  0  0  0  0  0  0
    4.2716   -0.1995    0.0000 O   0  0  0  0  0  0  0  0  0  0  0  0
    6.0534    2.8592    0.0000 O   0  0  0  0  0  0  0  0  0  0  0  0
    7.8018    2.8246    0.0000 O   0  0  0  0  0  0  0  0  0  0  0  0
   10.3998   -2.6754    0.0000 O   0  0  0  0  0  0  0  0  0  0  0  0
   12.1319   -1.6754    0.0000 O   0  0  0  0  0  0  0  0  0  0  0  0
    2.5357    0.7938    0.0000 O   0  0  0  0  0  0  0  0  0  0  0  0
    2.9070   -0.5708    0.0000 O   0  0  0  0  0  0  0  0  0  0  0  0
    3.9003    1.1651    0.0000 O   0  0  0  0  0  0  0  0  0  0  0  0
    6.9357    1.3246    0.0000 C   0  0  0  0  0  0  0  0  0  0  0  0
    6.9357    0.3246    0.0000 C   0  0  0  0  0  0  0  0  0  0  0  0
    8.6678    0.3246    0.0000 C   0  0  0  0  0  0  0  0  0  0  0  0
    9.5338   -0.1754    0.0000 C   0  0  0  0  0  0  0  0  0  0  0  0
    7.8018    1.8246    0.0000 C   0  0  0  0  0  0  0  0  0  0  0  0
    6.0418    1.8593    0.0000 C   0  0  0  0  0  0  0  0  0  0  0  0
    8.6678    1.3246    0.0000 C   0  0  0  0  0  0  0  0  0  0  0  0
    6.0418   -0.2101    0.0000 C   0  0  0  0  0  0  0  0  0  0  0  0
    5.1357    0.3038    0.0000 C   0  0  0  0  0  0  0  0  0  0  0  0
    5.1357    1.3454    0.0000 C   0  0  0  0  0  0  0  0  0  0  0  0
    9.5338   -1.1754    0.0000 C   0  0  0  0  0  0  0  0  0  0  0  0
   10.3998    0.3246    0.0000 C   0  0  0  0  0  0  0  0  0  0  0  0
   10.3998   -1.6754    0.0000 C   0  0  0  0  0  0  0  0  0  0  0  0
   11.2659   -0.1754    0.0000 C   0  0  0  0  0  0  0  0  0  0  0  0
   11.2659   -1.1754    0.0000 C   0  0  0  0  0  0  0  0  0  0  0  0
   11.2659   -3.1754    0.0000 C   0  0  0  0  0  0  0  0  0  0  0  0
    9.2047    1.6346    0.0000 H   0  0  0  0  0  0  0  0  0  0  0  0
    6.0490   -0.8300    0.0000 H   0  0  0  0  0  0  0  0  0  0  0  0
    4.6000    1.6575    0.0000 H   0  0  0  0  0  0  0  0  0  0  0  0
    8.9969   -1.4854    0.0000 H   0  0  0  0  0  0  0  0  0  0  0  0
   10.3998    0.9446    0.0000 H   0  0  0  0  0  0  0  0  0  0  0  0
   11.8028    0.1346    0.0000 H   0  0  0  0  0  0  0  0  0  0  0  0
    5.5200    3.1754    0.0000 H   0  0  0  0  0  0  0  0  0  0  0  0
   12.6688   -1.3654    0.0000 H   0  0  0  0  0  0  0  0  0  0  0  0
   10.9559   -3.7123    0.0000 H   0  0  0  0  0  0  0  0  0  0  0  0
   11.8028   -3.4854    0.0000 H   0  0  0  0  0  0  0  0  0  0  0  0
   11.5759   -2.6385    0.0000 H   0  0  0  0  0  0  0  0  0  0  0  0
    2.0000    0.4817    0.0000 H   0  0  0  0  0  0  0  0  0  0  0  0
  1  3  1  0  0  0  0
  1  8  1  0  0  0  0
  1  9  2  0  0  0  0
  1 10  2  0  0  0  0
  2 12  1  0  0  0  0
  2 13  1  0  0  0  0
  3 19  1  0  0  0  0
  4 16  1  0  0  0  0
  4 33  1  0  0  0  0
  5 15  2  0  0  0  0
  6 23  1  0  0  0  0
  6 26  1  0  0  0  0
  7 25  1  0  0  0  0
  7 34  1  0  0  0  0
  8 38  1  0  0  0  0
 11 12  1  0  0  0  0
 11 15  1  0  0  0  0
 11 16  2  0  0  0  0
 12 18  2  0  0  0  0
 13 14  1  0  0  0  0
 13 17  2  0  0  0  0
 14 21  2  0  0  0  0
 14 22  1  0  0  0  0
 15 17  1  0  0  0  0
 16 20  1  0  0  0  0
 17 27  1  0  0  0  0
 18 19  1  0  0  0  0
 18 28  1  0  0  0  0
 19 20  2  0  0  0  0
 20 29  1  0  0  0  0
 21 23  1  0  0  0  0
 21 30  1  0  0  0  0
 22 24  2  0  0  0  0
 22 31  1  0  0  0  0
 23 25  2  0  0  0  0
 24 25  1  0  0  0  0
 24 32  1  0  0  0  0
 26 35  1  0  0  0  0
 26 36  1  0  0  0  0
 26 37  1  0  0  0  0
M  END
>  <PUBCHEM_COMPOUND_CID>
44258211

>  <PUBCHEM_COMPOUND_CANONICALIZED>
1

>  <PUBCHEM_CACTVS_COMPLEXITY>
668

>  <PUBCHEM_CACTVS_HBOND_ACCEPTOR>
9

>  <PUBCHEM_CACTVS_HBOND_DONOR>
3

>  <PUBCHEM_CACTVS_ROTATABLE_BOND>
4

>  <PUBCHEM_CACTVS_SUBSKEYS>
AAADccB4PABAAAAAAAAAAAAAAAAAAAAAAAAwYIAAAAAAAACBQAAAGgAACAAADASAmAIyBoAABoCIAqBSADACCAAkIAAIiAEGiMgNJzaGNRqCeWOl4BULuQfI7LzOIAABCAAIQABAAAIQABCAAAAAAAAAAA==

>  <PUBCHEM_IUPAC_OPENEYE_NAME>
[5-hydroxy-2-(4-hydroxy-3-methoxy-phenyl)-4-oxo-chromen-7-yl] hydrogen sulfate

>  <PUBCHEM_IUPAC_CAS_NAME>
sulfuric acid [5-hydroxy-2-(4-hydroxy-3-methoxyphenyl)-4-oxo-1-benzopyran-7-yl] ester

>  <PUBCHEM_IUPAC_NAME>
[5-hydroxy-2-(4-hydroxy-3-methoxyphenyl)-4-oxochromen-7-yl] hydrogen sulfate

>  <PUBCHEM_IUPAC_SYSTEMATIC_NAME>
[2-(3-methoxy-4-oxidanyl-phenyl)-5-oxidanyl-4-oxidanylidene-chromen-7-yl] hydrogen sulfate

>  <PUBCHEM_IUPAC_TRADITIONAL_NAME>
sulfuric acid [5-hydroxy-2-(4-hydroxy-3-methoxy-phenyl)-4-keto-chromen-7-yl] ester

>  <PUBCHEM_IUPAC_INCHI>
InChI=1S/C16H12O9S/c1-23-14-4-8(2-3-10(14)17)13-7-12(19)16-11(18)5-9(6-15(16)24-13)25-26(20,21)22/h2-7,17-18H,1H3,(H,20,21,22)

>  <PUBCHEM_IUPAC_INCHIKEY>
YIYDRDIIVCKVSU-UHFFFAOYSA-N

>  <PUBCHEM_XLOGP3>
1.1

>  <PUBCHEM_EXACT_MASS>
380.02

>  <PUBCHEM_MOLECULAR_FORMULA>
C16H12O9S

>  <PUBCHEM_MOLECULAR_WEIGHT>
380.323

>  <PUBCHEM_OPENEYE_CAN_SMILES>
COC1=C(C=CC(=C1)C2=CC(=O)C3=C(C=C(C=C3O2)OS(=O)(=O)O)O)O

>  <PUBCHEM_OPENEYE_ISO_SMILES>
COC1=C(C=CC(=C1)C2=CC(=O)C3=C(C=C(C=C3O2)OS(=O)(=O)O)O)O

>  <PUBCHEM_CACTVS_TPSA>
148

>  <PUBCHEM_MONOISOTOPIC_WEIGHT>
380.02

>  <PUBCHEM_TOTAL_CHARGE>
0

>  <PUBCHEM_HEAVY_ATOM_COUNT>
26

>  <PUBCHEM_ATOM_DEF_STEREO_COUNT>
0

>  <PUBCHEM_ATOM_UDEF_STEREO_COUNT>
0

>  <PUBCHEM_BOND_DEF_STEREO_COUNT>
0

>  <PUBCHEM_BOND_UDEF_STEREO_COUNT>
0

>  <PUBCHEM_ISOTOPIC_ATOM_COUNT>
0

>  <PUBCHEM_COMPONENT_COUNT>
1

>  <PUBCHEM_CACTVS_TAUTO_COUNT>
29

>  <PUBCHEM_COORDINATE_TYPE>
1
5
255

>  <PUBCHEM_BONDANNOTATIONS>
11  12  8
11  15  8
11  16  8
12  18  8
13  17  8
14  21  8
14  22  8
15  17  8
16  20  8
18  19  8
19  20  8
2  12  8
2  13  8
21  23  8
22  24  8
23  25  8
24  25  8

$$$$
