44258991
 OpenBabel06101807152D

 94 99  0  0  1  0  0  0  0  0999 V2000
    7.7331   -2.8729    0.0000 O   0  0  0  0  0  0  0  0  0  0  0  0
    7.7331    0.1271    0.0000 O   0  0  0  0  0  0  0  0  0  0  0  0
    6.0010   -2.8729    0.0000 O   0  0  0  0  0  0  0  0  0  0  0  0
    6.0010    1.1271    0.0000 O   0  0  0  0  0  0  0  0  0  0  0  0
    6.0010   -1.8729    0.0000 O   0  0  0  0  0  0  0  0  0  0  0  0
    5.1350    2.6271    0.0000 O   0  0  0  0  0  0  0  0  0  0  0  0
    9.4651   -1.8729    0.0000 O   0  0  0  0  0  0  0  0  0  0  0  0
    9.4651    0.1271    0.0000 O   0  0  0  0  0  0  0  0  0  0  0  0
    7.7331   -4.8729    0.0000 O   0  0  0  0  0  0  0  0  0  0  0  0
    6.0010   -5.8729    0.0000 O   0  0  0  0  0  0  0  0  0  0  0  0
    4.2690   -4.8729    0.0000 O   0  0  0  0  0  0  0  0  0  0  0  0
    4.2690    0.1271    0.0000 O   0  0  0  0  0  0  0  0  0  0  0  0
    2.5369    1.1271    0.0000 O   0  0  0  0  0  0  0  0  0  0  0  0
    2.5369    3.1271    0.0000 O   0  0  0  0  0  0  0  0  0  0  0  0
    3.4030   -3.3729    0.0000 O   0  0  0  0  0  0  0  0  0  0  0  0
    3.4030    4.6271    0.0000 O   0  0  0  0  0  0  0  0  0  0  0  0
   11.2211    3.1896    0.0000 O   0  0  0  0  0  0  0  0  0  0  0  0
    7.7189    3.2062    0.0000 O   0  0  0  0  0  0  0  0  0  0  0  0
    8.6288    4.6996    0.0000 O   0  0  0  0  0  0  0  0  0  0  0  0
   10.3647    5.6929    0.0000 O   0  0  0  0  0  0  0  0  0  0  0  0
   14.6967    6.1762    0.0000 O   0  0  0  0  0  0  0  0  0  0  0  0
    7.7331   -1.8729    0.0000 C   0  0  1  0  0  0  0  0  0  0  0  0
    6.8671   -1.3729    0.0000 C   0  0  1  0  0  0  0  0  0  0  0  0
    6.8671   -0.3729    0.0000 C   0  0  3  0  0  0  0  0  0  0  0  0
    8.5991   -1.3729    0.0000 C   0  0  3  0  0  0  0  0  0  0  0  0
    6.8671   -3.3729    0.0000 C   0  0  2  0  0  0  0  0  0  0  0  0
    8.5991   -0.3729    0.0000 C   0  0  1  0  0  0  0  0  0  0  0  0
    6.8671   -4.3729    0.0000 C   0  0  3  0  0  0  0  0  0  0  0  0
    6.0010   -4.8729    0.0000 C   0  0  2  0  0  0  0  0  0  0  0  0
    5.1350   -4.3729    0.0000 C   0  0  1  0  0  0  0  0  0  0  0  0
    6.0010    0.1271    0.0000 C   0  0  0  0  0  0  0  0  0  0  0  0
    5.1350   -3.3729    0.0000 C   0  0  3  0  0  0  0  0  0  0  0  0
    5.1350    1.6271    0.0000 C   0  0  2  0  0  0  0  0  0  0  0  0
    4.2690    1.1271    0.0000 C   0  0  3  0  0  0  0  0  0  0  0  0
    3.4030    1.6271    0.0000 C   0  0  2  0  0  0  0  0  0  0  0  0
    3.4030    2.6271    0.0000 C   0  0  1  0  0  0  0  0  0  0  0  0
    4.2690    3.1271    0.0000 C   0  0  3  0  0  0  0  0  0  0  0  0
    4.2690   -2.8729    0.0000 C   0  0  0  0  0  0  0  0  0  0  0  0
    4.2690    4.1271    0.0000 C   0  0  0  0  0  0  0  0  0  0  0  0
    9.4651    1.1271    0.0000 C   0  0  0  0  0  0  0  0  0  0  0  0
   10.3652    1.6514    0.0000 C   0  0  0  0  0  0  0  0  0  0  0  0
    8.5651    1.6514    0.0000 C   0  0  0  0  0  0  0  0  0  0  0  0
   10.3532    2.6930    0.0000 C   0  0  0  0  0  0  0  0  0  0  0  0
    8.5771    2.6930    0.0000 C   0  0  0  0  0  0  0  0  0  0  0  0
    9.4891    3.1963    0.0000 C   0  0  0  0  0  0  0  0  0  0  0  0
    9.4929    4.1963    0.0000 C   0  0  0  0  0  0  0  0  0  0  0  0
   11.2250    4.1896    0.0000 C   0  0  0  0  0  0  0  0  0  0  0  0
   10.3609    4.6929    0.0000 C   0  0  0  0  0  0  0  0  0  0  0  0
   12.0929    4.6862    0.0000 C   0  0  0  0  0  0  0  0  0  0  0  0
   12.9570    4.1829    0.0000 C   0  0  0  0  0  0  0  0  0  0  0  0
   12.0968    5.6862    0.0000 C   0  0  0  0  0  0  0  0  0  0  0  0
   13.8249    4.6796    0.0000 C   0  0  0  0  0  0  0  0  0  0  0  0
   12.9647    6.1829    0.0000 C   0  0  0  0  0  0  0  0  0  0  0  0
   13.8288    5.6796    0.0000 C   0  0  0  0  0  0  0  0  0  0  0  0
    7.1962   -2.1829    0.0000 H   0  0  0  0  0  0  0  0  0  0  0  0
    6.3301   -1.0629    0.0000 H   0  0  0  0  0  0  0  0  0  0  0  0
    6.8671    0.2471    0.0000 H   0  0  0  0  0  0  0  0  0  0  0  0
    8.5991   -1.9929    0.0000 H   0  0  0  0  0  0  0  0  0  0  0  0
    7.4040   -3.6829    0.0000 H   0  0  0  0  0  0  0  0  0  0  0  0
    8.5991    0.2471    0.0000 H   0  0  0  0  0  0  0  0  0  0  0  0
    6.8671   -4.9929    0.0000 H   0  0  0  0  0  0  0  0  0  0  0  0
    5.4641   -5.1829    0.0000 H   0  0  0  0  0  0  0  0  0  0  0  0
    4.5981   -4.0629    0.0000 H   0  0  0  0  0  0  0  0  0  0  0  0
    5.3905    0.2348    0.0000 H   0  0  0  0  0  0  0  0  0  0  0  0
    5.7890   -0.4555    0.0000 H   0  0  0  0  0  0  0  0  0  0  0  0
    5.1350   -2.7529    0.0000 H   0  0  0  0  0  0  0  0  0  0  0  0
    5.1350    1.0071    0.0000 H   0  0  0  0  0  0  0  0  0  0  0  0
    3.7320    0.8171    0.0000 H   0  0  0  0  0  0  0  0  0  0  0  0
    2.8660    1.9371    0.0000 H   0  0  0  0  0  0  0  0  0  0  0  0
    3.4030    3.2471    0.0000 H   0  0  0  0  0  0  0  0  0  0  0  0
    4.8059    3.4371    0.0000 H   0  0  0  0  0  0  0  0  0  0  0  0
    5.4641   -1.5629    0.0000 H   0  0  0  0  0  0  0  0  0  0  0  0
    4.6675   -2.3980    0.0000 H   0  0  0  0  0  0  0  0  0  0  0  0
    3.8705   -2.3980    0.0000 H   0  0  0  0  0  0  0  0  0  0  0  0
   10.0021   -1.5629    0.0000 H   0  0  0  0  0  0  0  0  0  0  0  0
    8.2700   -4.5629    0.0000 H   0  0  0  0  0  0  0  0  0  0  0  0
    4.8796    4.0194    0.0000 H   0  0  0  0  0  0  0  0  0  0  0  0
    4.4810    4.7097    0.0000 H   0  0  0  0  0  0  0  0  0  0  0  0
    6.5380   -6.1829    0.0000 H   0  0  0  0  0  0  0  0  0  0  0  0
    4.2690   -5.4929    0.0000 H   0  0  0  0  0  0  0  0  0  0  0  0
    3.7320   -0.1829    0.0000 H   0  0  0  0  0  0  0  0  0  0  0  0
    2.0000    1.4371    0.0000 H   0  0  0  0  0  0  0  0  0  0  0  0
    2.0000    2.8171    0.0000 H   0  0  0  0  0  0  0  0  0  0  0  0
    2.8660   -3.0629    0.0000 H   0  0  0  0  0  0  0  0  0  0  0  0
   10.9045    1.3455    0.0000 H   0  0  0  0  0  0  0  0  0  0  0  0
    8.0258    1.3455    0.0000 H   0  0  0  0  0  0  0  0  0  0  0  0
    3.4030    5.2471    0.0000 H   0  0  0  0  0  0  0  0  0  0  0  0
    7.1772    2.9046    0.0000 H   0  0  0  0  0  0  0  0  0  0  0  0
    9.8290    6.0050    0.0000 H   0  0  0  0  0  0  0  0  0  0  0  0
   12.9546    3.5629    0.0000 H   0  0  0  0  0  0  0  0  0  0  0  0
   11.5610    5.9983    0.0000 H   0  0  0  0  0  0  0  0  0  0  0  0
   14.3607    4.3675    0.0000 H   0  0  0  0  0  0  0  0  0  0  0  0
   12.9671    6.8029    0.0000 H   0  0  0  0  0  0  0  0  0  0  0  0
   15.2325    5.8642    0.0000 H   0  0  0  0  0  0  0  0  0  0  0  0
  2 24  1  0  0  0  0
  2 27  1  0  0  0  0
  3 26  1  0  0  0  0
  3 32  1  0  0  0  0
  4 31  1  0  0  0  0
  5 72  1  0  0  0  0
  6 33  1  0  0  0  0
  6 37  1  0  0  0  0
  7 25  1  0  0  0  0
  7 75  1  0  0  0  0
  8 40  1  0  0  0  0
  9 28  1  0  0  0  0
  9 76  1  0  0  0  0
 10 79  1  0  0  0  0
 11 80  1  0  0  0  0
 12 34  1  0  0  0  0
 12 81  1  0  0  0  0
 13 82  1  0  0  0  0
 14 83  1  0  0  0  0
 15 38  1  0  0  0  0
 15 84  1  0  0  0  0
 16 39  1  0  0  0  0
 16 87  1  0  0  0  0
 17 43  1  0  0  0  0
 17 47  1  0  0  0  0
 18 44  1  0  0  0  0
 18 88  1  0  0  0  0
 19 46  2  0  0  0  0
 20 48  1  0  0  0  0
 20 89  1  0  0  0  0
 21 54  1  0  0  0  0
 21 94  1  0  0  0  0
 22  1  1  0  0  0  0
 22 23  1  1  0  0  0
 22 25  1  0  0  0  0
 22 55  1  0  0  0  0
 23  5  1  0  0  0  0
 23 24  1  6  0  0  0
 23 56  1  0  0  0  0
 24 31  1  0  0  0  0
 24 57  1  0  0  0  0
 25 58  1  0  0  0  0
 26  1  1  0  0  0  0
 26 28  1  1  0  0  0
 26 59  1  0  0  0  0
 27  8  1  0  0  0  0
 27 25  1  6  0  0  0
 27 60  1  0  0  0  0
 28 61  1  0  0  0  0
 29 10  1  0  0  0  0
 29 28  1  6  0  0  0
 29 62  1  0  0  0  0
 30 11  1  0  0  0  0
 30 29  1  1  0  0  0
 30 32  1  0  0  0  0
 30 63  1  0  0  0  0
 31 64  1  0  0  0  0
 31 65  1  0  0  0  0
 32 38  1  0  0  0  0
 32 66  1  0  0  0  0
 33  4  1  0  0  0  0
 33 34  1  1  0  0  0
 33 67  1  0  0  0  0
 34 68  1  0  0  0  0
 35 13  1  0  0  0  0
 35 34  1  6  0  0  0
 35 69  1  0  0  0  0
 36 14  1  0  0  0  0
 36 35  1  1  0  0  0
 36 37  1  0  0  0  0
 36 70  1  0  0  0  0
 37 39  1  0  0  0  0
 37 71  1  0  0  0  0
 38 73  1  0  0  0  0
 38 74  1  0  0  0  0
 39 77  1  0  0  0  0
 39 78  1  0  0  0  0
 40 41  1  0  0  0  0
 40 42  2  0  0  0  0
 41 43  2  0  0  0  0
 41 85  1  0  0  0  0
 42 44  1  0  0  0  0
 42 86  1  0  0  0  0
 43 45  1  0  0  0  0
 44 45  2  0  0  0  0
 45 46  1  0  0  0  0
 46 48  1  0  0  0  0
 47 48  2  0  0  0  0
 47 49  1  0  0  0  0
 49 50  2  0  0  0  0
 49 51  1  0  0  0  0
 50 52  1  0  0  0  0
 50 90  1  0  0  0  0
 51 53  2  0  0  0  0
 51 91  1  0  0  0  0
 52 54  2  0  0  0  0
 52 92  1  0  0  0  0
 53 54  1  0  0  0  0
 53 93  1  0  0  0  0
M  END
>  <PUBCHEM_COMPOUND_CID>
44258991

>  <PUBCHEM_COMPOUND_CANONICALIZED>
1

>  <PUBCHEM_CACTVS_COMPLEXITY>
1300

>  <PUBCHEM_CACTVS_HBOND_ACCEPTOR>
21

>  <PUBCHEM_CACTVS_HBOND_DONOR>
13

>  <PUBCHEM_CACTVS_ROTATABLE_BOND>
10

>  <PUBCHEM_CACTVS_SUBSKEYS>
AAADcfB8PgAAAAAAAAAAAAAAAAAAAAAAAAA0aJECAAAAAACBQAAAGgAACAAADBSwmAMwDoAABgCIAqBSAAICCAAkIAAIiAFGCMgdNzaGNRqieWCl4BUPuQfI7KzOIAAACAAIAABAAAAQABAAAAAAAAAAAA==

>  <PUBCHEM_IUPAC_OPENEYE_NAME>
7-[(2S,4S,5R)-3,5-dihydroxy-4-[(2R,4S,5S)-3,4,5-trihydroxy-6-(hydroxymethyl)tetrahydropyran-2-yl]oxy-6-[[(2R,4S,5S)-3,4,5-trihydroxy-6-(hydroxymethyl)tetrahydropyran-2-yl]oxymethyl]tetrahydropyran-2-yl]oxy-3,5-dihydroxy-2-(4-hydroxyphenyl)chromen-4-one

>  <PUBCHEM_IUPAC_CAS_NAME>
7-[[(2S,4S,5R)-3,5-dihydroxy-4-[[(2R,4S,5S)-3,4,5-trihydroxy-6-(hydroxymethyl)-2-oxanyl]oxy]-6-[[(2R,4S,5S)-3,4,5-trihydroxy-6-(hydroxymethyl)-2-oxanyl]oxymethyl]-2-oxanyl]oxy]-3,5-dihydroxy-2-(4-hydroxyphenyl)-1-benzopyran-4-one

>  <PUBCHEM_IUPAC_NAME>
7-[(2S,4S,5R)-3,5-dihydroxy-4-[(2R,4S,5S)-3,4,5-trihydroxy-6-(hydroxymethyl)oxan-2-yl]oxy-6-[[(2R,4S,5S)-3,4,5-trihydroxy-6-(hydroxymethyl)oxan-2-yl]oxymethyl]oxan-2-yl]oxy-3,5-dihydroxy-2-(4-hydroxyphenyl)chromen-4-one

>  <PUBCHEM_IUPAC_SYSTEMATIC_NAME>
7-[(2S,4S,5R)-4-[(2R,4S,5S)-6-(hydroxymethyl)-3,4,5-tris(oxidanyl)oxan-2-yl]oxy-6-[[(2R,4S,5S)-6-(hydroxymethyl)-3,4,5-tris(oxidanyl)oxan-2-yl]oxymethyl]-3,5-bis(oxidanyl)oxan-2-yl]oxy-2-(4-hydroxyphenyl)-3,5-bis(oxidanyl)chromen-4-one

>  <PUBCHEM_IUPAC_TRADITIONAL_NAME>
7-[(2S,4S,5R)-3,5-dihydroxy-4-[(2R,4S,5S)-3,4,5-trihydroxy-6-methylol-tetrahydropyran-2-yl]oxy-6-[[(2R,4S,5S)-3,4,5-trihydroxy-6-methylol-tetrahydropyran-2-yl]oxymethyl]tetrahydropyran-2-yl]oxy-3,5-dihydroxy-2-(4-hydroxyphenyl)chromone

>  <PUBCHEM_IUPAC_INCHI>
InChI=1S/C33H40O21/c34-7-15-19(38)23(42)26(45)31(51-15)48-9-17-21(40)30(54-32-27(46)24(43)20(39)16(8-35)52-32)28(47)33(53-17)49-12-5-13(37)18-14(6-12)50-29(25(44)22(18)41)10-1-3-11(36)4-2-10/h1-6,15-17,19-21,23-24,26-28,30-40,42-47H,7-9H2/t15?,16?,17?,19-,20-,21-,23+,24+,26?,27?,28?,30+,31-,32+,33-/m1/s1

>  <PUBCHEM_IUPAC_INCHIKEY>
UOYDGTLOICLFRN-NBWFVKCCSA-N

>  <PUBCHEM_XLOGP3_AA>
-3

>  <PUBCHEM_EXACT_MASS>
772.206

>  <PUBCHEM_MOLECULAR_FORMULA>
C33H40O21

>  <PUBCHEM_MOLECULAR_WEIGHT>
772.662

>  <PUBCHEM_OPENEYE_CAN_SMILES>
C1=CC(=CC=C1C2=C(C(=O)C3=C(C=C(C=C3O2)OC4C(C(C(C(O4)COC5C(C(C(C(O5)CO)O)O)O)O)OC6C(C(C(C(O6)CO)O)O)O)O)O)O)O

>  <PUBCHEM_OPENEYE_ISO_SMILES>
C1=CC(=CC=C1C2=C(C(=O)C3=C(C=C(C=C3O2)O[C@H]4C([C@H]([C@@H](C(O4)CO[C@H]5C([C@H]([C@@H](C(O5)CO)O)O)O)O)O[C@H]6C([C@H]([C@@H](C(O6)CO)O)O)O)O)O)O)O

>  <PUBCHEM_CACTVS_TPSA>
345

>  <PUBCHEM_MONOISOTOPIC_WEIGHT>
772.206

>  <PUBCHEM_TOTAL_CHARGE>
0

>  <PUBCHEM_HEAVY_ATOM_COUNT>
54

>  <PUBCHEM_ATOM_DEF_STEREO_COUNT>
9

>  <PUBCHEM_ATOM_UDEF_STEREO_COUNT>
6

>  <PUBCHEM_BOND_DEF_STEREO_COUNT>
0

>  <PUBCHEM_BOND_UDEF_STEREO_COUNT>
0

>  <PUBCHEM_ISOTOPIC_ATOM_COUNT>
0

>  <PUBCHEM_COMPONENT_COUNT>
1

>  <PUBCHEM_CACTVS_TAUTO_COUNT>
53

>  <PUBCHEM_COORDINATE_TYPE>
1
5
255

>  <PUBCHEM_BONDANNOTATIONS>
22  1  5
26  1  5
29  10  5
30  11  6
34  12  3
35  13  5
36  14  6
17  43  8
17  47  8
24  31  3
32  38  3
37  39  3
33  4  5
40  41  8
40  42  8
41  43  8
42  44  8
43  45  8
44  45  8
45  46  8
46  48  8
47  48  8
49  50  8
49  51  8
23  5  6
50  52  8
51  53  8
52  54  8
53  54  8
25  7  3
27  8  5
28  9  3

$$$$
