44259786
 OpenBabel06101807152D

 95100  0  0  1  0  0  0  0  0999 V2000
   10.3312   -1.6092    0.0000 O   0  0  0  0  0  0  0  0  0  0  0  0
    8.5991    0.3908    0.0000 O   0  0  0  0  0  0  0  0  0  0  0  0
    9.5222   -3.1970    0.0000 O   0  0  0  0  0  0  0  0  0  0  0  0
    6.0010   -0.1092    0.0000 O   0  0  0  0  0  0  0  0  0  0  0  0
    8.5991   -2.6092    0.0000 O   0  0  0  0  0  0  0  0  0  0  0  0
   10.3312    0.3908    0.0000 O   0  0  0  0  0  0  0  0  0  0  0  0
    6.8671   -1.6092    0.0000 O   0  0  0  0  0  0  0  0  0  0  0  0
    5.1350    1.3908    0.0000 O   0  0  0  0  0  0  0  0  0  0  0  0
   11.7822   -4.4570    0.0000 O   0  0  0  0  0  0  0  0  0  0  0  0
   12.0912   -2.8879    0.0000 O   0  0  0  0  0  0  0  0  0  0  0  0
    4.2690   -1.1092    0.0000 O   0  0  0  0  0  0  0  0  0  0  0  0
    2.5369   -0.1092    0.0000 O   0  0  0  0  0  0  0  0  0  0  0  0
   11.6972   -5.6480    0.0000 O   0  0  0  0  0  0  0  0  0  0  0  0
    2.5369    1.8908    0.0000 O   0  0  0  0  0  0  0  0  0  0  0  0
    3.4030    3.3908    0.0000 O   0  0  0  0  0  0  0  0  0  0  0  0
   11.1972    2.8908    0.0000 O   0  0  0  0  0  0  0  0  0  0  0  0
    8.5991    1.3908    0.0000 O   0  0  0  0  0  0  0  0  0  0  0  0
    7.6950    2.8877    0.0000 O   0  0  0  0  0  0  0  0  0  0  0  0
    7.6792    4.9359    0.0000 O   0  0  0  0  0  0  0  0  0  0  0  0
    9.4530    5.9601    0.0000 O   0  0  0  0  0  0  0  0  0  0  0  0
   14.6613    1.8908    0.0000 O   0  0  0  0  0  0  0  0  0  0  0  0
   14.6613   -0.1092    0.0000 O   0  0  0  0  0  0  0  0  0  0  0  0
    9.4651   -1.1092    0.0000 C   0  0  3  0  0  0  0  0  0  0  0  0
    8.5991   -1.6092    0.0000 C   0  0  3  0  0  0  0  0  0  0  0  0
    7.7331   -1.1092    0.0000 C   0  0  3  0  0  0  0  0  0  0  0  0
    7.7331   -0.1092    0.0000 C   0  0  3  0  0  0  0  0  0  0  0  0
   10.8312   -4.1480    0.0000 C   0  0  3  0  0  0  0  0  0  0  0  0
   10.3312   -2.6092    0.0000 C   0  0  3  0  0  0  0  0  0  0  0  0
   11.1402   -3.1970    0.0000 C   0  0  3  0  0  0  0  0  0  0  0  0
    9.4651   -0.1092    0.0000 C   0  0  3  0  0  0  0  0  0  0  0  0
    9.8312   -4.1480    0.0000 C   0  0  0  0  0  0  0  0  0  0  0  0
    6.8671    0.3908    0.0000 C   0  0  0  0  0  0  0  0  0  0  0  0
    5.1350    0.3908    0.0000 C   0  0  3  0  0  0  0  0  0  0  0  0
    4.2690   -0.1092    0.0000 C   0  0  3  0  0  0  0  0  0  0  0  0
   10.8312   -5.1480    0.0000 C   0  0  0  0  0  0  0  0  0  0  0  0
    3.4030    0.3908    0.0000 C   0  0  3  0  0  0  0  0  0  0  0  0
    3.4030    1.3908    0.0000 C   0  0  3  0  0  0  0  0  0  0  0  0
    4.2690    1.8908    0.0000 C   0  0  3  0  0  0  0  0  0  0  0  0
    4.2690    2.8908    0.0000 C   0  0  0  0  0  0  0  0  0  0  0  0
   10.3312    1.3908    0.0000 C   0  0  0  0  0  0  0  0  0  0  0  0
   11.1972    1.8908    0.0000 C   0  0  0  0  0  0  0  0  0  0  0  0
    9.4651    1.8908    0.0000 C   0  0  0  0  0  0  0  0  0  0  0  0
    9.4651    2.8908    0.0000 C   0  0  0  0  0  0  0  0  0  0  0  0
   12.0632    1.3908    0.0000 C   0  0  0  0  0  0  0  0  0  0  0  0
   10.3312    3.3908    0.0000 C   0  0  0  0  0  0  0  0  0  0  0  0
    8.5551    3.3977    0.0000 C   0  0  0  0  0  0  0  0  0  0  0  0
   10.3472    4.4323    0.0000 C   0  0  0  0  0  0  0  0  0  0  0  0
   12.9292    1.8908    0.0000 C   0  0  0  0  0  0  0  0  0  0  0  0
   12.0632    0.3908    0.0000 C   0  0  0  0  0  0  0  0  0  0  0  0
    8.5471    4.4393    0.0000 C   0  0  0  0  0  0  0  0  0  0  0  0
    9.4492    4.9601    0.0000 C   0  0  0  0  0  0  0  0  0  0  0  0
   13.7953    1.3908    0.0000 C   0  0  0  0  0  0  0  0  0  0  0  0
   12.9292   -0.1092    0.0000 C   0  0  0  0  0  0  0  0  0  0  0  0
   13.7953    0.3908    0.0000 C   0  0  0  0  0  0  0  0  0  0  0  0
    7.6753    5.9359    0.0000 C   0  0  0  0  0  0  0  0  0  0  0  0
   10.0021   -0.7992    0.0000 H   0  0  0  0  0  0  0  0  0  0  0  0
    8.0622   -1.9192    0.0000 H   0  0  0  0  0  0  0  0  0  0  0  0
    7.1962   -0.7992    0.0000 H   0  0  0  0  0  0  0  0  0  0  0  0
    7.7331    0.5108    0.0000 H   0  0  0  0  0  0  0  0  0  0  0  0
   10.8836   -2.3277    0.0000 H   0  0  0  0  0  0  0  0  0  0  0  0
   11.2372   -2.5846    0.0000 H   0  0  0  0  0  0  0  0  0  0  0  0
    9.4651    0.5108    0.0000 H   0  0  0  0  0  0  0  0  0  0  0  0
    9.2247   -4.2769    0.0000 H   0  0  0  0  0  0  0  0  0  0  0  0
    9.8960   -4.7646    0.0000 H   0  0  0  0  0  0  0  0  0  0  0  0
    7.2656    0.8658    0.0000 H   0  0  0  0  0  0  0  0  0  0  0  0
    6.4685    0.8658    0.0000 H   0  0  0  0  0  0  0  0  0  0  0  0
    5.1350   -0.2292    0.0000 H   0  0  0  0  0  0  0  0  0  0  0  0
    3.7320   -0.4192    0.0000 H   0  0  0  0  0  0  0  0  0  0  0  0
   10.2206   -5.0404    0.0000 H   0  0  0  0  0  0  0  0  0  0  0  0
   10.6191   -5.7306    0.0000 H   0  0  0  0  0  0  0  0  0  0  0  0
    2.8660    0.7008    0.0000 H   0  0  0  0  0  0  0  0  0  0  0  0
    3.4030    2.0108    0.0000 H   0  0  0  0  0  0  0  0  0  0  0  0
    4.8059    2.2008    0.0000 H   0  0  0  0  0  0  0  0  0  0  0  0
    8.0622   -2.9192    0.0000 H   0  0  0  0  0  0  0  0  0  0  0  0
    6.8671   -2.2292    0.0000 H   0  0  0  0  0  0  0  0  0  0  0  0
   12.2430   -4.0422    0.0000 H   0  0  0  0  0  0  0  0  0  0  0  0
   12.2201   -2.2815    0.0000 H   0  0  0  0  0  0  0  0  0  0  0  0
    4.8796    2.7832    0.0000 H   0  0  0  0  0  0  0  0  0  0  0  0
    4.4810    3.4734    0.0000 H   0  0  0  0  0  0  0  0  0  0  0  0
    3.7320   -1.4192    0.0000 H   0  0  0  0  0  0  0  0  0  0  0  0
    2.0000    0.2008    0.0000 H   0  0  0  0  0  0  0  0  0  0  0  0
   11.6972   -6.2680    0.0000 H   0  0  0  0  0  0  0  0  0  0  0  0
    2.0000    1.5808    0.0000 H   0  0  0  0  0  0  0  0  0  0  0  0
    3.4030    4.0108    0.0000 H   0  0  0  0  0  0  0  0  0  0  0  0
   10.8877    4.7361    0.0000 H   0  0  0  0  0  0  0  0  0  0  0  0
   12.9292    2.5108    0.0000 H   0  0  0  0  0  0  0  0  0  0  0  0
   11.5263    0.0808    0.0000 H   0  0  0  0  0  0  0  0  0  0  0  0
   12.9292   -0.7292    0.0000 H   0  0  0  0  0  0  0  0  0  0  0  0
    7.1545    3.1915    0.0000 H   0  0  0  0  0  0  0  0  0  0  0  0
    9.9912    6.2680    0.0000 H   0  0  0  0  0  0  0  0  0  0  0  0
   14.6613    2.5108    0.0000 H   0  0  0  0  0  0  0  0  0  0  0  0
    8.2953    5.9383    0.0000 H   0  0  0  0  0  0  0  0  0  0  0  0
    7.6729    6.5559    0.0000 H   0  0  0  0  0  0  0  0  0  0  0  0
    7.0553    5.9335    0.0000 H   0  0  0  0  0  0  0  0  0  0  0  0
   14.6613   -0.7292    0.0000 H   0  0  0  0  0  0  0  0  0  0  0  0
  1 23  1  0  0  0  0
  1 28  1  0  0  0  0
  2 26  1  0  0  0  0
  2 30  1  0  0  0  0
  3 28  1  0  0  0  0
  3 31  1  0  0  0  0
  4 32  1  0  0  0  0
  4 33  1  0  0  0  0
  5 24  1  0  0  0  0
  5 74  1  0  0  0  0
  6 30  1  0  0  0  0
  6 40  1  0  0  0  0
  7 25  1  0  0  0  0
  7 75  1  0  0  0  0
  8 33  1  0  0  0  0
  8 38  1  0  0  0  0
  9 27  1  0  0  0  0
  9 76  1  0  0  0  0
 10 29  1  0  0  0  0
 10 77  1  0  0  0  0
 11 34  1  0  0  0  0
 11 80  1  0  0  0  0
 12 36  1  0  0  0  0
 12 81  1  0  0  0  0
 13 35  1  0  0  0  0
 13 82  1  0  0  0  0
 14 37  1  0  0  0  0
 14 83  1  0  0  0  0
 15 39  1  0  0  0  0
 15 84  1  0  0  0  0
 16 41  1  0  0  0  0
 16 45  1  0  0  0  0
 17 42  2  0  0  0  0
 18 46  1  0  0  0  0
 18 89  1  0  0  0  0
 19 50  1  0  0  0  0
 19 55  1  0  0  0  0
 20 51  1  0  0  0  0
 20 90  1  0  0  0  0
 21 52  1  0  0  0  0
 21 91  1  0  0  0  0
 22 54  1  0  0  0  0
 22 95  1  0  0  0  0
 23 24  1  0  0  0  0
 23 30  1  0  0  0  0
 23 56  1  0  0  0  0
 24 25  1  0  0  0  0
 24 57  1  0  0  0  0
 25 26  1  0  0  0  0
 25 58  1  0  0  0  0
 26 32  1  0  0  0  0
 26 59  1  0  0  0  0
 27 29  1  0  0  0  0
 27 31  1  0  0  0  0
 27 35  1  0  0  0  0
 28 29  1  0  0  0  0
 28 60  1  0  0  0  0
 29 61  1  0  0  0  0
 30 62  1  0  0  0  0
 31 63  1  0  0  0  0
 31 64  1  0  0  0  0
 32 65  1  0  0  0  0
 32 66  1  0  0  0  0
 33 34  1  0  0  0  0
 33 67  1  0  0  0  0
 34 36  1  0  0  0  0
 34 68  1  0  0  0  0
 35 69  1  0  0  0  0
 35 70  1  0  0  0  0
 36 37  1  0  0  0  0
 36 71  1  0  0  0  0
 37 38  1  0  0  0  0
 37 72  1  0  0  0  0
 38 39  1  0  0  0  0
 38 73  1  0  0  0  0
 39 78  1  0  0  0  0
 39 79  1  0  0  0  0
 40 41  2  0  0  0  0
 40 42  1  0  0  0  0
 41 44  1  0  0  0  0
 42 43  1  0  0  0  0
 43 45  2  0  0  0  0
 43 46  1  0  0  0  0
 44 48  2  0  0  0  0
 44 49  1  0  0  0  0
 45 47  1  0  0  0  0
 46 50  2  0  0  0  0
 47 51  2  0  0  0  0
 47 85  1  0  0  0  0
 48 52  1  0  0  0  0
 48 86  1  0  0  0  0
 49 53  2  0  0  0  0
 49 87  1  0  0  0  0
 50 51  1  0  0  0  0
 52 54  2  0  0  0  0
 53 54  1  0  0  0  0
 53 88  1  0  0  0  0
 55 92  1  0  0  0  0
 55 93  1  0  0  0  0
 55 94  1  0  0  0  0
M  END
>  <PUBCHEM_COMPOUND_CID>
44259786

>  <PUBCHEM_COMPOUND_CANONICALIZED>
1

>  <PUBCHEM_CACTVS_COMPLEXITY>
1350

>  <PUBCHEM_CACTVS_HBOND_ACCEPTOR>
22

>  <PUBCHEM_CACTVS_HBOND_DONOR>
13

>  <PUBCHEM_CACTVS_ROTATABLE_BOND>
11

>  <PUBCHEM_CACTVS_SUBSKEYS>
AAADcfB8PgAAAAAAAAAAAAAAAAAAASAAAAA0aIECAAAAAACBQAAAGgAACAAADFSwmAMyDoAABgCIAqBSAAICCAAkIAAIiAFGiMgdNzaGNR6ieWOl4BUPuQfK7LzOIQABCAAIQABCAAIQABCAAAAAAAAAAA==

>  <PUBCHEM_IUPAC_OPENEYE_NAME>
3-[3-[3,4-dihydroxy-4-(hydroxymethyl)tetrahydrofuran-2-yl]oxy-4,5-dihydroxy-6-[[3,4,5-trihydroxy-6-(hydroxymethyl)tetrahydropyran-2-yl]oxymethyl]tetrahydropyran-2-yl]oxy-2-(3,4-dihydroxyphenyl)-5,7-dihydroxy-6-methoxy-chromen-4-one

>  <PUBCHEM_IUPAC_CAS_NAME>
3-[[3-[[3,4-dihydroxy-4-(hydroxymethyl)-2-oxolanyl]oxy]-4,5-dihydroxy-6-[[3,4,5-trihydroxy-6-(hydroxymethyl)-2-oxanyl]oxymethyl]-2-oxanyl]oxy]-2-(3,4-dihydroxyphenyl)-5,7-dihydroxy-6-methoxy-1-benzopyran-4-one

>  <PUBCHEM_IUPAC_NAME>
3-[3-[3,4-dihydroxy-4-(hydroxymethyl)oxolan-2-yl]oxy-4,5-dihydroxy-6-[[3,4,5-trihydroxy-6-(hydroxymethyl)oxan-2-yl]oxymethyl]oxan-2-yl]oxy-2-(3,4-dihydroxyphenyl)-5,7-dihydroxy-6-methoxychromen-4-one

>  <PUBCHEM_IUPAC_SYSTEMATIC_NAME>
2-[3,4-bis(oxidanyl)phenyl]-3-[3-[4-(hydroxymethyl)-3,4-bis(oxidanyl)oxolan-2-yl]oxy-6-[[6-(hydroxymethyl)-3,4,5-tris(oxidanyl)oxan-2-yl]oxymethyl]-4,5-bis(oxidanyl)oxan-2-yl]oxy-6-methoxy-5,7-bis(oxidanyl)chromen-4-one

>  <PUBCHEM_IUPAC_TRADITIONAL_NAME>
3-[3-(3,4-dihydroxy-4-methylol-tetrahydrofuran-2-yl)oxy-4,5-dihydroxy-6-[(3,4,5-trihydroxy-6-methylol-tetrahydropyran-2-yl)oxymethyl]tetrahydropyran-2-yl]oxy-2-(3,4-dihydroxyphenyl)-5,7-dihydroxy-6-methoxy-chromone

>  <PUBCHEM_IUPAC_INCHI>
InChI=1S/C33H40O22/c1-48-26-13(38)5-14-17(20(26)41)21(42)27(25(51-14)10-2-3-11(36)12(37)4-10)54-31-28(55-32-29(46)33(47,8-35)9-50-32)23(44)19(40)16(53-31)7-49-30-24(45)22(43)18(39)15(6-34)52-30/h2-5,15-16,18-19,22-24,28-32,34-41,43-47H,6-9H2,1H3

>  <PUBCHEM_IUPAC_INCHIKEY>
IQBTXBIIGNASBG-UHFFFAOYSA-N

>  <PUBCHEM_XLOGP3_AA>
-3

>  <PUBCHEM_EXACT_MASS>
788.201

>  <PUBCHEM_MOLECULAR_FORMULA>
C33H40O22

>  <PUBCHEM_MOLECULAR_WEIGHT>
788.661

>  <PUBCHEM_OPENEYE_CAN_SMILES>
COC1=C(C=C2C(=C1O)C(=O)C(=C(O2)C3=CC(=C(C=C3)O)O)OC4C(C(C(C(O4)COC5C(C(C(C(O5)CO)O)O)O)O)O)OC6C(C(CO6)(CO)O)O)O

>  <PUBCHEM_OPENEYE_ISO_SMILES>
COC1=C(C=C2C(=C1O)C(=O)C(=C(O2)C3=CC(=C(C=C3)O)O)OC4C(C(C(C(O4)COC5C(C(C(C(O5)CO)O)O)O)O)O)OC6C(C(CO6)(CO)O)O)O

>  <PUBCHEM_CACTVS_TPSA>
354

>  <PUBCHEM_MONOISOTOPIC_WEIGHT>
788.201

>  <PUBCHEM_TOTAL_CHARGE>
0

>  <PUBCHEM_HEAVY_ATOM_COUNT>
55

>  <PUBCHEM_ATOM_DEF_STEREO_COUNT>
0

>  <PUBCHEM_ATOM_UDEF_STEREO_COUNT>
13

>  <PUBCHEM_BOND_DEF_STEREO_COUNT>
0

>  <PUBCHEM_BOND_UDEF_STEREO_COUNT>
0

>  <PUBCHEM_ISOTOPIC_ATOM_COUNT>
0

>  <PUBCHEM_COMPONENT_COUNT>
1

>  <PUBCHEM_CACTVS_TAUTO_COUNT>
162

>  <PUBCHEM_COORDINATE_TYPE>
1
5
255

>  <PUBCHEM_BONDANNOTATIONS>
23  1  3
28  1  3
29  10  3
34  11  3
36  12  3
37  14  3
16  41  8
16  45  8
26  32  3
38  39  3
33  4  3
40  41  8
40  42  8
42  43  8
43  45  8
43  46  8
44  48  8
44  49  8
45  47  8
46  50  8
47  51  8
48  52  8
49  53  8
24  5  3
50  51  8
52  54  8
53  54  8
30  6  3
25  7  3
27  9  3

$$$$
