44258045
 OpenBabel06101807152D

 46 48  0  0  0  0  0  0  0  0999 V2000
    6.3981   -0.1754    0.0000 O   0  0  0  0  0  0  0  0  0  0  0  0
    8.1301    1.8246    0.0000 O   0  0  0  0  0  0  0  0  0  0  0  0
    2.8680    1.8488    0.0000 O   0  0  0  0  0  0  0  0  0  0  0  0
    4.6497    2.8592    0.0000 O   0  0  0  0  0  0  0  0  0  0  0  0
    8.9962   -2.6754    0.0000 O   0  0  0  0  0  0  0  0  0  0  0  0
    6.3981    2.8246    0.0000 O   0  0  0  0  0  0  0  0  0  0  0  0
   10.7282   -1.6754    0.0000 O   0  0  0  0  0  0  0  0  0  0  0  0
    2.8680   -0.1995    0.0000 O   0  0  0  0  0  0  0  0  0  0  0  0
   10.7282    0.3246    0.0000 O   0  0  0  0  0  0  0  0  0  0  0  0
    5.5320    1.3246    0.0000 C   0  0  0  0  0  0  0  0  0  0  0  0
    7.2641    0.3246    0.0000 C   0  0  0  0  0  0  0  0  0  0  0  0
    5.5320    0.3246    0.0000 C   0  0  0  0  0  0  0  0  0  0  0  0
    8.1301   -0.1754    0.0000 C   0  0  0  0  0  0  0  0  0  0  0  0
    7.2641    1.3246    0.0000 C   0  0  0  0  0  0  0  0  0  0  0  0
    6.3981    1.8246    0.0000 C   0  0  0  0  0  0  0  0  0  0  0  0
    4.6381    1.8593    0.0000 C   0  0  0  0  0  0  0  0  0  0  0  0
    4.6381   -0.2101    0.0000 C   0  0  0  0  0  0  0  0  0  0  0  0
    3.7320    1.3454    0.0000 C   0  0  0  0  0  0  0  0  0  0  0  0
    8.1301   -1.1754    0.0000 C   0  0  0  0  0  0  0  0  0  0  0  0
    8.9962    0.3246    0.0000 C   0  0  0  0  0  0  0  0  0  0  0  0
    3.7320    0.3038    0.0000 C   0  0  0  0  0  0  0  0  0  0  0  0
    8.9962   -1.6754    0.0000 C   0  0  0  0  0  0  0  0  0  0  0  0
    9.8622   -0.1754    0.0000 C   0  0  0  0  0  0  0  0  0  0  0  0
    9.8622   -1.1754    0.0000 C   0  0  0  0  0  0  0  0  0  0  0  0
    8.1301    2.8246    0.0000 C   0  0  0  0  0  0  0  0  0  0  0  0
    2.0000    1.3521    0.0000 C   0  0  0  0  0  0  0  0  0  0  0  0
    8.1301   -3.1754    0.0000 C   0  0  0  0  0  0  0  0  0  0  0  0
   10.7282   -2.6754    0.0000 C   0  0  0  0  0  0  0  0  0  0  0  0
    4.6453   -0.8300    0.0000 H   0  0  0  0  0  0  0  0  0  0  0  0
    7.5932   -1.4854    0.0000 H   0  0  0  0  0  0  0  0  0  0  0  0
    8.9962    0.9446    0.0000 H   0  0  0  0  0  0  0  0  0  0  0  0
    4.1164    3.1754    0.0000 H   0  0  0  0  0  0  0  0  0  0  0  0
    8.7501    2.8246    0.0000 H   0  0  0  0  0  0  0  0  0  0  0  0
    8.1301    3.4446    0.0000 H   0  0  0  0  0  0  0  0  0  0  0  0
    7.5101    2.8246    0.0000 H   0  0  0  0  0  0  0  0  0  0  0  0
    2.8703   -0.8195    0.0000 H   0  0  0  0  0  0  0  0  0  0  0  0
   11.2651    0.0146    0.0000 H   0  0  0  0  0  0  0  0  0  0  0  0
    1.6921    1.8902    0.0000 H   0  0  0  0  0  0  0  0  0  0  0  0
    1.4619    1.0442    0.0000 H   0  0  0  0  0  0  0  0  0  0  0  0
    2.3079    0.8140    0.0000 H   0  0  0  0  0  0  0  0  0  0  0  0
    7.8201   -2.6385    0.0000 H   0  0  0  0  0  0  0  0  0  0  0  0
    7.5932   -3.4854    0.0000 H   0  0  0  0  0  0  0  0  0  0  0  0
    8.4401   -3.7123    0.0000 H   0  0  0  0  0  0  0  0  0  0  0  0
   10.1082   -2.6754    0.0000 H   0  0  0  0  0  0  0  0  0  0  0  0
   10.7282   -3.2954    0.0000 H   0  0  0  0  0  0  0  0  0  0  0  0
   11.3482   -2.6754    0.0000 H   0  0  0  0  0  0  0  0  0  0  0  0
  1 11  1  0  0  0  0
  1 12  1  0  0  0  0
  2 14  1  0  0  0  0
  2 25  1  0  0  0  0
  3 18  1  0  0  0  0
  3 26  1  0  0  0  0
  4 16  1  0  0  0  0
  4 32  1  0  0  0  0
  5 22  1  0  0  0  0
  5 27  1  0  0  0  0
  6 15  2  0  0  0  0
  7 24  1  0  0  0  0
  7 28  1  0  0  0  0
  8 21  1  0  0  0  0
  8 36  1  0  0  0  0
  9 23  1  0  0  0  0
  9 37  1  0  0  0  0
 10 12  2  0  0  0  0
 10 15  1  0  0  0  0
 10 16  1  0  0  0  0
 11 13  1  0  0  0  0
 11 14  2  0  0  0  0
 12 17  1  0  0  0  0
 13 19  1  0  0  0  0
 13 20  2  0  0  0  0
 14 15  1  0  0  0  0
 16 18  2  0  0  0  0
 17 21  2  0  0  0  0
 17 29  1  0  0  0  0
 18 21  1  0  0  0  0
 19 22  2  0  0  0  0
 19 30  1  0  0  0  0
 20 23  1  0  0  0  0
 20 31  1  0  0  0  0
 22 24  1  0  0  0  0
 23 24  2  0  0  0  0
 25 33  1  0  0  0  0
 25 34  1  0  0  0  0
 25 35  1  0  0  0  0
 26 38  1  0  0  0  0
 26 39  1  0  0  0  0
 26 40  1  0  0  0  0
 27 41  1  0  0  0  0
 27 42  1  0  0  0  0
 27 43  1  0  0  0  0
 28 44  1  0  0  0  0
 28 45  1  0  0  0  0
 28 46  1  0  0  0  0
M  END
>  <PUBCHEM_COMPOUND_CID>
44258045

>  <PUBCHEM_COMPOUND_CANONICALIZED>
1

>  <PUBCHEM_CACTVS_COMPLEXITY>
606

>  <PUBCHEM_CACTVS_HBOND_ACCEPTOR>
9

>  <PUBCHEM_CACTVS_HBOND_DONOR>
3

>  <PUBCHEM_CACTVS_ROTATABLE_BOND>
5

>  <PUBCHEM_CACTVS_SUBSKEYS>
AAADceB4PAAAAAAAAAAAAAAAAAAAAAAAAAAwYIAAAAAAAACBQAAAGgAACAAADASAmAIyBoAABgCIAqBSAAICCAAkIAAAiAFGiMgNJzaGNR6CeWOl4BULuQfK7LzOIQABCAAIQABCAAIQABCAAAAAAAAAAA==

>  <PUBCHEM_IUPAC_OPENEYE_NAME>
5,7-dihydroxy-2-(3-hydroxy-4,5-dimethoxy-phenyl)-3,6-dimethoxy-chromen-4-one

>  <PUBCHEM_IUPAC_CAS_NAME>
5,7-dihydroxy-2-(3-hydroxy-4,5-dimethoxyphenyl)-3,6-dimethoxy-1-benzopyran-4-one

>  <PUBCHEM_IUPAC_NAME>
5,7-dihydroxy-2-(3-hydroxy-4,5-dimethoxyphenyl)-3,6-dimethoxychromen-4-one

>  <PUBCHEM_IUPAC_SYSTEMATIC_NAME>
2-(3,4-dimethoxy-5-oxidanyl-phenyl)-3,6-dimethoxy-5,7-bis(oxidanyl)chromen-4-one

>  <PUBCHEM_IUPAC_TRADITIONAL_NAME>
5,7-dihydroxy-2-(3-hydroxy-4,5-dimethoxy-phenyl)-3,6-dimethoxy-chromone

>  <PUBCHEM_IUPAC_INCHI>
InChI=1S/C19H18O9/c1-24-12-6-8(5-9(20)17(12)25-2)16-19(27-4)15(23)13-11(28-16)7-10(21)18(26-3)14(13)22/h5-7,20-22H,1-4H3

>  <PUBCHEM_IUPAC_INCHIKEY>
WTTGIVJDHDPLCL-UHFFFAOYSA-N

>  <PUBCHEM_XLOGP3_AA>
2.8

>  <PUBCHEM_EXACT_MASS>
390.095

>  <PUBCHEM_MOLECULAR_FORMULA>
C19H18O9

>  <PUBCHEM_MOLECULAR_WEIGHT>
390.344

>  <PUBCHEM_OPENEYE_CAN_SMILES>
COC1=CC(=CC(=C1OC)O)C2=C(C(=O)C3=C(C(=C(C=C3O2)O)OC)O)OC

>  <PUBCHEM_OPENEYE_ISO_SMILES>
COC1=CC(=CC(=C1OC)O)C2=C(C(=O)C3=C(C(=C(C=C3O2)O)OC)O)OC

>  <PUBCHEM_CACTVS_TPSA>
124

>  <PUBCHEM_MONOISOTOPIC_WEIGHT>
390.095

>  <PUBCHEM_TOTAL_CHARGE>
0

>  <PUBCHEM_HEAVY_ATOM_COUNT>
28

>  <PUBCHEM_ATOM_DEF_STEREO_COUNT>
0

>  <PUBCHEM_ATOM_UDEF_STEREO_COUNT>
0

>  <PUBCHEM_BOND_DEF_STEREO_COUNT>
0

>  <PUBCHEM_BOND_UDEF_STEREO_COUNT>
0

>  <PUBCHEM_ISOTOPIC_ATOM_COUNT>
0

>  <PUBCHEM_COMPONENT_COUNT>
1

>  <PUBCHEM_CACTVS_TAUTO_COUNT>
36

>  <PUBCHEM_COORDINATE_TYPE>
1
5
255

>  <PUBCHEM_BONDANNOTATIONS>
1  11  8
1  12  8
10  12  8
10  15  8
10  16  8
11  14  8
12  17  8
13  19  8
13  20  8
14  15  8
16  18  8
17  21  8
18  21  8
19  22  8
20  23  8
22  24  8
23  24  8

$$$$
