44257286
 OpenBabel06101807152D

 69 71  0  0  0  0  0  0  0  0999 V2000
    6.0290   -1.8017    0.0000 O   0  0  0  0  0  0  0  0  0  0  0  0
   10.3914    1.7671    0.0000 O   0  0  0  0  0  0  0  0  0  0  0  0
    6.0174    1.2675    0.0000 O   0  0  0  0  0  0  0  0  0  0  0  0
    4.2690    1.2329    0.0000 O   0  0  0  0  0  0  0  0  0  0  0  0
    2.5369   -1.7671    0.0000 O   0  0  0  0  0  0  0  0  0  0  0  0
    7.7991    0.2571    0.0000 C   0  0  0  0  0  0  0  0  0  0  0  0
    6.9350   -0.2462    0.0000 C   0  0  0  0  0  0  0  0  0  0  0  0
    8.6594    1.7604    0.0000 C   0  0  0  0  0  0  0  0  0  0  0  0
    9.5312    0.2638    0.0000 C   0  0  0  0  0  0  0  0  0  0  0  0
    5.1350   -0.2671    0.0000 C   0  0  0  0  0  0  0  0  0  0  0  0
    5.1350   -1.2671    0.0000 C   0  0  0  0  0  0  0  0  0  0  0  0
    8.6671   -0.2396    0.0000 C   0  0  0  0  0  0  0  0  0  0  0  0
    7.7953    1.2571    0.0000 C   0  0  0  0  0  0  0  0  0  0  0  0
    9.5273    1.2638    0.0000 C   0  0  0  0  0  0  0  0  0  0  0  0
    4.2690   -1.7671    0.0000 C   0  0  0  0  0  0  0  0  0  0  0  0
    6.0290    0.2676    0.0000 C   0  0  0  0  0  0  0  0  0  0  0  0
    8.6555    2.7604    0.0000 C   0  0  0  0  0  0  0  0  0  0  0  0
   10.3991   -0.2329    0.0000 C   0  0  0  0  0  0  0  0  0  0  0  0
    4.2690   -2.7671    0.0000 C   0  0  0  0  0  0  0  0  0  0  0  0
    6.9350   -1.2879    0.0000 C   0  0  0  0  0  0  0  0  0  0  0  0
    4.2690    0.2329    0.0000 C   0  0  0  0  0  0  0  0  0  0  0  0
    3.4030   -1.2671    0.0000 C   0  0  0  0  0  0  0  0  0  0  0  0
    3.4030   -0.2671    0.0000 C   0  0  0  0  0  0  0  0  0  0  0  0
    9.5196    3.2637    0.0000 C   0  0  0  0  0  0  0  0  0  0  0  0
   10.4030   -1.2329    0.0000 C   0  0  0  0  0  0  0  0  0  0  0  0
    3.4030   -3.2671    0.0000 C   0  0  0  0  0  0  0  0  0  0  0  0
    9.5157    4.2637    0.0000 C   0  0  0  0  0  0  0  0  0  0  0  0
   11.2709   -1.7296    0.0000 C   0  0  0  0  0  0  0  0  0  0  0  0
    3.4030   -4.2671    0.0000 C   0  0  0  0  0  0  0  0  0  0  0  0
   10.3798    4.7671    0.0000 C   0  0  0  0  0  0  0  0  0  0  0  0
    8.6478    4.7604    0.0000 C   0  0  0  0  0  0  0  0  0  0  0  0
   11.2748   -2.7295    0.0000 C   0  0  0  0  0  0  0  0  0  0  0  0
   12.1350   -1.2262    0.0000 C   0  0  0  0  0  0  0  0  0  0  0  0
    2.5369   -4.7671    0.0000 C   0  0  0  0  0  0  0  0  0  0  0  0
    4.2690   -4.7671    0.0000 C   0  0  0  0  0  0  0  0  0  0  0  0
    8.6694   -0.8596    0.0000 H   0  0  0  0  0  0  0  0  0  0  0  0
    7.2571    1.5650    0.0000 H   0  0  0  0  0  0  0  0  0  0  0  0
    8.4412    3.3422    0.0000 H   0  0  0  0  0  0  0  0  0  0  0  0
    8.0453    2.6504    0.0000 H   0  0  0  0  0  0  0  0  0  0  0  0
   11.0101   -0.3382    0.0000 H   0  0  0  0  0  0  0  0  0  0  0  0
   10.6089    0.3505    0.0000 H   0  0  0  0  0  0  0  0  0  0  0  0
    4.4810   -3.3497    0.0000 H   0  0  0  0  0  0  0  0  0  0  0  0
    4.8796   -2.6594    0.0000 H   0  0  0  0  0  0  0  0  0  0  0  0
    7.4708   -1.6000    0.0000 H   0  0  0  0  0  0  0  0  0  0  0  0
    2.8660    0.0429    0.0000 H   0  0  0  0  0  0  0  0  0  0  0  0
   10.0577    2.9558    0.0000 H   0  0  0  0  0  0  0  0  0  0  0  0
    9.8672   -1.5450    0.0000 H   0  0  0  0  0  0  0  0  0  0  0  0
    2.8660   -2.9571    0.0000 H   0  0  0  0  0  0  0  0  0  0  0  0
   10.9295    1.4592    0.0000 H   0  0  0  0  0  0  0  0  0  0  0  0
    3.7320    1.5429    0.0000 H   0  0  0  0  0  0  0  0  0  0  0  0
    2.0000   -1.4571    0.0000 H   0  0  0  0  0  0  0  0  0  0  0  0
    8.9557    5.2985    0.0000 H   0  0  0  0  0  0  0  0  0  0  0  0
    8.1097    5.0683    0.0000 H   0  0  0  0  0  0  0  0  0  0  0  0
    8.3399    4.2223    0.0000 H   0  0  0  0  0  0  0  0  0  0  0  0
   10.6919    4.2313    0.0000 H   0  0  0  0  0  0  0  0  0  0  0  0
   10.9156    5.0791    0.0000 H   0  0  0  0  0  0  0  0  0  0  0  0
   10.0678    5.3028    0.0000 H   0  0  0  0  0  0  0  0  0  0  0  0
   10.6548   -2.7319    0.0000 H   0  0  0  0  0  0  0  0  0  0  0  0
   11.2771   -3.3495    0.0000 H   0  0  0  0  0  0  0  0  0  0  0  0
   11.8947   -2.7272    0.0000 H   0  0  0  0  0  0  0  0  0  0  0  0
   12.4471   -1.7620    0.0000 H   0  0  0  0  0  0  0  0  0  0  0  0
   12.6707   -0.9141    0.0000 H   0  0  0  0  0  0  0  0  0  0  0  0
   11.8229   -0.6905    0.0000 H   0  0  0  0  0  0  0  0  0  0  0  0
    3.9590   -5.3040    0.0000 H   0  0  0  0  0  0  0  0  0  0  0  0
    4.8059   -5.0771    0.0000 H   0  0  0  0  0  0  0  0  0  0  0  0
    2.2269   -4.2301    0.0000 H   0  0  0  0  0  0  0  0  0  0  0  0
    2.0000   -5.0771    0.0000 H   0  0  0  0  0  0  0  0  0  0  0  0
    2.8469   -5.3040    0.0000 H   0  0  0  0  0  0  0  0  0  0  0  0
    4.5790   -4.2301    0.0000 H   0  0  0  0  0  0  0  0  0  0  0  0
  1 11  1  0  0  0  0
  1 20  1  0  0  0  0
  2 14  1  0  0  0  0
  2 49  1  0  0  0  0
  3 16  2  0  0  0  0
  4 21  1  0  0  0  0
  4 50  1  0  0  0  0
  5 22  1  0  0  0  0
  5 51  1  0  0  0  0
  6  7  1  0  0  0  0
  6 12  2  0  0  0  0
  6 13  1  0  0  0  0
  7 16  1  0  0  0  0
  7 20  2  0  0  0  0
  8 13  2  0  0  0  0
  8 14  1  0  0  0  0
  8 17  1  0  0  0  0
  9 12  1  0  0  0  0
  9 14  2  0  0  0  0
  9 18  1  0  0  0  0
 10 11  1  0  0  0  0
 10 16  1  0  0  0  0
 10 21  2  0  0  0  0
 11 15  2  0  0  0  0
 12 36  1  0  0  0  0
 13 37  1  0  0  0  0
 15 19  1  0  0  0  0
 15 22  1  0  0  0  0
 17 24  1  0  0  0  0
 17 38  1  0  0  0  0
 17 39  1  0  0  0  0
 18 25  1  0  0  0  0
 18 40  1  0  0  0  0
 18 41  1  0  0  0  0
 19 26  1  0  0  0  0
 19 42  1  0  0  0  0
 19 43  1  0  0  0  0
 20 44  1  0  0  0  0
 21 23  1  0  0  0  0
 22 23  2  0  0  0  0
 23 45  1  0  0  0  0
 24 27  2  0  0  0  0
 24 46  1  0  0  0  0
 25 28  2  0  0  0  0
 25 47  1  0  0  0  0
 26 29  2  0  0  0  0
 26 48  1  0  0  0  0
 27 30  1  0  0  0  0
 27 31  1  0  0  0  0
 28 32  1  0  0  0  0
 28 33  1  0  0  0  0
 29 34  1  0  0  0  0
 29 35  1  0  0  0  0
 30 55  1  0  0  0  0
 30 56  1  0  0  0  0
 30 57  1  0  0  0  0
 31 52  1  0  0  0  0
 31 53  1  0  0  0  0
 31 54  1  0  0  0  0
 32 58  1  0  0  0  0
 32 59  1  0  0  0  0
 32 60  1  0  0  0  0
 33 61  1  0  0  0  0
 33 62  1  0  0  0  0
 33 63  1  0  0  0  0
 34 66  1  0  0  0  0
 34 67  1  0  0  0  0
 34 68  1  0  0  0  0
 35 64  1  0  0  0  0
 35 65  1  0  0  0  0
 35 69  1  0  0  0  0
M  END
>  <PUBCHEM_COMPOUND_CID>
44257286

>  <PUBCHEM_COMPOUND_CANONICALIZED>
1

>  <PUBCHEM_CACTVS_COMPLEXITY>
839

>  <PUBCHEM_CACTVS_HBOND_ACCEPTOR>
5

>  <PUBCHEM_CACTVS_HBOND_DONOR>
3

>  <PUBCHEM_CACTVS_ROTATABLE_BOND>
7

>  <PUBCHEM_CACTVS_SUBSKEYS>
AAADcfB4OAAAAAAAAAAAAAAAAAAAAAAAAAAwYIAAAAAAAACBQAAAGgAACAAADASgmAIyBoAABgCIAqBSAAACCAAkIAAAiAEGCMgMJzaGNRqAcWAl4BUIuYeI7PzOIAACCAAIAABAAAQQABAAAAAAAAAAAA==

>  <PUBCHEM_IUPAC_OPENEYE_NAME>
5,7-dihydroxy-3-[4-hydroxy-3,5-bis(3-methylbut-2-enyl)phenyl]-8-(3-methylbut-2-enyl)chromen-4-one

>  <PUBCHEM_IUPAC_CAS_NAME>
5,7-dihydroxy-3-[4-hydroxy-3,5-bis(3-methylbut-2-enyl)phenyl]-8-(3-methylbut-2-enyl)-1-benzopyran-4-one

>  <PUBCHEM_IUPAC_NAME>
5,7-dihydroxy-3-[4-hydroxy-3,5-bis(3-methylbut-2-enyl)phenyl]-8-(3-methylbut-2-enyl)chromen-4-one

>  <PUBCHEM_IUPAC_SYSTEMATIC_NAME>
3-[3,5-bis(3-methylbut-2-enyl)-4-oxidanyl-phenyl]-8-(3-methylbut-2-enyl)-5,7-bis(oxidanyl)chromen-4-one

>  <PUBCHEM_IUPAC_TRADITIONAL_NAME>
5,7-dihydroxy-3-[4-hydroxy-3,5-bis(3-methylbut-2-enyl)phenyl]-8-(3-methylbut-2-enyl)chromone

>  <PUBCHEM_IUPAC_INCHI>
InChI=1S/C30H34O5/c1-17(2)7-10-20-13-22(14-21(28(20)33)11-8-18(3)4)24-16-35-30-23(12-9-19(5)6)25(31)15-26(32)27(30)29(24)34/h7-9,13-16,31-33H,10-12H2,1-6H3

>  <PUBCHEM_IUPAC_INCHIKEY>
FKQMIMOLIFCHFV-UHFFFAOYSA-N

>  <PUBCHEM_XLOGP3_AA>
8.4

>  <PUBCHEM_EXACT_MASS>
474.241

>  <PUBCHEM_MOLECULAR_FORMULA>
C30H34O5

>  <PUBCHEM_MOLECULAR_WEIGHT>
474.597

>  <PUBCHEM_OPENEYE_CAN_SMILES>
CC(=CCC1=CC(=CC(=C1O)CC=C(C)C)C2=COC3=C(C2=O)C(=CC(=C3CC=C(C)C)O)O)C

>  <PUBCHEM_OPENEYE_ISO_SMILES>
CC(=CCC1=CC(=CC(=C1O)CC=C(C)C)C2=COC3=C(C2=O)C(=CC(=C3CC=C(C)C)O)O)C

>  <PUBCHEM_CACTVS_TPSA>
87

>  <PUBCHEM_MONOISOTOPIC_WEIGHT>
474.241

>  <PUBCHEM_TOTAL_CHARGE>
0

>  <PUBCHEM_HEAVY_ATOM_COUNT>
35

>  <PUBCHEM_ATOM_DEF_STEREO_COUNT>
0

>  <PUBCHEM_ATOM_UDEF_STEREO_COUNT>
0

>  <PUBCHEM_BOND_DEF_STEREO_COUNT>
0

>  <PUBCHEM_BOND_UDEF_STEREO_COUNT>
0

>  <PUBCHEM_ISOTOPIC_ATOM_COUNT>
0

>  <PUBCHEM_COMPONENT_COUNT>
1

>  <PUBCHEM_CACTVS_TAUTO_COUNT>
24

>  <PUBCHEM_COORDINATE_TYPE>
1
5
255

>  <PUBCHEM_BONDANNOTATIONS>
1  11  8
1  20  8
10  11  8
10  16  8
10  21  8
11  15  8
15  22  8
21  23  8
22  23  8
6  12  8
6  13  8
7  16  8
7  20  8
8  13  8
8  14  8
9  12  8
9  14  8

$$$$
