44258358
 OpenBabel06101807152D

 46 48  0  0  0  0  0  0  0  0999 V2000
    6.3580   -0.1897    0.0000 O   0  0  0  0  0  0  0  0  0  0  0  0
    2.8660   -0.1550    0.0000 O   0  0  0  0  0  0  0  0  0  0  0  0
    4.5981    2.8450    0.0000 O   0  0  0  0  0  0  0  0  0  0  0  0
    6.3465    2.8796    0.0000 O   0  0  0  0  0  0  0  0  0  0  0  0
   10.7205   -1.6892    0.0000 O   0  0  0  0  0  0  0  0  0  0  0  0
    4.5981   -0.1550    0.0000 C   0  0  0  0  0  0  0  0  0  0  0  0
    5.4641    0.3450    0.0000 C   0  0  0  0  0  0  0  0  0  0  0  0
    5.4641    1.3450    0.0000 C   0  0  0  0  0  0  0  0  0  0  0  0
    4.5981   -1.1550    0.0000 C   0  0  0  0  0  0  0  0  0  0  0  0
    3.7320    0.3450    0.0000 C   0  0  0  0  0  0  0  0  0  0  0  0
    4.5981    1.8450    0.0000 C   0  0  0  0  0  0  0  0  0  0  0  0
    3.7320    1.3450    0.0000 C   0  0  0  0  0  0  0  0  0  0  0  0
    7.2641    0.3242    0.0000 C   0  0  0  0  0  0  0  0  0  0  0  0
    6.3580    1.8797    0.0000 C   0  0  0  0  0  0  0  0  0  0  0  0
    7.2641    1.3658    0.0000 C   0  0  0  0  0  0  0  0  0  0  0  0
    3.7320   -1.6550    0.0000 C   0  0  0  0  0  0  0  0  0  0  0  0
    8.1282   -0.1792    0.0000 C   0  0  0  0  0  0  0  0  0  0  0  0
    3.7320   -2.6550    0.0000 C   0  0  0  0  0  0  0  0  0  0  0  0
    8.1244   -1.1791    0.0000 C   0  0  0  0  0  0  0  0  0  0  0  0
    8.9962    0.3175    0.0000 C   0  0  0  0  0  0  0  0  0  0  0  0
    2.8660   -3.1550    0.0000 C   0  0  0  0  0  0  0  0  0  0  0  0
    4.5981   -3.1550    0.0000 C   0  0  0  0  0  0  0  0  0  0  0  0
    8.9884   -1.6825    0.0000 C   0  0  0  0  0  0  0  0  0  0  0  0
    9.8602   -0.1858    0.0000 C   0  0  0  0  0  0  0  0  0  0  0  0
    2.0000    0.3450    0.0000 C   0  0  0  0  0  0  0  0  0  0  0  0
    9.8564   -1.1858    0.0000 C   0  0  0  0  0  0  0  0  0  0  0  0
    4.8101   -1.7376    0.0000 H   0  0  0  0  0  0  0  0  0  0  0  0
    5.2087   -1.0473    0.0000 H   0  0  0  0  0  0  0  0  0  0  0  0
    3.1951    1.6550    0.0000 H   0  0  0  0  0  0  0  0  0  0  0  0
    3.1951   -1.3450    0.0000 H   0  0  0  0  0  0  0  0  0  0  0  0
    7.7998    1.6779    0.0000 H   0  0  0  0  0  0  0  0  0  0  0  0
    7.5862   -1.4871    0.0000 H   0  0  0  0  0  0  0  0  0  0  0  0
    8.9985    0.9375    0.0000 H   0  0  0  0  0  0  0  0  0  0  0  0
    2.5560   -2.6181    0.0000 H   0  0  0  0  0  0  0  0  0  0  0  0
    4.2881   -3.6919    0.0000 H   0  0  0  0  0  0  0  0  0  0  0  0
    5.1350   -3.4650    0.0000 H   0  0  0  0  0  0  0  0  0  0  0  0
    4.9081   -2.6181    0.0000 H   0  0  0  0  0  0  0  0  0  0  0  0
    2.3291   -3.4650    0.0000 H   0  0  0  0  0  0  0  0  0  0  0  0
    3.1760   -3.6919    0.0000 H   0  0  0  0  0  0  0  0  0  0  0  0
    4.0611    3.1550    0.0000 H   0  0  0  0  0  0  0  0  0  0  0  0
    8.9860   -2.3025    0.0000 H   0  0  0  0  0  0  0  0  0  0  0  0
   10.3984    0.1221    0.0000 H   0  0  0  0  0  0  0  0  0  0  0  0
    2.3100    0.8819    0.0000 H   0  0  0  0  0  0  0  0  0  0  0  0
    1.4631    0.6550    0.0000 H   0  0  0  0  0  0  0  0  0  0  0  0
    1.6900   -0.1919    0.0000 H   0  0  0  0  0  0  0  0  0  0  0  0
   11.2586   -1.3812    0.0000 H   0  0  0  0  0  0  0  0  0  0  0  0
  1  7  1  0  0  0  0
  1 13  1  0  0  0  0
  2 10  1  0  0  0  0
  2 25  1  0  0  0  0
  3 11  1  0  0  0  0
  3 40  1  0  0  0  0
  4 14  2  0  0  0  0
  5 26  1  0  0  0  0
  5 46  1  0  0  0  0
  6  7  1  0  0  0  0
  6  9  1  0  0  0  0
  6 10  2  0  0  0  0
  7  8  2  0  0  0  0
  8 11  1  0  0  0  0
  8 14  1  0  0  0  0
  9 16  1  0  0  0  0
  9 27  1  0  0  0  0
  9 28  1  0  0  0  0
 10 12  1  0  0  0  0
 11 12  2  0  0  0  0
 12 29  1  0  0  0  0
 13 15  2  0  0  0  0
 13 17  1  0  0  0  0
 14 15  1  0  0  0  0
 15 31  1  0  0  0  0
 16 18  2  0  0  0  0
 16 30  1  0  0  0  0
 17 19  2  0  0  0  0
 17 20  1  0  0  0  0
 18 21  1  0  0  0  0
 18 22  1  0  0  0  0
 19 23  1  0  0  0  0
 19 32  1  0  0  0  0
 20 24  2  0  0  0  0
 20 33  1  0  0  0  0
 21 34  1  0  0  0  0
 21 38  1  0  0  0  0
 21 39  1  0  0  0  0
 22 35  1  0  0  0  0
 22 36  1  0  0  0  0
 22 37  1  0  0  0  0
 23 26  2  0  0  0  0
 23 41  1  0  0  0  0
 24 26  1  0  0  0  0
 24 42  1  0  0  0  0
 25 43  1  0  0  0  0
 25 44  1  0  0  0  0
 25 45  1  0  0  0  0
M  END
>  <PUBCHEM_COMPOUND_CID>
44258358

>  <PUBCHEM_COMPOUND_CANONICALIZED>
1

>  <PUBCHEM_CACTVS_COMPLEXITY>
569

>  <PUBCHEM_CACTVS_HBOND_ACCEPTOR>
5

>  <PUBCHEM_CACTVS_HBOND_DONOR>
2

>  <PUBCHEM_CACTVS_ROTATABLE_BOND>
4

>  <PUBCHEM_CACTVS_SUBSKEYS>
AAADceB4OAAAAAAAAAAAAAAAAAAAAAAAAAAwYIAAAAAAAACBQAAAGgAACAAADASAmAIyBoAABgCIAqBSAAACCAAkIAAIiAEGCMgMJzaGNRqCeWCl4BUIuQeI7OzOIAACCAAIAABAAAQQABAAAAAAAAAAAA==

>  <PUBCHEM_IUPAC_OPENEYE_NAME>
5-hydroxy-2-(4-hydroxyphenyl)-7-methoxy-8-(3-methylbut-2-enyl)chromen-4-one

>  <PUBCHEM_IUPAC_CAS_NAME>
5-hydroxy-2-(4-hydroxyphenyl)-7-methoxy-8-(3-methylbut-2-enyl)-1-benzopyran-4-one

>  <PUBCHEM_IUPAC_NAME>
5-hydroxy-2-(4-hydroxyphenyl)-7-methoxy-8-(3-methylbut-2-enyl)chromen-4-one

>  <PUBCHEM_IUPAC_SYSTEMATIC_NAME>
2-(4-hydroxyphenyl)-7-methoxy-8-(3-methylbut-2-enyl)-5-oxidanyl-chromen-4-one

>  <PUBCHEM_IUPAC_TRADITIONAL_NAME>
5-hydroxy-2-(4-hydroxyphenyl)-7-methoxy-8-(3-methylbut-2-enyl)chromone

>  <PUBCHEM_IUPAC_INCHI>
InChI=1S/C21H20O5/c1-12(2)4-9-15-19(25-3)11-17(24)20-16(23)10-18(26-21(15)20)13-5-7-14(22)8-6-13/h4-8,10-11,22,24H,9H2,1-3H3

>  <PUBCHEM_IUPAC_INCHIKEY>
BSZYNZDGUZYMDL-UHFFFAOYSA-N

>  <PUBCHEM_XLOGP3_AA>
4.9

>  <PUBCHEM_EXACT_MASS>
352.131

>  <PUBCHEM_MOLECULAR_FORMULA>
C21H20O5

>  <PUBCHEM_MOLECULAR_WEIGHT>
352.386

>  <PUBCHEM_OPENEYE_CAN_SMILES>
CC(=CCC1=C(C=C(C2=C1OC(=CC2=O)C3=CC=C(C=C3)O)O)OC)C

>  <PUBCHEM_OPENEYE_ISO_SMILES>
CC(=CCC1=C(C=C(C2=C1OC(=CC2=O)C3=CC=C(C=C3)O)O)OC)C

>  <PUBCHEM_CACTVS_TPSA>
76

>  <PUBCHEM_MONOISOTOPIC_WEIGHT>
352.131

>  <PUBCHEM_TOTAL_CHARGE>
0

>  <PUBCHEM_HEAVY_ATOM_COUNT>
26

>  <PUBCHEM_ATOM_DEF_STEREO_COUNT>
0

>  <PUBCHEM_ATOM_UDEF_STEREO_COUNT>
0

>  <PUBCHEM_BOND_DEF_STEREO_COUNT>
0

>  <PUBCHEM_BOND_UDEF_STEREO_COUNT>
0

>  <PUBCHEM_ISOTOPIC_ATOM_COUNT>
0

>  <PUBCHEM_COMPONENT_COUNT>
1

>  <PUBCHEM_CACTVS_TAUTO_COUNT>
24

>  <PUBCHEM_COORDINATE_TYPE>
1
5
255

>  <PUBCHEM_BONDANNOTATIONS>
1  13  8
1  7  8
10  12  8
11  12  8
13  15  8
14  15  8
17  19  8
17  20  8
19  23  8
20  24  8
23  26  8
24  26  8
6  10  8
6  7  8
7  8  8
8  11  8
8  14  8

$$$$
