44259052
 OpenBabel06101807152D

 35 37  0  0  0  0  0  0  0  0999 V2000
    7.8003    1.9050    0.0000 S   0  0  0  0  0  0  0  0  0  0  0  0
    6.0682   -1.0950    0.0000 O   0  0  0  0  0  0  0  0  0  0  0  0
    7.8003    0.9050    0.0000 O   0  0  0  0  0  0  0  0  0  0  0  0
    4.3198    1.9396    0.0000 O   0  0  0  0  0  0  0  0  0  0  0  0
    6.0682    1.9050    0.0000 O   0  0  0  0  0  0  0  0  0  0  0  0
    2.5381   -1.1192    0.0000 O   0  0  0  0  0  0  0  0  0  0  0  0
   10.3984   -2.5950    0.0000 O   0  0  0  0  0  0  0  0  0  0  0  0
    7.8003    2.9050    0.0000 O   0  0  0  0  0  0  0  0  0  0  0  0
    8.8003    1.9050    0.0000 O   0  0  0  0  0  0  0  0  0  0  0  0
    6.8003    1.9050    0.0000 O   0  0  0  0  0  0  0  0  0  0  0  0
    5.2022    0.4050    0.0000 C   0  0  0  0  0  0  0  0  0  0  0  0
    6.9343   -0.5950    0.0000 C   0  0  0  0  0  0  0  0  0  0  0  0
    5.2022   -0.5950    0.0000 C   0  0  0  0  0  0  0  0  0  0  0  0
    6.9343    0.4050    0.0000 C   0  0  0  0  0  0  0  0  0  0  0  0
    6.0682    0.9050    0.0000 C   0  0  0  0  0  0  0  0  0  0  0  0
    7.8003   -1.0950    0.0000 C   0  0  0  0  0  0  0  0  0  0  0  0
    4.3083    0.9397    0.0000 C   0  0  0  0  0  0  0  0  0  0  0  0
    4.3083   -1.1297    0.0000 C   0  0  0  0  0  0  0  0  0  0  0  0
    3.4022    0.4258    0.0000 C   0  0  0  0  0  0  0  0  0  0  0  0
    3.4022   -0.6158    0.0000 C   0  0  0  0  0  0  0  0  0  0  0  0
    7.8003   -2.0950    0.0000 C   0  0  0  0  0  0  0  0  0  0  0  0
    8.6663   -0.5950    0.0000 C   0  0  0  0  0  0  0  0  0  0  0  0
    8.6663   -2.5950    0.0000 C   0  0  0  0  0  0  0  0  0  0  0  0
    9.5323   -1.0950    0.0000 C   0  0  0  0  0  0  0  0  0  0  0  0
    9.5323   -2.0950    0.0000 C   0  0  0  0  0  0  0  0  0  0  0  0
    4.3154   -1.7496    0.0000 H   0  0  0  0  0  0  0  0  0  0  0  0
    2.8665    0.7379    0.0000 H   0  0  0  0  0  0  0  0  0  0  0  0
    7.2634   -2.4050    0.0000 H   0  0  0  0  0  0  0  0  0  0  0  0
    8.6663    0.0250    0.0000 H   0  0  0  0  0  0  0  0  0  0  0  0
    8.6663   -3.2150    0.0000 H   0  0  0  0  0  0  0  0  0  0  0  0
   10.0693   -0.7850    0.0000 H   0  0  0  0  0  0  0  0  0  0  0  0
    3.7865    2.2558    0.0000 H   0  0  0  0  0  0  0  0  0  0  0  0
    2.0000   -0.8112    0.0000 H   0  0  0  0  0  0  0  0  0  0  0  0
   10.3984   -3.2150    0.0000 H   0  0  0  0  0  0  0  0  0  0  0  0
    8.3372    3.2150    0.0000 H   0  0  0  0  0  0  0  0  0  0  0  0
  1  3  1  0  0  0  0
  1  8  1  0  0  0  0
  1  9  2  0  0  0  0
  1 10  2  0  0  0  0
  2 12  1  0  0  0  0
  2 13  1  0  0  0  0
  3 14  1  0  0  0  0
  4 17  1  0  0  0  0
  4 32  1  0  0  0  0
  5 15  2  0  0  0  0
  6 20  1  0  0  0  0
  6 33  1  0  0  0  0
  7 25  1  0  0  0  0
  7 34  1  0  0  0  0
  8 35  1  0  0  0  0
 11 13  1  0  0  0  0
 11 15  1  0  0  0  0
 11 17  2  0  0  0  0
 12 14  2  0  0  0  0
 12 16  1  0  0  0  0
 13 18  2  0  0  0  0
 14 15  1  0  0  0  0
 16 21  2  0  0  0  0
 16 22  1  0  0  0  0
 17 19  1  0  0  0  0
 18 20  1  0  0  0  0
 18 26  1  0  0  0  0
 19 20  2  0  0  0  0
 19 27  1  0  0  0  0
 21 23  1  0  0  0  0
 21 28  1  0  0  0  0
 22 24  2  0  0  0  0
 22 29  1  0  0  0  0
 23 25  2  0  0  0  0
 23 30  1  0  0  0  0
 24 25  1  0  0  0  0
 24 31  1  0  0  0  0
M  END
>  <PUBCHEM_COMPOUND_CID>
44259052

>  <PUBCHEM_COMPOUND_CANONICALIZED>
1

>  <PUBCHEM_CACTVS_COMPLEXITY>
657

>  <PUBCHEM_CACTVS_HBOND_ACCEPTOR>
9

>  <PUBCHEM_CACTVS_HBOND_DONOR>
4

>  <PUBCHEM_CACTVS_ROTATABLE_BOND>
3

>  <PUBCHEM_CACTVS_SUBSKEYS>
AAADccBwPABAAAAAAAAAAAAAAAAAAAAAAAAwYIAAAAAAAACBQAAAGgAACAAADASAmAAwBoAABoCIAqBSADICCAAkIAAIiAFGCMgMJzaGNRqCeWCl4BUIuQfI7KzOIAAACAAIAABAAAAQABAAAAAAAAAAAA==

>  <PUBCHEM_IUPAC_OPENEYE_NAME>
[5,7-dihydroxy-2-(4-hydroxyphenyl)-4-oxo-chromen-3-yl] hydrogen sulfate

>  <PUBCHEM_IUPAC_CAS_NAME>
sulfuric acid [5,7-dihydroxy-2-(4-hydroxyphenyl)-4-oxo-1-benzopyran-3-yl] ester

>  <PUBCHEM_IUPAC_NAME>
[5,7-dihydroxy-2-(4-hydroxyphenyl)-4-oxochromen-3-yl] hydrogen sulfate

>  <PUBCHEM_IUPAC_SYSTEMATIC_NAME>
[2-(4-hydroxyphenyl)-5,7-bis(oxidanyl)-4-oxidanylidene-chromen-3-yl] hydrogen sulfate

>  <PUBCHEM_IUPAC_TRADITIONAL_NAME>
sulfuric acid [5,7-dihydroxy-2-(4-hydroxyphenyl)-4-keto-chromen-3-yl] ester

>  <PUBCHEM_IUPAC_INCHI>
InChI=1S/C15H10O9S/c16-8-3-1-7(2-4-8)14-15(24-25(20,21)22)13(19)12-10(18)5-9(17)6-11(12)23-14/h1-6,16-18H,(H,20,21,22)

>  <PUBCHEM_IUPAC_INCHIKEY>
VOYLAWHADGDBIE-UHFFFAOYSA-N

>  <PUBCHEM_XLOGP3>
1.3

>  <PUBCHEM_EXACT_MASS>
366.005

>  <PUBCHEM_MOLECULAR_FORMULA>
C15H10O9S

>  <PUBCHEM_MOLECULAR_WEIGHT>
366.296

>  <PUBCHEM_OPENEYE_CAN_SMILES>
C1=CC(=CC=C1C2=C(C(=O)C3=C(C=C(C=C3O2)O)O)OS(=O)(=O)O)O

>  <PUBCHEM_OPENEYE_ISO_SMILES>
C1=CC(=CC=C1C2=C(C(=O)C3=C(C=C(C=C3O2)O)O)OS(=O)(=O)O)O

>  <PUBCHEM_CACTVS_TPSA>
159

>  <PUBCHEM_MONOISOTOPIC_WEIGHT>
366.005

>  <PUBCHEM_TOTAL_CHARGE>
0

>  <PUBCHEM_HEAVY_ATOM_COUNT>
25

>  <PUBCHEM_ATOM_DEF_STEREO_COUNT>
0

>  <PUBCHEM_ATOM_UDEF_STEREO_COUNT>
0

>  <PUBCHEM_BOND_DEF_STEREO_COUNT>
0

>  <PUBCHEM_BOND_UDEF_STEREO_COUNT>
0

>  <PUBCHEM_ISOTOPIC_ATOM_COUNT>
0

>  <PUBCHEM_COMPONENT_COUNT>
1

>  <PUBCHEM_CACTVS_TAUTO_COUNT>
57

>  <PUBCHEM_COORDINATE_TYPE>
1
5
255

>  <PUBCHEM_BONDANNOTATIONS>
11  13  8
11  15  8
11  17  8
12  14  8
13  18  8
14  15  8
16  21  8
16  22  8
17  19  8
18  20  8
19  20  8
2  12  8
2  13  8
21  23  8
22  24  8
23  25  8
24  25  8

$$$$
