44257431
 OpenBabel06101807152D

 33 37  0  0  1  0  0  0  0  0999 V2000
    6.4688   -0.6718    0.0000 O   0  0  0  0  0  0  0  0  0  0  0  0
    6.2596    2.3000    0.0000 O   0  0  0  0  0  0  0  0  0  0  0  0
    2.6079    2.1383    0.0000 O   0  0  0  0  0  0  0  0  0  0  0  0
    9.6670   -2.3347    0.0000 O   0  0  0  0  0  0  0  0  0  0  0  0
    7.1256    0.8000    0.0000 C   0  0  3  0  0  0  0  0  0  0  0  0
    6.2596    0.3000    0.0000 C   0  0  3  0  0  0  0  0  0  0  0  0
    7.8626    0.1330    0.0000 C   0  0  0  0  0  0  0  0  0  0  0  0
    7.1256    1.8000    0.0000 C   0  0  0  0  0  0  0  0  0  0  0  0
    5.3935    0.8000    0.0000 C   0  0  0  0  0  0  0  0  0  0  0  0
    7.4575   -0.7748    0.0000 C   0  0  0  0  0  0  0  0  0  0  0  0
    5.3935    1.8000    0.0000 C   0  0  0  0  0  0  0  0  0  0  0  0
    4.4996    0.2654    0.0000 C   0  0  0  0  0  0  0  0  0  0  0  0
    8.8907    0.2562    0.0000 C   0  0  0  0  0  0  0  0  0  0  0  0
    4.4996    2.3347    0.0000 C   0  0  0  0  0  0  0  0  0  0  0  0
    3.5935    0.7792    0.0000 C   0  0  0  0  0  0  0  0  0  0  0  0
    8.0524   -1.6223    0.0000 C   0  0  0  0  0  0  0  0  0  0  0  0
    3.5935    1.8209    0.0000 C   0  0  0  0  0  0  0  0  0  0  0  0
    9.5050   -0.5773    0.0000 C   0  0  0  0  0  0  0  0  0  0  0  0
    9.0831   -1.5229    0.0000 C   0  0  0  0  0  0  0  0  0  0  0  0
    2.6079    0.4618    0.0000 C   0  0  0  0  0  0  0  0  0  0  0  0
    2.0000    1.3000    0.0000 C   0  0  0  0  0  0  0  0  0  0  0  0
    7.6923    1.0515    0.0000 H   0  0  0  0  0  0  0  0  0  0  0  0
    5.7584   -0.0650    0.0000 H   0  0  0  0  0  0  0  0  0  0  0  0
    7.7362    1.6924    0.0000 H   0  0  0  0  0  0  0  0  0  0  0  0
    7.3376    2.3827    0.0000 H   0  0  0  0  0  0  0  0  0  0  0  0
    4.5068   -0.3546    0.0000 H   0  0  0  0  0  0  0  0  0  0  0  0
    9.1368    0.8252    0.0000 H   0  0  0  0  0  0  0  0  0  0  0  0
    4.5068    2.9547    0.0000 H   0  0  0  0  0  0  0  0  0  0  0  0
    7.7932   -2.1856    0.0000 H   0  0  0  0  0  0  0  0  0  0  0  0
   10.1215   -0.5107    0.0000 H   0  0  0  0  0  0  0  0  0  0  0  0
    2.4153   -0.1275    0.0000 H   0  0  0  0  0  0  0  0  0  0  0  0
    1.3800    1.3000    0.0000 H   0  0  0  0  0  0  0  0  0  0  0  0
   10.2839   -2.2728    0.0000 H   0  0  0  0  0  0  0  0  0  0  0  0
  1  6  1  0  0  0  0
  1 10  1  0  0  0  0
  2  8  1  0  0  0  0
  2 11  1  0  0  0  0
  3 17  1  0  0  0  0
  3 21  1  0  0  0  0
  4 19  1  0  0  0  0
  4 33  1  0  0  0  0
  5  6  1  0  0  0  0
  5  7  1  0  0  0  0
  5  8  1  0  0  0  0
  5 22  1  0  0  0  0
  6  9  1  0  0  0  0
  6 23  1  0  0  0  0
  7 10  2  0  0  0  0
  7 13  1  0  0  0  0
  8 24  1  0  0  0  0
  8 25  1  0  0  0  0
  9 11  2  0  0  0  0
  9 12  1  0  0  0  0
 10 16  1  0  0  0  0
 11 14  1  0  0  0  0
 12 15  2  0  0  0  0
 12 26  1  0  0  0  0
 13 18  2  0  0  0  0
 13 27  1  0  0  0  0
 14 17  2  0  0  0  0
 14 28  1  0  0  0  0
 15 17  1  0  0  0  0
 15 20  1  0  0  0  0
 16 19  2  0  0  0  0
 16 29  1  0  0  0  0
 18 19  1  0  0  0  0
 18 30  1  0  0  0  0
 20 21  2  0  0  0  0
 20 31  1  0  0  0  0
 21 32  1  0  0  0  0
M  END
>  <PUBCHEM_COMPOUND_CID>
44257431

>  <PUBCHEM_COMPOUND_CANONICALIZED>
1

>  <PUBCHEM_CACTVS_COMPLEXITY>
414

>  <PUBCHEM_CACTVS_HBOND_ACCEPTOR>
4

>  <PUBCHEM_CACTVS_HBOND_DONOR>
1

>  <PUBCHEM_CACTVS_ROTATABLE_BOND>
0

>  <PUBCHEM_CACTVS_SUBSKEYS>
AAADccB4OAAAAAAAAAAAAAAAAAAAASJAAAA0YIAAAAAAAEiR9AAAGgAACAAADRSgmAIwBsAABkCIAqhSgAACCAAkIAAIiAEGCMgMJzaGNRqCeWCl4BUIuYfI7PzOoAACCAAIAABAAAQQABAAAAAAAAAAAA==

>  <PUBCHEM_IUPAC_INCHI>
InChI=1S/C17H12O4/c18-10-1-2-11-13-8-20-15-7-14-9(3-4-19-14)5-12(15)17(13)21-16(11)6-10/h1-7,13,17-18H,8H2

>  <PUBCHEM_IUPAC_INCHIKEY>
UUDOMPYHVUEXEE-UHFFFAOYSA-N

>  <PUBCHEM_XLOGP3_AA>
3

>  <PUBCHEM_EXACT_MASS>
280.074

>  <PUBCHEM_MOLECULAR_FORMULA>
C17H12O4

>  <PUBCHEM_MOLECULAR_WEIGHT>
280.279

>  <PUBCHEM_OPENEYE_CAN_SMILES>
C1C2C(C3=C(O1)C=C4C(=C3)C=CO4)OC5=C2C=CC(=C5)O

>  <PUBCHEM_OPENEYE_ISO_SMILES>
C1C2C(C3=C(O1)C=C4C(=C3)C=CO4)OC5=C2C=CC(=C5)O

>  <PUBCHEM_CACTVS_TPSA>
51.8

>  <PUBCHEM_MONOISOTOPIC_WEIGHT>
280.074

>  <PUBCHEM_TOTAL_CHARGE>
0

>  <PUBCHEM_HEAVY_ATOM_COUNT>
21

>  <PUBCHEM_ATOM_DEF_STEREO_COUNT>
0

>  <PUBCHEM_ATOM_UDEF_STEREO_COUNT>
2

>  <PUBCHEM_BOND_DEF_STEREO_COUNT>
0

>  <PUBCHEM_BOND_UDEF_STEREO_COUNT>
0

>  <PUBCHEM_ISOTOPIC_ATOM_COUNT>
0

>  <PUBCHEM_COMPONENT_COUNT>
1

>  <PUBCHEM_CACTVS_TAUTO_COUNT>
3

>  <PUBCHEM_COORDINATE_TYPE>
1
5
255

>  <PUBCHEM_BONDANNOTATIONS>
6  1  3
10  16  8
11  14  8
12  15  8
13  18  8
14  17  8
15  17  8
15  20  8
16  19  8
18  19  8
20  21  8
3  17  8
3  21  8
5  8  3
7  10  8
7  13  8
9  11  8
9  12  8

$$$$
