44257484
 OpenBabel06101807152D

 58 61  0  0  1  0  0  0  0  0999 V2000
    6.3582    0.6431    0.0000 O   0  0  0  0  0  0  0  0  0  0  0  0
    8.5022    2.7116    0.0000 O   0  0  0  0  0  0  0  0  0  0  0  0
    6.5460    3.1274    0.0000 O   0  0  0  0  0  0  0  0  0  0  0  0
    2.8687    1.5473    0.0000 O   0  0  0  0  0  0  0  0  0  0  0  0
   11.1418    0.3674    0.0000 O   0  0  0  0  0  0  0  0  0  0  0  0
    6.8550    2.1763    0.0000 C   0  0  3  0  0  0  0  0  0  0  0  0
    7.1640    1.2253    0.0000 C   0  0  3  0  0  0  0  0  0  0  0  0
    5.8609    2.1738    0.0000 C   0  0  0  0  0  0  0  0  0  0  0  0
    7.5241    2.9195    0.0000 C   0  0  0  0  0  0  0  0  0  0  0  0
    8.1421    1.0174    0.0000 C   0  0  0  0  0  0  0  0  0  0  0  0
    5.5545    1.2281    0.0000 C   0  0  0  0  0  0  0  0  0  0  0  0
    8.8113    1.7605    0.0000 C   0  0  0  0  0  0  0  0  0  0  0  0
    4.5453    0.9963    0.0000 C   0  0  0  0  0  0  0  0  0  0  0  0
    5.1793    2.9533    0.0000 C   0  0  0  0  0  0  0  0  0  0  0  0
    8.4487    0.0219    0.0000 C   0  0  0  0  0  0  0  0  0  0  0  0
    9.4659   -0.2025    0.0000 C   0  0  0  0  0  0  0  0  0  0  0  0
    9.8334    1.5597    0.0000 C   0  0  0  0  0  0  0  0  0  0  0  0
    3.8459    1.7598    0.0000 C   0  0  0  0  0  0  0  0  0  0  0  0
    4.1650    2.7449    0.0000 C   0  0  0  0  0  0  0  0  0  0  0  0
    4.2482    0.0415    0.0000 C   0  0  0  0  0  0  0  0  0  0  0  0
   10.1629    0.5715    0.0000 C   0  0  0  0  0  0  0  0  0  0  0  0
    9.7712   -1.1548    0.0000 C   0  0  0  0  0  0  0  0  0  0  0  0
    3.2727   -0.1786    0.0000 C   0  0  0  0  0  0  0  0  0  0  0  0
    9.0992   -1.8953    0.0000 C   0  0  0  0  0  0  0  0  0  0  0  0
    2.9755   -1.1334    0.0000 C   0  0  0  0  0  0  0  0  0  0  0  0
    9.4046   -2.8476    0.0000 C   0  0  0  0  0  0  0  0  0  0  0  0
    2.0000   -1.3534    0.0000 C   0  0  0  0  0  0  0  0  0  0  0  0
    3.6538   -1.8682    0.0000 C   0  0  0  0  0  0  0  0  0  0  0  0
    8.7326   -3.5881    0.0000 C   0  0  0  0  0  0  0  0  0  0  0  0
   10.3819   -3.0593    0.0000 C   0  0  0  0  0  0  0  0  0  0  0  0
    7.2921    0.6187    0.0000 H   0  0  0  0  0  0  0  0  0  0  0  0
    7.7564    3.4943    0.0000 H   0  0  0  0  0  0  0  0  0  0  0  0
    6.9983    3.2480    0.0000 H   0  0  0  0  0  0  0  0  0  0  0  0
    5.3772    3.5408    0.0000 H   0  0  0  0  0  0  0  0  0  0  0  0
    6.9608    3.5881    0.0000 H   0  0  0  0  0  0  0  0  0  0  0  0
    8.0285   -0.4340    0.0000 H   0  0  0  0  0  0  0  0  0  0  0  0
   10.2429    2.0252    0.0000 H   0  0  0  0  0  0  0  0  0  0  0  0
    3.7515    3.2069    0.0000 H   0  0  0  0  0  0  0  0  0  0  0  0
    4.2775   -0.5778    0.0000 H   0  0  0  0  0  0  0  0  0  0  0  0
    4.8631   -0.0372    0.0000 H   0  0  0  0  0  0  0  0  0  0  0  0
   10.1510   -1.6448    0.0000 H   0  0  0  0  0  0  0  0  0  0  0  0
   10.3198   -0.8658    0.0000 H   0  0  0  0  0  0  0  0  0  0  0  0
    2.8521    0.2770    0.0000 H   0  0  0  0  0  0  0  0  0  0  0  0
    2.4517    2.0061    0.0000 H   0  0  0  0  0  0  0  0  0  0  0  0
    8.4933   -1.7641    0.0000 H   0  0  0  0  0  0  0  0  0  0  0  0
   11.5549    0.8297    0.0000 H   0  0  0  0  0  0  0  0  0  0  0  0
    1.8636   -0.7486    0.0000 H   0  0  0  0  0  0  0  0  0  0  0  0
    1.3952   -1.4899    0.0000 H   0  0  0  0  0  0  0  0  0  0  0  0
    2.1364   -1.9582    0.0000 H   0  0  0  0  0  0  0  0  0  0  0  0
    3.1982   -2.2887    0.0000 H   0  0  0  0  0  0  0  0  0  0  0  0
    4.0744   -2.3237    0.0000 H   0  0  0  0  0  0  0  0  0  0  0  0
    4.1094   -1.4476    0.0000 H   0  0  0  0  0  0  0  0  0  0  0  0
    8.2734   -3.1715    0.0000 H   0  0  0  0  0  0  0  0  0  0  0  0
   10.2507   -3.6652    0.0000 H   0  0  0  0  0  0  0  0  0  0  0  0
   10.9879   -3.1905    0.0000 H   0  0  0  0  0  0  0  0  0  0  0  0
   10.5132   -2.4533    0.0000 H   0  0  0  0  0  0  0  0  0  0  0  0
    8.3160   -4.0473    0.0000 H   0  0  0  0  0  0  0  0  0  0  0  0
    9.1917   -4.0048    0.0000 H   0  0  0  0  0  0  0  0  0  0  0  0
  1  7  1  0  0  0  0
  1 11  1  0  0  0  0
  2  9  1  0  0  0  0
  2 12  1  0  0  0  0
  3  6  1  0  0  0  0
  3 35  1  0  0  0  0
  4 18  1  0  0  0  0
  4 44  1  0  0  0  0
  5 21  1  0  0  0  0
  5 46  1  0  0  0  0
  6  7  1  0  0  0  0
  6  8  1  0  0  0  0
  6  9  1  0  0  0  0
  7 10  1  0  0  0  0
  7 31  1  0  0  0  0
  8 11  2  0  0  0  0
  8 14  1  0  0  0  0
  9 32  1  0  0  0  0
  9 33  1  0  0  0  0
 10 12  2  0  0  0  0
 10 15  1  0  0  0  0
 11 13  1  0  0  0  0
 12 17  1  0  0  0  0
 13 18  2  0  0  0  0
 13 20  1  0  0  0  0
 14 19  2  0  0  0  0
 14 34  1  0  0  0  0
 15 16  2  0  0  0  0
 15 36  1  0  0  0  0
 16 21  1  0  0  0  0
 16 22  1  0  0  0  0
 17 21  2  0  0  0  0
 17 37  1  0  0  0  0
 18 19  1  0  0  0  0
 19 38  1  0  0  0  0
 20 23  1  0  0  0  0
 20 39  1  0  0  0  0
 20 40  1  0  0  0  0
 22 24  1  0  0  0  0
 22 41  1  0  0  0  0
 22 42  1  0  0  0  0
 23 25  2  0  0  0  0
 23 43  1  0  0  0  0
 24 26  2  0  0  0  0
 24 45  1  0  0  0  0
 25 27  1  0  0  0  0
 25 28  1  0  0  0  0
 26 29  1  0  0  0  0
 26 30  1  0  0  0  0
 27 47  1  0  0  0  0
 27 48  1  0  0  0  0
 27 49  1  0  0  0  0
 28 50  1  0  0  0  0
 28 51  1  0  0  0  0
 28 52  1  0  0  0  0
 29 53  1  0  0  0  0
 29 57  1  0  0  0  0
 29 58  1  0  0  0  0
 30 54  1  0  0  0  0
 30 55  1  0  0  0  0
 30 56  1  0  0  0  0
M  END
>  <PUBCHEM_COMPOUND_CID>
44257484

>  <PUBCHEM_COMPOUND_CANONICALIZED>
1

>  <PUBCHEM_CACTVS_COMPLEXITY>
679

>  <PUBCHEM_CACTVS_HBOND_ACCEPTOR>
5

>  <PUBCHEM_CACTVS_HBOND_DONOR>
3

>  <PUBCHEM_CACTVS_ROTATABLE_BOND>
4

>  <PUBCHEM_CACTVS_SUBSKEYS>
AAADceB4OAAAAAAAAAAAAAAAAAAAASAAAAA0YIAAAAAAAEiRQAAAGgAACAAADFSgmAIyBoAABgCAAiBCAAACCAAgIAAIiAAGCIgNJyKGMRqCeCClwBULuAfA4PwOoAACCAAIAABAAAQQABAAAAAAAAAAAA==

>  <PUBCHEM_IUPAC_OPENEYE_NAME>
2,10-bis(3-methylbut-2-enyl)-6,11a-dihydrobenzofuro[3,2-c]chromene-3,6a,9-triol

>  <PUBCHEM_IUPAC_CAS_NAME>
2,10-bis(3-methylbut-2-enyl)-6,11a-dihydrobenzofuro[3,2-c][1]benzopyran-3,6a,9-triol

>  <PUBCHEM_IUPAC_NAME>
2,10-bis(3-methylbut-2-enyl)-6,11a-dihydro-[1]benzofuro[3,2-c]chromene-3,6a,9-triol

>  <PUBCHEM_IUPAC_SYSTEMATIC_NAME>
2,10-bis(3-methylbut-2-enyl)-6,11a-dihydro-[1]benzofuro[3,2-c]chromene-3,6a,9-triol

>  <PUBCHEM_IUPAC_TRADITIONAL_NAME>
2,10-bis(3-methylbut-2-enyl)-6,11a-dihydrobenzofuro[3,2-c]chromene-3,6a,9-triol

>  <PUBCHEM_IUPAC_INCHI>
InChI=1S/C25H28O5/c1-14(2)5-7-16-11-18-22(12-21(16)27)29-13-25(28)19-9-10-20(26)17(8-6-15(3)4)23(19)30-24(18)25/h5-6,9-12,24,26-28H,7-8,13H2,1-4H3

>  <PUBCHEM_IUPAC_INCHIKEY>
ZAAKSBRPXNODLV-UHFFFAOYSA-N

>  <PUBCHEM_XLOGP3_AA>
5.1

>  <PUBCHEM_EXACT_MASS>
408.194

>  <PUBCHEM_MOLECULAR_FORMULA>
C25H28O5

>  <PUBCHEM_MOLECULAR_WEIGHT>
408.494

>  <PUBCHEM_OPENEYE_CAN_SMILES>
CC(=CCC1=C(C=C2C(=C1)C3C(CO2)(C4=C(O3)C(=C(C=C4)O)CC=C(C)C)O)O)C

>  <PUBCHEM_OPENEYE_ISO_SMILES>
CC(=CCC1=C(C=C2C(=C1)C3C(CO2)(C4=C(O3)C(=C(C=C4)O)CC=C(C)C)O)O)C

>  <PUBCHEM_CACTVS_TPSA>
79.2

>  <PUBCHEM_MONOISOTOPIC_WEIGHT>
408.194

>  <PUBCHEM_TOTAL_CHARGE>
0

>  <PUBCHEM_HEAVY_ATOM_COUNT>
30

>  <PUBCHEM_ATOM_DEF_STEREO_COUNT>
0

>  <PUBCHEM_ATOM_UDEF_STEREO_COUNT>
2

>  <PUBCHEM_BOND_DEF_STEREO_COUNT>
0

>  <PUBCHEM_BOND_UDEF_STEREO_COUNT>
0

>  <PUBCHEM_ISOTOPIC_ATOM_COUNT>
0

>  <PUBCHEM_COMPONENT_COUNT>
1

>  <PUBCHEM_CACTVS_TAUTO_COUNT>
8

>  <PUBCHEM_COORDINATE_TYPE>
1
5
255

>  <PUBCHEM_BONDANNOTATIONS>
7  1  3
10  12  8
10  15  8
11  13  8
12  17  8
13  18  8
14  19  8
15  16  8
16  21  8
17  21  8
18  19  8
6  3  3
8  11  8
8  14  8

$$$$
