44258153
 OpenBabel06101807152D

 39 41  0  0  0  0  0  0  0  0999 V2000
    3.4037    0.8571    0.0000 S   0  0  0  0  0  0  0  0  0  0  0  0
   11.2659   -2.6154    0.0000 S   0  0  0  0  0  0  0  0  0  0  0  0
    7.8018    0.3846    0.0000 O   0  0  0  0  0  0  0  0  0  0  0  0
    4.2716    0.3605    0.0000 O   0  0  0  0  0  0  0  0  0  0  0  0
    6.0534    3.4192    0.0000 O   0  0  0  0  0  0  0  0  0  0  0  0
   10.3998   -2.1154    0.0000 O   0  0  0  0  0  0  0  0  0  0  0  0
    7.8018    3.3846    0.0000 O   0  0  0  0  0  0  0  0  0  0  0  0
   12.1319   -1.1154    0.0000 O   0  0  0  0  0  0  0  0  0  0  0  0
    2.5357    1.3538    0.0000 O   0  0  0  0  0  0  0  0  0  0  0  0
   12.1319   -3.1154    0.0000 O   0  0  0  0  0  0  0  0  0  0  0  0
    2.9070   -0.0108    0.0000 O   0  0  0  0  0  0  0  0  0  0  0  0
    3.9003    1.7251    0.0000 O   0  0  0  0  0  0  0  0  0  0  0  0
   10.7659   -3.4814    0.0000 O   0  0  0  0  0  0  0  0  0  0  0  0
   11.7659   -1.7494    0.0000 O   0  0  0  0  0  0  0  0  0  0  0  0
    6.9357    1.8846    0.0000 C   0  0  0  0  0  0  0  0  0  0  0  0
    6.9357    0.8846    0.0000 C   0  0  0  0  0  0  0  0  0  0  0  0
    8.6678    0.8846    0.0000 C   0  0  0  0  0  0  0  0  0  0  0  0
    9.5338    0.3846    0.0000 C   0  0  0  0  0  0  0  0  0  0  0  0
    7.8018    2.3846    0.0000 C   0  0  0  0  0  0  0  0  0  0  0  0
    8.6678    1.8846    0.0000 C   0  0  0  0  0  0  0  0  0  0  0  0
    6.0418    2.4193    0.0000 C   0  0  0  0  0  0  0  0  0  0  0  0
    6.0418    0.3499    0.0000 C   0  0  0  0  0  0  0  0  0  0  0  0
    5.1357    0.8638    0.0000 C   0  0  0  0  0  0  0  0  0  0  0  0
    9.5338   -0.6154    0.0000 C   0  0  0  0  0  0  0  0  0  0  0  0
    5.1357    1.9054    0.0000 C   0  0  0  0  0  0  0  0  0  0  0  0
   10.3998    0.8846    0.0000 C   0  0  0  0  0  0  0  0  0  0  0  0
   10.3998   -1.1154    0.0000 C   0  0  0  0  0  0  0  0  0  0  0  0
   11.2659    0.3846    0.0000 C   0  0  0  0  0  0  0  0  0  0  0  0
   11.2659   -0.6154    0.0000 C   0  0  0  0  0  0  0  0  0  0  0  0
    9.2047    2.1946    0.0000 H   0  0  0  0  0  0  0  0  0  0  0  0
    6.0490   -0.2700    0.0000 H   0  0  0  0  0  0  0  0  0  0  0  0
    8.9969   -0.9254    0.0000 H   0  0  0  0  0  0  0  0  0  0  0  0
    4.6000    2.2175    0.0000 H   0  0  0  0  0  0  0  0  0  0  0  0
   10.3998    1.5046    0.0000 H   0  0  0  0  0  0  0  0  0  0  0  0
   11.8028    0.6946    0.0000 H   0  0  0  0  0  0  0  0  0  0  0  0
    5.5200    3.7354    0.0000 H   0  0  0  0  0  0  0  0  0  0  0  0
   12.6688   -0.8054    0.0000 H   0  0  0  0  0  0  0  0  0  0  0  0
    2.0000    1.0417    0.0000 H   0  0  0  0  0  0  0  0  0  0  0  0
   12.1319   -3.7354    0.0000 H   0  0  0  0  0  0  0  0  0  0  0  0
  1  4  1  0  0  0  0
  1  9  1  0  0  0  0
  1 11  2  0  0  0  0
  1 12  2  0  0  0  0
  2  6  1  0  0  0  0
  2 10  1  0  0  0  0
  2 13  2  0  0  0  0
  2 14  2  0  0  0  0
  3 16  1  0  0  0  0
  3 17  1  0  0  0  0
  4 23  1  0  0  0  0
  5 21  1  0  0  0  0
  5 36  1  0  0  0  0
  6 27  1  0  0  0  0
  7 19  2  0  0  0  0
  8 29  1  0  0  0  0
  8 37  1  0  0  0  0
  9 38  1  0  0  0  0
 10 39  1  0  0  0  0
 15 16  1  0  0  0  0
 15 19  1  0  0  0  0
 15 21  2  0  0  0  0
 16 22  2  0  0  0  0
 17 18  1  0  0  0  0
 17 20  2  0  0  0  0
 18 24  2  0  0  0  0
 18 26  1  0  0  0  0
 19 20  1  0  0  0  0
 20 30  1  0  0  0  0
 21 25  1  0  0  0  0
 22 23  1  0  0  0  0
 22 31  1  0  0  0  0
 23 25  2  0  0  0  0
 24 27  1  0  0  0  0
 24 32  1  0  0  0  0
 25 33  1  0  0  0  0
 26 28  2  0  0  0  0
 26 34  1  0  0  0  0
 27 29  2  0  0  0  0
 28 29  1  0  0  0  0
 28 35  1  0  0  0  0
M  END
>  <PUBCHEM_COMPOUND_CID>
44258153

>  <PUBCHEM_COMPOUND_CANONICALIZED>
1

>  <PUBCHEM_CACTVS_COMPLEXITY>
868

>  <PUBCHEM_CACTVS_HBOND_ACCEPTOR>
12

>  <PUBCHEM_CACTVS_HBOND_DONOR>
4

>  <PUBCHEM_CACTVS_ROTATABLE_BOND>
5

>  <PUBCHEM_CACTVS_SUBSKEYS>
AAADccBwPABgAAAAAAAAAAAAAAAAAAAAAAAwYIAAAAAAAACBQAAAGgAACAAADASAmAAwBoAABoCIAqBSADACCAAkIAAIiAEGiMgNJzaGNRqCeWGl4BUJuQfI7LzOIAABCAAIQABAAAIQABCAAAAAAAAAAA==

>  <PUBCHEM_IUPAC_OPENEYE_NAME>
[2-hydroxy-5-(5-hydroxy-4-oxo-7-sulfooxy-chromen-2-yl)phenyl] hydrogen sulfate

>  <PUBCHEM_IUPAC_CAS_NAME>
sulfuric acid [2-hydroxy-5-(5-hydroxy-4-oxo-7-sulfooxy-1-benzopyran-2-yl)phenyl] ester

>  <PUBCHEM_IUPAC_NAME>
[2-hydroxy-5-(5-hydroxy-4-oxo-7-sulfooxychromen-2-yl)phenyl] hydrogen sulfate

>  <PUBCHEM_IUPAC_SYSTEMATIC_NAME>
[5-oxidanyl-4-oxidanylidene-2-(4-oxidanyl-3-sulfooxy-phenyl)chromen-7-yl] hydrogen sulfate

>  <PUBCHEM_IUPAC_TRADITIONAL_NAME>
sulfuric acid [2-hydroxy-5-(5-hydroxy-4-keto-7-sulfoxy-chromen-2-yl)phenyl] ester

>  <PUBCHEM_IUPAC_INCHI>
InChI=1S/C15H10O12S2/c16-9-2-1-7(3-13(9)27-29(22,23)24)12-6-11(18)15-10(17)4-8(5-14(15)25-12)26-28(19,20)21/h1-6,16-17H,(H,19,20,21)(H,22,23,24)

>  <PUBCHEM_IUPAC_INCHIKEY>
WFETZDMFLGONLW-UHFFFAOYSA-N

>  <PUBCHEM_XLOGP3>
0.2

>  <PUBCHEM_EXACT_MASS>
445.961

>  <PUBCHEM_MOLECULAR_FORMULA>
C15H10O12S2

>  <PUBCHEM_MOLECULAR_WEIGHT>
446.353

>  <PUBCHEM_OPENEYE_CAN_SMILES>
C1=CC(=C(C=C1C2=CC(=O)C3=C(C=C(C=C3O2)OS(=O)(=O)O)O)OS(=O)(=O)O)O

>  <PUBCHEM_OPENEYE_ISO_SMILES>
C1=CC(=C(C=C1C2=CC(=O)C3=C(C=C(C=C3O2)OS(=O)(=O)O)O)OS(=O)(=O)O)O

>  <PUBCHEM_CACTVS_TPSA>
211

>  <PUBCHEM_MONOISOTOPIC_WEIGHT>
445.961

>  <PUBCHEM_TOTAL_CHARGE>
0

>  <PUBCHEM_HEAVY_ATOM_COUNT>
29

>  <PUBCHEM_ATOM_DEF_STEREO_COUNT>
0

>  <PUBCHEM_ATOM_UDEF_STEREO_COUNT>
0

>  <PUBCHEM_BOND_DEF_STEREO_COUNT>
0

>  <PUBCHEM_BOND_UDEF_STEREO_COUNT>
0

>  <PUBCHEM_ISOTOPIC_ATOM_COUNT>
0

>  <PUBCHEM_COMPONENT_COUNT>
1

>  <PUBCHEM_CACTVS_TAUTO_COUNT>
29

>  <PUBCHEM_COORDINATE_TYPE>
1
5
255

>  <PUBCHEM_BONDANNOTATIONS>
15  16  8
15  19  8
15  21  8
16  22  8
17  20  8
18  24  8
18  26  8
19  20  8
21  25  8
22  23  8
23  25  8
24  27  8
26  28  8
27  29  8
28  29  8
3  16  8
3  17  8

$$$$
