44258664
 OpenBabel06101807152D

 59 63  0  0  1  0  0  0  0  0999 V2000
    7.3920   -2.2068    0.0000 O   0  0  0  0  0  0  0  0  0  0  0  0
    4.6119    0.9487    0.0000 O   0  0  0  0  0  0  0  0  0  0  0  0
    5.5098   -3.6274    0.0000 O   0  0  0  0  0  0  0  0  0  0  0  0
    3.7517   -0.5550    0.0000 O   0  0  0  0  0  0  0  0  0  0  0  0
    7.2757    2.4733    0.0000 O   0  0  0  0  0  0  0  0  0  0  0  0
    6.3944    4.0860    0.0000 O   0  0  0  0  0  0  0  0  0  0  0  0
    2.7796    4.0999    0.0000 O   0  0  0  0  0  0  0  0  0  0  0  0
    7.2539   -0.5581    0.0000 C   0  0  3  0  0  0  0  0  0  0  0  0
    7.8718   -1.3365    0.0000 C   0  0  0  0  0  0  0  0  0  0  0  0
    6.3879   -1.0581    0.0000 C   0  0  0  0  0  0  0  0  0  0  0  0
    7.2539    0.4419    0.0000 C   0  0  0  0  0  0  0  0  0  0  0  0
    6.4040   -2.0996    0.0000 C   0  0  0  0  0  0  0  0  0  0  0  0
    5.5219   -0.5581    0.0000 C   0  0  0  0  0  0  0  0  0  0  0  0
    6.3879    0.9419    0.0000 C   0  0  0  0  0  0  0  0  0  0  0  0
    8.7271   -1.8547    0.0000 C   0  0  0  0  0  0  0  0  0  0  0  0
    8.6290   -0.6832    0.0000 C   0  0  0  0  0  0  0  0  0  0  0  0
    5.5219    0.4419    0.0000 C   0  0  0  0  0  0  0  0  0  0  0  0
    5.5059   -2.6274    0.0000 C   0  0  0  0  0  0  0  0  0  0  0  0
    4.6119   -1.0650    0.0000 C   0  0  0  0  0  0  0  0  0  0  0  0
    4.6038   -2.1066    0.0000 C   0  0  0  0  0  0  0  0  0  0  0  0
    6.4040    1.9834    0.0000 C   0  0  0  0  0  0  0  0  0  0  0  0
    5.5059    2.5111    0.0000 C   0  0  0  0  0  0  0  0  0  0  0  0
    3.7359   -2.6032    0.0000 C   0  0  0  0  0  0  0  0  0  0  0  0
    4.6038    1.9903    0.0000 C   0  0  0  0  0  0  0  0  0  0  0  0
    5.5226    3.5960    0.0000 C   0  0  0  0  0  0  0  0  0  0  0  0
    3.6560    2.5183    0.0000 C   0  0  0  0  0  0  0  0  0  0  0  0
    3.7320   -3.6032    0.0000 C   0  0  0  0  0  0  0  0  0  0  0  0
    4.5872    4.1457    0.0000 C   0  0  0  0  0  0  0  0  0  0  0  0
    3.6476    3.6032    0.0000 C   0  0  0  0  0  0  0  0  0  0  0  0
    2.8641   -4.0999    0.0000 C   0  0  0  0  0  0  0  0  0  0  0  0
    2.8602   -5.0999    0.0000 C   0  0  0  0  0  0  0  0  0  0  0  0
    2.0000   -3.5966    0.0000 C   0  0  0  0  0  0  0  0  0  0  0  0
    2.7758    5.0999    0.0000 C   0  0  0  0  0  0  0  0  0  0  0  0
    7.8394   -0.3540    0.0000 H   0  0  0  0  0  0  0  0  0  0  0  0
    7.8645    0.3342    0.0000 H   0  0  0  0  0  0  0  0  0  0  0  0
    7.4660    1.0245    0.0000 H   0  0  0  0  0  0  0  0  0  0  0  0
    8.4058   -2.3850    0.0000 H   0  0  0  0  0  0  0  0  0  0  0  0
    9.2573   -2.1760    0.0000 H   0  0  0  0  0  0  0  0  0  0  0  0
    9.0484   -1.3245    0.0000 H   0  0  0  0  0  0  0  0  0  0  0  0
    9.0340   -1.1527    0.0000 H   0  0  0  0  0  0  0  0  0  0  0  0
    9.0984   -0.2782    0.0000 H   0  0  0  0  0  0  0  0  0  0  0  0
    8.2240   -0.2138    0.0000 H   0  0  0  0  0  0  0  0  0  0  0  0
    3.5261   -2.0198    0.0000 H   0  0  0  0  0  0  0  0  0  0  0  0
    3.1249   -2.7085    0.0000 H   0  0  0  0  0  0  0  0  0  0  0  0
    6.0479   -3.9353    0.0000 H   0  0  0  0  0  0  0  0  0  0  0  0
    3.2112   -0.8588    0.0000 H   0  0  0  0  0  0  0  0  0  0  0  0
    3.1226    2.2021    0.0000 H   0  0  0  0  0  0  0  0  0  0  0  0
    4.2678   -3.9153    0.0000 H   0  0  0  0  0  0  0  0  0  0  0  0
    4.5896    4.7657    0.0000 H   0  0  0  0  0  0  0  0  0  0  0  0
    6.4016    4.7059    0.0000 H   0  0  0  0  0  0  0  0  0  0  0  0
    2.2402   -5.0975    0.0000 H   0  0  0  0  0  0  0  0  0  0  0  0
    2.3121   -3.0608    0.0000 H   0  0  0  0  0  0  0  0  0  0  0  0
    1.4643   -3.2845    0.0000 H   0  0  0  0  0  0  0  0  0  0  0  0
    1.6879   -4.1323    0.0000 H   0  0  0  0  0  0  0  0  0  0  0  0
    2.8578   -5.7199    0.0000 H   0  0  0  0  0  0  0  0  0  0  0  0
    3.4802   -5.1023    0.0000 H   0  0  0  0  0  0  0  0  0  0  0  0
    3.3958    5.1023    0.0000 H   0  0  0  0  0  0  0  0  0  0  0  0
    2.7734    5.7199    0.0000 H   0  0  0  0  0  0  0  0  0  0  0  0
    2.1558    5.0975    0.0000 H   0  0  0  0  0  0  0  0  0  0  0  0
  1  9  1  0  0  0  0
  1 12  1  0  0  0  0
  2 17  1  0  0  0  0
  2 24  1  0  0  0  0
  3 18  1  0  0  0  0
  3 45  1  0  0  0  0
  4 19  1  0  0  0  0
  4 46  1  0  0  0  0
  5 21  2  0  0  0  0
  6 25  1  0  0  0  0
  6 50  1  0  0  0  0
  7 29  1  0  0  0  0
  7 33  1  0  0  0  0
  8  9  1  0  0  0  0
  8 10  1  0  0  0  0
  8 11  1  0  0  0  0
  8 34  1  0  0  0  0
  9 15  1  0  0  0  0
  9 16  1  0  0  0  0
 10 12  1  0  0  0  0
 10 13  2  0  0  0  0
 11 14  1  0  0  0  0
 11 35  1  0  0  0  0
 11 36  1  0  0  0  0
 12 18  2  0  0  0  0
 13 17  1  0  0  0  0
 13 19  1  0  0  0  0
 14 17  2  0  0  0  0
 14 21  1  0  0  0  0
 15 37  1  0  0  0  0
 15 38  1  0  0  0  0
 15 39  1  0  0  0  0
 16 40  1  0  0  0  0
 16 41  1  0  0  0  0
 16 42  1  0  0  0  0
 18 20  1  0  0  0  0
 19 20  2  0  0  0  0
 20 23  1  0  0  0  0
 21 22  1  0  0  0  0
 22 24  1  0  0  0  0
 22 25  2  0  0  0  0
 23 27  1  0  0  0  0
 23 43  1  0  0  0  0
 23 44  1  0  0  0  0
 24 26  2  0  0  0  0
 25 28  1  0  0  0  0
 26 29  1  0  0  0  0
 26 47  1  0  0  0  0
 27 30  2  0  0  0  0
 27 48  1  0  0  0  0
 28 29  2  0  0  0  0
 28 49  1  0  0  0  0
 30 31  1  0  0  0  0
 30 32  1  0  0  0  0
 31 51  1  0  0  0  0
 31 55  1  0  0  0  0
 31 56  1  0  0  0  0
 32 52  1  0  0  0  0
 32 53  1  0  0  0  0
 32 54  1  0  0  0  0
 33 57  1  0  0  0  0
 33 58  1  0  0  0  0
 33 59  1  0  0  0  0
M  END
>  <PUBCHEM_COMPOUND_CID>
44258664

>  <PUBCHEM_COMPOUND_CANONICALIZED>
1

>  <PUBCHEM_CACTVS_COMPLEXITY>
872

>  <PUBCHEM_CACTVS_HBOND_ACCEPTOR>
7

>  <PUBCHEM_CACTVS_HBOND_DONOR>
3

>  <PUBCHEM_CACTVS_ROTATABLE_BOND>
3

>  <PUBCHEM_CACTVS_SUBSKEYS>
AAADceB4OAAAAAAAAAAAAAAAAAAAASAAAAAwYIEAAAAAAEiRQAAAGgAACAAADUSAmAIyBoAABgCIAqBSAAACCAAkIAAAiAEGiMgNJzaGNRqCeWOl4BULuQfI7PzO4QADCAAYQADCAAYQADCAAAAAAAAAAA==

>  <PUBCHEM_IUPAC_INCHI>
InChI=1S/C26H26O7/c1-11(2)6-7-13-21(28)20-18-15(26(3,4)33-25(18)23(13)30)10-14-22(29)19-16(27)8-12(31-5)9-17(19)32-24(14)20/h6,8-9,15,27-28,30H,7,10H2,1-5H3

>  <PUBCHEM_IUPAC_INCHIKEY>
WGHQJSXSGKUCQL-UHFFFAOYSA-N

>  <PUBCHEM_XLOGP3_AA>
5

>  <PUBCHEM_EXACT_MASS>
450.168

>  <PUBCHEM_MOLECULAR_FORMULA>
C26H26O7

>  <PUBCHEM_MOLECULAR_WEIGHT>
450.487

>  <PUBCHEM_OPENEYE_CAN_SMILES>
CC(=CCC1=C(C2=C3C(CC4=C2OC5=CC(=CC(=C5C4=O)O)OC)C(OC3=C1O)(C)C)O)C

>  <PUBCHEM_OPENEYE_ISO_SMILES>
CC(=CCC1=C(C2=C3C(CC4=C2OC5=CC(=CC(=C5C4=O)O)OC)C(OC3=C1O)(C)C)O)C

>  <PUBCHEM_CACTVS_TPSA>
105

>  <PUBCHEM_MONOISOTOPIC_WEIGHT>
450.168

>  <PUBCHEM_TOTAL_CHARGE>
0

>  <PUBCHEM_HEAVY_ATOM_COUNT>
33

>  <PUBCHEM_ATOM_DEF_STEREO_COUNT>
0

>  <PUBCHEM_ATOM_UDEF_STEREO_COUNT>
1

>  <PUBCHEM_BOND_DEF_STEREO_COUNT>
0

>  <PUBCHEM_BOND_UDEF_STEREO_COUNT>
0

>  <PUBCHEM_ISOTOPIC_ATOM_COUNT>
0

>  <PUBCHEM_COMPONENT_COUNT>
1

>  <PUBCHEM_CACTVS_TAUTO_COUNT>
157

>  <PUBCHEM_COORDINATE_TYPE>
1
5
255

>  <PUBCHEM_BONDANNOTATIONS>
10  12  8
10  13  8
12  18  8
13  19  8
14  17  8
14  21  8
18  20  8
19  20  8
2  17  8
2  24  8
21  22  8
22  24  8
22  25  8
24  26  8
25  28  8
26  29  8
28  29  8
8  11  3

$$$$
