44258291
 OpenBabel06101807152D

 47 49  0  0  0  0  0  0  0  0999 V2000
    6.3981   -1.1900    0.0000 O   0  0  0  0  0  0  0  0  0  0  0  0
    6.3981    1.8100    0.0000 O   0  0  0  0  0  0  0  0  0  0  0  0
    4.6497    1.8446    0.0000 O   0  0  0  0  0  0  0  0  0  0  0  0
    2.8680   -1.2142    0.0000 O   0  0  0  0  0  0  0  0  0  0  0  0
    7.2641   -2.6900    0.0000 O   0  0  0  0  0  0  0  0  0  0  0  0
   10.7282   -2.6900    0.0000 O   0  0  0  0  0  0  0  0  0  0  0  0
    7.2641    0.3100    0.0000 C   0  0  0  0  0  0  0  0  0  0  0  0
    7.2641   -0.6900    0.0000 C   0  0  0  0  0  0  0  0  0  0  0  0
    5.5320    0.3100    0.0000 C   0  0  0  0  0  0  0  0  0  0  0  0
    8.1301    0.8100    0.0000 C   0  0  0  0  0  0  0  0  0  0  0  0
    6.3981    0.8100    0.0000 C   0  0  0  0  0  0  0  0  0  0  0  0
    5.5320   -0.6900    0.0000 C   0  0  0  0  0  0  0  0  0  0  0  0
    8.1301   -1.1900    0.0000 C   0  0  0  0  0  0  0  0  0  0  0  0
    4.6381    0.8447    0.0000 C   0  0  0  0  0  0  0  0  0  0  0  0
    4.6381   -1.2247    0.0000 C   0  0  0  0  0  0  0  0  0  0  0  0
    8.1301    1.8100    0.0000 C   0  0  0  0  0  0  0  0  0  0  0  0
    3.7320   -0.7108    0.0000 C   0  0  0  0  0  0  0  0  0  0  0  0
    3.7320    0.3308    0.0000 C   0  0  0  0  0  0  0  0  0  0  0  0
    8.1301   -2.1900    0.0000 C   0  0  0  0  0  0  0  0  0  0  0  0
    8.9962   -0.6900    0.0000 C   0  0  0  0  0  0  0  0  0  0  0  0
    8.9962    2.3100    0.0000 C   0  0  0  0  0  0  0  0  0  0  0  0
    8.9962   -2.6900    0.0000 C   0  0  0  0  0  0  0  0  0  0  0  0
    9.8622   -1.1900    0.0000 C   0  0  0  0  0  0  0  0  0  0  0  0
    9.8622   -2.1900    0.0000 C   0  0  0  0  0  0  0  0  0  0  0  0
    8.9962    3.3100    0.0000 C   0  0  0  0  0  0  0  0  0  0  0  0
    9.8622    1.8100    0.0000 C   0  0  0  0  0  0  0  0  0  0  0  0
    2.0000   -0.7175    0.0000 C   0  0  0  0  0  0  0  0  0  0  0  0
    8.3422    0.2274    0.0000 H   0  0  0  0  0  0  0  0  0  0  0  0
    8.7407    0.9177    0.0000 H   0  0  0  0  0  0  0  0  0  0  0  0
    4.6453   -1.8446    0.0000 H   0  0  0  0  0  0  0  0  0  0  0  0
    7.5932    2.1200    0.0000 H   0  0  0  0  0  0  0  0  0  0  0  0
    3.1963    0.6429    0.0000 H   0  0  0  0  0  0  0  0  0  0  0  0
    8.9962   -0.0700    0.0000 H   0  0  0  0  0  0  0  0  0  0  0  0
    8.9962   -3.3100    0.0000 H   0  0  0  0  0  0  0  0  0  0  0  0
   10.3991   -0.8800    0.0000 H   0  0  0  0  0  0  0  0  0  0  0  0
    9.6162    3.3100    0.0000 H   0  0  0  0  0  0  0  0  0  0  0  0
    8.9962    3.9300    0.0000 H   0  0  0  0  0  0  0  0  0  0  0  0
    9.5522    1.2731    0.0000 H   0  0  0  0  0  0  0  0  0  0  0  0
   10.3991    1.5000    0.0000 H   0  0  0  0  0  0  0  0  0  0  0  0
   10.1722    2.3469    0.0000 H   0  0  0  0  0  0  0  0  0  0  0  0
    8.3762    3.3100    0.0000 H   0  0  0  0  0  0  0  0  0  0  0  0
    4.1164    2.1608    0.0000 H   0  0  0  0  0  0  0  0  0  0  0  0
    7.2641   -3.3100    0.0000 H   0  0  0  0  0  0  0  0  0  0  0  0
    2.3079   -0.1794    0.0000 H   0  0  0  0  0  0  0  0  0  0  0  0
    1.4619   -0.4096    0.0000 H   0  0  0  0  0  0  0  0  0  0  0  0
    1.6921   -1.2556    0.0000 H   0  0  0  0  0  0  0  0  0  0  0  0
   11.2651   -2.3800    0.0000 H   0  0  0  0  0  0  0  0  0  0  0  0
  1  8  1  0  0  0  0
  1 12  1  0  0  0  0
  2 11  2  0  0  0  0
  3 14  1  0  0  0  0
  3 42  1  0  0  0  0
  4 17  1  0  0  0  0
  4 27  1  0  0  0  0
  5 19  1  0  0  0  0
  5 43  1  0  0  0  0
  6 24  1  0  0  0  0
  6 47  1  0  0  0  0
  7  8  2  0  0  0  0
  7 10  1  0  0  0  0
  7 11  1  0  0  0  0
  8 13  1  0  0  0  0
  9 11  1  0  0  0  0
  9 12  1  0  0  0  0
  9 14  2  0  0  0  0
 10 16  1  0  0  0  0
 10 28  1  0  0  0  0
 10 29  1  0  0  0  0
 12 15  2  0  0  0  0
 13 19  2  0  0  0  0
 13 20  1  0  0  0  0
 14 18  1  0  0  0  0
 15 17  1  0  0  0  0
 15 30  1  0  0  0  0
 16 21  2  0  0  0  0
 16 31  1  0  0  0  0
 17 18  2  0  0  0  0
 18 32  1  0  0  0  0
 19 22  1  0  0  0  0
 20 23  2  0  0  0  0
 20 33  1  0  0  0  0
 21 25  1  0  0  0  0
 21 26  1  0  0  0  0
 22 24  2  0  0  0  0
 22 34  1  0  0  0  0
 23 24  1  0  0  0  0
 23 35  1  0  0  0  0
 25 36  1  0  0  0  0
 25 37  1  0  0  0  0
 25 41  1  0  0  0  0
 26 38  1  0  0  0  0
 26 39  1  0  0  0  0
 26 40  1  0  0  0  0
 27 44  1  0  0  0  0
 27 45  1  0  0  0  0
 27 46  1  0  0  0  0
M  END
>  <PUBCHEM_COMPOUND_CID>
44258291

>  <PUBCHEM_COMPOUND_CANONICALIZED>
1

>  <PUBCHEM_CACTVS_COMPLEXITY>
620

>  <PUBCHEM_CACTVS_HBOND_ACCEPTOR>
6

>  <PUBCHEM_CACTVS_HBOND_DONOR>
3

>  <PUBCHEM_CACTVS_ROTATABLE_BOND>
4

>  <PUBCHEM_CACTVS_SUBSKEYS>
AAADceB4OAAAAAAAAAAAAAAAAAAAAAAAAAAwYIAAAAAAAACBQAAAGgAACAAADASAmAIyBoAABgCIAqBSAAACCAAkIAAIiAEGCMgMJzaGNRqCeWCl4BUIuQeI7KzOIAAACAAIAABAAAAQABAAAAAAAAAAAA==

>  <PUBCHEM_IUPAC_OPENEYE_NAME>
2-(2,4-dihydroxyphenyl)-5-hydroxy-7-methoxy-3-(3-methylbut-2-enyl)chromen-4-one

>  <PUBCHEM_IUPAC_CAS_NAME>
2-(2,4-dihydroxyphenyl)-5-hydroxy-7-methoxy-3-(3-methylbut-2-enyl)-1-benzopyran-4-one

>  <PUBCHEM_IUPAC_NAME>
2-(2,4-dihydroxyphenyl)-5-hydroxy-7-methoxy-3-(3-methylbut-2-enyl)chromen-4-one

>  <PUBCHEM_IUPAC_SYSTEMATIC_NAME>
2-[2,4-bis(oxidanyl)phenyl]-7-methoxy-3-(3-methylbut-2-enyl)-5-oxidanyl-chromen-4-one

>  <PUBCHEM_IUPAC_TRADITIONAL_NAME>
2-(2,4-dihydroxyphenyl)-5-hydroxy-7-methoxy-3-(3-methylbut-2-enyl)chromone

>  <PUBCHEM_IUPAC_INCHI>
InChI=1S/C21H20O6/c1-11(2)4-6-15-20(25)19-17(24)9-13(26-3)10-18(19)27-21(15)14-7-5-12(22)8-16(14)23/h4-5,7-10,22-24H,6H2,1-3H3

>  <PUBCHEM_IUPAC_INCHIKEY>
CTCHDPAJHVDPRN-UHFFFAOYSA-N

>  <PUBCHEM_XLOGP3>
3.9

>  <PUBCHEM_EXACT_MASS>
368.126

>  <PUBCHEM_MOLECULAR_FORMULA>
C21H20O6

>  <PUBCHEM_MOLECULAR_WEIGHT>
368.385

>  <PUBCHEM_OPENEYE_CAN_SMILES>
CC(=CCC1=C(OC2=CC(=CC(=C2C1=O)O)OC)C3=C(C=C(C=C3)O)O)C

>  <PUBCHEM_OPENEYE_ISO_SMILES>
CC(=CCC1=C(OC2=CC(=CC(=C2C1=O)O)OC)C3=C(C=C(C=C3)O)O)C

>  <PUBCHEM_CACTVS_TPSA>
96.2

>  <PUBCHEM_MONOISOTOPIC_WEIGHT>
368.126

>  <PUBCHEM_TOTAL_CHARGE>
0

>  <PUBCHEM_HEAVY_ATOM_COUNT>
27

>  <PUBCHEM_ATOM_DEF_STEREO_COUNT>
0

>  <PUBCHEM_ATOM_UDEF_STEREO_COUNT>
0

>  <PUBCHEM_BOND_DEF_STEREO_COUNT>
0

>  <PUBCHEM_BOND_UDEF_STEREO_COUNT>
0

>  <PUBCHEM_ISOTOPIC_ATOM_COUNT>
0

>  <PUBCHEM_COMPONENT_COUNT>
1

>  <PUBCHEM_CACTVS_TAUTO_COUNT>
72

>  <PUBCHEM_COORDINATE_TYPE>
1
5
255

>  <PUBCHEM_BONDANNOTATIONS>
1  12  8
1  8  8
12  15  8
13  19  8
13  20  8
14  18  8
15  17  8
17  18  8
19  22  8
20  23  8
22  24  8
23  24  8
7  11  8
7  8  8
9  11  8
9  12  8
9  14  8

$$$$
