44257530
 OpenBabel06101807152D

 41 44  0  0  0  0  0  0  0  0999 V2000
    5.9065   -1.1814    0.0000 O   0  0  0  0  0  0  0  0  0  0  0  0
    8.0505    0.8871    0.0000 O   0  0  0  0  0  0  0  0  0  0  0  0
   10.6901   -1.4571    0.0000 O   0  0  0  0  0  0  0  0  0  0  0  0
    6.7634    2.0460    0.0000 O   0  0  0  0  0  0  0  0  0  0  0  0
    2.4170   -0.2772    0.0000 O   0  0  0  0  0  0  0  0  0  0  0  0
    7.6904   -0.8071    0.0000 C   0  0  0  0  0  0  0  0  0  0  0  0
    6.7123   -0.5992    0.0000 C   0  0  0  0  0  0  0  0  0  0  0  0
    6.4033    0.3518    0.0000 C   0  0  0  0  0  0  0  0  0  0  0  0
    8.3596   -0.0640    0.0000 C   0  0  0  0  0  0  0  0  0  0  0  0
    9.3816   -0.2648    0.0000 C   0  0  0  0  0  0  0  0  0  0  0  0
    5.4092    0.3492    0.0000 C   0  0  0  0  0  0  0  0  0  0  0  0
    5.1028   -0.5964    0.0000 C   0  0  0  0  0  0  0  0  0  0  0  0
   10.0421    0.4860    0.0000 C   0  0  0  0  0  0  0  0  0  0  0  0
    7.9970   -1.8026    0.0000 C   0  0  0  0  0  0  0  0  0  0  0  0
    7.0724    1.0950    0.0000 C   0  0  0  0  0  0  0  0  0  0  0  0
    9.7112   -1.2530    0.0000 C   0  0  0  0  0  0  0  0  0  0  0  0
    9.0142   -2.0271    0.0000 C   0  0  0  0  0  0  0  0  0  0  0  0
    4.7276    1.1287    0.0000 C   0  0  0  0  0  0  0  0  0  0  0  0
    4.0936   -0.8282    0.0000 C   0  0  0  0  0  0  0  0  0  0  0  0
   11.0226    0.2894    0.0000 C   0  0  0  0  0  0  0  0  0  0  0  0
    3.7133    0.9204    0.0000 C   0  0  0  0  0  0  0  0  0  0  0  0
    3.3942   -0.0647    0.0000 C   0  0  0  0  0  0  0  0  0  0  0  0
   11.6831    1.0402    0.0000 C   0  0  0  0  0  0  0  0  0  0  0  0
   12.6636    0.8437    0.0000 C   0  0  0  0  0  0  0  0  0  0  0  0
   11.3631    1.9877    0.0000 C   0  0  0  0  0  0  0  0  0  0  0  0
   10.2677    1.0635    0.0000 H   0  0  0  0  0  0  0  0  0  0  0  0
    9.5126    0.8084    0.0000 H   0  0  0  0  0  0  0  0  0  0  0  0
    7.5768   -2.2586    0.0000 H   0  0  0  0  0  0  0  0  0  0  0  0
    9.2035   -2.6174    0.0000 H   0  0  0  0  0  0  0  0  0  0  0  0
    4.9255    1.7163    0.0000 H   0  0  0  0  0  0  0  0  0  0  0  0
    3.9094   -1.4202    0.0000 H   0  0  0  0  0  0  0  0  0  0  0  0
   11.2210   -0.2980    0.0000 H   0  0  0  0  0  0  0  0  0  0  0  0
    3.2998    1.3824    0.0000 H   0  0  0  0  0  0  0  0  0  0  0  0
   10.8840   -2.0460    0.0000 H   0  0  0  0  0  0  0  0  0  0  0  0
   12.5417    0.2358    0.0000 H   0  0  0  0  0  0  0  0  0  0  0  0
   13.2715    0.7218    0.0000 H   0  0  0  0  0  0  0  0  0  0  0  0
   11.9505    2.1861    0.0000 H   0  0  0  0  0  0  0  0  0  0  0  0
   11.1647    2.5751    0.0000 H   0  0  0  0  0  0  0  0  0  0  0  0
   10.7757    1.7893    0.0000 H   0  0  0  0  0  0  0  0  0  0  0  0
   12.7855    1.4516    0.0000 H   0  0  0  0  0  0  0  0  0  0  0  0
    2.0000    0.1816    0.0000 H   0  0  0  0  0  0  0  0  0  0  0  0
  1  7  1  0  0  0  0
  1 12  1  0  0  0  0
  2  9  1  0  0  0  0
  2 15  1  0  0  0  0
  3 16  1  0  0  0  0
  3 34  1  0  0  0  0
  4 15  2  0  0  0  0
  5 22  1  0  0  0  0
  5 41  1  0  0  0  0
  6  7  1  0  0  0  0
  6  9  2  0  0  0  0
  6 14  1  0  0  0  0
  7  8  2  0  0  0  0
  8 11  1  0  0  0  0
  8 15  1  0  0  0  0
  9 10  1  0  0  0  0
 10 13  1  0  0  0  0
 10 16  2  0  0  0  0
 11 12  2  0  0  0  0
 11 18  1  0  0  0  0
 12 19  1  0  0  0  0
 13 20  1  0  0  0  0
 13 26  1  0  0  0  0
 13 27  1  0  0  0  0
 14 17  2  0  0  0  0
 14 28  1  0  0  0  0
 16 17  1  0  0  0  0
 17 29  1  0  0  0  0
 18 21  2  0  0  0  0
 18 30  1  0  0  0  0
 19 22  2  0  0  0  0
 19 31  1  0  0  0  0
 20 23  2  0  0  0  0
 20 32  1  0  0  0  0
 21 22  1  0  0  0  0
 21 33  1  0  0  0  0
 23 24  1  0  0  0  0
 23 25  1  0  0  0  0
 24 35  1  0  0  0  0
 24 36  1  0  0  0  0
 24 40  1  0  0  0  0
 25 37  1  0  0  0  0
 25 38  1  0  0  0  0
 25 39  1  0  0  0  0
M  END
>  <PUBCHEM_COMPOUND_CID>
44257530

>  <PUBCHEM_COMPOUND_CANONICALIZED>
1

>  <PUBCHEM_CACTVS_COMPLEXITY>
554

>  <PUBCHEM_CACTVS_HBOND_ACCEPTOR>
5

>  <PUBCHEM_CACTVS_HBOND_DONOR>
2

>  <PUBCHEM_CACTVS_ROTATABLE_BOND>
2

>  <PUBCHEM_CACTVS_SUBSKEYS>
AAADceB4OAAAAAAAAAAAAAAAAAAAASAAAAA0YIAAAAAAAEiR9AAAGgAACAAADASAmAAyDsAABkCIAqDSCAACCAAkIAAIiAEGCMgMJzaONRqCe2Cl4BUIuYfL7PzOoAACCAAIAABAAAQQABAAAAAAAAAAAA==

>  <PUBCHEM_IUPAC_OPENEYE_NAME>
3,9-dihydroxy-4-(3-methylbut-2-enyl)benzofuro[3,2-c]chromen-6-one

>  <PUBCHEM_IUPAC_CAS_NAME>
3,9-dihydroxy-4-(3-methylbut-2-enyl)-6-benzofuro[3,2-c][1]benzopyranone

>  <PUBCHEM_IUPAC_NAME>
3,9-dihydroxy-4-(3-methylbut-2-enyl)-[1]benzofuro[3,2-c]chromen-6-one

>  <PUBCHEM_IUPAC_SYSTEMATIC_NAME>
4-(3-methylbut-2-enyl)-3,9-bis(oxidanyl)-[1]benzofuro[3,2-c]chromen-6-one

>  <PUBCHEM_IUPAC_TRADITIONAL_NAME>
3,9-dihydroxy-4-(3-methylbut-2-enyl)benzofuro[3,2-c]chromen-6-one

>  <PUBCHEM_IUPAC_INCHI>
InChI=1S/C20H16O5/c1-10(2)3-5-12-15(22)8-7-14-18(12)25-20(23)17-13-6-4-11(21)9-16(13)24-19(14)17/h3-4,6-9,21-22H,5H2,1-2H3

>  <PUBCHEM_IUPAC_INCHIKEY>
FRXPSBUCIWPZMH-UHFFFAOYSA-N

>  <PUBCHEM_XLOGP3_AA>
4.7

>  <PUBCHEM_EXACT_MASS>
336.1

>  <PUBCHEM_MOLECULAR_FORMULA>
C20H16O5

>  <PUBCHEM_MOLECULAR_WEIGHT>
336.343

>  <PUBCHEM_OPENEYE_CAN_SMILES>
CC(=CCC1=C(C=CC2=C1OC(=O)C3=C2OC4=C3C=CC(=C4)O)O)C

>  <PUBCHEM_OPENEYE_ISO_SMILES>
CC(=CCC1=C(C=CC2=C1OC(=O)C3=C2OC4=C3C=CC(=C4)O)O)C

>  <PUBCHEM_CACTVS_TPSA>
79.9

>  <PUBCHEM_MONOISOTOPIC_WEIGHT>
336.1

>  <PUBCHEM_TOTAL_CHARGE>
0

>  <PUBCHEM_HEAVY_ATOM_COUNT>
25

>  <PUBCHEM_ATOM_DEF_STEREO_COUNT>
0

>  <PUBCHEM_ATOM_UDEF_STEREO_COUNT>
0

>  <PUBCHEM_BOND_DEF_STEREO_COUNT>
0

>  <PUBCHEM_BOND_UDEF_STEREO_COUNT>
0

>  <PUBCHEM_ISOTOPIC_ATOM_COUNT>
0

>  <PUBCHEM_COMPONENT_COUNT>
1

>  <PUBCHEM_CACTVS_TAUTO_COUNT>
15

>  <PUBCHEM_COORDINATE_TYPE>
1
5
255

>  <PUBCHEM_BONDANNOTATIONS>
1  12  8
1  7  8
10  16  8
11  12  8
11  18  8
12  19  8
14  17  8
16  17  8
18  21  8
19  22  8
2  15  8
2  9  8
21  22  8
6  14  8
6  7  8
6  9  8
7  8  8
8  11  8
8  15  8
9  10  8

$$$$
