44259575
 OpenBabel06101807152D

 41 43  0  0  0  0  0  0  0  0999 V2000
    8.1301    2.0950    0.0000 S   0  0  0  0  0  0  0  0  0  0  0  0
    6.3981   -0.9050    0.0000 O   0  0  0  0  0  0  0  0  0  0  0  0
    8.1301    1.0950    0.0000 O   0  0  0  0  0  0  0  0  0  0  0  0
    2.8680   -0.9292    0.0000 O   0  0  0  0  0  0  0  0  0  0  0  0
    4.6497    2.1296    0.0000 O   0  0  0  0  0  0  0  0  0  0  0  0
    6.3981    2.0950    0.0000 O   0  0  0  0  0  0  0  0  0  0  0  0
   10.7282   -2.4050    0.0000 O   0  0  0  0  0  0  0  0  0  0  0  0
    8.1301    3.0950    0.0000 O   0  0  0  0  0  0  0  0  0  0  0  0
    9.1301    2.0950    0.0000 O   0  0  0  0  0  0  0  0  0  0  0  0
    7.1301    2.0950    0.0000 O   0  0  0  0  0  0  0  0  0  0  0  0
    5.5320    0.5950    0.0000 C   0  0  0  0  0  0  0  0  0  0  0  0
    5.5320   -0.4050    0.0000 C   0  0  0  0  0  0  0  0  0  0  0  0
    7.2641   -0.4050    0.0000 C   0  0  0  0  0  0  0  0  0  0  0  0
    7.2641    0.5950    0.0000 C   0  0  0  0  0  0  0  0  0  0  0  0
    6.3981    1.0950    0.0000 C   0  0  0  0  0  0  0  0  0  0  0  0
    8.1301   -0.9050    0.0000 C   0  0  0  0  0  0  0  0  0  0  0  0
    4.6381    1.1297    0.0000 C   0  0  0  0  0  0  0  0  0  0  0  0
    4.6381   -0.9397    0.0000 C   0  0  0  0  0  0  0  0  0  0  0  0
    3.7320   -0.4258    0.0000 C   0  0  0  0  0  0  0  0  0  0  0  0
    3.7320    0.6158    0.0000 C   0  0  0  0  0  0  0  0  0  0  0  0
    8.1301   -1.9050    0.0000 C   0  0  0  0  0  0  0  0  0  0  0  0
    8.9962   -0.4050    0.0000 C   0  0  0  0  0  0  0  0  0  0  0  0
    8.9962   -2.4050    0.0000 C   0  0  0  0  0  0  0  0  0  0  0  0
    9.8622   -0.9050    0.0000 C   0  0  0  0  0  0  0  0  0  0  0  0
    9.8622   -1.9050    0.0000 C   0  0  0  0  0  0  0  0  0  0  0  0
    2.0000   -0.4325    0.0000 C   0  0  0  0  0  0  0  0  0  0  0  0
   10.7282   -3.4050    0.0000 C   0  0  0  0  0  0  0  0  0  0  0  0
    4.6453   -1.5596    0.0000 H   0  0  0  0  0  0  0  0  0  0  0  0
    3.1963    0.9279    0.0000 H   0  0  0  0  0  0  0  0  0  0  0  0
    7.5932   -2.2150    0.0000 H   0  0  0  0  0  0  0  0  0  0  0  0
    8.9962    0.2150    0.0000 H   0  0  0  0  0  0  0  0  0  0  0  0
    8.9962   -3.0250    0.0000 H   0  0  0  0  0  0  0  0  0  0  0  0
   10.3991   -0.5950    0.0000 H   0  0  0  0  0  0  0  0  0  0  0  0
    4.1164    2.4458    0.0000 H   0  0  0  0  0  0  0  0  0  0  0  0
    2.3079    0.1056    0.0000 H   0  0  0  0  0  0  0  0  0  0  0  0
    1.4619   -0.1246    0.0000 H   0  0  0  0  0  0  0  0  0  0  0  0
    1.6921   -0.9706    0.0000 H   0  0  0  0  0  0  0  0  0  0  0  0
   10.1082   -3.4050    0.0000 H   0  0  0  0  0  0  0  0  0  0  0  0
   10.7282   -4.0250    0.0000 H   0  0  0  0  0  0  0  0  0  0  0  0
   11.3482   -3.4050    0.0000 H   0  0  0  0  0  0  0  0  0  0  0  0
    8.6671    3.4050    0.0000 H   0  0  0  0  0  0  0  0  0  0  0  0
  1  3  1  0  0  0  0
  1  8  1  0  0  0  0
  1  9  2  0  0  0  0
  1 10  2  0  0  0  0
  2 12  1  0  0  0  0
  2 13  1  0  0  0  0
  3 14  1  0  0  0  0
  4 19  1  0  0  0  0
  4 26  1  0  0  0  0
  5 17  1  0  0  0  0
  5 34  1  0  0  0  0
  6 15  2  0  0  0  0
  7 25  1  0  0  0  0
  7 27  1  0  0  0  0
  8 41  1  0  0  0  0
 11 12  1  0  0  0  0
 11 15  1  0  0  0  0
 11 17  2  0  0  0  0
 12 18  2  0  0  0  0
 13 14  2  0  0  0  0
 13 16  1  0  0  0  0
 14 15  1  0  0  0  0
 16 21  2  0  0  0  0
 16 22  1  0  0  0  0
 17 20  1  0  0  0  0
 18 19  1  0  0  0  0
 18 28  1  0  0  0  0
 19 20  2  0  0  0  0
 20 29  1  0  0  0  0
 21 23  1  0  0  0  0
 21 30  1  0  0  0  0
 22 24  2  0  0  0  0
 22 31  1  0  0  0  0
 23 25  2  0  0  0  0
 23 32  1  0  0  0  0
 24 25  1  0  0  0  0
 24 33  1  0  0  0  0
 26 35  1  0  0  0  0
 26 36  1  0  0  0  0
 26 37  1  0  0  0  0
 27 38  1  0  0  0  0
 27 39  1  0  0  0  0
 27 40  1  0  0  0  0
M  END
>  <PUBCHEM_COMPOUND_CID>
44259575

>  <PUBCHEM_COMPOUND_CANONICALIZED>
1

>  <PUBCHEM_CACTVS_COMPLEXITY>
688

>  <PUBCHEM_CACTVS_HBOND_ACCEPTOR>
9

>  <PUBCHEM_CACTVS_HBOND_DONOR>
2

>  <PUBCHEM_CACTVS_ROTATABLE_BOND>
5

>  <PUBCHEM_CACTVS_SUBSKEYS>
AAADccB4PABAAAAAAAAAAAAAAAAAAAAAAAAwYIAAAAAAAACBQAAAGgAACAAADASAmAIyBoAABoCIAqBSADICCAAkIAAIiAFGCMgMJzaGNRqCeWCl4BUIuQfI7KzOIAAACAAIAABAAAAQABAAAAAAAAAAAA==

>  <PUBCHEM_IUPAC_OPENEYE_NAME>
[5-hydroxy-7-methoxy-2-(4-methoxyphenyl)-4-oxo-chromen-3-yl] hydrogen sulfate

>  <PUBCHEM_IUPAC_CAS_NAME>
sulfuric acid [5-hydroxy-7-methoxy-2-(4-methoxyphenyl)-4-oxo-1-benzopyran-3-yl] ester

>  <PUBCHEM_IUPAC_NAME>
[5-hydroxy-7-methoxy-2-(4-methoxyphenyl)-4-oxochromen-3-yl] hydrogen sulfate

>  <PUBCHEM_IUPAC_SYSTEMATIC_NAME>
[7-methoxy-2-(4-methoxyphenyl)-5-oxidanyl-4-oxidanylidene-chromen-3-yl] hydrogen sulfate

>  <PUBCHEM_IUPAC_TRADITIONAL_NAME>
sulfuric acid [5-hydroxy-4-keto-7-methoxy-2-(4-methoxyphenyl)chromen-3-yl] ester

>  <PUBCHEM_IUPAC_INCHI>
InChI=1S/C17H14O9S/c1-23-10-5-3-9(4-6-10)16-17(26-27(20,21)22)15(19)14-12(18)7-11(24-2)8-13(14)25-16/h3-8,18H,1-2H3,(H,20,21,22)

>  <PUBCHEM_IUPAC_INCHIKEY>
WXRZYIAUGRZZHE-UHFFFAOYSA-N

>  <PUBCHEM_XLOGP3_AA>
2.6

>  <PUBCHEM_EXACT_MASS>
394.036

>  <PUBCHEM_MOLECULAR_FORMULA>
C17H14O9S

>  <PUBCHEM_MOLECULAR_WEIGHT>
394.35

>  <PUBCHEM_OPENEYE_CAN_SMILES>
COC1=CC=C(C=C1)C2=C(C(=O)C3=C(C=C(C=C3O2)OC)O)OS(=O)(=O)O

>  <PUBCHEM_OPENEYE_ISO_SMILES>
COC1=CC=C(C=C1)C2=C(C(=O)C3=C(C=C(C=C3O2)OC)O)OS(=O)(=O)O

>  <PUBCHEM_CACTVS_TPSA>
137

>  <PUBCHEM_MONOISOTOPIC_WEIGHT>
394.036

>  <PUBCHEM_TOTAL_CHARGE>
0

>  <PUBCHEM_HEAVY_ATOM_COUNT>
27

>  <PUBCHEM_ATOM_DEF_STEREO_COUNT>
0

>  <PUBCHEM_ATOM_UDEF_STEREO_COUNT>
0

>  <PUBCHEM_BOND_DEF_STEREO_COUNT>
0

>  <PUBCHEM_BOND_UDEF_STEREO_COUNT>
0

>  <PUBCHEM_ISOTOPIC_ATOM_COUNT>
0

>  <PUBCHEM_COMPONENT_COUNT>
1

>  <PUBCHEM_CACTVS_TAUTO_COUNT>
5

>  <PUBCHEM_COORDINATE_TYPE>
1
5
255

>  <PUBCHEM_BONDANNOTATIONS>
11  12  8
11  15  8
11  17  8
12  18  8
13  14  8
14  15  8
16  21  8
16  22  8
17  20  8
18  19  8
19  20  8
2  12  8
2  13  8
21  23  8
22  24  8
23  25  8
24  25  8

$$$$
