44259873
 OpenBabel06101807152D

 40 43  0  0  0  0  0  0  0  0999 V2000
    7.2342   -0.6126    0.0000 O   0  0  0  0  0  0  0  0  0  0  0  0
   10.8064    1.2268    0.0000 O   0  0  0  0  0  0  0  0  0  0  0  0
   10.8064   -0.3827    0.0000 O   0  0  0  0  0  0  0  0  0  0  0  0
    5.4641    1.4462    0.0000 O   0  0  0  0  0  0  0  0  0  0  0  0
    8.9942    2.4221    0.0000 O   0  0  0  0  0  0  0  0  0  0  0  0
    7.2458    2.4567    0.0000 O   0  0  0  0  0  0  0  0  0  0  0  0
    2.8641   -0.1121    0.0000 O   0  0  0  0  0  0  0  0  0  0  0  0
    2.8718   -2.1121    0.0000 O   0  0  0  0  0  0  0  0  0  0  0  0
    8.1282    0.9221    0.0000 C   0  0  0  0  0  0  0  0  0  0  0  0
    8.1282   -0.0779    0.0000 C   0  0  0  0  0  0  0  0  0  0  0  0
    9.8602    0.9221    0.0000 C   0  0  0  0  0  0  0  0  0  0  0  0
    8.9942    1.4221    0.0000 C   0  0  0  0  0  0  0  0  0  0  0  0
    9.8602   -0.0779    0.0000 C   0  0  0  0  0  0  0  0  0  0  0  0
    6.3282   -0.0987    0.0000 C   0  0  0  0  0  0  0  0  0  0  0  0
    8.9942   -0.5779    0.0000 C   0  0  0  0  0  0  0  0  0  0  0  0
    7.2342    1.4567    0.0000 C   0  0  0  0  0  0  0  0  0  0  0  0
    6.3282    0.9429    0.0000 C   0  0  0  0  0  0  0  0  0  0  0  0
    5.4641   -0.6021    0.0000 C   0  0  0  0  0  0  0  0  0  0  0  0
   11.3901    0.4221    0.0000 C   0  0  0  0  0  0  0  0  0  0  0  0
    4.5961   -0.1054    0.0000 C   0  0  0  0  0  0  0  0  0  0  0  0
    5.4679   -1.6021    0.0000 C   0  0  0  0  0  0  0  0  0  0  0  0
    3.7320   -0.6088    0.0000 C   0  0  0  0  0  0  0  0  0  0  0  0
    4.6038   -2.1054    0.0000 C   0  0  0  0  0  0  0  0  0  0  0  0
    3.7359   -1.6087    0.0000 C   0  0  0  0  0  0  0  0  0  0  0  0
    5.4679    2.4462    0.0000 C   0  0  0  0  0  0  0  0  0  0  0  0
    2.0000   -0.6154    0.0000 C   0  0  0  0  0  0  0  0  0  0  0  0
    8.9942   -1.1979    0.0000 H   0  0  0  0  0  0  0  0  0  0  0  0
   11.8509    0.0073    0.0000 H   0  0  0  0  0  0  0  0  0  0  0  0
   11.8509    0.8368    0.0000 H   0  0  0  0  0  0  0  0  0  0  0  0
    4.5937    0.5146    0.0000 H   0  0  0  0  0  0  0  0  0  0  0  0
    6.0061   -1.9100    0.0000 H   0  0  0  0  0  0  0  0  0  0  0  0
    4.6062   -2.7254    0.0000 H   0  0  0  0  0  0  0  0  0  0  0  0
    9.5311    2.7321    0.0000 H   0  0  0  0  0  0  0  0  0  0  0  0
    6.0879    2.4438    0.0000 H   0  0  0  0  0  0  0  0  0  0  0  0
    5.4703    3.0662    0.0000 H   0  0  0  0  0  0  0  0  0  0  0  0
    4.8479    2.4486    0.0000 H   0  0  0  0  0  0  0  0  0  0  0  0
    2.8742   -2.7321    0.0000 H   0  0  0  0  0  0  0  0  0  0  0  0
    1.6879   -0.0797    0.0000 H   0  0  0  0  0  0  0  0  0  0  0  0
    1.4643   -0.9275    0.0000 H   0  0  0  0  0  0  0  0  0  0  0  0
    2.3121   -1.1512    0.0000 H   0  0  0  0  0  0  0  0  0  0  0  0
  1 10  1  0  0  0  0
  1 14  1  0  0  0  0
  2 11  1  0  0  0  0
  2 19  1  0  0  0  0
  3 13  1  0  0  0  0
  3 19  1  0  0  0  0
  4 17  1  0  0  0  0
  4 25  1  0  0  0  0
  5 12  1  0  0  0  0
  5 33  1  0  0  0  0
  6 16  2  0  0  0  0
  7 22  1  0  0  0  0
  7 26  1  0  0  0  0
  8 24  1  0  0  0  0
  8 37  1  0  0  0  0
  9 10  1  0  0  0  0
  9 12  2  0  0  0  0
  9 16  1  0  0  0  0
 10 15  2  0  0  0  0
 11 12  1  0  0  0  0
 11 13  2  0  0  0  0
 13 15  1  0  0  0  0
 14 17  2  0  0  0  0
 14 18  1  0  0  0  0
 15 27  1  0  0  0  0
 16 17  1  0  0  0  0
 18 20  2  0  0  0  0
 18 21  1  0  0  0  0
 19 28  1  0  0  0  0
 19 29  1  0  0  0  0
 20 22  1  0  0  0  0
 20 30  1  0  0  0  0
 21 23  2  0  0  0  0
 21 31  1  0  0  0  0
 22 24  2  0  0  0  0
 23 24  1  0  0  0  0
 23 32  1  0  0  0  0
 25 34  1  0  0  0  0
 25 35  1  0  0  0  0
 25 36  1  0  0  0  0
 26 38  1  0  0  0  0
 26 39  1  0  0  0  0
 26 40  1  0  0  0  0
M  END
>  <PUBCHEM_COMPOUND_CID>
44259873

>  <PUBCHEM_COMPOUND_CANONICALIZED>
1

>  <PUBCHEM_CACTVS_COMPLEXITY>
590

>  <PUBCHEM_CACTVS_HBOND_ACCEPTOR>
8

>  <PUBCHEM_CACTVS_HBOND_DONOR>
2

>  <PUBCHEM_CACTVS_ROTATABLE_BOND>
3

>  <PUBCHEM_CACTVS_SUBSKEYS>
AAADccB4PAAAAAAAAAAAAAAAAAAAASAAAAAwYIAAAAAAAEiBQAAAGgAACAAADASAmAMyDoAABgCIAqBSAAICCAAkIAAIiAFGiMgdJzaGNR6ieWOl4BUPuQfK7LzOIQABCAAIQABCAAIQABCAAAAAAAAAAA==

>  <PUBCHEM_IUPAC_OPENEYE_NAME>
9-hydroxy-6-(4-hydroxy-3-methoxy-phenyl)-7-methoxy-[1,3]dioxolo[4,5-g]chromen-8-one

>  <PUBCHEM_IUPAC_CAS_NAME>
9-hydroxy-6-(4-hydroxy-3-methoxyphenyl)-7-methoxy-[1,3]dioxolo[4,5-g][1]benzopyran-8-one

>  <PUBCHEM_IUPAC_NAME>
9-hydroxy-6-(4-hydroxy-3-methoxyphenyl)-7-methoxy-[1,3]dioxolo[4,5-g]chromen-8-one

>  <PUBCHEM_IUPAC_SYSTEMATIC_NAME>
7-methoxy-6-(3-methoxy-4-oxidanyl-phenyl)-9-oxidanyl-[1,3]dioxolo[4,5-g]chromen-8-one

>  <PUBCHEM_IUPAC_TRADITIONAL_NAME>
9-hydroxy-6-(4-hydroxy-3-methoxy-phenyl)-7-methoxy-[1,3]dioxolo[4,5-g]chromen-8-one

>  <PUBCHEM_IUPAC_INCHI>
InChI=1S/C18H14O8/c1-22-10-5-8(3-4-9(10)19)16-18(23-2)15(21)13-11(26-16)6-12-17(14(13)20)25-7-24-12/h3-6,19-20H,7H2,1-2H3

>  <PUBCHEM_IUPAC_INCHIKEY>
QDUQFPNXGXDSQJ-UHFFFAOYSA-N

>  <PUBCHEM_XLOGP3_AA>
3

>  <PUBCHEM_EXACT_MASS>
358.069

>  <PUBCHEM_MOLECULAR_FORMULA>
C18H14O8

>  <PUBCHEM_MOLECULAR_WEIGHT>
358.302

>  <PUBCHEM_OPENEYE_CAN_SMILES>
COC1=C(C=CC(=C1)C2=C(C(=O)C3=C(C4=C(C=C3O2)OCO4)O)OC)O

>  <PUBCHEM_OPENEYE_ISO_SMILES>
COC1=C(C=CC(=C1)C2=C(C(=O)C3=C(C4=C(C=C3O2)OCO4)O)OC)O

>  <PUBCHEM_CACTVS_TPSA>
104

>  <PUBCHEM_MONOISOTOPIC_WEIGHT>
358.069

>  <PUBCHEM_TOTAL_CHARGE>
0

>  <PUBCHEM_HEAVY_ATOM_COUNT>
26

>  <PUBCHEM_ATOM_DEF_STEREO_COUNT>
0

>  <PUBCHEM_ATOM_UDEF_STEREO_COUNT>
0

>  <PUBCHEM_BOND_DEF_STEREO_COUNT>
0

>  <PUBCHEM_BOND_UDEF_STEREO_COUNT>
0

>  <PUBCHEM_ISOTOPIC_ATOM_COUNT>
0

>  <PUBCHEM_COMPONENT_COUNT>
1

>  <PUBCHEM_CACTVS_TAUTO_COUNT>
23

>  <PUBCHEM_COORDINATE_TYPE>
1
5
255

>  <PUBCHEM_BONDANNOTATIONS>
1  10  8
1  14  8
10  15  8
11  12  8
11  13  8
13  15  8
14  17  8
16  17  8
18  20  8
18  21  8
20  22  8
21  23  8
22  24  8
23  24  8
9  10  8
9  12  8
9  16  8

$$$$
