44258136
 OpenBabel06101807152D

 72 76  0  0  1  0  0  0  0  0999 V2000
    5.1350   -2.4246    0.0000 O   0  0  0  0  0  0  0  0  0  0  0  0
   12.9628    3.1212    0.0000 O   0  0  0  0  0  0  0  0  0  0  0  0
    6.8671   -2.4246    0.0000 O   0  0  0  0  0  0  0  0  0  0  0  0
    5.1350   -5.4246    0.0000 O   0  0  0  0  0  0  0  0  0  0  0  0
    3.4030   -4.4246    0.0000 O   0  0  0  0  0  0  0  0  0  0  0  0
    6.8671   -4.4246    0.0000 O   0  0  0  0  0  0  0  0  0  0  0  0
   12.0910    1.6246    0.0000 O   0  0  0  0  0  0  0  0  0  0  0  0
   15.5550    1.6112    0.0000 O   0  0  0  0  0  0  0  0  0  0  0  0
   15.5627    3.6112    0.0000 O   0  0  0  0  0  0  0  0  0  0  0  0
   13.8191    0.6179    0.0000 O   0  0  0  0  0  0  0  0  0  0  0  0
    2.5369   -2.9246    0.0000 O   0  0  0  0  0  0  0  0  0  0  0  0
   14.7025    5.1146    0.0000 O   0  0  0  0  0  0  0  0  0  0  0  0
   12.9705    5.1212    0.0000 O   0  0  0  0  0  0  0  0  0  0  0  0
    8.6230    0.6380    0.0000 O   0  0  0  0  0  0  0  0  0  0  0  0
   12.0987    3.6246    0.0000 O   0  0  0  0  0  0  0  0  0  0  0  0
    5.1208    0.6546    0.0000 O   0  0  0  0  0  0  0  0  0  0  0  0
    6.0308    2.1480    0.0000 O   0  0  0  0  0  0  0  0  0  0  0  0
    5.1350   -4.4246    0.0000 C   0  0  1  0  0  0  0  0  0  0  0  0
    4.2690   -3.9246    0.0000 C   0  0  1  0  0  0  0  0  0  0  0  0
    4.2690   -2.9246    0.0000 C   0  0  3  0  0  0  0  0  0  0  0  0
    6.0010   -3.9246    0.0000 C   0  0  3  0  0  0  0  0  0  0  0  0
    6.0010   -2.9246    0.0000 C   0  0  1  0  0  0  0  0  0  0  0  0
   14.6909    2.1146    0.0000 C   0  0  1  0  0  0  0  0  0  0  0  0
   14.6948    3.1146    0.0000 C   0  0  1  0  0  0  0  0  0  0  0  0
   13.8230    1.6179    0.0000 C   0  0  3  0  0  0  0  0  0  0  0  0
   13.8307    3.6179    0.0000 C   0  0  3  0  0  0  0  0  0  0  0  0
   12.9589    2.1212    0.0000 C   0  0  1  0  0  0  0  0  0  0  0  0
    3.4030   -2.4246    0.0000 C   0  0  0  0  0  0  0  0  0  0  0  0
   13.8346    4.6179    0.0000 C   0  0  0  0  0  0  0  0  0  0  0  0
    6.8671   -1.4246    0.0000 C   0  0  0  0  0  0  0  0  0  0  0  0
   11.2269    2.1279    0.0000 C   0  0  0  0  0  0  0  0  0  0  0  0
    7.7671   -0.9003    0.0000 C   0  0  0  0  0  0  0  0  0  0  0  0
    5.9670   -0.9003    0.0000 C   0  0  0  0  0  0  0  0  0  0  0  0
    7.7551    0.1413    0.0000 C   0  0  0  0  0  0  0  0  0  0  0  0
   10.3589    1.6313    0.0000 C   0  0  0  0  0  0  0  0  0  0  0  0
    6.8910    0.6446    0.0000 C   0  0  0  0  0  0  0  0  0  0  0  0
    9.4948    2.1346    0.0000 C   0  0  0  0  0  0  0  0  0  0  0  0
   11.2307    3.1279    0.0000 C   0  0  0  0  0  0  0  0  0  0  0  0
    5.9790    0.1413    0.0000 C   0  0  0  0  0  0  0  0  0  0  0  0
    8.6269    1.6380    0.0000 C   0  0  0  0  0  0  0  0  0  0  0  0
    6.8948    1.6446    0.0000 C   0  0  0  0  0  0  0  0  0  0  0  0
    9.4987    3.1346    0.0000 C   0  0  0  0  0  0  0  0  0  0  0  0
   10.3666    3.6313    0.0000 C   0  0  0  0  0  0  0  0  0  0  0  0
    7.7628    2.1413    0.0000 C   0  0  0  0  0  0  0  0  0  0  0  0
    5.6720   -4.7345    0.0000 H   0  0  0  0  0  0  0  0  0  0  0  0
    4.2690   -4.5446    0.0000 H   0  0  0  0  0  0  0  0  0  0  0  0
    6.5380   -3.6146    0.0000 H   0  0  0  0  0  0  0  0  0  0  0  0
    4.2690   -2.3046    0.0000 H   0  0  0  0  0  0  0  0  0  0  0  0
    6.0010   -2.3046    0.0000 H   0  0  0  0  0  0  0  0  0  0  0  0
   15.2291    2.4225    0.0000 H   0  0  0  0  0  0  0  0  0  0  0  0
   14.6972    3.7346    0.0000 H   0  0  0  0  0  0  0  0  0  0  0  0
   14.3587    1.3058    0.0000 H   0  0  0  0  0  0  0  0  0  0  0  0
   13.2950    3.9300    0.0000 H   0  0  0  0  0  0  0  0  0  0  0  0
   12.4232    2.4333    0.0000 H   0  0  0  0  0  0  0  0  0  0  0  0
    3.8015   -1.9496    0.0000 H   0  0  0  0  0  0  0  0  0  0  0  0
    3.0044   -1.9496    0.0000 H   0  0  0  0  0  0  0  0  0  0  0  0
    4.5981   -5.7345    0.0000 H   0  0  0  0  0  0  0  0  0  0  0  0
    3.4030   -5.0446    0.0000 H   0  0  0  0  0  0  0  0  0  0  0  0
    6.8671   -5.0446    0.0000 H   0  0  0  0  0  0  0  0  0  0  0  0
   15.5526    0.9912    0.0000 H   0  0  0  0  0  0  0  0  0  0  0  0
   16.0985    3.2992    0.0000 H   0  0  0  0  0  0  0  0  0  0  0  0
   13.2810    0.3100    0.0000 H   0  0  0  0  0  0  0  0  0  0  0  0
    2.0000   -2.6146    0.0000 H   0  0  0  0  0  0  0  0  0  0  0  0
    8.3064   -1.2061    0.0000 H   0  0  0  0  0  0  0  0  0  0  0  0
    5.4277   -1.2061    0.0000 H   0  0  0  0  0  0  0  0  0  0  0  0
   10.3565    1.0113    0.0000 H   0  0  0  0  0  0  0  0  0  0  0  0
   14.7049    5.7345    0.0000 H   0  0  0  0  0  0  0  0  0  0  0  0
    8.9630    3.4467    0.0000 H   0  0  0  0  0  0  0  0  0  0  0  0
   10.3690    4.2512    0.0000 H   0  0  0  0  0  0  0  0  0  0  0  0
    7.7652    2.7613    0.0000 H   0  0  0  0  0  0  0  0  0  0  0  0
   12.1011    4.2446    0.0000 H   0  0  0  0  0  0  0  0  0  0  0  0
    4.5792    0.3529    0.0000 H   0  0  0  0  0  0  0  0  0  0  0  0
  1 20  1  0  0  0  0
  1 22  1  0  0  0  0
  2 26  1  0  0  0  0
  2 27  1  0  0  0  0
  3 30  1  0  0  0  0
  4 57  1  0  0  0  0
  5 58  1  0  0  0  0
  6 21  1  0  0  0  0
  6 59  1  0  0  0  0
  7 31  1  0  0  0  0
  8 60  1  0  0  0  0
  9 61  1  0  0  0  0
 10 25  1  0  0  0  0
 10 62  1  0  0  0  0
 11 28  1  0  0  0  0
 11 63  1  0  0  0  0
 12 29  1  0  0  0  0
 12 67  1  0  0  0  0
 13 29  2  0  0  0  0
 14 34  1  0  0  0  0
 14 40  1  0  0  0  0
 15 38  1  0  0  0  0
 15 71  1  0  0  0  0
 16 39  1  0  0  0  0
 16 72  1  0  0  0  0
 17 41  2  0  0  0  0
 18  4  1  0  0  0  0
 18 19  1  6  0  0  0
 18 21  1  0  0  0  0
 18 45  1  0  0  0  0
 19  5  1  0  0  0  0
 19 20  1  1  0  0  0
 19 46  1  0  0  0  0
 20 28  1  0  0  0  0
 20 48  1  0  0  0  0
 21 47  1  0  0  0  0
 22  3  1  0  0  0  0
 22 21  1  6  0  0  0
 22 49  1  0  0  0  0
 23  8  1  0  0  0  0
 23 24  1  6  0  0  0
 23 25  1  0  0  0  0
 23 50  1  0  0  0  0
 24  9  1  0  0  0  0
 24 26  1  1  0  0  0
 24 51  1  0  0  0  0
 25 52  1  0  0  0  0
 26 29  1  0  0  0  0
 26 53  1  0  0  0  0
 27  7  1  0  0  0  0
 27 25  1  1  0  0  0
 27 54  1  0  0  0  0
 28 55  1  0  0  0  0
 28 56  1  0  0  0  0
 30 32  1  0  0  0  0
 30 33  2  0  0  0  0
 31 35  1  0  0  0  0
 31 38  2  0  0  0  0
 32 34  2  0  0  0  0
 32 64  1  0  0  0  0
 33 39  1  0  0  0  0
 33 65  1  0  0  0  0
 34 36  1  0  0  0  0
 35 37  2  0  0  0  0
 35 66  1  0  0  0  0
 36 39  2  0  0  0  0
 36 41  1  0  0  0  0
 37 40  1  0  0  0  0
 37 42  1  0  0  0  0
 38 43  1  0  0  0  0
 40 44  2  0  0  0  0
 41 44  1  0  0  0  0
 42 43  2  0  0  0  0
 42 68  1  0  0  0  0
 43 69  1  0  0  0  0
 44 70  1  0  0  0  0
M  END
>  <PUBCHEM_COMPOUND_CID>
44258136

>  <PUBCHEM_COMPOUND_CANONICALIZED>
1

>  <PUBCHEM_CACTVS_COMPLEXITY>
1070

>  <PUBCHEM_CACTVS_HBOND_ACCEPTOR>
17

>  <PUBCHEM_CACTVS_HBOND_DONOR>
10

>  <PUBCHEM_CACTVS_ROTATABLE_BOND>
7

>  <PUBCHEM_CACTVS_SUBSKEYS>
AAADceB4PgAAAAAAAAAAAAAAAAAAAAAAAAA0aIECAAAAAACBQAAAGgAACAAADBSwmAMwDoAABgCIAqDSCAICCAAkIAAIiAFGiMgdNzaGNR6ieWOl4BUPuQfK7LzOIAABCAAIQABAAAIQABCAAAAAAAAAAA==

>  <PUBCHEM_IUPAC_OPENEYE_NAME>
(3S,4S,6S)-3,4,5-trihydroxy-6-[2-hydroxy-5-[5-hydroxy-4-oxo-7-[(2S,4S,5S)-3,4,5-trihydroxy-6-(hydroxymethyl)tetrahydropyran-2-yl]oxy-chromen-2-yl]phenoxy]tetrahydropyran-2-carboxylic acid

>  <PUBCHEM_IUPAC_CAS_NAME>
(3S,4S,6S)-3,4,5-trihydroxy-6-[2-hydroxy-5-[5-hydroxy-4-oxo-7-[[(2S,4S,5S)-3,4,5-trihydroxy-6-(hydroxymethyl)-2-oxanyl]oxy]-1-benzopyran-2-yl]phenoxy]-2-oxanecarboxylic acid

>  <PUBCHEM_IUPAC_NAME>
(3S,4S,6S)-3,4,5-trihydroxy-6-[2-hydroxy-5-[5-hydroxy-4-oxo-7-[(2S,4S,5S)-3,4,5-trihydroxy-6-(hydroxymethyl)oxan-2-yl]oxychromen-2-yl]phenoxy]oxane-2-carboxylic acid

>  <PUBCHEM_IUPAC_SYSTEMATIC_NAME>
(3S,4S,6S)-6-[5-[7-[(2S,4S,5S)-6-(hydroxymethyl)-3,4,5-tris(oxidanyl)oxan-2-yl]oxy-5-oxidanyl-4-oxidanylidene-chromen-2-yl]-2-oxidanyl-phenoxy]-3,4,5-tris(oxidanyl)oxane-2-carboxylic acid

>  <PUBCHEM_IUPAC_TRADITIONAL_NAME>
(3S,4S,6S)-3,4,5-trihydroxy-6-[2-hydroxy-5-[5-hydroxy-4-keto-7-[(2S,4S,5S)-3,4,5-trihydroxy-6-methylol-tetrahydropyran-2-yl]oxy-chromen-2-yl]phenoxy]tetrahydropyran-2-carboxylic acid

>  <PUBCHEM_IUPAC_INCHI>
InChI=1S/C27H28O17/c28-7-16-18(32)19(33)22(36)26(43-16)40-9-4-11(30)17-12(31)6-13(41-15(17)5-9)8-1-2-10(29)14(3-8)42-27-23(37)20(34)21(35)24(44-27)25(38)39/h1-6,16,18-24,26-30,32-37H,7H2,(H,38,39)/t16?,18-,19+,20+,21+,22?,23?,24?,26-,27-/m1/s1

>  <PUBCHEM_IUPAC_INCHIKEY>
XSWBHFPDOTXBBV-ZXJFBCABSA-N

>  <PUBCHEM_XLOGP3_AA>
-1.1

>  <PUBCHEM_EXACT_MASS>
624.133

>  <PUBCHEM_MOLECULAR_FORMULA>
C27H28O17

>  <PUBCHEM_MOLECULAR_WEIGHT>
624.504

>  <PUBCHEM_OPENEYE_CAN_SMILES>
C1=CC(=C(C=C1C2=CC(=O)C3=C(C=C(C=C3O2)OC4C(C(C(C(O4)CO)O)O)O)O)OC5C(C(C(C(O5)C(=O)O)O)O)O)O

>  <PUBCHEM_OPENEYE_ISO_SMILES>
C1=CC(=C(C=C1C2=CC(=O)C3=C(C=C(C=C3O2)O[C@H]4C([C@H]([C@@H](C(O4)CO)O)O)O)O)O[C@H]5C([C@H]([C@@H](C(O5)C(=O)O)O)O)O)O

>  <PUBCHEM_CACTVS_TPSA>
283

>  <PUBCHEM_MONOISOTOPIC_WEIGHT>
624.133

>  <PUBCHEM_TOTAL_CHARGE>
0

>  <PUBCHEM_HEAVY_ATOM_COUNT>
44

>  <PUBCHEM_ATOM_DEF_STEREO_COUNT>
6

>  <PUBCHEM_ATOM_UDEF_STEREO_COUNT>
4

>  <PUBCHEM_BOND_DEF_STEREO_COUNT>
0

>  <PUBCHEM_BOND_UDEF_STEREO_COUNT>
0

>  <PUBCHEM_ISOTOPIC_ATOM_COUNT>
0

>  <PUBCHEM_COMPONENT_COUNT>
1

>  <PUBCHEM_CACTVS_TAUTO_COUNT>
29

>  <PUBCHEM_COORDINATE_TYPE>
1
5
255

>  <PUBCHEM_BONDANNOTATIONS>
25  10  3
14  34  8
14  40  8
20  28  3
26  29  3
22  3  5
30  32  8
30  33  8
31  35  8
31  38  8
32  34  8
33  39  8
34  36  8
35  37  8
36  39  8
36  41  8
37  42  8
38  43  8
18  4  5
40  44  8
41  44  8
42  43  8
19  5  6
21  6  3
27  7  6
23  8  6
24  9  5

$$$$
