44258718
 OpenBabel06101807152D

 47 49  0  0  0  0  0  0  0  0999 V2000
    6.3981   -0.5223    0.0000 O   0  0  0  0  0  0  0  0  0  0  0  0
    8.1301    1.4777    0.0000 O   0  0  0  0  0  0  0  0  0  0  0  0
    4.6497    2.5123    0.0000 O   0  0  0  0  0  0  0  0  0  0  0  0
    7.2641   -2.0223    0.0000 O   0  0  0  0  0  0  0  0  0  0  0  0
    8.9962    0.9777    0.0000 O   0  0  0  0  0  0  0  0  0  0  0  0
    2.8680   -0.5464    0.0000 O   0  0  0  0  0  0  0  0  0  0  0  0
    6.3981    2.4777    0.0000 O   0  0  0  0  0  0  0  0  0  0  0  0
    5.5320    0.9777    0.0000 C   0  0  0  0  0  0  0  0  0  0  0  0
    7.2641   -0.0223    0.0000 C   0  0  0  0  0  0  0  0  0  0  0  0
    5.5320   -0.0223    0.0000 C   0  0  0  0  0  0  0  0  0  0  0  0
    8.1301   -0.5223    0.0000 C   0  0  0  0  0  0  0  0  0  0  0  0
    7.2641    0.9777    0.0000 C   0  0  0  0  0  0  0  0  0  0  0  0
    6.3981    1.4777    0.0000 C   0  0  0  0  0  0  0  0  0  0  0  0
    4.6381    1.5124    0.0000 C   0  0  0  0  0  0  0  0  0  0  0  0
    4.6381   -0.5569    0.0000 C   0  0  0  0  0  0  0  0  0  0  0  0
    8.1301   -1.5223    0.0000 C   0  0  0  0  0  0  0  0  0  0  0  0
    8.9962   -0.0223    0.0000 C   0  0  0  0  0  0  0  0  0  0  0  0
    3.7320   -0.0431    0.0000 C   0  0  0  0  0  0  0  0  0  0  0  0
    3.7320    0.9985    0.0000 C   0  0  0  0  0  0  0  0  0  0  0  0
    8.9962   -2.0223    0.0000 C   0  0  0  0  0  0  0  0  0  0  0  0
    9.8622   -0.5223    0.0000 C   0  0  0  0  0  0  0  0  0  0  0  0
    9.8622   -1.5223    0.0000 C   0  0  0  0  0  0  0  0  0  0  0  0
    8.1301    2.4777    0.0000 C   0  0  0  0  0  0  0  0  0  0  0  0
    3.7895    3.0223    0.0000 C   0  0  0  0  0  0  0  0  0  0  0  0
    7.2641   -3.0223    0.0000 C   0  0  0  0  0  0  0  0  0  0  0  0
    9.8622    1.4777    0.0000 C   0  0  0  0  0  0  0  0  0  0  0  0
    2.0000   -0.0498    0.0000 C   0  0  0  0  0  0  0  0  0  0  0  0
    4.6453   -1.1769    0.0000 H   0  0  0  0  0  0  0  0  0  0  0  0
    3.1963    1.3106    0.0000 H   0  0  0  0  0  0  0  0  0  0  0  0
    8.9962   -2.6423    0.0000 H   0  0  0  0  0  0  0  0  0  0  0  0
   10.3991   -0.2123    0.0000 H   0  0  0  0  0  0  0  0  0  0  0  0
   10.3991   -1.8323    0.0000 H   0  0  0  0  0  0  0  0  0  0  0  0
    8.7501    2.4777    0.0000 H   0  0  0  0  0  0  0  0  0  0  0  0
    8.1301    3.0977    0.0000 H   0  0  0  0  0  0  0  0  0  0  0  0
    7.5101    2.4777    0.0000 H   0  0  0  0  0  0  0  0  0  0  0  0
    4.1057    3.5556    0.0000 H   0  0  0  0  0  0  0  0  0  0  0  0
    3.2562    3.3385    0.0000 H   0  0  0  0  0  0  0  0  0  0  0  0
    3.4733    2.4890    0.0000 H   0  0  0  0  0  0  0  0  0  0  0  0
    6.6441   -3.0223    0.0000 H   0  0  0  0  0  0  0  0  0  0  0  0
    7.2641   -3.6423    0.0000 H   0  0  0  0  0  0  0  0  0  0  0  0
    7.8841   -3.0223    0.0000 H   0  0  0  0  0  0  0  0  0  0  0  0
   10.1722    0.9408    0.0000 H   0  0  0  0  0  0  0  0  0  0  0  0
   10.3991    1.7877    0.0000 H   0  0  0  0  0  0  0  0  0  0  0  0
    9.5522    2.0146    0.0000 H   0  0  0  0  0  0  0  0  0  0  0  0
    2.3079    0.4883    0.0000 H   0  0  0  0  0  0  0  0  0  0  0  0
    1.4619    0.2581    0.0000 H   0  0  0  0  0  0  0  0  0  0  0  0
    1.6921   -0.5879    0.0000 H   0  0  0  0  0  0  0  0  0  0  0  0
  1  9  1  0  0  0  0
  1 10  1  0  0  0  0
  2 12  1  0  0  0  0
  2 23  1  0  0  0  0
  3 14  1  0  0  0  0
  3 24  1  0  0  0  0
  4 16  1  0  0  0  0
  4 25  1  0  0  0  0
  5 17  1  0  0  0  0
  5 26  1  0  0  0  0
  6 18  1  0  0  0  0
  6 27  1  0  0  0  0
  7 13  2  0  0  0  0
  8 10  2  0  0  0  0
  8 13  1  0  0  0  0
  8 14  1  0  0  0  0
  9 11  1  0  0  0  0
  9 12  2  0  0  0  0
 10 15  1  0  0  0  0
 11 16  2  0  0  0  0
 11 17  1  0  0  0  0
 12 13  1  0  0  0  0
 14 19  2  0  0  0  0
 15 18  2  0  0  0  0
 15 28  1  0  0  0  0
 16 20  1  0  0  0  0
 17 21  2  0  0  0  0
 18 19  1  0  0  0  0
 19 29  1  0  0  0  0
 20 22  2  0  0  0  0
 20 30  1  0  0  0  0
 21 22  1  0  0  0  0
 21 31  1  0  0  0  0
 22 32  1  0  0  0  0
 23 33  1  0  0  0  0
 23 34  1  0  0  0  0
 23 35  1  0  0  0  0
 24 36  1  0  0  0  0
 24 37  1  0  0  0  0
 24 38  1  0  0  0  0
 25 39  1  0  0  0  0
 25 40  1  0  0  0  0
 25 41  1  0  0  0  0
 26 42  1  0  0  0  0
 26 43  1  0  0  0  0
 26 44  1  0  0  0  0
 27 45  1  0  0  0  0
 27 46  1  0  0  0  0
 27 47  1  0  0  0  0
M  END
>  <PUBCHEM_COMPOUND_CID>
44258718

>  <PUBCHEM_COMPOUND_CANONICALIZED>
1

>  <PUBCHEM_CACTVS_COMPLEXITY>
549

>  <PUBCHEM_CACTVS_HBOND_ACCEPTOR>
7

>  <PUBCHEM_CACTVS_HBOND_DONOR>
0

>  <PUBCHEM_CACTVS_ROTATABLE_BOND>
6

>  <PUBCHEM_CACTVS_SUBSKEYS>
AAADceB4OAAAAAAAAAAAAAAAAAAAAAAAAAAwYIAAAAAAAACBQAAAGgAAAAAADASAmAIyBoAABACIAqBSAAICCAAkIAAIiAFGCMgMJzaENR6COWCl4BUIqQfI7KzOIAAACAAIAABAAAAQABAAAAAAAAAAAA==

>  <PUBCHEM_IUPAC_OPENEYE_NAME>
2-(2,6-dimethoxyphenyl)-3,5,7-trimethoxy-chromen-4-one

>  <PUBCHEM_IUPAC_CAS_NAME>
2-(2,6-dimethoxyphenyl)-3,5,7-trimethoxy-1-benzopyran-4-one

>  <PUBCHEM_IUPAC_NAME>
2-(2,6-dimethoxyphenyl)-3,5,7-trimethoxychromen-4-one

>  <PUBCHEM_IUPAC_SYSTEMATIC_NAME>
2-(2,6-dimethoxyphenyl)-3,5,7-trimethoxy-chromen-4-one

>  <PUBCHEM_IUPAC_TRADITIONAL_NAME>
2-(2,6-dimethoxyphenyl)-3,5,7-trimethoxy-chromone

>  <PUBCHEM_IUPAC_INCHI>
InChI=1S/C20H20O7/c1-22-11-9-14(25-4)16-15(10-11)27-19(20(26-5)18(16)21)17-12(23-2)7-6-8-13(17)24-3/h6-10H,1-5H3

>  <PUBCHEM_IUPAC_INCHIKEY>
YQBOTPMLBHBJTK-UHFFFAOYSA-N

>  <PUBCHEM_XLOGP3_AA>
3.2

>  <PUBCHEM_EXACT_MASS>
372.121

>  <PUBCHEM_MOLECULAR_FORMULA>
C20H20O7

>  <PUBCHEM_MOLECULAR_WEIGHT>
372.373

>  <PUBCHEM_OPENEYE_CAN_SMILES>
COC1=C(C(=CC=C1)OC)C2=C(C(=O)C3=C(C=C(C=C3O2)OC)OC)OC

>  <PUBCHEM_OPENEYE_ISO_SMILES>
COC1=C(C(=CC=C1)OC)C2=C(C(=O)C3=C(C=C(C=C3O2)OC)OC)OC

>  <PUBCHEM_CACTVS_TPSA>
72.4

>  <PUBCHEM_MONOISOTOPIC_WEIGHT>
372.121

>  <PUBCHEM_TOTAL_CHARGE>
0

>  <PUBCHEM_HEAVY_ATOM_COUNT>
27

>  <PUBCHEM_ATOM_DEF_STEREO_COUNT>
0

>  <PUBCHEM_ATOM_UDEF_STEREO_COUNT>
0

>  <PUBCHEM_BOND_DEF_STEREO_COUNT>
0

>  <PUBCHEM_BOND_UDEF_STEREO_COUNT>
0

>  <PUBCHEM_ISOTOPIC_ATOM_COUNT>
0

>  <PUBCHEM_COMPONENT_COUNT>
1

>  <PUBCHEM_CACTVS_TAUTO_COUNT>
1

>  <PUBCHEM_COORDINATE_TYPE>
1
5
255

>  <PUBCHEM_BONDANNOTATIONS>
1  10  8
1  9  8
10  15  8
11  16  8
11  17  8
12  13  8
14  19  8
15  18  8
16  20  8
17  21  8
18  19  8
20  22  8
21  22  8
8  10  8
8  13  8
8  14  8
9  12  8

$$$$
