44257524
 OpenBabel06101807152D

 35 37  0  0  0  0  0  0  0  0999 V2000
    6.0682   -2.3877    0.0000 O   0  0  0  0  0  0  0  0  0  0  0  0
    6.9343    1.1123    0.0000 O   0  0  0  0  0  0  0  0  0  0  0  0
   10.3984    1.1123    0.0000 O   0  0  0  0  0  0  0  0  0  0  0  0
    8.6663    2.1123    0.0000 O   0  0  0  0  0  0  0  0  0  0  0  0
    2.5381   -2.4118    0.0000 O   0  0  0  0  0  0  0  0  0  0  0  0
    6.9343   -0.8877    0.0000 C   0  0  0  0  0  0  0  0  0  0  0  0
    6.9343   -1.8877    0.0000 C   0  0  0  0  0  0  0  0  0  0  0  0
    7.8003   -0.3877    0.0000 C   0  0  0  0  0  0  0  0  0  0  0  0
    5.2022   -0.8877    0.0000 C   0  0  0  0  0  0  0  0  0  0  0  0
    6.0682   -0.3877    0.0000 C   0  0  0  0  0  0  0  0  0  0  0  0
    5.2022   -1.8877    0.0000 C   0  0  0  0  0  0  0  0  0  0  0  0
    7.8003    0.6123    0.0000 C   0  0  0  0  0  0  0  0  0  0  0  0
    8.6663   -0.8877    0.0000 C   0  0  0  0  0  0  0  0  0  0  0  0
    4.3083   -0.3530    0.0000 C   0  0  0  0  0  0  0  0  0  0  0  0
    4.3083   -2.4223    0.0000 C   0  0  0  0  0  0  0  0  0  0  0  0
    8.6663    1.1123    0.0000 C   0  0  0  0  0  0  0  0  0  0  0  0
    9.5323   -0.3877    0.0000 C   0  0  0  0  0  0  0  0  0  0  0  0
    9.5323    0.6123    0.0000 C   0  0  0  0  0  0  0  0  0  0  0  0
    3.4022   -1.9085    0.0000 C   0  0  0  0  0  0  0  0  0  0  0  0
    3.4022   -0.8669    0.0000 C   0  0  0  0  0  0  0  0  0  0  0  0
   11.2644    0.6123    0.0000 C   0  0  0  0  0  0  0  0  0  0  0  0
    7.1463   -2.4703    0.0000 H   0  0  0  0  0  0  0  0  0  0  0  0
    7.5449   -1.7800    0.0000 H   0  0  0  0  0  0  0  0  0  0  0  0
    6.0682    0.2323    0.0000 H   0  0  0  0  0  0  0  0  0  0  0  0
    8.6663   -1.5077    0.0000 H   0  0  0  0  0  0  0  0  0  0  0  0
    4.3154    0.2670    0.0000 H   0  0  0  0  0  0  0  0  0  0  0  0
    4.3154   -3.0423    0.0000 H   0  0  0  0  0  0  0  0  0  0  0  0
   10.0693   -0.6977    0.0000 H   0  0  0  0  0  0  0  0  0  0  0  0
    2.8665   -0.5548    0.0000 H   0  0  0  0  0  0  0  0  0  0  0  0
    6.9343    1.7323    0.0000 H   0  0  0  0  0  0  0  0  0  0  0  0
    9.2033    2.4223    0.0000 H   0  0  0  0  0  0  0  0  0  0  0  0
    2.0000   -2.1039    0.0000 H   0  0  0  0  0  0  0  0  0  0  0  0
   10.9544    0.0754    0.0000 H   0  0  0  0  0  0  0  0  0  0  0  0
   11.8013    0.3023    0.0000 H   0  0  0  0  0  0  0  0  0  0  0  0
   11.5744    1.1493    0.0000 H   0  0  0  0  0  0  0  0  0  0  0  0
  1  7  1  0  0  0  0
  1 11  1  0  0  0  0
  2 12  1  0  0  0  0
  2 30  1  0  0  0  0
  3 18  1  0  0  0  0
  3 21  1  0  0  0  0
  4 16  1  0  0  0  0
  4 31  1  0  0  0  0
  5 19  1  0  0  0  0
  5 32  1  0  0  0  0
  6  7  1  0  0  0  0
  6  8  1  0  0  0  0
  6 10  2  0  0  0  0
  7 22  1  0  0  0  0
  7 23  1  0  0  0  0
  8 12  2  0  0  0  0
  8 13  1  0  0  0  0
  9 10  1  0  0  0  0
  9 11  2  0  0  0  0
  9 14  1  0  0  0  0
 10 24  1  0  0  0  0
 11 15  1  0  0  0  0
 12 16  1  0  0  0  0
 13 17  2  0  0  0  0
 13 25  1  0  0  0  0
 14 20  2  0  0  0  0
 14 26  1  0  0  0  0
 15 19  2  0  0  0  0
 15 27  1  0  0  0  0
 16 18  2  0  0  0  0
 17 18  1  0  0  0  0
 17 28  1  0  0  0  0
 19 20  1  0  0  0  0
 20 29  1  0  0  0  0
 21 33  1  0  0  0  0
 21 34  1  0  0  0  0
 21 35  1  0  0  0  0
M  END
>  <PUBCHEM_COMPOUND_CID>
44257524

>  <PUBCHEM_COMPOUND_CANONICALIZED>
1

>  <PUBCHEM_CACTVS_COMPLEXITY>
396

>  <PUBCHEM_CACTVS_HBOND_ACCEPTOR>
5

>  <PUBCHEM_CACTVS_HBOND_DONOR>
3

>  <PUBCHEM_CACTVS_ROTATABLE_BOND>
2

>  <PUBCHEM_CACTVS_SUBSKEYS>
AAADccB4OAAAAAAAAAAAAAAAAAAAAAAAAAAwYIAAAAAAAACBQAAAGgAACAAADASgmAIyBoAABgCAAiBCAAACCAAgIAAIiAAGiIgNJyKGMRqCeCOlwBULuAfA4LwOIAABCAAIQABAAAIQABCAAAAAAAAAAA==

>  <PUBCHEM_IUPAC_OPENEYE_NAME>
3-(7-hydroxy-2H-chromen-3-yl)-6-methoxy-benzene-1,2-diol

>  <PUBCHEM_IUPAC_CAS_NAME>
3-(7-hydroxy-2H-1-benzopyran-3-yl)-6-methoxybenzene-1,2-diol

>  <PUBCHEM_IUPAC_NAME>
3-(7-hydroxy-2H-chromen-3-yl)-6-methoxybenzene-1,2-diol

>  <PUBCHEM_IUPAC_SYSTEMATIC_NAME>
3-methoxy-6-(7-oxidanyl-2H-chromen-3-yl)benzene-1,2-diol

>  <PUBCHEM_IUPAC_TRADITIONAL_NAME>
3-(7-hydroxy-2H-chromen-3-yl)-6-methoxy-pyrocatechol

>  <PUBCHEM_IUPAC_INCHI>
InChI=1S/C16H14O5/c1-20-13-5-4-12(15(18)16(13)19)10-6-9-2-3-11(17)7-14(9)21-8-10/h2-7,17-19H,8H2,1H3

>  <PUBCHEM_IUPAC_INCHIKEY>
XUHWJLMOAFPKEV-UHFFFAOYSA-N

>  <PUBCHEM_XLOGP3_AA>
2.3

>  <PUBCHEM_EXACT_MASS>
286.084

>  <PUBCHEM_MOLECULAR_FORMULA>
C16H14O5

>  <PUBCHEM_MOLECULAR_WEIGHT>
286.283

>  <PUBCHEM_OPENEYE_CAN_SMILES>
COC1=C(C(=C(C=C1)C2=CC3=C(C=C(C=C3)O)OC2)O)O

>  <PUBCHEM_OPENEYE_ISO_SMILES>
COC1=C(C(=C(C=C1)C2=CC3=C(C=C(C=C3)O)OC2)O)O

>  <PUBCHEM_CACTVS_TPSA>
79.2

>  <PUBCHEM_MONOISOTOPIC_WEIGHT>
286.084

>  <PUBCHEM_TOTAL_CHARGE>
0

>  <PUBCHEM_HEAVY_ATOM_COUNT>
21

>  <PUBCHEM_ATOM_DEF_STEREO_COUNT>
0

>  <PUBCHEM_ATOM_UDEF_STEREO_COUNT>
0

>  <PUBCHEM_BOND_DEF_STEREO_COUNT>
0

>  <PUBCHEM_BOND_UDEF_STEREO_COUNT>
0

>  <PUBCHEM_ISOTOPIC_ATOM_COUNT>
0

>  <PUBCHEM_COMPONENT_COUNT>
1

>  <PUBCHEM_CACTVS_TAUTO_COUNT>
84

>  <PUBCHEM_COORDINATE_TYPE>
1
5
255

>  <PUBCHEM_BONDANNOTATIONS>
11  15  8
12  16  8
13  17  8
14  20  8
15  19  8
16  18  8
17  18  8
19  20  8
8  12  8
8  13  8
9  11  8
9  14  8

$$$$
