44259770
 OpenBabel06101807152D

 38 40  0  0  0  0  0  0  0  0999 V2000
    6.3981   -0.7123    0.0000 O   0  0  0  0  0  0  0  0  0  0  0  0
    4.6497    2.3223    0.0000 O   0  0  0  0  0  0  0  0  0  0  0  0
    2.8680    1.3119    0.0000 O   0  0  0  0  0  0  0  0  0  0  0  0
    8.1301    1.2877    0.0000 O   0  0  0  0  0  0  0  0  0  0  0  0
    2.8680   -0.7364    0.0000 O   0  0  0  0  0  0  0  0  0  0  0  0
    6.3981    2.2877    0.0000 O   0  0  0  0  0  0  0  0  0  0  0  0
   10.7282   -2.2123    0.0000 O   0  0  0  0  0  0  0  0  0  0  0  0
    5.5320    0.7877    0.0000 C   0  0  0  0  0  0  0  0  0  0  0  0
    5.5320   -0.2123    0.0000 C   0  0  0  0  0  0  0  0  0  0  0  0
    4.6381    1.3224    0.0000 C   0  0  0  0  0  0  0  0  0  0  0  0
    7.2641   -0.2123    0.0000 C   0  0  0  0  0  0  0  0  0  0  0  0
    6.3981    1.2877    0.0000 C   0  0  0  0  0  0  0  0  0  0  0  0
    7.2641    0.7877    0.0000 C   0  0  0  0  0  0  0  0  0  0  0  0
    3.7320    0.8085    0.0000 C   0  0  0  0  0  0  0  0  0  0  0  0
    4.6381   -0.7469    0.0000 C   0  0  0  0  0  0  0  0  0  0  0  0
    8.1301   -0.7123    0.0000 C   0  0  0  0  0  0  0  0  0  0  0  0
    3.7320   -0.2331    0.0000 C   0  0  0  0  0  0  0  0  0  0  0  0
    8.1301   -1.7123    0.0000 C   0  0  0  0  0  0  0  0  0  0  0  0
    8.9962   -0.2123    0.0000 C   0  0  0  0  0  0  0  0  0  0  0  0
    8.9962   -2.2123    0.0000 C   0  0  0  0  0  0  0  0  0  0  0  0
    9.8622   -0.7123    0.0000 C   0  0  0  0  0  0  0  0  0  0  0  0
    9.8622   -1.7123    0.0000 C   0  0  0  0  0  0  0  0  0  0  0  0
    3.7895    2.8323    0.0000 C   0  0  0  0  0  0  0  0  0  0  0  0
    2.0000    0.8152    0.0000 C   0  0  0  0  0  0  0  0  0  0  0  0
    4.6453   -1.3669    0.0000 H   0  0  0  0  0  0  0  0  0  0  0  0
    7.5932   -2.0223    0.0000 H   0  0  0  0  0  0  0  0  0  0  0  0
    8.9962    0.4077    0.0000 H   0  0  0  0  0  0  0  0  0  0  0  0
    8.9962   -2.8323    0.0000 H   0  0  0  0  0  0  0  0  0  0  0  0
   10.3991   -0.4023    0.0000 H   0  0  0  0  0  0  0  0  0  0  0  0
    8.1301    1.9077    0.0000 H   0  0  0  0  0  0  0  0  0  0  0  0
    2.8703   -1.3564    0.0000 H   0  0  0  0  0  0  0  0  0  0  0  0
    4.1057    3.3656    0.0000 H   0  0  0  0  0  0  0  0  0  0  0  0
    3.2562    3.1485    0.0000 H   0  0  0  0  0  0  0  0  0  0  0  0
    3.4733    2.2990    0.0000 H   0  0  0  0  0  0  0  0  0  0  0  0
    1.6921    1.3533    0.0000 H   0  0  0  0  0  0  0  0  0  0  0  0
    1.4619    0.5073    0.0000 H   0  0  0  0  0  0  0  0  0  0  0  0
    2.3079    0.2771    0.0000 H   0  0  0  0  0  0  0  0  0  0  0  0
   10.7282   -2.8323    0.0000 H   0  0  0  0  0  0  0  0  0  0  0  0
  1  9  1  0  0  0  0
  1 11  1  0  0  0  0
  2 10  1  0  0  0  0
  2 23  1  0  0  0  0
  3 14  1  0  0  0  0
  3 24  1  0  0  0  0
  4 13  1  0  0  0  0
  4 30  1  0  0  0  0
  5 17  1  0  0  0  0
  5 31  1  0  0  0  0
  6 12  2  0  0  0  0
  7 22  1  0  0  0  0
  7 38  1  0  0  0  0
  8  9  2  0  0  0  0
  8 10  1  0  0  0  0
  8 12  1  0  0  0  0
  9 15  1  0  0  0  0
 10 14  2  0  0  0  0
 11 13  2  0  0  0  0
 11 16  1  0  0  0  0
 12 13  1  0  0  0  0
 14 17  1  0  0  0  0
 15 17  2  0  0  0  0
 15 25  1  0  0  0  0
 16 18  2  0  0  0  0
 16 19  1  0  0  0  0
 18 20  1  0  0  0  0
 18 26  1  0  0  0  0
 19 21  2  0  0  0  0
 19 27  1  0  0  0  0
 20 22  2  0  0  0  0
 20 28  1  0  0  0  0
 21 22  1  0  0  0  0
 21 29  1  0  0  0  0
 23 32  1  0  0  0  0
 23 33  1  0  0  0  0
 23 34  1  0  0  0  0
 24 35  1  0  0  0  0
 24 36  1  0  0  0  0
 24 37  1  0  0  0  0
M  END
>  <PUBCHEM_COMPOUND_CID>
44259770

>  <PUBCHEM_COMPOUND_CANONICALIZED>
1

>  <PUBCHEM_CACTVS_COMPLEXITY>
509

>  <PUBCHEM_CACTVS_HBOND_ACCEPTOR>
7

>  <PUBCHEM_CACTVS_HBOND_DONOR>
3

>  <PUBCHEM_CACTVS_ROTATABLE_BOND>
3

>  <PUBCHEM_CACTVS_SUBSKEYS>
AAADccB4OAAAAAAAAAAAAAAAAAAAAAAAAAAwYIAAAAAAAACBQAAAGgAACAAADASAmAIyBoAABgCIAqBSAAICCAAkIAAIiAFGiMgNJzaGNRqCeWOl4BULuQfK7LzOIQABCAAIQABCAAIQABCAAAAAAAAAAA==

>  <PUBCHEM_IUPAC_OPENEYE_NAME>
3,7-dihydroxy-2-(4-hydroxyphenyl)-5,6-dimethoxy-chromen-4-one

>  <PUBCHEM_IUPAC_CAS_NAME>
3,7-dihydroxy-2-(4-hydroxyphenyl)-5,6-dimethoxy-1-benzopyran-4-one

>  <PUBCHEM_IUPAC_NAME>
3,7-dihydroxy-2-(4-hydroxyphenyl)-5,6-dimethoxychromen-4-one

>  <PUBCHEM_IUPAC_SYSTEMATIC_NAME>
2-(4-hydroxyphenyl)-5,6-dimethoxy-3,7-bis(oxidanyl)chromen-4-one

>  <PUBCHEM_IUPAC_TRADITIONAL_NAME>
3,7-dihydroxy-2-(4-hydroxyphenyl)-5,6-dimethoxy-chromone

>  <PUBCHEM_IUPAC_INCHI>
InChI=1S/C17H14O7/c1-22-16-10(19)7-11-12(17(16)23-2)13(20)14(21)15(24-11)8-3-5-9(18)6-4-8/h3-7,18-19,21H,1-2H3

>  <PUBCHEM_IUPAC_INCHIKEY>
AFEOHOFUAGTTRM-UHFFFAOYSA-N

>  <PUBCHEM_XLOGP3_AA>
2.3

>  <PUBCHEM_EXACT_MASS>
330.074

>  <PUBCHEM_MOLECULAR_FORMULA>
C17H14O7

>  <PUBCHEM_MOLECULAR_WEIGHT>
330.292

>  <PUBCHEM_OPENEYE_CAN_SMILES>
COC1=C(C=C2C(=C1OC)C(=O)C(=C(O2)C3=CC=C(C=C3)O)O)O

>  <PUBCHEM_OPENEYE_ISO_SMILES>
COC1=C(C=C2C(=C1OC)C(=O)C(=C(O2)C3=CC=C(C=C3)O)O)O

>  <PUBCHEM_CACTVS_TPSA>
105

>  <PUBCHEM_MONOISOTOPIC_WEIGHT>
330.074

>  <PUBCHEM_TOTAL_CHARGE>
0

>  <PUBCHEM_HEAVY_ATOM_COUNT>
24

>  <PUBCHEM_ATOM_DEF_STEREO_COUNT>
0

>  <PUBCHEM_ATOM_UDEF_STEREO_COUNT>
0

>  <PUBCHEM_BOND_DEF_STEREO_COUNT>
0

>  <PUBCHEM_BOND_UDEF_STEREO_COUNT>
0

>  <PUBCHEM_ISOTOPIC_ATOM_COUNT>
0

>  <PUBCHEM_COMPONENT_COUNT>
1

>  <PUBCHEM_CACTVS_TAUTO_COUNT>
53

>  <PUBCHEM_COORDINATE_TYPE>
1
5
255

>  <PUBCHEM_BONDANNOTATIONS>
1  11  8
1  9  8
10  14  8
11  13  8
12  13  8
14  17  8
15  17  8
16  18  8
16  19  8
18  20  8
19  21  8
20  22  8
21  22  8
8  10  8
8  12  8
8  9  8
9  15  8

$$$$
