44257227
 OpenBabel06101807152D

 31 33  0  0  0  0  0  0  0  0999 V2000
    6.0682   -2.0427    0.0000 O   0  0  0  0  0  0  0  0  0  0  0  0
    6.0682    0.9573    0.0000 O   0  0  0  0  0  0  0  0  0  0  0  0
    2.5381   -2.0668    0.0000 O   0  0  0  0  0  0  0  0  0  0  0  0
   10.3984    1.4573    0.0000 O   0  0  0  0  0  0  0  0  0  0  0  0
   10.3984   -1.5427    0.0000 O   0  0  0  0  0  0  0  0  0  0  0  0
    6.9343   -0.5427    0.0000 C   0  0  0  0  0  0  0  0  0  0  0  0
    5.2022   -0.5427    0.0000 C   0  0  0  0  0  0  0  0  0  0  0  0
    7.8003   -0.0427    0.0000 C   0  0  0  0  0  0  0  0  0  0  0  0
    6.0682   -0.0427    0.0000 C   0  0  0  0  0  0  0  0  0  0  0  0
    5.2022   -1.5427    0.0000 C   0  0  0  0  0  0  0  0  0  0  0  0
    6.9343   -1.5427    0.0000 C   0  0  0  0  0  0  0  0  0  0  0  0
    8.6663   -0.5427    0.0000 C   0  0  0  0  0  0  0  0  0  0  0  0
    4.3083   -0.0080    0.0000 C   0  0  0  0  0  0  0  0  0  0  0  0
    7.8003    0.9573    0.0000 C   0  0  0  0  0  0  0  0  0  0  0  0
    4.3083   -2.0773    0.0000 C   0  0  0  0  0  0  0  0  0  0  0  0
    9.5323   -0.0427    0.0000 C   0  0  0  0  0  0  0  0  0  0  0  0
    3.4022   -1.5635    0.0000 C   0  0  0  0  0  0  0  0  0  0  0  0
    3.4022   -0.5219    0.0000 C   0  0  0  0  0  0  0  0  0  0  0  0
    8.6663    1.4573    0.0000 C   0  0  0  0  0  0  0  0  0  0  0  0
    9.5323    0.9573    0.0000 C   0  0  0  0  0  0  0  0  0  0  0  0
   10.3984   -0.5427    0.0000 C   0  0  0  0  0  0  0  0  0  0  0  0
    7.4712   -1.8527    0.0000 H   0  0  0  0  0  0  0  0  0  0  0  0
    8.6663   -1.1627    0.0000 H   0  0  0  0  0  0  0  0  0  0  0  0
    4.3154    0.6120    0.0000 H   0  0  0  0  0  0  0  0  0  0  0  0
    7.2634    1.2673    0.0000 H   0  0  0  0  0  0  0  0  0  0  0  0
    4.3154   -2.6973    0.0000 H   0  0  0  0  0  0  0  0  0  0  0  0
    2.8665   -0.2098    0.0000 H   0  0  0  0  0  0  0  0  0  0  0  0
    8.6663    2.0773    0.0000 H   0  0  0  0  0  0  0  0  0  0  0  0
   10.9353   -0.2327    0.0000 H   0  0  0  0  0  0  0  0  0  0  0  0
    2.0000   -1.7589    0.0000 H   0  0  0  0  0  0  0  0  0  0  0  0
   10.3984    2.0773    0.0000 H   0  0  0  0  0  0  0  0  0  0  0  0
  1 10  1  0  0  0  0
  1 11  1  0  0  0  0
  2  9  2  0  0  0  0
  3 17  1  0  0  0  0
  3 30  1  0  0  0  0
  4 20  1  0  0  0  0
  4 31  1  0  0  0  0
  5 21  2  0  0  0  0
  6  8  1  0  0  0  0
  6  9  1  0  0  0  0
  6 11  2  0  0  0  0
  7  9  1  0  0  0  0
  7 10  2  0  0  0  0
  7 13  1  0  0  0  0
  8 12  2  0  0  0  0
  8 14  1  0  0  0  0
 10 15  1  0  0  0  0
 11 22  1  0  0  0  0
 12 16  1  0  0  0  0
 12 23  1  0  0  0  0
 13 18  2  0  0  0  0
 13 24  1  0  0  0  0
 14 19  2  0  0  0  0
 14 25  1  0  0  0  0
 15 17  2  0  0  0  0
 15 26  1  0  0  0  0
 16 20  2  0  0  0  0
 16 21  1  0  0  0  0
 17 18  1  0  0  0  0
 18 27  1  0  0  0  0
 19 20  1  0  0  0  0
 19 28  1  0  0  0  0
 21 29  1  0  0  0  0
M  END
>  <PUBCHEM_COMPOUND_CID>
44257227

>  <PUBCHEM_COMPOUND_CANONICALIZED>
1

>  <PUBCHEM_CACTVS_COMPLEXITY>
458

>  <PUBCHEM_CACTVS_HBOND_ACCEPTOR>
5

>  <PUBCHEM_CACTVS_HBOND_DONOR>
2

>  <PUBCHEM_CACTVS_ROTATABLE_BOND>
2

>  <PUBCHEM_CACTVS_SUBSKEYS>
AAADccB4OAAAAAAAAAAAAAAAAAAAAAAAAAAwYIAAAAAAAACBQAAAGgAACAAADASgmAIwBoAABgCIAqhSgAACCAAkIAAIiAEGCMgMJzaGNRqAcWAl4BUIuYeI7PzOIAACCAAIAABAAAQQABAAAAAAAAAAAA==

>  <PUBCHEM_IUPAC_OPENEYE_NAME>
2-hydroxy-5-(7-hydroxy-4-oxo-chromen-3-yl)benzaldehyde

>  <PUBCHEM_IUPAC_CAS_NAME>
2-hydroxy-5-(7-hydroxy-4-oxo-1-benzopyran-3-yl)benzaldehyde

>  <PUBCHEM_IUPAC_NAME>
2-hydroxy-5-(7-hydroxy-4-oxochromen-3-yl)benzaldehyde

>  <PUBCHEM_IUPAC_SYSTEMATIC_NAME>
2-oxidanyl-5-(7-oxidanyl-4-oxidanylidene-chromen-3-yl)benzaldehyde

>  <PUBCHEM_IUPAC_TRADITIONAL_NAME>
2-hydroxy-5-(7-hydroxy-4-keto-chromen-3-yl)benzaldehyde

>  <PUBCHEM_IUPAC_INCHI>
InChI=1S/C16H10O5/c17-7-10-5-9(1-4-14(10)19)13-8-21-15-6-11(18)2-3-12(15)16(13)20/h1-8,18-19H

>  <PUBCHEM_IUPAC_INCHIKEY>
RSDJURKESRJBKH-UHFFFAOYSA-N

>  <PUBCHEM_XLOGP3_AA>
2.5

>  <PUBCHEM_EXACT_MASS>
282.053

>  <PUBCHEM_MOLECULAR_FORMULA>
C16H10O5

>  <PUBCHEM_MOLECULAR_WEIGHT>
282.251

>  <PUBCHEM_OPENEYE_CAN_SMILES>
C1=CC(=C(C=C1C2=COC3=C(C2=O)C=CC(=C3)O)C=O)O

>  <PUBCHEM_OPENEYE_ISO_SMILES>
C1=CC(=C(C=C1C2=COC3=C(C2=O)C=CC(=C3)O)C=O)O

>  <PUBCHEM_CACTVS_TPSA>
83.8

>  <PUBCHEM_MONOISOTOPIC_WEIGHT>
282.053

>  <PUBCHEM_TOTAL_CHARGE>
0

>  <PUBCHEM_HEAVY_ATOM_COUNT>
21

>  <PUBCHEM_ATOM_DEF_STEREO_COUNT>
0

>  <PUBCHEM_ATOM_UDEF_STEREO_COUNT>
0

>  <PUBCHEM_BOND_DEF_STEREO_COUNT>
0

>  <PUBCHEM_BOND_UDEF_STEREO_COUNT>
0

>  <PUBCHEM_ISOTOPIC_ATOM_COUNT>
0

>  <PUBCHEM_COMPONENT_COUNT>
1

>  <PUBCHEM_CACTVS_TAUTO_COUNT>
25

>  <PUBCHEM_COORDINATE_TYPE>
1
5
255

>  <PUBCHEM_BONDANNOTATIONS>
1  10  8
1  11  8
10  15  8
12  16  8
13  18  8
14  19  8
15  17  8
16  20  8
17  18  8
19  20  8
6  11  8
6  9  8
7  10  8
7  13  8
7  9  8
8  12  8
8  14  8

$$$$
