44259047
 OpenBabel06101807152D

 47 49  0  0  0  0  0  0  0  0999 V2000
    2.5381    1.9188    0.0000 O   0  0  0  0  0  0  0  0  0  0  0  0
    8.6644   -0.6154    0.0000 O   0  0  0  0  0  0  0  0  0  0  0  0
    6.9160    2.4192    0.0000 O   0  0  0  0  0  0  0  0  0  0  0  0
    5.1343   -0.6395    0.0000 O   0  0  0  0  0  0  0  0  0  0  0  0
    8.6644    2.3846    0.0000 O   0  0  0  0  0  0  0  0  0  0  0  0
   10.3964    1.3846    0.0000 O   0  0  0  0  0  0  0  0  0  0  0  0
   12.9945   -2.1154    0.0000 O   0  0  0  0  0  0  0  0  0  0  0  0
    3.4022    1.4154    0.0000 C   0  0  0  0  0  0  0  0  0  0  0  0
    4.2663    0.9121    0.0000 C   0  0  0  0  0  0  0  0  0  0  0  0
    5.1343    1.4088    0.0000 C   0  0  0  0  0  0  0  0  0  0  0  0
    5.9984    0.9054    0.0000 C   0  0  0  0  0  0  0  0  0  0  0  0
    2.8989    0.5513    0.0000 C   0  0  0  0  0  0  0  0  0  0  0  0
    3.9056    2.2795    0.0000 C   0  0  0  0  0  0  0  0  0  0  0  0
    6.9044    1.4193    0.0000 C   0  0  0  0  0  0  0  0  0  0  0  0
    7.7984    0.8846    0.0000 C   0  0  0  0  0  0  0  0  0  0  0  0
    5.9984   -0.1362    0.0000 C   0  0  0  0  0  0  0  0  0  0  0  0
    7.7984   -0.1154    0.0000 C   0  0  0  0  0  0  0  0  0  0  0  0
    6.9044   -0.6501    0.0000 C   0  0  0  0  0  0  0  0  0  0  0  0
    8.6644    1.3846    0.0000 C   0  0  0  0  0  0  0  0  0  0  0  0
    9.5304   -0.1154    0.0000 C   0  0  0  0  0  0  0  0  0  0  0  0
    9.5304    0.8846    0.0000 C   0  0  0  0  0  0  0  0  0  0  0  0
   10.3964   -0.6154    0.0000 C   0  0  0  0  0  0  0  0  0  0  0  0
   10.3964   -1.6154    0.0000 C   0  0  0  0  0  0  0  0  0  0  0  0
   11.2625   -0.1154    0.0000 C   0  0  0  0  0  0  0  0  0  0  0  0
   11.2625   -2.1154    0.0000 C   0  0  0  0  0  0  0  0  0  0  0  0
   12.1285   -0.6154    0.0000 C   0  0  0  0  0  0  0  0  0  0  0  0
   12.1285   -1.6154    0.0000 C   0  0  0  0  0  0  0  0  0  0  0  0
    3.8660    0.4387    0.0000 H   0  0  0  0  0  0  0  0  0  0  0  0
    4.6630    0.4356    0.0000 H   0  0  0  0  0  0  0  0  0  0  0  0
    5.5346    1.8822    0.0000 H   0  0  0  0  0  0  0  0  0  0  0  0
    4.7376    1.8852    0.0000 H   0  0  0  0  0  0  0  0  0  0  0  0
    2.3632    0.8634    0.0000 H   0  0  0  0  0  0  0  0  0  0  0  0
    4.4413    1.9675    0.0000 H   0  0  0  0  0  0  0  0  0  0  0  0
    4.2176    2.8153    0.0000 H   0  0  0  0  0  0  0  0  0  0  0  0
    3.3698    2.5916    0.0000 H   0  0  0  0  0  0  0  0  0  0  0  0
    2.5868    0.0156    0.0000 H   0  0  0  0  0  0  0  0  0  0  0  0
    3.4346    0.2393    0.0000 H   0  0  0  0  0  0  0  0  0  0  0  0
    6.9116   -1.2700    0.0000 H   0  0  0  0  0  0  0  0  0  0  0  0
    2.0000    1.6108    0.0000 H   0  0  0  0  0  0  0  0  0  0  0  0
    6.3827    2.7354    0.0000 H   0  0  0  0  0  0  0  0  0  0  0  0
    5.1367   -1.2595    0.0000 H   0  0  0  0  0  0  0  0  0  0  0  0
    9.8595   -1.9254    0.0000 H   0  0  0  0  0  0  0  0  0  0  0  0
   11.2625    0.5046    0.0000 H   0  0  0  0  0  0  0  0  0  0  0  0
   10.3964    2.0046    0.0000 H   0  0  0  0  0  0  0  0  0  0  0  0
   11.2625   -2.7354    0.0000 H   0  0  0  0  0  0  0  0  0  0  0  0
   12.6654   -0.3054    0.0000 H   0  0  0  0  0  0  0  0  0  0  0  0
   12.9945   -2.7354    0.0000 H   0  0  0  0  0  0  0  0  0  0  0  0
  1  8  1  0  0  0  0
  1 39  1  0  0  0  0
  2 17  1  0  0  0  0
  2 20  1  0  0  0  0
  3 14  1  0  0  0  0
  3 40  1  0  0  0  0
  4 16  1  0  0  0  0
  4 41  1  0  0  0  0
  5 19  2  0  0  0  0
  6 21  1  0  0  0  0
  6 44  1  0  0  0  0
  7 27  1  0  0  0  0
  7 47  1  0  0  0  0
  8  9  1  0  0  0  0
  8 12  1  0  0  0  0
  8 13  1  0  0  0  0
  9 10  1  0  0  0  0
  9 28  1  0  0  0  0
  9 29  1  0  0  0  0
 10 11  1  0  0  0  0
 10 30  1  0  0  0  0
 10 31  1  0  0  0  0
 11 14  2  0  0  0  0
 11 16  1  0  0  0  0
 12 32  1  0  0  0  0
 12 36  1  0  0  0  0
 12 37  1  0  0  0  0
 13 33  1  0  0  0  0
 13 34  1  0  0  0  0
 13 35  1  0  0  0  0
 14 15  1  0  0  0  0
 15 17  2  0  0  0  0
 15 19  1  0  0  0  0
 16 18  2  0  0  0  0
 17 18  1  0  0  0  0
 18 38  1  0  0  0  0
 19 21  1  0  0  0  0
 20 21  2  0  0  0  0
 20 22  1  0  0  0  0
 22 23  2  0  0  0  0
 22 24  1  0  0  0  0
 23 25  1  0  0  0  0
 23 42  1  0  0  0  0
 24 26  2  0  0  0  0
 24 43  1  0  0  0  0
 25 27  2  0  0  0  0
 25 45  1  0  0  0  0
 26 27  1  0  0  0  0
 26 46  1  0  0  0  0
M  END
>  <PUBCHEM_COMPOUND_CID>
44259047

>  <PUBCHEM_COMPOUND_CANONICALIZED>
1

>  <PUBCHEM_CACTVS_COMPLEXITY>
591

>  <PUBCHEM_CACTVS_HBOND_ACCEPTOR>
7

>  <PUBCHEM_CACTVS_HBOND_DONOR>
5

>  <PUBCHEM_CACTVS_ROTATABLE_BOND>
4

>  <PUBCHEM_CACTVS_SUBSKEYS>
AAADceB4OAAAAAAAAAAAAAAAAAAAAAAAAAAwYIAAAAAAAACBQAAAGgAACAAADESAmAAyBoAABgCIAqBSAAICCAAkIAAIiAFGCMgMJzaGNRqCeWCl4BUIuQfI7PzOIAACCAAIAABAAAQQABAAAAAAAAAAAA==

>  <PUBCHEM_IUPAC_OPENEYE_NAME>
3,5,7-trihydroxy-6-(3-hydroxy-3-methyl-butyl)-2-(4-hydroxyphenyl)chromen-4-one

>  <PUBCHEM_IUPAC_CAS_NAME>
3,5,7-trihydroxy-6-(3-hydroxy-3-methylbutyl)-2-(4-hydroxyphenyl)-1-benzopyran-4-one

>  <PUBCHEM_IUPAC_NAME>
3,5,7-trihydroxy-6-(3-hydroxy-3-methylbutyl)-2-(4-hydroxyphenyl)chromen-4-one

>  <PUBCHEM_IUPAC_SYSTEMATIC_NAME>
2-(4-hydroxyphenyl)-6-(3-methyl-3-oxidanyl-butyl)-3,5,7-tris(oxidanyl)chromen-4-one

>  <PUBCHEM_IUPAC_TRADITIONAL_NAME>
3,5,7-trihydroxy-6-(3-hydroxy-3-methyl-butyl)-2-(4-hydroxyphenyl)chromone

>  <PUBCHEM_IUPAC_INCHI>
InChI=1S/C20H20O7/c1-20(2,26)8-7-12-13(22)9-14-15(16(12)23)17(24)18(25)19(27-14)10-3-5-11(21)6-4-10/h3-6,9,21-23,25-26H,7-8H2,1-2H3

>  <PUBCHEM_IUPAC_INCHIKEY>
CIYMYAQLSJQKAQ-UHFFFAOYSA-N

>  <PUBCHEM_XLOGP3>
2.4

>  <PUBCHEM_EXACT_MASS>
372.121

>  <PUBCHEM_MOLECULAR_FORMULA>
C20H20O7

>  <PUBCHEM_MOLECULAR_WEIGHT>
372.373

>  <PUBCHEM_OPENEYE_CAN_SMILES>
CC(C)(CCC1=C(C=C2C(=C1O)C(=O)C(=C(O2)C3=CC=C(C=C3)O)O)O)O

>  <PUBCHEM_OPENEYE_ISO_SMILES>
CC(C)(CCC1=C(C=C2C(=C1O)C(=O)C(=C(O2)C3=CC=C(C=C3)O)O)O)O

>  <PUBCHEM_CACTVS_TPSA>
127

>  <PUBCHEM_MONOISOTOPIC_WEIGHT>
372.121

>  <PUBCHEM_TOTAL_CHARGE>
0

>  <PUBCHEM_HEAVY_ATOM_COUNT>
27

>  <PUBCHEM_ATOM_DEF_STEREO_COUNT>
0

>  <PUBCHEM_ATOM_UDEF_STEREO_COUNT>
0

>  <PUBCHEM_BOND_DEF_STEREO_COUNT>
0

>  <PUBCHEM_BOND_UDEF_STEREO_COUNT>
0

>  <PUBCHEM_ISOTOPIC_ATOM_COUNT>
0

>  <PUBCHEM_COMPONENT_COUNT>
1

>  <PUBCHEM_CACTVS_TAUTO_COUNT>
584

>  <PUBCHEM_COORDINATE_TYPE>
1
5
255

>  <PUBCHEM_BONDANNOTATIONS>
11  14  8
11  16  8
14  15  8
15  17  8
15  19  8
16  18  8
17  18  8
19  21  8
2  17  8
2  20  8
20  21  8
22  23  8
22  24  8
23  25  8
24  26  8
25  27  8
26  27  8

$$$$
