44259768
 OpenBabel06101807152D

 57 59  0  0  0  0  0  0  0  0999 V2000
    9.8622   -4.0204    0.0000 O   0  0  0  0  0  0  0  0  0  0  0  0
    6.3981    0.9796    0.0000 O   0  0  0  0  0  0  0  0  0  0  0  0
   10.7282   -0.5204    0.0000 O   0  0  0  0  0  0  0  0  0  0  0  0
    8.1301    2.9796    0.0000 O   0  0  0  0  0  0  0  0  0  0  0  0
    6.3981    3.9796    0.0000 O   0  0  0  0  0  0  0  0  0  0  0  0
    4.6497    4.0142    0.0000 O   0  0  0  0  0  0  0  0  0  0  0  0
    2.8680    3.0038    0.0000 O   0  0  0  0  0  0  0  0  0  0  0  0
    2.8680    0.9555    0.0000 O   0  0  0  0  0  0  0  0  0  0  0  0
    9.8622   -3.0204    0.0000 C   0  0  0  0  0  0  0  0  0  0  0  0
    9.8622   -2.0204    0.0000 C   0  0  0  0  0  0  0  0  0  0  0  0
    8.9962   -1.5204    0.0000 C   0  0  0  0  0  0  0  0  0  0  0  0
    8.9962   -0.5204    0.0000 C   0  0  0  0  0  0  0  0  0  0  0  0
   10.8622   -3.0204    0.0000 C   0  0  0  0  0  0  0  0  0  0  0  0
    8.8622   -3.0204    0.0000 C   0  0  0  0  0  0  0  0  0  0  0  0
    8.1301   -0.0204    0.0000 C   0  0  0  0  0  0  0  0  0  0  0  0
    9.8622   -0.0204    0.0000 C   0  0  0  0  0  0  0  0  0  0  0  0
    8.1301    0.9796    0.0000 C   0  0  0  0  0  0  0  0  0  0  0  0
    7.2641    1.4796    0.0000 C   0  0  0  0  0  0  0  0  0  0  0  0
    9.8622    0.9796    0.0000 C   0  0  0  0  0  0  0  0  0  0  0  0
    8.9962    1.4796    0.0000 C   0  0  0  0  0  0  0  0  0  0  0  0
    7.2641    2.4796    0.0000 C   0  0  0  0  0  0  0  0  0  0  0  0
    5.5320    2.4796    0.0000 C   0  0  0  0  0  0  0  0  0  0  0  0
    5.5320    1.4796    0.0000 C   0  0  0  0  0  0  0  0  0  0  0  0
    6.3981    2.9796    0.0000 C   0  0  0  0  0  0  0  0  0  0  0  0
    4.6381    3.0143    0.0000 C   0  0  0  0  0  0  0  0  0  0  0  0
    4.6381    0.9449    0.0000 C   0  0  0  0  0  0  0  0  0  0  0  0
    3.7320    2.5004    0.0000 C   0  0  0  0  0  0  0  0  0  0  0  0
    3.7320    1.4588    0.0000 C   0  0  0  0  0  0  0  0  0  0  0  0
   11.5942   -0.0204    0.0000 C   0  0  0  0  0  0  0  0  0  0  0  0
    8.1301    3.9796    0.0000 C   0  0  0  0  0  0  0  0  0  0  0  0
    2.0000    2.5071    0.0000 C   0  0  0  0  0  0  0  0  0  0  0  0
   10.4728   -2.1280    0.0000 H   0  0  0  0  0  0  0  0  0  0  0  0
   10.0742   -1.4378    0.0000 H   0  0  0  0  0  0  0  0  0  0  0  0
    8.3856   -1.4127    0.0000 H   0  0  0  0  0  0  0  0  0  0  0  0
    8.7841   -2.1030    0.0000 H   0  0  0  0  0  0  0  0  0  0  0  0
   10.8622   -3.6404    0.0000 H   0  0  0  0  0  0  0  0  0  0  0  0
    8.8622   -2.4004    0.0000 H   0  0  0  0  0  0  0  0  0  0  0  0
    8.2422   -3.0204    0.0000 H   0  0  0  0  0  0  0  0  0  0  0  0
    8.8622   -3.6404    0.0000 H   0  0  0  0  0  0  0  0  0  0  0  0
   11.4822   -3.0204    0.0000 H   0  0  0  0  0  0  0  0  0  0  0  0
   10.8622   -2.4004    0.0000 H   0  0  0  0  0  0  0  0  0  0  0  0
    7.5932   -0.3304    0.0000 H   0  0  0  0  0  0  0  0  0  0  0  0
   10.3991   -4.3304    0.0000 H   0  0  0  0  0  0  0  0  0  0  0  0
   10.3991    1.2896    0.0000 H   0  0  0  0  0  0  0  0  0  0  0  0
    8.9962    2.0996    0.0000 H   0  0  0  0  0  0  0  0  0  0  0  0
    4.6453    0.3250    0.0000 H   0  0  0  0  0  0  0  0  0  0  0  0
   11.9042   -0.5573    0.0000 H   0  0  0  0  0  0  0  0  0  0  0  0
   12.1312    0.2896    0.0000 H   0  0  0  0  0  0  0  0  0  0  0  0
   11.2842    0.5165    0.0000 H   0  0  0  0  0  0  0  0  0  0  0  0
    8.7501    3.9796    0.0000 H   0  0  0  0  0  0  0  0  0  0  0  0
    8.1301    4.5996    0.0000 H   0  0  0  0  0  0  0  0  0  0  0  0
    7.5101    3.9796    0.0000 H   0  0  0  0  0  0  0  0  0  0  0  0
    4.1164    4.3304    0.0000 H   0  0  0  0  0  0  0  0  0  0  0  0
    2.8703    0.3355    0.0000 H   0  0  0  0  0  0  0  0  0  0  0  0
    1.6921    3.0452    0.0000 H   0  0  0  0  0  0  0  0  0  0  0  0
    1.4619    2.1992    0.0000 H   0  0  0  0  0  0  0  0  0  0  0  0
    2.3079    1.9690    0.0000 H   0  0  0  0  0  0  0  0  0  0  0  0
  1  9  1  0  0  0  0
  1 43  1  0  0  0  0
  2 18  1  0  0  0  0
  2 23  1  0  0  0  0
  3 16  1  0  0  0  0
  3 29  1  0  0  0  0
  4 21  1  0  0  0  0
  4 30  1  0  0  0  0
  5 24  2  0  0  0  0
  6 25  1  0  0  0  0
  6 53  1  0  0  0  0
  7 27  1  0  0  0  0
  7 31  1  0  0  0  0
  8 28  1  0  0  0  0
  8 54  1  0  0  0  0
  9 10  1  0  0  0  0
  9 13  1  0  0  0  0
  9 14  1  0  0  0  0
 10 11  1  0  0  0  0
 10 32  1  0  0  0  0
 10 33  1  0  0  0  0
 11 12  1  0  0  0  0
 11 34  1  0  0  0  0
 11 35  1  0  0  0  0
 12 15  1  0  0  0  0
 12 16  2  0  0  0  0
 13 36  1  0  0  0  0
 13 40  1  0  0  0  0
 13 41  1  0  0  0  0
 14 37  1  0  0  0  0
 14 38  1  0  0  0  0
 14 39  1  0  0  0  0
 15 17  2  0  0  0  0
 15 42  1  0  0  0  0
 16 19  1  0  0  0  0
 17 18  1  0  0  0  0
 17 20  1  0  0  0  0
 18 21  2  0  0  0  0
 19 20  2  0  0  0  0
 19 44  1  0  0  0  0
 20 45  1  0  0  0  0
 21 24  1  0  0  0  0
 22 23  2  0  0  0  0
 22 24  1  0  0  0  0
 22 25  1  0  0  0  0
 23 26  1  0  0  0  0
 25 27  2  0  0  0  0
 26 28  2  0  0  0  0
 26 46  1  0  0  0  0
 27 28  1  0  0  0  0
 29 47  1  0  0  0  0
 29 48  1  0  0  0  0
 29 49  1  0  0  0  0
 30 50  1  0  0  0  0
 30 51  1  0  0  0  0
 30 52  1  0  0  0  0
 31 55  1  0  0  0  0
 31 56  1  0  0  0  0
 31 57  1  0  0  0  0
M  END
>  <PUBCHEM_COMPOUND_CID>
44259768

>  <PUBCHEM_COMPOUND_CANONICALIZED>
1

>  <PUBCHEM_CACTVS_COMPLEXITY>
675

>  <PUBCHEM_CACTVS_HBOND_ACCEPTOR>
8

>  <PUBCHEM_CACTVS_HBOND_DONOR>
3

>  <PUBCHEM_CACTVS_ROTATABLE_BOND>
7

>  <PUBCHEM_CACTVS_SUBSKEYS>
AAADceB4PAAAAAAAAAAAAAAAAAAAAAAAAAAwYIAAAAAAAACBQAAAGgAACAAADESAmAIyBoAABgCIAqBSAAICCAAkIAAIiAFGiMgNJzaGNR6CeWOl4BULuQfK7PzOIQADCAAIQABCAAYQABCAAAAAAAAAAA==

>  <PUBCHEM_IUPAC_OPENEYE_NAME>
5,7-dihydroxy-2-[3-(3-hydroxy-3-methyl-butyl)-4-methoxy-phenyl]-3,6-dimethoxy-chromen-4-one

>  <PUBCHEM_IUPAC_CAS_NAME>
5,7-dihydroxy-2-[3-(3-hydroxy-3-methylbutyl)-4-methoxyphenyl]-3,6-dimethoxy-1-benzopyran-4-one

>  <PUBCHEM_IUPAC_NAME>
5,7-dihydroxy-2-[3-(3-hydroxy-3-methylbutyl)-4-methoxyphenyl]-3,6-dimethoxychromen-4-one

>  <PUBCHEM_IUPAC_SYSTEMATIC_NAME>
3,6-dimethoxy-2-[4-methoxy-3-(3-methyl-3-oxidanyl-butyl)phenyl]-5,7-bis(oxidanyl)chromen-4-one

>  <PUBCHEM_IUPAC_TRADITIONAL_NAME>
5,7-dihydroxy-2-[3-(3-hydroxy-3-methyl-butyl)-4-methoxy-phenyl]-3,6-dimethoxy-chromone

>  <PUBCHEM_IUPAC_INCHI>
InChI=1S/C23H26O8/c1-23(2,27)9-8-12-10-13(6-7-15(12)28-3)20-22(30-5)19(26)17-16(31-20)11-14(24)21(29-4)18(17)25/h6-7,10-11,24-25,27H,8-9H2,1-5H3

>  <PUBCHEM_IUPAC_INCHIKEY>
DKLGTRLGRWKLHB-UHFFFAOYSA-N

>  <PUBCHEM_XLOGP3_AA>
3.7

>  <PUBCHEM_EXACT_MASS>
430.163

>  <PUBCHEM_MOLECULAR_FORMULA>
C23H26O8

>  <PUBCHEM_MOLECULAR_WEIGHT>
430.453

>  <PUBCHEM_OPENEYE_CAN_SMILES>
CC(C)(CCC1=C(C=CC(=C1)C2=C(C(=O)C3=C(C(=C(C=C3O2)O)OC)O)OC)OC)O

>  <PUBCHEM_OPENEYE_ISO_SMILES>
CC(C)(CCC1=C(C=CC(=C1)C2=C(C(=O)C3=C(C(=C(C=C3O2)O)OC)O)OC)OC)O

>  <PUBCHEM_CACTVS_TPSA>
115

>  <PUBCHEM_MONOISOTOPIC_WEIGHT>
430.163

>  <PUBCHEM_TOTAL_CHARGE>
0

>  <PUBCHEM_HEAVY_ATOM_COUNT>
31

>  <PUBCHEM_ATOM_DEF_STEREO_COUNT>
0

>  <PUBCHEM_ATOM_UDEF_STEREO_COUNT>
0

>  <PUBCHEM_BOND_DEF_STEREO_COUNT>
0

>  <PUBCHEM_BOND_UDEF_STEREO_COUNT>
0

>  <PUBCHEM_ISOTOPIC_ATOM_COUNT>
0

>  <PUBCHEM_COMPONENT_COUNT>
1

>  <PUBCHEM_CACTVS_TAUTO_COUNT>
12

>  <PUBCHEM_COORDINATE_TYPE>
1
5
255

>  <PUBCHEM_BONDANNOTATIONS>
12  15  8
12  16  8
15  17  8
16  19  8
17  20  8
18  21  8
19  20  8
2  18  8
2  23  8
21  24  8
22  23  8
22  24  8
22  25  8
23  26  8
25  27  8
26  28  8
27  28  8

$$$$
