44257507
 OpenBabel06101807152D

 49 51  0  0  1  0  0  0  0  0999 V2000
    6.0682   -3.2327    0.0000 O   0  0  0  0  0  0  0  0  0  0  0  0
    6.9343    0.2673    0.0000 O   0  0  0  0  0  0  0  0  0  0  0  0
   10.3984    0.2673    0.0000 O   0  0  0  0  0  0  0  0  0  0  0  0
    2.5381   -3.2568    0.0000 O   0  0  0  0  0  0  0  0  0  0  0  0
    6.9343   -1.7327    0.0000 C   0  0  3  0  0  0  0  0  0  0  0  0
    6.0682   -1.2327    0.0000 C   0  0  0  0  0  0  0  0  0  0  0  0
    6.9343   -2.7327    0.0000 C   0  0  0  0  0  0  0  0  0  0  0  0
    7.8003   -1.2327    0.0000 C   0  0  0  0  0  0  0  0  0  0  0  0
    5.2022   -1.7327    0.0000 C   0  0  0  0  0  0  0  0  0  0  0  0
    5.2022   -2.7327    0.0000 C   0  0  0  0  0  0  0  0  0  0  0  0
    7.8003   -0.2327    0.0000 C   0  0  0  0  0  0  0  0  0  0  0  0
    8.6663   -1.7327    0.0000 C   0  0  0  0  0  0  0  0  0  0  0  0
    8.6663    0.2673    0.0000 C   0  0  0  0  0  0  0  0  0  0  0  0
    4.3083   -1.1980    0.0000 C   0  0  0  0  0  0  0  0  0  0  0  0
    9.5323   -0.2327    0.0000 C   0  0  0  0  0  0  0  0  0  0  0  0
    4.3083   -3.2673    0.0000 C   0  0  0  0  0  0  0  0  0  0  0  0
    9.5323   -1.2327    0.0000 C   0  0  0  0  0  0  0  0  0  0  0  0
    8.6663    1.2673    0.0000 C   0  0  0  0  0  0  0  0  0  0  0  0
    3.4022   -1.7118    0.0000 C   0  0  0  0  0  0  0  0  0  0  0  0
    3.4022   -2.7535    0.0000 C   0  0  0  0  0  0  0  0  0  0  0  0
    9.5323    1.7673    0.0000 C   0  0  0  0  0  0  0  0  0  0  0  0
    6.9343    1.2673    0.0000 C   0  0  0  0  0  0  0  0  0  0  0  0
    9.5323    2.7673    0.0000 C   0  0  0  0  0  0  0  0  0  0  0  0
   10.3984    3.2673    0.0000 C   0  0  0  0  0  0  0  0  0  0  0  0
    8.6663    3.2673    0.0000 C   0  0  0  0  0  0  0  0  0  0  0  0
    6.9343   -1.1127    0.0000 H   0  0  0  0  0  0  0  0  0  0  0  0
    6.4668   -0.7577    0.0000 H   0  0  0  0  0  0  0  0  0  0  0  0
    5.6697   -0.7577    0.0000 H   0  0  0  0  0  0  0  0  0  0  0  0
    7.1463   -3.3153    0.0000 H   0  0  0  0  0  0  0  0  0  0  0  0
    7.5449   -2.6250    0.0000 H   0  0  0  0  0  0  0  0  0  0  0  0
    8.6663   -2.3527    0.0000 H   0  0  0  0  0  0  0  0  0  0  0  0
    4.3154   -0.5780    0.0000 H   0  0  0  0  0  0  0  0  0  0  0  0
    4.3154   -3.8873    0.0000 H   0  0  0  0  0  0  0  0  0  0  0  0
   10.0693   -1.5427    0.0000 H   0  0  0  0  0  0  0  0  0  0  0  0
    8.4543    1.8499    0.0000 H   0  0  0  0  0  0  0  0  0  0  0  0
    8.0558    1.1597    0.0000 H   0  0  0  0  0  0  0  0  0  0  0  0
    2.8665   -1.3998    0.0000 H   0  0  0  0  0  0  0  0  0  0  0  0
   10.0693    1.4573    0.0000 H   0  0  0  0  0  0  0  0  0  0  0  0
    7.5543    1.2673    0.0000 H   0  0  0  0  0  0  0  0  0  0  0  0
    6.9343    1.8873    0.0000 H   0  0  0  0  0  0  0  0  0  0  0  0
    6.3143    1.2673    0.0000 H   0  0  0  0  0  0  0  0  0  0  0  0
   10.9353   -0.0427    0.0000 H   0  0  0  0  0  0  0  0  0  0  0  0
    2.0000   -2.9489    0.0000 H   0  0  0  0  0  0  0  0  0  0  0  0
   10.7084    2.7304    0.0000 H   0  0  0  0  0  0  0  0  0  0  0  0
    8.9763    3.8043    0.0000 H   0  0  0  0  0  0  0  0  0  0  0  0
    8.1294    3.5773    0.0000 H   0  0  0  0  0  0  0  0  0  0  0  0
    8.3563    2.7304    0.0000 H   0  0  0  0  0  0  0  0  0  0  0  0
   10.9353    3.5773    0.0000 H   0  0  0  0  0  0  0  0  0  0  0  0
   10.0884    3.8043    0.0000 H   0  0  0  0  0  0  0  0  0  0  0  0
  1  7  1  0  0  0  0
  1 10  1  0  0  0  0
  2 11  1  0  0  0  0
  2 22  1  0  0  0  0
  3 15  1  0  0  0  0
  3 42  1  0  0  0  0
  4 20  1  0  0  0  0
  4 43  1  0  0  0  0
  5  6  1  0  0  0  0
  5  7  1  0  0  0  0
  5  8  1  0  0  0  0
  5 26  1  0  0  0  0
  6  9  1  0  0  0  0
  6 27  1  0  0  0  0
  6 28  1  0  0  0  0
  7 29  1  0  0  0  0
  7 30  1  0  0  0  0
  8 11  2  0  0  0  0
  8 12  1  0  0  0  0
  9 10  2  0  0  0  0
  9 14  1  0  0  0  0
 10 16  1  0  0  0  0
 11 13  1  0  0  0  0
 12 17  2  0  0  0  0
 12 31  1  0  0  0  0
 13 15  2  0  0  0  0
 13 18  1  0  0  0  0
 14 19  2  0  0  0  0
 14 32  1  0  0  0  0
 15 17  1  0  0  0  0
 16 20  2  0  0  0  0
 16 33  1  0  0  0  0
 17 34  1  0  0  0  0
 18 21  1  0  0  0  0
 18 35  1  0  0  0  0
 18 36  1  0  0  0  0
 19 20  1  0  0  0  0
 19 37  1  0  0  0  0
 21 23  2  0  0  0  0
 21 38  1  0  0  0  0
 22 39  1  0  0  0  0
 22 40  1  0  0  0  0
 22 41  1  0  0  0  0
 23 24  1  0  0  0  0
 23 25  1  0  0  0  0
 24 44  1  0  0  0  0
 24 48  1  0  0  0  0
 24 49  1  0  0  0  0
 25 45  1  0  0  0  0
 25 46  1  0  0  0  0
 25 47  1  0  0  0  0
M  END
>  <PUBCHEM_COMPOUND_CID>
44257507

>  <PUBCHEM_COMPOUND_CANONICALIZED>
1

>  <PUBCHEM_CACTVS_COMPLEXITY>
459

>  <PUBCHEM_CACTVS_HBOND_ACCEPTOR>
4

>  <PUBCHEM_CACTVS_HBOND_DONOR>
2

>  <PUBCHEM_CACTVS_ROTATABLE_BOND>
4

>  <PUBCHEM_CACTVS_SUBSKEYS>
AAADceB4OAAAAAAAAAAAAAAAAAAAAAAAAAA0YIAAAAAAAACRQAAAGgAACAAADQSgmAIyBoAABgCAAiBCAAACCAAgIAAIiAAGCIgMJyKGMRqCeCClwBUIuAfA4PwOoAACCAAIAABAAAQQABAAAAAAAAAAAA==

>  <PUBCHEM_IUPAC_OPENEYE_NAME>
3-[4-hydroxy-2-methoxy-3-(3-methylbut-2-enyl)phenyl]chroman-7-ol

>  <PUBCHEM_IUPAC_CAS_NAME>
3-[4-hydroxy-2-methoxy-3-(3-methylbut-2-enyl)phenyl]-3,4-dihydro-2H-1-benzopyran-7-ol

>  <PUBCHEM_IUPAC_NAME>
3-[4-hydroxy-2-methoxy-3-(3-methylbut-2-enyl)phenyl]-3,4-dihydro-2H-chromen-7-ol

>  <PUBCHEM_IUPAC_SYSTEMATIC_NAME>
3-[2-methoxy-3-(3-methylbut-2-enyl)-4-oxidanyl-phenyl]-3,4-dihydro-2H-chromen-7-ol

>  <PUBCHEM_IUPAC_TRADITIONAL_NAME>
3-[4-hydroxy-2-methoxy-3-(3-methylbut-2-enyl)phenyl]chroman-7-ol

>  <PUBCHEM_IUPAC_INCHI>
InChI=1S/C21H24O4/c1-13(2)4-7-18-19(23)9-8-17(21(18)24-3)15-10-14-5-6-16(22)11-20(14)25-12-15/h4-6,8-9,11,15,22-23H,7,10,12H2,1-3H3

>  <PUBCHEM_IUPAC_INCHIKEY>
ZEJRFMCOSHZBRD-UHFFFAOYSA-N

>  <PUBCHEM_XLOGP3_AA>
4.9

>  <PUBCHEM_EXACT_MASS>
340.167

>  <PUBCHEM_MOLECULAR_FORMULA>
C21H24O4

>  <PUBCHEM_MOLECULAR_WEIGHT>
340.419

>  <PUBCHEM_OPENEYE_CAN_SMILES>
CC(=CCC1=C(C=CC(=C1OC)C2CC3=C(C=C(C=C3)O)OC2)O)C

>  <PUBCHEM_OPENEYE_ISO_SMILES>
CC(=CCC1=C(C=CC(=C1OC)C2CC3=C(C=C(C=C3)O)OC2)O)C

>  <PUBCHEM_CACTVS_TPSA>
58.9

>  <PUBCHEM_MONOISOTOPIC_WEIGHT>
340.167

>  <PUBCHEM_TOTAL_CHARGE>
0

>  <PUBCHEM_HEAVY_ATOM_COUNT>
25

>  <PUBCHEM_ATOM_DEF_STEREO_COUNT>
0

>  <PUBCHEM_ATOM_UDEF_STEREO_COUNT>
1

>  <PUBCHEM_BOND_DEF_STEREO_COUNT>
0

>  <PUBCHEM_BOND_UDEF_STEREO_COUNT>
0

>  <PUBCHEM_ISOTOPIC_ATOM_COUNT>
0

>  <PUBCHEM_COMPONENT_COUNT>
1

>  <PUBCHEM_CACTVS_TAUTO_COUNT>
8

>  <PUBCHEM_COORDINATE_TYPE>
1
5
255

>  <PUBCHEM_BONDANNOTATIONS>
10  16  8
11  13  8
12  17  8
13  15  8
14  19  8
15  17  8
16  20  8
19  20  8
5  8  3
8  11  8
8  12  8
9  10  8
9  14  8

$$$$
