44258297
 OpenBabel06101807152D

 68 71  0  0  0  0  0  0  0  0999 V2000
    3.9061   -2.7313    0.0000 O   0  0  0  0  0  0  0  0  0  0  0  0
    7.4260   -2.7313    0.0000 O   0  0  0  0  0  0  0  0  0  0  0  0
    5.6660    0.3033    0.0000 O   0  0  0  0  0  0  0  0  0  0  0  0
    7.4144    0.3379    0.0000 O   0  0  0  0  0  0  0  0  0  0  0  0
    8.3244   -4.2175    0.0000 O   0  0  0  0  0  0  0  0  0  0  0  0
   11.7884   -4.2308    0.0000 O   0  0  0  0  0  0  0  0  0  0  0  0
    3.0000   -2.2175    0.0000 C   0  0  0  0  0  0  0  0  0  0  0  0
    4.8000   -1.1967    0.0000 C   0  0  0  0  0  0  0  0  0  0  0  0
    4.8000   -2.1967    0.0000 C   0  0  0  0  0  0  0  0  0  0  0  0
    6.5320   -1.1967    0.0000 C   0  0  0  0  0  0  0  0  0  0  0  0
    6.5320   -2.1967    0.0000 C   0  0  0  0  0  0  0  0  0  0  0  0
    3.0000   -1.1758    0.0000 C   0  0  0  0  0  0  0  0  0  0  0  0
    5.6660   -0.6967    0.0000 C   0  0  0  0  0  0  0  0  0  0  0  0
    8.3321   -1.1758    0.0000 C   0  0  0  0  0  0  0  0  0  0  0  0
    3.9061   -0.6620    0.0000 C   0  0  0  0  0  0  0  0  0  0  0  0
    5.6660   -2.6967    0.0000 C   0  0  0  0  0  0  0  0  0  0  0  0
    7.4260   -0.6620    0.0000 C   0  0  0  0  0  0  0  0  0  0  0  0
    2.0000   -2.2213    0.0000 C   0  0  0  0  0  0  0  0  0  0  0  0
    2.5033   -3.0854    0.0000 C   0  0  0  0  0  0  0  0  0  0  0  0
    8.3321   -2.2175    0.0000 C   0  0  0  0  0  0  0  0  0  0  0  0
    9.1962   -0.6725    0.0000 C   0  0  0  0  0  0  0  0  0  0  0  0
    9.1962   -2.7208    0.0000 C   0  0  0  0  0  0  0  0  0  0  0  0
    9.1923    0.3275    0.0000 C   0  0  0  0  0  0  0  0  0  0  0  0
   10.0564    0.8308    0.0000 C   0  0  0  0  0  0  0  0  0  0  0  0
   10.0525    1.8308    0.0000 C   0  0  0  0  0  0  0  0  0  0  0  0
   10.9166    2.3341    0.0000 C   0  0  0  0  0  0  0  0  0  0  0  0
    9.1923   -3.7208    0.0000 C   0  0  0  0  0  0  0  0  0  0  0  0
   10.0641   -2.2242    0.0000 C   0  0  0  0  0  0  0  0  0  0  0  0
   10.9243    0.3342    0.0000 C   0  0  0  0  0  0  0  0  0  0  0  0
   10.9128    3.3341    0.0000 C   0  0  0  0  0  0  0  0  0  0  0  0
   10.0564   -4.2241    0.0000 C   0  0  0  0  0  0  0  0  0  0  0  0
   10.9282   -2.7275    0.0000 C   0  0  0  0  0  0  0  0  0  0  0  0
   10.9243   -3.7275    0.0000 C   0  0  0  0  0  0  0  0  0  0  0  0
   11.7769    3.8375    0.0000 C   0  0  0  0  0  0  0  0  0  0  0  0
   11.7730    4.8375    0.0000 C   0  0  0  0  0  0  0  0  0  0  0  0
   12.6448    3.3408    0.0000 C   0  0  0  0  0  0  0  0  0  0  0  0
    2.4643   -0.8638    0.0000 H   0  0  0  0  0  0  0  0  0  0  0  0
    5.6660   -3.3167    0.0000 H   0  0  0  0  0  0  0  0  0  0  0  0
    3.9132   -0.0420    0.0000 H   0  0  0  0  0  0  0  0  0  0  0  0
    1.9976   -1.6013    0.0000 H   0  0  0  0  0  0  0  0  0  0  0  0
    1.3800   -2.2237    0.0000 H   0  0  0  0  0  0  0  0  0  0  0  0
    2.0024   -2.8413    0.0000 H   0  0  0  0  0  0  0  0  0  0  0  0
    1.9652   -2.7775    0.0000 H   0  0  0  0  0  0  0  0  0  0  0  0
    2.1954   -3.6236    0.0000 H   0  0  0  0  0  0  0  0  0  0  0  0
    3.0415   -3.3934    0.0000 H   0  0  0  0  0  0  0  0  0  0  0  0
    9.4105   -1.2543    0.0000 H   0  0  0  0  0  0  0  0  0  0  0  0
    9.8063   -0.5625    0.0000 H   0  0  0  0  0  0  0  0  0  0  0  0
    8.6542    0.6354    0.0000 H   0  0  0  0  0  0  0  0  0  0  0  0
    9.8382    2.4126    0.0000 H   0  0  0  0  0  0  0  0  0  0  0  0
    9.4424    1.7208    0.0000 H   0  0  0  0  0  0  0  0  0  0  0  0
   11.1309    1.7524    0.0000 H   0  0  0  0  0  0  0  0  0  0  0  0
   11.5268    2.4442    0.0000 H   0  0  0  0  0  0  0  0  0  0  0  0
    5.1291    0.6133    0.0000 H   0  0  0  0  0  0  0  0  0  0  0  0
   10.0665   -1.6042    0.0000 H   0  0  0  0  0  0  0  0  0  0  0  0
   10.6164   -0.2040    0.0000 H   0  0  0  0  0  0  0  0  0  0  0  0
   11.4625    0.0262    0.0000 H   0  0  0  0  0  0  0  0  0  0  0  0
   11.2323    0.8723    0.0000 H   0  0  0  0  0  0  0  0  0  0  0  0
   10.3746    3.6421    0.0000 H   0  0  0  0  0  0  0  0  0  0  0  0
   10.0540   -4.8441    0.0000 H   0  0  0  0  0  0  0  0  0  0  0  0
   11.4663   -2.4196    0.0000 H   0  0  0  0  0  0  0  0  0  0  0  0
    8.3220   -4.8375    0.0000 H   0  0  0  0  0  0  0  0  0  0  0  0
   12.3930    4.8398    0.0000 H   0  0  0  0  0  0  0  0  0  0  0  0
   12.3369    2.8027    0.0000 H   0  0  0  0  0  0  0  0  0  0  0  0
   13.1829    3.0329    0.0000 H   0  0  0  0  0  0  0  0  0  0  0  0
   12.9527    3.8789    0.0000 H   0  0  0  0  0  0  0  0  0  0  0  0
   11.7706    5.4575    0.0000 H   0  0  0  0  0  0  0  0  0  0  0  0
   11.1530    4.8351    0.0000 H   0  0  0  0  0  0  0  0  0  0  0  0
   12.3266   -3.9229    0.0000 H   0  0  0  0  0  0  0  0  0  0  0  0
  1  7  1  0  0  0  0
  1  9  1  0  0  0  0
  2 11  1  0  0  0  0
  2 20  1  0  0  0  0
  3 13  1  0  0  0  0
  3 53  1  0  0  0  0
  4 17  2  0  0  0  0
  5 27  1  0  0  0  0
  5 61  1  0  0  0  0
  6 33  1  0  0  0  0
  6 68  1  0  0  0  0
  7 12  1  0  0  0  0
  7 18  1  0  0  0  0
  7 19  1  0  0  0  0
  8  9  2  0  0  0  0
  8 13  1  0  0  0  0
  8 15  1  0  0  0  0
  9 16  1  0  0  0  0
 10 11  1  0  0  0  0
 10 13  2  0  0  0  0
 10 17  1  0  0  0  0
 11 16  2  0  0  0  0
 12 15  2  0  0  0  0
 12 37  1  0  0  0  0
 14 17  1  0  0  0  0
 14 20  2  0  0  0  0
 14 21  1  0  0  0  0
 15 39  1  0  0  0  0
 16 38  1  0  0  0  0
 18 40  1  0  0  0  0
 18 41  1  0  0  0  0
 18 42  1  0  0  0  0
 19 43  1  0  0  0  0
 19 44  1  0  0  0  0
 19 45  1  0  0  0  0
 20 22  1  0  0  0  0
 21 23  1  0  0  0  0
 21 46  1  0  0  0  0
 21 47  1  0  0  0  0
 22 27  2  0  0  0  0
 22 28  1  0  0  0  0
 23 24  2  0  0  0  0
 23 48  1  0  0  0  0
 24 25  1  0  0  0  0
 24 29  1  0  0  0  0
 25 26  1  0  0  0  0
 25 49  1  0  0  0  0
 25 50  1  0  0  0  0
 26 30  1  0  0  0  0
 26 51  1  0  0  0  0
 26 52  1  0  0  0  0
 27 31  1  0  0  0  0
 28 32  2  0  0  0  0
 28 54  1  0  0  0  0
 29 55  1  0  0  0  0
 29 56  1  0  0  0  0
 29 57  1  0  0  0  0
 30 34  2  0  0  0  0
 30 58  1  0  0  0  0
 31 33  2  0  0  0  0
 31 59  1  0  0  0  0
 32 33  1  0  0  0  0
 32 60  1  0  0  0  0
 34 35  1  0  0  0  0
 34 36  1  0  0  0  0
 35 62  1  0  0  0  0
 35 66  1  0  0  0  0
 35 67  1  0  0  0  0
 36 63  1  0  0  0  0
 36 64  1  0  0  0  0
 36 65  1  0  0  0  0
M  END
>  <PUBCHEM_COMPOUND_CID>
44258297

>  <PUBCHEM_COMPOUND_CANONICALIZED>
1

>  <PUBCHEM_CACTVS_COMPLEXITY>
953

>  <PUBCHEM_CACTVS_HBOND_ACCEPTOR>
6

>  <PUBCHEM_CACTVS_HBOND_DONOR>
3

>  <PUBCHEM_CACTVS_ROTATABLE_BOND>
6

>  <PUBCHEM_CACTVS_SUBSKEYS>
AAADcfB4OAAAAAAAAAAAAAAAAAAAAAAAAAAwYIEAAAAAAACBQAAAGgAACAAADESAmAAyBoAABgCIAqBSAAACCAAkIAAIiAEGCMgMJzaGNRqCeWCl4BUIuQeI7OzOIAACCAAIAABAAAQQABAAAAAAAAAAAA==

>  <PUBCHEM_IUPAC_OPENEYE_NAME>
8-(2,4-dihydroxyphenyl)-7-[(2E)-3,7-dimethylocta-2,6-dienyl]-5-hydroxy-2,2-dimethyl-pyrano[3,2-g]chromen-6-one

>  <PUBCHEM_IUPAC_CAS_NAME>
8-(2,4-dihydroxyphenyl)-7-[(2E)-3,7-dimethylocta-2,6-dienyl]-5-hydroxy-2,2-dimethyl-6-pyrano[3,2-g][1]benzopyranone

>  <PUBCHEM_IUPAC_NAME>
8-(2,4-dihydroxyphenyl)-7-[(2E)-3,7-dimethylocta-2,6-dienyl]-5-hydroxy-2,2-dimethylpyrano[3,2-g]chromen-6-one

>  <PUBCHEM_IUPAC_SYSTEMATIC_NAME>
8-[2,4-bis(oxidanyl)phenyl]-7-[(2E)-3,7-dimethylocta-2,6-dienyl]-2,2-dimethyl-5-oxidanyl-pyrano[3,2-g]chromen-6-one

>  <PUBCHEM_IUPAC_TRADITIONAL_NAME>
8-(2,4-dihydroxyphenyl)-7-[(2E)-3,7-dimethylocta-2,6-dienyl]-5-hydroxy-2,2-dimethyl-pyrano[3,2-g]chromen-6-one

>  <PUBCHEM_IUPAC_INCHI>
InChI=1S/C30H32O6/c1-17(2)7-6-8-18(3)9-11-22-28(34)26-25(35-29(22)20-12-10-19(31)15-23(20)32)16-24-21(27(26)33)13-14-30(4,5)36-24/h7,9-10,12-16,31-33H,6,8,11H2,1-5H3/b18-9+

>  <PUBCHEM_IUPAC_INCHIKEY>
SKCPIJZMAFLOJW-GIJQJNRQSA-N

>  <PUBCHEM_XLOGP3_AA>
7.4

>  <PUBCHEM_EXACT_MASS>
488.22

>  <PUBCHEM_MOLECULAR_FORMULA>
C30H32O6

>  <PUBCHEM_MOLECULAR_WEIGHT>
488.58

>  <PUBCHEM_OPENEYE_CAN_SMILES>
CC(=CCCC(=CCC1=C(OC2=CC3=C(C=CC(O3)(C)C)C(=C2C1=O)O)C4=C(C=C(C=C4)O)O)C)C

>  <PUBCHEM_OPENEYE_ISO_SMILES>
CC(=CCC/C(=C/CC1=C(OC2=CC3=C(C=CC(O3)(C)C)C(=C2C1=O)O)C4=C(C=C(C=C4)O)O)/C)C

>  <PUBCHEM_CACTVS_TPSA>
96.2

>  <PUBCHEM_MONOISOTOPIC_WEIGHT>
488.22

>  <PUBCHEM_TOTAL_CHARGE>
0

>  <PUBCHEM_HEAVY_ATOM_COUNT>
36

>  <PUBCHEM_ATOM_DEF_STEREO_COUNT>
0

>  <PUBCHEM_ATOM_UDEF_STEREO_COUNT>
0

>  <PUBCHEM_BOND_DEF_STEREO_COUNT>
1

>  <PUBCHEM_BOND_UDEF_STEREO_COUNT>
0

>  <PUBCHEM_ISOTOPIC_ATOM_COUNT>
0

>  <PUBCHEM_COMPONENT_COUNT>
1

>  <PUBCHEM_CACTVS_TAUTO_COUNT>
72

>  <PUBCHEM_COORDINATE_TYPE>
1
5
255

>  <PUBCHEM_BONDANNOTATIONS>
10  11  8
10  13  8
10  17  8
11  16  8
14  17  8
14  20  8
2  11  8
2  20  8
22  27  8
22  28  8
27  31  8
28  32  8
31  33  8
32  33  8
8  13  8
8  9  8
9  16  8

$$$$
