44258296
 OpenBabel06101807152D

 55 58  0  0  0  0  0  0  0  0999 V2000
    6.8903   -2.0506    0.0000 O   0  0  0  0  0  0  0  0  0  0  0  0
    6.0682   -0.5437    0.0000 O   0  0  0  0  0  0  0  0  0  0  0  0
   10.3984   -2.0437    0.0000 O   0  0  0  0  0  0  0  0  0  0  0  0
    6.0682    2.4563    0.0000 O   0  0  0  0  0  0  0  0  0  0  0  0
    4.3198    2.4909    0.0000 O   0  0  0  0  0  0  0  0  0  0  0  0
    2.5381   -0.5679    0.0000 O   0  0  0  0  0  0  0  0  0  0  0  0
    6.8823   -3.0922    0.0000 C   0  0  0  0  0  0  0  0  0  0  0  0
    7.8003   -1.5437    0.0000 C   0  0  0  0  0  0  0  0  0  0  0  0
    7.8003   -0.5437    0.0000 C   0  0  0  0  0  0  0  0  0  0  0  0
    8.6663   -2.0437    0.0000 C   0  0  0  0  0  0  0  0  0  0  0  0
    7.7844   -3.6130    0.0000 C   0  0  0  0  0  0  0  0  0  0  0  0
    6.9343   -0.0437    0.0000 C   0  0  0  0  0  0  0  0  0  0  0  0
    6.9343    0.9563    0.0000 C   0  0  0  0  0  0  0  0  0  0  0  0
    6.3789   -3.9563    0.0000 C   0  0  0  0  0  0  0  0  0  0  0  0
    5.8823   -3.0883    0.0000 C   0  0  0  0  0  0  0  0  0  0  0  0
    8.6824   -3.0852    0.0000 C   0  0  0  0  0  0  0  0  0  0  0  0
    9.5323   -1.5437    0.0000 C   0  0  0  0  0  0  0  0  0  0  0  0
    8.6663   -0.0437    0.0000 C   0  0  0  0  0  0  0  0  0  0  0  0
    7.8003    1.4563    0.0000 C   0  0  0  0  0  0  0  0  0  0  0  0
    6.0682    1.4563    0.0000 C   0  0  0  0  0  0  0  0  0  0  0  0
    5.2022    0.9563    0.0000 C   0  0  0  0  0  0  0  0  0  0  0  0
    5.2022   -0.0437    0.0000 C   0  0  0  0  0  0  0  0  0  0  0  0
    9.5323   -0.5437    0.0000 C   0  0  0  0  0  0  0  0  0  0  0  0
    4.3083    1.4909    0.0000 C   0  0  0  0  0  0  0  0  0  0  0  0
    7.8003    2.4563    0.0000 C   0  0  0  0  0  0  0  0  0  0  0  0
    4.3083   -0.5784    0.0000 C   0  0  0  0  0  0  0  0  0  0  0  0
    3.4022    0.9771    0.0000 C   0  0  0  0  0  0  0  0  0  0  0  0
    3.4022   -0.0645    0.0000 C   0  0  0  0  0  0  0  0  0  0  0  0
    8.6663    2.9563    0.0000 C   0  0  0  0  0  0  0  0  0  0  0  0
    8.6663    3.9563    0.0000 C   0  0  0  0  0  0  0  0  0  0  0  0
    9.5323    2.4563    0.0000 C   0  0  0  0  0  0  0  0  0  0  0  0
    7.7867   -4.2330    0.0000 H   0  0  0  0  0  0  0  0  0  0  0  0
    5.8432   -3.6442    0.0000 H   0  0  0  0  0  0  0  0  0  0  0  0
    6.0669   -4.4920    0.0000 H   0  0  0  0  0  0  0  0  0  0  0  0
    6.9147   -4.2683    0.0000 H   0  0  0  0  0  0  0  0  0  0  0  0
    5.8847   -2.4683    0.0000 H   0  0  0  0  0  0  0  0  0  0  0  0
    5.2623   -3.0859    0.0000 H   0  0  0  0  0  0  0  0  0  0  0  0
    5.8799   -3.7083    0.0000 H   0  0  0  0  0  0  0  0  0  0  0  0
    9.2229   -3.3890    0.0000 H   0  0  0  0  0  0  0  0  0  0  0  0
    8.6663    0.5763    0.0000 H   0  0  0  0  0  0  0  0  0  0  0  0
    8.0124    0.8737    0.0000 H   0  0  0  0  0  0  0  0  0  0  0  0
    8.4109    1.5639    0.0000 H   0  0  0  0  0  0  0  0  0  0  0  0
   10.0693   -0.2337    0.0000 H   0  0  0  0  0  0  0  0  0  0  0  0
    7.2634    2.7663    0.0000 H   0  0  0  0  0  0  0  0  0  0  0  0
    4.3154   -1.1984    0.0000 H   0  0  0  0  0  0  0  0  0  0  0  0
    2.8665    1.2892    0.0000 H   0  0  0  0  0  0  0  0  0  0  0  0
   10.9353   -1.7337    0.0000 H   0  0  0  0  0  0  0  0  0  0  0  0
    9.2863    3.9563    0.0000 H   0  0  0  0  0  0  0  0  0  0  0  0
    9.2224    1.9193    0.0000 H   0  0  0  0  0  0  0  0  0  0  0  0
   10.0693    2.1463    0.0000 H   0  0  0  0  0  0  0  0  0  0  0  0
    9.8424    2.9932    0.0000 H   0  0  0  0  0  0  0  0  0  0  0  0
    8.6663    4.5763    0.0000 H   0  0  0  0  0  0  0  0  0  0  0  0
    8.0463    3.9563    0.0000 H   0  0  0  0  0  0  0  0  0  0  0  0
    3.7865    2.8070    0.0000 H   0  0  0  0  0  0  0  0  0  0  0  0
    2.0000   -0.2600    0.0000 H   0  0  0  0  0  0  0  0  0  0  0  0
  1  7  1  0  0  0  0
  1  8  1  0  0  0  0
  2 12  1  0  0  0  0
  2 22  1  0  0  0  0
  3 17  1  0  0  0  0
  3 47  1  0  0  0  0
  4 20  2  0  0  0  0
  5 24  1  0  0  0  0
  5 54  1  0  0  0  0
  6 28  1  0  0  0  0
  6 55  1  0  0  0  0
  7 11  1  0  0  0  0
  7 14  1  0  0  0  0
  7 15  1  0  0  0  0
  8  9  2  0  0  0  0
  8 10  1  0  0  0  0
  9 12  1  0  0  0  0
  9 18  1  0  0  0  0
 10 16  1  0  0  0  0
 10 17  2  0  0  0  0
 11 16  2  0  0  0  0
 11 32  1  0  0  0  0
 12 13  2  0  0  0  0
 13 19  1  0  0  0  0
 13 20  1  0  0  0  0
 14 33  1  0  0  0  0
 14 34  1  0  0  0  0
 14 35  1  0  0  0  0
 15 36  1  0  0  0  0
 15 37  1  0  0  0  0
 15 38  1  0  0  0  0
 16 39  1  0  0  0  0
 17 23  1  0  0  0  0
 18 23  2  0  0  0  0
 18 40  1  0  0  0  0
 19 25  1  0  0  0  0
 19 41  1  0  0  0  0
 19 42  1  0  0  0  0
 20 21  1  0  0  0  0
 21 22  1  0  0  0  0
 21 24  2  0  0  0  0
 22 26  2  0  0  0  0
 23 43  1  0  0  0  0
 24 27  1  0  0  0  0
 25 29  2  0  0  0  0
 25 44  1  0  0  0  0
 26 28  1  0  0  0  0
 26 45  1  0  0  0  0
 27 28  2  0  0  0  0
 27 46  1  0  0  0  0
 29 30  1  0  0  0  0
 29 31  1  0  0  0  0
 30 48  1  0  0  0  0
 30 52  1  0  0  0  0
 30 53  1  0  0  0  0
 31 49  1  0  0  0  0
 31 50  1  0  0  0  0
 31 51  1  0  0  0  0
M  END
>  <PUBCHEM_COMPOUND_CID>
44258296

>  <PUBCHEM_COMPOUND_CANONICALIZED>
1

>  <PUBCHEM_CACTVS_COMPLEXITY>
805

>  <PUBCHEM_CACTVS_HBOND_ACCEPTOR>
6

>  <PUBCHEM_CACTVS_HBOND_DONOR>
3

>  <PUBCHEM_CACTVS_ROTATABLE_BOND>
3

>  <PUBCHEM_CACTVS_SUBSKEYS>
AAADceB4OAAAAAAAAAAAAAAAAAAAAAAAAAAwYIEAAAAAAACBQAAAGgAACAAADESAmAAyBoAABgCIAqBSAAACCAAkIAAIiAEGCMgMJzaGNRqCeWCl4BUIuQeI7OzOIAACCAAIAABAAAQQABAAAAAAAAAAAA==

>  <PUBCHEM_IUPAC_OPENEYE_NAME>
5,7-dihydroxy-2-(5-hydroxy-2,2-dimethyl-chromen-8-yl)-3-(3-methylbut-2-enyl)chromen-4-one

>  <PUBCHEM_IUPAC_CAS_NAME>
5,7-dihydroxy-2-(5-hydroxy-2,2-dimethyl-1-benzopyran-8-yl)-3-(3-methylbut-2-enyl)-1-benzopyran-4-one

>  <PUBCHEM_IUPAC_NAME>
5,7-dihydroxy-2-(5-hydroxy-2,2-dimethylchromen-8-yl)-3-(3-methylbut-2-enyl)chromen-4-one

>  <PUBCHEM_IUPAC_SYSTEMATIC_NAME>
2-(2,2-dimethyl-5-oxidanyl-chromen-8-yl)-3-(3-methylbut-2-enyl)-5,7-bis(oxidanyl)chromen-4-one

>  <PUBCHEM_IUPAC_TRADITIONAL_NAME>
5,7-dihydroxy-2-(5-hydroxy-2,2-dimethyl-chromen-8-yl)-3-(3-methylbut-2-enyl)chromone

>  <PUBCHEM_IUPAC_INCHI>
InChI=1S/C25H24O6/c1-13(2)5-6-16-22(29)21-19(28)11-14(26)12-20(21)30-23(16)17-7-8-18(27)15-9-10-25(3,4)31-24(15)17/h5,7-12,26-28H,6H2,1-4H3

>  <PUBCHEM_IUPAC_INCHIKEY>
DBUNRZUFILGKHP-UHFFFAOYSA-N

>  <PUBCHEM_XLOGP3_AA>
5.5

>  <PUBCHEM_EXACT_MASS>
420.157

>  <PUBCHEM_MOLECULAR_FORMULA>
C25H24O6

>  <PUBCHEM_MOLECULAR_WEIGHT>
420.461

>  <PUBCHEM_OPENEYE_CAN_SMILES>
CC(=CCC1=C(OC2=CC(=CC(=C2C1=O)O)O)C3=C4C(=C(C=C3)O)C=CC(O4)(C)C)C

>  <PUBCHEM_OPENEYE_ISO_SMILES>
CC(=CCC1=C(OC2=CC(=CC(=C2C1=O)O)O)C3=C4C(=C(C=C3)O)C=CC(O4)(C)C)C

>  <PUBCHEM_CACTVS_TPSA>
96.2

>  <PUBCHEM_MONOISOTOPIC_WEIGHT>
420.157

>  <PUBCHEM_TOTAL_CHARGE>
0

>  <PUBCHEM_HEAVY_ATOM_COUNT>
31

>  <PUBCHEM_ATOM_DEF_STEREO_COUNT>
0

>  <PUBCHEM_ATOM_UDEF_STEREO_COUNT>
0

>  <PUBCHEM_BOND_DEF_STEREO_COUNT>
0

>  <PUBCHEM_BOND_UDEF_STEREO_COUNT>
0

>  <PUBCHEM_ISOTOPIC_ATOM_COUNT>
0

>  <PUBCHEM_COMPONENT_COUNT>
1

>  <PUBCHEM_CACTVS_TAUTO_COUNT>
69

>  <PUBCHEM_COORDINATE_TYPE>
1
5
255

>  <PUBCHEM_BONDANNOTATIONS>
10  17  8
12  13  8
13  20  8
17  23  8
18  23  8
2  12  8
2  22  8
20  21  8
21  22  8
21  24  8
22  26  8
24  27  8
26  28  8
27  28  8
8  10  8
8  9  8
9  18  8

$$$$
