44260099
 OpenBabel06101807152D

 42 45  0  0  0  0  0  0  0  0999 V2000
    6.3582    0.8775    0.0000 O   0  0  0  0  0  0  0  0  0  0  0  0
    8.1421    0.5032    0.0000 O   0  0  0  0  0  0  0  0  0  0  0  0
    2.8687   -0.0268    0.0000 O   0  0  0  0  0  0  0  0  0  0  0  0
    7.2151   -2.3500    0.0000 O   0  0  0  0  0  0  0  0  0  0  0  0
    8.8672   -2.9232    0.0000 O   0  0  0  0  0  0  0  0  0  0  0  0
   11.5069   -0.5647    0.0000 O   0  0  0  0  0  0  0  0  0  0  0  0
    5.8609   -0.6532    0.0000 C   0  0  0  0  0  0  0  0  0  0  0  0
    5.5545    0.2925    0.0000 C   0  0  0  0  0  0  0  0  0  0  0  0
    6.8550   -0.6558    0.0000 C   0  0  0  0  0  0  0  0  0  0  0  0
    4.5453    0.5242    0.0000 C   0  0  0  0  0  0  0  0  0  0  0  0
    7.1640    0.2953    0.0000 C   0  0  0  0  0  0  0  0  0  0  0  0
    7.5241   -1.3989    0.0000 C   0  0  0  0  0  0  0  0  0  0  0  0
    4.2482    1.4790    0.0000 C   0  0  0  0  0  0  0  0  0  0  0  0
    8.5022   -1.1910    0.0000 C   0  0  0  0  0  0  0  0  0  0  0  0
    5.1793   -1.4327    0.0000 C   0  0  0  0  0  0  0  0  0  0  0  0
    3.8459   -0.2393    0.0000 C   0  0  0  0  0  0  0  0  0  0  0  0
    8.8113   -0.2400    0.0000 C   0  0  0  0  0  0  0  0  0  0  0  0
    4.1650   -1.2244    0.0000 C   0  0  0  0  0  0  0  0  0  0  0  0
    9.1872   -1.9758    0.0000 C   0  0  0  0  0  0  0  0  0  0  0  0
    3.2727    1.6991    0.0000 C   0  0  0  0  0  0  0  0  0  0  0  0
    9.8267   -0.0077    0.0000 C   0  0  0  0  0  0  0  0  0  0  0  0
   10.2077   -1.7671    0.0000 C   0  0  0  0  0  0  0  0  0  0  0  0
   10.5296   -0.7764    0.0000 C   0  0  0  0  0  0  0  0  0  0  0  0
    2.9755    2.6539    0.0000 C   0  0  0  0  0  0  0  0  0  0  0  0
    2.0000    2.8740    0.0000 C   0  0  0  0  0  0  0  0  0  0  0  0
    3.6538    3.3887    0.0000 C   0  0  0  0  0  0  0  0  0  0  0  0
    4.8631    1.5577    0.0000 H   0  0  0  0  0  0  0  0  0  0  0  0
    4.2775    2.0984    0.0000 H   0  0  0  0  0  0  0  0  0  0  0  0
    5.3772   -2.0203    0.0000 H   0  0  0  0  0  0  0  0  0  0  0  0
    3.7515   -1.6864    0.0000 H   0  0  0  0  0  0  0  0  0  0  0  0
    2.8521    1.2435    0.0000 H   0  0  0  0  0  0  0  0  0  0  0  0
   10.0114    0.5841    0.0000 H   0  0  0  0  0  0  0  0  0  0  0  0
   10.6208   -2.2294    0.0000 H   0  0  0  0  0  0  0  0  0  0  0  0
    2.4517   -0.4856    0.0000 H   0  0  0  0  0  0  0  0  0  0  0  0
    2.1364    3.4788    0.0000 H   0  0  0  0  0  0  0  0  0  0  0  0
    1.3952    3.0104    0.0000 H   0  0  0  0  0  0  0  0  0  0  0  0
    4.1094    2.9681    0.0000 H   0  0  0  0  0  0  0  0  0  0  0  0
    4.0744    3.8443    0.0000 H   0  0  0  0  0  0  0  0  0  0  0  0
    3.1982    3.8092    0.0000 H   0  0  0  0  0  0  0  0  0  0  0  0
    1.8636    2.2692    0.0000 H   0  0  0  0  0  0  0  0  0  0  0  0
    9.2767   -3.3887    0.0000 H   0  0  0  0  0  0  0  0  0  0  0  0
   11.9236   -1.0239    0.0000 H   0  0  0  0  0  0  0  0  0  0  0  0
  1  8  1  0  0  0  0
  1 11  1  0  0  0  0
  2 11  1  0  0  0  0
  2 17  1  0  0  0  0
  3 16  1  0  0  0  0
  3 34  1  0  0  0  0
  4 12  2  0  0  0  0
  5 19  1  0  0  0  0
  5 41  1  0  0  0  0
  6 23  1  0  0  0  0
  6 42  1  0  0  0  0
  7  8  2  0  0  0  0
  7  9  1  0  0  0  0
  7 15  1  0  0  0  0
  8 10  1  0  0  0  0
  9 11  2  0  0  0  0
  9 12  1  0  0  0  0
 10 13  1  0  0  0  0
 10 16  2  0  0  0  0
 12 14  1  0  0  0  0
 13 20  1  0  0  0  0
 13 27  1  0  0  0  0
 13 28  1  0  0  0  0
 14 17  1  0  0  0  0
 14 19  2  0  0  0  0
 15 18  2  0  0  0  0
 15 29  1  0  0  0  0
 16 18  1  0  0  0  0
 17 21  2  0  0  0  0
 18 30  1  0  0  0  0
 19 22  1  0  0  0  0
 20 24  2  0  0  0  0
 20 31  1  0  0  0  0
 21 23  1  0  0  0  0
 21 32  1  0  0  0  0
 22 23  2  0  0  0  0
 22 33  1  0  0  0  0
 24 25  1  0  0  0  0
 24 26  1  0  0  0  0
 25 35  1  0  0  0  0
 25 36  1  0  0  0  0
 25 40  1  0  0  0  0
 26 37  1  0  0  0  0
 26 38  1  0  0  0  0
 26 39  1  0  0  0  0
M  END
>  <PUBCHEM_COMPOUND_CID>
44260099

>  <PUBCHEM_COMPOUND_CANONICALIZED>
1

>  <PUBCHEM_CACTVS_COMPLEXITY>
585

>  <PUBCHEM_CACTVS_HBOND_ACCEPTOR>
6

>  <PUBCHEM_CACTVS_HBOND_DONOR>
3

>  <PUBCHEM_CACTVS_ROTATABLE_BOND>
2

>  <PUBCHEM_CACTVS_SUBSKEYS>
AAADceB4OAAAAAAAAAAAAAAAAAAAASAAAAA0YIAAAAAAAEiR9AAAGgAACAAADASAmAAyDsAABkCIAqDSCAACCAAkIAAIiAEGCMgcJzaONRqie2Cl4BUMuYfL7PzOoAACCAAIAABAAAQQABAAAAAAAAAAAA==

>  <PUBCHEM_IUPAC_OPENEYE_NAME>
1,3,8-trihydroxy-7-(3-methylbut-2-enyl)benzofuro[2,3-b]chromen-11-one

>  <PUBCHEM_IUPAC_CAS_NAME>
1,3,8-trihydroxy-7-(3-methylbut-2-enyl)-11-benzofuro[2,3-b][1]benzopyranone

>  <PUBCHEM_IUPAC_NAME>
1,3,8-trihydroxy-7-(3-methylbut-2-enyl)-[1]benzofuro[2,3-b]chromen-11-one

>  <PUBCHEM_IUPAC_SYSTEMATIC_NAME>
7-(3-methylbut-2-enyl)-1,3,8-tris(oxidanyl)-[1]benzofuro[2,3-b]chromen-11-one

>  <PUBCHEM_IUPAC_TRADITIONAL_NAME>
1,3,8-trihydroxy-7-(3-methylbut-2-enyl)benzofuro[2,3-b]chromen-11-one

>  <PUBCHEM_IUPAC_INCHI>
InChI=1S/C20H16O6/c1-9(2)3-4-11-13(22)6-5-12-16-18(24)17-14(23)7-10(21)8-15(17)25-20(16)26-19(11)12/h3,5-8,21-23H,4H2,1-2H3

>  <PUBCHEM_IUPAC_INCHIKEY>
LYRCFNWWKHICBC-UHFFFAOYSA-N

>  <PUBCHEM_XLOGP3_AA>
5.1

>  <PUBCHEM_EXACT_MASS>
352.095

>  <PUBCHEM_MOLECULAR_FORMULA>
C20H16O6

>  <PUBCHEM_MOLECULAR_WEIGHT>
352.342

>  <PUBCHEM_OPENEYE_CAN_SMILES>
CC(=CCC1=C(C=CC2=C1OC3=C2C(=O)C4=C(C=C(C=C4O3)O)O)O)C

>  <PUBCHEM_OPENEYE_ISO_SMILES>
CC(=CCC1=C(C=CC2=C1OC3=C2C(=O)C4=C(C=C(C=C4O3)O)O)O)C

>  <PUBCHEM_CACTVS_TPSA>
100

>  <PUBCHEM_MONOISOTOPIC_WEIGHT>
352.095

>  <PUBCHEM_TOTAL_CHARGE>
0

>  <PUBCHEM_HEAVY_ATOM_COUNT>
26

>  <PUBCHEM_ATOM_DEF_STEREO_COUNT>
0

>  <PUBCHEM_ATOM_UDEF_STEREO_COUNT>
0

>  <PUBCHEM_BOND_DEF_STEREO_COUNT>
0

>  <PUBCHEM_BOND_UDEF_STEREO_COUNT>
0

>  <PUBCHEM_ISOTOPIC_ATOM_COUNT>
0

>  <PUBCHEM_COMPONENT_COUNT>
1

>  <PUBCHEM_CACTVS_TAUTO_COUNT>
36

>  <PUBCHEM_COORDINATE_TYPE>
1
5
255

>  <PUBCHEM_BONDANNOTATIONS>
1  11  8
1  8  8
10  16  8
12  14  8
14  17  8
14  19  8
15  18  8
16  18  8
17  21  8
19  22  8
2  11  8
2  17  8
21  23  8
22  23  8
7  15  8
7  8  8
7  9  8
8  10  8
9  11  8
9  12  8

$$$$
