44260065
 OpenBabel06101807152D

 34 36  0  0  0  0  0  0  0  0999 V2000
    6.0290   -0.2699    0.0000 O   0  0  0  0  0  0  0  0  0  0  0  0
    7.7991    1.7889    0.0000 O   0  0  0  0  0  0  0  0  0  0  0  0
    4.2690    2.7648    0.0000 O   0  0  0  0  0  0  0  0  0  0  0  0
    4.2690   -1.2352    0.0000 O   0  0  0  0  0  0  0  0  0  0  0  0
    2.5369    1.7648    0.0000 O   0  0  0  0  0  0  0  0  0  0  0  0
    2.5369   -0.2352    0.0000 O   0  0  0  0  0  0  0  0  0  0  0  0
    6.0174    2.7994    0.0000 O   0  0  0  0  0  0  0  0  0  0  0  0
    8.6555   -2.7627    0.0000 O   0  0  0  0  0  0  0  0  0  0  0  0
   10.3914   -1.7694    0.0000 O   0  0  0  0  0  0  0  0  0  0  0  0
    5.1350    1.2648    0.0000 C   0  0  0  0  0  0  0  0  0  0  0  0
    5.1350    0.2648    0.0000 C   0  0  0  0  0  0  0  0  0  0  0  0
    6.9350    0.2440    0.0000 C   0  0  0  0  0  0  0  0  0  0  0  0
    6.0290    1.7994    0.0000 C   0  0  0  0  0  0  0  0  0  0  0  0
    6.9350    1.2856    0.0000 C   0  0  0  0  0  0  0  0  0  0  0  0
    4.2690    1.7648    0.0000 C   0  0  0  0  0  0  0  0  0  0  0  0
    7.7991   -0.2594    0.0000 C   0  0  0  0  0  0  0  0  0  0  0  0
    4.2690   -0.2352    0.0000 C   0  0  0  0  0  0  0  0  0  0  0  0
    3.4030    1.2648    0.0000 C   0  0  0  0  0  0  0  0  0  0  0  0
    3.4030    0.2648    0.0000 C   0  0  0  0  0  0  0  0  0  0  0  0
    7.7953   -1.2594    0.0000 C   0  0  0  0  0  0  0  0  0  0  0  0
    8.6671    0.2373    0.0000 C   0  0  0  0  0  0  0  0  0  0  0  0
    8.6594   -1.7627    0.0000 C   0  0  0  0  0  0  0  0  0  0  0  0
    9.5312   -0.2661    0.0000 C   0  0  0  0  0  0  0  0  0  0  0  0
    9.5273   -1.2660    0.0000 C   0  0  0  0  0  0  0  0  0  0  0  0
    7.2571   -1.5673    0.0000 H   0  0  0  0  0  0  0  0  0  0  0  0
    8.6694    0.8573    0.0000 H   0  0  0  0  0  0  0  0  0  0  0  0
   10.0693    0.0419    0.0000 H   0  0  0  0  0  0  0  0  0  0  0  0
    7.7967    2.4089    0.0000 H   0  0  0  0  0  0  0  0  0  0  0  0
    3.7320    3.0748    0.0000 H   0  0  0  0  0  0  0  0  0  0  0  0
    3.7320   -1.5452    0.0000 H   0  0  0  0  0  0  0  0  0  0  0  0
    2.0000    1.4548    0.0000 H   0  0  0  0  0  0  0  0  0  0  0  0
    2.0000    0.0748    0.0000 H   0  0  0  0  0  0  0  0  0  0  0  0
    9.1912   -3.0748    0.0000 H   0  0  0  0  0  0  0  0  0  0  0  0
   10.9295   -1.4615    0.0000 H   0  0  0  0  0  0  0  0  0  0  0  0
  1 11  1  0  0  0  0
  1 12  1  0  0  0  0
  2 14  1  0  0  0  0
  2 28  1  0  0  0  0
  3 15  1  0  0  0  0
  3 29  1  0  0  0  0
  4 17  1  0  0  0  0
  4 30  1  0  0  0  0
  5 18  1  0  0  0  0
  5 31  1  0  0  0  0
  6 19  1  0  0  0  0
  6 32  1  0  0  0  0
  7 13  2  0  0  0  0
  8 22  1  0  0  0  0
  8 33  1  0  0  0  0
  9 24  1  0  0  0  0
  9 34  1  0  0  0  0
 10 11  1  0  0  0  0
 10 13  1  0  0  0  0
 10 15  2  0  0  0  0
 11 17  2  0  0  0  0
 12 14  2  0  0  0  0
 12 16  1  0  0  0  0
 13 14  1  0  0  0  0
 15 18  1  0  0  0  0
 16 20  2  0  0  0  0
 16 21  1  0  0  0  0
 17 19  1  0  0  0  0
 18 19  2  0  0  0  0
 20 22  1  0  0  0  0
 20 25  1  0  0  0  0
 21 23  2  0  0  0  0
 21 26  1  0  0  0  0
 22 24  2  0  0  0  0
 23 24  1  0  0  0  0
 23 27  1  0  0  0  0
M  END
>  <PUBCHEM_COMPOUND_CID>
44260065

>  <PUBCHEM_COMPOUND_CANONICALIZED>
1

>  <PUBCHEM_CACTVS_COMPLEXITY>
547

>  <PUBCHEM_CACTVS_HBOND_ACCEPTOR>
9

>  <PUBCHEM_CACTVS_HBOND_DONOR>
7

>  <PUBCHEM_CACTVS_ROTATABLE_BOND>
1

>  <PUBCHEM_CACTVS_SUBSKEYS>
AAADccBwPAAAAAAAAAAAAAAAAAAAAAAAAAAwYIAAAAAAAACBQAAAGgAACAAADASAmAAwBoAABgCIAqBSAAICCAAkIAAIiAFGiMgNJzaGNRqCeWOl4BULuQfK7LzOIQABCAAIQABCAAIQABCAAAAAAAAAAA==

>  <PUBCHEM_IUPAC_OPENEYE_NAME>
2-(3,4-dihydroxyphenyl)-3,5,6,7,8-pentahydroxy-chromen-4-one

>  <PUBCHEM_IUPAC_CAS_NAME>
2-(3,4-dihydroxyphenyl)-3,5,6,7,8-pentahydroxy-1-benzopyran-4-one

>  <PUBCHEM_IUPAC_NAME>
2-(3,4-dihydroxyphenyl)-3,5,6,7,8-pentahydroxychromen-4-one

>  <PUBCHEM_IUPAC_SYSTEMATIC_NAME>
2-[3,4-bis(oxidanyl)phenyl]-3,5,6,7,8-pentakis(oxidanyl)chromen-4-one

>  <PUBCHEM_IUPAC_TRADITIONAL_NAME>
2-(3,4-dihydroxyphenyl)-3,5,6,7,8-pentahydroxy-chromone

>  <PUBCHEM_IUPAC_INCHI>
InChI=1S/C15H10O9/c16-5-2-1-4(3-6(5)17)14-12(22)9(19)7-8(18)10(20)11(21)13(23)15(7)24-14/h1-3,16-18,20-23H

>  <PUBCHEM_IUPAC_INCHIKEY>
IVVIBMKOLWEERH-UHFFFAOYSA-N

>  <PUBCHEM_XLOGP3_AA>
1.5

>  <PUBCHEM_EXACT_MASS>
334.032

>  <PUBCHEM_MOLECULAR_FORMULA>
C15H10O9

>  <PUBCHEM_MOLECULAR_WEIGHT>
334.236

>  <PUBCHEM_OPENEYE_CAN_SMILES>
C1=CC(=C(C=C1C2=C(C(=O)C3=C(O2)C(=C(C(=C3O)O)O)O)O)O)O

>  <PUBCHEM_OPENEYE_ISO_SMILES>
C1=CC(=C(C=C1C2=C(C(=O)C3=C(O2)C(=C(C(=C3O)O)O)O)O)O)O

>  <PUBCHEM_CACTVS_TPSA>
168

>  <PUBCHEM_MONOISOTOPIC_WEIGHT>
334.032

>  <PUBCHEM_TOTAL_CHARGE>
0

>  <PUBCHEM_HEAVY_ATOM_COUNT>
24

>  <PUBCHEM_ATOM_DEF_STEREO_COUNT>
0

>  <PUBCHEM_ATOM_UDEF_STEREO_COUNT>
0

>  <PUBCHEM_BOND_DEF_STEREO_COUNT>
0

>  <PUBCHEM_BOND_UDEF_STEREO_COUNT>
0

>  <PUBCHEM_ISOTOPIC_ATOM_COUNT>
0

>  <PUBCHEM_COMPONENT_COUNT>
1

>  <PUBCHEM_CACTVS_TAUTO_COUNT>
998

>  <PUBCHEM_COORDINATE_TYPE>
1
5
255

>  <PUBCHEM_BONDANNOTATIONS>
1  11  8
1  12  8
10  11  8
10  13  8
10  15  8
11  17  8
12  14  8
13  14  8
15  18  8
16  20  8
16  21  8
17  19  8
18  19  8
20  22  8
21  23  8
22  24  8
23  24  8

$$$$
