44359816
 OpenBabel06101807152D

193196  0  0  1  0  0  0  0  0999 V2000
    3.4030    5.7486    0.0000 S   0  0  0  0  0  0  0  0  0  0  0  0
   19.3697   -1.1974    0.0000 O   0  0  0  0  0  0  0  0  0  0  0  0
   22.9660   -0.9395    0.0000 O   0  0  0  0  0  0  0  0  0  0  0  0
   18.1254   -1.7514    0.0000 O   0  0  0  0  0  0  0  0  0  0  0  0
   20.3604    0.4329    0.0000 O   0  0  0  0  0  0  0  0  0  0  0  0
   15.5273   -4.2514    0.0000 O   0  0  0  0  0  0  0  0  0  0  0  0
   16.3933    0.2486    0.0000 O   0  0  0  0  0  0  0  0  0  0  0  0
   12.9292   -1.7514    0.0000 O   0  0  0  0  0  0  0  0  0  0  0  0
   13.7953   -6.2514    0.0000 O   0  0  0  0  0  0  0  0  0  0  0  0
   12.0632   -1.2514    0.0000 O   0  0  0  0  0  0  0  0  0  0  0  0
    9.4651    1.2486    0.0000 O   0  0  0  0  0  0  0  0  0  0  0  0
    6.0010    4.2486    0.0000 O   0  0  0  0  0  0  0  0  0  0  0  0
    8.5991    1.7486    0.0000 O   0  0  0  0  0  0  0  0  0  0  0  0
    3.4030    1.7486    0.0000 O   0  0  0  0  0  0  0  0  0  0  0  0
   19.9050   -2.8447    0.0000 N   0  0  0  0  0  0  0  0  0  0  0  0
   21.7617    1.4509    0.0000 N   0  0  0  0  0  0  0  0  0  0  0  0
   21.2718   -0.5794    0.0000 N   0  0  0  0  0  0  0  0  0  0  0  0
   17.2594   -3.2514    0.0000 N   0  0  0  0  0  0  0  0  0  0  0  0
   20.5861    3.0690    0.0000 N   0  0  0  0  0  0  0  0  0  0  0  0
   14.6613   -2.7514    0.0000 N   0  0  0  0  0  0  0  0  0  0  0  0
   25.1955   -2.9469    0.0000 N   0  0  0  0  0  0  0  0  0  0  0  0
   18.4160    4.5825    0.0000 N   0  0  0  0  0  0  0  0  0  0  0  0
   12.0632   -3.2514    0.0000 N   0  0  0  0  0  0  0  0  0  0  0  0
   18.1254    0.2486    0.0000 N   0  0  0  0  0  0  0  0  0  0  0  0
   19.8173    5.6005    0.0000 N   0  0  0  0  0  0  0  0  0  0  0  0
   18.2350    6.3050    0.0000 N   0  0  0  0  0  0  0  0  0  0  0  0
   10.3312   -1.2514    0.0000 N   0  0  0  0  0  0  0  0  0  0  0  0
   15.5273   -6.2514    0.0000 N   0  0  0  0  0  0  0  0  0  0  0  0
    6.8671    1.7486    0.0000 N   0  0  0  0  0  0  0  0  0  0  0  0
    8.5991   -0.2514    0.0000 N   0  0  0  0  0  0  0  0  0  0  0  0
    5.1350    2.7486    0.0000 N   0  0  0  0  0  0  0  0  0  0  0  0
    2.5369    3.2486    0.0000 N   0  0  0  0  0  0  0  0  0  0  0  0
   18.9914   -3.2514    0.0000 C   0  0  1  0  0  0  0  0  0  0  0  0
   22.4308    0.7078    0.0000 C   0  0  2  0  0  0  0  0  0  0  0  0
   19.0959   -4.2460    0.0000 C   0  0  0  0  0  0  0  0  0  0  0  0
   20.5741   -3.5878    0.0000 C   0  0  0  0  0  0  0  0  0  0  0  0
   20.0741   -4.4539    0.0000 C   0  0  0  0  0  0  0  0  0  0  0  0
   23.3444    1.1145    0.0000 C   0  0  0  0  0  0  0  0  0  0  0  0
   23.2398    2.1090    0.0000 C   0  0  0  0  0  0  0  0  0  0  0  0
   21.0639   -1.5575    0.0000 C   0  0  2  0  0  0  0  0  0  0  0  0
   22.2617    2.3170    0.0000 C   0  0  0  0  0  0  0  0  0  0  0  0
   20.1129   -1.8665    0.0000 C   0  0  0  0  0  0  0  0  0  0  0  0
   22.2229   -0.2704    0.0000 C   0  0  0  0  0  0  0  0  0  0  0  0
   21.8071   -2.2267    0.0000 C   0  0  0  0  0  0  0  0  0  0  0  0
   18.1254   -2.7514    0.0000 C   0  0  0  0  0  0  0  0  0  0  0  0
   20.7672    1.3464    0.0000 C   0  0  0  0  0  0  0  0  0  0  0  0
   22.7581   -1.9176    0.0000 C   0  0  0  0  0  0  0  0  0  0  0  0
   20.1794    2.1554    0.0000 C   0  0  2  0  0  0  0  0  0  0  0  0
   16.3933   -2.7514    0.0000 C   0  0  2  0  0  0  0  0  0  0  0  0
   19.1849    2.0509    0.0000 C   0  0  0  0  0  0  0  0  0  0  0  0
   23.5013   -2.5868    0.0000 C   0  0  0  0  0  0  0  0  0  0  0  0
   16.3933   -1.7514    0.0000 C   0  0  0  0  0  0  0  0  0  0  0  0
   18.5971    2.8599    0.0000 C   0  0  0  0  0  0  0  0  0  0  0  0
   24.4523   -2.2778    0.0000 C   0  0  0  0  0  0  0  0  0  0  0  0
   15.5273   -3.2514    0.0000 C   0  0  0  0  0  0  0  0  0  0  0  0
   17.2594   -1.2514    0.0000 C   0  0  0  0  0  0  0  0  0  0  0  0
   19.0038    3.7734    0.0000 C   0  0  0  0  0  0  0  0  0  0  0  0
   13.7953   -3.2514    0.0000 C   0  0  1  0  0  0  0  0  0  0  0  0
   13.7953   -4.2514    0.0000 C   0  0  0  0  0  0  0  0  0  0  0  0
   17.2594   -0.2514    0.0000 C   0  0  0  0  0  0  0  0  0  0  0  0
   12.9292   -2.7514    0.0000 C   0  0  0  0  0  0  0  0  0  0  0  0
   14.6613   -4.7514    0.0000 C   0  0  0  0  0  0  0  0  0  0  0  0
   11.1972   -2.7514    0.0000 C   0  0  2  0  0  0  0  0  0  0  0  0
   18.8228    5.4960    0.0000 C   0  0  0  0  0  0  0  0  0  0  0  0
   10.3312   -3.2514    0.0000 C   0  0  0  0  0  0  0  0  0  0  0  0
   14.6613   -5.7514    0.0000 C   0  0  0  0  0  0  0  0  0  0  0  0
   11.1972   -1.7514    0.0000 C   0  0  0  0  0  0  0  0  0  0  0  0
   10.3312   -4.2514    0.0000 C   0  0  0  0  0  0  0  0  0  0  0  0
   10.3312   -0.2514    0.0000 C   0  0  2  0  0  0  0  0  0  0  0  0
   11.1972    0.2486    0.0000 C   0  0  0  0  0  0  0  0  0  0  0  0
    7.7331    3.2486    0.0000 C   0  0  0  0  0  0  0  0  0  0  0  0
    6.8671    2.7486    0.0000 C   0  0  2  0  0  0  0  0  0  0  0  0
    7.7331    4.2486    0.0000 C   0  0  0  0  0  0  0  0  0  0  0  0
    9.4651   -4.7514    0.0000 C   0  0  0  0  0  0  0  0  0  0  0  0
   11.1972   -4.7514    0.0000 C   0  0  0  0  0  0  0  0  0  0  0  0
    9.4651    0.2486    0.0000 C   0  0  0  0  0  0  0  0  0  0  0  0
   11.1972    1.2486    0.0000 C   0  0  0  0  0  0  0  0  0  0  0  0
    6.0010    3.2486    0.0000 C   0  0  0  0  0  0  0  0  0  0  0  0
    8.5991    4.7486    0.0000 C   0  0  0  0  0  0  0  0  0  0  0  0
    6.8671    4.7486    0.0000 C   0  0  0  0  0  0  0  0  0  0  0  0
    9.4651   -5.7514    0.0000 C   0  0  0  0  0  0  0  0  0  0  0  0
   11.1972   -5.7514    0.0000 C   0  0  0  0  0  0  0  0  0  0  0  0
    7.7331    0.2486    0.0000 C   0  0  0  0  0  0  0  0  0  0  0  0
    7.7331    1.2486    0.0000 C   0  0  0  0  0  0  0  0  0  0  0  0
    4.2690    3.2486    0.0000 C   0  0  1  0  0  0  0  0  0  0  0  0
   10.3312   -6.2514    0.0000 C   0  0  0  0  0  0  0  0  0  0  0  0
    4.2690    4.2486    0.0000 C   0  0  0  0  0  0  0  0  0  0  0  0
   10.3312    1.7486    0.0000 C   0  0  0  0  0  0  0  0  0  0  0  0
   12.0632    1.7486    0.0000 C   0  0  0  0  0  0  0  0  0  0  0  0
    3.4030    2.7486    0.0000 C   0  0  0  0  0  0  0  0  0  0  0  0
    3.4030    4.7486    0.0000 C   0  0  0  0  0  0  0  0  0  0  0  0
   10.3312    2.7486    0.0000 C   0  0  0  0  0  0  0  0  0  0  0  0
   12.0632    2.7486    0.0000 C   0  0  0  0  0  0  0  0  0  0  0  0
   11.1972    3.2486    0.0000 C   0  0  0  0  0  0  0  0  0  0  0  0
    2.5369    6.2486    0.0000 C   0  0  0  0  0  0  0  0  0  0  0  0
   19.0239   -2.6323    0.0000 H   0  0  0  0  0  0  0  0  0  0  0  0
   21.8319    0.5473    0.0000 H   0  0  0  0  0  0  0  0  0  0  0  0
   18.4759   -4.2460    0.0000 H   0  0  0  0  0  0  0  0  0  0  0  0
   19.0311   -4.8626    0.0000 H   0  0  0  0  0  0  0  0  0  0  0  0
   21.0757   -3.9523    0.0000 H   0  0  0  0  0  0  0  0  0  0  0  0
   20.9890   -3.1271    0.0000 H   0  0  0  0  0  0  0  0  0  0  0  0
   19.8825   -5.0435    0.0000 H   0  0  0  0  0  0  0  0  0  0  0  0
   20.6405   -4.7060    0.0000 H   0  0  0  0  0  0  0  0  0  0  0  0
   23.5359    0.5249    0.0000 H   0  0  0  0  0  0  0  0  0  0  0  0
   23.9508    1.2434    0.0000 H   0  0  0  0  0  0  0  0  0  0  0  0
   23.8598    2.1090    0.0000 H   0  0  0  0  0  0  0  0  0  0  0  0
   23.3046    2.7256    0.0000 H   0  0  0  0  0  0  0  0  0  0  0  0
   21.6536   -1.3659    0.0000 H   0  0  0  0  0  0  0  0  0  0  0  0
   22.4533    2.9066    0.0000 H   0  0  0  0  0  0  0  0  0  0  0  0
   21.6953    2.5691    0.0000 H   0  0  0  0  0  0  0  0  0  0  0  0
   21.3185   -2.6084    0.0000 H   0  0  0  0  0  0  0  0  0  0  0  0
   22.0982   -2.7741    0.0000 H   0  0  0  0  0  0  0  0  0  0  0  0
   20.8111   -0.1645    0.0000 H   0  0  0  0  0  0  0  0  0  0  0  0
   23.2467   -1.5359    0.0000 H   0  0  0  0  0  0  0  0  0  0  0  0
   22.4671   -1.3702    0.0000 H   0  0  0  0  0  0  0  0  0  0  0  0
   19.8149    2.6570    0.0000 H   0  0  0  0  0  0  0  0  0  0  0  0
   17.2594   -3.8714    0.0000 H   0  0  0  0  0  0  0  0  0  0  0  0
   16.9303   -2.4414    0.0000 H   0  0  0  0  0  0  0  0  0  0  0  0
   18.6276    1.7791    0.0000 H   0  0  0  0  0  0  0  0  0  0  0  0
   19.3557    1.4549    0.0000 H   0  0  0  0  0  0  0  0  0  0  0  0
   23.0127   -2.9685    0.0000 H   0  0  0  0  0  0  0  0  0  0  0  0
   23.7924   -3.1342    0.0000 H   0  0  0  0  0  0  0  0  0  0  0  0
   16.1813   -1.1688    0.0000 H   0  0  0  0  0  0  0  0  0  0  0  0
   15.7828   -1.8591    0.0000 H   0  0  0  0  0  0  0  0  0  0  0  0
   18.0831    3.2066    0.0000 H   0  0  0  0  0  0  0  0  0  0  0  0
   18.1664    2.4139    0.0000 H   0  0  0  0  0  0  0  0  0  0  0  0
   21.2027    3.1338    0.0000 H   0  0  0  0  0  0  0  0  0  0  0  0
   20.2217    3.5706    0.0000 H   0  0  0  0  0  0  0  0  0  0  0  0
   24.9409   -1.8960    0.0000 H   0  0  0  0  0  0  0  0  0  0  0  0
   24.1613   -1.7303    0.0000 H   0  0  0  0  0  0  0  0  0  0  0  0
   17.4714   -1.8340    0.0000 H   0  0  0  0  0  0  0  0  0  0  0  0
   17.8699   -1.1438    0.0000 H   0  0  0  0  0  0  0  0  0  0  0  0
   19.5178    3.4268    0.0000 H   0  0  0  0  0  0  0  0  0  0  0  0
   19.4345    4.2194    0.0000 H   0  0  0  0  0  0  0  0  0  0  0  0
   14.6613   -2.1314    0.0000 H   0  0  0  0  0  0  0  0  0  0  0  0
   14.3322   -3.5614    0.0000 H   0  0  0  0  0  0  0  0  0  0  0  0
   25.7851   -2.7553    0.0000 H   0  0  0  0  0  0  0  0  0  0  0  0
   25.0666   -3.5533    0.0000 H   0  0  0  0  0  0  0  0  0  0  0  0
   13.1847   -4.1438    0.0000 H   0  0  0  0  0  0  0  0  0  0  0  0
   13.5832   -4.8340    0.0000 H   0  0  0  0  0  0  0  0  0  0  0  0
   15.2719   -4.8591    0.0000 H   0  0  0  0  0  0  0  0  0  0  0  0
   14.8733   -4.1688    0.0000 H   0  0  0  0  0  0  0  0  0  0  0  0
   12.0632   -3.8714    0.0000 H   0  0  0  0  0  0  0  0  0  0  0  0
   11.1972   -3.3714    0.0000 H   0  0  0  0  0  0  0  0  0  0  0  0
   18.1254    0.8686    0.0000 H   0  0  0  0  0  0  0  0  0  0  0  0
   18.6623   -0.0614    0.0000 H   0  0  0  0  0  0  0  0  0  0  0  0
   10.1191   -2.6688    0.0000 H   0  0  0  0  0  0  0  0  0  0  0  0
    9.7206   -3.3591    0.0000 H   0  0  0  0  0  0  0  0  0  0  0  0
   20.0695    6.1669    0.0000 H   0  0  0  0  0  0  0  0  0  0  0  0
   20.1817    5.0990    0.0000 H   0  0  0  0  0  0  0  0  0  0  0  0
   18.4871    6.8714    0.0000 H   0  0  0  0  0  0  0  0  0  0  0  0
   17.6184    6.2402    0.0000 H   0  0  0  0  0  0  0  0  0  0  0  0
    9.7942   -1.5614    0.0000 H   0  0  0  0  0  0  0  0  0  0  0  0
   10.8681   -0.5614    0.0000 H   0  0  0  0  0  0  0  0  0  0  0  0
   15.5273   -6.8714    0.0000 H   0  0  0  0  0  0  0  0  0  0  0  0
   16.0643   -5.9414    0.0000 H   0  0  0  0  0  0  0  0  0  0  0  0
   11.4092   -0.3340    0.0000 H   0  0  0  0  0  0  0  0  0  0  0  0
   11.8078    0.3562    0.0000 H   0  0  0  0  0  0  0  0  0  0  0  0
    7.9451    2.6660    0.0000 H   0  0  0  0  0  0  0  0  0  0  0  0
    8.3437    3.3562    0.0000 H   0  0  0  0  0  0  0  0  0  0  0  0
    6.3301    2.4386    0.0000 H   0  0  0  0  0  0  0  0  0  0  0  0
    7.7331    4.8686    0.0000 H   0  0  0  0  0  0  0  0  0  0  0  0
    8.9282   -4.4414    0.0000 H   0  0  0  0  0  0  0  0  0  0  0  0
   11.7341   -4.4414    0.0000 H   0  0  0  0  0  0  0  0  0  0  0  0
    6.3301    1.4386    0.0000 H   0  0  0  0  0  0  0  0  0  0  0  0
    7.1771    5.2855    0.0000 H   0  0  0  0  0  0  0  0  0  0  0  0
    6.3301    5.0586    0.0000 H   0  0  0  0  0  0  0  0  0  0  0  0
    8.9091    4.2116    0.0000 H   0  0  0  0  0  0  0  0  0  0  0  0
    9.1360    5.0586    0.0000 H   0  0  0  0  0  0  0  0  0  0  0  0
    8.2891    5.2855    0.0000 H   0  0  0  0  0  0  0  0  0  0  0  0
    6.5571    4.2116    0.0000 H   0  0  0  0  0  0  0  0  0  0  0  0
    8.5991   -0.8714    0.0000 H   0  0  0  0  0  0  0  0  0  0  0  0
    8.9282   -6.0614    0.0000 H   0  0  0  0  0  0  0  0  0  0  0  0
   11.7341   -6.0614    0.0000 H   0  0  0  0  0  0  0  0  0  0  0  0
    7.1225    0.3562    0.0000 H   0  0  0  0  0  0  0  0  0  0  0  0
    7.5210   -0.3340    0.0000 H   0  0  0  0  0  0  0  0  0  0  0  0
    4.2690    2.6286    0.0000 H   0  0  0  0  0  0  0  0  0  0  0  0
    5.1350    2.1286    0.0000 H   0  0  0  0  0  0  0  0  0  0  0  0
   10.3312   -6.8714    0.0000 H   0  0  0  0  0  0  0  0  0  0  0  0
    4.8796    4.1409    0.0000 H   0  0  0  0  0  0  0  0  0  0  0  0
    4.4810    4.8312    0.0000 H   0  0  0  0  0  0  0  0  0  0  0  0
    9.7942    1.4386    0.0000 H   0  0  0  0  0  0  0  0  0  0  0  0
   12.6002    1.4386    0.0000 H   0  0  0  0  0  0  0  0  0  0  0  0
    2.7924    4.8562    0.0000 H   0  0  0  0  0  0  0  0  0  0  0  0
    3.1909    4.1660    0.0000 H   0  0  0  0  0  0  0  0  0  0  0  0
    9.7942    3.0586    0.0000 H   0  0  0  0  0  0  0  0  0  0  0  0
   12.6002    3.0586    0.0000 H   0  0  0  0  0  0  0  0  0  0  0  0
   11.1972    3.8686    0.0000 H   0  0  0  0  0  0  0  0  0  0  0  0
    2.0000    2.9386    0.0000 H   0  0  0  0  0  0  0  0  0  0  0  0
    2.5369    3.8686    0.0000 H   0  0  0  0  0  0  0  0  0  0  0  0
    2.8469    6.7855    0.0000 H   0  0  0  0  0  0  0  0  0  0  0  0
    2.0000    6.5586    0.0000 H   0  0  0  0  0  0  0  0  0  0  0  0
    2.2269    5.7116    0.0000 H   0  0  0  0  0  0  0  0  0  0  0  0
  1 91  1  0  0  0  0
  1 95  1  0  0  0  0
  2 42  2  0  0  0  0
  3 43  2  0  0  0  0
  4 45  2  0  0  0  0
  5 46  2  0  0  0  0
  6 55  2  0  0  0  0
  7 60  2  0  0  0  0
  8 61  2  0  0  0  0
  9 66  2  0  0  0  0
 10 67  2  0  0  0  0
 11 76  2  0  0  0  0
 12 78  2  0  0  0  0
 13 84  2  0  0  0  0
 14 90  2  0  0  0  0
 15 33  1  0  0  0  0
 15 36  1  0  0  0  0
 15 42  1  0  0  0  0
 16 34  1  0  0  0  0
 16 41  1  0  0  0  0
 16 46  1  0  0  0  0
 17 43  1  0  0  0  0
 17113  1  0  0  0  0
 18 45  1  0  0  0  0
 18117  1  0  0  0  0
 19127  1  0  0  0  0
 19128  1  0  0  0  0
 20 55  1  0  0  0  0
 20135  1  0  0  0  0
 21 54  1  0  0  0  0
 21137  1  0  0  0  0
 21138  1  0  0  0  0
 22 57  1  0  0  0  0
 22 64  2  0  0  0  0
 23 61  1  0  0  0  0
 23143  1  0  0  0  0
 24 60  1  0  0  0  0
 24145  1  0  0  0  0
 24146  1  0  0  0  0
 25 64  1  0  0  0  0
 25149  1  0  0  0  0
 25150  1  0  0  0  0
 26 64  1  0  0  0  0
 26151  1  0  0  0  0
 26152  1  0  0  0  0
 27 67  1  0  0  0  0
 27153  1  0  0  0  0
 28 66  1  0  0  0  0
 28155  1  0  0  0  0
 28156  1  0  0  0  0
 29 84  1  0  0  0  0
 29165  1  0  0  0  0
 30 76  1  0  0  0  0
 30 83  1  0  0  0  0
 30172  1  0  0  0  0
 31 78  1  0  0  0  0
 31178  1  0  0  0  0
 32 90  1  0  0  0  0
 32189  1  0  0  0  0
 32190  1  0  0  0  0
 33 35  1  0  0  0  0
 33 45  1  0  0  0  0
 33 96  1  6  0  0  0
 34 38  1  0  0  0  0
 34 43  1  0  0  0  0
 34 97  1  1  0  0  0
 35 37  1  0  0  0  0
 35 98  1  0  0  0  0
 35 99  1  0  0  0  0
 36 37  1  0  0  0  0
 36100  1  0  0  0  0
 36101  1  0  0  0  0
 37102  1  0  0  0  0
 37103  1  0  0  0  0
 38 39  1  0  0  0  0
 38104  1  0  0  0  0
 38105  1  0  0  0  0
 39 41  1  0  0  0  0
 39106  1  0  0  0  0
 39107  1  0  0  0  0
 40 17  1  0  0  0  0
 40 42  1  0  0  0  0
 40 44  1  0  0  0  0
 40108  1  6  0  0  0
 41109  1  0  0  0  0
 41110  1  0  0  0  0
 44 47  1  0  0  0  0
 44111  1  0  0  0  0
 44112  1  0  0  0  0
 46 48  1  0  0  0  0
 47 51  1  0  0  0  0
 47114  1  0  0  0  0
 47115  1  0  0  0  0
 48 19  1  0  0  0  0
 48 50  1  0  0  0  0
 48116  1  1  0  0  0
 49 18  1  0  0  0  0
 49 52  1  0  0  0  0
 49 55  1  0  0  0  0
 49118  1  6  0  0  0
 50 53  1  0  0  0  0
 50119  1  0  0  0  0
 50120  1  0  0  0  0
 51 54  1  0  0  0  0
 51121  1  0  0  0  0
 51122  1  0  0  0  0
 52 56  1  0  0  0  0
 52123  1  0  0  0  0
 52124  1  0  0  0  0
 53 57  1  0  0  0  0
 53125  1  0  0  0  0
 53126  1  0  0  0  0
 54129  1  0  0  0  0
 54130  1  0  0  0  0
 56 60  1  0  0  0  0
 56131  1  0  0  0  0
 56132  1  0  0  0  0
 57133  1  0  0  0  0
 57134  1  0  0  0  0
 58 20  1  0  0  0  0
 58 59  1  0  0  0  0
 58 61  1  0  0  0  0
 58136  1  6  0  0  0
 59 62  1  0  0  0  0
 59139  1  0  0  0  0
 59140  1  0  0  0  0
 62 66  1  0  0  0  0
 62141  1  0  0  0  0
 62142  1  0  0  0  0
 63 23  1  0  0  0  0
 63 65  1  0  0  0  0
 63 67  1  0  0  0  0
 63144  1  1  0  0  0
 65 68  1  0  0  0  0
 65147  1  0  0  0  0
 65148  1  0  0  0  0
 68 74  2  0  0  0  0
 68 75  1  0  0  0  0
 69 27  1  0  0  0  0
 69 70  1  0  0  0  0
 69 76  1  0  0  0  0
 69154  1  6  0  0  0
 70 77  1  0  0  0  0
 70157  1  0  0  0  0
 70158  1  0  0  0  0
 71 72  1  0  0  0  0
 71 73  1  0  0  0  0
 71159  1  0  0  0  0
 71160  1  0  0  0  0
 72 29  1  0  0  0  0
 72 78  1  0  0  0  0
 72161  1  6  0  0  0
 73 79  1  0  0  0  0
 73 80  1  0  0  0  0
 73162  1  0  0  0  0
 74 81  1  0  0  0  0
 74163  1  0  0  0  0
 75 82  2  0  0  0  0
 75164  1  0  0  0  0
 77 88  2  0  0  0  0
 77 89  1  0  0  0  0
 79168  1  0  0  0  0
 79169  1  0  0  0  0
 79170  1  0  0  0  0
 80166  1  0  0  0  0
 80167  1  0  0  0  0
 80171  1  0  0  0  0
 81 86  2  0  0  0  0
 81173  1  0  0  0  0
 82 86  1  0  0  0  0
 82174  1  0  0  0  0
 83 84  1  0  0  0  0
 83175  1  0  0  0  0
 83176  1  0  0  0  0
 85 31  1  0  0  0  0
 85 87  1  0  0  0  0
 85 90  1  0  0  0  0
 85177  1  1  0  0  0
 86179  1  0  0  0  0
 87 91  1  0  0  0  0
 87180  1  0  0  0  0
 87181  1  0  0  0  0
 88 92  1  0  0  0  0
 88182  1  0  0  0  0
 89 93  2  0  0  0  0
 89183  1  0  0  0  0
 91184  1  0  0  0  0
 91185  1  0  0  0  0
 92 94  2  0  0  0  0
 92186  1  0  0  0  0
 93 94  1  0  0  0  0
 93187  1  0  0  0  0
 94188  1  0  0  0  0
 95191  1  0  0  0  0
 95192  1  0  0  0  0
 95193  1  0  0  0  0
M  END
>  <PUBCHEM_COMPOUND_CID>
44359816

>  <PUBCHEM_COMPOUND_CANONICALIZED>
1

>  <PUBCHEM_CACTVS_COMPLEXITY>
2620

>  <PUBCHEM_CACTVS_HBOND_ACCEPTOR>
17

>  <PUBCHEM_CACTVS_HBOND_DONOR>
15

>  <PUBCHEM_CACTVS_ROTATABLE_BOND>
42

>  <PUBCHEM_CACTVS_SUBSKEYS>
AAADcfB//ABAAAAAAAAAAAAAAAAAAWLAAAAwYAAAAAAAAAABQAAAHgQQAAAADSjF2ASzAIPAAAioAiFSNAACAAEgABAIiIGIAIgIYDKgkTGUIAAglgCIiAcci4COAAAAAAAAAAAAAAAAAAAAAAAAAAAAAA==

>  <PUBCHEM_IUPAC_OPENEYE_NAME>
(2R)-2-[[(2S)-1-[(2S)-6-amino-2-[[(2R)-1-[(2S)-2-amino-5-guanidino-pentanoyl]pyrrolidine-2-carbonyl]amino]hexanoyl]pyrrolidine-2-carbonyl]amino]-N-[(1S)-4-amino-1-[[(1R)-1-benzyl-2-[[(1R)-1-benzyl-2-[[2-[[(1R)-1-[[(1S)-1-carbamoyl-3-methylsulfanyl-propyl]carbamoyl]-3-methyl-butyl]amino]-2-oxo-ethyl]amino]-2-oxo-ethyl]amino]-2-oxo-ethyl]carbamoyl]-4-oxo-butyl]pentanediamide

>  <PUBCHEM_IUPAC_CAS_NAME>
(2R)-2-[[[(2S)-1-[(2S)-6-amino-2-[[[(2R)-1-[(2S)-2-amino-5-(diaminomethylideneamino)-1-oxopentyl]-2-pyrrolidinyl]-oxomethyl]amino]-1-oxohexyl]-2-pyrrolidinyl]-oxomethyl]amino]-N-[(2S)-5-amino-1-[[(2R)-1-[[(2R)-1-[[2-[[(2R)-1-[[(2S)-1-amino-4-(methylthio)-1-oxobutan-2-yl]amino]-4-methyl-1-oxopentan-2-yl]amino]-2-oxoethyl]amino]-1-oxo-3-phenylpropan-2-yl]amino]-1-oxo-3-phenylpropan-2-yl]amino]-1,5-dioxopentan-2-yl]pentanediamide

>  <PUBCHEM_IUPAC_NAME>
(2R)-2-[[(2S)-1-[(2S)-6-amino-2-[[(2R)-1-[(2S)-2-amino-5-(diaminomethylideneamino)pentanoyl]pyrrolidine-2-carbonyl]amino]hexanoyl]pyrrolidine-2-carbonyl]amino]-N-[(2S)-5-amino-1-[[(2R)-1-[[(2R)-1-[[2-[[(2R)-1-[[(2S)-1-amino-4-methylsulfanyl-1-oxobutan-2-yl]amino]-4-methyl-1-oxopentan-2-yl]amino]-2-oxoethyl]amino]-1-oxo-3-phenylpropan-2-yl]amino]-1-oxo-3-phenylpropan-2-yl]amino]-1,5-dioxopentan-2-yl]pentanediamide

>  <PUBCHEM_IUPAC_SYSTEMATIC_NAME>
(2R)-2-[[(2S)-1-[(2S)-6-azanyl-2-[[(2R)-1-[(2S)-2-azanyl-5-[bis(azanyl)methylideneamino]pentanoyl]pyrrolidin-2-yl]carbonylamino]hexanoyl]pyrrolidin-2-yl]carbonylamino]-N-[(2S)-5-azanyl-1-[[(2R)-1-[[(2R)-1-[[2-[[(2R)-1-[[(2S)-1-azanyl-4-methylsulfanyl-1-oxidanylidene-butan-2-yl]amino]-4-methyl-1-oxidanylidene-pentan-2-yl]amino]-2-oxidanylidene-ethyl]amino]-1-oxidanylidene-3-phenyl-propan-2-yl]amino]-1-oxidanylidene-3-phenyl-propan-2-yl]amino]-1,5-bis(oxidanylidene)pentan-2-yl]pentanediamide

>  <PUBCHEM_IUPAC_TRADITIONAL_NAME>
(2R)-2-[[(2S)-1-[(2S)-6-amino-2-[[(2R)-1-[(2S)-2-amino-5-guanidino-pentanoyl]prolyl]amino]hexanoyl]prolyl]amino]-N-[(1S)-4-amino-1-[[(1R)-1-benzyl-2-[[(1R)-1-benzyl-2-[[2-[[(1R)-1-[[(1S)-1-carbamoyl-3-(methylthio)propyl]carbamoyl]-3-methyl-butyl]amino]-2-keto-ethyl]amino]-2-keto-ethyl]amino]-2-keto-ethyl]carbamoyl]-4-keto-butyl]glutaramide

>  <PUBCHEM_IUPAC_INCHI>
InChI=1S/C63H98N18O13S/c1-37(2)33-45(57(89)74-41(53(68)85)27-32-95-3)73-52(84)36-72-54(86)46(34-38-15-6-4-7-16-38)78-58(90)47(35-39-17-8-5-9-18-39)79-56(88)42(23-25-50(66)82)75-55(87)43(24-26-51(67)83)76-59(91)49-22-14-31-81(49)62(94)44(20-10-11-28-64)77-60(92)48-21-13-30-80(48)61(93)40(65)19-12-29-71-63(69)70/h4-9,15-18,37,40-49H,10-14,19-36,64-65H2,1-3H3,(H2,66,82)(H2,67,83)(H2,68,85)(H,72,86)(H,73,84)(H,74,89)(H,75,87)(H,76,91)(H,77,92)(H,78,90)(H,79,88)(H4,69,70,71)/t40-,41-,42-,43+,44-,45+,46+,47+,48+,49-/m0/s1

>  <PUBCHEM_IUPAC_INCHIKEY>
ADNPLDHMAVUMIW-SGTHPBLKSA-N

>  <PUBCHEM_XLOGP3_AA>
-2.3

>  <PUBCHEM_EXACT_MASS>
1346.728

>  <PUBCHEM_MOLECULAR_FORMULA>
C63H98N18O13S

>  <PUBCHEM_MOLECULAR_WEIGHT>
1347.65

>  <PUBCHEM_OPENEYE_CAN_SMILES>
CC(C)CC(C(=O)NC(CCSC)C(=O)N)NC(=O)CNC(=O)C(CC1=CC=CC=C1)NC(=O)C(CC2=CC=CC=C2)NC(=O)C(CCC(=O)N)NC(=O)C(CCC(=O)N)NC(=O)C3CCCN3C(=O)C(CCCCN)NC(=O)C4CCCN4C(=O)C(CCCN=C(N)N)N

>  <PUBCHEM_OPENEYE_ISO_SMILES>
CC(C)C[C@H](C(=O)N[C@@H](CCSC)C(=O)N)NC(=O)CNC(=O)[C@@H](CC1=CC=CC=C1)NC(=O)[C@@H](CC2=CC=CC=C2)NC(=O)[C@H](CCC(=O)N)NC(=O)[C@@H](CCC(=O)N)NC(=O)[C@@H]3CCCN3C(=O)[C@H](CCCCN)NC(=O)[C@H]4CCCN4C(=O)[C@H](CCCN=C(N)N)N

>  <PUBCHEM_CACTVS_TPSA>
544

>  <PUBCHEM_MONOISOTOPIC_WEIGHT>
1346.728

>  <PUBCHEM_TOTAL_CHARGE>
0

>  <PUBCHEM_HEAVY_ATOM_COUNT>
95

>  <PUBCHEM_ATOM_DEF_STEREO_COUNT>
10

>  <PUBCHEM_ATOM_UDEF_STEREO_COUNT>
0

>  <PUBCHEM_BOND_DEF_STEREO_COUNT>
0

>  <PUBCHEM_BOND_UDEF_STEREO_COUNT>
0

>  <PUBCHEM_ISOTOPIC_ATOM_COUNT>
0

>  <PUBCHEM_COMPONENT_COUNT>
1

>  <PUBCHEM_CACTVS_TAUTO_COUNT>
1001

>  <PUBCHEM_COORDINATE_TYPE>
1
5
255

>  <PUBCHEM_BONDANNOTATIONS>
40  17  5
49  18  5
48  19  6
58  20  5
63  23  6
69  27  5
72  29  5
85  31  6
33  45  5
34  43  6
68  74  8
68  75  8
74  81  8
75  82  8
77  88  8
77  89  8
81  86  8
82  86  8
88  92  8
89  93  8
92  94  8
93  94  8

$$$$
