44419741
 OpenBabel06101807152D

 69 71  0  0  0  0  0  0  0  0999 V2000
    8.8074   -0.8839    0.0000 O   0  0  0  0  0  0  0  0  0  0  0  0
    8.7693    0.1130    0.0000 O   0  0  0  0  0  0  0  0  0  0  0  0
    5.1864    0.7866    0.0000 O   0  0  0  0  0  0  0  0  0  0  0  0
    7.0493   -3.9563    0.0000 O   0  0  0  0  0  0  0  0  0  0  0  0
    2.0000    2.3201    0.0000 C   0  0  0  0  0  0  0  0  0  0  0  0
    2.0000    3.3201    0.0000 C   0  0  0  0  0  0  0  0  0  0  0  0
    2.7071    1.6130    0.0000 C   0  0  0  0  0  0  0  0  0  0  0  0
    2.8660    3.8201    0.0000 C   0  0  0  0  0  0  0  0  0  0  0  0
    2.7071    0.6130    0.0000 C   0  0  0  0  0  0  0  0  0  0  0  0
    3.8320    3.5612    0.0000 C   0  0  0  0  0  0  0  0  0  0  0  0
    3.5731    0.1130    0.0000 C   0  0  0  0  0  0  0  0  0  0  0  0
    4.5391    4.2684    0.0000 C   0  0  0  0  0  0  0  0  0  0  0  0
    4.4392    0.6130    0.0000 C   0  0  0  0  0  0  0  0  0  0  0  0
    5.5050    4.0095    0.0000 C   0  0  0  0  0  0  0  0  0  0  0  0
    5.3052    0.1130    0.0000 C   0  0  0  0  0  0  0  0  0  0  0  0
    6.0050    3.1435    0.0000 C   0  0  0  0  0  0  0  0  0  0  0  0
    5.3052   -0.8870    0.0000 C   0  0  0  0  0  0  0  0  0  0  0  0
    7.0372    3.1130    0.0000 C   0  0  0  0  0  0  0  0  0  0  0  0
    6.1712   -1.3870    0.0000 C   0  0  0  0  0  0  0  0  0  0  0  0
    7.0372   -0.8870    0.0000 C   0  0  0  0  0  0  0  0  0  0  0  0
    7.0372    2.1130    0.0000 C   0  0  0  0  0  0  0  0  0  0  0  0
    7.0372    0.1130    0.0000 C   0  0  0  0  0  0  0  0  0  0  0  0
    7.9033    1.6130    0.0000 C   0  0  0  0  0  0  0  0  0  0  0  0
    6.1712    1.6130    0.0000 C   0  0  0  0  0  0  0  0  0  0  0  0
    6.1552   -2.4285    0.0000 C   0  0  0  0  0  0  0  0  0  0  0  0
    7.9033    0.6130    0.0000 C   0  0  0  0  0  0  0  0  0  0  0  0
    6.1712    0.6130    0.0000 C   0  0  0  0  0  0  0  0  0  0  0  0
    7.9472   -1.3939    0.0000 C   0  0  0  0  0  0  0  0  0  0  0  0
    7.0532   -2.9563    0.0000 C   0  0  0  0  0  0  0  0  0  0  0  0
    7.9553   -2.4355    0.0000 C   0  0  0  0  0  0  0  0  0  0  0  0
    9.6792   -1.3738    0.0000 C   0  0  0  0  0  0  0  0  0  0  0  0
    1.4011    2.4805    0.0000 H   0  0  0  0  0  0  0  0  0  0  0  0
    1.6900    1.7831    0.0000 H   0  0  0  0  0  0  0  0  0  0  0  0
    1.7880    3.9027    0.0000 H   0  0  0  0  0  0  0  0  0  0  0  0
    1.3894    3.2124    0.0000 H   0  0  0  0  0  0  0  0  0  0  0  0
    3.3060    1.4525    0.0000 H   0  0  0  0  0  0  0  0  0  0  0  0
    3.0171    2.1499    0.0000 H   0  0  0  0  0  0  0  0  0  0  0  0
    3.1760    4.3570    0.0000 H   0  0  0  0  0  0  0  0  0  0  0  0
    2.4276    4.2585    0.0000 H   0  0  0  0  0  0  0  0  0  0  0  0
    2.0965    0.7206    0.0000 H   0  0  0  0  0  0  0  0  0  0  0  0
    2.4950    0.0304    0.0000 H   0  0  0  0  0  0  0  0  0  0  0  0
    3.5699    2.9993    0.0000 H   0  0  0  0  0  0  0  0  0  0  0  0
    4.3398    3.2056    0.0000 H   0  0  0  0  0  0  0  0  0  0  0  0
    3.1746   -0.3620    0.0000 H   0  0  0  0  0  0  0  0  0  0  0  0
    3.9717   -0.3620    0.0000 H   0  0  0  0  0  0  0  0  0  0  0  0
    4.8011    4.8303    0.0000 H   0  0  0  0  0  0  0  0  0  0  0  0
    4.0312    4.6240    0.0000 H   0  0  0  0  0  0  0  0  0  0  0  0
    4.8377    1.0879    0.0000 H   0  0  0  0  0  0  0  0  0  0  0  0
    4.0406    1.0879    0.0000 H   0  0  0  0  0  0  0  0  0  0  0  0
    6.1039    4.1700    0.0000 H   0  0  0  0  0  0  0  0  0  0  0  0
    5.5050    4.6295    0.0000 H   0  0  0  0  0  0  0  0  0  0  0  0
    5.9158    0.0053    0.0000 H   0  0  0  0  0  0  0  0  0  0  0  0
    5.5172    0.6956    0.0000 H   0  0  0  0  0  0  0  0  0  0  0  0
    5.4203    2.9372    0.0000 H   0  0  0  0  0  0  0  0  0  0  0  0
    6.1006    2.5309    0.0000 H   0  0  0  0  0  0  0  0  0  0  0  0
    4.6946   -0.7794    0.0000 H   0  0  0  0  0  0  0  0  0  0  0  0
    5.0931   -1.4696    0.0000 H   0  0  0  0  0  0  0  0  0  0  0  0
    7.6572    3.1068    0.0000 H   0  0  0  0  0  0  0  0  0  0  0  0
    7.0495    3.7328    0.0000 H   0  0  0  0  0  0  0  0  0  0  0  0
    8.4402    1.9230    0.0000 H   0  0  0  0  0  0  0  0  0  0  0  0
    5.6343    1.9230    0.0000 H   0  0  0  0  0  0  0  0  0  0  0  0
    5.6147   -2.7323    0.0000 H   0  0  0  0  0  0  0  0  0  0  0  0
    8.4934   -2.7434    0.0000 H   0  0  0  0  0  0  0  0  0  0  0  0
    9.3062    0.4230    0.0000 H   0  0  0  0  0  0  0  0  0  0  0  0
    4.9744    1.3693    0.0000 H   0  0  0  0  0  0  0  0  0  0  0  0
    7.5851   -4.2684    0.0000 H   0  0  0  0  0  0  0  0  0  0  0  0
    9.3754   -1.9143    0.0000 H   0  0  0  0  0  0  0  0  0  0  0  0
   10.2197   -1.6776    0.0000 H   0  0  0  0  0  0  0  0  0  0  0  0
    9.9829   -0.8334    0.0000 H   0  0  0  0  0  0  0  0  0  0  0  0
  1 28  1  0  0  0  0
  1 31  1  0  0  0  0
  2 26  1  0  0  0  0
  2 64  1  0  0  0  0
  3 27  1  0  0  0  0
  3 65  1  0  0  0  0
  4 29  1  0  0  0  0
  4 66  1  0  0  0  0
  5  6  1  0  0  0  0
  5  7  1  0  0  0  0
  5 32  1  0  0  0  0
  5 33  1  0  0  0  0
  6  8  1  0  0  0  0
  6 34  1  0  0  0  0
  6 35  1  0  0  0  0
  7  9  1  0  0  0  0
  7 36  1  0  0  0  0
  7 37  1  0  0  0  0
  8 10  1  0  0  0  0
  8 38  1  0  0  0  0
  8 39  1  0  0  0  0
  9 11  1  0  0  0  0
  9 40  1  0  0  0  0
  9 41  1  0  0  0  0
 10 12  1  0  0  0  0
 10 42  1  0  0  0  0
 10 43  1  0  0  0  0
 11 13  1  0  0  0  0
 11 44  1  0  0  0  0
 11 45  1  0  0  0  0
 12 14  1  0  0  0  0
 12 46  1  0  0  0  0
 12 47  1  0  0  0  0
 13 15  1  0  0  0  0
 13 48  1  0  0  0  0
 13 49  1  0  0  0  0
 14 16  1  0  0  0  0
 14 50  1  0  0  0  0
 14 51  1  0  0  0  0
 15 17  1  0  0  0  0
 15 52  1  0  0  0  0
 15 53  1  0  0  0  0
 16 18  1  0  0  0  0
 16 54  1  0  0  0  0
 16 55  1  0  0  0  0
 17 19  1  0  0  0  0
 17 56  1  0  0  0  0
 17 57  1  0  0  0  0
 18 21  1  0  0  0  0
 18 58  1  0  0  0  0
 18 59  1  0  0  0  0
 19 20  2  0  0  0  0
 19 25  1  0  0  0  0
 20 22  1  0  0  0  0
 20 28  1  0  0  0  0
 21 23  2  0  0  0  0
 21 24  1  0  0  0  0
 22 26  2  0  0  0  0
 22 27  1  0  0  0  0
 23 26  1  0  0  0  0
 23 60  1  0  0  0  0
 24 27  2  0  0  0  0
 24 61  1  0  0  0  0
 25 29  2  0  0  0  0
 25 62  1  0  0  0  0
 28 30  2  0  0  0  0
 29 30  1  0  0  0  0
 30 63  1  0  0  0  0
 31 67  1  0  0  0  0
 31 68  1  0  0  0  0
 31 69  1  0  0  0  0
M  END
>  <PUBCHEM_COMPOUND_CID>
44419741

>  <PUBCHEM_COMPOUND_CANONICALIZED>
1

>  <PUBCHEM_CACTVS_COMPLEXITY>
472

>  <PUBCHEM_CACTVS_HBOND_ACCEPTOR>
4

>  <PUBCHEM_CACTVS_HBOND_DONOR>
3

>  <PUBCHEM_CACTVS_ROTATABLE_BOND>
1

>  <PUBCHEM_CACTVS_SUBSKEYS>
AAADcfB4OAAAAAAAAAAAAAAAAAAAAAAAAAAwYAAAAAAAAAABQAAAGgAACAAADASAmAIyBoAABgCAAiBCAAACCAAgIAAAiAAGCIgMJyKGMRqAcCAlwBUIuAfA4PwO4AABCAAYAADAAAIQADAAAAAAAAAAAA==

>  <PUBCHEM_IUPAC_INCHI>
InChI=1S/C27H38O4/c1-31-25-19-22(28)18-21-15-13-11-9-7-5-3-2-4-6-8-10-12-14-20-16-23(29)27(26(21)25)24(30)17-20/h16-19,28-30H,2-15H2,1H3

>  <PUBCHEM_IUPAC_INCHIKEY>
VHTRJVITHPENFV-UHFFFAOYSA-N

>  <PUBCHEM_XLOGP3_AA>
9.2

>  <PUBCHEM_EXACT_MASS>
426.277

>  <PUBCHEM_MOLECULAR_FORMULA>
C27H38O4

>  <PUBCHEM_MOLECULAR_WEIGHT>
426.597

>  <PUBCHEM_OPENEYE_CAN_SMILES>
COC1=C2C(=CC(=C1)O)CCCCCCCCCCCCCCC3=CC(=C2C(=C3)O)O

>  <PUBCHEM_OPENEYE_ISO_SMILES>
COC1=C2C(=CC(=C1)O)CCCCCCCCCCCCCCC3=CC(=C2C(=C3)O)O

>  <PUBCHEM_CACTVS_TPSA>
69.9

>  <PUBCHEM_MONOISOTOPIC_WEIGHT>
426.277

>  <PUBCHEM_TOTAL_CHARGE>
0

>  <PUBCHEM_HEAVY_ATOM_COUNT>
31

>  <PUBCHEM_ATOM_DEF_STEREO_COUNT>
0

>  <PUBCHEM_ATOM_UDEF_STEREO_COUNT>
0

>  <PUBCHEM_BOND_DEF_STEREO_COUNT>
0

>  <PUBCHEM_BOND_UDEF_STEREO_COUNT>
0

>  <PUBCHEM_ISOTOPIC_ATOM_COUNT>
0

>  <PUBCHEM_COMPONENT_COUNT>
1

>  <PUBCHEM_CACTVS_TAUTO_COUNT>
9

>  <PUBCHEM_COORDINATE_TYPE>
1
5
255

>  <PUBCHEM_BONDANNOTATIONS>
19  20  8
19  25  8
20  28  8
21  23  8
21  24  8
22  26  8
22  27  8
23  26  8
24  27  8
25  29  8
28  30  8
29  30  8

$$$$
