44419739
 OpenBabel06101807152D

 67 69  0  0  0  0  0  0  0  0999 V2000
    2.8278   -1.4120    0.0000 O   0  0  0  0  0  0  0  0  0  0  0  0
    5.9137   -0.3460    0.0000 O   0  0  0  0  0  0  0  0  0  0  0  0
    2.2120    0.0014    0.0000 O   0  0  0  0  0  0  0  0  0  0  0  0
    5.4778    0.9154    0.0000 O   0  0  0  0  0  0  0  0  0  0  0  0
    5.7949    2.3277    0.0000 C   0  0  0  0  0  0  0  0  0  0  0  0
    5.7949    1.3277    0.0000 C   0  0  0  0  0  0  0  0  0  0  0  0
    4.9289    2.8277    0.0000 C   0  0  0  0  0  0  0  0  0  0  0  0
    6.6609    0.8277    0.0000 C   0  0  0  0  0  0  0  0  0  0  0  0
    6.5610   -2.8277    0.0000 C   0  0  0  0  0  0  0  0  0  0  0  0
    4.0628    2.3277    0.0000 C   0  0  0  0  0  0  0  0  0  0  0  0
    7.2681   -2.1206    0.0000 C   0  0  0  0  0  0  0  0  0  0  0  0
    5.5951   -2.5689    0.0000 C   0  0  0  0  0  0  0  0  0  0  0  0
    7.5269    1.3277    0.0000 C   0  0  0  0  0  0  0  0  0  0  0  0
    8.2340   -2.3794    0.0000 C   0  0  0  0  0  0  0  0  0  0  0  0
    5.0951   -1.7028    0.0000 C   0  0  0  0  0  0  0  0  0  0  0  0
    4.0628   -1.6723    0.0000 C   0  0  0  0  0  0  0  0  0  0  0  0
    4.0628    1.3277    0.0000 C   0  0  0  0  0  0  0  0  0  0  0  0
    8.3930    0.8277    0.0000 C   0  0  0  0  0  0  0  0  0  0  0  0
    4.0628   -0.6723    0.0000 C   0  0  0  0  0  0  0  0  0  0  0  0
    9.1001   -1.8794    0.0000 C   0  0  0  0  0  0  0  0  0  0  0  0
    4.9289    0.8277    0.0000 C   0  0  0  0  0  0  0  0  0  0  0  0
    3.1968    0.8277    0.0000 C   0  0  0  0  0  0  0  0  0  0  0  0
    4.9289   -0.1723    0.0000 C   0  0  0  0  0  0  0  0  0  0  0  0
    3.1968   -0.1723    0.0000 C   0  0  0  0  0  0  0  0  0  0  0  0
    8.3930   -0.1723    0.0000 C   0  0  0  0  0  0  0  0  0  0  0  0
    9.1001   -0.8794    0.0000 C   0  0  0  0  0  0  0  0  0  0  0  0
    3.6238   -0.8068    0.0000 C   0  0  0  0  0  0  0  0  0  0  0  0
    5.5845   -0.8648    0.0000 C   0  0  0  0  0  0  0  0  0  0  0  0
    5.1139   -0.0161    0.0000 C   0  0  0  0  0  0  0  0  0  0  0  0
    4.1438    0.0126    0.0000 C   0  0  0  0  0  0  0  0  0  0  0  0
    2.9539   -2.4040    0.0000 C   0  0  0  0  0  0  0  0  0  0  0  0
    6.4055    2.2200    0.0000 H   0  0  0  0  0  0  0  0  0  0  0  0
    6.0069    2.9103    0.0000 H   0  0  0  0  0  0  0  0  0  0  0  0
    5.1843    1.4354    0.0000 H   0  0  0  0  0  0  0  0  0  0  0  0
    5.5828    0.7451    0.0000 H   0  0  0  0  0  0  0  0  0  0  0  0
    5.3274    3.3026    0.0000 H   0  0  0  0  0  0  0  0  0  0  0  0
    4.5303    3.3026    0.0000 H   0  0  0  0  0  0  0  0  0  0  0  0
    6.2624    0.3528    0.0000 H   0  0  0  0  0  0  0  0  0  0  0  0
    7.0594    0.3528    0.0000 H   0  0  0  0  0  0  0  0  0  0  0  0
    6.2990   -3.3896    0.0000 H   0  0  0  0  0  0  0  0  0  0  0  0
    7.0689   -3.1833    0.0000 H   0  0  0  0  0  0  0  0  0  0  0  0
    3.8508    2.9103    0.0000 H   0  0  0  0  0  0  0  0  0  0  0  0
    3.4523    2.2200    0.0000 H   0  0  0  0  0  0  0  0  0  0  0  0
    7.5302   -1.5587    0.0000 H   0  0  0  0  0  0  0  0  0  0  0  0
    6.7602   -1.7650    0.0000 H   0  0  0  0  0  0  0  0  0  0  0  0
    4.9962   -2.7294    0.0000 H   0  0  0  0  0  0  0  0  0  0  0  0
    5.5951   -3.1889    0.0000 H   0  0  0  0  0  0  0  0  0  0  0  0
    7.9255    1.8026    0.0000 H   0  0  0  0  0  0  0  0  0  0  0  0
    7.1284    1.8026    0.0000 H   0  0  0  0  0  0  0  0  0  0  0  0
    7.9240   -2.9164    0.0000 H   0  0  0  0  0  0  0  0  0  0  0  0
    8.6724   -2.8178    0.0000 H   0  0  0  0  0  0  0  0  0  0  0  0
    9.0036    0.7200    0.0000 H   0  0  0  0  0  0  0  0  0  0  0  0
    8.6050    1.4103    0.0000 H   0  0  0  0  0  0  0  0  0  0  0  0
    9.3121   -2.4620    0.0000 H   0  0  0  0  0  0  0  0  0  0  0  0
    9.7106   -1.7718    0.0000 H   0  0  0  0  0  0  0  0  0  0  0  0
    5.4658    1.1377    0.0000 H   0  0  0  0  0  0  0  0  0  0  0  0
    2.6599    1.1377    0.0000 H   0  0  0  0  0  0  0  0  0  0  0  0
    7.8202   -0.4096    0.0000 H   0  0  0  0  0  0  0  0  0  0  0  0
    9.6729   -0.6421    0.0000 H   0  0  0  0  0  0  0  0  0  0  0  0
    6.2045   -0.8717    0.0000 H   0  0  0  0  0  0  0  0  0  0  0  0
    3.8532    0.5603    0.0000 H   0  0  0  0  0  0  0  0  0  0  0  0
    6.3122    0.1290    0.0000 H   0  0  0  0  0  0  0  0  0  0  0  0
    2.0000    0.5840    0.0000 H   0  0  0  0  0  0  0  0  0  0  0  0
    5.1805    1.4594    0.0000 H   0  0  0  0  0  0  0  0  0  0  0  0
    2.3389   -2.4822    0.0000 H   0  0  0  0  0  0  0  0  0  0  0  0
    3.0321   -3.0191    0.0000 H   0  0  0  0  0  0  0  0  0  0  0  0
    3.5690   -2.3258    0.0000 H   0  0  0  0  0  0  0  0  0  0  0  0
  1 27  1  0  0  0  0
  1 31  1  0  0  0  0
  2 23  1  0  0  0  0
  2 62  1  0  0  0  0
  3 24  1  0  0  0  0
  3 63  1  0  0  0  0
  4 29  1  0  0  0  0
  4 64  1  0  0  0  0
  5  6  1  0  0  0  0
  5  7  1  0  0  0  0
  5 32  1  0  0  0  0
  5 33  1  0  0  0  0
  6  8  1  0  0  0  0
  6 34  1  0  0  0  0
  6 35  1  0  0  0  0
  7 10  1  0  0  0  0
  7 36  1  0  0  0  0
  7 37  1  0  0  0  0
  8 13  1  0  0  0  0
  8 38  1  0  0  0  0
  8 39  1  0  0  0  0
  9 11  1  0  0  0  0
  9 12  1  0  0  0  0
  9 40  1  0  0  0  0
  9 41  1  0  0  0  0
 10 17  1  0  0  0  0
 10 42  1  0  0  0  0
 10 43  1  0  0  0  0
 11 14  1  0  0  0  0
 11 44  1  0  0  0  0
 11 45  1  0  0  0  0
 12 15  1  0  0  0  0
 12 46  1  0  0  0  0
 12 47  1  0  0  0  0
 13 18  1  0  0  0  0
 13 48  1  0  0  0  0
 13 49  1  0  0  0  0
 14 20  1  0  0  0  0
 14 50  1  0  0  0  0
 14 51  1  0  0  0  0
 15 16  2  0  0  0  0
 15 28  1  0  0  0  0
 16 19  1  0  0  0  0
 16 27  1  0  0  0  0
 17 21  2  0  0  0  0
 17 22  1  0  0  0  0
 18 25  1  0  0  0  0
 18 52  1  0  0  0  0
 18 53  1  0  0  0  0
 19 23  2  0  0  0  0
 19 24  1  0  0  0  0
 20 26  1  0  0  0  0
 20 54  1  0  0  0  0
 20 55  1  0  0  0  0
 21 23  1  0  0  0  0
 21 56  1  0  0  0  0
 22 24  2  0  0  0  0
 22 57  1  0  0  0  0
 25 26  2  0  0  0  0
 25 58  1  0  0  0  0
 26 59  1  0  0  0  0
 27 30  2  0  0  0  0
 28 29  2  0  0  0  0
 28 60  1  0  0  0  0
 29 30  1  0  0  0  0
 30 61  1  0  0  0  0
 31 65  1  0  0  0  0
 31 66  1  0  0  0  0
 31 67  1  0  0  0  0
M  END
>  <PUBCHEM_COMPOUND_CID>
44419739

>  <PUBCHEM_COMPOUND_CANONICALIZED>
1

>  <PUBCHEM_CACTVS_COMPLEXITY>
509

>  <PUBCHEM_CACTVS_HBOND_ACCEPTOR>
4

>  <PUBCHEM_CACTVS_HBOND_DONOR>
3

>  <PUBCHEM_CACTVS_ROTATABLE_BOND>
1

>  <PUBCHEM_CACTVS_SUBSKEYS>
AAADcfB4OAAAAAAAAAAAAAAAAAAAAAAAAAAwYAAAAAAAAAABQAAAGgAACAAADASAmAIyBoAABgCAAiBCAAACCAAgIAAIiAAGCIgMJyKGMRqAcCAlwBUIuAfA4PwO4AABCAAYAADAAAIQADAAAAAAAAAAAA==

>  <PUBCHEM_IUPAC_INCHI>
InChI=1S/C27H36O4/c1-31-25-19-22(28)18-21-15-13-11-9-7-5-3-2-4-6-8-10-12-14-20-16-23(29)27(26(21)25)24(30)17-20/h3,5,16-19,28-30H,2,4,6-15H2,1H3/b5-3+

>  <PUBCHEM_IUPAC_INCHIKEY>
ZYGGJLPOXFHXPT-HWKANZROSA-N

>  <PUBCHEM_XLOGP3_AA>
8.5

>  <PUBCHEM_EXACT_MASS>
424.261

>  <PUBCHEM_MOLECULAR_FORMULA>
C27H36O4

>  <PUBCHEM_MOLECULAR_WEIGHT>
424.581

>  <PUBCHEM_OPENEYE_CAN_SMILES>
COC1=C2C(=CC(=C1)O)CCCCCC=CCCCCCCCC3=CC(=C2C(=C3)O)O

>  <PUBCHEM_OPENEYE_ISO_SMILES>
COC1=C2C(=CC(=C1)O)CCCCC/C=C/CCCCCCCC3=CC(=C2C(=C3)O)O

>  <PUBCHEM_CACTVS_TPSA>
69.9

>  <PUBCHEM_MONOISOTOPIC_WEIGHT>
424.261

>  <PUBCHEM_TOTAL_CHARGE>
0

>  <PUBCHEM_HEAVY_ATOM_COUNT>
31

>  <PUBCHEM_ATOM_DEF_STEREO_COUNT>
0

>  <PUBCHEM_ATOM_UDEF_STEREO_COUNT>
0

>  <PUBCHEM_BOND_DEF_STEREO_COUNT>
1

>  <PUBCHEM_BOND_UDEF_STEREO_COUNT>
0

>  <PUBCHEM_ISOTOPIC_ATOM_COUNT>
0

>  <PUBCHEM_COMPONENT_COUNT>
1

>  <PUBCHEM_CACTVS_TAUTO_COUNT>
9

>  <PUBCHEM_COORDINATE_TYPE>
1
5
255

>  <PUBCHEM_BONDANNOTATIONS>
15  16  8
15  28  8
16  27  8
17  21  8
17  22  8
19  23  8
19  24  8
21  23  8
22  24  8
27  30  8
28  29  8
29  30  8

$$$$
