44479220
 OpenBabel06101807152D

 41 43  0  0  0  0  0  0  0  0999 V2000
    2.8660    2.6429    0.0000 O   0  0  0  0  0  0  0  0  0  0  0  0
    8.1282    2.6671    0.0000 O   0  0  0  0  0  0  0  0  0  0  0  0
    8.1282    0.6188    0.0000 O   0  0  0  0  0  0  0  0  0  0  0  0
    2.8660   -2.3571    0.0000 O   0  0  0  0  0  0  0  0  0  0  0  0
    4.5981   -3.3571    0.0000 O   0  0  0  0  0  0  0  0  0  0  0  0
    2.0000    1.1429    0.0000 O   0  0  0  0  0  0  0  0  0  0  0  0
    4.5981    0.6429    0.0000 C   0  0  0  0  0  0  0  0  0  0  0  0
    5.4641    1.1429    0.0000 C   0  0  0  0  0  0  0  0  0  0  0  0
    5.4641    2.1429    0.0000 C   0  0  0  0  0  0  0  0  0  0  0  0
    4.5981   -0.3571    0.0000 C   0  0  0  0  0  0  0  0  0  0  0  0
    3.7320    1.1429    0.0000 C   0  0  0  0  0  0  0  0  0  0  0  0
    4.5981    2.6429    0.0000 C   0  0  0  0  0  0  0  0  0  0  0  0
    6.3580    0.6083    0.0000 C   0  0  0  0  0  0  0  0  0  0  0  0
    3.7320    2.1429    0.0000 C   0  0  0  0  0  0  0  0  0  0  0  0
    6.3580    2.6776    0.0000 C   0  0  0  0  0  0  0  0  0  0  0  0
    7.2641    2.1637    0.0000 C   0  0  0  0  0  0  0  0  0  0  0  0
    7.2641    1.1221    0.0000 C   0  0  0  0  0  0  0  0  0  0  0  0
    3.7320   -0.8571    0.0000 C   0  0  0  0  0  0  0  0  0  0  0  0
    5.4641   -0.8571    0.0000 C   0  0  0  0  0  0  0  0  0  0  0  0
    3.7320   -1.8571    0.0000 C   0  0  0  0  0  0  0  0  0  0  0  0
    5.4641   -1.8571    0.0000 C   0  0  0  0  0  0  0  0  0  0  0  0
    2.8660    0.6429    0.0000 C   0  0  0  0  0  0  0  0  0  0  0  0
    4.5981   -2.3571    0.0000 C   0  0  0  0  0  0  0  0  0  0  0  0
    8.1244    3.6671    0.0000 C   0  0  0  0  0  0  0  0  0  0  0  0
    2.8660   -3.3571    0.0000 C   0  0  0  0  0  0  0  0  0  0  0  0
    4.5981    3.2629    0.0000 H   0  0  0  0  0  0  0  0  0  0  0  0
    6.3509   -0.0117    0.0000 H   0  0  0  0  0  0  0  0  0  0  0  0
    6.3509    3.2976    0.0000 H   0  0  0  0  0  0  0  0  0  0  0  0
    3.1951   -0.5471    0.0000 H   0  0  0  0  0  0  0  0  0  0  0  0
    6.0010   -0.5471    0.0000 H   0  0  0  0  0  0  0  0  0  0  0  0
    6.0010   -2.1671    0.0000 H   0  0  0  0  0  0  0  0  0  0  0  0
    2.8660    0.0229    0.0000 H   0  0  0  0  0  0  0  0  0  0  0  0
    2.8660    3.2629    0.0000 H   0  0  0  0  0  0  0  0  0  0  0  0
    8.6663    0.9267    0.0000 H   0  0  0  0  0  0  0  0  0  0  0  0
    8.7443    3.6695    0.0000 H   0  0  0  0  0  0  0  0  0  0  0  0
    8.1220    4.2871    0.0000 H   0  0  0  0  0  0  0  0  0  0  0  0
    7.5044    3.6647    0.0000 H   0  0  0  0  0  0  0  0  0  0  0  0
    5.1350   -3.6671    0.0000 H   0  0  0  0  0  0  0  0  0  0  0  0
    2.2460   -3.3571    0.0000 H   0  0  0  0  0  0  0  0  0  0  0  0
    2.8660   -3.9771    0.0000 H   0  0  0  0  0  0  0  0  0  0  0  0
    3.4860   -3.3571    0.0000 H   0  0  0  0  0  0  0  0  0  0  0  0
  1 14  1  0  0  0  0
  1 33  1  0  0  0  0
  2 16  1  0  0  0  0
  2 24  1  0  0  0  0
  3 17  1  0  0  0  0
  3 34  1  0  0  0  0
  4 20  1  0  0  0  0
  4 25  1  0  0  0  0
  5 23  1  0  0  0  0
  5 38  1  0  0  0  0
  6 22  2  0  0  0  0
  7  8  2  0  0  0  0
  7 10  1  0  0  0  0
  7 11  1  0  0  0  0
  8  9  1  0  0  0  0
  8 13  1  0  0  0  0
  9 12  2  0  0  0  0
  9 15  1  0  0  0  0
 10 18  2  0  0  0  0
 10 19  1  0  0  0  0
 11 14  2  0  0  0  0
 11 22  1  0  0  0  0
 12 14  1  0  0  0  0
 12 26  1  0  0  0  0
 13 17  2  0  0  0  0
 13 27  1  0  0  0  0
 15 16  2  0  0  0  0
 15 28  1  0  0  0  0
 16 17  1  0  0  0  0
 18 20  1  0  0  0  0
 18 29  1  0  0  0  0
 19 21  2  0  0  0  0
 19 30  1  0  0  0  0
 20 23  2  0  0  0  0
 21 23  1  0  0  0  0
 21 31  1  0  0  0  0
 22 32  1  0  0  0  0
 24 35  1  0  0  0  0
 24 36  1  0  0  0  0
 24 37  1  0  0  0  0
 25 39  1  0  0  0  0
 25 40  1  0  0  0  0
 25 41  1  0  0  0  0
M  END
>  <PUBCHEM_COMPOUND_CID>
44479220

>  <PUBCHEM_COMPOUND_CANONICALIZED>
1

>  <PUBCHEM_CACTVS_COMPLEXITY>
457

>  <PUBCHEM_CACTVS_HBOND_ACCEPTOR>
6

>  <PUBCHEM_CACTVS_HBOND_DONOR>
3

>  <PUBCHEM_CACTVS_ROTATABLE_BOND>
4

>  <PUBCHEM_CACTVS_SUBSKEYS>
AAADceB4OAAAAAAAAAAAAAAAAAAAAAAAAAAwYMAAAAAAAADBVAAAGgAACAAADASgmAIyBsAABgCIAihSgAACCAAkIAAIiAEGiMgNJjaGNRqAcWMk4BELuQeI6PyO4AADAAAYQADAAAYAADCAAAAAAAAAAA==

>  <PUBCHEM_IUPAC_OPENEYE_NAME>
3,7-dihydroxy-1-(4-hydroxy-3-methoxy-phenyl)-6-methoxy-naphthalene-2-carbaldehyde

>  <PUBCHEM_IUPAC_CAS_NAME>
3,7-dihydroxy-1-(4-hydroxy-3-methoxyphenyl)-6-methoxy-2-naphthalenecarboxaldehyde

>  <PUBCHEM_IUPAC_NAME>
3,7-dihydroxy-1-(4-hydroxy-3-methoxyphenyl)-6-methoxynaphthalene-2-carbaldehyde

>  <PUBCHEM_IUPAC_SYSTEMATIC_NAME>
6-methoxy-1-(3-methoxy-4-oxidanyl-phenyl)-3,7-bis(oxidanyl)naphthalene-2-carbaldehyde

>  <PUBCHEM_IUPAC_TRADITIONAL_NAME>
3,7-dihydroxy-1-(4-hydroxy-3-methoxy-phenyl)-6-methoxy-naphthalene-2-carbaldehyde

>  <PUBCHEM_IUPAC_INCHI>
InChI=1S/C19H16O6/c1-24-17-6-10(3-4-14(17)21)19-12-8-16(23)18(25-2)7-11(12)5-15(22)13(19)9-20/h3-9,21-23H,1-2H3

>  <PUBCHEM_IUPAC_INCHIKEY>
VEMAKQNXRTXQPD-UHFFFAOYSA-N

>  <PUBCHEM_XLOGP3_AA>
3.7

>  <PUBCHEM_EXACT_MASS>
340.095

>  <PUBCHEM_MOLECULAR_FORMULA>
C19H16O6

>  <PUBCHEM_MOLECULAR_WEIGHT>
340.331

>  <PUBCHEM_OPENEYE_CAN_SMILES>
COC1=CC2=CC(=C(C(=C2C=C1O)C3=CC(=C(C=C3)O)OC)C=O)O

>  <PUBCHEM_OPENEYE_ISO_SMILES>
COC1=CC2=CC(=C(C(=C2C=C1O)C3=CC(=C(C=C3)O)OC)C=O)O

>  <PUBCHEM_CACTVS_TPSA>
96.2

>  <PUBCHEM_MONOISOTOPIC_WEIGHT>
340.095

>  <PUBCHEM_TOTAL_CHARGE>
0

>  <PUBCHEM_HEAVY_ATOM_COUNT>
25

>  <PUBCHEM_ATOM_DEF_STEREO_COUNT>
0

>  <PUBCHEM_ATOM_UDEF_STEREO_COUNT>
0

>  <PUBCHEM_BOND_DEF_STEREO_COUNT>
0

>  <PUBCHEM_BOND_UDEF_STEREO_COUNT>
0

>  <PUBCHEM_ISOTOPIC_ATOM_COUNT>
0

>  <PUBCHEM_COMPONENT_COUNT>
1

>  <PUBCHEM_CACTVS_TAUTO_COUNT>
117

>  <PUBCHEM_COORDINATE_TYPE>
1
5
255

>  <PUBCHEM_BONDANNOTATIONS>
10  18  8
10  19  8
11  14  8
12  14  8
13  17  8
15  16  8
16  17  8
18  20  8
19  21  8
20  23  8
21  23  8
7  11  8
7  8  8
8  13  8
8  9  8
9  12  8
9  15  8

$$$$
