44479221
 OpenBabel06101807152D

 41 43  0  0  0  0  0  0  0  0999 V2000
    4.5981    3.5000    0.0000 O   0  0  0  0  0  0  0  0  0  0  0  0
    8.1282    2.5242    0.0000 O   0  0  0  0  0  0  0  0  0  0  0  0
    8.1282    0.4758    0.0000 O   0  0  0  0  0  0  0  0  0  0  0  0
    2.8660   -2.5000    0.0000 O   0  0  0  0  0  0  0  0  0  0  0  0
    4.5981   -3.5000    0.0000 O   0  0  0  0  0  0  0  0  0  0  0  0
    2.0000    2.0000    0.0000 O   0  0  0  0  0  0  0  0  0  0  0  0
    5.4641    1.0000    0.0000 C   0  0  0  0  0  0  0  0  0  0  0  0
    4.5981    0.5000    0.0000 C   0  0  0  0  0  0  0  0  0  0  0  0
    5.4641    2.0000    0.0000 C   0  0  0  0  0  0  0  0  0  0  0  0
    4.5981   -0.5000    0.0000 C   0  0  0  0  0  0  0  0  0  0  0  0
    4.5981    2.5000    0.0000 C   0  0  0  0  0  0  0  0  0  0  0  0
    3.7320    1.0000    0.0000 C   0  0  0  0  0  0  0  0  0  0  0  0
    3.7320    2.0000    0.0000 C   0  0  0  0  0  0  0  0  0  0  0  0
    6.3580    0.4653    0.0000 C   0  0  0  0  0  0  0  0  0  0  0  0
    6.3580    2.5347    0.0000 C   0  0  0  0  0  0  0  0  0  0  0  0
    7.2641    2.0208    0.0000 C   0  0  0  0  0  0  0  0  0  0  0  0
    7.2641    0.9792    0.0000 C   0  0  0  0  0  0  0  0  0  0  0  0
    3.7320   -1.0000    0.0000 C   0  0  0  0  0  0  0  0  0  0  0  0
    5.4641   -1.0000    0.0000 C   0  0  0  0  0  0  0  0  0  0  0  0
    3.7320   -2.0000    0.0000 C   0  0  0  0  0  0  0  0  0  0  0  0
    5.4641   -2.0000    0.0000 C   0  0  0  0  0  0  0  0  0  0  0  0
    4.5981   -2.5000    0.0000 C   0  0  0  0  0  0  0  0  0  0  0  0
    2.8660    2.5000    0.0000 C   0  0  0  0  0  0  0  0  0  0  0  0
    8.1244    3.5241    0.0000 C   0  0  0  0  0  0  0  0  0  0  0  0
    2.8660   -3.5000    0.0000 C   0  0  0  0  0  0  0  0  0  0  0  0
    3.1951    0.6900    0.0000 H   0  0  0  0  0  0  0  0  0  0  0  0
    6.3509   -0.1546    0.0000 H   0  0  0  0  0  0  0  0  0  0  0  0
    6.3509    3.1546    0.0000 H   0  0  0  0  0  0  0  0  0  0  0  0
    3.1951   -0.6900    0.0000 H   0  0  0  0  0  0  0  0  0  0  0  0
    6.0010   -0.6900    0.0000 H   0  0  0  0  0  0  0  0  0  0  0  0
    6.0010   -2.3100    0.0000 H   0  0  0  0  0  0  0  0  0  0  0  0
    2.8660    3.1200    0.0000 H   0  0  0  0  0  0  0  0  0  0  0  0
    5.1350    3.8100    0.0000 H   0  0  0  0  0  0  0  0  0  0  0  0
    8.6663    0.7838    0.0000 H   0  0  0  0  0  0  0  0  0  0  0  0
    8.7443    3.5265    0.0000 H   0  0  0  0  0  0  0  0  0  0  0  0
    8.1220    4.1441    0.0000 H   0  0  0  0  0  0  0  0  0  0  0  0
    7.5044    3.5218    0.0000 H   0  0  0  0  0  0  0  0  0  0  0  0
    5.1350   -3.8100    0.0000 H   0  0  0  0  0  0  0  0  0  0  0  0
    2.2460   -3.5000    0.0000 H   0  0  0  0  0  0  0  0  0  0  0  0
    2.8660   -4.1200    0.0000 H   0  0  0  0  0  0  0  0  0  0  0  0
    3.4860   -3.5000    0.0000 H   0  0  0  0  0  0  0  0  0  0  0  0
  1 11  1  0  0  0  0
  1 33  1  0  0  0  0
  2 16  1  0  0  0  0
  2 24  1  0  0  0  0
  3 17  1  0  0  0  0
  3 34  1  0  0  0  0
  4 20  1  0  0  0  0
  4 25  1  0  0  0  0
  5 22  1  0  0  0  0
  5 38  1  0  0  0  0
  6 23  2  0  0  0  0
  7  8  2  0  0  0  0
  7  9  1  0  0  0  0
  7 14  1  0  0  0  0
  8 10  1  0  0  0  0
  8 12  1  0  0  0  0
  9 11  2  0  0  0  0
  9 15  1  0  0  0  0
 10 18  2  0  0  0  0
 10 19  1  0  0  0  0
 11 13  1  0  0  0  0
 12 13  2  0  0  0  0
 12 26  1  0  0  0  0
 13 23  1  0  0  0  0
 14 17  2  0  0  0  0
 14 27  1  0  0  0  0
 15 16  2  0  0  0  0
 15 28  1  0  0  0  0
 16 17  1  0  0  0  0
 18 20  1  0  0  0  0
 18 29  1  0  0  0  0
 19 21  2  0  0  0  0
 19 30  1  0  0  0  0
 20 22  2  0  0  0  0
 21 22  1  0  0  0  0
 21 31  1  0  0  0  0
 23 32  1  0  0  0  0
 24 35  1  0  0  0  0
 24 36  1  0  0  0  0
 24 37  1  0  0  0  0
 25 39  1  0  0  0  0
 25 40  1  0  0  0  0
 25 41  1  0  0  0  0
M  END
>  <PUBCHEM_COMPOUND_CID>
44479221

>  <PUBCHEM_COMPOUND_CANONICALIZED>
1

>  <PUBCHEM_CACTVS_COMPLEXITY>
457

>  <PUBCHEM_CACTVS_HBOND_ACCEPTOR>
6

>  <PUBCHEM_CACTVS_HBOND_DONOR>
3

>  <PUBCHEM_CACTVS_ROTATABLE_BOND>
4

>  <PUBCHEM_CACTVS_SUBSKEYS>
AAADceB4OAAAAAAAAAAAAAAAAAAAAAAAAAAwYMAAAAAAAADBVAAAGgAACAAADASgmAIyBsAABgCIAihSgAACCAAkIAAIiAEGiMgNJjaGNRqAcWMk4BELuYfI6PSO4AADAAAYQADAAAYAADCAAAAAAAAAAA==

>  <PUBCHEM_IUPAC_OPENEYE_NAME>
1,6-dihydroxy-4-(4-hydroxy-3-methoxy-phenyl)-7-methoxy-naphthalene-2-carbaldehyde

>  <PUBCHEM_IUPAC_CAS_NAME>
1,6-dihydroxy-4-(4-hydroxy-3-methoxyphenyl)-7-methoxy-2-naphthalenecarboxaldehyde

>  <PUBCHEM_IUPAC_NAME>
1,6-dihydroxy-4-(4-hydroxy-3-methoxyphenyl)-7-methoxynaphthalene-2-carbaldehyde

>  <PUBCHEM_IUPAC_SYSTEMATIC_NAME>
7-methoxy-4-(3-methoxy-4-oxidanyl-phenyl)-1,6-bis(oxidanyl)naphthalene-2-carbaldehyde

>  <PUBCHEM_IUPAC_TRADITIONAL_NAME>
1,6-dihydroxy-4-(4-hydroxy-3-methoxy-phenyl)-7-methoxy-naphthalene-2-carbaldehyde

>  <PUBCHEM_IUPAC_INCHI>
InChI=1S/C19H16O6/c1-24-17-6-10(3-4-15(17)21)12-5-11(9-20)19(23)14-8-18(25-2)16(22)7-13(12)14/h3-9,21-23H,1-2H3

>  <PUBCHEM_IUPAC_INCHIKEY>
WFANYWPAAJRIFF-UHFFFAOYSA-N

>  <PUBCHEM_XLOGP3_AA>
3.7

>  <PUBCHEM_EXACT_MASS>
340.095

>  <PUBCHEM_MOLECULAR_FORMULA>
C19H16O6

>  <PUBCHEM_MOLECULAR_WEIGHT>
340.331

>  <PUBCHEM_OPENEYE_CAN_SMILES>
COC1=C(C=CC(=C1)C2=CC(=C(C3=CC(=C(C=C23)O)OC)O)C=O)O

>  <PUBCHEM_OPENEYE_ISO_SMILES>
COC1=C(C=CC(=C1)C2=CC(=C(C3=CC(=C(C=C23)O)OC)O)C=O)O

>  <PUBCHEM_CACTVS_TPSA>
96.2

>  <PUBCHEM_MONOISOTOPIC_WEIGHT>
340.095

>  <PUBCHEM_TOTAL_CHARGE>
0

>  <PUBCHEM_HEAVY_ATOM_COUNT>
25

>  <PUBCHEM_ATOM_DEF_STEREO_COUNT>
0

>  <PUBCHEM_ATOM_UDEF_STEREO_COUNT>
0

>  <PUBCHEM_BOND_DEF_STEREO_COUNT>
0

>  <PUBCHEM_BOND_UDEF_STEREO_COUNT>
0

>  <PUBCHEM_ISOTOPIC_ATOM_COUNT>
0

>  <PUBCHEM_COMPONENT_COUNT>
1

>  <PUBCHEM_CACTVS_TAUTO_COUNT>
113

>  <PUBCHEM_COORDINATE_TYPE>
1
5
255

>  <PUBCHEM_BONDANNOTATIONS>
10  18  8
10  19  8
11  13  8
12  13  8
14  17  8
15  16  8
16  17  8
18  20  8
19  21  8
20  22  8
21  22  8
7  14  8
7  8  8
7  9  8
8  12  8
9  11  8
9  15  8

$$$$
