44482347
 OpenBabel06101807152D

 46 46  0  0  1  0  0  0  0  0999 V2000
    3.8660   -4.3450    0.0000 O   0  0  0  0  0  0  0  0  0  0  0  0
    5.5981    4.6550    0.0000 O   0  0  0  0  0  0  0  0  0  0  0  0
    3.0000   -1.8450    0.0000 C   0  0  0  0  0  0  0  0  0  0  0  0
    3.0000   -2.8450    0.0000 C   0  0  0  0  0  0  0  0  0  0  0  0
    3.8660   -3.3450    0.0000 C   0  0  1  0  0  0  0  0  0  0  0  0
    3.8660   -1.3450    0.0000 C   0  0  0  0  0  0  0  0  0  0  0  0
    4.7320   -2.8450    0.0000 C   0  0  0  0  0  0  0  0  0  0  0  0
    4.7320   -1.8450    0.0000 C   0  0  0  0  0  0  0  0  0  0  0  0
    2.0000   -1.8450    0.0000 C   0  0  0  0  0  0  0  0  0  0  0  0
    2.5000   -0.9790    0.0000 C   0  0  0  0  0  0  0  0  0  0  0  0
    3.8660   -0.3450    0.0000 C   0  0  0  0  0  0  0  0  0  0  0  0
    5.5981   -1.3450    0.0000 C   0  0  0  0  0  0  0  0  0  0  0  0
    4.7320    0.1550    0.0000 C   0  0  0  0  0  0  0  0  0  0  0  0
    4.7320    1.1550    0.0000 C   0  0  0  0  0  0  0  0  0  0  0  0
    3.8660    1.6550    0.0000 C   0  0  0  0  0  0  0  0  0  0  0  0
    5.5981    1.6550    0.0000 C   0  0  0  0  0  0  0  0  0  0  0  0
    5.5981    2.6550    0.0000 C   0  0  0  0  0  0  0  0  0  0  0  0
    6.4641    3.1550    0.0000 C   0  0  0  0  0  0  0  0  0  0  0  0
    6.4641    4.1550    0.0000 C   0  0  0  0  0  0  0  0  0  0  0  0
    7.3301    4.6550    0.0000 C   0  0  0  0  0  0  0  0  0  0  0  0
    2.3894   -2.7373    0.0000 H   0  0  0  0  0  0  0  0  0  0  0  0
    2.7880   -3.4276    0.0000 H   0  0  0  0  0  0  0  0  0  0  0  0
    4.4030   -3.6550    0.0000 H   0  0  0  0  0  0  0  0  0  0  0  0
    4.9441   -3.4276    0.0000 H   0  0  0  0  0  0  0  0  0  0  0  0
    5.3426   -2.7373    0.0000 H   0  0  0  0  0  0  0  0  0  0  0  0
    3.0369   -0.6690    0.0000 H   0  0  0  0  0  0  0  0  0  0  0  0
    2.1900   -0.4420    0.0000 H   0  0  0  0  0  0  0  0  0  0  0  0
    1.9631   -1.2890    0.0000 H   0  0  0  0  0  0  0  0  0  0  0  0
    2.0000   -1.2250    0.0000 H   0  0  0  0  0  0  0  0  0  0  0  0
    1.3800   -1.8450    0.0000 H   0  0  0  0  0  0  0  0  0  0  0  0
    2.0000   -2.4650    0.0000 H   0  0  0  0  0  0  0  0  0  0  0  0
    3.3291   -0.0350    0.0000 H   0  0  0  0  0  0  0  0  0  0  0  0
    5.9081   -1.8819    0.0000 H   0  0  0  0  0  0  0  0  0  0  0  0
    6.1350   -1.0350    0.0000 H   0  0  0  0  0  0  0  0  0  0  0  0
    5.2881   -0.8081    0.0000 H   0  0  0  0  0  0  0  0  0  0  0  0
    4.4030   -4.6550    0.0000 H   0  0  0  0  0  0  0  0  0  0  0  0
    5.2690   -0.1550    0.0000 H   0  0  0  0  0  0  0  0  0  0  0  0
    4.1760    2.1919    0.0000 H   0  0  0  0  0  0  0  0  0  0  0  0
    3.3291    1.9650    0.0000 H   0  0  0  0  0  0  0  0  0  0  0  0
    3.5560    1.1181    0.0000 H   0  0  0  0  0  0  0  0  0  0  0  0
    6.1350    1.3450    0.0000 H   0  0  0  0  0  0  0  0  0  0  0  0
    5.0611    2.9650    0.0000 H   0  0  0  0  0  0  0  0  0  0  0  0
    7.0010    2.8450    0.0000 H   0  0  0  0  0  0  0  0  0  0  0  0
    7.6401    4.1181    0.0000 H   0  0  0  0  0  0  0  0  0  0  0  0
    7.8671    4.9650    0.0000 H   0  0  0  0  0  0  0  0  0  0  0  0
    7.0201    5.1919    0.0000 H   0  0  0  0  0  0  0  0  0  0  0  0
  1 36  1  0  0  0  0
  2 19  2  0  0  0  0
  3  4  1  0  0  0  0
  3  6  1  0  0  0  0
  3  9  1  0  0  0  0
  3 10  1  0  0  0  0
  4  5  1  0  0  0  0
  4 21  1  0  0  0  0
  4 22  1  0  0  0  0
  5  1  1  0  0  0  0
  5  7  1  0  0  0  0
  5 23  1  6  0  0  0
  6  8  2  0  0  0  0
  6 11  1  0  0  0  0
  7  8  1  0  0  0  0
  7 24  1  0  0  0  0
  7 25  1  0  0  0  0
  8 12  1  0  0  0  0
  9 29  1  0  0  0  0
  9 30  1  0  0  0  0
  9 31  1  0  0  0  0
 10 26  1  0  0  0  0
 10 27  1  0  0  0  0
 10 28  1  0  0  0  0
 11 13  2  0  0  0  0
 11 32  1  0  0  0  0
 12 33  1  0  0  0  0
 12 34  1  0  0  0  0
 12 35  1  0  0  0  0
 13 14  1  0  0  0  0
 13 37  1  0  0  0  0
 14 15  1  0  0  0  0
 14 16  2  0  0  0  0
 15 38  1  0  0  0  0
 15 39  1  0  0  0  0
 15 40  1  0  0  0  0
 16 17  1  0  0  0  0
 16 41  1  0  0  0  0
 17 18  2  0  0  0  0
 17 42  1  0  0  0  0
 18 19  1  0  0  0  0
 18 43  1  0  0  0  0
 19 20  1  0  0  0  0
 20 44  1  0  0  0  0
 20 45  1  0  0  0  0
 20 46  1  0  0  0  0
M  END
>  <PUBCHEM_COMPOUND_CID>
44482347

>  <PUBCHEM_COMPOUND_CANONICALIZED>
1

>  <PUBCHEM_CACTVS_COMPLEXITY>
488

>  <PUBCHEM_CACTVS_HBOND_ACCEPTOR>
2

>  <PUBCHEM_CACTVS_HBOND_DONOR>
1

>  <PUBCHEM_CACTVS_ROTATABLE_BOND>
4

>  <PUBCHEM_CACTVS_SUBSKEYS>
AAADceB4MAAAAAAAAAAAAAAAAAAAAAAAAAAgAAAAAAAAAAAAAAAAGgAACAAADhSggAICAAAAAgCIAqBSAAAAAAAgAAAICAAAAEgIEAIAAQAAQAAEwAAIgYOAgMAPAAAAAAAAAAAAAAAAAAAAAAAAAAAAAA==

>  <PUBCHEM_IUPAC_OPENEYE_NAME>
(3E,5E,7E)-8-[(4R)-4-hydroxy-2,6,6-trimethyl-cyclohexen-1-yl]-6-methyl-octa-3,5,7-trien-2-one

>  <PUBCHEM_IUPAC_CAS_NAME>
(3E,5E,7E)-8-[(4R)-4-hydroxy-2,6,6-trimethyl-1-cyclohexenyl]-6-methyl-2-octa-3,5,7-trienone

>  <PUBCHEM_IUPAC_NAME>
(3E,5E,7E)-8-[(4R)-4-hydroxy-2,6,6-trimethylcyclohexen-1-yl]-6-methylocta-3,5,7-trien-2-one

>  <PUBCHEM_IUPAC_SYSTEMATIC_NAME>
(3E,5E,7E)-6-methyl-8-[(4R)-2,6,6-trimethyl-4-oxidanyl-cyclohexen-1-yl]octa-3,5,7-trien-2-one

>  <PUBCHEM_IUPAC_TRADITIONAL_NAME>
(3E,5E,7E)-8-[(4R)-4-hydroxy-2,6,6-trimethyl-cyclohexen-1-yl]-6-methyl-octa-3,5,7-trien-2-one

>  <PUBCHEM_IUPAC_INCHI>
InChI=1S/C18H26O2/c1-13(7-6-8-15(3)19)9-10-17-14(2)11-16(20)12-18(17,4)5/h6-10,16,20H,11-12H2,1-5H3/b8-6+,10-9+,13-7+/t16-/m1/s1

>  <PUBCHEM_IUPAC_INCHIKEY>
JLNMEHQAHDSEEE-YSAUQHOWSA-N

>  <PUBCHEM_XLOGP3_AA>
3.5

>  <PUBCHEM_EXACT_MASS>
274.193

>  <PUBCHEM_MOLECULAR_FORMULA>
C18H26O2

>  <PUBCHEM_MOLECULAR_WEIGHT>
274.404

>  <PUBCHEM_OPENEYE_CAN_SMILES>
CC1=C(C(CC(C1)O)(C)C)C=CC(=CC=CC(=O)C)C

>  <PUBCHEM_OPENEYE_ISO_SMILES>
CC1=C(C(C[C@@H](C1)O)(C)C)/C=C/C(=C/C=C/C(=O)C)/C

>  <PUBCHEM_CACTVS_TPSA>
37.3

>  <PUBCHEM_MONOISOTOPIC_WEIGHT>
274.193

>  <PUBCHEM_TOTAL_CHARGE>
0

>  <PUBCHEM_HEAVY_ATOM_COUNT>
20

>  <PUBCHEM_ATOM_DEF_STEREO_COUNT>
1

>  <PUBCHEM_ATOM_UDEF_STEREO_COUNT>
0

>  <PUBCHEM_BOND_DEF_STEREO_COUNT>
3

>  <PUBCHEM_BOND_UDEF_STEREO_COUNT>
0

>  <PUBCHEM_ISOTOPIC_ATOM_COUNT>
0

>  <PUBCHEM_COMPONENT_COUNT>
1

>  <PUBCHEM_CACTVS_TAUTO_COUNT>
7

>  <PUBCHEM_COORDINATE_TYPE>
1
5
255

>  <PUBCHEM_BONDANNOTATIONS>
5  1  5

$$$$
