445282
 OpenBabel06101807152D

 22 21  0  0  1  0  0  0  0  0999 V2000
    2.8660   -0.4050    0.0000 S   0  0  0  0  0  0  0  0  0  0  0  0
    2.3660    0.4610    0.0000 O   0  0  0  0  0  0  0  0  0  0  0  0
    3.3660   -1.2710    0.0000 O   0  0  0  0  0  0  0  0  0  0  0  0
    7.1962    0.0950    0.0000 O   0  0  0  0  0  0  0  0  0  0  0  0
    6.3301   -1.4050    0.0000 O   0  0  0  0  0  0  0  0  0  0  0  0
    5.4641    1.0950    0.0000 N   0  0  0  0  0  0  0  0  0  0  0  0
    4.5981   -0.4050    0.0000 C   0  0  0  0  0  0  0  0  0  0  0  0
    3.7320    0.0950    0.0000 C   0  0  0  0  0  0  0  0  0  0  0  0
    5.4641    0.0950    0.0000 C   0  0  1  0  0  0  0  0  0  0  0  0
    2.0000   -0.9050    0.0000 C   0  0  0  0  0  0  0  0  0  0  0  0
    6.3301   -0.4050    0.0000 C   0  0  0  0  0  0  0  0  0  0  0  0
    4.1996   -0.8799    0.0000 H   0  0  0  0  0  0  0  0  0  0  0  0
    4.9966   -0.8799    0.0000 H   0  0  0  0  0  0  0  0  0  0  0  0
    4.1306    0.5699    0.0000 H   0  0  0  0  0  0  0  0  0  0  0  0
    3.3335    0.5699    0.0000 H   0  0  0  0  0  0  0  0  0  0  0  0
    6.0010    0.4050    0.0000 H   0  0  0  0  0  0  0  0  0  0  0  0
    1.6900   -0.3681    0.0000 H   0  0  0  0  0  0  0  0  0  0  0  0
    1.4631   -1.2150    0.0000 H   0  0  0  0  0  0  0  0  0  0  0  0
    2.3100   -1.4419    0.0000 H   0  0  0  0  0  0  0  0  0  0  0  0
    6.0010    1.4050    0.0000 H   0  0  0  0  0  0  0  0  0  0  0  0
    4.9272    1.4050    0.0000 H   0  0  0  0  0  0  0  0  0  0  0  0
    7.7331   -0.2150    0.0000 H   0  0  0  0  0  0  0  0  0  0  0  0
  1  2  2  0  0  0  0
  1  3  2  0  0  0  0
  1  8  1  0  0  0  0
  1 10  1  0  0  0  0
  4 11  1  0  0  0  0
  4 22  1  0  0  0  0
  5 11  2  0  0  0  0
  6 20  1  0  0  0  0
  6 21  1  0  0  0  0
  7  8  1  0  0  0  0
  7  9  1  0  0  0  0
  7 12  1  0  0  0  0
  7 13  1  0  0  0  0
  8 14  1  0  0  0  0
  8 15  1  0  0  0  0
  9  6  1  0  0  0  0
  9 11  1  0  0  0  0
  9 16  1  1  0  0  0
 10 17  1  0  0  0  0
 10 18  1  0  0  0  0
 10 19  1  0  0  0  0
M  END
>  <PUBCHEM_COMPOUND_CID>
445282

>  <PUBCHEM_COMPOUND_CANONICALIZED>
1

>  <PUBCHEM_CACTVS_COMPLEXITY>
227

>  <PUBCHEM_CACTVS_HBOND_ACCEPTOR>
5

>  <PUBCHEM_CACTVS_HBOND_DONOR>
2

>  <PUBCHEM_CACTVS_ROTATABLE_BOND>
4

>  <PUBCHEM_CACTVS_SUBSKEYS>
AAADccBiOABAAAAAAAAAAAAAAAAAAAAAAAAAAAAAAAAAAAAAAAAAHgQQCAAACCjFwASCCABAAgoIAACQCHBAAAAAABAAAIGAAAACABAgAAAAQAAEEAAAAAAAAAAAAAAAAAAAAAAAAAAAAAAAAAAAAAAAAA==

>  <PUBCHEM_IUPAC_OPENEYE_NAME>
(2S)-2-amino-4-methylsulfonyl-butanoic acid

>  <PUBCHEM_IUPAC_CAS_NAME>
(2S)-2-amino-4-methylsulfonylbutanoic acid

>  <PUBCHEM_IUPAC_NAME>
(2S)-2-amino-4-methylsulfonylbutanoic acid

>  <PUBCHEM_IUPAC_SYSTEMATIC_NAME>
(2S)-2-azanyl-4-methylsulfonyl-butanoic acid

>  <PUBCHEM_IUPAC_TRADITIONAL_NAME>
(2S)-2-amino-4-mesyl-butyric acid

>  <PUBCHEM_IUPAC_INCHI>
InChI=1S/C5H11NO4S/c1-11(9,10)3-2-4(6)5(7)8/h4H,2-3,6H2,1H3,(H,7,8)/t4-/m0/s1

>  <PUBCHEM_IUPAC_INCHIKEY>
UCUNFLYVYCGDHP-BYPYZUCNSA-N

>  <PUBCHEM_XLOGP3>
-3.1

>  <PUBCHEM_EXACT_MASS>
181.041

>  <PUBCHEM_MOLECULAR_FORMULA>
C5H11NO4S

>  <PUBCHEM_MOLECULAR_WEIGHT>
181.206

>  <PUBCHEM_OPENEYE_CAN_SMILES>
CS(=O)(=O)CCC(C(=O)O)N

>  <PUBCHEM_OPENEYE_ISO_SMILES>
CS(=O)(=O)CC[C@@H](C(=O)O)N

>  <PUBCHEM_CACTVS_TPSA>
106

>  <PUBCHEM_MONOISOTOPIC_WEIGHT>
181.041

>  <PUBCHEM_TOTAL_CHARGE>
0

>  <PUBCHEM_HEAVY_ATOM_COUNT>
11

>  <PUBCHEM_ATOM_DEF_STEREO_COUNT>
1

>  <PUBCHEM_ATOM_UDEF_STEREO_COUNT>
0

>  <PUBCHEM_BOND_DEF_STEREO_COUNT>
0

>  <PUBCHEM_BOND_UDEF_STEREO_COUNT>
0

>  <PUBCHEM_ISOTOPIC_ATOM_COUNT>
0

>  <PUBCHEM_COMPONENT_COUNT>
1

>  <PUBCHEM_CACTVS_TAUTO_COUNT>
1

>  <PUBCHEM_COORDINATE_TYPE>
1
5
255

>  <PUBCHEM_BONDANNOTATIONS>
9  6  6

$$$$
