4453
 OpenBabel06101807152D

 79 82  0  0  1  0  0  0  0  0999 V2000
    8.9282   -2.8450    0.0000 O   0  0  0  0  0  0  0  0  0  0  0  0
    8.0622   -0.3450    0.0000 O   0  0  0  0  0  0  0  0  0  0  0  0
    7.1962   -2.8450    0.0000 O   0  0  0  0  0  0  0  0  0  0  0  0
   10.6603   -1.8450    0.0000 O   0  0  0  0  0  0  0  0  0  0  0  0
    7.1962   -1.8450    0.0000 O   0  0  0  0  0  0  0  0  0  0  0  0
   10.6603    0.1550    0.0000 O   0  0  0  0  0  0  0  0  0  0  0  0
    8.9282   -4.8450    0.0000 O   0  0  0  0  0  0  0  0  0  0  0  0
    7.1962   -5.8450    0.0000 O   0  0  0  0  0  0  0  0  0  0  0  0
    5.4641   -4.8450    0.0000 O   0  0  0  0  0  0  0  0  0  0  0  0
    9.7942    1.6550    0.0000 O   0  0  0  0  0  0  0  0  0  0  0  0
    3.7320   -1.8450    0.0000 O   0  0  0  0  0  0  0  0  0  0  0  0
    5.4641    1.1550    0.0000 O   0  0  0  0  0  0  0  0  0  0  0  0
    2.8660   -0.3450    0.0000 O   0  0  0  0  0  0  0  0  0  0  0  0
    2.8660    5.6550    0.0000 O   0  0  0  0  0  0  0  0  0  0  0  0
    4.5981    4.6550    0.0000 O   0  0  0  0  0  0  0  0  0  0  0  0
    8.9282   -1.8450    0.0000 C   0  0  3  0  0  0  0  0  0  0  0  0
    9.7942   -1.3450    0.0000 C   0  0  3  0  0  0  0  0  0  0  0  0
    9.7942   -0.3450    0.0000 C   0  0  3  0  0  0  0  0  0  0  0  0
    8.0622   -3.3450    0.0000 C   0  0  3  0  0  0  0  0  0  0  0  0
    8.0622   -4.3450    0.0000 C   0  0  3  0  0  0  0  0  0  0  0  0
    8.0622   -1.3450    0.0000 C   0  0  3  0  0  0  0  0  0  0  0  0
    8.9282    0.1550    0.0000 C   0  0  3  0  0  0  0  0  0  0  0  0
    7.1962   -4.8450    0.0000 C   0  0  3  0  0  0  0  0  0  0  0  0
    6.3301   -4.3450    0.0000 C   0  0  3  0  0  0  0  0  0  0  0  0
    6.3301   -3.3450    0.0000 C   0  0  3  0  0  0  0  0  0  0  0  0
    8.9282    1.1550    0.0000 C   0  0  0  0  0  0  0  0  0  0  0  0
    5.4641   -2.8450    0.0000 C   0  0  0  0  0  0  0  0  0  0  0  0
    6.3301   -1.3450    0.0000 C   0  0  0  0  0  0  0  0  0  0  0  0
    6.3301   -0.3450    0.0000 C   0  0  0  0  0  0  0  0  0  0  0  0
    5.4641   -1.8450    0.0000 C   0  0  0  0  0  0  0  0  0  0  0  0
    4.5981   -1.3450    0.0000 C   0  0  0  0  0  0  0  0  0  0  0  0
    5.4641    0.1550    0.0000 C   0  0  0  0  0  0  0  0  0  0  0  0
    4.5981   -0.3450    0.0000 C   0  0  0  0  0  0  0  0  0  0  0  0
    3.7320    0.1550    0.0000 C   0  0  0  0  0  0  0  0  0  0  0  0
    3.7320    1.1550    0.0000 C   0  0  0  0  0  0  0  0  0  0  0  0
    2.8660    1.6550    0.0000 C   0  0  0  0  0  0  0  0  0  0  0  0
    2.8660    2.6550    0.0000 C   0  0  0  0  0  0  0  0  0  0  0  0
    3.7320    3.1550    0.0000 C   0  0  0  0  0  0  0  0  0  0  0  0
    2.0000    3.1550    0.0000 C   0  0  0  0  0  0  0  0  0  0  0  0
    3.7320    4.1550    0.0000 C   0  0  0  0  0  0  0  0  0  0  0  0
    2.0000    4.1550    0.0000 C   0  0  0  0  0  0  0  0  0  0  0  0
    2.8660    4.6550    0.0000 C   0  0  0  0  0  0  0  0  0  0  0  0
    2.0000    6.1550    0.0000 C   0  0  0  0  0  0  0  0  0  0  0  0
    9.6643   -2.2700    0.0000 H   0  0  0  0  0  0  0  0  0  0  0  0
   10.5304   -0.9200    0.0000 H   0  0  0  0  0  0  0  0  0  0  0  0
    9.7942    0.5050    0.0000 H   0  0  0  0  0  0  0  0  0  0  0  0
    8.0622   -2.4950    0.0000 H   0  0  0  0  0  0  0  0  0  0  0  0
    8.0622   -5.1950    0.0000 H   0  0  0  0  0  0  0  0  0  0  0  0
    7.3261   -0.9200    0.0000 H   0  0  0  0  0  0  0  0  0  0  0  0
    8.1921    0.5800    0.0000 H   0  0  0  0  0  0  0  0  0  0  0  0
    6.4600   -5.2700    0.0000 H   0  0  0  0  0  0  0  0  0  0  0  0
    5.5940   -3.9200    0.0000 H   0  0  0  0  0  0  0  0  0  0  0  0
    6.3301   -2.4950    0.0000 H   0  0  0  0  0  0  0  0  0  0  0  0
    8.7162    1.7376    0.0000 H   0  0  0  0  0  0  0  0  0  0  0  0
    8.3176    1.0473    0.0000 H   0  0  0  0  0  0  0  0  0  0  0  0
    5.7741   -2.3081    0.0000 H   0  0  0  0  0  0  0  0  0  0  0  0
    4.9272   -2.5350    0.0000 H   0  0  0  0  0  0  0  0  0  0  0  0
    5.1541   -3.3819    0.0000 H   0  0  0  0  0  0  0  0  0  0  0  0
   11.1972   -1.5350    0.0000 H   0  0  0  0  0  0  0  0  0  0  0  0
   11.1972   -0.1550    0.0000 H   0  0  0  0  0  0  0  0  0  0  0  0
    8.9282   -5.4650    0.0000 H   0  0  0  0  0  0  0  0  0  0  0  0
    6.6592   -6.1550    0.0000 H   0  0  0  0  0  0  0  0  0  0  0  0
    4.9272   -4.5350    0.0000 H   0  0  0  0  0  0  0  0  0  0  0  0
    9.7942    2.2750    0.0000 H   0  0  0  0  0  0  0  0  0  0  0  0
    6.8671   -0.0350    0.0000 H   0  0  0  0  0  0  0  0  0  0  0  0
    5.4641   -2.4650    0.0000 H   0  0  0  0  0  0  0  0  0  0  0  0
    4.3426    1.0473    0.0000 H   0  0  0  0  0  0  0  0  0  0  0  0
    3.9441    1.7376    0.0000 H   0  0  0  0  0  0  0  0  0  0  0  0
    3.7320   -2.4650    0.0000 H   0  0  0  0  0  0  0  0  0  0  0  0
    6.0010    1.4650    0.0000 H   0  0  0  0  0  0  0  0  0  0  0  0
    2.2554    1.7627    0.0000 H   0  0  0  0  0  0  0  0  0  0  0  0
    2.6540    1.0724    0.0000 H   0  0  0  0  0  0  0  0  0  0  0  0
    4.2690    2.8450    0.0000 H   0  0  0  0  0  0  0  0  0  0  0  0
    1.4631    2.8450    0.0000 H   0  0  0  0  0  0  0  0  0  0  0  0
    1.4631    4.4650    0.0000 H   0  0  0  0  0  0  0  0  0  0  0  0
    4.5981    5.2750    0.0000 H   0  0  0  0  0  0  0  0  0  0  0  0
    2.3100    6.6919    0.0000 H   0  0  0  0  0  0  0  0  0  0  0  0
    1.4631    6.4650    0.0000 H   0  0  0  0  0  0  0  0  0  0  0  0
    1.6900    5.6181    0.0000 H   0  0  0  0  0  0  0  0  0  0  0  0
  1 16  1  0  0  0  0
  1 19  1  0  0  0  0
  2 21  1  0  0  0  0
  2 22  1  0  0  0  0
  3 19  1  0  0  0  0
  3 25  1  0  0  0  0
  4 17  1  0  0  0  0
  4 59  1  0  0  0  0
  5 21  1  0  0  0  0
  5 28  1  0  0  0  0
  6 18  1  0  0  0  0
  6 60  1  0  0  0  0
  7 20  1  0  0  0  0
  7 61  1  0  0  0  0
  8 23  1  0  0  0  0
  8 62  1  0  0  0  0
  9 24  1  0  0  0  0
  9 63  1  0  0  0  0
 10 26  1  0  0  0  0
 10 64  1  0  0  0  0
 11 31  1  0  0  0  0
 11 69  1  0  0  0  0
 12 32  1  0  0  0  0
 12 70  1  0  0  0  0
 13 34  2  0  0  0  0
 14 42  1  0  0  0  0
 14 43  1  0  0  0  0
 15 40  1  0  0  0  0
 15 76  1  0  0  0  0
 16 17  1  0  0  0  0
 16 21  1  0  0  0  0
 16 44  1  0  0  0  0
 17 18  1  0  0  0  0
 17 45  1  0  0  0  0
 18 22  1  0  0  0  0
 18 46  1  0  0  0  0
 19 20  1  0  0  0  0
 19 47  1  0  0  0  0
 20 23  1  0  0  0  0
 20 48  1  0  0  0  0
 21 49  1  0  0  0  0
 22 26  1  0  0  0  0
 22 50  1  0  0  0  0
 23 24  1  0  0  0  0
 23 51  1  0  0  0  0
 24 25  1  0  0  0  0
 24 52  1  0  0  0  0
 25 27  1  0  0  0  0
 25 53  1  0  0  0  0
 26 54  1  0  0  0  0
 26 55  1  0  0  0  0
 27 56  1  0  0  0  0
 27 57  1  0  0  0  0
 27 58  1  0  0  0  0
 28 29  2  0  0  0  0
 28 30  1  0  0  0  0
 29 32  1  0  0  0  0
 29 65  1  0  0  0  0
 30 31  2  0  0  0  0
 30 66  1  0  0  0  0
 31 33  1  0  0  0  0
 32 33  2  0  0  0  0
 33 34  1  0  0  0  0
 34 35  1  0  0  0  0
 35 36  1  0  0  0  0
 35 67  1  0  0  0  0
 35 68  1  0  0  0  0
 36 37  1  0  0  0  0
 36 71  1  0  0  0  0
 36 72  1  0  0  0  0
 37 38  2  0  0  0  0
 37 39  1  0  0  0  0
 38 40  1  0  0  0  0
 38 73  1  0  0  0  0
 39 41  2  0  0  0  0
 39 74  1  0  0  0  0
 40 42  2  0  0  0  0
 41 42  1  0  0  0  0
 41 75  1  0  0  0  0
 43 77  1  0  0  0  0
 43 78  1  0  0  0  0
 43 79  1  0  0  0  0
M  END
>  <PUBCHEM_COMPOUND_CID>
4453

>  <PUBCHEM_COMPOUND_CANONICALIZED>
1

>  <PUBCHEM_CACTVS_COMPLEXITY>
882

>  <PUBCHEM_CACTVS_HBOND_ACCEPTOR>
15

>  <PUBCHEM_CACTVS_HBOND_DONOR>
9

>  <PUBCHEM_CACTVS_ROTATABLE_BOND>
10

>  <PUBCHEM_CACTVS_SUBSKEYS>
AAADcfB4PAAAAAAAAAAAAAAAAAAAAAAAAAA0aIEAAAAAAAABQAAAGgAACAAADBSwmAMyDoAABgCIAqBSAAACCAAkIAAIiAEGiMgdNzaGNRqieWOl4BUPuQfI7PzOIAABCAAIQABAAAIQABCAAAAAAAAAAA==

>  <PUBCHEM_IUPAC_OPENEYE_NAME>
1-[4-[4,5-dihydroxy-6-(hydroxymethyl)-3-(3,4,5-trihydroxy-6-methyl-tetrahydropyran-2-yl)oxy-tetrahydropyran-2-yl]oxy-2,6-dihydroxy-phenyl]-3-(3-hydroxy-4-methoxy-phenyl)propan-1-one

>  <PUBCHEM_IUPAC_CAS_NAME>
1-[4-[[4,5-dihydroxy-6-(hydroxymethyl)-3-[(3,4,5-trihydroxy-6-methyl-2-oxanyl)oxy]-2-oxanyl]oxy]-2,6-dihydroxyphenyl]-3-(3-hydroxy-4-methoxyphenyl)-1-propanone

>  <PUBCHEM_IUPAC_NAME>
1-[4-[4,5-dihydroxy-6-(hydroxymethyl)-3-(3,4,5-trihydroxy-6-methyloxan-2-yl)oxyoxan-2-yl]oxy-2,6-dihydroxyphenyl]-3-(3-hydroxy-4-methoxyphenyl)propan-1-one

>  <PUBCHEM_IUPAC_SYSTEMATIC_NAME>
1-[4-[6-(hydroxymethyl)-3-[6-methyl-3,4,5-tris(oxidanyl)oxan-2-yl]oxy-4,5-bis(oxidanyl)oxan-2-yl]oxy-2,6-bis(oxidanyl)phenyl]-3-(4-methoxy-3-oxidanyl-phenyl)propan-1-one

>  <PUBCHEM_IUPAC_TRADITIONAL_NAME>
1-[4-[4,5-dihydroxy-6-methylol-3-(3,4,5-trihydroxy-6-methyl-tetrahydropyran-2-yl)oxy-tetrahydropyran-2-yl]oxy-2,6-dihydroxy-phenyl]-3-(3-hydroxy-4-methoxy-phenyl)propan-1-one

>  <PUBCHEM_IUPAC_INCHI>
InChI=1S/C28H36O15/c1-11-21(34)23(36)25(38)27(40-11)43-26-24(37)22(35)19(10-29)42-28(26)41-13-8-16(32)20(17(33)9-13)14(30)5-3-12-4-6-18(39-2)15(31)7-12/h4,6-9,11,19,21-29,31-38H,3,5,10H2,1-2H3

>  <PUBCHEM_IUPAC_INCHIKEY>
ITVGXXMINPYUHD-UHFFFAOYSA-N

>  <PUBCHEM_XLOGP3_AA>
-0.3

>  <PUBCHEM_EXACT_MASS>
612.205

>  <PUBCHEM_MOLECULAR_FORMULA>
C28H36O15

>  <PUBCHEM_MOLECULAR_WEIGHT>
612.581

>  <PUBCHEM_OPENEYE_CAN_SMILES>
CC1C(C(C(C(O1)OC2C(C(C(OC2OC3=CC(=C(C(=C3)O)C(=O)CCC4=CC(=C(C=C4)OC)O)O)CO)O)O)O)O)O

>  <PUBCHEM_OPENEYE_ISO_SMILES>
CC1C(C(C(C(O1)OC2C(C(C(OC2OC3=CC(=C(C(=C3)O)C(=O)CCC4=CC(=C(C=C4)OC)O)O)CO)O)O)O)O)O

>  <PUBCHEM_CACTVS_TPSA>
245

>  <PUBCHEM_MONOISOTOPIC_WEIGHT>
612.205

>  <PUBCHEM_TOTAL_CHARGE>
0

>  <PUBCHEM_HEAVY_ATOM_COUNT>
43

>  <PUBCHEM_ATOM_DEF_STEREO_COUNT>
0

>  <PUBCHEM_ATOM_UDEF_STEREO_COUNT>
10

>  <PUBCHEM_BOND_DEF_STEREO_COUNT>
0

>  <PUBCHEM_BOND_UDEF_STEREO_COUNT>
0

>  <PUBCHEM_ISOTOPIC_ATOM_COUNT>
0

>  <PUBCHEM_COMPONENT_COUNT>
1

>  <PUBCHEM_CACTVS_TAUTO_COUNT>
178

>  <PUBCHEM_COORDINATE_TYPE>
1
5
255

>  <PUBCHEM_BONDANNOTATIONS>
16  44  3
17  45  3
18  46  3
19  47  3
20  48  3
21  49  3
22  50  3
23  51  3
24  52  3
25  53  3
28  29  8
28  30  8
29  32  8
30  31  8
31  33  8
32  33  8
37  38  8
37  39  8
38  40  8
39  41  8
40  42  8
41  42  8

$$$$
