44575586
 OpenBabel06101807152D

 28 29  0  0  0  0  0  0  0  0999 V2000
    5.5321   -0.1346    0.0000 O   0  0  0  0  0  0  0  0  0  0  0  0
    2.9176   -1.6692    0.0000 O   0  0  0  0  0  0  0  0  0  0  0  0
    4.6660   -1.6346    0.0000 O   0  0  0  0  0  0  0  0  0  0  0  0
    3.8000    0.8654    0.0000 C   0  0  0  0  0  0  0  0  0  0  0  0
    3.8000   -0.1346    0.0000 C   0  0  0  0  0  0  0  0  0  0  0  0
    4.6660    1.3654    0.0000 C   0  0  0  0  0  0  0  0  0  0  0  0
    5.5321    0.8654    0.0000 C   0  0  0  0  0  0  0  0  0  0  0  0
    2.9061   -0.6693    0.0000 C   0  0  0  0  0  0  0  0  0  0  0  0
    2.9061    1.4000    0.0000 C   0  0  0  0  0  0  0  0  0  0  0  0
    4.6660   -0.6346    0.0000 C   0  0  0  0  0  0  0  0  0  0  0  0
    6.3981    1.3654    0.0000 C   0  0  0  0  0  0  0  0  0  0  0  0
    2.0000   -0.1554    0.0000 C   0  0  0  0  0  0  0  0  0  0  0  0
    2.0000    0.8862    0.0000 C   0  0  0  0  0  0  0  0  0  0  0  0
    8.1301    1.3654    0.0000 C   0  0  0  0  0  0  0  0  0  0  0  0
    7.2641    0.8654    0.0000 C   0  0  0  0  0  0  0  0  0  0  0  0
    8.9962    0.8654    0.0000 C   0  0  0  0  0  0  0  0  0  0  0  0
    4.6660    1.9854    0.0000 H   0  0  0  0  0  0  0  0  0  0  0  0
    2.9132    2.0200    0.0000 H   0  0  0  0  0  0  0  0  0  0  0  0
    6.3981    1.9854    0.0000 H   0  0  0  0  0  0  0  0  0  0  0  0
    1.4643   -0.4675    0.0000 H   0  0  0  0  0  0  0  0  0  0  0  0
    1.4643    1.1983    0.0000 H   0  0  0  0  0  0  0  0  0  0  0  0
    8.5287    1.8403    0.0000 H   0  0  0  0  0  0  0  0  0  0  0  0
    7.7316    1.8403    0.0000 H   0  0  0  0  0  0  0  0  0  0  0  0
    7.2641    0.2454    0.0000 H   0  0  0  0  0  0  0  0  0  0  0  0
    8.6862    0.3285    0.0000 H   0  0  0  0  0  0  0  0  0  0  0  0
    9.5331    0.5554    0.0000 H   0  0  0  0  0  0  0  0  0  0  0  0
    9.3062    1.4023    0.0000 H   0  0  0  0  0  0  0  0  0  0  0  0
    2.3843   -1.9854    0.0000 H   0  0  0  0  0  0  0  0  0  0  0  0
  1  7  1  0  0  0  0
  1 10  1  0  0  0  0
  2  8  1  0  0  0  0
  2 28  1  0  0  0  0
  3 10  2  0  0  0  0
  4  5  2  0  0  0  0
  4  6  1  0  0  0  0
  4  9  1  0  0  0  0
  5  8  1  0  0  0  0
  5 10  1  0  0  0  0
  6  7  2  0  0  0  0
  6 17  1  0  0  0  0
  7 11  1  0  0  0  0
  8 12  2  0  0  0  0
  9 13  2  0  0  0  0
  9 18  1  0  0  0  0
 11 15  2  0  0  0  0
 11 19  1  0  0  0  0
 12 13  1  0  0  0  0
 12 20  1  0  0  0  0
 13 21  1  0  0  0  0
 14 15  1  0  0  0  0
 14 16  1  0  0  0  0
 14 22  1  0  0  0  0
 14 23  1  0  0  0  0
 15 24  1  0  0  0  0
 16 25  1  0  0  0  0
 16 26  1  0  0  0  0
 16 27  1  0  0  0  0
M  END
>  <PUBCHEM_COMPOUND_CID>
44575586

>  <PUBCHEM_COMPOUND_CANONICALIZED>
1

>  <PUBCHEM_CACTVS_COMPLEXITY>
330

>  <PUBCHEM_CACTVS_HBOND_ACCEPTOR>
3

>  <PUBCHEM_CACTVS_HBOND_DONOR>
1

>  <PUBCHEM_CACTVS_ROTATABLE_BOND>
2

>  <PUBCHEM_CACTVS_SUBSKEYS>
AAADccBwMAAAAAAAAAAAAAAAAAAAAAAAAAAwQAAAAAAAAACBAAAAGgAACAAADASAmAAyDoAABgCIAiDSCAACCAAkIAAIiAEGCMgIJzaCNRqCcUAl4BEIuQeIyLCOgAABAAAYAAAAAAIAADAAAAAAAAAAAA==

>  <PUBCHEM_IUPAC_OPENEYE_NAME>
3-[(E)-but-1-enyl]-8-hydroxy-isochromen-1-one

>  <PUBCHEM_IUPAC_CAS_NAME>
3-[(E)-but-1-enyl]-8-hydroxy-2-benzopyran-1-one

>  <PUBCHEM_IUPAC_NAME>
3-[(E)-but-1-enyl]-8-hydroxyisochromen-1-one

>  <PUBCHEM_IUPAC_SYSTEMATIC_NAME>
3-[(E)-but-1-enyl]-8-oxidanyl-isochromen-1-one

>  <PUBCHEM_IUPAC_TRADITIONAL_NAME>
3-[(E)-but-1-enyl]-8-hydroxy-isocoumarin

>  <PUBCHEM_IUPAC_INCHI>
InChI=1S/C13H12O3/c1-2-3-6-10-8-9-5-4-7-11(14)12(9)13(15)16-10/h3-8,14H,2H2,1H3/b6-3+

>  <PUBCHEM_IUPAC_INCHIKEY>
KIVJBPPONQCANS-ZZXKWVIFSA-N

>  <PUBCHEM_XLOGP3_AA>
3.6

>  <PUBCHEM_EXACT_MASS>
216.079

>  <PUBCHEM_MOLECULAR_FORMULA>
C13H12O3

>  <PUBCHEM_MOLECULAR_WEIGHT>
216.236

>  <PUBCHEM_OPENEYE_CAN_SMILES>
CCC=CC1=CC2=C(C(=CC=C2)O)C(=O)O1

>  <PUBCHEM_OPENEYE_ISO_SMILES>
CC/C=C/C1=CC2=C(C(=CC=C2)O)C(=O)O1

>  <PUBCHEM_CACTVS_TPSA>
46.5

>  <PUBCHEM_MONOISOTOPIC_WEIGHT>
216.079

>  <PUBCHEM_TOTAL_CHARGE>
0

>  <PUBCHEM_HEAVY_ATOM_COUNT>
16

>  <PUBCHEM_ATOM_DEF_STEREO_COUNT>
0

>  <PUBCHEM_ATOM_UDEF_STEREO_COUNT>
0

>  <PUBCHEM_BOND_DEF_STEREO_COUNT>
1

>  <PUBCHEM_BOND_UDEF_STEREO_COUNT>
0

>  <PUBCHEM_ISOTOPIC_ATOM_COUNT>
0

>  <PUBCHEM_COMPONENT_COUNT>
1

>  <PUBCHEM_CACTVS_TAUTO_COUNT>
4

>  <PUBCHEM_COORDINATE_TYPE>
1
5
255

>  <PUBCHEM_BONDANNOTATIONS>
1  10  8
1  7  8
12  13  8
4  5  8
4  6  8
4  9  8
5  10  8
5  8  8
6  7  8
8  12  8
9  13  8

$$$$
