4463283
 OpenBabel06101807152D

 76 80  0  0  1  0  0  0  0  0999 V2000
    8.1101   -2.8743    0.0000 O   0  0  0  0  0  0  0  0  0  0  0  0
    7.2441   -0.3743    0.0000 O   0  0  0  0  0  0  0  0  0  0  0  0
    6.3781   -2.8743    0.0000 O   0  0  0  0  0  0  0  0  0  0  0  0
    6.3781   -1.8743    0.0000 O   0  0  0  0  0  0  0  0  0  0  0  0
    9.8422   -1.8743    0.0000 O   0  0  0  0  0  0  0  0  0  0  0  0
    9.8422    0.1257    0.0000 O   0  0  0  0  0  0  0  0  0  0  0  0
    8.1101   -4.8743    0.0000 O   0  0  0  0  0  0  0  0  0  0  0  0
    6.3781   -5.8743    0.0000 O   0  0  0  0  0  0  0  0  0  0  0  0
    4.6460   -4.8743    0.0000 O   0  0  0  0  0  0  0  0  0  0  0  0
    8.9761    1.6257    0.0000 O   0  0  0  0  0  0  0  0  0  0  0  0
    4.6038    1.1777    0.0000 O   0  0  0  0  0  0  0  0  0  0  0  0
    2.8383   -1.8470    0.0000 O   0  0  0  0  0  0  0  0  0  0  0  0
    2.0000   -0.3123    0.0000 O   0  0  0  0  0  0  0  0  0  0  0  0
    3.7552    5.6810    0.0000 O   0  0  0  0  0  0  0  0  0  0  0  0
    8.1101   -1.8743    0.0000 C   0  0  3  0  0  0  0  0  0  0  0  0
    8.9761   -1.3743    0.0000 C   0  0  3  0  0  0  0  0  0  0  0  0
    8.9761   -0.3743    0.0000 C   0  0  3  0  0  0  0  0  0  0  0  0
    7.2441   -3.3743    0.0000 C   0  0  3  0  0  0  0  0  0  0  0  0
    7.2441   -1.3743    0.0000 C   0  0  3  0  0  0  0  0  0  0  0  0
    7.2441   -4.3743    0.0000 C   0  0  3  0  0  0  0  0  0  0  0  0
    8.1101    0.1257    0.0000 C   0  0  3  0  0  0  0  0  0  0  0  0
    6.3781   -4.8743    0.0000 C   0  0  3  0  0  0  0  0  0  0  0  0
    5.5120   -4.3743    0.0000 C   0  0  3  0  0  0  0  0  0  0  0  0
    5.5120   -3.3743    0.0000 C   0  0  3  0  0  0  0  0  0  0  0  0
    8.1101    1.1257    0.0000 C   0  0  0  0  0  0  0  0  0  0  0  0
    4.6460   -2.8743    0.0000 C   0  0  0  0  0  0  0  0  0  0  0  0
    5.5120   -1.3743    0.0000 C   0  0  0  0  0  0  0  0  0  0  0  0
    5.5080   -0.3327    0.0000 C   0  0  0  0  0  0  0  0  0  0  0  0
    4.6080   -1.8916    0.0000 C   0  0  0  0  0  0  0  0  0  0  0  0
    4.6000    0.1777    0.0000 C   0  0  0  0  0  0  0  0  0  0  0  0
    3.7320   -0.3190    0.0000 C   0  0  0  0  0  0  0  0  0  0  0  0
    3.7398    1.6810    0.0000 C   0  0  3  0  0  0  0  0  0  0  0  0
    3.7120   -1.3604    0.0000 C   0  0  0  0  0  0  0  0  0  0  0  0
    2.8718    1.1843    0.0000 C   0  0  0  0  0  0  0  0  0  0  0  0
    2.8680    0.1843    0.0000 C   0  0  0  0  0  0  0  0  0  0  0  0
    3.7436    2.6810    0.0000 C   0  0  0  0  0  0  0  0  0  0  0  0
    4.6116    3.1776    0.0000 C   0  0  0  0  0  0  0  0  0  0  0  0
    2.8795    3.1843    0.0000 C   0  0  0  0  0  0  0  0  0  0  0  0
    4.6154    4.1776    0.0000 C   0  0  0  0  0  0  0  0  0  0  0  0
    2.8834    4.1843    0.0000 C   0  0  0  0  0  0  0  0  0  0  0  0
    3.7513    4.6810    0.0000 C   0  0  0  0  0  0  0  0  0  0  0  0
    2.8911    6.1843    0.0000 C   0  0  0  0  0  0  0  0  0  0  0  0
    7.5732   -2.1843    0.0000 H   0  0  0  0  0  0  0  0  0  0  0  0
    9.5131   -1.0643    0.0000 H   0  0  0  0  0  0  0  0  0  0  0  0
    8.9761    0.2457    0.0000 H   0  0  0  0  0  0  0  0  0  0  0  0
    7.2441   -2.7543    0.0000 H   0  0  0  0  0  0  0  0  0  0  0  0
    6.7072   -1.0643    0.0000 H   0  0  0  0  0  0  0  0  0  0  0  0
    7.7810   -4.0643    0.0000 H   0  0  0  0  0  0  0  0  0  0  0  0
    7.5732    0.4357    0.0000 H   0  0  0  0  0  0  0  0  0  0  0  0
    6.9150   -5.1843    0.0000 H   0  0  0  0  0  0  0  0  0  0  0  0
    4.9751   -4.0643    0.0000 H   0  0  0  0  0  0  0  0  0  0  0  0
    5.5120   -2.7543    0.0000 H   0  0  0  0  0  0  0  0  0  0  0  0
    7.8981    1.7083    0.0000 H   0  0  0  0  0  0  0  0  0  0  0  0
    7.4995    1.0180    0.0000 H   0  0  0  0  0  0  0  0  0  0  0  0
    4.9560   -2.3374    0.0000 H   0  0  0  0  0  0  0  0  0  0  0  0
    4.1091   -2.5643    0.0000 H   0  0  0  0  0  0  0  0  0  0  0  0
    4.3360   -3.4112    0.0000 H   0  0  0  0  0  0  0  0  0  0  0  0
   10.3791   -1.5643    0.0000 H   0  0  0  0  0  0  0  0  0  0  0  0
   10.3791   -0.1843    0.0000 H   0  0  0  0  0  0  0  0  0  0  0  0
    8.1101   -5.4943    0.0000 H   0  0  0  0  0  0  0  0  0  0  0  0
    5.8411   -6.1843    0.0000 H   0  0  0  0  0  0  0  0  0  0  0  0
    4.1091   -4.5643    0.0000 H   0  0  0  0  0  0  0  0  0  0  0  0
    8.9761    2.2457    0.0000 H   0  0  0  0  0  0  0  0  0  0  0  0
    6.0426   -0.0185    0.0000 H   0  0  0  0  0  0  0  0  0  0  0  0
    4.6032   -2.5116    0.0000 H   0  0  0  0  0  0  0  0  0  0  0  0
    4.2779    1.9889    0.0000 H   0  0  0  0  0  0  0  0  0  0  0  0
    2.6620    1.7678    0.0000 H   0  0  0  0  0  0  0  0  0  0  0  0
    2.2608    1.0790    0.0000 H   0  0  0  0  0  0  0  0  0  0  0  0
    2.8288   -2.4669    0.0000 H   0  0  0  0  0  0  0  0  0  0  0  0
    5.1473    2.8656    0.0000 H   0  0  0  0  0  0  0  0  0  0  0  0
    2.3414    2.8764    0.0000 H   0  0  0  0  0  0  0  0  0  0  0  0
    5.1535    4.4856    0.0000 H   0  0  0  0  0  0  0  0  0  0  0  0
    2.3476    4.4964    0.0000 H   0  0  0  0  0  0  0  0  0  0  0  0
    3.2031    6.7200    0.0000 H   0  0  0  0  0  0  0  0  0  0  0  0
    2.3553    6.4964    0.0000 H   0  0  0  0  0  0  0  0  0  0  0  0
    2.5790    5.6486    0.0000 H   0  0  0  0  0  0  0  0  0  0  0  0
  1 15  1  0  0  0  0
  1 18  1  0  0  0  0
  2 19  1  0  0  0  0
  2 21  1  0  0  0  0
  3 18  1  0  0  0  0
  3 24  1  0  0  0  0
  4 19  1  0  0  0  0
  4 27  1  0  0  0  0
  5 16  1  0  0  0  0
  5 58  1  0  0  0  0
  6 17  1  0  0  0  0
  6 59  1  0  0  0  0
  7 20  1  0  0  0  0
  7 60  1  0  0  0  0
  8 22  1  0  0  0  0
  8 61  1  0  0  0  0
  9 23  1  0  0  0  0
  9 62  1  0  0  0  0
 10 25  1  0  0  0  0
 10 63  1  0  0  0  0
 11 30  1  0  0  0  0
 11 32  1  0  0  0  0
 12 33  1  0  0  0  0
 12 69  1  0  0  0  0
 13 35  2  0  0  0  0
 14 41  1  0  0  0  0
 14 42  1  0  0  0  0
 15 16  1  0  0  0  0
 15 19  1  0  0  0  0
 15 43  1  0  0  0  0
 16 17  1  0  0  0  0
 16 44  1  0  0  0  0
 17 21  1  0  0  0  0
 17 45  1  0  0  0  0
 18 20  1  0  0  0  0
 18 46  1  0  0  0  0
 19 47  1  0  0  0  0
 20 22  1  0  0  0  0
 20 48  1  0  0  0  0
 21 25  1  0  0  0  0
 21 49  1  0  0  0  0
 22 23  1  0  0  0  0
 22 50  1  0  0  0  0
 23 24  1  0  0  0  0
 23 51  1  0  0  0  0
 24 26  1  0  0  0  0
 24 52  1  0  0  0  0
 25 53  1  0  0  0  0
 25 54  1  0  0  0  0
 26 55  1  0  0  0  0
 26 56  1  0  0  0  0
 26 57  1  0  0  0  0
 27 28  1  0  0  0  0
 27 29  2  0  0  0  0
 28 30  2  0  0  0  0
 28 64  1  0  0  0  0
 29 33  1  0  0  0  0
 29 65  1  0  0  0  0
 30 31  1  0  0  0  0
 31 33  2  0  0  0  0
 31 35  1  0  0  0  0
 32 34  1  0  0  0  0
 32 36  1  0  0  0  0
 32 66  1  0  0  0  0
 34 35  1  0  0  0  0
 34 67  1  0  0  0  0
 34 68  1  0  0  0  0
 36 37  2  0  0  0  0
 36 38  1  0  0  0  0
 37 39  1  0  0  0  0
 37 70  1  0  0  0  0
 38 40  2  0  0  0  0
 38 71  1  0  0  0  0
 39 41  2  0  0  0  0
 39 72  1  0  0  0  0
 40 41  1  0  0  0  0
 40 73  1  0  0  0  0
 42 74  1  0  0  0  0
 42 75  1  0  0  0  0
 42 76  1  0  0  0  0
M  END
>  <PUBCHEM_COMPOUND_CID>
4463283

>  <PUBCHEM_COMPOUND_CANONICALIZED>
1

>  <PUBCHEM_CACTVS_COMPLEXITY>
900

>  <PUBCHEM_CACTVS_HBOND_ACCEPTOR>
14

>  <PUBCHEM_CACTVS_HBOND_DONOR>
7

>  <PUBCHEM_CACTVS_ROTATABLE_BOND>
7

>  <PUBCHEM_CACTVS_SUBSKEYS>
AAADcfB4PAAAAAAAAAAAAAAAAAAAAAAAAAA0aJECAAAAAACRQAAAGgAACAAADBSwmAMyDoAABgCIAqBSAAACCAAkIAAIiAEGCMgdNzaGNRqieWCl4BUPuQfI7OzOIAAACAAIAABAAAAQABAAAAAAAAAAAA==

>  <PUBCHEM_IUPAC_OPENEYE_NAME>
7-[4,5-dihydroxy-6-(hydroxymethyl)-3-(3,4,5-trihydroxy-6-methyl-tetrahydropyran-2-yl)oxy-tetrahydropyran-2-yl]oxy-5-hydroxy-2-(4-methoxyphenyl)chroman-4-one

>  <PUBCHEM_IUPAC_CAS_NAME>
7-[[4,5-dihydroxy-6-(hydroxymethyl)-3-[(3,4,5-trihydroxy-6-methyl-2-oxanyl)oxy]-2-oxanyl]oxy]-5-hydroxy-2-(4-methoxyphenyl)-3,4-dihydro-2H-1-benzopyran-4-one

>  <PUBCHEM_IUPAC_NAME>
7-[4,5-dihydroxy-6-(hydroxymethyl)-3-(3,4,5-trihydroxy-6-methyloxan-2-yl)oxyoxan-2-yl]oxy-5-hydroxy-2-(4-methoxyphenyl)-2,3-dihydrochromen-4-one

>  <PUBCHEM_IUPAC_SYSTEMATIC_NAME>
7-[6-(hydroxymethyl)-3-[6-methyl-3,4,5-tris(oxidanyl)oxan-2-yl]oxy-4,5-bis(oxidanyl)oxan-2-yl]oxy-2-(4-methoxyphenyl)-5-oxidanyl-2,3-dihydrochromen-4-one

>  <PUBCHEM_IUPAC_TRADITIONAL_NAME>
7-[4,5-dihydroxy-6-methylol-3-(3,4,5-trihydroxy-6-methyl-tetrahydropyran-2-yl)oxy-tetrahydropyran-2-yl]oxy-5-hydroxy-2-(4-methoxyphenyl)chroman-4-one

>  <PUBCHEM_IUPAC_INCHI>
InChI=1S/C28H34O14/c1-11-21(32)23(34)25(36)27(38-11)42-26-24(35)22(33)19(10-29)41-28(26)39-14-7-15(30)20-16(31)9-17(40-18(20)8-14)12-3-5-13(37-2)6-4-12/h3-8,11,17,19,21-30,32-36H,9-10H2,1-2H3

>  <PUBCHEM_IUPAC_INCHIKEY>
NLAWPKPYBMEWIR-UHFFFAOYSA-N

>  <PUBCHEM_XLOGP3_AA>
-0.2

>  <PUBCHEM_EXACT_MASS>
594.195

>  <PUBCHEM_MOLECULAR_FORMULA>
C28H34O14

>  <PUBCHEM_MOLECULAR_WEIGHT>
594.566

>  <PUBCHEM_OPENEYE_CAN_SMILES>
CC1C(C(C(C(O1)OC2C(C(C(OC2OC3=CC(=C4C(=O)CC(OC4=C3)C5=CC=C(C=C5)OC)O)CO)O)O)O)O)O

>  <PUBCHEM_OPENEYE_ISO_SMILES>
CC1C(C(C(C(O1)OC2C(C(C(OC2OC3=CC(=C4C(=O)CC(OC4=C3)C5=CC=C(C=C5)OC)O)CO)O)O)O)O)O

>  <PUBCHEM_CACTVS_TPSA>
214

>  <PUBCHEM_MONOISOTOPIC_WEIGHT>
594.195

>  <PUBCHEM_TOTAL_CHARGE>
0

>  <PUBCHEM_HEAVY_ATOM_COUNT>
42

>  <PUBCHEM_ATOM_DEF_STEREO_COUNT>
0

>  <PUBCHEM_ATOM_UDEF_STEREO_COUNT>
11

>  <PUBCHEM_BOND_DEF_STEREO_COUNT>
0

>  <PUBCHEM_BOND_UDEF_STEREO_COUNT>
0

>  <PUBCHEM_ISOTOPIC_ATOM_COUNT>
0

>  <PUBCHEM_COMPONENT_COUNT>
1

>  <PUBCHEM_CACTVS_TAUTO_COUNT>
9

>  <PUBCHEM_COORDINATE_TYPE>
1
5
255

>  <PUBCHEM_BONDANNOTATIONS>
15  1  3
18  1  3
21  25  3
24  26  3
27  28  8
27  29  8
28  30  8
29  33  8
30  31  8
31  33  8
32  36  3
36  37  8
36  38  8
37  39  8
38  40  8
39  41  8
19  4  3
40  41  8
16  5  3
17  6  3
20  7  3
22  8  3
23  9  3

$$$$
