4479101
 OpenBabel06101807152D

 40 41  0  0  1  0  0  0  0  0999 V2000
    4.2690    0.5950    0.0000 O   0  0  0  0  0  0  0  0  0  0  0  0
    6.0010   -1.4050    0.0000 O   0  0  0  0  0  0  0  0  0  0  0  0
    4.2690   -2.4050    0.0000 O   0  0  0  0  0  0  0  0  0  0  0  0
    2.5369   -1.4050    0.0000 O   0  0  0  0  0  0  0  0  0  0  0  0
    6.8671    0.0950    0.0000 O   0  0  0  0  0  0  0  0  0  0  0  0
    6.0010    0.5950    0.0000 O   0  0  0  0  0  0  0  0  0  0  0  0
    7.7331   -2.4050    0.0000 O   0  0  0  0  0  0  0  0  0  0  0  0
    9.4651   -1.4050    0.0000 O   0  0  0  0  0  0  0  0  0  0  0  0
    8.5991    2.0950    0.0000 O   0  0  0  0  0  0  0  0  0  0  0  0
    6.8671    2.0950    0.0000 O   0  0  0  0  0  0  0  0  0  0  0  0
    5.1350   -0.9050    0.0000 C   0  0  3  0  0  0  0  0  0  0  0  0
    4.2690   -1.4050    0.0000 C   0  0  3  0  0  0  0  0  0  0  0  0
    3.4030   -0.9050    0.0000 C   0  0  3  0  0  0  0  0  0  0  0  0
    3.4030    0.0950    0.0000 C   0  0  3  0  0  0  0  0  0  0  0  0
    5.1350    0.0950    0.0000 C   0  0  3  0  0  0  0  0  0  0  0  0
    6.8671   -0.9050    0.0000 C   0  0  3  0  0  0  0  0  0  0  0  0
    7.7331   -1.4050    0.0000 C   0  0  3  0  0  0  0  0  0  0  0  0
    2.5369    0.5950    0.0000 C   0  0  0  0  0  0  0  0  0  0  0  0
    8.5991   -0.9050    0.0000 C   0  0  3  0  0  0  0  0  0  0  0  0
    8.5991    0.0950    0.0000 C   0  0  0  0  0  0  0  0  0  0  0  0
    7.7331    0.5950    0.0000 C   0  0  0  0  0  0  0  0  0  0  0  0
    7.7331    1.5950    0.0000 C   0  0  0  0  0  0  0  0  0  0  0  0
    5.1350   -1.5250    0.0000 H   0  0  0  0  0  0  0  0  0  0  0  0
    3.7320   -1.7150    0.0000 H   0  0  0  0  0  0  0  0  0  0  0  0
    2.8660   -0.5950    0.0000 H   0  0  0  0  0  0  0  0  0  0  0  0
    3.4030    0.7150    0.0000 H   0  0  0  0  0  0  0  0  0  0  0  0
    5.1350    0.7150    0.0000 H   0  0  0  0  0  0  0  0  0  0  0  0
    6.8671   -1.5250    0.0000 H   0  0  0  0  0  0  0  0  0  0  0  0
    8.2700   -1.7150    0.0000 H   0  0  0  0  0  0  0  0  0  0  0  0
    2.8469    1.1319    0.0000 H   0  0  0  0  0  0  0  0  0  0  0  0
    2.0000    0.9050    0.0000 H   0  0  0  0  0  0  0  0  0  0  0  0
    2.2269    0.0581    0.0000 H   0  0  0  0  0  0  0  0  0  0  0  0
    9.1360   -0.5950    0.0000 H   0  0  0  0  0  0  0  0  0  0  0  0
    3.7320   -2.7150    0.0000 H   0  0  0  0  0  0  0  0  0  0  0  0
    2.0000   -1.0950    0.0000 H   0  0  0  0  0  0  0  0  0  0  0  0
    6.0010    1.2150    0.0000 H   0  0  0  0  0  0  0  0  0  0  0  0
    9.1360    0.4050    0.0000 H   0  0  0  0  0  0  0  0  0  0  0  0
    8.2700   -2.7150    0.0000 H   0  0  0  0  0  0  0  0  0  0  0  0
   10.0021   -1.0950    0.0000 H   0  0  0  0  0  0  0  0  0  0  0  0
    8.5991    2.7150    0.0000 H   0  0  0  0  0  0  0  0  0  0  0  0
  1 14  1  0  0  0  0
  1 15  1  0  0  0  0
  2 11  1  0  0  0  0
  2 16  1  0  0  0  0
  3 12  1  0  0  0  0
  3 34  1  0  0  0  0
  4 13  1  0  0  0  0
  4 35  1  0  0  0  0
  5 16  1  0  0  0  0
  5 21  1  0  0  0  0
  6 15  1  0  0  0  0
  6 36  1  0  0  0  0
  7 17  1  0  0  0  0
  7 38  1  0  0  0  0
  8 19  1  0  0  0  0
  8 39  1  0  0  0  0
  9 22  1  0  0  0  0
  9 40  1  0  0  0  0
 10 22  2  0  0  0  0
 11 12  1  0  0  0  0
 11 15  1  0  0  0  0
 11 23  1  0  0  0  0
 12 13  1  0  0  0  0
 12 24  1  0  0  0  0
 13 14  1  0  0  0  0
 13 25  1  0  0  0  0
 14 18  1  0  0  0  0
 14 26  1  0  0  0  0
 15 27  1  0  0  0  0
 16 17  1  0  0  0  0
 16 28  1  0  0  0  0
 17 19  1  0  0  0  0
 17 29  1  0  0  0  0
 18 30  1  0  0  0  0
 18 31  1  0  0  0  0
 18 32  1  0  0  0  0
 19 20  1  0  0  0  0
 19 33  1  0  0  0  0
 20 21  2  0  0  0  0
 20 37  1  0  0  0  0
 21 22  1  0  0  0  0
M  END
>  <PUBCHEM_COMPOUND_CID>
4479101

>  <PUBCHEM_COMPOUND_CANONICALIZED>
1

>  <PUBCHEM_CACTVS_COMPLEXITY>
451

>  <PUBCHEM_CACTVS_HBOND_ACCEPTOR>
10

>  <PUBCHEM_CACTVS_HBOND_DONOR>
6

>  <PUBCHEM_CACTVS_ROTATABLE_BOND>
3

>  <PUBCHEM_CACTVS_SUBSKEYS>
AAADceBwPAAAAAAAAAAAAAAAAAAAAAAAAAAkQAAAAAAAAAAAAAAAGgAACAAACBSwgAMCCAAABgCIACDSCAIACAAgIAAACABAAEgRFAIAAAQiUAAFwAAPEYPAYAQAAAAAAAAAAAAAAAAAAAAAAAAAAAAAAA==

>  <PUBCHEM_IUPAC_OPENEYE_NAME>
3,4-dihydroxy-2-(2,4,5-trihydroxy-6-methyl-tetrahydropyran-3-yl)oxy-3,4-dihydro-2H-pyran-6-carboxylic acid

>  <PUBCHEM_IUPAC_CAS_NAME>
3,4-dihydroxy-2-[(2,4,5-trihydroxy-6-methyl-3-oxanyl)oxy]-3,4-dihydro-2H-pyran-6-carboxylic acid

>  <PUBCHEM_IUPAC_NAME>
3,4-dihydroxy-2-(2,4,5-trihydroxy-6-methyloxan-3-yl)oxy-3,4-dihydro-2H-pyran-6-carboxylic acid

>  <PUBCHEM_IUPAC_SYSTEMATIC_NAME>
2-[6-methyl-2,4,5-tris(oxidanyl)oxan-3-yl]oxy-3,4-bis(oxidanyl)-3,4-dihydro-2H-pyran-6-carboxylic acid

>  <PUBCHEM_IUPAC_TRADITIONAL_NAME>
3,4-dihydroxy-2-(2,4,5-trihydroxy-6-methyl-tetrahydropyran-3-yl)oxy-3,4-dihydro-2H-pyran-6-carboxylic acid

>  <PUBCHEM_IUPAC_INCHI>
InChI=1S/C12H18O10/c1-3-6(14)8(16)9(11(19)20-3)22-12-7(15)4(13)2-5(21-12)10(17)18/h2-4,6-9,11-16,19H,1H3,(H,17,18)

>  <PUBCHEM_IUPAC_INCHIKEY>
PBUKNNGDHZLXKG-UHFFFAOYSA-N

>  <PUBCHEM_XLOGP3_AA>
-2.8

>  <PUBCHEM_EXACT_MASS>
322.09

>  <PUBCHEM_MOLECULAR_FORMULA>
C12H18O10

>  <PUBCHEM_MOLECULAR_WEIGHT>
322.266

>  <PUBCHEM_OPENEYE_CAN_SMILES>
CC1C(C(C(C(O1)O)OC2C(C(C=C(O2)C(=O)O)O)O)O)O

>  <PUBCHEM_OPENEYE_ISO_SMILES>
CC1C(C(C(C(O1)O)OC2C(C(C=C(O2)C(=O)O)O)O)O)O

>  <PUBCHEM_CACTVS_TPSA>
166

>  <PUBCHEM_MONOISOTOPIC_WEIGHT>
322.09

>  <PUBCHEM_TOTAL_CHARGE>
0

>  <PUBCHEM_HEAVY_ATOM_COUNT>
22

>  <PUBCHEM_ATOM_DEF_STEREO_COUNT>
0

>  <PUBCHEM_ATOM_UDEF_STEREO_COUNT>
8

>  <PUBCHEM_BOND_DEF_STEREO_COUNT>
0

>  <PUBCHEM_BOND_UDEF_STEREO_COUNT>
0

>  <PUBCHEM_ISOTOPIC_ATOM_COUNT>
0

>  <PUBCHEM_COMPONENT_COUNT>
1

>  <PUBCHEM_CACTVS_TAUTO_COUNT>
1

>  <PUBCHEM_COORDINATE_TYPE>
1
5
255

>  <PUBCHEM_BONDANNOTATIONS>
14  18  3
11  2  3
16  2  3
12  3  3
13  4  3
15  6  3
17  7  3
19  8  3

$$$$
