4481465
 OpenBabel06101807152D

 95100  0  0  1  0  0  0  0  0999 V2000
    6.9245   -1.2836    0.0000 O   0  0  0  0  0  0  0  0  0  0  0  0
    4.2884    1.1932    0.0000 O   0  0  0  0  0  0  0  0  0  0  0  0
   13.8527    1.7164    0.0000 O   0  0  0  0  0  0  0  0  0  0  0  0
    8.6565   -1.2836    0.0000 O   0  0  0  0  0  0  0  0  0  0  0  0
    6.0203    1.2133    0.0000 O   0  0  0  0  0  0  0  0  0  0  0  0
    6.9245   -4.2836    0.0000 O   0  0  0  0  0  0  0  0  0  0  0  0
    5.1924   -3.2836    0.0000 O   0  0  0  0  0  0  0  0  0  0  0  0
    4.2537    4.1931    0.0000 O   0  0  0  0  0  0  0  0  0  0  0  0
    2.5333    3.1731    0.0000 O   0  0  0  0  0  0  0  0  0  0  0  0
   12.9867    0.2164    0.0000 O   0  0  0  0  0  0  0  0  0  0  0  0
    8.6565   -3.2836    0.0000 O   0  0  0  0  0  0  0  0  0  0  0  0
    5.9972    3.2131    0.0000 O   0  0  0  0  0  0  0  0  0  0  0  0
   11.2546    3.2164    0.0000 O   0  0  0  0  0  0  0  0  0  0  0  0
   12.9867    4.2164    0.0000 O   0  0  0  0  0  0  0  0  0  0  0  0
   11.2546    1.2164    0.0000 O   0  0  0  0  0  0  0  0  0  0  0  0
    4.3264   -1.7836    0.0000 O   0  0  0  0  0  0  0  0  0  0  0  0
    2.5680    0.1733    0.0000 O   0  0  0  0  0  0  0  0  0  0  0  0
    9.5226    1.2164    0.0000 O   0  3  0  0  0  0  0  0  0  0  0  0
   15.5847    2.7164    0.0000 O   0  0  0  0  0  0  0  0  0  0  0  0
   12.9867   -1.7836    0.0000 O   0  0  0  0  0  0  0  0  0  0  0  0
    7.7784    4.2857    0.0000 O   0  0  0  0  0  0  0  0  0  0  0  0
    6.9245   -3.2836    0.0000 C   0  0  3  0  0  0  0  0  0  0  0  0
    6.0584   -2.7836    0.0000 C   0  0  3  0  0  0  0  0  0  0  0  0
    4.2652    3.1931    0.0000 C   0  0  3  0  0  0  0  0  0  0  0  0
    3.4051    2.6831    0.0000 C   0  0  3  0  0  0  0  0  0  0  0  0
    7.7905   -2.7836    0.0000 C   0  0  3  0  0  0  0  0  0  0  0  0
    6.0584   -1.7836    0.0000 C   0  0  3  0  0  0  0  0  0  0  0  0
    5.1370    2.7032    0.0000 C   0  0  3  0  0  0  0  0  0  0  0  0
    3.4166    1.6832    0.0000 C   0  0  3  0  0  0  0  0  0  0  0  0
   12.1206    2.7164    0.0000 C   0  0  3  0  0  0  0  0  0  0  0  0
   12.9867    3.2164    0.0000 C   0  0  3  0  0  0  0  0  0  0  0  0
    7.7905   -1.7836    0.0000 C   0  0  3  0  0  0  0  0  0  0  0  0
   12.1206    1.7164    0.0000 C   0  0  3  0  0  0  0  0  0  0  0  0
   13.8527    2.7164    0.0000 C   0  0  3  0  0  0  0  0  0  0  0  0
    5.1486    1.7032    0.0000 C   0  0  3  0  0  0  0  0  0  0  0  0
   12.9867    1.2164    0.0000 C   0  0  3  0  0  0  0  0  0  0  0  0
    5.1924   -1.2836    0.0000 C   0  0  0  0  0  0  0  0  0  0  0  0
    2.5564    1.1732    0.0000 C   0  0  0  0  0  0  0  0  0  0  0  0
   14.7187    3.2164    0.0000 C   0  0  0  0  0  0  0  0  0  0  0  0
    8.6565   -0.2836    0.0000 C   0  0  0  0  0  0  0  0  0  0  0  0
    6.8805    1.7232    0.0000 C   0  0  0  0  0  0  0  0  0  0  0  0
    7.7905    1.2164    0.0000 C   0  0  0  0  0  0  0  0  0  0  0  0
    9.5226    0.2164    0.0000 C   0  0  0  0  0  0  0  0  0  0  0  0
    7.7905    0.2164    0.0000 C   0  0  0  0  0  0  0  0  0  0  0  0
   12.1206   -0.2836    0.0000 C   0  0  0  0  0  0  0  0  0  0  0  0
    8.6565    1.7164    0.0000 C   0  0  0  0  0  0  0  0  0  0  0  0
   10.3886   -0.2836    0.0000 C   0  0  0  0  0  0  0  0  0  0  0  0
   11.2546    0.2164    0.0000 C   0  0  0  0  0  0  0  0  0  0  0  0
    6.8725    2.7648    0.0000 C   0  0  0  0  0  0  0  0  0  0  0  0
   12.1206   -1.2836    0.0000 C   0  0  0  0  0  0  0  0  0  0  0  0
    8.6726    2.7579    0.0000 C   0  0  0  0  0  0  0  0  0  0  0  0
    7.7746    3.2857    0.0000 C   0  0  0  0  0  0  0  0  0  0  0  0
   10.3886   -1.2836    0.0000 C   0  0  0  0  0  0  0  0  0  0  0  0
   11.2546   -1.7836    0.0000 C   0  0  0  0  0  0  0  0  0  0  0  0
    7.4614   -3.5936    0.0000 H   0  0  0  0  0  0  0  0  0  0  0  0
    5.5215   -2.4736    0.0000 H   0  0  0  0  0  0  0  0  0  0  0  0
    3.7248    3.4969    0.0000 H   0  0  0  0  0  0  0  0  0  0  0  0
    2.8718    2.3669    0.0000 H   0  0  0  0  0  0  0  0  0  0  0  0
    8.3274   -2.4736    0.0000 H   0  0  0  0  0  0  0  0  0  0  0  0
    6.0584   -1.1636    0.0000 H   0  0  0  0  0  0  0  0  0  0  0  0
    5.1298    3.3231    0.0000 H   0  0  0  0  0  0  0  0  0  0  0  0
    3.4238    1.0632    0.0000 H   0  0  0  0  0  0  0  0  0  0  0  0
   11.5837    2.4064    0.0000 H   0  0  0  0  0  0  0  0  0  0  0  0
   13.5236    3.5264    0.0000 H   0  0  0  0  0  0  0  0  0  0  0  0
    7.7905   -1.1636    0.0000 H   0  0  0  0  0  0  0  0  0  0  0  0
   12.1206    1.0964    0.0000 H   0  0  0  0  0  0  0  0  0  0  0  0
   14.3896    2.4064    0.0000 H   0  0  0  0  0  0  0  0  0  0  0  0
    5.6819    2.0194    0.0000 H   0  0  0  0  0  0  0  0  0  0  0  0
   13.5236    0.9064    0.0000 H   0  0  0  0  0  0  0  0  0  0  0  0
    5.5910   -0.8086    0.0000 H   0  0  0  0  0  0  0  0  0  0  0  0
    4.7939   -0.8086    0.0000 H   0  0  0  0  0  0  0  0  0  0  0  0
    2.3377    1.7533    0.0000 H   0  0  0  0  0  0  0  0  0  0  0  0
    1.9472    1.0585    0.0000 H   0  0  0  0  0  0  0  0  0  0  0  0
   15.1172    3.6914    0.0000 H   0  0  0  0  0  0  0  0  0  0  0  0
   14.3202    3.6914    0.0000 H   0  0  0  0  0  0  0  0  0  0  0  0
    6.3875   -4.5936    0.0000 H   0  0  0  0  0  0  0  0  0  0  0  0
    5.1924   -3.9036    0.0000 H   0  0  0  0  0  0  0  0  0  0  0  0
    3.7132    4.4968    0.0000 H   0  0  0  0  0  0  0  0  0  0  0  0
    2.0000    2.8569    0.0000 H   0  0  0  0  0  0  0  0  0  0  0  0
    8.6565   -3.9036    0.0000 H   0  0  0  0  0  0  0  0  0  0  0  0
    5.9900    3.8331    0.0000 H   0  0  0  0  0  0  0  0  0  0  0  0
   11.2546    3.8364    0.0000 H   0  0  0  0  0  0  0  0  0  0  0  0
   13.5236    4.5264    0.0000 H   0  0  0  0  0  0  0  0  0  0  0  0
   10.7177    1.5264    0.0000 H   0  0  0  0  0  0  0  0  0  0  0  0
    7.2536   -0.0936    0.0000 H   0  0  0  0  0  0  0  0  0  0  0  0
   11.2546    0.8364    0.0000 H   0  0  0  0  0  0  0  0  0  0  0  0
    6.3343    3.0728    0.0000 H   0  0  0  0  0  0  0  0  0  0  0  0
    3.7895   -1.4736    0.0000 H   0  0  0  0  0  0  0  0  0  0  0  0
    2.0347   -0.1429    0.0000 H   0  0  0  0  0  0  0  0  0  0  0  0
   16.1217    3.0264    0.0000 H   0  0  0  0  0  0  0  0  0  0  0  0
    9.2131    3.0617    0.0000 H   0  0  0  0  0  0  0  0  0  0  0  0
    9.8516   -1.5936    0.0000 H   0  0  0  0  0  0  0  0  0  0  0  0
   11.2546   -2.4036    0.0000 H   0  0  0  0  0  0  0  0  0  0  0  0
   12.9867   -2.4036    0.0000 H   0  0  0  0  0  0  0  0  0  0  0  0
    8.3165    4.5936    0.0000 H   0  0  0  0  0  0  0  0  0  0  0  0
  1 27  1  0  0  0  0
  1 32  1  0  0  0  0
  2 29  1  0  0  0  0
  2 35  1  0  0  0  0
  3 34  1  0  0  0  0
  3 36  1  0  0  0  0
  4 32  1  0  0  0  0
  4 40  1  0  0  0  0
  5 35  1  0  0  0  0
  5 41  1  0  0  0  0
  6 22  1  0  0  0  0
  6 76  1  0  0  0  0
  7 23  1  0  0  0  0
  7 77  1  0  0  0  0
  8 24  1  0  0  0  0
  8 78  1  0  0  0  0
  9 25  1  0  0  0  0
  9 79  1  0  0  0  0
 10 36  1  0  0  0  0
 10 45  1  0  0  0  0
 11 26  1  0  0  0  0
 11 80  1  0  0  0  0
 12 28  1  0  0  0  0
 12 81  1  0  0  0  0
 13 30  1  0  0  0  0
 13 82  1  0  0  0  0
 14 31  1  0  0  0  0
 14 83  1  0  0  0  0
 15 33  1  0  0  0  0
 15 84  1  0  0  0  0
 16 37  1  0  0  0  0
 16 88  1  0  0  0  0
 17 38  1  0  0  0  0
 17 89  1  0  0  0  0
 18 43  1  0  0  0  0
 18 46  2  0  0  0  0
 19 39  1  0  0  0  0
 19 90  1  0  0  0  0
 20 50  1  0  0  0  0
 20 94  1  0  0  0  0
 21 52  1  0  0  0  0
 21 95  1  0  0  0  0
 22 23  1  0  0  0  0
 22 26  1  0  0  0  0
 22 55  1  0  0  0  0
 23 27  1  0  0  0  0
 23 56  1  0  0  0  0
 24 25  1  0  0  0  0
 24 28  1  0  0  0  0
 24 57  1  0  0  0  0
 25 29  1  0  0  0  0
 25 58  1  0  0  0  0
 26 32  1  0  0  0  0
 26 59  1  0  0  0  0
 27 37  1  0  0  0  0
 27 60  1  0  0  0  0
 28 35  1  0  0  0  0
 28 61  1  0  0  0  0
 29 38  1  0  0  0  0
 29 62  1  0  0  0  0
 30 31  1  0  0  0  0
 30 33  1  0  0  0  0
 30 63  1  0  0  0  0
 31 34  1  0  0  0  0
 31 64  1  0  0  0  0
 32 65  1  0  0  0  0
 33 36  1  0  0  0  0
 33 66  1  0  0  0  0
 34 39  1  0  0  0  0
 34 67  1  0  0  0  0
 35 68  1  0  0  0  0
 36 69  1  0  0  0  0
 37 70  1  0  0  0  0
 37 71  1  0  0  0  0
 38 72  1  0  0  0  0
 38 73  1  0  0  0  0
 39 74  1  0  0  0  0
 39 75  1  0  0  0  0
 40 43  2  0  0  0  0
 40 44  1  0  0  0  0
 41 42  1  0  0  0  0
 41 49  2  0  0  0  0
 42 44  2  0  0  0  0
 42 46  1  0  0  0  0
 43 47  1  0  0  0  0
 44 85  1  0  0  0  0
 45 48  1  0  0  0  0
 45 50  2  0  0  0  0
 46 51  1  0  0  0  0
 47 48  2  0  0  0  0
 47 53  1  0  0  0  0
 48 86  1  0  0  0  0
 49 52  1  0  0  0  0
 49 87  1  0  0  0  0
 50 54  1  0  0  0  0
 51 52  2  0  0  0  0
 51 91  1  0  0  0  0
 53 54  2  0  0  0  0
 53 92  1  0  0  0  0
 54 93  1  0  0  0  0
M  CHG  1  18   1
M  END
>  <PUBCHEM_COMPOUND_CID>
4481465

>  <PUBCHEM_COMPOUND_CANONICALIZED>
1

>  <PUBCHEM_CACTVS_COMPLEXITY>
1190

>  <PUBCHEM_CACTVS_HBOND_ACCEPTOR>
20

>  <PUBCHEM_CACTVS_HBOND_DONOR>
14

>  <PUBCHEM_CACTVS_ROTATABLE_BOND>
10

>  <PUBCHEM_CACTVS_SUBSKEYS>
AAADcfB8PgAAAAAAAAAAAAAAAAAAAAAAAAA0aJEiAAAAAACR9AAAGgAACAAADBSwmAMwDsAABkCIAqBSAAICCAAkIAAIiAFGiMgdNzaGNR6ieWOl4BUPuYfK7PzOIAABCAAIQABAAAIQABCAAAAAAAAAAA==

>  <PUBCHEM_IUPAC_OPENEYE_NAME>
2-[7-hydroxy-2-[4-hydroxy-3-[3,4,5-trihydroxy-6-(hydroxymethyl)tetrahydropyran-2-yl]oxy-phenyl]-3-[3,4,5-trihydroxy-6-(hydroxymethyl)tetrahydropyran-2-yl]oxy-chromenylium-5-yl]oxy-6-(hydroxymethyl)tetrahydropyran-3,4,5-triol

>  <PUBCHEM_IUPAC_CAS_NAME>
2-[[7-hydroxy-2-[4-hydroxy-3-[[3,4,5-trihydroxy-6-(hydroxymethyl)-2-oxanyl]oxy]phenyl]-3-[[3,4,5-trihydroxy-6-(hydroxymethyl)-2-oxanyl]oxy]-1-benzopyrylium-5-yl]oxy]-6-(hydroxymethyl)oxane-3,4,5-triol

>  <PUBCHEM_IUPAC_NAME>
2-[7-hydroxy-2-[4-hydroxy-3-[3,4,5-trihydroxy-6-(hydroxymethyl)oxan-2-yl]oxyphenyl]-3-[3,4,5-trihydroxy-6-(hydroxymethyl)oxan-2-yl]oxychromenylium-5-yl]oxy-6-(hydroxymethyl)oxane-3,4,5-triol

>  <PUBCHEM_IUPAC_SYSTEMATIC_NAME>
2-(hydroxymethyl)-6-[3-[6-(hydroxymethyl)-3,4,5-tris(oxidanyl)oxan-2-yl]oxy-2-[3-[6-(hydroxymethyl)-3,4,5-tris(oxidanyl)oxan-2-yl]oxy-4-oxidanyl-phenyl]-7-oxidanyl-chromenylium-5-yl]oxy-oxane-3,4,5-triol

>  <PUBCHEM_IUPAC_TRADITIONAL_NAME>
2-[[7-hydroxy-2-[4-hydroxy-3-(3,4,5-trihydroxy-6-methylol-tetrahydropyran-2-yl)oxy-phenyl]-3-(3,4,5-trihydroxy-6-methylol-tetrahydropyran-2-yl)oxy-1-benzopyrylium-5-yl]oxy]-6-methylol-tetrahydropyran-3,4,5-triol

>  <PUBCHEM_IUPAC_INCHI>
InChI=1S/C33H40O21/c34-7-18-21(39)24(42)27(45)31(52-18)49-15-5-11(37)4-14-12(15)6-17(51-33-29(47)26(44)23(41)20(9-36)54-33)30(48-14)10-1-2-13(38)16(3-10)50-32-28(46)25(43)22(40)19(8-35)53-32/h1-6,18-29,31-36,39-47H,7-9H2,(H-,37,38)/p+1

>  <PUBCHEM_IUPAC_INCHIKEY>
ZOEXTKFPTHFWDY-UHFFFAOYSA-O

>  <PUBCHEM_EXACT_MASS>
773.214

>  <PUBCHEM_MOLECULAR_FORMULA>
C33H41O21+

>  <PUBCHEM_MOLECULAR_WEIGHT>
773.67

>  <PUBCHEM_OPENEYE_CAN_SMILES>
C1=CC(=C(C=C1C2=C(C=C3C(=CC(=CC3=[O+]2)O)OC4C(C(C(C(O4)CO)O)O)O)OC5C(C(C(C(O5)CO)O)O)O)OC6C(C(C(C(O6)CO)O)O)O)O

>  <PUBCHEM_OPENEYE_ISO_SMILES>
C1=CC(=C(C=C1C2=C(C=C3C(=CC(=CC3=[O+]2)O)OC4C(C(C(C(O4)CO)O)O)O)OC5C(C(C(C(O5)CO)O)O)O)OC6C(C(C(C(O6)CO)O)O)O)O

>  <PUBCHEM_CACTVS_TPSA>
340

>  <PUBCHEM_MONOISOTOPIC_WEIGHT>
773.214

>  <PUBCHEM_TOTAL_CHARGE>
1

>  <PUBCHEM_HEAVY_ATOM_COUNT>
54

>  <PUBCHEM_ATOM_DEF_STEREO_COUNT>
0

>  <PUBCHEM_ATOM_UDEF_STEREO_COUNT>
15

>  <PUBCHEM_BOND_DEF_STEREO_COUNT>
0

>  <PUBCHEM_BOND_UDEF_STEREO_COUNT>
0

>  <PUBCHEM_ISOTOPIC_ATOM_COUNT>
0

>  <PUBCHEM_COMPONENT_COUNT>
1

>  <PUBCHEM_CACTVS_TAUTO_COUNT>
23

>  <PUBCHEM_COORDINATE_TYPE>
1
5
255

>  <PUBCHEM_BONDANNOTATIONS>
36  10  3
26  11  3
28  12  3
30  13  3
31  14  3
33  15  3
18  43  8
18  46  8
27  37  3
29  38  3
34  39  3
32  4  3
40  43  8
40  44  8
41  42  8
41  49  8
42  44  8
42  46  8
45  48  8
45  50  8
46  51  8
47  48  8
47  53  8
49  52  8
35  5  3
50  54  8
51  52  8
53  54  8
22  6  3
23  7  3
24  8  3
25  9  3

$$$$
