4483035
 OpenBabel06101807152D

204214  0  0  1  0  0  0  0  0999 V2000
   14.9898    7.1557    0.0000 O   0  0  0  0  0  0  0  0  0  0  0  0
   13.4608    8.3876    0.0000 O   0  0  0  0  0  0  0  0  0  0  0  0
   13.5667   -1.0884    0.0000 O   0  0  0  0  0  0  0  0  0  0  0  0
   11.7593   -0.0356    0.0000 O   0  0  0  0  0  0  0  0  0  0  0  0
   11.8347   -1.0884    0.0000 O   0  0  0  0  0  0  0  0  0  0  0  0
   17.6243   10.2550    0.0000 O   0  0  0  0  0  0  0  0  0  0  0  0
   13.5667   -3.0884    0.0000 O   0  0  0  0  0  0  0  0  0  0  0  0
   11.8347   -4.0884    0.0000 O   0  0  0  0  0  0  0  0  0  0  0  0
   10.1026   -3.0884    0.0000 O   0  0  0  0  0  0  0  0  0  0  0  0
   10.1026   -0.0884    0.0000 O   0  0  0  0  0  0  0  0  0  0  0  0
   19.1217   11.1255    0.0000 O   0  0  0  0  0  0  0  0  0  0  0  0
   10.1026   -4.0884    0.0000 O   0  0  0  0  0  0  0  0  0  0  0  0
   18.6295    8.5260    0.0000 O   0  0  0  0  0  0  0  0  0  0  0  0
   11.8347   -6.0884    0.0000 O   0  0  0  0  0  0  0  0  0  0  0  0
   20.6295    8.5319    0.0000 O   0  0  0  0  0  0  0  0  0  0  0  0
   21.6243   10.2670    0.0000 O   0  0  0  0  0  0  0  0  0  0  0  0
   10.1026   -7.0884    0.0000 O   0  0  0  0  0  0  0  0  0  0  0  0
    8.3706   -6.0884    0.0000 O   0  0  0  0  0  0  0  0  0  0  0  0
   20.1166   12.8605    0.0000 O   0  0  0  0  0  0  0  0  0  0  0  0
    7.5045   -4.5884    0.0000 O   0  0  0  0  0  0  0  0  0  0  0  0
    9.2366   -7.5884    0.0000 O   0  0  0  0  0  0  0  0  0  0  0  0
    6.6385   -7.0884    0.0000 O   0  0  0  0  0  0  0  0  0  0  0  0
    6.6385   -9.0884    0.0000 O   0  0  0  0  0  0  0  0  0  0  0  0
    8.3706  -10.0884    0.0000 O   0  0  0  0  0  0  0  0  0  0  0  0
    5.0109   -7.6808    0.0000 O   0  0  0  0  0  0  0  0  0  0  0  0
   10.1026  -10.0884    0.0000 O   0  0  0  0  0  0  0  0  0  0  0  0
    7.5045  -10.5884    0.0000 O   0  0  0  0  0  0  0  0  0  0  0  0
    5.9545   -5.2090    0.0000 O   0  0  0  0  0  0  0  0  0  0  0  0
    4.9065  -10.0884    0.0000 O   0  0  0  0  0  0  0  0  0  0  0  0
    3.9849   -4.8616    0.0000 O   0  0  0  0  0  0  0  0  0  0  0  0
    2.6993   -6.3938    0.0000 O   0  0  0  0  0  0  0  0  0  0  0  0
    4.9065  -12.0884    0.0000 O   0  0  0  0  0  0  0  0  0  0  0  0
    6.6385  -13.0884    0.0000 O   0  0  0  0  0  0  0  0  0  0  0  0
    2.3985   -8.0996    0.0000 O   0  0  0  0  0  0  0  0  0  0  0  0
    8.3706  -13.0884    0.0000 O   0  0  0  0  0  0  0  0  0  0  0  0
   13.5960    5.1085    0.0000 C   0  0  3  0  0  0  0  0  0  0  0  0
   14.4639    4.6118    0.0000 C   0  0  3  0  0  0  0  0  0  0  0  0
   14.4678    3.6118    0.0000 C   0  0  3  0  0  0  0  0  0  0  0  0
   13.8014    6.0811    0.0000 C   0  0  3  0  0  0  0  0  0  0  0  0
   13.6037    3.1085    0.0000 C   0  0  3  0  0  0  0  0  0  0  0  0
   13.5916    2.0669    0.0000 C   0  0  3  0  0  0  0  0  0  0  0  0
   14.7898    6.1880    0.0000 C   0  0  3  0  0  0  0  0  0  0  0  0
   15.1984    5.2817    0.0000 C   0  0  0  0  0  0  0  0  0  0  0  0
   12.7319    4.6051    0.0000 C   0  0  0  0  0  0  0  0  0  0  0  0
   12.7357    3.6051    0.0000 C   0  0  0  0  0  0  0  0  0  0  0  0
   14.4917    1.5426    0.0000 C   0  0  3  0  0  0  0  0  0  0  0  0
   13.3991    6.9837    0.0000 C   0  0  3  0  0  0  0  0  0  0  0  0
   15.3797    3.1085    0.0000 C   0  0  0  0  0  0  0  0  0  0  0  0
   15.3918    2.0669    0.0000 C   0  0  0  0  0  0  0  0  0  0  0  0
   12.7280    5.6051    0.0000 C   0  0  0  0  0  0  0  0  0  0  0  0
   14.1321    7.6465    0.0000 C   0  0  3  0  0  0  0  0  0  0  0  0
   12.6417    1.5426    0.0000 C   0  0  0  0  0  0  0  0  0  0  0  0
   14.5043    0.4577    0.0000 C   0  0  0  0  0  0  0  0  0  0  0  0
   12.7276    2.5703    0.0000 C   0  0  0  0  0  0  0  0  0  0  0  0
   12.6292    0.4577    0.0000 C   0  0  3  0  0  0  0  0  0  0  0  0
   13.5667   -0.0884    0.0000 C   0  0  3  0  0  0  0  0  0  0  0  0
   12.4207    7.1904    0.0000 C   0  0  0  0  0  0  0  0  0  0  0  0
   14.6295    8.5140    0.0000 C   0  0  0  0  0  0  0  0  0  0  0  0
   15.6295    8.5170    0.0000 C   0  0  0  0  0  0  0  0  0  0  0  0
   16.1269    9.3845    0.0000 C   0  0  3  0  0  0  0  0  0  0  0  0
   12.7007   -1.5884    0.0000 C   0  0  3  0  0  0  0  0  0  0  0  0
   12.7007   -2.5884    0.0000 C   0  0  3  0  0  0  0  0  0  0  0  0
   17.1269    9.3875    0.0000 C   0  0  0  0  0  0  0  0  0  0  0  0
   15.6243   10.2490    0.0000 C   0  0  0  0  0  0  0  0  0  0  0  0
   11.8347   -3.0884    0.0000 C   0  0  3  0  0  0  0  0  0  0  0  0
   10.9686   -1.5884    0.0000 C   0  0  3  0  0  0  0  0  0  0  0  0
   10.9686   -2.5884    0.0000 C   0  0  3  0  0  0  0  0  0  0  0  0
   10.1026   -1.0884    0.0000 C   0  0  0  0  0  0  0  0  0  0  0  0
   18.6243   10.2580    0.0000 C   0  0  3  0  0  0  0  0  0  0  0  0
   10.9686   -4.5884    0.0000 C   0  0  3  0  0  0  0  0  0  0  0  0
   19.1269    9.3935    0.0000 C   0  0  3  0  0  0  0  0  0  0  0  0
   10.9686   -5.5884    0.0000 C   0  0  3  0  0  0  0  0  0  0  0  0
   20.1269    9.3965    0.0000 C   0  0  3  0  0  0  0  0  0  0  0  0
   20.1217   11.1285    0.0000 C   0  0  3  0  0  0  0  0  0  0  0  0
   20.6243   10.2640    0.0000 C   0  0  3  0  0  0  0  0  0  0  0  0
   10.1026   -6.0884    0.0000 C   0  0  3  0  0  0  0  0  0  0  0  0
    9.2366   -4.5884    0.0000 C   0  0  3  0  0  0  0  0  0  0  0  0
    9.2366   -5.5884    0.0000 C   0  0  3  0  0  0  0  0  0  0  0  0
   20.6191   11.9960    0.0000 C   0  0  0  0  0  0  0  0  0  0  0  0
    8.3706   -4.0884    0.0000 C   0  0  0  0  0  0  0  0  0  0  0  0
    8.3706   -7.0884    0.0000 C   0  0  3  0  0  0  0  0  0  0  0  0
    7.5045   -7.5884    0.0000 C   0  0  3  0  0  0  0  0  0  0  0  0
    7.5045   -8.5884    0.0000 C   0  0  3  0  0  0  0  0  0  0  0  0
    9.2366   -8.5884    0.0000 C   0  0  3  0  0  0  0  0  0  0  0  0
    8.3706   -9.0884    0.0000 C   0  0  3  0  0  0  0  0  0  0  0  0
   10.1026   -9.0884    0.0000 C   0  0  0  0  0  0  0  0  0  0  0  0
    5.6537   -6.9147    0.0000 C   0  0  3  0  0  0  0  0  0  0  0  0
    6.6385  -10.0884    0.0000 C   0  0  3  0  0  0  0  0  0  0  0  0
    5.3118   -5.9750    0.0000 C   0  0  3  0  0  0  0  0  0  0  0  0
    5.7725  -10.5884    0.0000 C   0  0  3  0  0  0  0  0  0  0  0  0
    4.3269   -5.8013    0.0000 C   0  0  3  0  0  0  0  0  0  0  0  0
    4.0261   -7.5072    0.0000 C   0  0  3  0  0  0  0  0  0  0  0  0
    3.6841   -6.5674    0.0000 C   0  0  3  0  0  0  0  0  0  0  0  0
    5.7725  -11.5884    0.0000 C   0  0  3  0  0  0  0  0  0  0  0  0
    7.5045  -11.5884    0.0000 C   0  0  3  0  0  0  0  0  0  0  0  0
    6.6385  -12.0884    0.0000 C   0  0  3  0  0  0  0  0  0  0  0  0
    3.3833   -8.2732    0.0000 C   0  0  0  0  0  0  0  0  0  0  0  0
    8.3706  -12.0884    0.0000 C   0  0  0  0  0  0  0  0  0  0  0  0
   15.0316    4.3626    0.0000 H   0  0  0  0  0  0  0  0  0  0  0  0
   15.0011    3.9280    0.0000 H   0  0  0  0  0  0  0  0  0  0  0  0
   13.1849    6.0158    0.0000 H   0  0  0  0  0  0  0  0  0  0  0  0
   14.1394    2.7964    0.0000 H   0  0  0  0  0  0  0  0  0  0  0  0
   15.4060    6.2559    0.0000 H   0  0  0  0  0  0  0  0  0  0  0  0
   15.5657    4.7823    0.0000 H   0  0  0  0  0  0  0  0  0  0  0  0
   15.7337    5.5946    0.0000 H   0  0  0  0  0  0  0  0  0  0  0  0
   12.5176    5.1869    0.0000 H   0  0  0  0  0  0  0  0  0  0  0  0
   12.1217    4.4951    0.0000 H   0  0  0  0  0  0  0  0  0  0  0  0
   12.1248    3.7104    0.0000 H   0  0  0  0  0  0  0  0  0  0  0  0
   12.5259    3.0217    0.0000 H   0  0  0  0  0  0  0  0  0  0  0  0
   15.0310    1.2368    0.0000 H   0  0  0  0  0  0  0  0  0  0  0  0
   13.0094    6.5015    0.0000 H   0  0  0  0  0  0  0  0  0  0  0  0
   15.9918    3.0095    0.0000 H   0  0  0  0  0  0  0  0  0  0  0  0
   15.5820    3.6946    0.0000 H   0  0  0  0  0  0  0  0  0  0  0  0
   15.6076    1.4857    0.0000 H   0  0  0  0  0  0  0  0  0  0  0  0
   16.0014    2.1801    0.0000 H   0  0  0  0  0  0  0  0  0  0  0  0
   13.0360    6.1433    0.0000 H   0  0  0  0  0  0  0  0  0  0  0  0
   12.1899    5.9131    0.0000 H   0  0  0  0  0  0  0  0  0  0  0  0
   12.4201    5.0670    0.0000 H   0  0  0  0  0  0  0  0  0  0  0  0
   12.4394    2.1287    0.0000 H   0  0  0  0  0  0  0  0  0  0  0  0
   12.0297    1.4436    0.0000 H   0  0  0  0  0  0  0  0  0  0  0  0
   14.7200   -0.1235    0.0000 H   0  0  0  0  0  0  0  0  0  0  0  0
   15.1138    0.5709    0.0000 H   0  0  0  0  0  0  0  0  0  0  0  0
   13.0396    3.1060    0.0000 H   0  0  0  0  0  0  0  0  0  0  0  0
   12.1918    2.8823    0.0000 H   0  0  0  0  0  0  0  0  0  0  0  0
   12.4155    2.0345    0.0000 H   0  0  0  0  0  0  0  0  0  0  0  0
   12.6256   -0.1623    0.0000 H   0  0  0  0  0  0  0  0  0  0  0  0
   14.1043   -0.3974    0.0000 H   0  0  0  0  0  0  0  0  0  0  0  0
   12.5489    7.7970    0.0000 H   0  0  0  0  0  0  0  0  0  0  0  0
   11.8141    7.3185    0.0000 H   0  0  0  0  0  0  0  0  0  0  0  0
   12.2926    6.5838    0.0000 H   0  0  0  0  0  0  0  0  0  0  0  0
   14.7354    9.1249    0.0000 H   0  0  0  0  0  0  0  0  0  0  0  0
   14.0463    8.7243    0.0000 H   0  0  0  0  0  0  0  0  0  0  0  0
   13.6506    8.9778    0.0000 H   0  0  0  0  0  0  0  0  0  0  0  0
   15.5237    7.9061    0.0000 H   0  0  0  0  0  0  0  0  0  0  0  0
   16.2128    8.3067    0.0000 H   0  0  0  0  0  0  0  0  0  0  0  0
   11.2248    0.2785    0.0000 H   0  0  0  0  0  0  0  0  0  0  0  0
   15.5069    9.3826    0.0000 H   0  0  0  0  0  0  0  0  0  0  0  0
   12.7007   -0.9684    0.0000 H   0  0  0  0  0  0  0  0  0  0  0  0
   12.7007   -3.2084    0.0000 H   0  0  0  0  0  0  0  0  0  0  0  0
   17.0211    8.7766    0.0000 H   0  0  0  0  0  0  0  0  0  0  0  0
   17.7102    9.1772    0.0000 H   0  0  0  0  0  0  0  0  0  0  0  0
   16.1603   10.5606    0.0000 H   0  0  0  0  0  0  0  0  0  0  0  0
   15.3127   10.7850    0.0000 H   0  0  0  0  0  0  0  0  0  0  0  0
   15.0883    9.9374    0.0000 H   0  0  0  0  0  0  0  0  0  0  0  0
   11.2977   -3.3984    0.0000 H   0  0  0  0  0  0  0  0  0  0  0  0
   10.9686   -0.9684    0.0000 H   0  0  0  0  0  0  0  0  0  0  0  0
   10.4317   -2.2784    0.0000 H   0  0  0  0  0  0  0  0  0  0  0  0
   13.5667   -3.7084    0.0000 H   0  0  0  0  0  0  0  0  0  0  0  0
    9.4920   -0.9807    0.0000 H   0  0  0  0  0  0  0  0  0  0  0  0
    9.8906   -1.6710    0.0000 H   0  0  0  0  0  0  0  0  0  0  0  0
   18.3127   10.7940    0.0000 H   0  0  0  0  0  0  0  0  0  0  0  0
    9.5657   -2.7784    0.0000 H   0  0  0  0  0  0  0  0  0  0  0  0
   10.9686   -3.9684    0.0000 H   0  0  0  0  0  0  0  0  0  0  0  0
   18.5069    9.3916    0.0000 H   0  0  0  0  0  0  0  0  0  0  0  0
    9.5657    0.2216    0.0000 H   0  0  0  0  0  0  0  0  0  0  0  0
   10.9686   -6.2084    0.0000 H   0  0  0  0  0  0  0  0  0  0  0  0
   20.7469    9.3983    0.0000 H   0  0  0  0  0  0  0  0  0  0  0  0
   19.8101   11.6645    0.0000 H   0  0  0  0  0  0  0  0  0  0  0  0
   20.9327   10.8018    0.0000 H   0  0  0  0  0  0  0  0  0  0  0  0
    9.5657   -6.3984    0.0000 H   0  0  0  0  0  0  0  0  0  0  0  0
    9.2366   -3.9684    0.0000 H   0  0  0  0  0  0  0  0  0  0  0  0
    8.6997   -5.2784    0.0000 H   0  0  0  0  0  0  0  0  0  0  0  0
   18.9411    7.9899    0.0000 H   0  0  0  0  0  0  0  0  0  0  0  0
   21.0953   11.5989    0.0000 H   0  0  0  0  0  0  0  0  0  0  0  0
   21.0929   12.3960    0.0000 H   0  0  0  0  0  0  0  0  0  0  0  0
   12.3716   -5.7784    0.0000 H   0  0  0  0  0  0  0  0  0  0  0  0
   21.2495    8.5338    0.0000 H   0  0  0  0  0  0  0  0  0  0  0  0
    8.7691   -3.6134    0.0000 H   0  0  0  0  0  0  0  0  0  0  0  0
    7.9720   -3.6134    0.0000 H   0  0  0  0  0  0  0  0  0  0  0  0
   21.9327   10.8048    0.0000 H   0  0  0  0  0  0  0  0  0  0  0  0
   10.6396   -7.3984    0.0000 H   0  0  0  0  0  0  0  0  0  0  0  0
   20.4249   13.3984    0.0000 H   0  0  0  0  0  0  0  0  0  0  0  0
    7.8336   -6.7784    0.0000 H   0  0  0  0  0  0  0  0  0  0  0  0
    6.9676   -4.2784    0.0000 H   0  0  0  0  0  0  0  0  0  0  0  0
    8.0415   -7.8984    0.0000 H   0  0  0  0  0  0  0  0  0  0  0  0
    7.5045   -9.2084    0.0000 H   0  0  0  0  0  0  0  0  0  0  0  0
    9.7735   -8.2784    0.0000 H   0  0  0  0  0  0  0  0  0  0  0  0
    8.9075   -9.3984    0.0000 H   0  0  0  0  0  0  0  0  0  0  0  0
   10.7132   -9.1961    0.0000 H   0  0  0  0  0  0  0  0  0  0  0  0
   10.3147   -8.5058    0.0000 H   0  0  0  0  0  0  0  0  0  0  0  0
    6.0523   -6.4398    0.0000 H   0  0  0  0  0  0  0  0  0  0  0  0
    8.9075  -10.3984    0.0000 H   0  0  0  0  0  0  0  0  0  0  0  0
    6.1016   -9.7784    0.0000 H   0  0  0  0  0  0  0  0  0  0  0  0
    5.0997   -5.3924    0.0000 H   0  0  0  0  0  0  0  0  0  0  0  0
    6.3094  -10.8984    0.0000 H   0  0  0  0  0  0  0  0  0  0  0  0
    3.7163   -5.6937    0.0000 H   0  0  0  0  0  0  0  0  0  0  0  0
   10.6396  -10.3984    0.0000 H   0  0  0  0  0  0  0  0  0  0  0  0
    4.2382   -8.0898    0.0000 H   0  0  0  0  0  0  0  0  0  0  0  0
    4.2947   -6.6751    0.0000 H   0  0  0  0  0  0  0  0  0  0  0  0
    5.7725  -12.2084    0.0000 H   0  0  0  0  0  0  0  0  0  0  0  0
    8.0415  -11.2784    0.0000 H   0  0  0  0  0  0  0  0  0  0  0  0
    7.1754  -12.3984    0.0000 H   0  0  0  0  0  0  0  0  0  0  0  0
    5.7424   -4.6264    0.0000 H   0  0  0  0  0  0  0  0  0  0  0  0
    3.1713   -8.8558    0.0000 H   0  0  0  0  0  0  0  0  0  0  0  0
    3.9203   -8.5832    0.0000 H   0  0  0  0  0  0  0  0  0  0  0  0
    4.3695  -10.3984    0.0000 H   0  0  0  0  0  0  0  0  0  0  0  0
    3.3743   -4.7540    0.0000 H   0  0  0  0  0  0  0  0  0  0  0  0
    8.9812  -12.1961    0.0000 H   0  0  0  0  0  0  0  0  0  0  0  0
    8.5826  -11.5058    0.0000 H   0  0  0  0  0  0  0  0  0  0  0  0
    2.4872   -5.8111    0.0000 H   0  0  0  0  0  0  0  0  0  0  0  0
    4.9065  -12.7084    0.0000 H   0  0  0  0  0  0  0  0  0  0  0  0
    6.1016  -13.3984    0.0000 H   0  0  0  0  0  0  0  0  0  0  0  0
    2.0000   -8.5745    0.0000 H   0  0  0  0  0  0  0  0  0  0  0  0
    8.9075  -13.3984    0.0000 H   0  0  0  0  0  0  0  0  0  0  0  0
  1 42  1  0  0  0  0
  1 51  1  0  0  0  0
  2 51  1  0  0  0  0
  2133  1  0  0  0  0
  3 56  1  0  0  0  0
  3 61  1  0  0  0  0
  4 55  1  0  0  0  0
  4136  1  0  0  0  0
  5 61  1  0  0  0  0
  5 66  1  0  0  0  0
  6 63  1  0  0  0  0
  6 69  1  0  0  0  0
  7 62  1  0  0  0  0
  7148  1  0  0  0  0
  8 65  1  0  0  0  0
  8 70  1  0  0  0  0
  9 67  1  0  0  0  0
  9152  1  0  0  0  0
 10 68  1  0  0  0  0
 10155  1  0  0  0  0
 11 69  1  0  0  0  0
 11 74  1  0  0  0  0
 12 70  1  0  0  0  0
 12 77  1  0  0  0  0
 13 71  1  0  0  0  0
 13163  1  0  0  0  0
 14 72  1  0  0  0  0
 14166  1  0  0  0  0
 15 73  1  0  0  0  0
 15167  1  0  0  0  0
 16 75  1  0  0  0  0
 16170  1  0  0  0  0
 17 76  1  0  0  0  0
 17171  1  0  0  0  0
 18 78  1  0  0  0  0
 18 81  1  0  0  0  0
 19 79  1  0  0  0  0
 19172  1  0  0  0  0
 20 80  1  0  0  0  0
 20174  1  0  0  0  0
 21 81  1  0  0  0  0
 21 84  1  0  0  0  0
 22 82  1  0  0  0  0
 22 87  1  0  0  0  0
 23 83  1  0  0  0  0
 23 88  1  0  0  0  0
 24 85  1  0  0  0  0
 24182  1  0  0  0  0
 25 87  1  0  0  0  0
 25 92  1  0  0  0  0
 26 86  1  0  0  0  0
 26187  1  0  0  0  0
 27 88  1  0  0  0  0
 27 95  1  0  0  0  0
 28 89  1  0  0  0  0
 28193  1  0  0  0  0
 29 90  1  0  0  0  0
 29196  1  0  0  0  0
 30 91  1  0  0  0  0
 30197  1  0  0  0  0
 31 93  1  0  0  0  0
 31200  1  0  0  0  0
 32 94  1  0  0  0  0
 32201  1  0  0  0  0
 33 96  1  0  0  0  0
 33202  1  0  0  0  0
 34 97  1  0  0  0  0
 34203  1  0  0  0  0
 35 98  1  0  0  0  0
 35204  1  0  0  0  0
 36 37  1  0  0  0  0
 36 39  1  0  0  0  0
 36 44  1  0  0  0  0
 36 50  1  0  0  0  0
 37 38  1  0  0  0  0
 37 43  1  0  0  0  0
 37 99  1  0  0  0  0
 38 40  1  0  0  0  0
 38 48  1  0  0  0  0
 38100  1  0  0  0  0
 39 42  1  0  0  0  0
 39 47  1  0  0  0  0
 39101  1  0  0  0  0
 40 41  1  0  0  0  0
 40 45  1  0  0  0  0
 40102  1  0  0  0  0
 41 46  1  0  0  0  0
 41 52  1  0  0  0  0
 41 54  1  0  0  0  0
 42 43  1  0  0  0  0
 42103  1  0  0  0  0
 43104  1  0  0  0  0
 43105  1  0  0  0  0
 44 45  1  0  0  0  0
 44106  1  0  0  0  0
 44107  1  0  0  0  0
 45108  1  0  0  0  0
 45109  1  0  0  0  0
 46 49  1  0  0  0  0
 46 53  1  0  0  0  0
 46110  1  0  0  0  0
 47 51  1  0  0  0  0
 47 57  1  0  0  0  0
 47111  1  0  0  0  0
 48 49  1  0  0  0  0
 48112  1  0  0  0  0
 48113  1  0  0  0  0
 49114  1  0  0  0  0
 49115  1  0  0  0  0
 50116  1  0  0  0  0
 50117  1  0  0  0  0
 50118  1  0  0  0  0
 51 58  1  0  0  0  0
 52 55  1  0  0  0  0
 52119  1  0  0  0  0
 52120  1  0  0  0  0
 53 56  1  0  0  0  0
 53121  1  0  0  0  0
 53122  1  0  0  0  0
 54123  1  0  0  0  0
 54124  1  0  0  0  0
 54125  1  0  0  0  0
 55 56  1  0  0  0  0
 55126  1  0  0  0  0
 56127  1  0  0  0  0
 57128  1  0  0  0  0
 57129  1  0  0  0  0
 57130  1  0  0  0  0
 58 59  1  0  0  0  0
 58131  1  0  0  0  0
 58132  1  0  0  0  0
 59 60  1  0  0  0  0
 59134  1  0  0  0  0
 59135  1  0  0  0  0
 60 63  1  0  0  0  0
 60 64  1  0  0  0  0
 60137  1  0  0  0  0
 61 62  1  0  0  0  0
 61138  1  0  0  0  0
 62 65  1  0  0  0  0
 62139  1  0  0  0  0
 63140  1  0  0  0  0
 63141  1  0  0  0  0
 64142  1  0  0  0  0
 64143  1  0  0  0  0
 64144  1  0  0  0  0
 65 67  1  0  0  0  0
 65145  1  0  0  0  0
 66 67  1  0  0  0  0
 66 68  1  0  0  0  0
 66146  1  0  0  0  0
 67147  1  0  0  0  0
 68149  1  0  0  0  0
 68150  1  0  0  0  0
 69 71  1  0  0  0  0
 69151  1  0  0  0  0
 70 72  1  0  0  0  0
 70153  1  0  0  0  0
 71 73  1  0  0  0  0
 71154  1  0  0  0  0
 72 76  1  0  0  0  0
 72156  1  0  0  0  0
 73 75  1  0  0  0  0
 73157  1  0  0  0  0
 74 75  1  0  0  0  0
 74 79  1  0  0  0  0
 74158  1  0  0  0  0
 75159  1  0  0  0  0
 76 78  1  0  0  0  0
 76160  1  0  0  0  0
 77 78  1  0  0  0  0
 77 80  1  0  0  0  0
 77161  1  0  0  0  0
 78162  1  0  0  0  0
 79164  1  0  0  0  0
 79165  1  0  0  0  0
 80168  1  0  0  0  0
 80169  1  0  0  0  0
 81 82  1  0  0  0  0
 81173  1  0  0  0  0
 82 83  1  0  0  0  0
 82175  1  0  0  0  0
 83 85  1  0  0  0  0
 83176  1  0  0  0  0
 84 85  1  0  0  0  0
 84 86  1  0  0  0  0
 84177  1  0  0  0  0
 85178  1  0  0  0  0
 86179  1  0  0  0  0
 86180  1  0  0  0  0
 87 89  1  0  0  0  0
 87181  1  0  0  0  0
 88 90  1  0  0  0  0
 88183  1  0  0  0  0
 89 91  1  0  0  0  0
 89184  1  0  0  0  0
 90 94  1  0  0  0  0
 90185  1  0  0  0  0
 91 93  1  0  0  0  0
 91186  1  0  0  0  0
 92 93  1  0  0  0  0
 92 97  1  0  0  0  0
 92188  1  0  0  0  0
 93189  1  0  0  0  0
 94 96  1  0  0  0  0
 94190  1  0  0  0  0
 95 96  1  0  0  0  0
 95 98  1  0  0  0  0
 95191  1  0  0  0  0
 96192  1  0  0  0  0
 97194  1  0  0  0  0
 97195  1  0  0  0  0
 98198  1  0  0  0  0
 98199  1  0  0  0  0
M  END
>  <PUBCHEM_COMPOUND_CID>
4483035

>  <PUBCHEM_COMPOUND_CANONICALIZED>
1

>  <PUBCHEM_CACTVS_COMPLEXITY>
2560

>  <PUBCHEM_CACTVS_HBOND_ACCEPTOR>
35

>  <PUBCHEM_CACTVS_HBOND_DONOR>
22

>  <PUBCHEM_CACTVS_ROTATABLE_BOND>
22

>  <PUBCHEM_CACTVS_SUBSKEYS>
AAADcfB8PgAAAAAAAAAAAAAAAAAAAaIAAAA0aNEiQAASAGDAAAAAGgAACAAADxSwgAMCCAAABgAAAAAAAAAAAAAAAAAAAAAAAAAREAIAAAAiQAAFAAAHAAHA4PwPgAAAAAAAAADAAAYAACCAAYAADAAAAA==

>  <PUBCHEM_IUPAC_INCHI>
InChI=1S/C63H106O35/c1-21(20-86-55-46(80)42(76)37(71)30(14-64)88-55)7-10-63(85)22(2)36-29(98-63)12-26-24-6-5-23-11-28(27(70)13-62(23,4)25(24)8-9-61(26,36)3)87-59-50(84)52(40(74)33(17-67)91-59)95-58-49(83)45(79)51(35(19-69)93-58)94-60-54(97-57-48(82)44(78)39(73)32(16-66)90-57)53(41(75)34(18-68)92-60)96-56-47(81)43(77)38(72)31(15-65)89-56/h21-60,64-85H,5-20H2,1-4H3

>  <PUBCHEM_IUPAC_INCHIKEY>
WUSQCDWYDVFLMN-UHFFFAOYSA-N

>  <PUBCHEM_XLOGP3_AA>
-5.6

>  <PUBCHEM_EXACT_MASS>
1422.651

>  <PUBCHEM_MOLECULAR_FORMULA>
C63H106O35

>  <PUBCHEM_MOLECULAR_WEIGHT>
1423.506

>  <PUBCHEM_OPENEYE_CAN_SMILES>
CC1C2C(CC3C2(CCC4C3CCC5C4(CC(C(C5)OC6C(C(C(C(O6)CO)O)OC7C(C(C(C(O7)CO)OC8C(C(C(C(O8)CO)O)OC9C(C(C(C(O9)CO)O)O)O)OC2C(C(C(C(O2)CO)O)O)O)O)O)O)O)C)C)OC1(CCC(C)COC1C(C(C(C(O1)CO)O)O)O)O

>  <PUBCHEM_OPENEYE_ISO_SMILES>
CC1C2C(CC3C2(CCC4C3CCC5C4(CC(C(C5)OC6C(C(C(C(O6)CO)O)OC7C(C(C(C(O7)CO)OC8C(C(C(C(O8)CO)O)OC9C(C(C(C(O9)CO)O)O)O)OC2C(C(C(C(O2)CO)O)O)O)O)O)O)O)C)C)OC1(CCC(C)COC1C(C(C(C(O1)CO)O)O)O)O

>  <PUBCHEM_CACTVS_TPSA>
565

>  <PUBCHEM_MONOISOTOPIC_WEIGHT>
1422.651

>  <PUBCHEM_TOTAL_CHARGE>
0

>  <PUBCHEM_HEAVY_ATOM_COUNT>
98

>  <PUBCHEM_ATOM_DEF_STEREO_COUNT>
0

>  <PUBCHEM_ATOM_UDEF_STEREO_COUNT>
43

>  <PUBCHEM_BOND_DEF_STEREO_COUNT>
0

>  <PUBCHEM_BOND_UDEF_STEREO_COUNT>
0

>  <PUBCHEM_ISOTOPIC_ATOM_COUNT>
0

>  <PUBCHEM_COMPONENT_COUNT>
1

>  <PUBCHEM_CACTVS_TAUTO_COUNT>
1

>  <PUBCHEM_COORDINATE_TYPE>
1
5
255

>  <PUBCHEM_BONDANNOTATIONS>
71  13  3
72  14  3
73  15  3
75  16  3
76  17  3
78  18  3
81  18  3
51  2  3
82  22  3
87  22  3
83  23  3
88  23  3
85  24  3
89  28  3
90  29  3
56  3  3
61  3  3
91  30  3
93  31  3
94  32  3
96  33  3
36  50  3
37  43  3
38  48  3
39  47  3
55  4  3
40  45  3
41  54  3
42  43  3
46  49  3
47  57  3
69  6  3
60  64  3
66  68  3
62  7  3
74  79  3
77  80  3
65  8  3
70  8  3
84  86  3
67  9  3
92  97  3
95  98  3

$$$$
