4484949
 OpenBabel06101807152D

 40 42  0  0  1  0  0  0  0  0999 V2000
    6.0682   -2.3877    0.0000 O   0  0  0  0  0  0  0  0  0  0  0  0
    6.9343    1.1123    0.0000 O   0  0  0  0  0  0  0  0  0  0  0  0
    8.6663    2.1123    0.0000 O   0  0  0  0  0  0  0  0  0  0  0  0
   10.3984    1.1123    0.0000 O   0  0  0  0  0  0  0  0  0  0  0  0
    2.5381   -2.4118    0.0000 O   0  0  0  0  0  0  0  0  0  0  0  0
    6.9343   -0.8877    0.0000 C   0  0  3  0  0  0  0  0  0  0  0  0
    6.0682   -0.3877    0.0000 C   0  0  0  0  0  0  0  0  0  0  0  0
    6.9343   -1.8877    0.0000 C   0  0  0  0  0  0  0  0  0  0  0  0
    7.8003   -0.3877    0.0000 C   0  0  0  0  0  0  0  0  0  0  0  0
    5.2022   -0.8877    0.0000 C   0  0  0  0  0  0  0  0  0  0  0  0
    5.2022   -1.8877    0.0000 C   0  0  0  0  0  0  0  0  0  0  0  0
    7.8003    0.6123    0.0000 C   0  0  0  0  0  0  0  0  0  0  0  0
    8.6663   -0.8877    0.0000 C   0  0  0  0  0  0  0  0  0  0  0  0
    4.3083   -0.3530    0.0000 C   0  0  0  0  0  0  0  0  0  0  0  0
    4.3083   -2.4223    0.0000 C   0  0  0  0  0  0  0  0  0  0  0  0
    8.6663    1.1123    0.0000 C   0  0  0  0  0  0  0  0  0  0  0  0
    9.5323   -0.3877    0.0000 C   0  0  0  0  0  0  0  0  0  0  0  0
    3.4022   -0.8669    0.0000 C   0  0  0  0  0  0  0  0  0  0  0  0
    9.5323    0.6123    0.0000 C   0  0  0  0  0  0  0  0  0  0  0  0
    3.4022   -1.9085    0.0000 C   0  0  0  0  0  0  0  0  0  0  0  0
    6.9343    2.1123    0.0000 C   0  0  0  0  0  0  0  0  0  0  0  0
   11.2644    0.6123    0.0000 C   0  0  0  0  0  0  0  0  0  0  0  0
    6.9343   -0.0377    0.0000 H   0  0  0  0  0  0  0  0  0  0  0  0
    6.4668    0.0873    0.0000 H   0  0  0  0  0  0  0  0  0  0  0  0
    5.6697    0.0873    0.0000 H   0  0  0  0  0  0  0  0  0  0  0  0
    7.1463   -2.4703    0.0000 H   0  0  0  0  0  0  0  0  0  0  0  0
    7.5449   -1.7800    0.0000 H   0  0  0  0  0  0  0  0  0  0  0  0
    8.6663   -1.5077    0.0000 H   0  0  0  0  0  0  0  0  0  0  0  0
    4.3154    0.2670    0.0000 H   0  0  0  0  0  0  0  0  0  0  0  0
    4.3154   -3.0423    0.0000 H   0  0  0  0  0  0  0  0  0  0  0  0
   10.0693   -0.6977    0.0000 H   0  0  0  0  0  0  0  0  0  0  0  0
    2.8665   -0.5548    0.0000 H   0  0  0  0  0  0  0  0  0  0  0  0
    9.2033    2.4223    0.0000 H   0  0  0  0  0  0  0  0  0  0  0  0
    7.5543    2.1123    0.0000 H   0  0  0  0  0  0  0  0  0  0  0  0
    6.9343    2.7323    0.0000 H   0  0  0  0  0  0  0  0  0  0  0  0
    6.3143    2.1123    0.0000 H   0  0  0  0  0  0  0  0  0  0  0  0
    2.0000   -2.1039    0.0000 H   0  0  0  0  0  0  0  0  0  0  0  0
   10.9544    0.0754    0.0000 H   0  0  0  0  0  0  0  0  0  0  0  0
   11.8013    0.3023    0.0000 H   0  0  0  0  0  0  0  0  0  0  0  0
   11.5744    1.1493    0.0000 H   0  0  0  0  0  0  0  0  0  0  0  0
  1  8  1  0  0  0  0
  1 11  1  0  0  0  0
  2 12  1  0  0  0  0
  2 21  1  0  0  0  0
  3 16  1  0  0  0  0
  3 33  1  0  0  0  0
  4 19  1  0  0  0  0
  4 22  1  0  0  0  0
  5 20  1  0  0  0  0
  5 37  1  0  0  0  0
  6  7  1  0  0  0  0
  6  8  1  0  0  0  0
  6  9  1  0  0  0  0
  6 23  1  0  0  0  0
  7 10  1  0  0  0  0
  7 24  1  0  0  0  0
  7 25  1  0  0  0  0
  8 26  1  0  0  0  0
  8 27  1  0  0  0  0
  9 12  2  0  0  0  0
  9 13  1  0  0  0  0
 10 11  2  0  0  0  0
 10 14  1  0  0  0  0
 11 15  1  0  0  0  0
 12 16  1  0  0  0  0
 13 17  2  0  0  0  0
 13 28  1  0  0  0  0
 14 18  2  0  0  0  0
 14 29  1  0  0  0  0
 15 20  2  0  0  0  0
 15 30  1  0  0  0  0
 16 19  2  0  0  0  0
 17 19  1  0  0  0  0
 17 31  1  0  0  0  0
 18 20  1  0  0  0  0
 18 32  1  0  0  0  0
 21 34  1  0  0  0  0
 21 35  1  0  0  0  0
 21 36  1  0  0  0  0
 22 38  1  0  0  0  0
 22 39  1  0  0  0  0
 22 40  1  0  0  0  0
M  END
>  <PUBCHEM_COMPOUND_CID>
4484949

>  <PUBCHEM_COMPOUND_CANONICALIZED>
1

>  <PUBCHEM_CACTVS_COMPLEXITY>
363

>  <PUBCHEM_CACTVS_HBOND_ACCEPTOR>
5

>  <PUBCHEM_CACTVS_HBOND_DONOR>
2

>  <PUBCHEM_CACTVS_ROTATABLE_BOND>
3

>  <PUBCHEM_CACTVS_SUBSKEYS>
AAADceB4OAAAAAAAAAAAAAAAAAAAAAAAAAA0YIAAAAAAAACRQAAAGgAACAAADQSgmAIyBoAABgCAAiBCAAACCAAgIAAIiAAGiIgNJyKGMRqCeCOlwBULuAfA4PwOoAABCAAIQABAAAIQABCAAAAAAAAAAA==

>  <PUBCHEM_IUPAC_OPENEYE_NAME>
3-(3-hydroxy-2,4-dimethoxy-phenyl)chroman-7-ol

>  <PUBCHEM_IUPAC_CAS_NAME>
3-(3-hydroxy-2,4-dimethoxyphenyl)-3,4-dihydro-2H-1-benzopyran-7-ol

>  <PUBCHEM_IUPAC_NAME>
3-(3-hydroxy-2,4-dimethoxyphenyl)-3,4-dihydro-2H-chromen-7-ol

>  <PUBCHEM_IUPAC_SYSTEMATIC_NAME>
3-(2,4-dimethoxy-3-oxidanyl-phenyl)-3,4-dihydro-2H-chromen-7-ol

>  <PUBCHEM_IUPAC_TRADITIONAL_NAME>
3-(3-hydroxy-2,4-dimethoxy-phenyl)chroman-7-ol

>  <PUBCHEM_IUPAC_INCHI>
InChI=1S/C17H18O5/c1-20-14-6-5-13(17(21-2)16(14)19)11-7-10-3-4-12(18)8-15(10)22-9-11/h3-6,8,11,18-19H,7,9H2,1-2H3

>  <PUBCHEM_IUPAC_INCHIKEY>
NUNFZNIXYWTZMW-UHFFFAOYSA-N

>  <PUBCHEM_XLOGP3_AA>
2.9

>  <PUBCHEM_EXACT_MASS>
302.115

>  <PUBCHEM_MOLECULAR_FORMULA>
C17H18O5

>  <PUBCHEM_MOLECULAR_WEIGHT>
302.326

>  <PUBCHEM_OPENEYE_CAN_SMILES>
COC1=C(C(=C(C=C1)C2CC3=C(C=C(C=C3)O)OC2)OC)O

>  <PUBCHEM_OPENEYE_ISO_SMILES>
COC1=C(C(=C(C=C1)C2CC3=C(C=C(C=C3)O)OC2)OC)O

>  <PUBCHEM_CACTVS_TPSA>
68.2

>  <PUBCHEM_MONOISOTOPIC_WEIGHT>
302.115

>  <PUBCHEM_TOTAL_CHARGE>
0

>  <PUBCHEM_HEAVY_ATOM_COUNT>
22

>  <PUBCHEM_ATOM_DEF_STEREO_COUNT>
0

>  <PUBCHEM_ATOM_UDEF_STEREO_COUNT>
1

>  <PUBCHEM_BOND_DEF_STEREO_COUNT>
0

>  <PUBCHEM_BOND_UDEF_STEREO_COUNT>
0

>  <PUBCHEM_ISOTOPIC_ATOM_COUNT>
0

>  <PUBCHEM_COMPONENT_COUNT>
1

>  <PUBCHEM_CACTVS_TAUTO_COUNT>
27

>  <PUBCHEM_COORDINATE_TYPE>
1
5
255

>  <PUBCHEM_BONDANNOTATIONS>
10  11  8
10  14  8
11  15  8
12  16  8
13  17  8
14  18  8
15  20  8
16  19  8
17  19  8
18  20  8
6  23  3
9  12  8
9  13  8

$$$$
