4486606
 OpenBabel06101807152D

154163  0  0  1  0  0  0  0  0999 V2000
   11.8347   -0.4895    0.0000 O   0  0  0  0  0  0  0  0  0  0  0  0
   10.1026   -0.4895    0.0000 O   0  0  0  0  0  0  0  0  0  0  0  0
   11.8347   -2.4895    0.0000 O   0  0  0  0  0  0  0  0  0  0  0  0
   10.1026   -3.4895    0.0000 O   0  0  0  0  0  0  0  0  0  0  0  0
    8.3706   -2.4895    0.0000 O   0  0  0  0  0  0  0  0  0  0  0  0
    8.3706    0.5105    0.0000 O   0  0  0  0  0  0  0  0  0  0  0  0
    9.2366   -3.9895    0.0000 O   0  0  0  0  0  0  0  0  0  0  0  0
    6.6385   -3.4895    0.0000 O   0  0  0  0  0  0  0  0  0  0  0  0
    6.6385   -5.4895    0.0000 O   0  0  0  0  0  0  0  0  0  0  0  0
    8.3706   -6.4895    0.0000 O   0  0  0  0  0  0  0  0  0  0  0  0
    5.0109   -4.0819    0.0000 O   0  0  0  0  0  0  0  0  0  0  0  0
   10.9686   -4.9895    0.0000 O   0  0  0  0  0  0  0  0  0  0  0  0
    7.5045   -6.9895    0.0000 O   0  0  0  0  0  0  0  0  0  0  0  0
    5.9545   -1.6101    0.0000 O   0  0  0  0  0  0  0  0  0  0  0  0
    3.9849   -1.2627    0.0000 O   0  0  0  0  0  0  0  0  0  0  0  0
    4.9065   -6.4895    0.0000 O   0  0  0  0  0  0  0  0  0  0  0  0
    2.6993   -2.7948    0.0000 O   0  0  0  0  0  0  0  0  0  0  0  0
    4.9065   -8.4895    0.0000 O   0  0  0  0  0  0  0  0  0  0  0  0
    6.6385   -9.4895    0.0000 O   0  0  0  0  0  0  0  0  0  0  0  0
    2.3985   -4.5006    0.0000 O   0  0  0  0  0  0  0  0  0  0  0  0
   13.2578    7.7546    0.0000 N   0  0  3  0  0  0  0  0  0  0  0  0
   11.8639    5.7074    0.0000 C   0  0  3  0  0  0  0  0  0  0  0  0
   12.7319    5.2107    0.0000 C   0  0  3  0  0  0  0  0  0  0  0  0
   12.0694    6.6800    0.0000 C   0  0  3  0  0  0  0  0  0  0  0  0
   13.0577    6.7869    0.0000 C   0  0  3  0  0  0  0  0  0  0  0  0
   12.7357    4.2107    0.0000 C   0  0  3  0  0  0  0  0  0  0  0  0
   11.8716    3.7074    0.0000 C   0  0  3  0  0  0  0  0  0  0  0  0
   13.4663    5.8806    0.0000 C   0  0  0  0  0  0  0  0  0  0  0  0
   11.6671    7.5826    0.0000 C   0  0  3  0  0  0  0  0  0  0  0  0
   10.9998    5.2041    0.0000 C   0  0  0  0  0  0  0  0  0  0  0  0
   11.8596    2.6658    0.0000 C   0  0  3  0  0  0  0  0  0  0  0  0
   12.4001    8.2454    0.0000 C   0  0  3  0  0  0  0  0  0  0  0  0
   11.0037    4.2041    0.0000 C   0  0  0  0  0  0  0  0  0  0  0  0
   13.6477    3.7074    0.0000 C   0  0  0  0  0  0  0  0  0  0  0  0
   12.7597    2.1416    0.0000 C   0  0  3  0  0  0  0  0  0  0  0  0
   10.9960    6.2040    0.0000 C   0  0  0  0  0  0  0  0  0  0  0  0
   13.6597    2.6658    0.0000 C   0  0  0  0  0  0  0  0  0  0  0  0
   10.9097    2.1416    0.0000 C   0  0  0  0  0  0  0  0  0  0  0  0
   14.1551    8.2589    0.0000 C   0  0  0  0  0  0  0  0  0  0  0  0
   12.3802    9.2745    0.0000 C   0  0  0  0  0  0  0  0  0  0  0  0
   10.6887    7.7893    0.0000 C   0  0  0  0  0  0  0  0  0  0  0  0
   12.7722    1.0566    0.0000 C   0  0  0  0  0  0  0  0  0  0  0  0
   10.9955    3.1692    0.0000 C   0  0  0  0  0  0  0  0  0  0  0  0
   14.1590    9.2882    0.0000 C   0  0  3  0  0  0  0  0  0  0  0  0
   13.2656    9.7995    0.0000 C   0  0  0  0  0  0  0  0  0  0  0  0
   10.8971    1.0566    0.0000 C   0  0  0  0  0  0  0  0  0  0  0  0
   11.8347    0.5105    0.0000 C   0  0  3  0  0  0  0  0  0  0  0  0
   15.0251    9.7882    0.0000 C   0  0  0  0  0  0  0  0  0  0  0  0
   10.9686   -0.9895    0.0000 C   0  0  3  0  0  0  0  0  0  0  0  0
   10.9686   -1.9895    0.0000 C   0  0  3  0  0  0  0  0  0  0  0  0
   10.1026   -2.4895    0.0000 C   0  0  3  0  0  0  0  0  0  0  0  0
    9.2366   -0.9895    0.0000 C   0  0  3  0  0  0  0  0  0  0  0  0
    9.2366   -1.9895    0.0000 C   0  0  3  0  0  0  0  0  0  0  0  0
    8.3706   -0.4895    0.0000 C   0  0  0  0  0  0  0  0  0  0  0  0
    8.3706   -3.4895    0.0000 C   0  0  3  0  0  0  0  0  0  0  0  0
    7.5045   -3.9895    0.0000 C   0  0  3  0  0  0  0  0  0  0  0  0
    7.5045   -4.9895    0.0000 C   0  0  3  0  0  0  0  0  0  0  0  0
    9.2366   -4.9895    0.0000 C   0  0  3  0  0  0  0  0  0  0  0  0
    8.3706   -5.4895    0.0000 C   0  0  3  0  0  0  0  0  0  0  0  0
   10.1026   -5.4895    0.0000 C   0  0  0  0  0  0  0  0  0  0  0  0
    5.6537   -3.3158    0.0000 C   0  0  3  0  0  0  0  0  0  0  0  0
    6.6385   -6.4895    0.0000 C   0  0  3  0  0  0  0  0  0  0  0  0
    5.3118   -2.3761    0.0000 C   0  0  3  0  0  0  0  0  0  0  0  0
    4.3269   -2.2024    0.0000 C   0  0  3  0  0  0  0  0  0  0  0  0
    5.7725   -6.9895    0.0000 C   0  0  3  0  0  0  0  0  0  0  0  0
    4.0261   -3.9082    0.0000 C   0  0  3  0  0  0  0  0  0  0  0  0
    3.6841   -2.9685    0.0000 C   0  0  3  0  0  0  0  0  0  0  0  0
    5.7725   -7.9895    0.0000 C   0  0  3  0  0  0  0  0  0  0  0  0
    7.5045   -7.9895    0.0000 C   0  0  0  0  0  0  0  0  0  0  0  0
    6.6385   -8.4895    0.0000 C   0  0  3  0  0  0  0  0  0  0  0  0
    3.3833   -4.6743    0.0000 C   0  0  0  0  0  0  0  0  0  0  0  0
   13.2996    4.9615    0.0000 H   0  0  0  0  0  0  0  0  0  0  0  0
   11.4528    6.6147    0.0000 H   0  0  0  0  0  0  0  0  0  0  0  0
   13.6740    6.8549    0.0000 H   0  0  0  0  0  0  0  0  0  0  0  0
   13.2690    4.5269    0.0000 H   0  0  0  0  0  0  0  0  0  0  0  0
   12.4074    3.3953    0.0000 H   0  0  0  0  0  0  0  0  0  0  0  0
   13.8337    5.3812    0.0000 H   0  0  0  0  0  0  0  0  0  0  0  0
   14.0016    6.1935    0.0000 H   0  0  0  0  0  0  0  0  0  0  0  0
   11.5056    8.1812    0.0000 H   0  0  0  0  0  0  0  0  0  0  0  0
   10.7855    5.7858    0.0000 H   0  0  0  0  0  0  0  0  0  0  0  0
   10.3897    5.0940    0.0000 H   0  0  0  0  0  0  0  0  0  0  0  0
   11.8310    8.4915    0.0000 H   0  0  0  0  0  0  0  0  0  0  0  0
   10.3927    4.3094    0.0000 H   0  0  0  0  0  0  0  0  0  0  0  0
   10.7939    3.6206    0.0000 H   0  0  0  0  0  0  0  0  0  0  0  0
   14.2597    3.6084    0.0000 H   0  0  0  0  0  0  0  0  0  0  0  0
   13.8500    4.2935    0.0000 H   0  0  0  0  0  0  0  0  0  0  0  0
   13.2990    1.8357    0.0000 H   0  0  0  0  0  0  0  0  0  0  0  0
   11.3039    6.7422    0.0000 H   0  0  0  0  0  0  0  0  0  0  0  0
   10.4579    6.5120    0.0000 H   0  0  0  0  0  0  0  0  0  0  0  0
   10.6881    5.6659    0.0000 H   0  0  0  0  0  0  0  0  0  0  0  0
   13.8755    2.0846    0.0000 H   0  0  0  0  0  0  0  0  0  0  0  0
   14.2693    2.7790    0.0000 H   0  0  0  0  0  0  0  0  0  0  0  0
   10.7074    2.7276    0.0000 H   0  0  0  0  0  0  0  0  0  0  0  0
   10.2976    2.0425    0.0000 H   0  0  0  0  0  0  0  0  0  0  0  0
   14.3619    7.6744    0.0000 H   0  0  0  0  0  0  0  0  0  0  0  0
   14.7663    8.3627    0.0000 H   0  0  0  0  0  0  0  0  0  0  0  0
   12.1600    9.8541    0.0000 H   0  0  0  0  0  0  0  0  0  0  0  0
   11.7715    9.1567    0.0000 H   0  0  0  0  0  0  0  0  0  0  0  0
   10.8168    8.3959    0.0000 H   0  0  0  0  0  0  0  0  0  0  0  0
   10.0821    7.9174    0.0000 H   0  0  0  0  0  0  0  0  0  0  0  0
   10.5605    7.1827    0.0000 H   0  0  0  0  0  0  0  0  0  0  0  0
   12.9880    0.4754    0.0000 H   0  0  0  0  0  0  0  0  0  0  0  0
   13.3818    1.1698    0.0000 H   0  0  0  0  0  0  0  0  0  0  0  0
   11.3076    3.7049    0.0000 H   0  0  0  0  0  0  0  0  0  0  0  0
   10.4598    3.4812    0.0000 H   0  0  0  0  0  0  0  0  0  0  0  0
   10.6834    2.6334    0.0000 H   0  0  0  0  0  0  0  0  0  0  0  0
   14.6954    8.9772    0.0000 H   0  0  0  0  0  0  0  0  0  0  0  0
   13.6611   10.2770    0.0000 H   0  0  0  0  0  0  0  0  0  0  0  0
   12.8629   10.2708    0.0000 H   0  0  0  0  0  0  0  0  0  0  0  0
   10.2875    1.1698    0.0000 H   0  0  0  0  0  0  0  0  0  0  0  0
   10.6813    0.4754    0.0000 H   0  0  0  0  0  0  0  0  0  0  0  0
   12.3722    0.2016    0.0000 H   0  0  0  0  0  0  0  0  0  0  0  0
   15.3351    9.2513    0.0000 H   0  0  0  0  0  0  0  0  0  0  0  0
   15.5620   10.0983    0.0000 H   0  0  0  0  0  0  0  0  0  0  0  0
   14.7151   10.3252    0.0000 H   0  0  0  0  0  0  0  0  0  0  0  0
   10.9686   -0.3695    0.0000 H   0  0  0  0  0  0  0  0  0  0  0  0
   10.9686   -2.6095    0.0000 H   0  0  0  0  0  0  0  0  0  0  0  0
    9.5657   -2.7995    0.0000 H   0  0  0  0  0  0  0  0  0  0  0  0
    9.2366   -0.3695    0.0000 H   0  0  0  0  0  0  0  0  0  0  0  0
    8.6997   -1.6795    0.0000 H   0  0  0  0  0  0  0  0  0  0  0  0
   12.3716   -2.1795    0.0000 H   0  0  0  0  0  0  0  0  0  0  0  0
    7.7600   -0.3818    0.0000 H   0  0  0  0  0  0  0  0  0  0  0  0
    8.1585   -1.0721    0.0000 H   0  0  0  0  0  0  0  0  0  0  0  0
   10.6396   -3.7995    0.0000 H   0  0  0  0  0  0  0  0  0  0  0  0
    7.8336   -3.1795    0.0000 H   0  0  0  0  0  0  0  0  0  0  0  0
    7.8336    0.8205    0.0000 H   0  0  0  0  0  0  0  0  0  0  0  0
    8.0415   -4.2995    0.0000 H   0  0  0  0  0  0  0  0  0  0  0  0
    7.5045   -5.6095    0.0000 H   0  0  0  0  0  0  0  0  0  0  0  0
    9.7735   -4.6795    0.0000 H   0  0  0  0  0  0  0  0  0  0  0  0
    8.9075   -5.7995    0.0000 H   0  0  0  0  0  0  0  0  0  0  0  0
    9.7041   -5.9644    0.0000 H   0  0  0  0  0  0  0  0  0  0  0  0
   10.5011   -5.9644    0.0000 H   0  0  0  0  0  0  0  0  0  0  0  0
    6.0523   -2.8409    0.0000 H   0  0  0  0  0  0  0  0  0  0  0  0
    8.9075   -6.7995    0.0000 H   0  0  0  0  0  0  0  0  0  0  0  0
    6.1016   -6.1795    0.0000 H   0  0  0  0  0  0  0  0  0  0  0  0
    5.0997   -1.7934    0.0000 H   0  0  0  0  0  0  0  0  0  0  0  0
    3.7163   -2.0948    0.0000 H   0  0  0  0  0  0  0  0  0  0  0  0
   11.5056   -5.2995    0.0000 H   0  0  0  0  0  0  0  0  0  0  0  0
    5.2356   -7.2995    0.0000 H   0  0  0  0  0  0  0  0  0  0  0  0
    4.2382   -4.4908    0.0000 H   0  0  0  0  0  0  0  0  0  0  0  0
    4.2947   -3.0762    0.0000 H   0  0  0  0  0  0  0  0  0  0  0  0
    5.7725   -8.6095    0.0000 H   0  0  0  0  0  0  0  0  0  0  0  0
    5.7424   -1.0275    0.0000 H   0  0  0  0  0  0  0  0  0  0  0  0
    7.7166   -8.5721    0.0000 H   0  0  0  0  0  0  0  0  0  0  0  0
    8.1151   -7.8818    0.0000 H   0  0  0  0  0  0  0  0  0  0  0  0
    7.1754   -8.7995    0.0000 H   0  0  0  0  0  0  0  0  0  0  0  0
    3.1713   -5.2569    0.0000 H   0  0  0  0  0  0  0  0  0  0  0  0
    3.9203   -4.9843    0.0000 H   0  0  0  0  0  0  0  0  0  0  0  0
    3.3743   -1.1551    0.0000 H   0  0  0  0  0  0  0  0  0  0  0  0
    4.3695   -6.7995    0.0000 H   0  0  0  0  0  0  0  0  0  0  0  0
    2.3008   -3.2698    0.0000 H   0  0  0  0  0  0  0  0  0  0  0  0
    4.9065   -9.1095    0.0000 H   0  0  0  0  0  0  0  0  0  0  0  0
    7.1754   -9.7995    0.0000 H   0  0  0  0  0  0  0  0  0  0  0  0
    2.0000   -4.9756    0.0000 H   0  0  0  0  0  0  0  0  0  0  0  0
  1 47  1  0  0  0  0
  1 49  1  0  0  0  0
  2 49  1  0  0  0  0
  2 52  1  0  0  0  0
  3 50  1  0  0  0  0
  3121  1  0  0  0  0
  4 51  1  0  0  0  0
  4124  1  0  0  0  0
  5 53  1  0  0  0  0
  5 55  1  0  0  0  0
  6 54  1  0  0  0  0
  6126  1  0  0  0  0
  7 55  1  0  0  0  0
  7 58  1  0  0  0  0
  8 56  1  0  0  0  0
  8 61  1  0  0  0  0
  9 57  1  0  0  0  0
  9 62  1  0  0  0  0
 10 59  1  0  0  0  0
 10134  1  0  0  0  0
 11 61  1  0  0  0  0
 11 66  1  0  0  0  0
 12 60  1  0  0  0  0
 12138  1  0  0  0  0
 13 62  1  0  0  0  0
 13 69  1  0  0  0  0
 14 63  1  0  0  0  0
 14143  1  0  0  0  0
 15 64  1  0  0  0  0
 15149  1  0  0  0  0
 16 65  1  0  0  0  0
 16150  1  0  0  0  0
 17 67  1  0  0  0  0
 17151  1  0  0  0  0
 18 68  1  0  0  0  0
 18152  1  0  0  0  0
 19 70  1  0  0  0  0
 19153  1  0  0  0  0
 20 71  1  0  0  0  0
 20154  1  0  0  0  0
 21 25  1  0  0  0  0
 21 32  1  0  0  0  0
 21 39  1  0  0  0  0
 22 23  1  0  0  0  0
 22 24  1  0  0  0  0
 22 30  1  0  0  0  0
 22 36  1  0  0  0  0
 23 26  1  0  0  0  0
 23 28  1  0  0  0  0
 23 72  1  0  0  0  0
 24 25  1  0  0  0  0
 24 29  1  0  0  0  0
 24 73  1  0  0  0  0
 25 28  1  0  0  0  0
 25 74  1  0  0  0  0
 26 27  1  0  0  0  0
 26 34  1  0  0  0  0
 26 75  1  0  0  0  0
 27 31  1  0  0  0  0
 27 33  1  0  0  0  0
 27 76  1  0  0  0  0
 28 77  1  0  0  0  0
 28 78  1  0  0  0  0
 29 32  1  0  0  0  0
 29 41  1  0  0  0  0
 29 79  1  0  0  0  0
 30 33  1  0  0  0  0
 30 80  1  0  0  0  0
 30 81  1  0  0  0  0
 31 35  1  0  0  0  0
 31 38  1  0  0  0  0
 31 43  1  0  0  0  0
 32 40  1  0  0  0  0
 32 82  1  0  0  0  0
 33 83  1  0  0  0  0
 33 84  1  0  0  0  0
 34 37  1  0  0  0  0
 34 85  1  0  0  0  0
 34 86  1  0  0  0  0
 35 37  1  0  0  0  0
 35 42  1  0  0  0  0
 35 87  1  0  0  0  0
 36 88  1  0  0  0  0
 36 89  1  0  0  0  0
 36 90  1  0  0  0  0
 37 91  1  0  0  0  0
 37 92  1  0  0  0  0
 38 46  1  0  0  0  0
 38 93  1  0  0  0  0
 38 94  1  0  0  0  0
 39 44  1  0  0  0  0
 39 95  1  0  0  0  0
 39 96  1  0  0  0  0
 40 45  1  0  0  0  0
 40 97  1  0  0  0  0
 40 98  1  0  0  0  0
 41 99  1  0  0  0  0
 41100  1  0  0  0  0
 41101  1  0  0  0  0
 42 47  1  0  0  0  0
 42102  1  0  0  0  0
 42103  1  0  0  0  0
 43104  1  0  0  0  0
 43105  1  0  0  0  0
 43106  1  0  0  0  0
 44 45  1  0  0  0  0
 44 48  1  0  0  0  0
 44107  1  0  0  0  0
 45108  1  0  0  0  0
 45109  1  0  0  0  0
 46 47  1  0  0  0  0
 46110  1  0  0  0  0
 46111  1  0  0  0  0
 47112  1  0  0  0  0
 48113  1  0  0  0  0
 48114  1  0  0  0  0
 48115  1  0  0  0  0
 49 50  1  0  0  0  0
 49116  1  0  0  0  0
 50 51  1  0  0  0  0
 50117  1  0  0  0  0
 51 53  1  0  0  0  0
 51118  1  0  0  0  0
 52 53  1  0  0  0  0
 52 54  1  0  0  0  0
 52119  1  0  0  0  0
 53120  1  0  0  0  0
 54122  1  0  0  0  0
 54123  1  0  0  0  0
 55 56  1  0  0  0  0
 55125  1  0  0  0  0
 56 57  1  0  0  0  0
 56127  1  0  0  0  0
 57 59  1  0  0  0  0
 57128  1  0  0  0  0
 58 59  1  0  0  0  0
 58 60  1  0  0  0  0
 58129  1  0  0  0  0
 59130  1  0  0  0  0
 60131  1  0  0  0  0
 60132  1  0  0  0  0
 61 63  1  0  0  0  0
 61133  1  0  0  0  0
 62 65  1  0  0  0  0
 62135  1  0  0  0  0
 63 64  1  0  0  0  0
 63136  1  0  0  0  0
 64 67  1  0  0  0  0
 64137  1  0  0  0  0
 65 68  1  0  0  0  0
 65139  1  0  0  0  0
 66 67  1  0  0  0  0
 66 71  1  0  0  0  0
 66140  1  0  0  0  0
 67141  1  0  0  0  0
 68 70  1  0  0  0  0
 68142  1  0  0  0  0
 69 70  1  0  0  0  0
 69144  1  0  0  0  0
 69145  1  0  0  0  0
 70146  1  0  0  0  0
 71147  1  0  0  0  0
 71148  1  0  0  0  0
M  END
>  <PUBCHEM_COMPOUND_CID>
4486606

>  <PUBCHEM_COMPOUND_CANONICALIZED>
1

>  <PUBCHEM_CACTVS_COMPLEXITY>
1810

>  <PUBCHEM_CACTVS_HBOND_ACCEPTOR>
21

>  <PUBCHEM_CACTVS_HBOND_DONOR>
12

>  <PUBCHEM_CACTVS_ROTATABLE_BOND>
11

>  <PUBCHEM_CACTVS_SUBSKEYS>
AAADcfB+PgAAAAAAAAAAAAAAAAAAAeIAAAA8aNEiQAAWAHjAAAAAHgAACAAADzzxgAcCCAMABgAAAAAAAAAAAAAAAAAAAAAIAAAREAIAgAAmQAAFAACHAAHQ4PwPgAAAAAAAAADAAAYAACAAASAACQAAAA==

>  <PUBCHEM_IUPAC_INCHI>
InChI=1S/C50H83NO20/c1-20-5-8-27-21(2)33-28(51(27)15-20)14-26-24-7-6-22-13-23(9-11-49(22,3)25(24)10-12-50(26,33)4)65-46-41(63)38(60)42(32(18-54)68-46)69-48-44(71-47-40(62)37(59)35(57)30(16-52)66-47)43(36(58)31(17-53)67-48)70-45-39(61)34(56)29(55)19-64-45/h20-48,52-63H,5-19H2,1-4H3

>  <PUBCHEM_IUPAC_INCHIKEY>
KWRYHKRVKRBBBU-UHFFFAOYSA-N

>  <PUBCHEM_XLOGP3_AA>
0

>  <PUBCHEM_EXACT_MASS>
1017.551

>  <PUBCHEM_MOLECULAR_FORMULA>
C50H83NO20

>  <PUBCHEM_MOLECULAR_WEIGHT>
1018.201

>  <PUBCHEM_OPENEYE_CAN_SMILES>
CC1CCC2C(C3C(N2C1)CC4C3(CCC5C4CCC6C5(CCC(C6)OC7C(C(C(C(O7)CO)OC8C(C(C(C(O8)CO)O)OC9C(C(C(CO9)O)O)O)OC1C(C(C(C(O1)CO)O)O)O)O)O)C)C)C

>  <PUBCHEM_OPENEYE_ISO_SMILES>
CC1CCC2C(C3C(N2C1)CC4C3(CCC5C4CCC6C5(CCC(C6)OC7C(C(C(C(O7)CO)OC8C(C(C(C(O8)CO)O)OC9C(C(C(CO9)O)O)O)OC1C(C(C(C(O1)CO)O)O)O)O)O)C)C)C

>  <PUBCHEM_CACTVS_TPSA>
320

>  <PUBCHEM_MONOISOTOPIC_WEIGHT>
1017.551

>  <PUBCHEM_TOTAL_CHARGE>
0

>  <PUBCHEM_HEAVY_ATOM_COUNT>
71

>  <PUBCHEM_ATOM_DEF_STEREO_COUNT>
0

>  <PUBCHEM_ATOM_UDEF_STEREO_COUNT>
31

>  <PUBCHEM_BOND_DEF_STEREO_COUNT>
0

>  <PUBCHEM_BOND_UDEF_STEREO_COUNT>
0

>  <PUBCHEM_ISOTOPIC_ATOM_COUNT>
0

>  <PUBCHEM_COMPONENT_COUNT>
1

>  <PUBCHEM_CACTVS_TAUTO_COUNT>
1

>  <PUBCHEM_COORDINATE_TYPE>
1
5
255

>  <PUBCHEM_BONDANNOTATIONS>
47  1  3
49  1  3
59  10  3
63  14  3
64  15  3
65  16  3
67  17  3
68  18  3
70  19  3
22  36  3
23  28  3
24  29  3
25  28  3
26  34  3
27  33  3
29  41  3
50  3  3
31  43  3
32  40  3
35  42  3
51  4  3
44  48  3
53  5  3
55  5  3
52  54  3
58  60  3
66  71  3
56  8  3
61  8  3
57  9  3
62  9  3

$$$$
