45085262
 OpenBabel06101807152D

 22 22  0  0  1  0  0  0  0  0999 V2000
    5.1043    1.2730    0.0000 O   0  0  0  0  0  0  0  0  0  0  0  0
    2.8090   -0.6530    0.0000 N   0  0  0  0  0  0  0  0  0  0  0  0
    3.6180   -0.0652    0.0000 C   0  0  3  0  0  0  0  0  0  0  0  0
    3.3090    0.8858    0.0000 C   0  0  0  0  0  0  0  0  0  0  0  0
    2.3090    0.8858    0.0000 C   0  0  0  0  0  0  0  0  0  0  0  0
    2.0000   -0.0652    0.0000 C   0  0  0  0  0  0  0  0  0  0  0  0
    4.5691   -0.3743    0.0000 C   0  0  0  0  0  0  0  0  0  0  0  0
    5.3122    0.2949    0.0000 C   0  0  0  0  0  0  0  0  0  0  0  0
    6.2633   -0.0141    0.0000 C   0  0  0  0  0  0  0  0  0  0  0  0
    3.7150   -0.6776    0.0000 H   0  0  0  0  0  0  0  0  0  0  0  0
    3.9155    1.0147    0.0000 H   0  0  0  0  0  0  0  0  0  0  0  0
    3.2442    1.5024    0.0000 H   0  0  0  0  0  0  0  0  0  0  0  0
    2.3738    1.5024    0.0000 H   0  0  0  0  0  0  0  0  0  0  0  0
    1.7026    1.0147    0.0000 H   0  0  0  0  0  0  0  0  0  0  0  0
    1.4336    0.1869    0.0000 H   0  0  0  0  0  0  0  0  0  0  0  0
    1.6900   -0.6022    0.0000 H   0  0  0  0  0  0  0  0  0  0  0  0
    2.8090   -1.2730    0.0000 H   0  0  0  0  0  0  0  0  0  0  0  0
    4.2780   -0.9217    0.0000 H   0  0  0  0  0  0  0  0  0  0  0  0
    5.0577   -0.7560    0.0000 H   0  0  0  0  0  0  0  0  0  0  0  0
    6.0717   -0.6038    0.0000 H   0  0  0  0  0  0  0  0  0  0  0  0
    6.8530   -0.2057    0.0000 H   0  0  0  0  0  0  0  0  0  0  0  0
    6.4549    0.5755    0.0000 H   0  0  0  0  0  0  0  0  0  0  0  0
  1  8  2  0  0  0  0
  2  3  1  0  0  0  0
  2  6  1  0  0  0  0
  2 17  1  0  0  0  0
  3  4  1  0  0  0  0
  3  7  1  0  0  0  0
  3 10  1  0  0  0  0
  4  5  1  0  0  0  0
  4 11  1  0  0  0  0
  4 12  1  0  0  0  0
  5  6  1  0  0  0  0
  5 13  1  0  0  0  0
  5 14  1  0  0  0  0
  6 15  1  0  0  0  0
  6 16  1  0  0  0  0
  7  8  1  0  0  0  0
  7 18  1  0  0  0  0
  7 19  1  0  0  0  0
  8  9  1  0  0  0  0
  9 20  1  0  0  0  0
  9 21  1  0  0  0  0
  9 22  1  0  0  0  0
M  END
>  <PUBCHEM_COMPOUND_CID>
45085262

>  <PUBCHEM_COMPOUND_CANONICALIZED>
1

>  <PUBCHEM_CACTVS_COMPLEXITY>
112

>  <PUBCHEM_CACTVS_HBOND_ACCEPTOR>
2

>  <PUBCHEM_CACTVS_HBOND_DONOR>
1

>  <PUBCHEM_CACTVS_ROTATABLE_BOND>
2

>  <PUBCHEM_CACTVS_SUBSKEYS>
AAADccBiIAAAAAAAAAAAAAAAAAAAAWAAAAAAAAAAAAAAAAAAAAAAHgAQAAAACCzBgAQCAALAAAAIAIAQAAAAAAAAAAAAAIEIAAAAABoAgAAEAAAAEACAAAEYiAAAAAAAAAAAAAAAAAAAAAAAAAAAAAAAAA==

>  <PUBCHEM_IUPAC_OPENEYE_NAME>
1-pyrrolidin-2-ylpropan-2-one

>  <PUBCHEM_IUPAC_CAS_NAME>
1-(2-pyrrolidinyl)-2-propanone

>  <PUBCHEM_IUPAC_NAME>
1-pyrrolidin-2-ylpropan-2-one

>  <PUBCHEM_IUPAC_SYSTEMATIC_NAME>
1-pyrrolidin-2-ylpropan-2-one

>  <PUBCHEM_IUPAC_TRADITIONAL_NAME>
1-pyrrolidin-2-ylacetone

>  <PUBCHEM_IUPAC_INCHI>
InChI=1S/C7H13NO/c1-6(9)5-7-3-2-4-8-7/h7-8H,2-5H2,1H3

>  <PUBCHEM_IUPAC_INCHIKEY>
ZAJDAGLJUKMNJL-UHFFFAOYSA-N

>  <PUBCHEM_XLOGP3_AA>
0

>  <PUBCHEM_EXACT_MASS>
127.1

>  <PUBCHEM_MOLECULAR_FORMULA>
C7H13NO

>  <PUBCHEM_MOLECULAR_WEIGHT>
127.187

>  <PUBCHEM_OPENEYE_CAN_SMILES>
CC(=O)CC1CCCN1

>  <PUBCHEM_OPENEYE_ISO_SMILES>
CC(=O)CC1CCCN1

>  <PUBCHEM_CACTVS_TPSA>
29.1

>  <PUBCHEM_MONOISOTOPIC_WEIGHT>
127.1

>  <PUBCHEM_TOTAL_CHARGE>
0

>  <PUBCHEM_HEAVY_ATOM_COUNT>
9

>  <PUBCHEM_ATOM_DEF_STEREO_COUNT>
0

>  <PUBCHEM_ATOM_UDEF_STEREO_COUNT>
1

>  <PUBCHEM_BOND_DEF_STEREO_COUNT>
0

>  <PUBCHEM_BOND_UDEF_STEREO_COUNT>
0

>  <PUBCHEM_ISOTOPIC_ATOM_COUNT>
0

>  <PUBCHEM_COMPONENT_COUNT>
1

>  <PUBCHEM_CACTVS_TAUTO_COUNT>
3

>  <PUBCHEM_COORDINATE_TYPE>
1
5
255

>  <PUBCHEM_BONDANNOTATIONS>
3  7  3

$$$$
