45359757
 OpenBabel06101807152D

 32 32  0  0  1  0  0  0  0  0999 V2000
    4.5981    1.3450    0.0000 O   0  0  0  0  0  0  0  0  0  0  0  0
    5.4641    3.8450    0.0000 O   0  0  0  0  0  0  0  0  0  0  0  0
    2.8660    4.3450    0.0000 O   0  0  0  0  0  0  0  0  0  0  0  0
    6.3301    2.3450    0.0000 O   0  0  0  0  0  0  0  0  0  0  0  0
    4.5981    4.3450    0.0000 O   0  0  0  0  0  0  0  0  0  0  0  0
    2.8660    1.3450    0.0000 O   0  0  0  0  0  0  0  0  0  0  0  0
    2.8660   -4.6550    0.0000 O   0  0  0  0  0  0  0  0  0  0  0  0
    4.5981    2.3450    0.0000 C   0  0  3  0  0  0  0  0  0  0  0  0
    3.7320    2.8450    0.0000 C   0  0  0  0  0  0  0  0  0  0  0  0
    5.4641    2.8450    0.0000 C   0  0  0  0  0  0  0  0  0  0  0  0
    2.8660   -1.6550    0.0000 C   0  0  0  0  0  0  0  0  0  0  0  0
    3.7320    3.8450    0.0000 C   0  0  0  0  0  0  0  0  0  0  0  0
    3.7320    0.8450    0.0000 C   0  0  0  0  0  0  0  0  0  0  0  0
    2.8660   -0.6550    0.0000 C   0  0  0  0  0  0  0  0  0  0  0  0
    3.7320   -0.1550    0.0000 C   0  0  0  0  0  0  0  0  0  0  0  0
    2.0000   -2.1550    0.0000 C   0  0  0  0  0  0  0  0  0  0  0  0
    3.7320   -2.1550    0.0000 C   0  0  0  0  0  0  0  0  0  0  0  0
    2.0000   -3.1550    0.0000 C   0  0  0  0  0  0  0  0  0  0  0  0
    3.7320   -3.1550    0.0000 C   0  0  0  0  0  0  0  0  0  0  0  0
    2.8660   -3.6550    0.0000 C   0  0  0  0  0  0  0  0  0  0  0  0
    5.1350    2.0350    0.0000 H   0  0  0  0  0  0  0  0  0  0  0  0
    3.1215    2.9527    0.0000 H   0  0  0  0  0  0  0  0  0  0  0  0
    3.5200    2.2624    0.0000 H   0  0  0  0  0  0  0  0  0  0  0  0
    2.3291   -0.3450    0.0000 H   0  0  0  0  0  0  0  0  0  0  0  0
    4.2690   -0.4650    0.0000 H   0  0  0  0  0  0  0  0  0  0  0  0
    1.4631   -1.8450    0.0000 H   0  0  0  0  0  0  0  0  0  0  0  0
    4.2690   -1.8450    0.0000 H   0  0  0  0  0  0  0  0  0  0  0  0
    1.4631   -3.4650    0.0000 H   0  0  0  0  0  0  0  0  0  0  0  0
    4.2690   -3.4650    0.0000 H   0  0  0  0  0  0  0  0  0  0  0  0
    6.0010    4.1550    0.0000 H   0  0  0  0  0  0  0  0  0  0  0  0
    2.8660    4.9650    0.0000 H   0  0  0  0  0  0  0  0  0  0  0  0
    2.3291   -4.9650    0.0000 H   0  0  0  0  0  0  0  0  0  0  0  0
  1  8  1  0  0  0  0
  1 13  1  0  0  0  0
  2 10  1  0  0  0  0
  2 30  1  0  0  0  0
  3 12  1  0  0  0  0
  3 31  1  0  0  0  0
  4 10  2  0  0  0  0
  5 12  2  0  0  0  0
  6 13  2  0  0  0  0
  7 20  1  0  0  0  0
  7 32  1  0  0  0  0
  8  9  1  0  0  0  0
  8 10  1  0  0  0  0
  8 21  1  0  0  0  0
  9 12  1  0  0  0  0
  9 22  1  0  0  0  0
  9 23  1  0  0  0  0
 11 14  1  0  0  0  0
 11 16  2  0  0  0  0
 11 17  1  0  0  0  0
 13 15  1  0  0  0  0
 14 15  2  0  0  0  0
 14 24  1  0  0  0  0
 15 25  1  0  0  0  0
 16 18  1  0  0  0  0
 16 26  1  0  0  0  0
 17 19  2  0  0  0  0
 17 27  1  0  0  0  0
 18 20  2  0  0  0  0
 18 28  1  0  0  0  0
 19 20  1  0  0  0  0
 19 29  1  0  0  0  0
M  END
>  <PUBCHEM_COMPOUND_CID>
45359757

>  <PUBCHEM_COMPOUND_CANONICALIZED>
1

>  <PUBCHEM_CACTVS_COMPLEXITY>
394

>  <PUBCHEM_CACTVS_HBOND_ACCEPTOR>
7

>  <PUBCHEM_CACTVS_HBOND_DONOR>
3

>  <PUBCHEM_CACTVS_ROTATABLE_BOND>
7

>  <PUBCHEM_CACTVS_SUBSKEYS>
AAADccBwOAAAAAAAAAAAAAAAAAAAAAAAAAAwAAAAAAAAAAABAAAAGgAACAAADBSgmAIwDoAABgCIAiDSCAICAAAgIAAIiAFGCMgJJjaCMRaCcAAl4BELuYfDwAAOIAAAAAAAAABAAAAAAAAAAAAAAAAAAA==

>  <PUBCHEM_IUPAC_OPENEYE_NAME>
2-[(E)-3-(4-hydroxyphenyl)prop-2-enoyl]oxybutanedioic acid

>  <PUBCHEM_IUPAC_CAS_NAME>
2-[(E)-3-(4-hydroxyphenyl)-1-oxoprop-2-enoxy]butanedioic acid

>  <PUBCHEM_IUPAC_NAME>
2-[(E)-3-(4-hydroxyphenyl)prop-2-enoyl]oxybutanedioic acid

>  <PUBCHEM_IUPAC_SYSTEMATIC_NAME>
2-[(E)-3-(4-hydroxyphenyl)prop-2-enoyl]oxybutanedioic acid

>  <PUBCHEM_IUPAC_TRADITIONAL_NAME>
2-[(E)-3-(4-hydroxyphenyl)acryloyl]oxysuccinic acid

>  <PUBCHEM_IUPAC_INCHI>
InChI=1S/C13H12O7/c14-9-4-1-8(2-5-9)3-6-12(17)20-10(13(18)19)7-11(15)16/h1-6,10,14H,7H2,(H,15,16)(H,18,19)/b6-3+

>  <PUBCHEM_IUPAC_INCHIKEY>
QVPHNABUSKBIMG-ZZXKWVIFSA-N

>  <PUBCHEM_XLOGP3_AA>
1

>  <PUBCHEM_EXACT_MASS>
280.058

>  <PUBCHEM_MOLECULAR_FORMULA>
C13H12O7

>  <PUBCHEM_MOLECULAR_WEIGHT>
280.232

>  <PUBCHEM_OPENEYE_CAN_SMILES>
C1=CC(=CC=C1C=CC(=O)OC(CC(=O)O)C(=O)O)O

>  <PUBCHEM_OPENEYE_ISO_SMILES>
C1=CC(=CC=C1/C=C/C(=O)OC(CC(=O)O)C(=O)O)O

>  <PUBCHEM_CACTVS_TPSA>
121

>  <PUBCHEM_MONOISOTOPIC_WEIGHT>
280.058

>  <PUBCHEM_TOTAL_CHARGE>
0

>  <PUBCHEM_HEAVY_ATOM_COUNT>
20

>  <PUBCHEM_ATOM_DEF_STEREO_COUNT>
0

>  <PUBCHEM_ATOM_UDEF_STEREO_COUNT>
1

>  <PUBCHEM_BOND_DEF_STEREO_COUNT>
1

>  <PUBCHEM_BOND_UDEF_STEREO_COUNT>
0

>  <PUBCHEM_ISOTOPIC_ATOM_COUNT>
0

>  <PUBCHEM_COMPONENT_COUNT>
1

>  <PUBCHEM_CACTVS_TAUTO_COUNT>
4

>  <PUBCHEM_COORDINATE_TYPE>
1
5
255

>  <PUBCHEM_BONDANNOTATIONS>
11  16  8
11  17  8
16  18  8
17  19  8
18  20  8
19  20  8
8  9  3

$$$$
