457732
 OpenBabel06101807152D

 26 28  0  0  0  0  0  0  0  0999 V2000
    4.6660    1.9827    0.0000 O   0  0  0  0  0  0  0  0  0  0  0  0
    4.6660   -2.0173    0.0000 O   0  0  0  0  0  0  0  0  0  0  0  0
    6.4260   -1.0520    0.0000 N   0  0  0  0  0  0  0  0  0  0  0  0
    5.5321    0.4827    0.0000 C   0  0  0  0  0  0  0  0  0  0  0  0
    3.8000    0.4827    0.0000 C   0  0  0  0  0  0  0  0  0  0  0  0
    3.8000   -0.5173    0.0000 C   0  0  0  0  0  0  0  0  0  0  0  0
    5.5321   -0.5173    0.0000 C   0  0  0  0  0  0  0  0  0  0  0  0
    4.6660    0.9827    0.0000 C   0  0  0  0  0  0  0  0  0  0  0  0
    6.4260    1.0174    0.0000 C   0  0  0  0  0  0  0  0  0  0  0  0
    4.6660   -1.0173    0.0000 C   0  0  0  0  0  0  0  0  0  0  0  0
    2.9061    1.0174    0.0000 C   0  0  0  0  0  0  0  0  0  0  0  0
    2.9061   -1.0520    0.0000 C   0  0  0  0  0  0  0  0  0  0  0  0
    7.3321    0.5035    0.0000 C   0  0  0  0  0  0  0  0  0  0  0  0
    6.4144    2.0173    0.0000 C   0  0  0  0  0  0  0  0  0  0  0  0
    2.0000    0.5035    0.0000 C   0  0  0  0  0  0  0  0  0  0  0  0
    7.3321   -0.5381    0.0000 C   0  0  0  0  0  0  0  0  0  0  0  0
    2.0000   -0.5381    0.0000 C   0  0  0  0  0  0  0  0  0  0  0  0
    2.9132    1.6373    0.0000 H   0  0  0  0  0  0  0  0  0  0  0  0
    2.9132   -1.6719    0.0000 H   0  0  0  0  0  0  0  0  0  0  0  0
    7.8678    0.8156    0.0000 H   0  0  0  0  0  0  0  0  0  0  0  0
    7.0344    2.0245    0.0000 H   0  0  0  0  0  0  0  0  0  0  0  0
    6.4073    2.6373    0.0000 H   0  0  0  0  0  0  0  0  0  0  0  0
    5.7945    2.0101    0.0000 H   0  0  0  0  0  0  0  0  0  0  0  0
    7.8678   -0.8502    0.0000 H   0  0  0  0  0  0  0  0  0  0  0  0
    1.4643    0.8156    0.0000 H   0  0  0  0  0  0  0  0  0  0  0  0
    1.4643   -0.8502    0.0000 H   0  0  0  0  0  0  0  0  0  0  0  0
  1  8  2  0  0  0  0
  2 10  2  0  0  0  0
  3  7  2  0  0  0  0
  3 16  1  0  0  0  0
  4  7  1  0  0  0  0
  4  8  1  0  0  0  0
  4  9  2  0  0  0  0
  5  6  1  0  0  0  0
  5  8  1  0  0  0  0
  5 11  2  0  0  0  0
  6 10  1  0  0  0  0
  6 12  2  0  0  0  0
  7 10  1  0  0  0  0
  9 13  1  0  0  0  0
  9 14  1  0  0  0  0
 11 15  1  0  0  0  0
 11 18  1  0  0  0  0
 12 17  1  0  0  0  0
 12 19  1  0  0  0  0
 13 16  2  0  0  0  0
 13 20  1  0  0  0  0
 14 21  1  0  0  0  0
 14 22  1  0  0  0  0
 14 23  1  0  0  0  0
 15 17  2  0  0  0  0
 15 25  1  0  0  0  0
 16 24  1  0  0  0  0
 17 26  1  0  0  0  0
M  END
>  <PUBCHEM_COMPOUND_CID>
457732

>  <PUBCHEM_COMPOUND_CANONICALIZED>
1

>  <PUBCHEM_CACTVS_COMPLEXITY>
352

>  <PUBCHEM_CACTVS_HBOND_ACCEPTOR>
3

>  <PUBCHEM_CACTVS_HBOND_DONOR>
0

>  <PUBCHEM_CACTVS_ROTATABLE_BOND>
0

>  <PUBCHEM_CACTVS_SUBSKEYS>
AAADccByMAAAAAAAAAAAAAAAAAAAAAAAAAA8YIAAAAAAAADxwAAAHgAAAAAADAzBngQ+gJIIEACoA7R3RACCgCA3AiAI2CG4ZNgIIHrAlbGEIYhggADIyccZicCegAAAAAAQAACQAASAACQAAAAAAAAAAA==

>  <PUBCHEM_IUPAC_OPENEYE_NAME>
4-methylbenzo[g]quinoline-5,10-dione

>  <PUBCHEM_IUPAC_CAS_NAME>
4-methylbenzo[g]quinoline-5,10-dione

>  <PUBCHEM_IUPAC_NAME>
4-methylbenzo[g]quinoline-5,10-dione

>  <PUBCHEM_IUPAC_SYSTEMATIC_NAME>
4-methylbenzo[g]quinoline-5,10-dione

>  <PUBCHEM_IUPAC_TRADITIONAL_NAME>
4-methylbenzo[g]quinoline-5,10-quinone

>  <PUBCHEM_IUPAC_INCHI>
InChI=1S/C14H9NO2/c1-8-6-7-15-12-11(8)13(16)9-4-2-3-5-10(9)14(12)17/h2-7H,1H3

>  <PUBCHEM_IUPAC_INCHIKEY>
GVRYUHXXENMGEV-UHFFFAOYSA-N

>  <PUBCHEM_XLOGP3_AA>
2.5

>  <PUBCHEM_EXACT_MASS>
223.063

>  <PUBCHEM_MOLECULAR_FORMULA>
C14H9NO2

>  <PUBCHEM_MOLECULAR_WEIGHT>
223.231

>  <PUBCHEM_OPENEYE_CAN_SMILES>
CC1=C2C(=NC=C1)C(=O)C3=CC=CC=C3C2=O

>  <PUBCHEM_OPENEYE_ISO_SMILES>
CC1=C2C(=NC=C1)C(=O)C3=CC=CC=C3C2=O

>  <PUBCHEM_CACTVS_TPSA>
47

>  <PUBCHEM_MONOISOTOPIC_WEIGHT>
223.063

>  <PUBCHEM_TOTAL_CHARGE>
0

>  <PUBCHEM_HEAVY_ATOM_COUNT>
17

>  <PUBCHEM_ATOM_DEF_STEREO_COUNT>
0

>  <PUBCHEM_ATOM_UDEF_STEREO_COUNT>
0

>  <PUBCHEM_BOND_DEF_STEREO_COUNT>
0

>  <PUBCHEM_BOND_UDEF_STEREO_COUNT>
0

>  <PUBCHEM_ISOTOPIC_ATOM_COUNT>
0

>  <PUBCHEM_COMPONENT_COUNT>
1

>  <PUBCHEM_CACTVS_TAUTO_COUNT>
1

>  <PUBCHEM_COORDINATE_TYPE>
1
5
255

>  <PUBCHEM_BONDANNOTATIONS>
11  15  8
12  17  8
13  16  8
15  17  8
3  16  8
3  7  8
4  7  8
4  9  8
5  11  8
5  6  8
6  12  8
9  13  8

$$$$
