4582575
 OpenBabel06101807152D

108112  0  0  1  0  0  0  0  0999 V2000
   13.7953    2.7306    0.0000 O   0  0  0  0  0  0  0  0  0  0  0  0
   12.7953    3.7306    0.0000 O   0  0  0  0  0  0  0  0  0  0  0  0
   12.0632    2.7306    0.0000 O   0  0  0  0  0  0  0  0  0  0  0  0
    7.7331    2.2306    0.0000 O   0  0  0  0  0  0  0  0  0  0  0  0
    9.4651    2.2306    0.0000 O   0  0  0  0  0  0  0  0  0  0  0  0
   15.0553    4.9906    0.0000 O   0  0  0  0  0  0  0  0  0  0  0  0
    5.1350   -0.2694    0.0000 O   0  0  0  0  0  0  0  0  0  0  0  0
   13.2953    6.2694    0.0000 O   0  0  0  0  0  0  0  0  0  0  0  0
    6.0010    1.2306    0.0000 O   0  0  0  0  0  0  0  0  0  0  0  0
   13.7953    0.7306    0.0000 O   0  0  0  0  0  0  0  0  0  0  0  0
   10.3312    0.7306    0.0000 O   0  0  0  0  0  0  0  0  0  0  0  0
   12.0632   -0.2694    0.0000 O   0  0  0  0  0  0  0  0  0  0  0  0
    5.1350   -2.2694    0.0000 O   0  0  0  0  0  0  0  0  0  0  0  0
   15.4895    4.0907    0.0000 O   0  0  0  0  0  0  0  0  0  0  0  0
    6.0010   -3.7694    0.0000 O   0  0  0  0  0  0  0  0  0  0  0  0
    6.0010    4.2306    0.0000 O   0  0  0  0  0  0  0  0  0  0  0  0
    7.7331    5.2306    0.0000 O   0  0  0  0  0  0  0  0  0  0  0  0
    9.4651    4.2306    0.0000 O   0  0  0  0  0  0  0  0  0  0  0  0
    2.5369   -0.7694    0.0000 O   0  0  0  0  0  0  0  0  0  0  0  0
    2.5369    1.2306    0.0000 O   0  0  0  0  0  0  0  0  0  0  0  0
    4.2690    2.2306    0.0000 O   0  0  0  0  0  0  0  0  0  0  0  0
   11.3273    5.9688    0.0000 O   0  0  0  0  0  0  0  0  0  0  0  0
    3.4030   -3.2694    0.0000 O   0  0  0  0  0  0  0  0  0  0  0  0
    3.4030   -5.2694    0.0000 O   0  0  0  0  0  0  0  0  0  0  0  0
    5.1350   -6.2694    0.0000 O   0  0  0  0  0  0  0  0  0  0  0  0
    6.8671   -6.2694    0.0000 O   0  0  0  0  0  0  0  0  0  0  0  0
   13.7953    3.7306    0.0000 C   0  0  3  0  0  0  0  0  0  0  0  0
   14.1043    4.6816    0.0000 C   0  0  3  0  0  0  0  0  0  0  0  0
   13.2953    5.2694    0.0000 C   0  0  3  0  0  0  0  0  0  0  0  0
   12.9292    2.2306    0.0000 C   0  0  3  0  0  0  0  0  0  0  0  0
   12.4862    4.6816    0.0000 C   0  0  3  0  0  0  0  0  0  0  0  0
   11.1972    2.2306    0.0000 C   0  0  3  0  0  0  0  0  0  0  0  0
   12.9292    1.2306    0.0000 C   0  0  3  0  0  0  0  0  0  0  0  0
   11.1972    1.2306    0.0000 C   0  0  3  0  0  0  0  0  0  0  0  0
   12.0632    0.7306    0.0000 C   0  0  3  0  0  0  0  0  0  0  0  0
   14.7463    3.4216    0.0000 C   0  0  0  0  0  0  0  0  0  0  0  0
    6.8671    2.7306    0.0000 C   0  0  3  0  0  0  0  0  0  0  0  0
   10.3312    2.7306    0.0000 C   0  0  0  0  0  0  0  0  0  0  0  0
    6.8671    3.7306    0.0000 C   0  0  3  0  0  0  0  0  0  0  0  0
    8.5991    2.7306    0.0000 C   0  0  3  0  0  0  0  0  0  0  0  0
    7.7331    4.2306    0.0000 C   0  0  3  0  0  0  0  0  0  0  0  0
    8.5991    3.7306    0.0000 C   0  0  3  0  0  0  0  0  0  0  0  0
    4.2690   -0.7694    0.0000 C   0  0  3  0  0  0  0  0  0  0  0  0
    3.4030   -0.2694    0.0000 C   0  0  3  0  0  0  0  0  0  0  0  0
    3.4030    0.7306    0.0000 C   0  0  3  0  0  0  0  0  0  0  0  0
    5.1350    0.7306    0.0000 C   0  0  3  0  0  0  0  0  0  0  0  0
   11.5352    4.9906    0.0000 C   0  0  0  0  0  0  0  0  0  0  0  0
    4.2690    1.2306    0.0000 C   0  0  3  0  0  0  0  0  0  0  0  0
    6.0010    2.2306    0.0000 C   0  0  0  0  0  0  0  0  0  0  0  0
    4.2690   -1.7694    0.0000 C   0  0  0  0  0  0  0  0  0  0  0  0
    5.1350   -3.2694    0.0000 C   0  0  3  0  0  0  0  0  0  0  0  0
    4.2690   -3.7694    0.0000 C   0  0  3  0  0  0  0  0  0  0  0  0
    4.2690   -4.7694    0.0000 C   0  0  3  0  0  0  0  0  0  0  0  0
    5.1350   -5.2694    0.0000 C   0  0  3  0  0  0  0  0  0  0  0  0
    6.0010   -4.7694    0.0000 C   0  0  3  0  0  0  0  0  0  0  0  0
    6.8671   -5.2694    0.0000 C   0  0  0  0  0  0  0  0  0  0  0  0
   14.7053    4.0806    0.0000 H   0  0  0  0  0  0  0  0  0  0  0  0
   14.0526    5.6553    0.0000 H   0  0  0  0  0  0  0  0  0  0  0  0
   13.6654    1.8056    0.0000 H   0  0  0  0  0  0  0  0  0  0  0  0
   11.8852    4.0806    0.0000 H   0  0  0  0  0  0  0  0  0  0  0  0
   11.1972    3.0806    0.0000 H   0  0  0  0  0  0  0  0  0  0  0  0
   12.9292    0.3806    0.0000 H   0  0  0  0  0  0  0  0  0  0  0  0
   10.4611    1.6556    0.0000 H   0  0  0  0  0  0  0  0  0  0  0  0
   11.3271    0.3056    0.0000 H   0  0  0  0  0  0  0  0  0  0  0  0
   14.4552    2.8741    0.0000 H   0  0  0  0  0  0  0  0  0  0  0  0
   15.2349    3.0398    0.0000 H   0  0  0  0  0  0  0  0  0  0  0  0
    6.8671    1.8806    0.0000 H   0  0  0  0  0  0  0  0  0  0  0  0
   10.7297    3.2055    0.0000 H   0  0  0  0  0  0  0  0  0  0  0  0
    9.9326    3.2055    0.0000 H   0  0  0  0  0  0  0  0  0  0  0  0
    6.8671    4.5806    0.0000 H   0  0  0  0  0  0  0  0  0  0  0  0
    8.5991    1.8806    0.0000 H   0  0  0  0  0  0  0  0  0  0  0  0
    8.4692    4.6556    0.0000 H   0  0  0  0  0  0  0  0  0  0  0  0
    9.3352    3.3056    0.0000 H   0  0  0  0  0  0  0  0  0  0  0  0
    5.0051   -1.1944    0.0000 H   0  0  0  0  0  0  0  0  0  0  0  0
    3.4030   -1.1194    0.0000 H   0  0  0  0  0  0  0  0  0  0  0  0
    3.4030    1.5806    0.0000 H   0  0  0  0  0  0  0  0  0  0  0  0
    5.1350    1.5806    0.0000 H   0  0  0  0  0  0  0  0  0  0  0  0
    3.5329    1.6556    0.0000 H   0  0  0  0  0  0  0  0  0  0  0  0
   10.9156    4.9690    0.0000 H   0  0  0  0  0  0  0  0  0  0  0  0
   11.4489    4.3767    0.0000 H   0  0  0  0  0  0  0  0  0  0  0  0
    5.7890    2.8132    0.0000 H   0  0  0  0  0  0  0  0  0  0  0  0
    5.3905    2.1229    0.0000 H   0  0  0  0  0  0  0  0  0  0  0  0
   15.1842    5.5971    0.0000 H   0  0  0  0  0  0  0  0  0  0  0  0
    3.6584   -1.6618    0.0000 H   0  0  0  0  0  0  0  0  0  0  0  0
    4.0569   -2.3520    0.0000 H   0  0  0  0  0  0  0  0  0  0  0  0
    4.3989   -2.8444    0.0000 H   0  0  0  0  0  0  0  0  0  0  0  0
   13.8322    6.5794    0.0000 H   0  0  0  0  0  0  0  0  0  0  0  0
    5.0051   -4.1944    0.0000 H   0  0  0  0  0  0  0  0  0  0  0  0
    4.2690   -5.6194    0.0000 H   0  0  0  0  0  0  0  0  0  0  0  0
    5.8711   -5.6944    0.0000 H   0  0  0  0  0  0  0  0  0  0  0  0
   13.7953    0.1106    0.0000 H   0  0  0  0  0  0  0  0  0  0  0  0
    6.7372   -4.3444    0.0000 H   0  0  0  0  0  0  0  0  0  0  0  0
   10.3312    0.1106    0.0000 H   0  0  0  0  0  0  0  0  0  0  0  0
   11.5263   -0.5794    0.0000 H   0  0  0  0  0  0  0  0  0  0  0  0
   16.0791    3.8991    0.0000 H   0  0  0  0  0  0  0  0  0  0  0  0
    5.4641    3.9206    0.0000 H   0  0  0  0  0  0  0  0  0  0  0  0
    7.1962    5.5406    0.0000 H   0  0  0  0  0  0  0  0  0  0  0  0
    9.4651    4.8506    0.0000 H   0  0  0  0  0  0  0  0  0  0  0  0
    2.5369   -1.3894    0.0000 H   0  0  0  0  0  0  0  0  0  0  0  0
    2.0000    0.9206    0.0000 H   0  0  0  0  0  0  0  0  0  0  0  0
    3.7320    2.5406    0.0000 H   0  0  0  0  0  0  0  0  0  0  0  0
   10.7376    6.1604    0.0000 H   0  0  0  0  0  0  0  0  0  0  0  0
    7.4776   -5.3771    0.0000 H   0  0  0  0  0  0  0  0  0  0  0  0
    7.0791   -4.6868    0.0000 H   0  0  0  0  0  0  0  0  0  0  0  0
    2.8660   -3.5794    0.0000 H   0  0  0  0  0  0  0  0  0  0  0  0
    3.4030   -5.8894    0.0000 H   0  0  0  0  0  0  0  0  0  0  0  0
    4.5981   -6.5794    0.0000 H   0  0  0  0  0  0  0  0  0  0  0  0
    7.4040   -6.5794    0.0000 H   0  0  0  0  0  0  0  0  0  0  0  0
  1 27  1  0  0  0  0
  1 30  1  0  0  0  0
  2 27  1  0  0  0  0
  2 31  1  0  0  0  0
  3 30  1  0  0  0  0
  3 32  1  0  0  0  0
  4 37  1  0  0  0  0
  4 40  1  0  0  0  0
  5 38  1  0  0  0  0
  5 40  1  0  0  0  0
  6 28  1  0  0  0  0
  6 83  1  0  0  0  0
  7 43  1  0  0  0  0
  7 46  1  0  0  0  0
  8 29  1  0  0  0  0
  8 87  1  0  0  0  0
  9 46  1  0  0  0  0
  9 49  1  0  0  0  0
 10 33  1  0  0  0  0
 10 91  1  0  0  0  0
 11 34  1  0  0  0  0
 11 93  1  0  0  0  0
 12 35  1  0  0  0  0
 12 94  1  0  0  0  0
 13 50  1  0  0  0  0
 13 51  1  0  0  0  0
 14 36  1  0  0  0  0
 14 95  1  0  0  0  0
 15 51  1  0  0  0  0
 15 55  1  0  0  0  0
 16 39  1  0  0  0  0
 16 96  1  0  0  0  0
 17 41  1  0  0  0  0
 17 97  1  0  0  0  0
 18 42  1  0  0  0  0
 18 98  1  0  0  0  0
 19 44  1  0  0  0  0
 19 99  1  0  0  0  0
 20 45  1  0  0  0  0
 20100  1  0  0  0  0
 21 48  1  0  0  0  0
 21101  1  0  0  0  0
 22 47  1  0  0  0  0
 22102  1  0  0  0  0
 23 52  1  0  0  0  0
 23105  1  0  0  0  0
 24 53  1  0  0  0  0
 24106  1  0  0  0  0
 25 54  1  0  0  0  0
 25107  1  0  0  0  0
 26 56  1  0  0  0  0
 26108  1  0  0  0  0
 27 28  1  0  0  0  0
 27 36  1  0  0  0  0
 28 29  1  0  0  0  0
 28 57  1  0  0  0  0
 29 31  1  0  0  0  0
 29 58  1  0  0  0  0
 30 33  1  0  0  0  0
 30 59  1  0  0  0  0
 31 47  1  0  0  0  0
 31 60  1  0  0  0  0
 32 34  1  0  0  0  0
 32 38  1  0  0  0  0
 32 61  1  0  0  0  0
 33 35  1  0  0  0  0
 33 62  1  0  0  0  0
 34 35  1  0  0  0  0
 34 63  1  0  0  0  0
 35 64  1  0  0  0  0
 36 65  1  0  0  0  0
 36 66  1  0  0  0  0
 37 39  1  0  0  0  0
 37 49  1  0  0  0  0
 37 67  1  0  0  0  0
 38 68  1  0  0  0  0
 38 69  1  0  0  0  0
 39 41  1  0  0  0  0
 39 70  1  0  0  0  0
 40 42  1  0  0  0  0
 40 71  1  0  0  0  0
 41 42  1  0  0  0  0
 41 72  1  0  0  0  0
 42 73  1  0  0  0  0
 43 44  1  0  0  0  0
 43 50  1  0  0  0  0
 43 74  1  0  0  0  0
 44 45  1  0  0  0  0
 44 75  1  0  0  0  0
 45 48  1  0  0  0  0
 45 76  1  0  0  0  0
 46 48  1  0  0  0  0
 46 77  1  0  0  0  0
 47 79  1  0  0  0  0
 47 80  1  0  0  0  0
 48 78  1  0  0  0  0
 49 81  1  0  0  0  0
 49 82  1  0  0  0  0
 50 84  1  0  0  0  0
 50 85  1  0  0  0  0
 51 52  1  0  0  0  0
 51 86  1  0  0  0  0
 52 53  1  0  0  0  0
 52 88  1  0  0  0  0
 53 54  1  0  0  0  0
 53 89  1  0  0  0  0
 54 55  1  0  0  0  0
 54 90  1  0  0  0  0
 55 56  1  0  0  0  0
 55 92  1  0  0  0  0
 56103  1  0  0  0  0
 56104  1  0  0  0  0
M  END
>  <PUBCHEM_COMPOUND_CID>
4582575

>  <PUBCHEM_COMPOUND_CANONICALIZED>
1

>  <PUBCHEM_CACTVS_COMPLEXITY>
1220

>  <PUBCHEM_CACTVS_HBOND_ACCEPTOR>
26

>  <PUBCHEM_CACTVS_HBOND_DONOR>
17

>  <PUBCHEM_CACTVS_ROTATABLE_BOND>
14

>  <PUBCHEM_CACTVS_SUBSKEYS>
AAADcfB4PgAAAAAAAAAAAAAAAAAAASAAAAAkSJEgAAAAAAAAAAAAGgAACAAACBSwgAMACAAABgAAAAAAAAAAAAAAAAAAAAAAAAAREAIAAAAiQAAFAAAHAAHAYAwAAAAAAAAAAAAAAAAAAAAAAAAAAAAAAA==

>  <PUBCHEM_IUPAC_OPENEYE_NAME>
2-[[6-[[6-[[6-[3,4-dihydroxy-2,5-bis(hydroxymethyl)tetrahydrofuran-2-yl]oxy-3,4,5-trihydroxy-tetrahydropyran-2-yl]methoxy]-3,4,5-trihydroxy-tetrahydropyran-2-yl]methoxy]-3,4,5-trihydroxy-tetrahydropyran-2-yl]methoxy]-6-(hydroxymethyl)tetrahydropyran-3,4,5-triol

>  <PUBCHEM_IUPAC_CAS_NAME>
2-[[6-[[6-[[6-[[3,4-dihydroxy-2,5-bis(hydroxymethyl)-2-oxolanyl]oxy]-3,4,5-trihydroxy-2-oxanyl]methoxy]-3,4,5-trihydroxy-2-oxanyl]methoxy]-3,4,5-trihydroxy-2-oxanyl]methoxy]-6-(hydroxymethyl)oxane-3,4,5-triol

>  <PUBCHEM_IUPAC_NAME>
2-[[6-[[6-[[6-[3,4-dihydroxy-2,5-bis(hydroxymethyl)oxolan-2-yl]oxy-3,4,5-trihydroxyoxan-2-yl]methoxy]-3,4,5-trihydroxyoxan-2-yl]methoxy]-3,4,5-trihydroxyoxan-2-yl]methoxy]-6-(hydroxymethyl)oxane-3,4,5-triol

>  <PUBCHEM_IUPAC_SYSTEMATIC_NAME>
2-[[6-[[6-[[6-[2,5-bis(hydroxymethyl)-3,4-bis(oxidanyl)oxolan-2-yl]oxy-3,4,5-tris(oxidanyl)oxan-2-yl]methoxy]-3,4,5-tris(oxidanyl)oxan-2-yl]methoxy]-3,4,5-tris(oxidanyl)oxan-2-yl]methoxy]-6-(hydroxymethyl)oxane-3,4,5-triol

>  <PUBCHEM_IUPAC_TRADITIONAL_NAME>
2-[[6-[[6-[[6-(3,4-dihydroxy-2,5-dimethylol-tetrahydrofuran-2-yl)oxy-3,4,5-trihydroxy-tetrahydropyran-2-yl]methoxy]-3,4,5-trihydroxy-tetrahydropyran-2-yl]methoxy]-3,4,5-trihydroxy-tetrahydropyran-2-yl]methoxy]-6-methylol-tetrahydropyran-3,4,5-triol

>  <PUBCHEM_IUPAC_INCHI>
InChI=1S/C30H52O26/c31-1-7-12(34)17(39)21(43)26(51-7)48-3-9-13(35)18(40)22(44)27(52-9)49-4-10-14(36)19(41)23(45)28(53-10)50-5-11-15(37)20(42)24(46)29(54-11)56-30(6-33)25(47)16(38)8(2-32)55-30/h7-29,31-47H,1-6H2

>  <PUBCHEM_IUPAC_INCHIKEY>
FLUADVWHMHPUCG-UHFFFAOYSA-N

>  <PUBCHEM_XLOGP3>
-10.1

>  <PUBCHEM_EXACT_MASS>
828.275

>  <PUBCHEM_MOLECULAR_FORMULA>
C30H52O26

>  <PUBCHEM_MOLECULAR_WEIGHT>
828.72

>  <PUBCHEM_OPENEYE_CAN_SMILES>
C(C1C(C(C(C(O1)OCC2C(C(C(C(O2)OCC3C(C(C(C(O3)OCC4C(C(C(C(O4)OC5(C(C(C(O5)CO)O)O)CO)O)O)O)O)O)O)O)O)O)O)O)O)O

>  <PUBCHEM_OPENEYE_ISO_SMILES>
C(C1C(C(C(C(O1)OCC2C(C(C(C(O2)OCC3C(C(C(C(O3)OCC4C(C(C(C(O4)OC5(C(C(C(O5)CO)O)O)CO)O)O)O)O)O)O)O)O)O)O)O)O)O

>  <PUBCHEM_CACTVS_TPSA>
427

>  <PUBCHEM_MONOISOTOPIC_WEIGHT>
828.275

>  <PUBCHEM_TOTAL_CHARGE>
0

>  <PUBCHEM_HEAVY_ATOM_COUNT>
56

>  <PUBCHEM_ATOM_DEF_STEREO_COUNT>
0

>  <PUBCHEM_ATOM_UDEF_STEREO_COUNT>
24

>  <PUBCHEM_BOND_DEF_STEREO_COUNT>
0

>  <PUBCHEM_BOND_UDEF_STEREO_COUNT>
0

>  <PUBCHEM_ISOTOPIC_ATOM_COUNT>
0

>  <PUBCHEM_COMPONENT_COUNT>
1

>  <PUBCHEM_CACTVS_TAUTO_COUNT>
1

>  <PUBCHEM_COORDINATE_TYPE>
1
5
255

>  <PUBCHEM_BONDANNOTATIONS>
27  36  3
28  57  3
29  58  3
30  59  3
31  60  3
32  61  3
33  62  3
34  63  3
35  64  3
37  67  3
39  70  3
40  71  3
41  72  3
42  73  3
43  74  3
44  75  3
45  76  3
46  77  3
48  78  3
51  86  3
52  88  3
53  89  3
54  90  3
55  92  3

$$$$
