46187191
 OpenBabel06101807152D

 41 43  0  0  0  0  0  0  0  0999 V2000
    3.9061    1.5000    0.0000 O   0  0  0  0  0  0  0  0  0  0  0  0
    2.1359   -0.5588    0.0000 O   0  0  0  0  0  0  0  0  0  0  0  0
    7.3981   -0.5346    0.0000 O   0  0  0  0  0  0  0  0  0  0  0  0
    6.5320   -2.0346    0.0000 O   0  0  0  0  0  0  0  0  0  0  0  0
    4.8000   -2.0346    0.0000 O   0  0  0  0  0  0  0  0  0  0  0  0
    3.0000    0.9862    0.0000 C   0  0  0  0  0  0  0  0  0  0  0  0
    4.8000    0.9654    0.0000 C   0  0  0  0  0  0  0  0  0  0  0  0
    4.8000   -0.0346    0.0000 C   0  0  0  0  0  0  0  0  0  0  0  0
    3.0000   -0.0554    0.0000 C   0  0  0  0  0  0  0  0  0  0  0  0
    5.6660    1.4654    0.0000 C   0  0  0  0  0  0  0  0  0  0  0  0
    3.9061   -0.5693    0.0000 C   0  0  0  0  0  0  0  0  0  0  0  0
    2.0000    0.9900    0.0000 C   0  0  0  0  0  0  0  0  0  0  0  0
    2.5033    1.8541    0.0000 C   0  0  0  0  0  0  0  0  0  0  0  0
    5.6660   -0.5346    0.0000 C   0  0  0  0  0  0  0  0  0  0  0  0
    6.5320    0.9654    0.0000 C   0  0  0  0  0  0  0  0  0  0  0  0
    6.5320   -0.0346    0.0000 C   0  0  0  0  0  0  0  0  0  0  0  0
    5.6500    2.5069    0.0000 C   0  0  0  0  0  0  0  0  0  0  0  0
    7.4420    1.4722    0.0000 C   0  0  0  0  0  0  0  0  0  0  0  0
    5.6660   -1.5346    0.0000 C   0  0  0  0  0  0  0  0  0  0  0  0
    6.5480    3.0346    0.0000 C   0  0  0  0  0  0  0  0  0  0  0  0
    7.4501    2.5138    0.0000 C   0  0  0  0  0  0  0  0  0  0  0  0
    2.1398   -1.5588    0.0000 C   0  0  0  0  0  0  0  0  0  0  0  0
    6.5320   -3.0346    0.0000 C   0  0  0  0  0  0  0  0  0  0  0  0
    3.9132   -1.1892    0.0000 H   0  0  0  0  0  0  0  0  0  0  0  0
    2.0024    1.6100    0.0000 H   0  0  0  0  0  0  0  0  0  0  0  0
    3.0415    2.1621    0.0000 H   0  0  0  0  0  0  0  0  0  0  0  0
    2.1954    2.3923    0.0000 H   0  0  0  0  0  0  0  0  0  0  0  0
    1.9652    1.5462    0.0000 H   0  0  0  0  0  0  0  0  0  0  0  0
    1.3800    0.9924    0.0000 H   0  0  0  0  0  0  0  0  0  0  0  0
    1.9976    0.3700    0.0000 H   0  0  0  0  0  0  0  0  0  0  0  0
    5.1095    2.8106    0.0000 H   0  0  0  0  0  0  0  0  0  0  0  0
    7.9754    1.1560    0.0000 H   0  0  0  0  0  0  0  0  0  0  0  0
    6.5456    3.6546    0.0000 H   0  0  0  0  0  0  0  0  0  0  0  0
    7.9882    2.8217    0.0000 H   0  0  0  0  0  0  0  0  0  0  0  0
    1.5198   -1.5612    0.0000 H   0  0  0  0  0  0  0  0  0  0  0  0
    2.1422   -2.1788    0.0000 H   0  0  0  0  0  0  0  0  0  0  0  0
    2.7598   -1.5564    0.0000 H   0  0  0  0  0  0  0  0  0  0  0  0
    7.9350   -0.2246    0.0000 H   0  0  0  0  0  0  0  0  0  0  0  0
    5.9120   -3.0346    0.0000 H   0  0  0  0  0  0  0  0  0  0  0  0
    6.5320   -3.6546    0.0000 H   0  0  0  0  0  0  0  0  0  0  0  0
    7.1520   -3.0346    0.0000 H   0  0  0  0  0  0  0  0  0  0  0  0
  1  6  1  0  0  0  0
  1  7  1  0  0  0  0
  2  9  1  0  0  0  0
  2 22  1  0  0  0  0
  3 16  1  0  0  0  0
  3 38  1  0  0  0  0
  4 19  1  0  0  0  0
  4 23  1  0  0  0  0
  5 19  2  0  0  0  0
  6  9  1  0  0  0  0
  6 12  1  0  0  0  0
  6 13  1  0  0  0  0
  7  8  2  0  0  0  0
  7 10  1  0  0  0  0
  8 11  1  0  0  0  0
  8 14  1  0  0  0  0
  9 11  2  0  0  0  0
 10 15  1  0  0  0  0
 10 17  2  0  0  0  0
 11 24  1  0  0  0  0
 12 25  1  0  0  0  0
 12 29  1  0  0  0  0
 12 30  1  0  0  0  0
 13 26  1  0  0  0  0
 13 27  1  0  0  0  0
 13 28  1  0  0  0  0
 14 16  2  0  0  0  0
 14 19  1  0  0  0  0
 15 16  1  0  0  0  0
 15 18  2  0  0  0  0
 17 20  1  0  0  0  0
 17 31  1  0  0  0  0
 18 21  1  0  0  0  0
 18 32  1  0  0  0  0
 20 21  2  0  0  0  0
 20 33  1  0  0  0  0
 21 34  1  0  0  0  0
 22 35  1  0  0  0  0
 22 36  1  0  0  0  0
 22 37  1  0  0  0  0
 23 39  1  0  0  0  0
 23 40  1  0  0  0  0
 23 41  1  0  0  0  0
M  END
>  <PUBCHEM_COMPOUND_CID>
46187191

>  <PUBCHEM_COMPOUND_CANONICALIZED>
1

>  <PUBCHEM_CACTVS_COMPLEXITY>
498

>  <PUBCHEM_CACTVS_HBOND_ACCEPTOR>
5

>  <PUBCHEM_CACTVS_HBOND_DONOR>
1

>  <PUBCHEM_CACTVS_ROTATABLE_BOND>
3

>  <PUBCHEM_CACTVS_SUBSKEYS>
AAADceB4OAAAAAAAAAAAAAAAAAAAAAAAAAAwYIAAAAAAAADBUAAAGgAACAAADESAmAIyDsAABgCIAiDSCAACCAAkIAAIiAEECMgNJzaGNRqCeWCl4BEKuQfKyPCOwQADAAAYAACCAAYAADAAAAAAAAAAAA==

>  <PUBCHEM_IUPAC_OPENEYE_NAME>
methyl 6-hydroxy-3-methoxy-2,2-dimethyl-benzo[h]chromene-5-carboxylate

>  <PUBCHEM_IUPAC_CAS_NAME>
6-hydroxy-3-methoxy-2,2-dimethyl-5-benzo[h][1]benzopyrancarboxylic acid methyl ester

>  <PUBCHEM_IUPAC_NAME>
methyl 6-hydroxy-3-methoxy-2,2-dimethylbenzo[h]chromene-5-carboxylate

>  <PUBCHEM_IUPAC_SYSTEMATIC_NAME>
methyl 3-methoxy-2,2-dimethyl-6-oxidanyl-benzo[h]chromene-5-carboxylate

>  <PUBCHEM_IUPAC_TRADITIONAL_NAME>
6-hydroxy-3-methoxy-2,2-dimethyl-benzo[h]chromene-5-carboxylic acid methyl ester

>  <PUBCHEM_IUPAC_INCHI>
InChI=1S/C18H18O5/c1-18(2)13(21-3)9-12-14(17(20)22-4)15(19)10-7-5-6-8-11(10)16(12)23-18/h5-9,19H,1-4H3

>  <PUBCHEM_IUPAC_INCHIKEY>
OCQKAHAAVZGZPO-UHFFFAOYSA-N

>  <PUBCHEM_XLOGP3_AA>
3.8

>  <PUBCHEM_EXACT_MASS>
314.115

>  <PUBCHEM_MOLECULAR_FORMULA>
C18H18O5

>  <PUBCHEM_MOLECULAR_WEIGHT>
314.337

>  <PUBCHEM_OPENEYE_CAN_SMILES>
CC1(C(=CC2=C(O1)C3=CC=CC=C3C(=C2C(=O)OC)O)OC)C

>  <PUBCHEM_OPENEYE_ISO_SMILES>
CC1(C(=CC2=C(O1)C3=CC=CC=C3C(=C2C(=O)OC)O)OC)C

>  <PUBCHEM_CACTVS_TPSA>
65

>  <PUBCHEM_MONOISOTOPIC_WEIGHT>
314.115

>  <PUBCHEM_TOTAL_CHARGE>
0

>  <PUBCHEM_HEAVY_ATOM_COUNT>
23

>  <PUBCHEM_ATOM_DEF_STEREO_COUNT>
0

>  <PUBCHEM_ATOM_UDEF_STEREO_COUNT>
0

>  <PUBCHEM_BOND_DEF_STEREO_COUNT>
0

>  <PUBCHEM_BOND_UDEF_STEREO_COUNT>
0

>  <PUBCHEM_ISOTOPIC_ATOM_COUNT>
0

>  <PUBCHEM_COMPONENT_COUNT>
1

>  <PUBCHEM_CACTVS_TAUTO_COUNT>
3

>  <PUBCHEM_COORDINATE_TYPE>
1
5
255

>  <PUBCHEM_BONDANNOTATIONS>
10  15  8
10  17  8
14  16  8
15  16  8
15  18  8
17  20  8
18  21  8
20  21  8
7  10  8
7  8  8
8  14  8

$$$$
