46842526
 OpenBabel06101807152D

 29 30  0  0  1  0  0  0  0  0999 V2000
    5.9150   -0.3239    0.0000 S   0  0  0  0  0  0  0  0  0  0  0  0
    8.4841    0.5426    0.0000 S   0  0  0  0  0  0  0  0  0  0  0  0
    3.9470   -1.0233    0.0000 O   0  0  0  0  0  0  0  0  0  0  0  0
    2.4608    0.3149    0.0000 O   0  0  0  0  0  0  0  0  0  0  0  0
    4.1550   -0.0452    0.0000 C   0  0  3  0  0  0  0  0  0  0  0  0
    5.1060    0.2638    0.0000 C   0  0  0  0  0  0  0  0  0  0  0  0
    6.7240    0.2638    0.0000 C   0  0  0  0  0  0  0  0  0  0  0  0
    5.4150    1.2149    0.0000 C   0  0  0  0  0  0  0  0  0  0  0  0
    6.4150    1.2149    0.0000 C   0  0  0  0  0  0  0  0  0  0  0  0
    3.4118    0.6240    0.0000 C   0  0  0  0  0  0  0  0  0  0  0  0
    7.6751   -0.0452    0.0000 C   0  0  0  0  0  0  0  0  0  0  0  0
    7.9841   -0.9962    0.0000 C   0  0  0  0  0  0  0  0  0  0  0  0
    8.9841   -0.9962    0.0000 C   0  0  0  0  0  0  0  0  0  0  0  0
    9.2931   -0.0452    0.0000 C   0  0  0  0  0  0  0  0  0  0  0  0
   10.2442    0.2638    0.0000 C   0  0  0  0  0  0  0  0  0  0  0  0
   11.1952    0.5729    0.0000 C   0  0  0  0  0  0  0  0  0  0  0  0
   12.1463    0.8819    0.0000 C   0  0  0  0  0  0  0  0  0  0  0  0
    4.6157   -0.4600    0.0000 H   0  0  0  0  0  0  0  0  0  0  0  0
    5.0506    1.7165    0.0000 H   0  0  0  0  0  0  0  0  0  0  0  0
    6.7794    1.7165    0.0000 H   0  0  0  0  0  0  0  0  0  0  0  0
    3.9004    1.0057    0.0000 H   0  0  0  0  0  0  0  0  0  0  0  0
    3.1207    1.1714    0.0000 H   0  0  0  0  0  0  0  0  0  0  0  0
    7.6197   -1.4978    0.0000 H   0  0  0  0  0  0  0  0  0  0  0  0
    9.3485   -1.4978    0.0000 H   0  0  0  0  0  0  0  0  0  0  0  0
    3.3574   -1.2149    0.0000 H   0  0  0  0  0  0  0  0  0  0  0  0
    2.0000    0.7298    0.0000 H   0  0  0  0  0  0  0  0  0  0  0  0
   12.3379    0.2922    0.0000 H   0  0  0  0  0  0  0  0  0  0  0  0
   12.7360    1.0735    0.0000 H   0  0  0  0  0  0  0  0  0  0  0  0
   11.9547    1.4715    0.0000 H   0  0  0  0  0  0  0  0  0  0  0  0
  1  6  1  0  0  0  0
  1  7  1  0  0  0  0
  2 11  1  0  0  0  0
  2 14  1  0  0  0  0
  3  5  1  0  0  0  0
  3 25  1  0  0  0  0
  4 10  1  0  0  0  0
  4 26  1  0  0  0  0
  5  6  1  0  0  0  0
  5 10  1  0  0  0  0
  5 18  1  0  0  0  0
  6  8  2  0  0  0  0
  7  9  2  0  0  0  0
  7 11  1  0  0  0  0
  8  9  1  0  0  0  0
  8 19  1  0  0  0  0
  9 20  1  0  0  0  0
 10 21  1  0  0  0  0
 10 22  1  0  0  0  0
 11 12  2  0  0  0  0
 12 13  1  0  0  0  0
 12 23  1  0  0  0  0
 13 14  2  0  0  0  0
 13 24  1  0  0  0  0
 14 15  1  0  0  0  0
 15 16  3  0  0  0  0
 16 17  1  0  0  0  0
 17 27  1  0  0  0  0
 17 28  1  0  0  0  0
 17 29  1  0  0  0  0
M  END
>  <PUBCHEM_COMPOUND_CID>
46842526

>  <PUBCHEM_COMPOUND_CANONICALIZED>
1

>  <PUBCHEM_CACTVS_COMPLEXITY>
320

>  <PUBCHEM_CACTVS_HBOND_ACCEPTOR>
4

>  <PUBCHEM_CACTVS_HBOND_DONOR>
2

>  <PUBCHEM_CACTVS_ROTATABLE_BOND>
4

>  <PUBCHEM_CACTVS_SUBSKEYS>
AAADccBwMABgAAAAAAAAAAAAAAAAASJAAAAAAAAAAAAAAAAB4AAAGgQACAAACBSg0AIyAYAAAgjEECBCAAgDAIAgCBBIiBgACIgJNiKgERCAcAAkwAEpmAeAwKAAAAAAAAAAAAAAAAAAAAAAAAAAAAAAAA==

>  <PUBCHEM_IUPAC_OPENEYE_NAME>
1-[5-(5-prop-1-ynyl-2-thienyl)-2-thienyl]ethane-1,2-diol

>  <PUBCHEM_IUPAC_CAS_NAME>
1-[5-(5-prop-1-ynyl-2-thiophenyl)-2-thiophenyl]ethane-1,2-diol

>  <PUBCHEM_IUPAC_NAME>
1-[5-(5-prop-1-ynylthiophen-2-yl)thiophen-2-yl]ethane-1,2-diol

>  <PUBCHEM_IUPAC_SYSTEMATIC_NAME>
1-[5-(5-prop-1-ynylthiophen-2-yl)thiophen-2-yl]ethane-1,2-diol

>  <PUBCHEM_IUPAC_TRADITIONAL_NAME>
1-[5-(5-prop-1-ynyl-2-thienyl)-2-thienyl]ethane-1,2-diol

>  <PUBCHEM_IUPAC_INCHI>
InChI=1S/C13H12O2S2/c1-2-3-9-4-5-12(16-9)13-7-6-11(17-13)10(15)8-14/h4-7,10,14-15H,8H2,1H3

>  <PUBCHEM_IUPAC_INCHIKEY>
RVVLUQPXASICPK-UHFFFAOYSA-N

>  <PUBCHEM_XLOGP3_AA>
2.3

>  <PUBCHEM_EXACT_MASS>
264.028

>  <PUBCHEM_MOLECULAR_FORMULA>
C13H12O2S2

>  <PUBCHEM_MOLECULAR_WEIGHT>
264.357

>  <PUBCHEM_OPENEYE_CAN_SMILES>
CC#CC1=CC=C(S1)C2=CC=C(S2)C(CO)O

>  <PUBCHEM_OPENEYE_ISO_SMILES>
CC#CC1=CC=C(S1)C2=CC=C(S2)C(CO)O

>  <PUBCHEM_CACTVS_TPSA>
96.9

>  <PUBCHEM_MONOISOTOPIC_WEIGHT>
264.028

>  <PUBCHEM_TOTAL_CHARGE>
0

>  <PUBCHEM_HEAVY_ATOM_COUNT>
17

>  <PUBCHEM_ATOM_DEF_STEREO_COUNT>
0

>  <PUBCHEM_ATOM_UDEF_STEREO_COUNT>
1

>  <PUBCHEM_BOND_DEF_STEREO_COUNT>
0

>  <PUBCHEM_BOND_UDEF_STEREO_COUNT>
0

>  <PUBCHEM_ISOTOPIC_ATOM_COUNT>
0

>  <PUBCHEM_COMPONENT_COUNT>
1

>  <PUBCHEM_CACTVS_TAUTO_COUNT>
1

>  <PUBCHEM_COORDINATE_TYPE>
1
5
255

>  <PUBCHEM_BONDANNOTATIONS>
1  6  8
1  7  8
11  12  8
12  13  8
13  14  8
2  11  8
2  14  8
5  3  3
6  8  8
7  9  8
8  9  8

$$$$
