470665
 OpenBabel06101807152D

 79 83  0  0  1  0  0  0  0  0999 V2000
    2.0000   -2.5933    0.0000 O   0  0  0  0  0  0  0  0  0  0  0  0
   10.9251    0.4932    0.0000 O   0  0  0  0  0  0  0  0  0  0  0  0
   10.0707   -1.0134    0.0000 O   0  0  0  0  0  0  0  0  0  0  0  0
    6.5271   -1.0410    0.0000 C   0  0  2  0  0  0  0  0  0  0  0  0
    5.6610   -0.5410    0.0000 C   0  0  3  0  0  0  0  0  0  0  0  0
    7.3931   -0.5410    0.0000 C   0  0  1  0  0  0  0  0  0  0  0  0
    4.7510   -1.0478    0.0000 C   0  0  2  0  0  0  0  0  0  0  0  0
    4.7430   -2.0894    0.0000 C   0  0  3  0  0  0  0  0  0  0  0  0
    6.5431   -2.0825    0.0000 C   0  0  0  0  0  0  0  0  0  0  0  0
    7.3931    0.4590    0.0000 C   0  0  0  0  0  0  0  0  0  0  0  0
    8.2870    0.9937    0.0000 C   0  0  3  0  0  0  0  0  0  0  0  0
    5.6451   -2.6102    0.0000 C   0  0  0  0  0  0  0  0  0  0  0  0
    8.2870   -1.0756    0.0000 C   0  0  0  0  0  0  0  0  0  0  0  0
    9.1931    0.4799    0.0000 C   0  0  1  0  0  0  0  0  0  0  0  0
    5.6610    0.4590    0.0000 C   0  0  0  0  0  0  0  0  0  0  0  0
    3.8076   -2.6391    0.0000 C   0  0  0  0  0  0  0  0  0  0  0  0
    3.8242   -0.4837    0.0000 C   0  0  0  0  0  0  0  0  0  0  0  0
    9.1931   -0.5618    0.0000 C   0  0  0  0  0  0  0  0  0  0  0  0
    7.1698   -1.8070    0.0000 C   0  0  0  0  0  0  0  0  0  0  0  0
    6.5271    0.9590    0.0000 C   0  0  0  0  0  0  0  0  0  0  0  0
    7.7352   -1.4806    0.0000 C   0  0  0  0  0  0  0  0  0  0  0  0
    4.7587   -0.0478    0.0000 C   0  0  0  0  0  0  0  0  0  0  0  0
    8.2619    2.0784    0.0000 C   0  0  0  0  0  0  0  0  0  0  0  0
   10.1369    1.0151    0.0000 C   0  0  0  0  0  0  0  0  0  0  0  0
    9.1931    2.6353    0.0000 C   0  0  0  0  0  0  0  0  0  0  0  0
    2.8763   -1.0117    0.0000 C   0  0  0  0  0  0  0  0  0  0  0  0
    2.8680   -2.0966    0.0000 C   0  0  0  0  0  0  0  0  0  0  0  0
   10.1369    2.1001    0.0000 C   0  0  0  0  0  0  0  0  0  0  0  0
    3.3109   -3.5071    0.0000 C   0  0  0  0  0  0  0  0  0  0  0  0
    4.3109   -3.5032    0.0000 C   0  0  0  0  0  0  0  0  0  0  0  0
   10.0629   -0.0135    0.0000 C   0  0  0  0  0  0  0  0  0  0  0  0
    9.6830    3.5071    0.0000 C   0  0  0  0  0  0  0  0  0  0  0  0
    8.6831    3.4955    0.0000 C   0  0  0  0  0  0  0  0  0  0  0  0
    6.3972   -0.1160    0.0000 H   0  0  0  0  0  0  0  0  0  0  0  0
    4.7463   -2.9394    0.0000 H   0  0  0  0  0  0  0  0  0  0  0  0
    6.7612   -2.6629    0.0000 H   0  0  0  0  0  0  0  0  0  0  0  0
    7.1523   -1.9670    0.0000 H   0  0  0  0  0  0  0  0  0  0  0  0
    9.0165    1.4300    0.0000 H   0  0  0  0  0  0  0  0  0  0  0  0
    5.2478   -3.0862    0.0000 H   0  0  0  0  0  0  0  0  0  0  0  0
    6.0460   -3.0831    0.0000 H   0  0  0  0  0  0  0  0  0  0  0  0
    7.8824   -1.5454    0.0000 H   0  0  0  0  0  0  0  0  0  0  0  0
    8.6806   -1.5546    0.0000 H   0  0  0  0  0  0  0  0  0  0  0  0
    5.4490    1.0416    0.0000 H   0  0  0  0  0  0  0  0  0  0  0  0
    5.0504    0.3514    0.0000 H   0  0  0  0  0  0  0  0  0  0  0  0
    4.2324   -0.0171    0.0000 H   0  0  0  0  0  0  0  0  0  0  0  0
    3.4343   -0.0017    0.0000 H   0  0  0  0  0  0  0  0  0  0  0  0
    9.4022   -1.1455    0.0000 H   0  0  0  0  0  0  0  0  0  0  0  0
    9.8040   -0.4557    0.0000 H   0  0  0  0  0  0  0  0  0  0  0  0
    6.6949   -2.2055    0.0000 H   0  0  0  0  0  0  0  0  0  0  0  0
    7.5684   -2.2820    0.0000 H   0  0  0  0  0  0  0  0  0  0  0  0
    7.6448   -1.4085    0.0000 H   0  0  0  0  0  0  0  0  0  0  0  0
    6.5271    1.5790    0.0000 H   0  0  0  0  0  0  0  0  0  0  0  0
    7.1526   -1.6927    0.0000 H   0  0  0  0  0  0  0  0  0  0  0  0
    7.9473   -2.0632    0.0000 H   0  0  0  0  0  0  0  0  0  0  0  0
    8.3178   -1.2685    0.0000 H   0  0  0  0  0  0  0  0  0  0  0  0
    5.3787   -0.0526    0.0000 H   0  0  0  0  0  0  0  0  0  0  0  0
    4.7635    0.5721    0.0000 H   0  0  0  0  0  0  0  0  0  0  0  0
    4.1388   -0.0431    0.0000 H   0  0  0  0  0  0  0  0  0  0  0  0
    8.0394    2.6571    0.0000 H   0  0  0  0  0  0  0  0  0  0  0  0
    7.6537    1.9582    0.0000 H   0  0  0  0  0  0  0  0  0  0  0  0
   10.3459    0.4314    0.0000 H   0  0  0  0  0  0  0  0  0  0  0  0
   10.7477    1.1212    0.0000 H   0  0  0  0  0  0  0  0  0  0  0  0
    2.6718   -0.4264    0.0000 H   0  0  0  0  0  0  0  0  0  0  0  0
    2.2647   -1.1131    0.0000 H   0  0  0  0  0  0  0  0  0  0  0  0
   10.7477    1.9940    0.0000 H   0  0  0  0  0  0  0  0  0  0  0  0
   10.3459    2.6838    0.0000 H   0  0  0  0  0  0  0  0  0  0  0  0
    2.7728   -3.1992    0.0000 H   0  0  0  0  0  0  0  0  0  0  0  0
    3.7752   -3.8153    0.0000 H   0  0  0  0  0  0  0  0  0  0  0  0
    4.6230   -4.0390    0.0000 H   0  0  0  0  0  0  0  0  0  0  0  0
    4.8466   -3.1912    0.0000 H   0  0  0  0  0  0  0  0  0  0  0  0
    3.0030   -4.0452    0.0000 H   0  0  0  0  0  0  0  0  0  0  0  0
    3.8490   -3.8150    0.0000 H   0  0  0  0  0  0  0  0  0  0  0  0
    9.2164    3.8117    0.0000 H   0  0  0  0  0  0  0  0  0  0  0  0
    8.3669    4.0288    0.0000 H   0  0  0  0  0  0  0  0  0  0  0  0
    8.1498    3.1793    0.0000 H   0  0  0  0  0  0  0  0  0  0  0  0
   10.2235    3.2033    0.0000 H   0  0  0  0  0  0  0  0  0  0  0  0
    9.9868    4.0476    0.0000 H   0  0  0  0  0  0  0  0  0  0  0  0
    9.1426    3.8108    0.0000 H   0  0  0  0  0  0  0  0  0  0  0  0
   11.4644    0.1874    0.0000 H   0  0  0  0  0  0  0  0  0  0  0  0
  1 27  2  0  0  0  0
  2 31  1  0  0  0  0
  2 79  1  0  0  0  0
  3 31  2  0  0  0  0
  4  5  1  1  0  0  0
  4  9  1  0  0  0  0
  4 19  1  0  0  0  0
  5 15  1  0  0  0  0
  5 34  1  0  0  0  0
  6  4  1  1  0  0  0
  6 10  1  0  0  0  0
  6 13  1  0  0  0  0
  6 21  1  0  0  0  0
  7  5  1  6  0  0  0
  7  8  1  0  0  0  0
  7 17  1  0  0  0  0
  7 22  1  0  0  0  0
  8 12  1  0  0  0  0
  8 16  1  0  0  0  0
  8 35  1  0  0  0  0
  9 12  1  0  0  0  0
  9 36  1  0  0  0  0
  9 37  1  0  0  0  0
 10 11  1  0  0  0  0
 10 20  2  0  0  0  0
 11 23  1  0  0  0  0
 11 38  1  0  0  0  0
 12 39  1  0  0  0  0
 12 40  1  0  0  0  0
 13 18  1  0  0  0  0
 13 41  1  0  0  0  0
 13 42  1  0  0  0  0
 14 11  1  1  0  0  0
 14 18  1  0  0  0  0
 14 24  1  0  0  0  0
 14 31  1  0  0  0  0
 15 20  1  0  0  0  0
 15 43  1  0  0  0  0
 15 44  1  0  0  0  0
 16 27  1  0  0  0  0
 16 29  1  0  0  0  0
 16 30  1  0  0  0  0
 17 26  1  0  0  0  0
 17 45  1  0  0  0  0
 17 46  1  0  0  0  0
 18 47  1  0  0  0  0
 18 48  1  0  0  0  0
 19 49  1  0  0  0  0
 19 50  1  0  0  0  0
 19 51  1  0  0  0  0
 20 52  1  0  0  0  0
 21 53  1  0  0  0  0
 21 54  1  0  0  0  0
 21 55  1  0  0  0  0
 22 56  1  0  0  0  0
 22 57  1  0  0  0  0
 22 58  1  0  0  0  0
 23 25  1  0  0  0  0
 23 59  1  0  0  0  0
 23 60  1  0  0  0  0
 24 28  1  0  0  0  0
 24 61  1  0  0  0  0
 24 62  1  0  0  0  0
 25 28  1  0  0  0  0
 25 32  1  0  0  0  0
 25 33  1  0  0  0  0
 26 27  1  0  0  0  0
 26 63  1  0  0  0  0
 26 64  1  0  0  0  0
 28 65  1  0  0  0  0
 28 66  1  0  0  0  0
 29 67  1  0  0  0  0
 29 71  1  0  0  0  0
 29 72  1  0  0  0  0
 30 68  1  0  0  0  0
 30 69  1  0  0  0  0
 30 70  1  0  0  0  0
 32 76  1  0  0  0  0
 32 77  1  0  0  0  0
 32 78  1  0  0  0  0
 33 73  1  0  0  0  0
 33 74  1  0  0  0  0
 33 75  1  0  0  0  0
M  END
>  <PUBCHEM_COMPOUND_CID>
470665

>  <PUBCHEM_COMPOUND_CANONICALIZED>
1

>  <PUBCHEM_CACTVS_COMPLEXITY>
927

>  <PUBCHEM_CACTVS_HBOND_ACCEPTOR>
3

>  <PUBCHEM_CACTVS_HBOND_DONOR>
1

>  <PUBCHEM_CACTVS_ROTATABLE_BOND>
1

>  <PUBCHEM_CACTVS_SUBSKEYS>
AAADcfB4MAAAAAAAAAAAAAAAAAAAAAAAAAAwYMGCAAAAAADAAAAAGgAACAAADwSAgAACCAAAAgCIAqDSCAAAAAAgAAAACAEAAAgAABIAAQAAQAAEgAAIAAOIyPCPgAAAAAAAAACAAAQAACAAAAAAAAAAAA==

>  <PUBCHEM_IUPAC_OPENEYE_NAME>
(4aS,6aS,6bR,12aR)-2,2,6a,6b,9,9,12a-heptamethyl-10-oxo-3,4,5,6,6a,7,8,8a,11,12,13,14b-dodecahydro-1H-picene-4a-carboxylic acid

>  <PUBCHEM_IUPAC_CAS_NAME>
(4aS,6aS,6bR,12aR)-2,2,6a,6b,9,9,12a-heptamethyl-10-oxo-3,4,5,6,6a,7,8,8a,11,12,13,14b-dodecahydro-1H-picene-4a-carboxylic acid

>  <PUBCHEM_IUPAC_NAME>
(4aS,6aS,6bR,12aR)-2,2,6a,6b,9,9,12a-heptamethyl-10-oxo-3,4,5,6,6a,7,8,8a,11,12,13,14b-dodecahydro-1H-picene-4a-carboxylic acid

>  <PUBCHEM_IUPAC_SYSTEMATIC_NAME>
(4aS,6aS,6bR,12aR)-2,2,6a,6b,9,9,12a-heptamethyl-10-oxidanylidene-3,4,5,6,6a,7,8,8a,11,12,13,14b-dodecahydro-1H-picene-4a-carboxylic acid

>  <PUBCHEM_IUPAC_TRADITIONAL_NAME>
(4aS,6aS,6bR,12aR)-10-keto-2,2,6a,6b,9,9,12a-heptamethyl-3,4,5,6,6a,7,8,8a,11,12,13,14b-dodecahydro-1H-picene-4a-carboxylic acid

>  <PUBCHEM_IUPAC_INCHI>
InChI=1S/C30H46O3/c1-25(2)14-16-30(24(32)33)17-15-28(6)19(20(30)18-25)8-9-22-27(5)12-11-23(31)26(3,4)21(27)10-13-29(22,28)7/h8,20-22H,9-18H2,1-7H3,(H,32,33)/t20?,21?,22?,27-,28+,29+,30-/m0/s1

>  <PUBCHEM_IUPAC_INCHIKEY>
FMIMFCRXYXVFTA-YUVMXPMLSA-N

>  <PUBCHEM_XLOGP3_AA>
7.2

>  <PUBCHEM_EXACT_MASS>
454.345

>  <PUBCHEM_MOLECULAR_FORMULA>
C30H46O3

>  <PUBCHEM_MOLECULAR_WEIGHT>
454.695

>  <PUBCHEM_OPENEYE_CAN_SMILES>
CC1(CCC2(CCC3(C(=CCC4C3(CCC5C4(CCC(=O)C5(C)C)C)C)C2C1)C)C(=O)O)C

>  <PUBCHEM_OPENEYE_ISO_SMILES>
C[C@]12CCC(=O)C(C1CC[C@@]3(C2CC=C4[C@]3(CC[C@@]5(C4CC(CC5)(C)C)C(=O)O)C)C)(C)C

>  <PUBCHEM_CACTVS_TPSA>
54.4

>  <PUBCHEM_MONOISOTOPIC_WEIGHT>
454.345

>  <PUBCHEM_TOTAL_CHARGE>
0

>  <PUBCHEM_HEAVY_ATOM_COUNT>
33

>  <PUBCHEM_ATOM_DEF_STEREO_COUNT>
4

>  <PUBCHEM_ATOM_UDEF_STEREO_COUNT>
3

>  <PUBCHEM_BOND_DEF_STEREO_COUNT>
0

>  <PUBCHEM_BOND_UDEF_STEREO_COUNT>
0

>  <PUBCHEM_ISOTOPIC_ATOM_COUNT>
0

>  <PUBCHEM_COMPONENT_COUNT>
1

>  <PUBCHEM_CACTVS_TAUTO_COUNT>
2

>  <PUBCHEM_COORDINATE_TYPE>
1
5
255

>  <PUBCHEM_BONDANNOTATIONS>
11  38  3
14  31  5
4  19  5
5  34  3
6  21  6
7  22  5
8  35  3

$$$$
