471119
 OpenBabel06101807152D

 67 70  0  0  1  0  0  0  0  0999 V2000
    8.0522   -0.7633    0.0000 O   0  0  0  0  0  0  0  0  0  0  0  0
    6.9520   -2.2922    0.0000 O   0  0  0  0  0  0  0  0  0  0  0  0
    9.7769   -2.8541    0.0000 O   0  0  0  0  0  0  0  0  0  0  0  0
    9.5181   -0.4740    0.0000 O   0  0  0  0  0  0  0  0  0  0  0  0
    9.3176   -3.4771    0.0000 O   0  0  0  0  0  0  0  0  0  0  0  0
    9.5484    0.0155    0.0000 O   0  0  0  0  0  0  0  0  0  0  0  0
    8.9890   -4.9468    0.0000 O   0  0  0  0  0  0  0  0  0  0  0  0
    6.8038    3.1373    0.0000 O   0  0  0  0  0  0  0  0  0  0  0  0
    7.6644    3.6341    0.0000 O   0  0  0  0  0  0  0  0  0  0  0  0
    8.6248    1.2114    0.0000 O   0  0  0  0  0  0  0  0  0  0  0  0
    6.7259   -4.0094    0.0000 O   0  0  0  0  0  0  0  0  0  0  0  0
    5.0220    2.1268    0.0000 O   0  0  0  0  0  0  0  0  0  0  0  0
    5.0220    0.0785    0.0000 O   0  0  0  0  0  0  0  0  0  0  0  0
    9.4303    4.6719    0.0000 O   0  0  0  0  0  0  0  0  0  0  0  0
   11.2042    3.6478    0.0000 O   0  0  0  0  0  0  0  0  0  0  0  0
    3.1428   -4.4112    0.0000 O   0  0  0  0  0  0  0  0  0  0  0  0
    3.5950   -0.9767    0.0000 O   0  0  0  0  0  0  0  0  0  0  0  0
    2.3774   -2.5634    0.0000 O   0  0  0  0  0  0  0  0  0  0  0  0
    8.5522   -1.6294    0.0000 C   0  0  3  0  0  0  0  0  0  0  0  0
    7.9434   -2.4227    0.0000 C   0  0  3  0  0  0  0  0  0  0  0  0
    9.5181   -1.8882    0.0000 C   0  0  3  0  0  0  0  0  0  0  0  0
    8.3261   -3.3466    0.0000 C   0  0  3  0  0  0  0  0  0  0  0  0
   10.2252   -1.1811    0.0000 C   0  0  0  0  0  0  0  0  0  0  0  0
    8.5522    0.1027    0.0000 C   0  0  0  0  0  0  0  0  0  0  0  0
    7.6862    0.6027    0.0000 C   0  0  0  0  0  0  0  0  0  0  0  0
    7.6862    1.6027    0.0000 C   0  0  0  0  0  0  0  0  0  0  0  0
    8.5522    2.1027    0.0000 C   0  0  0  0  0  0  0  0  0  0  0  0
    8.1956   -4.3380    0.0000 C   0  0  0  0  0  0  0  0  0  0  0  0
    9.4182    1.6027    0.0000 C   0  0  0  0  0  0  0  0  0  0  0  0
    9.4182    0.6027    0.0000 C   0  0  0  0  0  0  0  0  0  0  0  0
    6.3432   -3.0856    0.0000 C   0  0  0  0  0  0  0  0  0  0  0  0
    6.7922    2.1374    0.0000 C   0  0  0  0  0  0  0  0  0  0  0  0
    6.7922    0.0680    0.0000 C   0  0  0  0  0  0  0  0  0  0  0  0
    8.5361    3.1442    0.0000 C   0  0  0  0  0  0  0  0  0  0  0  0
   10.3282    2.1095    0.0000 C   0  0  0  0  0  0  0  0  0  0  0  0
    5.8862    1.6235    0.0000 C   0  0  0  0  0  0  0  0  0  0  0  0
    5.8862    0.5819    0.0000 C   0  0  0  0  0  0  0  0  0  0  0  0
    5.3518   -2.9550    0.0000 C   0  0  0  0  0  0  0  0  0  0  0  0
    9.4342    3.6720    0.0000 C   0  0  0  0  0  0  0  0  0  0  0  0
   10.3362    3.1511    0.0000 C   0  0  0  0  0  0  0  0  0  0  0  0
    4.9691   -2.0311    0.0000 C   0  0  0  0  0  0  0  0  0  0  0  0
    4.7430   -3.7484    0.0000 C   0  0  0  0  0  0  0  0  0  0  0  0
    3.7516   -3.6178    0.0000 C   0  0  0  0  0  0  0  0  0  0  0  0
    3.9776   -1.9006    0.0000 C   0  0  0  0  0  0  0  0  0  0  0  0
    3.3689   -2.6940    0.0000 C   0  0  0  0  0  0  0  0  0  0  0  0
    7.9335   -1.5888    0.0000 H   0  0  0  0  0  0  0  0  0  0  0  0
    7.5660   -2.9146    0.0000 H   0  0  0  0  0  0  0  0  0  0  0  0
   10.1170   -2.0486    0.0000 H   0  0  0  0  0  0  0  0  0  0  0  0
    8.7035   -2.8547    0.0000 H   0  0  0  0  0  0  0  0  0  0  0  0
   10.6636   -1.6195    0.0000 H   0  0  0  0  0  0  0  0  0  0  0  0
   10.6636   -0.7427    0.0000 H   0  0  0  0  0  0  0  0  0  0  0  0
   10.3758   -3.0146    0.0000 H   0  0  0  0  0  0  0  0  0  0  0  0
    7.6227   -4.5753    0.0000 H   0  0  0  0  0  0  0  0  0  0  0  0
    9.5548   -4.0499    0.0000 H   0  0  0  0  0  0  0  0  0  0  0  0
    6.7994   -0.5519    0.0000 H   0  0  0  0  0  0  0  0  0  0  0  0
   10.8615    1.7933    0.0000 H   0  0  0  0  0  0  0  0  0  0  0  0
    5.3465   -1.5393    0.0000 H   0  0  0  0  0  0  0  0  0  0  0  0
    4.9803   -4.3212    0.0000 H   0  0  0  0  0  0  0  0  0  0  0  0
    6.2705    3.4535    0.0000 H   0  0  0  0  0  0  0  0  0  0  0  0
    7.6572    4.2541    0.0000 H   0  0  0  0  0  0  0  0  0  0  0  0
    4.4839    1.8189    0.0000 H   0  0  0  0  0  0  0  0  0  0  0  0
    5.0244   -0.5415    0.0000 H   0  0  0  0  0  0  0  0  0  0  0  0
    9.9660    4.9840    0.0000 H   0  0  0  0  0  0  0  0  0  0  0  0
   11.7399    3.3357    0.0000 H   0  0  0  0  0  0  0  0  0  0  0  0
    3.3801   -4.9840    0.0000 H   0  0  0  0  0  0  0  0  0  0  0  0
    2.9803   -0.8958    0.0000 H   0  0  0  0  0  0  0  0  0  0  0  0
    2.0000   -3.0553    0.0000 H   0  0  0  0  0  0  0  0  0  0  0  0
  1 19  1  0  0  0  0
  1 24  1  0  0  0  0
  2 20  1  0  0  0  0
  2 31  1  0  0  0  0
  3 21  1  0  0  0  0
  3 52  1  0  0  0  0
  4 23  1  0  0  0  0
  4 30  1  0  0  0  0
  5 22  1  0  0  0  0
  5 54  1  0  0  0  0
  6 24  2  0  0  0  0
  7 28  2  0  0  0  0
  8 32  1  0  0  0  0
  8 59  1  0  0  0  0
  9 34  1  0  0  0  0
  9 60  1  0  0  0  0
 10 30  2  0  0  0  0
 11 31  2  0  0  0  0
 12 36  1  0  0  0  0
 12 61  1  0  0  0  0
 13 37  1  0  0  0  0
 13 62  1  0  0  0  0
 14 39  1  0  0  0  0
 14 63  1  0  0  0  0
 15 40  1  0  0  0  0
 15 64  1  0  0  0  0
 16 43  1  0  0  0  0
 16 65  1  0  0  0  0
 17 44  1  0  0  0  0
 17 66  1  0  0  0  0
 18 45  1  0  0  0  0
 18 67  1  0  0  0  0
 19 20  1  0  0  0  0
 19 21  1  0  0  0  0
 19 46  1  0  0  0  0
 20 22  1  0  0  0  0
 20 47  1  0  0  0  0
 21 23  1  0  0  0  0
 21 48  1  0  0  0  0
 22 28  1  0  0  0  0
 22 49  1  0  0  0  0
 23 50  1  0  0  0  0
 23 51  1  0  0  0  0
 24 25  1  0  0  0  0
 25 26  1  0  0  0  0
 25 33  2  0  0  0  0
 26 27  1  0  0  0  0
 26 32  2  0  0  0  0
 27 29  1  0  0  0  0
 27 34  2  0  0  0  0
 28 53  1  0  0  0  0
 29 30  1  0  0  0  0
 29 35  2  0  0  0  0
 31 38  1  0  0  0  0
 32 36  1  0  0  0  0
 33 37  1  0  0  0  0
 33 55  1  0  0  0  0
 34 39  1  0  0  0  0
 35 40  1  0  0  0  0
 35 56  1  0  0  0  0
 36 37  2  0  0  0  0
 38 41  2  0  0  0  0
 38 42  1  0  0  0  0
 39 40  2  0  0  0  0
 41 44  1  0  0  0  0
 41 57  1  0  0  0  0
 42 43  2  0  0  0  0
 42 58  1  0  0  0  0
 43 45  1  0  0  0  0
 44 45  2  0  0  0  0
M  END
>  <PUBCHEM_COMPOUND_CID>
471119

>  <PUBCHEM_COMPOUND_CANONICALIZED>
1

>  <PUBCHEM_CACTVS_COMPLEXITY>
1080

>  <PUBCHEM_CACTVS_HBOND_ACCEPTOR>
18

>  <PUBCHEM_CACTVS_HBOND_DONOR>
11

>  <PUBCHEM_CACTVS_ROTATABLE_BOND>
6

>  <PUBCHEM_CACTVS_SUBSKEYS>
AAADceB4PgAAAAAAAAAAAAAAAAAAAAAAAAAwYMAAAAAAAAABUAAAGgAACAAADBSgmAIwDoAABgCIAijSiAICAAAkIAAAiAFGiMgJNzaCNRqCcQEl4BULuYfK7PzOoAABCAAYQABAAAIQADCAAAAAAAAAAA==

>  <PUBCHEM_IUPAC_INCHI>
InChI=1S/C27H22O18/c28-5-14(33)23(44-25(40)7-1-10(29)18(35)11(30)2-7)24-15(34)6-43-26(41)8-3-12(31)19(36)21(38)16(8)17-9(27(42)45-24)4-13(32)20(37)22(17)39/h1-5,14-15,23-24,29-39H,6H2

>  <PUBCHEM_IUPAC_INCHIKEY>
XKVYZLLWKHGKMT-UHFFFAOYSA-N

>  <PUBCHEM_XLOGP3_AA>
-0.2

>  <PUBCHEM_EXACT_MASS>
634.081

>  <PUBCHEM_MOLECULAR_FORMULA>
C27H22O18

>  <PUBCHEM_MOLECULAR_WEIGHT>
634.455

>  <PUBCHEM_OPENEYE_CAN_SMILES>
C1C(C(OC(=O)C2=CC(=C(C(=C2C3=C(C(=C(C=C3C(=O)O1)O)O)O)O)O)O)C(C(C=O)O)OC(=O)C4=CC(=C(C(=C4)O)O)O)O

>  <PUBCHEM_OPENEYE_ISO_SMILES>
C1C(C(OC(=O)C2=CC(=C(C(=C2C3=C(C(=C(C=C3C(=O)O1)O)O)O)O)O)O)C(C(C=O)O)OC(=O)C4=CC(=C(C(=C4)O)O)O)O

>  <PUBCHEM_CACTVS_TPSA>
319

>  <PUBCHEM_MONOISOTOPIC_WEIGHT>
634.081

>  <PUBCHEM_TOTAL_CHARGE>
0

>  <PUBCHEM_HEAVY_ATOM_COUNT>
45

>  <PUBCHEM_ATOM_DEF_STEREO_COUNT>
0

>  <PUBCHEM_ATOM_UDEF_STEREO_COUNT>
4

>  <PUBCHEM_BOND_DEF_STEREO_COUNT>
0

>  <PUBCHEM_BOND_UDEF_STEREO_COUNT>
0

>  <PUBCHEM_ISOTOPIC_ATOM_COUNT>
0

>  <PUBCHEM_COMPONENT_COUNT>
1

>  <PUBCHEM_CACTVS_TAUTO_COUNT>
998

>  <PUBCHEM_COORDINATE_TYPE>
1
5
255

>  <PUBCHEM_BONDANNOTATIONS>
19  1  3
20  2  3
25  26  8
25  33  8
26  32  8
27  29  8
27  34  8
29  35  8
21  3  3
32  36  8
33  37  8
34  39  8
35  40  8
36  37  8
38  41  8
38  42  8
39  40  8
41  44  8
42  43  8
43  45  8
44  45  8
22  5  3

$$$$
