475273
 OpenBabel06101807152D

 97103  0  0  1  0  0  0  0  0999 V2000
    6.9357   -1.2092    0.0000 O   0  0  0  0  0  0  0  0  0  0  0  0
    8.2960    1.5544    0.0000 O   0  0  0  0  0  0  0  0  0  0  0  0
    7.5038   -1.1034    0.0000 O   0  0  0  0  0  0  0  0  0  0  0  0
    9.4704   -0.3746    0.0000 O   0  0  0  0  0  0  0  0  0  0  0  0
    8.4445   -2.0488    0.0000 O   0  0  0  0  0  0  0  0  0  0  0  0
    4.6912    0.5885    0.0000 O   0  0  0  0  0  0  0  0  0  0  0  0
    8.9032    3.0203    0.0000 O   0  0  0  0  0  0  0  0  0  0  0  0
    7.3459   -2.9092    0.0000 O   0  0  0  0  0  0  0  0  0  0  0  0
    9.3799   -2.1043    0.0000 O   0  0  0  0  0  0  0  0  0  0  0  0
    7.3364   -3.6312    0.0000 O   0  0  0  0  0  0  0  0  0  0  0  0
    3.4323    1.5544    0.0000 O   0  0  0  0  0  0  0  0  0  0  0  0
    5.1680    4.9002    0.0000 O   0  0  0  0  0  0  0  0  0  0  0  0
    5.7272    5.0501    0.0000 O   0  0  0  0  0  0  0  0  0  0  0  0
    8.5259    5.6651    0.0000 O   0  0  0  0  0  0  0  0  0  0  0  0
    6.5474    6.1952    0.0000 O   0  0  0  0  0  0  0  0  0  0  0  0
    3.8851    5.4819    0.0000 O   0  0  0  0  0  0  0  0  0  0  0  0
    2.4367    4.0335    0.0000 O   0  0  0  0  0  0  0  0  0  0  0  0
    4.0038   -3.7016    0.0000 O   0  0  0  0  0  0  0  0  0  0  0  0
    4.0038   -0.2374    0.0000 O   0  0  0  0  0  0  0  0  0  0  0  0
   13.0109    0.3073    0.0000 O   0  0  0  0  0  0  0  0  0  0  0  0
   12.8298   -3.1521    0.0000 O   0  0  0  0  0  0  0  0  0  0  0  0
    3.0037   -1.9694    0.0000 O   0  0  0  0  0  0  0  0  0  0  0  0
   11.3577   -4.1733    0.0000 O   0  0  0  0  0  0  0  0  0  0  0  0
    8.7041   -6.4000    0.0000 O   0  0  0  0  0  0  0  0  0  0  0  0
   13.9190   -1.4747    0.0000 O   0  0  0  0  0  0  0  0  0  0  0  0
   10.6736   -6.0527    0.0000 O   0  0  0  0  0  0  0  0  0  0  0  0
    8.0372    0.5885    0.0000 C   0  0  3  0  0  0  0  0  0  0  0  0
    7.3301   -0.1186    0.0000 C   0  0  3  0  0  0  0  0  0  0  0  0
    8.4718   -0.3223    0.0000 C   0  0  3  0  0  0  0  0  0  0  0  0
    6.3642   -0.3775    0.0000 C   0  0  3  0  0  0  0  0  0  0  0  0
    7.9445   -1.1828    0.0000 C   0  0  3  0  0  0  0  0  0  0  0  0
    5.3982   -0.1186    0.0000 C   0  0  0  0  0  0  0  0  0  0  0  0
    8.0372    2.5203    0.0000 C   0  0  0  0  0  0  0  0  0  0  0  0
    7.0038   -1.9695    0.0000 C   0  0  0  0  0  0  0  0  0  0  0  0
    9.9244   -1.2656    0.0000 C   0  0  0  0  0  0  0  0  0  0  0  0
    7.3301    3.2274    0.0000 C   0  0  0  0  0  0  0  0  0  0  0  0
    8.1025   -2.9885    0.0000 C   0  0  0  0  0  0  0  0  0  0  0  0
    4.4323    1.5544    0.0000 C   0  0  0  0  0  0  0  0  0  0  0  0
    6.3642    3.4862    0.0000 C   0  0  0  0  0  0  0  0  0  0  0  0
    4.6912    2.5203    0.0000 C   0  0  0  0  0  0  0  0  0  0  0  0
    6.0038   -1.9695    0.0000 C   0  0  0  0  0  0  0  0  0  0  0  0
    5.3982    3.2274    0.0000 C   0  0  0  0  0  0  0  0  0  0  0  0
   10.9231   -1.3178    0.0000 C   0  0  0  0  0  0  0  0  0  0  0  0
    8.7454   -3.7546    0.0000 C   0  0  0  0  0  0  0  0  0  0  0  0
    8.0779    3.9525    0.0000 C   0  0  0  0  0  0  0  0  0  0  0  0
    6.0791    4.4881    0.0000 C   0  0  0  0  0  0  0  0  0  0  0  0
    5.1442    4.2376    0.0000 C   0  0  0  0  0  0  0  0  0  0  0  0
    3.6810    2.7744    0.0000 C   0  0  0  0  0  0  0  0  0  0  0  0
    7.8161    4.9607    0.0000 C   0  0  0  0  0  0  0  0  0  0  0  0
    5.5038   -1.1034    0.0000 C   0  0  0  0  0  0  0  0  0  0  0  0
    5.5038   -2.8355    0.0000 C   0  0  0  0  0  0  0  0  0  0  0  0
    6.8100    5.2303    0.0000 C   0  0  0  0  0  0  0  0  0  0  0  0
   11.3771   -2.2088    0.0000 C   0  0  0  0  0  0  0  0  0  0  0  0
   11.4677   -0.4791    0.0000 C   0  0  0  0  0  0  0  0  0  0  0  0
    8.4033   -4.6943    0.0000 C   0  0  0  0  0  0  0  0  0  0  0  0
    9.7301   -3.5809    0.0000 C   0  0  0  0  0  0  0  0  0  0  0  0
    4.1402    4.5149    0.0000 C   0  0  0  0  0  0  0  0  0  0  0  0
    3.4036    3.7784    0.0000 C   0  0  0  0  0  0  0  0  0  0  0  0
    4.5038   -2.8355    0.0000 C   0  0  0  0  0  0  0  0  0  0  0  0
    4.5038   -1.1033    0.0000 C   0  0  0  0  0  0  0  0  0  0  0  0
   12.4663   -0.5314    0.0000 C   0  0  0  0  0  0  0  0  0  0  0  0
   12.3758   -2.2611    0.0000 C   0  0  0  0  0  0  0  0  0  0  0  0
    4.0037   -1.9694    0.0000 C   0  0  0  0  0  0  0  0  0  0  0  0
   10.3729   -4.3470    0.0000 C   0  0  0  0  0  0  0  0  0  0  0  0
    9.0461   -5.4603    0.0000 C   0  0  0  0  0  0  0  0  0  0  0  0
   12.9203   -1.4224    0.0000 C   0  0  0  0  0  0  0  0  0  0  0  0
   10.0308   -5.2867    0.0000 C   0  0  0  0  0  0  0  0  0  0  0  0
    8.6546    0.6452    0.0000 H   0  0  0  0  0  0  0  0  0  0  0  0
    7.9214   -0.3051    0.0000 H   0  0  0  0  0  0  0  0  0  0  0  0
    8.8162    0.1932    0.0000 H   0  0  0  0  0  0  0  0  0  0  0  0
    6.0063   -0.8838    0.0000 H   0  0  0  0  0  0  0  0  0  0  0  0
    7.6416   -1.7238    0.0000 H   0  0  0  0  0  0  0  0  0  0  0  0
    4.8363   -0.3807    0.0000 H   0  0  0  0  0  0  0  0  0  0  0  0
    5.7082    0.4183    0.0000 H   0  0  0  0  0  0  0  0  0  0  0  0
    8.6749    3.7851    0.0000 H   0  0  0  0  0  0  0  0  0  0  0  0
    3.2477    2.3309    0.0000 H   0  0  0  0  0  0  0  0  0  0  0  0
    5.8138   -0.5664    0.0000 H   0  0  0  0  0  0  0  0  0  0  0  0
    5.8138   -3.3725    0.0000 H   0  0  0  0  0  0  0  0  0  0  0  0
   11.0395   -2.7288    0.0000 H   0  0  0  0  0  0  0  0  0  0  0  0
   11.1861    0.0733    0.0000 H   0  0  0  0  0  0  0  0  0  0  0  0
    7.7928   -4.8019    0.0000 H   0  0  0  0  0  0  0  0  0  0  0  0
    9.9421   -2.9983    0.0000 H   0  0  0  0  0  0  0  0  0  0  0  0
    4.8995    5.4591    0.0000 H   0  0  0  0  0  0  0  0  0  0  0  0
    5.6803    5.6683    0.0000 H   0  0  0  0  0  0  0  0  0  0  0  0
    9.1242    5.5023    0.0000 H   0  0  0  0  0  0  0  0  0  0  0  0
    6.9841    6.6353    0.0000 H   0  0  0  0  0  0  0  0  0  0  0  0
    3.2868    5.6446    0.0000 H   0  0  0  0  0  0  0  0  0  0  0  0
    2.0000    3.5934    0.0000 H   0  0  0  0  0  0  0  0  0  0  0  0
    4.3138   -4.2385    0.0000 H   0  0  0  0  0  0  0  0  0  0  0  0
    3.3838   -0.2374    0.0000 H   0  0  0  0  0  0  0  0  0  0  0  0
   12.7294    0.8597    0.0000 H   0  0  0  0  0  0  0  0  0  0  0  0
   13.4490   -3.1845    0.0000 H   0  0  0  0  0  0  0  0  0  0  0  0
    2.6937   -2.5064    0.0000 H   0  0  0  0  0  0  0  0  0  0  0  0
   11.7562   -4.6483    0.0000 H   0  0  0  0  0  0  0  0  0  0  0  0
    8.0935   -6.5077    0.0000 H   0  0  0  0  0  0  0  0  0  0  0  0
   14.2566   -0.9547    0.0000 H   0  0  0  0  0  0  0  0  0  0  0  0
   10.4616   -6.6353    0.0000 H   0  0  0  0  0  0  0  0  0  0  0  0
  1 30  1  0  0  0  0
  1 31  1  0  0  0  0
  2 27  1  0  0  0  0
  2 33  1  0  0  0  0
  3 28  1  0  0  0  0
  3 34  1  0  0  0  0
  4 29  1  0  0  0  0
  4 35  1  0  0  0  0
  5 31  1  0  0  0  0
  5 37  1  0  0  0  0
  6 32  1  0  0  0  0
  6 38  1  0  0  0  0
  7 33  2  0  0  0  0
  8 34  2  0  0  0  0
  9 35  2  0  0  0  0
 10 37  2  0  0  0  0
 11 38  2  0  0  0  0
 12 46  1  0  0  0  0
 12 83  1  0  0  0  0
 13 47  1  0  0  0  0
 13 84  1  0  0  0  0
 14 49  1  0  0  0  0
 14 85  1  0  0  0  0
 15 52  1  0  0  0  0
 15 86  1  0  0  0  0
 16 57  1  0  0  0  0
 16 87  1  0  0  0  0
 17 58  1  0  0  0  0
 17 88  1  0  0  0  0
 18 59  1  0  0  0  0
 18 89  1  0  0  0  0
 19 60  1  0  0  0  0
 19 90  1  0  0  0  0
 20 61  1  0  0  0  0
 20 91  1  0  0  0  0
 21 62  1  0  0  0  0
 21 92  1  0  0  0  0
 22 63  1  0  0  0  0
 22 93  1  0  0  0  0
 23 64  1  0  0  0  0
 23 94  1  0  0  0  0
 24 65  1  0  0  0  0
 24 95  1  0  0  0  0
 25 66  1  0  0  0  0
 25 96  1  0  0  0  0
 26 67  1  0  0  0  0
 26 97  1  0  0  0  0
 27 28  1  0  0  0  0
 27 29  1  0  0  0  0
 27 68  1  0  0  0  0
 28 30  1  0  0  0  0
 28 69  1  0  0  0  0
 29 31  1  0  0  0  0
 29 70  1  0  0  0  0
 30 32  1  0  0  0  0
 30 71  1  0  0  0  0
 31 72  1  0  0  0  0
 32 73  1  0  0  0  0
 32 74  1  0  0  0  0
 33 36  1  0  0  0  0
 34 41  1  0  0  0  0
 35 43  1  0  0  0  0
 36 39  1  0  0  0  0
 36 45  2  0  0  0  0
 37 44  1  0  0  0  0
 38 40  1  0  0  0  0
 39 42  1  0  0  0  0
 39 46  2  0  0  0  0
 40 42  1  0  0  0  0
 40 48  2  0  0  0  0
 41 50  2  0  0  0  0
 41 51  1  0  0  0  0
 42 47  2  0  0  0  0
 43 53  2  0  0  0  0
 43 54  1  0  0  0  0
 44 55  2  0  0  0  0
 44 56  1  0  0  0  0
 45 49  1  0  0  0  0
 45 75  1  0  0  0  0
 46 52  1  0  0  0  0
 47 57  1  0  0  0  0
 48 58  1  0  0  0  0
 48 76  1  0  0  0  0
 49 52  2  0  0  0  0
 50 60  1  0  0  0  0
 50 77  1  0  0  0  0
 51 59  2  0  0  0  0
 51 78  1  0  0  0  0
 53 62  1  0  0  0  0
 53 79  1  0  0  0  0
 54 61  2  0  0  0  0
 54 80  1  0  0  0  0
 55 65  1  0  0  0  0
 55 81  1  0  0  0  0
 56 64  2  0  0  0  0
 56 82  1  0  0  0  0
 57 58  2  0  0  0  0
 59 63  1  0  0  0  0
 60 63  2  0  0  0  0
 61 66  1  0  0  0  0
 62 66  2  0  0  0  0
 64 67  1  0  0  0  0
 65 67  2  0  0  0  0
M  END
>  <PUBCHEM_COMPOUND_CID>
475273

>  <PUBCHEM_COMPOUND_CANONICALIZED>
1

>  <PUBCHEM_CACTVS_COMPLEXITY>
1770

>  <PUBCHEM_CACTVS_HBOND_ACCEPTOR>
26

>  <PUBCHEM_CACTVS_HBOND_DONOR>
15

>  <PUBCHEM_CACTVS_ROTATABLE_BOND>
9

>  <PUBCHEM_CACTVS_SUBSKEYS>
AAADceB8PgAAAAAAAAAAAAAAAAAAAAAAAAA0YMGDAAAAAAABVAAAGgAACAAADBSwmAMwDoAABgCIAiDSCAACAAAkIAAAiAEGiMgZJzKCNRqicQElwBUPuYfK7PzOoAABCAAYQABAAAIQADCAAAAAAAAAAA==

>  <PUBCHEM_IUPAC_INCHI>
InChI=1S/C41H30O26/c42-15-1-10(2-16(43)26(15)50)36(57)64-33-23-9-62-39(60)13-7-21(48)29(53)31(55)24(13)25-14(8-22(49)30(54)32(25)56)40(61)65-34(33)35(66-37(58)11-3-17(44)27(51)18(45)4-11)41(63-23)67-38(59)12-5-19(46)28(52)20(47)6-12/h1-8,23,33-35,41-56H,9H2

>  <PUBCHEM_IUPAC_INCHIKEY>
DPBVYZVSXAZMAY-UHFFFAOYSA-N

>  <PUBCHEM_XLOGP3_AA>
2.4

>  <PUBCHEM_EXACT_MASS>
938.103

>  <PUBCHEM_MOLECULAR_FORMULA>
C41H30O26

>  <PUBCHEM_MOLECULAR_WEIGHT>
938.665

>  <PUBCHEM_OPENEYE_CAN_SMILES>
C1C2C(C(C(C(O2)OC(=O)C3=CC(=C(C(=C3)O)O)O)OC(=O)C4=CC(=C(C(=C4)O)O)O)OC(=O)C5=CC(=C(C(=C5C6=C(C(=C(C=C6C(=O)O1)O)O)O)O)O)O)OC(=O)C7=CC(=C(C(=C7)O)O)O

>  <PUBCHEM_OPENEYE_ISO_SMILES>
C1C2C(C(C(C(O2)OC(=O)C3=CC(=C(C(=C3)O)O)O)OC(=O)C4=CC(=C(C(=C4)O)O)O)OC(=O)C5=CC(=C(C(=C5C6=C(C(=C(C=C6C(=O)O1)O)O)O)O)O)O)OC(=O)C7=CC(=C(C(=C7)O)O)O

>  <PUBCHEM_CACTVS_TPSA>
444

>  <PUBCHEM_MONOISOTOPIC_WEIGHT>
938.103

>  <PUBCHEM_TOTAL_CHARGE>
0

>  <PUBCHEM_HEAVY_ATOM_COUNT>
67

>  <PUBCHEM_ATOM_DEF_STEREO_COUNT>
0

>  <PUBCHEM_ATOM_UDEF_STEREO_COUNT>
5

>  <PUBCHEM_BOND_DEF_STEREO_COUNT>
0

>  <PUBCHEM_BOND_UDEF_STEREO_COUNT>
0

>  <PUBCHEM_ISOTOPIC_ATOM_COUNT>
0

>  <PUBCHEM_COMPONENT_COUNT>
1

>  <PUBCHEM_CACTVS_TAUTO_COUNT>
998

>  <PUBCHEM_COORDINATE_TYPE>
1
5
255

>  <PUBCHEM_BONDANNOTATIONS>
27  2  3
28  3  3
30  32  3
36  39  8
36  45  8
39  46  8
29  4  3
40  42  8
40  48  8
41  50  8
41  51  8
42  47  8
43  53  8
43  54  8
44  55  8
44  56  8
45  49  8
46  52  8
47  57  8
48  58  8
49  52  8
31  5  3
50  60  8
51  59  8
53  62  8
54  61  8
55  65  8
56  64  8
57  58  8
59  63  8
60  63  8
61  66  8
62  66  8
64  67  8
65  67  8

$$$$
