476785
 OpenBabel06101807152D

 36 37  0  0  1  0  0  0  0  0999 V2000
    4.2690   -0.1550    0.0000 O   0  0  0  0  0  0  0  0  0  0  0  0
    6.0010   -0.1550    0.0000 O   0  0  0  0  0  0  0  0  0  0  0  0
    4.2690   -3.1550    0.0000 O   0  0  0  0  0  0  0  0  0  0  0  0
    2.5369   -2.1550    0.0000 O   0  0  0  0  0  0  0  0  0  0  0  0
    6.0010   -2.1550    0.0000 O   0  0  0  0  0  0  0  0  0  0  0  0
    2.5369    0.8450    0.0000 O   0  0  0  0  0  0  0  0  0  0  0  0
    4.2690    2.8450    0.0000 O   0  0  0  0  0  0  0  0  0  0  0  0
    7.7331    2.8450    0.0000 O   0  0  0  0  0  0  0  0  0  0  0  0
    4.2690   -2.1550    0.0000 C   0  0  1  0  0  0  0  0  0  0  0  0
    3.4030   -1.6550    0.0000 C   0  0  1  0  0  0  0  0  0  0  0  0
    5.1350   -1.6550    0.0000 C   0  0  2  0  0  0  0  0  0  0  0  0
    3.4030   -0.6550    0.0000 C   0  0  1  0  0  0  0  0  0  0  0  0
    5.1350   -0.6550    0.0000 C   0  0  1  0  0  0  0  0  0  0  0  0
    2.5369   -0.1550    0.0000 C   0  0  0  0  0  0  0  0  0  0  0  0
    6.0010    0.8450    0.0000 C   0  0  0  0  0  0  0  0  0  0  0  0
    6.8671    1.3450    0.0000 C   0  0  0  0  0  0  0  0  0  0  0  0
    5.1350    1.3450    0.0000 C   0  0  0  0  0  0  0  0  0  0  0  0
    5.1350    2.3450    0.0000 C   0  0  0  0  0  0  0  0  0  0  0  0
    6.8671    2.3450    0.0000 C   0  0  0  0  0  0  0  0  0  0  0  0
    6.0010    2.8450    0.0000 C   0  0  0  0  0  0  0  0  0  0  0  0
    4.8059   -2.4650    0.0000 H   0  0  0  0  0  0  0  0  0  0  0  0
    3.4030   -2.2750    0.0000 H   0  0  0  0  0  0  0  0  0  0  0  0
    5.6720   -1.3450    0.0000 H   0  0  0  0  0  0  0  0  0  0  0  0
    3.4030   -0.0350    0.0000 H   0  0  0  0  0  0  0  0  0  0  0  0
    5.1350   -0.0350    0.0000 H   0  0  0  0  0  0  0  0  0  0  0  0
    1.9264   -0.0473    0.0000 H   0  0  0  0  0  0  0  0  0  0  0  0
    2.3249   -0.7376    0.0000 H   0  0  0  0  0  0  0  0  0  0  0  0
    3.7320   -3.4650    0.0000 H   0  0  0  0  0  0  0  0  0  0  0  0
    2.0000   -1.8450    0.0000 H   0  0  0  0  0  0  0  0  0  0  0  0
    6.5380   -1.8450    0.0000 H   0  0  0  0  0  0  0  0  0  0  0  0
    2.0000    1.1550    0.0000 H   0  0  0  0  0  0  0  0  0  0  0  0
    7.4040    1.0350    0.0000 H   0  0  0  0  0  0  0  0  0  0  0  0
    4.5981    1.0350    0.0000 H   0  0  0  0  0  0  0  0  0  0  0  0
    6.0010    3.4650    0.0000 H   0  0  0  0  0  0  0  0  0  0  0  0
    4.2690    3.4650    0.0000 H   0  0  0  0  0  0  0  0  0  0  0  0
    7.7331    3.4650    0.0000 H   0  0  0  0  0  0  0  0  0  0  0  0
  1 12  1  0  0  0  0
  1 13  1  0  0  0  0
  2 15  1  0  0  0  0
  3 28  1  0  0  0  0
  4 29  1  0  0  0  0
  5 30  1  0  0  0  0
  6 14  1  0  0  0  0
  6 31  1  0  0  0  0
  7 18  1  0  0  0  0
  7 35  1  0  0  0  0
  8 19  1  0  0  0  0
  8 36  1  0  0  0  0
  9  3  1  0  0  0  0
  9 10  1  6  0  0  0
  9 21  1  0  0  0  0
 10  4  1  0  0  0  0
 10 12  1  1  0  0  0
 10 22  1  0  0  0  0
 11  5  1  0  0  0  0
 11  9  1  1  0  0  0
 11 23  1  0  0  0  0
 12 14  1  0  0  0  0
 12 24  1  6  0  0  0
 13  2  1  0  0  0  0
 13 11  1  6  0  0  0
 13 25  1  0  0  0  0
 14 26  1  0  0  0  0
 14 27  1  0  0  0  0
 15 16  2  0  0  0  0
 15 17  1  0  0  0  0
 16 19  1  0  0  0  0
 16 32  1  0  0  0  0
 17 18  2  0  0  0  0
 17 33  1  0  0  0  0
 18 20  1  0  0  0  0
 19 20  2  0  0  0  0
 20 34  1  0  0  0  0
M  END
>  <PUBCHEM_COMPOUND_CID>
476785

>  <PUBCHEM_COMPOUND_CANONICALIZED>
1

>  <PUBCHEM_CACTVS_COMPLEXITY>
304

>  <PUBCHEM_CACTVS_HBOND_ACCEPTOR>
8

>  <PUBCHEM_CACTVS_HBOND_DONOR>
6

>  <PUBCHEM_CACTVS_ROTATABLE_BOND>
3

>  <PUBCHEM_CACTVS_SUBSKEYS>
AAADceBwPAAAAAAAAAAAAAAAAAAAAAAAAAA0QAAAAAAAAAABAAAAGgAACAAACBSwkAMwDoAABgCAACBCAAACCAAgIAAAiAAGCIgdNyKGMRqieCClwBUPuAfAYAwAAAAACAAAAAAAAAAQAAAAAAAAAAAAAA==

>  <PUBCHEM_IUPAC_OPENEYE_NAME>
(2S,3R,4S,5S,6R)-2-(3,5-dihydroxyphenoxy)-6-(hydroxymethyl)tetrahydropyran-3,4,5-triol

>  <PUBCHEM_IUPAC_CAS_NAME>
(2S,3R,4S,5S,6R)-2-(3,5-dihydroxyphenoxy)-6-(hydroxymethyl)oxane-3,4,5-triol

>  <PUBCHEM_IUPAC_NAME>
(2S,3R,4S,5S,6R)-2-(3,5-dihydroxyphenoxy)-6-(hydroxymethyl)oxane-3,4,5-triol

>  <PUBCHEM_IUPAC_SYSTEMATIC_NAME>
(2S,3R,4S,5S,6R)-2-[3,5-bis(oxidanyl)phenoxy]-6-(hydroxymethyl)oxane-3,4,5-triol

>  <PUBCHEM_IUPAC_TRADITIONAL_NAME>
(2S,3R,4S,5S,6R)-2-(3,5-dihydroxyphenoxy)-6-methylol-tetrahydropyran-3,4,5-triol

>  <PUBCHEM_IUPAC_INCHI>
InChI=1S/C12H16O8/c13-4-8-9(16)10(17)11(18)12(20-8)19-7-2-5(14)1-6(15)3-7/h1-3,8-18H,4H2/t8-,9-,10+,11-,12-/m1/s1

>  <PUBCHEM_IUPAC_INCHIKEY>
WXTPOHDTGNYFSB-RMPHRYRLSA-N

>  <PUBCHEM_XLOGP3>
-1.2

>  <PUBCHEM_EXACT_MASS>
288.085

>  <PUBCHEM_MOLECULAR_FORMULA>
C12H16O8

>  <PUBCHEM_MOLECULAR_WEIGHT>
288.252

>  <PUBCHEM_OPENEYE_CAN_SMILES>
C1=C(C=C(C=C1O)OC2C(C(C(C(O2)CO)O)O)O)O

>  <PUBCHEM_OPENEYE_ISO_SMILES>
C1=C(C=C(C=C1O)O[C@H]2[C@@H]([C@H]([C@@H]([C@H](O2)CO)O)O)O)O

>  <PUBCHEM_CACTVS_TPSA>
140

>  <PUBCHEM_MONOISOTOPIC_WEIGHT>
288.085

>  <PUBCHEM_TOTAL_CHARGE>
0

>  <PUBCHEM_HEAVY_ATOM_COUNT>
20

>  <PUBCHEM_ATOM_DEF_STEREO_COUNT>
5

>  <PUBCHEM_ATOM_UDEF_STEREO_COUNT>
0

>  <PUBCHEM_BOND_DEF_STEREO_COUNT>
0

>  <PUBCHEM_BOND_UDEF_STEREO_COUNT>
0

>  <PUBCHEM_ISOTOPIC_ATOM_COUNT>
0

>  <PUBCHEM_COMPONENT_COUNT>
1

>  <PUBCHEM_CACTVS_TAUTO_COUNT>
5

>  <PUBCHEM_COORDINATE_TYPE>
1
5
255

>  <PUBCHEM_BONDANNOTATIONS>
12  14  5
15  16  8
15  17  8
16  19  8
17  18  8
18  20  8
19  20  8
13  2  5
9  3  5
10  4  6
11  5  6

$$$$
