47795
 OpenBabel06101807152D

 26 27  0  0  0  0  0  0  0  0999 V2000
    2.0000   -3.0241    0.0000 F   0  0  0  0  0  0  0  0  0  0  0  0
    3.3660   -3.3901    0.0000 F   0  0  0  0  0  0  0  0  0  0  0  0
    2.3660   -1.6581    0.0000 F   0  0  0  0  0  0  0  0  0  0  0  0
    4.5981    0.4759    0.0000 N   0  0  0  0  0  0  0  0  0  0  0  0
    5.4071    1.0637    0.0000 N   0  0  0  0  0  0  0  0  0  0  0  0
    5.6859    2.8237    0.0000 N   0  0  0  0  0  0  0  0  0  0  0  0
    3.7891    1.0637    0.0000 C   0  0  0  0  0  0  0  0  0  0  0  0
    4.0981    2.0147    0.0000 C   0  0  0  0  0  0  0  0  0  0  0  0
    4.5981   -0.5241    0.0000 C   0  0  0  0  0  0  0  0  0  0  0  0
    5.0981    2.0147    0.0000 C   0  0  0  0  0  0  0  0  0  0  0  0
    3.7320   -1.0241    0.0000 C   0  0  0  0  0  0  0  0  0  0  0  0
    3.7320   -2.0241    0.0000 C   0  0  0  0  0  0  0  0  0  0  0  0
    5.4641   -1.0241    0.0000 C   0  0  0  0  0  0  0  0  0  0  0  0
    4.5981   -2.5241    0.0000 C   0  0  0  0  0  0  0  0  0  0  0  0
    5.4641   -2.0241    0.0000 C   0  0  0  0  0  0  0  0  0  0  0  0
    2.8660   -2.5241    0.0000 C   0  0  0  0  0  0  0  0  0  0  0  0
    3.2227    1.3158    0.0000 H   0  0  0  0  0  0  0  0  0  0  0  0
    3.4791    0.5267    0.0000 H   0  0  0  0  0  0  0  0  0  0  0  0
    4.1629    2.6313    0.0000 H   0  0  0  0  0  0  0  0  0  0  0  0
    3.4916    2.1436    0.0000 H   0  0  0  0  0  0  0  0  0  0  0  0
    3.1951   -0.7141    0.0000 H   0  0  0  0  0  0  0  0  0  0  0  0
    6.0010   -0.7141    0.0000 H   0  0  0  0  0  0  0  0  0  0  0  0
    4.5981   -3.1441    0.0000 H   0  0  0  0  0  0  0  0  0  0  0  0
    6.0010   -2.3341    0.0000 H   0  0  0  0  0  0  0  0  0  0  0  0
    5.4337    3.3901    0.0000 H   0  0  0  0  0  0  0  0  0  0  0  0
    6.3025    2.7589    0.0000 H   0  0  0  0  0  0  0  0  0  0  0  0
  1 16  1  0  0  0  0
  2 16  1  0  0  0  0
  3 16  1  0  0  0  0
  4  5  1  0  0  0  0
  4  7  1  0  0  0  0
  4  9  1  0  0  0  0
  5 10  2  0  0  0  0
  6 10  1  0  0  0  0
  6 25  1  0  0  0  0
  6 26  1  0  0  0  0
  7  8  1  0  0  0  0
  7 17  1  0  0  0  0
  7 18  1  0  0  0  0
  8 10  1  0  0  0  0
  8 19  1  0  0  0  0
  8 20  1  0  0  0  0
  9 11  1  0  0  0  0
  9 13  2  0  0  0  0
 11 12  2  0  0  0  0
 11 21  1  0  0  0  0
 12 14  1  0  0  0  0
 12 16  1  0  0  0  0
 13 15  1  0  0  0  0
 13 22  1  0  0  0  0
 14 15  2  0  0  0  0
 14 23  1  0  0  0  0
 15 24  1  0  0  0  0
M  END
>  <PUBCHEM_COMPOUND_CID>
47795

>  <PUBCHEM_COMPOUND_CANONICALIZED>
1

>  <PUBCHEM_CACTVS_COMPLEXITY>
288

>  <PUBCHEM_CACTVS_HBOND_ACCEPTOR>
5

>  <PUBCHEM_CACTVS_HBOND_DONOR>
1

>  <PUBCHEM_CACTVS_ROTATABLE_BOND>
1

>  <PUBCHEM_CACTVS_SUBSKEYS>
AAADccBzAYAAAAAAAAAAAAAAAAAAAQAAAAAwAAAAAAAAAAABAAAAHQAYAAAADAjBGBQxwIJAAACgAiZiYACSBAAhAgAYiAA4ZIgIICLA0ZGEIAhgmADIyAcQgAAOAAAAQAAAAAAAAACAAAAAAAAAAAAAAA==

>  <PUBCHEM_IUPAC_OPENEYE_NAME>
2-[3-(trifluoromethyl)phenyl]-3,4-dihydropyrazol-5-amine

>  <PUBCHEM_IUPAC_CAS_NAME>
2-[3-(trifluoromethyl)phenyl]-3,4-dihydropyrazol-5-amine

>  <PUBCHEM_IUPAC_NAME>
2-[3-(trifluoromethyl)phenyl]-3,4-dihydropyrazol-5-amine

>  <PUBCHEM_IUPAC_SYSTEMATIC_NAME>
2-[3-(trifluoromethyl)phenyl]-3,4-dihydropyrazol-5-amine

>  <PUBCHEM_IUPAC_TRADITIONAL_NAME>
[1-[3-(trifluoromethyl)phenyl]-2-pyrazolin-3-yl]amine

>  <PUBCHEM_IUPAC_INCHI>
InChI=1S/C10H10F3N3/c11-10(12,13)7-2-1-3-8(6-7)16-5-4-9(14)15-16/h1-3,6H,4-5H2,(H2,14,15)

>  <PUBCHEM_IUPAC_INCHIKEY>
CPXGGWXJNQSFEP-UHFFFAOYSA-N

>  <PUBCHEM_XLOGP3_AA>
1.8

>  <PUBCHEM_EXACT_MASS>
229.083

>  <PUBCHEM_MOLECULAR_FORMULA>
C10H10F3N3

>  <PUBCHEM_MOLECULAR_WEIGHT>
229.206

>  <PUBCHEM_OPENEYE_CAN_SMILES>
C1CN(N=C1N)C2=CC=CC(=C2)C(F)(F)F

>  <PUBCHEM_OPENEYE_ISO_SMILES>
C1CN(N=C1N)C2=CC=CC(=C2)C(F)(F)F

>  <PUBCHEM_CACTVS_TPSA>
41.6

>  <PUBCHEM_MONOISOTOPIC_WEIGHT>
229.083

>  <PUBCHEM_TOTAL_CHARGE>
0

>  <PUBCHEM_HEAVY_ATOM_COUNT>
16

>  <PUBCHEM_ATOM_DEF_STEREO_COUNT>
0

>  <PUBCHEM_ATOM_UDEF_STEREO_COUNT>
0

>  <PUBCHEM_BOND_DEF_STEREO_COUNT>
0

>  <PUBCHEM_BOND_UDEF_STEREO_COUNT>
0

>  <PUBCHEM_ISOTOPIC_ATOM_COUNT>
0

>  <PUBCHEM_COMPONENT_COUNT>
1

>  <PUBCHEM_CACTVS_TAUTO_COUNT>
3

>  <PUBCHEM_COORDINATE_TYPE>
1
5
255

>  <PUBCHEM_BONDANNOTATIONS>
11  12  8
12  14  8
13  15  8
14  15  8
9  11  8
9  13  8

$$$$
