480799
 OpenBabel06101807152D

 43 45  0  0  0  0  0  0  0  0999 V2000
    7.2241   -3.6297    0.0000 O   0  0  0  0  0  0  0  0  0  0  0  0
    3.7320   -3.5950    0.0000 O   0  0  0  0  0  0  0  0  0  0  0  0
    2.8660   -2.0950    0.0000 O   0  0  0  0  0  0  0  0  0  0  0  0
    2.0000   -0.5950    0.0000 O   0  0  0  0  0  0  0  0  0  0  0  0
    2.8660    3.9050    0.0000 O   0  0  0  0  0  0  0  0  0  0  0  0
    8.1301   -3.1158    0.0000 C   0  0  0  0  0  0  0  0  0  0  0  0
    8.1301   -2.0742    0.0000 C   0  0  0  0  0  0  0  0  0  0  0  0
    6.3301   -2.0950    0.0000 C   0  0  0  0  0  0  0  0  0  0  0  0
    6.3301   -3.0950    0.0000 C   0  0  0  0  0  0  0  0  0  0  0  0
    9.1301   -3.1197    0.0000 C   0  0  0  0  0  0  0  0  0  0  0  0
    8.6268   -3.9838    0.0000 C   0  0  0  0  0  0  0  0  0  0  0  0
    7.2241   -1.5603    0.0000 C   0  0  0  0  0  0  0  0  0  0  0  0
    5.4641   -1.5950    0.0000 C   0  0  0  0  0  0  0  0  0  0  0  0
    4.5981   -2.0950    0.0000 C   0  0  0  0  0  0  0  0  0  0  0  0
    5.4641   -3.5950    0.0000 C   0  0  0  0  0  0  0  0  0  0  0  0
    4.5981   -3.0950    0.0000 C   0  0  0  0  0  0  0  0  0  0  0  0
    3.7320   -1.5950    0.0000 C   0  0  0  0  0  0  0  0  0  0  0  0
    3.7320   -0.5950    0.0000 C   0  0  0  0  0  0  0  0  0  0  0  0
    2.8660   -0.0950    0.0000 C   0  0  0  0  0  0  0  0  0  0  0  0
    2.8660    0.9050    0.0000 C   0  0  0  0  0  0  0  0  0  0  0  0
    3.7320    1.4050    0.0000 C   0  0  0  0  0  0  0  0  0  0  0  0
    2.0000    1.4050    0.0000 C   0  0  0  0  0  0  0  0  0  0  0  0
    3.7320    2.4050    0.0000 C   0  0  0  0  0  0  0  0  0  0  0  0
    2.0000    2.4050    0.0000 C   0  0  0  0  0  0  0  0  0  0  0  0
    2.8660    2.9050    0.0000 C   0  0  0  0  0  0  0  0  0  0  0  0
    8.6659   -1.7621    0.0000 H   0  0  0  0  0  0  0  0  0  0  0  0
    9.1277   -3.7397    0.0000 H   0  0  0  0  0  0  0  0  0  0  0  0
    8.0887   -4.2917    0.0000 H   0  0  0  0  0  0  0  0  0  0  0  0
    8.9347   -4.5219    0.0000 H   0  0  0  0  0  0  0  0  0  0  0  0
    9.1649   -3.6758    0.0000 H   0  0  0  0  0  0  0  0  0  0  0  0
    9.7501   -3.1221    0.0000 H   0  0  0  0  0  0  0  0  0  0  0  0
    9.1325   -2.4997    0.0000 H   0  0  0  0  0  0  0  0  0  0  0  0
    7.2169   -0.9404    0.0000 H   0  0  0  0  0  0  0  0  0  0  0  0
    5.4641   -0.9750    0.0000 H   0  0  0  0  0  0  0  0  0  0  0  0
    5.4641   -4.2150    0.0000 H   0  0  0  0  0  0  0  0  0  0  0  0
    4.3426   -0.7027    0.0000 H   0  0  0  0  0  0  0  0  0  0  0  0
    3.9441   -0.0124    0.0000 H   0  0  0  0  0  0  0  0  0  0  0  0
    3.7320   -4.2150    0.0000 H   0  0  0  0  0  0  0  0  0  0  0  0
    4.2690    1.0950    0.0000 H   0  0  0  0  0  0  0  0  0  0  0  0
    1.4631    1.0950    0.0000 H   0  0  0  0  0  0  0  0  0  0  0  0
    4.2690    2.7150    0.0000 H   0  0  0  0  0  0  0  0  0  0  0  0
    1.4631    2.7150    0.0000 H   0  0  0  0  0  0  0  0  0  0  0  0
    2.3291    4.2150    0.0000 H   0  0  0  0  0  0  0  0  0  0  0  0
  1  6  1  0  0  0  0
  1  9  1  0  0  0  0
  2 16  1  0  0  0  0
  2 38  1  0  0  0  0
  3 17  2  0  0  0  0
  4 19  2  0  0  0  0
  5 25  1  0  0  0  0
  5 43  1  0  0  0  0
  6  7  1  0  0  0  0
  6 10  1  0  0  0  0
  6 11  1  0  0  0  0
  7 12  2  0  0  0  0
  7 26  1  0  0  0  0
  8  9  1  0  0  0  0
  8 12  1  0  0  0  0
  8 13  2  0  0  0  0
  9 15  2  0  0  0  0
 10 27  1  0  0  0  0
 10 31  1  0  0  0  0
 10 32  1  0  0  0  0
 11 28  1  0  0  0  0
 11 29  1  0  0  0  0
 11 30  1  0  0  0  0
 12 33  1  0  0  0  0
 13 14  1  0  0  0  0
 13 34  1  0  0  0  0
 14 16  2  0  0  0  0
 14 17  1  0  0  0  0
 15 16  1  0  0  0  0
 15 35  1  0  0  0  0
 17 18  1  0  0  0  0
 18 19  1  0  0  0  0
 18 36  1  0  0  0  0
 18 37  1  0  0  0  0
 19 20  1  0  0  0  0
 20 21  2  0  0  0  0
 20 22  1  0  0  0  0
 21 23  1  0  0  0  0
 21 39  1  0  0  0  0
 22 24  2  0  0  0  0
 22 40  1  0  0  0  0
 23 25  2  0  0  0  0
 23 41  1  0  0  0  0
 24 25  1  0  0  0  0
 24 42  1  0  0  0  0
M  END
>  <PUBCHEM_COMPOUND_CID>
480799

>  <PUBCHEM_COMPOUND_CANONICALIZED>
1

>  <PUBCHEM_CACTVS_COMPLEXITY>
544

>  <PUBCHEM_CACTVS_HBOND_ACCEPTOR>
5

>  <PUBCHEM_CACTVS_HBOND_DONOR>
2

>  <PUBCHEM_CACTVS_ROTATABLE_BOND>
4

>  <PUBCHEM_CACTVS_SUBSKEYS>
AAADceB4OAAAAAAAAAAAAAAAAAAAAAAAAAAwYIAAAAAAAACBQAAAGgAACAAADESAmAAyBoAABgCIAqBSAAACCAAkIAAIiAEGCMgMJzaONRqCeWCl4BUIuYeI7OzOIAACCAAIAABAAAQQABAAAAAAAAAAAA==

>  <PUBCHEM_IUPAC_OPENEYE_NAME>
1-(7-hydroxy-2,2-dimethyl-chromen-6-yl)-3-(4-hydroxyphenyl)propane-1,3-dione

>  <PUBCHEM_IUPAC_CAS_NAME>
1-(7-hydroxy-2,2-dimethyl-1-benzopyran-6-yl)-3-(4-hydroxyphenyl)propane-1,3-dione

>  <PUBCHEM_IUPAC_NAME>
1-(7-hydroxy-2,2-dimethylchromen-6-yl)-3-(4-hydroxyphenyl)propane-1,3-dione

>  <PUBCHEM_IUPAC_SYSTEMATIC_NAME>
1-(2,2-dimethyl-7-oxidanyl-chromen-6-yl)-3-(4-hydroxyphenyl)propane-1,3-dione

>  <PUBCHEM_IUPAC_TRADITIONAL_NAME>
1-(7-hydroxy-2,2-dimethyl-chromen-6-yl)-3-(4-hydroxyphenyl)propane-1,3-dione

>  <PUBCHEM_IUPAC_INCHI>
InChI=1S/C20H18O5/c1-20(2)8-7-13-9-15(18(24)11-19(13)25-20)17(23)10-16(22)12-3-5-14(21)6-4-12/h3-9,11,21,24H,10H2,1-2H3

>  <PUBCHEM_IUPAC_INCHIKEY>
KXBWVUQZNQMUBZ-UHFFFAOYSA-N

>  <PUBCHEM_XLOGP3_AA>
3.9

>  <PUBCHEM_EXACT_MASS>
338.115

>  <PUBCHEM_MOLECULAR_FORMULA>
C20H18O5

>  <PUBCHEM_MOLECULAR_WEIGHT>
338.359

>  <PUBCHEM_OPENEYE_CAN_SMILES>
CC1(C=CC2=CC(=C(C=C2O1)O)C(=O)CC(=O)C3=CC=C(C=C3)O)C

>  <PUBCHEM_OPENEYE_ISO_SMILES>
CC1(C=CC2=CC(=C(C=C2O1)O)C(=O)CC(=O)C3=CC=C(C=C3)O)C

>  <PUBCHEM_CACTVS_TPSA>
83.8

>  <PUBCHEM_MONOISOTOPIC_WEIGHT>
338.115

>  <PUBCHEM_TOTAL_CHARGE>
0

>  <PUBCHEM_HEAVY_ATOM_COUNT>
25

>  <PUBCHEM_ATOM_DEF_STEREO_COUNT>
0

>  <PUBCHEM_ATOM_UDEF_STEREO_COUNT>
0

>  <PUBCHEM_BOND_DEF_STEREO_COUNT>
0

>  <PUBCHEM_BOND_UDEF_STEREO_COUNT>
0

>  <PUBCHEM_ISOTOPIC_ATOM_COUNT>
0

>  <PUBCHEM_COMPONENT_COUNT>
1

>  <PUBCHEM_CACTVS_TAUTO_COUNT>
62

>  <PUBCHEM_COORDINATE_TYPE>
1
5
255

>  <PUBCHEM_BONDANNOTATIONS>
13  14  8
14  16  8
15  16  8
20  21  8
20  22  8
21  23  8
22  24  8
23  25  8
24  25  8
8  13  8
8  9  8
9  15  8

$$$$
