480787
 OpenBabel06101807152D

 50 52  0  0  0  0  0  0  0  0999 V2000
    8.0901   -1.6117    0.0000 O   0  0  0  0  0  0  0  0  0  0  0  0
    6.3301    1.4229    0.0000 O   0  0  0  0  0  0  0  0  0  0  0  0
    4.5981   -1.5771    0.0000 O   0  0  0  0  0  0  0  0  0  0  0  0
    9.8602   -1.6012    0.0000 O   0  0  0  0  0  0  0  0  0  0  0  0
   10.7321   -1.0496    0.0000 O   0  0  0  0  0  0  0  0  0  0  0  0
   12.4525    1.9571    0.0000 O   0  0  0  0  0  0  0  0  0  0  0  0
    5.4641   -0.0771    0.0000 C   0  0  0  0  0  0  0  0  0  0  0  0
    7.1962   -0.0771    0.0000 C   0  0  0  0  0  0  0  0  0  0  0  0
    6.3301    0.4229    0.0000 C   0  0  0  0  0  0  0  0  0  0  0  0
    7.1962   -1.0771    0.0000 C   0  0  0  0  0  0  0  0  0  0  0  0
    4.5981    0.4229    0.0000 C   0  0  0  0  0  0  0  0  0  0  0  0
    5.4641   -1.0771    0.0000 C   0  0  0  0  0  0  0  0  0  0  0  0
    8.0901    0.4576    0.0000 C   0  0  0  0  0  0  0  0  0  0  0  0
    6.3301   -1.5771    0.0000 C   0  0  0  0  0  0  0  0  0  0  0  0
    8.9962   -0.0563    0.0000 C   0  0  0  0  0  0  0  0  0  0  0  0
    9.8602    0.4471    0.0000 C   0  0  0  0  0  0  0  0  0  0  0  0
    3.7320   -0.0771    0.0000 C   0  0  0  0  0  0  0  0  0  0  0  0
    8.9962   -1.0979    0.0000 C   0  0  0  0  0  0  0  0  0  0  0  0
    2.8660    0.4229    0.0000 C   0  0  0  0  0  0  0  0  0  0  0  0
   10.7282   -0.0496    0.0000 C   0  0  0  0  0  0  0  0  0  0  0  0
    9.8564    1.4471    0.0000 C   0  0  0  0  0  0  0  0  0  0  0  0
    5.4641    1.9229    0.0000 C   0  0  0  0  0  0  0  0  0  0  0  0
   11.5923    0.4538    0.0000 C   0  0  0  0  0  0  0  0  0  0  0  0
    2.0000   -0.0771    0.0000 C   0  0  0  0  0  0  0  0  0  0  0  0
    2.8660    1.4229    0.0000 C   0  0  0  0  0  0  0  0  0  0  0  0
   10.7205    1.9504    0.0000 C   0  0  0  0  0  0  0  0  0  0  0  0
   11.5884    1.4537    0.0000 C   0  0  0  0  0  0  0  0  0  0  0  0
    4.5981   -2.5771    0.0000 C   0  0  0  0  0  0  0  0  0  0  0  0
    4.9966    0.8979    0.0000 H   0  0  0  0  0  0  0  0  0  0  0  0
    4.1996    0.8979    0.0000 H   0  0  0  0  0  0  0  0  0  0  0  0
    8.0829    1.0776    0.0000 H   0  0  0  0  0  0  0  0  0  0  0  0
    6.3301   -2.1971    0.0000 H   0  0  0  0  0  0  0  0  0  0  0  0
    3.7320   -0.6971    0.0000 H   0  0  0  0  0  0  0  0  0  0  0  0
    9.3183    1.7550    0.0000 H   0  0  0  0  0  0  0  0  0  0  0  0
   12.1304    0.1458    0.0000 H   0  0  0  0  0  0  0  0  0  0  0  0
    5.7741    2.4599    0.0000 H   0  0  0  0  0  0  0  0  0  0  0  0
    4.9272    2.2329    0.0000 H   0  0  0  0  0  0  0  0  0  0  0  0
    5.1541    1.3860    0.0000 H   0  0  0  0  0  0  0  0  0  0  0  0
    1.6900    0.4599    0.0000 H   0  0  0  0  0  0  0  0  0  0  0  0
    3.4860    1.4229    0.0000 H   0  0  0  0  0  0  0  0  0  0  0  0
    2.8660    2.0429    0.0000 H   0  0  0  0  0  0  0  0  0  0  0  0
    2.2460    1.4229    0.0000 H   0  0  0  0  0  0  0  0  0  0  0  0
    1.4631   -0.3871    0.0000 H   0  0  0  0  0  0  0  0  0  0  0  0
    2.3100   -0.6140    0.0000 H   0  0  0  0  0  0  0  0  0  0  0  0
   10.7181    2.5704    0.0000 H   0  0  0  0  0  0  0  0  0  0  0  0
    3.9781   -2.5771    0.0000 H   0  0  0  0  0  0  0  0  0  0  0  0
    4.5981   -3.1971    0.0000 H   0  0  0  0  0  0  0  0  0  0  0  0
    5.2181   -2.5771    0.0000 H   0  0  0  0  0  0  0  0  0  0  0  0
   11.2702   -1.3575    0.0000 H   0  0  0  0  0  0  0  0  0  0  0  0
   12.4501    2.5771    0.0000 H   0  0  0  0  0  0  0  0  0  0  0  0
  1 10  1  0  0  0  0
  1 18  1  0  0  0  0
  2  9  1  0  0  0  0
  2 22  1  0  0  0  0
  3 12  1  0  0  0  0
  3 28  1  0  0  0  0
  4 18  2  0  0  0  0
  5 20  1  0  0  0  0
  5 49  1  0  0  0  0
  6 27  1  0  0  0  0
  6 50  1  0  0  0  0
  7  9  1  0  0  0  0
  7 11  1  0  0  0  0
  7 12  2  0  0  0  0
  8  9  2  0  0  0  0
  8 10  1  0  0  0  0
  8 13  1  0  0  0  0
 10 14  2  0  0  0  0
 11 17  1  0  0  0  0
 11 29  1  0  0  0  0
 11 30  1  0  0  0  0
 12 14  1  0  0  0  0
 13 15  2  0  0  0  0
 13 31  1  0  0  0  0
 14 32  1  0  0  0  0
 15 16  1  0  0  0  0
 15 18  1  0  0  0  0
 16 20  2  0  0  0  0
 16 21  1  0  0  0  0
 17 19  2  0  0  0  0
 17 33  1  0  0  0  0
 19 24  1  0  0  0  0
 19 25  1  0  0  0  0
 20 23  1  0  0  0  0
 21 26  2  0  0  0  0
 21 34  1  0  0  0  0
 22 36  1  0  0  0  0
 22 37  1  0  0  0  0
 22 38  1  0  0  0  0
 23 27  2  0  0  0  0
 23 35  1  0  0  0  0
 24 39  1  0  0  0  0
 24 43  1  0  0  0  0
 24 44  1  0  0  0  0
 25 40  1  0  0  0  0
 25 41  1  0  0  0  0
 25 42  1  0  0  0  0
 26 27  1  0  0  0  0
 26 45  1  0  0  0  0
 28 46  1  0  0  0  0
 28 47  1  0  0  0  0
 28 48  1  0  0  0  0
M  END
>  <PUBCHEM_COMPOUND_CID>
480787

>  <PUBCHEM_COMPOUND_CANONICALIZED>
1

>  <PUBCHEM_CACTVS_COMPLEXITY>
623

>  <PUBCHEM_CACTVS_HBOND_ACCEPTOR>
6

>  <PUBCHEM_CACTVS_HBOND_DONOR>
2

>  <PUBCHEM_CACTVS_ROTATABLE_BOND>
5

>  <PUBCHEM_CACTVS_SUBSKEYS>
AAADceB4OAAAAAAAAAAAAAAAAAAAAAAAAAAwYIAAAAAAAACBQAAAGgAACAAADASAmAIyDoAABgCIAiDSCAACCAAgIAAIiAEGCMgMJzKGNRqCeiClwBUIuYfK6OyOIAACCAAIAABAAAQQABAAAAAAAAAAAA==

>  <PUBCHEM_IUPAC_OPENEYE_NAME>
3-(2,4-dihydroxyphenyl)-5,7-dimethoxy-6-(3-methylbut-2-enyl)chromen-2-one

>  <PUBCHEM_IUPAC_CAS_NAME>
3-(2,4-dihydroxyphenyl)-5,7-dimethoxy-6-(3-methylbut-2-enyl)-1-benzopyran-2-one

>  <PUBCHEM_IUPAC_NAME>
3-(2,4-dihydroxyphenyl)-5,7-dimethoxy-6-(3-methylbut-2-enyl)chromen-2-one

>  <PUBCHEM_IUPAC_SYSTEMATIC_NAME>
3-[2,4-bis(oxidanyl)phenyl]-5,7-dimethoxy-6-(3-methylbut-2-enyl)chromen-2-one

>  <PUBCHEM_IUPAC_TRADITIONAL_NAME>
3-(2,4-dihydroxyphenyl)-5,7-dimethoxy-6-(3-methylbut-2-enyl)coumarin

>  <PUBCHEM_IUPAC_INCHI>
InChI=1S/C22H22O6/c1-12(2)5-7-15-19(26-3)11-20-17(21(15)27-4)10-16(22(25)28-20)14-8-6-13(23)9-18(14)24/h5-6,8-11,23-24H,7H2,1-4H3

>  <PUBCHEM_IUPAC_INCHIKEY>
FWWGXZYUURXJLK-UHFFFAOYSA-N

>  <PUBCHEM_XLOGP3_AA>
4.7

>  <PUBCHEM_EXACT_MASS>
382.142

>  <PUBCHEM_MOLECULAR_FORMULA>
C22H22O6

>  <PUBCHEM_MOLECULAR_WEIGHT>
382.412

>  <PUBCHEM_OPENEYE_CAN_SMILES>
CC(=CCC1=C(C=C2C(=C1OC)C=C(C(=O)O2)C3=C(C=C(C=C3)O)O)OC)C

>  <PUBCHEM_OPENEYE_ISO_SMILES>
CC(=CCC1=C(C=C2C(=C1OC)C=C(C(=O)O2)C3=C(C=C(C=C3)O)O)OC)C

>  <PUBCHEM_CACTVS_TPSA>
85.2

>  <PUBCHEM_MONOISOTOPIC_WEIGHT>
382.142

>  <PUBCHEM_TOTAL_CHARGE>
0

>  <PUBCHEM_HEAVY_ATOM_COUNT>
28

>  <PUBCHEM_ATOM_DEF_STEREO_COUNT>
0

>  <PUBCHEM_ATOM_UDEF_STEREO_COUNT>
0

>  <PUBCHEM_BOND_DEF_STEREO_COUNT>
0

>  <PUBCHEM_BOND_UDEF_STEREO_COUNT>
0

>  <PUBCHEM_ISOTOPIC_ATOM_COUNT>
0

>  <PUBCHEM_COMPONENT_COUNT>
1

>  <PUBCHEM_CACTVS_TAUTO_COUNT>
12

>  <PUBCHEM_COORDINATE_TYPE>
1
5
255

>  <PUBCHEM_BONDANNOTATIONS>
1  10  8
1  18  8
10  14  8
12  14  8
13  15  8
15  18  8
16  20  8
16  21  8
20  23  8
21  26  8
23  27  8
26  27  8
7  12  8
7  9  8
8  10  8
8  13  8
8  9  8

$$$$
