480785
 OpenBabel06101807152D

 59 61  0  0  1  0  0  0  0  0999 V2000
    6.0290   -0.6117    0.0000 O   0  0  0  0  0  0  0  0  0  0  0  0
    6.0174    2.4575    0.0000 O   0  0  0  0  0  0  0  0  0  0  0  0
    8.6709   -0.0496    0.0000 O   0  0  0  0  0  0  0  0  0  0  0  0
    4.2690    2.4229    0.0000 O   0  0  0  0  0  0  0  0  0  0  0  0
    2.5369   -0.5771    0.0000 O   0  0  0  0  0  0  0  0  0  0  0  0
   10.3914    2.9571    0.0000 O   0  0  0  0  0  0  0  0  0  0  0  0
    6.9350    0.9437    0.0000 C   0  0  3  0  0  0  0  0  0  0  0  0
    6.9350   -0.0979    0.0000 C   0  0  0  0  0  0  0  0  0  0  0  0
    7.7991    1.4471    0.0000 C   0  0  0  0  0  0  0  0  0  0  0  0
    6.0290    1.4576    0.0000 C   0  0  0  0  0  0  0  0  0  0  0  0
    5.1350    0.9229    0.0000 C   0  0  0  0  0  0  0  0  0  0  0  0
    5.1350   -0.0771    0.0000 C   0  0  0  0  0  0  0  0  0  0  0  0
    4.2690   -0.5771    0.0000 C   0  0  0  0  0  0  0  0  0  0  0  0
    8.6671    0.9504    0.0000 C   0  0  0  0  0  0  0  0  0  0  0  0
    4.2690    1.4229    0.0000 C   0  0  0  0  0  0  0  0  0  0  0  0
    9.5312    1.4538    0.0000 C   0  0  0  0  0  0  0  0  0  0  0  0
    7.7953    2.4471    0.0000 C   0  0  0  0  0  0  0  0  0  0  0  0
    4.2690   -1.5771    0.0000 C   0  0  0  0  0  0  0  0  0  0  0  0
    3.4030   -0.0771    0.0000 C   0  0  0  0  0  0  0  0  0  0  0  0
    3.4030    0.9229    0.0000 C   0  0  0  0  0  0  0  0  0  0  0  0
    9.5273    2.4537    0.0000 C   0  0  0  0  0  0  0  0  0  0  0  0
    8.6594    2.9504    0.0000 C   0  0  0  0  0  0  0  0  0  0  0  0
   10.3991    0.9571    0.0000 C   0  0  0  0  0  0  0  0  0  0  0  0
    3.4030   -2.0771    0.0000 C   0  0  0  0  0  0  0  0  0  0  0  0
   11.2632    1.4604    0.0000 C   0  0  0  0  0  0  0  0  0  0  0  0
    3.4030   -3.0771    0.0000 C   0  0  0  0  0  0  0  0  0  0  0  0
   12.1311    0.9638    0.0000 C   0  0  0  0  0  0  0  0  0  0  0  0
    2.5369   -3.5771    0.0000 C   0  0  0  0  0  0  0  0  0  0  0  0
    4.2690   -3.5771    0.0000 C   0  0  0  0  0  0  0  0  0  0  0  0
   12.9952    1.4671    0.0000 C   0  0  0  0  0  0  0  0  0  0  0  0
   12.1350   -0.0362    0.0000 C   0  0  0  0  0  0  0  0  0  0  0  0
    7.4726    0.6348    0.0000 H   0  0  0  0  0  0  0  0  0  0  0  0
    7.1441   -0.6816    0.0000 H   0  0  0  0  0  0  0  0  0  0  0  0
    7.5459    0.0082    0.0000 H   0  0  0  0  0  0  0  0  0  0  0  0
    7.2571    2.7550    0.0000 H   0  0  0  0  0  0  0  0  0  0  0  0
    4.4810   -2.1597    0.0000 H   0  0  0  0  0  0  0  0  0  0  0  0
    4.8796   -1.4694    0.0000 H   0  0  0  0  0  0  0  0  0  0  0  0
    2.8660    1.2329    0.0000 H   0  0  0  0  0  0  0  0  0  0  0  0
   10.0024    0.4806    0.0000 H   0  0  0  0  0  0  0  0  0  0  0  0
   10.7995    0.4837    0.0000 H   0  0  0  0  0  0  0  0  0  0  0  0
    8.6570    3.5704    0.0000 H   0  0  0  0  0  0  0  0  0  0  0  0
    2.8660   -1.7671    0.0000 H   0  0  0  0  0  0  0  0  0  0  0  0
   11.2608    2.0804    0.0000 H   0  0  0  0  0  0  0  0  0  0  0  0
    9.2090   -0.3575    0.0000 H   0  0  0  0  0  0  0  0  0  0  0  0
    3.7320    2.7329    0.0000 H   0  0  0  0  0  0  0  0  0  0  0  0
    2.0000   -0.2671    0.0000 H   0  0  0  0  0  0  0  0  0  0  0  0
   10.3890    3.5771    0.0000 H   0  0  0  0  0  0  0  0  0  0  0  0
    2.2269   -3.0401    0.0000 H   0  0  0  0  0  0  0  0  0  0  0  0
    2.0000   -3.8871    0.0000 H   0  0  0  0  0  0  0  0  0  0  0  0
    2.8469   -4.1140    0.0000 H   0  0  0  0  0  0  0  0  0  0  0  0
    3.9590   -4.1140    0.0000 H   0  0  0  0  0  0  0  0  0  0  0  0
    4.8059   -3.8871    0.0000 H   0  0  0  0  0  0  0  0  0  0  0  0
    4.5790   -3.0401    0.0000 H   0  0  0  0  0  0  0  0  0  0  0  0
   13.3073    0.9314    0.0000 H   0  0  0  0  0  0  0  0  0  0  0  0
   13.5310    1.7792    0.0000 H   0  0  0  0  0  0  0  0  0  0  0  0
   12.6832    2.0028    0.0000 H   0  0  0  0  0  0  0  0  0  0  0  0
   11.5150   -0.0386    0.0000 H   0  0  0  0  0  0  0  0  0  0  0  0
   12.1374   -0.6562    0.0000 H   0  0  0  0  0  0  0  0  0  0  0  0
   12.7550   -0.0338    0.0000 H   0  0  0  0  0  0  0  0  0  0  0  0
  1  8  1  0  0  0  0
  1 12  1  0  0  0  0
  2 10  2  0  0  0  0
  3 14  1  0  0  0  0
  3 44  1  0  0  0  0
  4 15  1  0  0  0  0
  4 45  1  0  0  0  0
  5 19  1  0  0  0  0
  5 46  1  0  0  0  0
  6 21  1  0  0  0  0
  6 47  1  0  0  0  0
  7  8  1  0  0  0  0
  7  9  1  0  0  0  0
  7 10  1  0  0  0  0
  7 32  1  0  0  0  0
  8 33  1  0  0  0  0
  8 34  1  0  0  0  0
  9 14  2  0  0  0  0
  9 17  1  0  0  0  0
 10 11  1  0  0  0  0
 11 12  1  0  0  0  0
 11 15  2  0  0  0  0
 12 13  2  0  0  0  0
 13 18  1  0  0  0  0
 13 19  1  0  0  0  0
 14 16  1  0  0  0  0
 15 20  1  0  0  0  0
 16 21  2  0  0  0  0
 16 23  1  0  0  0  0
 17 22  2  0  0  0  0
 17 35  1  0  0  0  0
 18 24  1  0  0  0  0
 18 36  1  0  0  0  0
 18 37  1  0  0  0  0
 19 20  2  0  0  0  0
 20 38  1  0  0  0  0
 21 22  1  0  0  0  0
 22 41  1  0  0  0  0
 23 25  1  0  0  0  0
 23 39  1  0  0  0  0
 23 40  1  0  0  0  0
 24 26  2  0  0  0  0
 24 42  1  0  0  0  0
 25 27  2  0  0  0  0
 25 43  1  0  0  0  0
 26 28  1  0  0  0  0
 26 29  1  0  0  0  0
 27 30  1  0  0  0  0
 27 31  1  0  0  0  0
 28 48  1  0  0  0  0
 28 49  1  0  0  0  0
 28 50  1  0  0  0  0
 29 51  1  0  0  0  0
 29 52  1  0  0  0  0
 29 53  1  0  0  0  0
 30 54  1  0  0  0  0
 30 55  1  0  0  0  0
 30 56  1  0  0  0  0
 31 57  1  0  0  0  0
 31 58  1  0  0  0  0
 31 59  1  0  0  0  0
M  END
>  <PUBCHEM_COMPOUND_CID>
480785

>  <PUBCHEM_COMPOUND_CANONICALIZED>
1

>  <PUBCHEM_CACTVS_COMPLEXITY>
692

>  <PUBCHEM_CACTVS_HBOND_ACCEPTOR>
6

>  <PUBCHEM_CACTVS_HBOND_DONOR>
4

>  <PUBCHEM_CACTVS_ROTATABLE_BOND>
5

>  <PUBCHEM_CACTVS_SUBSKEYS>
AAADceB4OAAAAAAAAAAAAAAAAAAAAAAAAAA0YIAAAAAAAACRQAAAGgAACAAADQSgmAIyBoAABgCIAqBSAAACCAAkIAAIiAEGCMgMJzaGNRqCeWCl4BUIuQfK7PzOoAACCAAIAABAAAQQABAAAAAAAAAAAA==

>  <PUBCHEM_IUPAC_OPENEYE_NAME>
3-[2,4-dihydroxy-3-(3-methylbut-2-enyl)phenyl]-5,7-dihydroxy-8-(3-methylbut-2-enyl)chroman-4-one

>  <PUBCHEM_IUPAC_CAS_NAME>
3-[2,4-dihydroxy-3-(3-methylbut-2-enyl)phenyl]-5,7-dihydroxy-8-(3-methylbut-2-enyl)-3,4-dihydro-2H-1-benzopyran-4-one

>  <PUBCHEM_IUPAC_NAME>
3-[2,4-dihydroxy-3-(3-methylbut-2-enyl)phenyl]-5,7-dihydroxy-8-(3-methylbut-2-enyl)-2,3-dihydrochromen-4-one

>  <PUBCHEM_IUPAC_SYSTEMATIC_NAME>
8-(3-methylbut-2-enyl)-3-[3-(3-methylbut-2-enyl)-2,4-bis(oxidanyl)phenyl]-5,7-bis(oxidanyl)-2,3-dihydrochromen-4-one

>  <PUBCHEM_IUPAC_TRADITIONAL_NAME>
3-[2,4-dihydroxy-3-(3-methylbut-2-enyl)phenyl]-5,7-dihydroxy-8-(3-methylbut-2-enyl)chroman-4-one

>  <PUBCHEM_IUPAC_INCHI>
InChI=1S/C25H28O6/c1-13(2)5-7-16-19(26)10-9-15(23(16)29)18-12-31-25-17(8-6-14(3)4)20(27)11-21(28)22(25)24(18)30/h5-6,9-11,18,26-29H,7-8,12H2,1-4H3

>  <PUBCHEM_IUPAC_INCHIKEY>
FSHPJPOJLGCQOJ-UHFFFAOYSA-N

>  <PUBCHEM_XLOGP3_AA>
6.1

>  <PUBCHEM_EXACT_MASS>
424.189

>  <PUBCHEM_MOLECULAR_FORMULA>
C25H28O6

>  <PUBCHEM_MOLECULAR_WEIGHT>
424.493

>  <PUBCHEM_OPENEYE_CAN_SMILES>
CC(=CCC1=C(C=CC(=C1O)C2COC3=C(C2=O)C(=CC(=C3CC=C(C)C)O)O)O)C

>  <PUBCHEM_OPENEYE_ISO_SMILES>
CC(=CCC1=C(C=CC(=C1O)C2COC3=C(C2=O)C(=CC(=C3CC=C(C)C)O)O)O)C

>  <PUBCHEM_CACTVS_TPSA>
107

>  <PUBCHEM_MONOISOTOPIC_WEIGHT>
424.189

>  <PUBCHEM_TOTAL_CHARGE>
0

>  <PUBCHEM_HEAVY_ATOM_COUNT>
31

>  <PUBCHEM_ATOM_DEF_STEREO_COUNT>
0

>  <PUBCHEM_ATOM_UDEF_STEREO_COUNT>
1

>  <PUBCHEM_BOND_DEF_STEREO_COUNT>
0

>  <PUBCHEM_BOND_UDEF_STEREO_COUNT>
0

>  <PUBCHEM_ISOTOPIC_ATOM_COUNT>
0

>  <PUBCHEM_COMPONENT_COUNT>
1

>  <PUBCHEM_CACTVS_TAUTO_COUNT>
834

>  <PUBCHEM_COORDINATE_TYPE>
1
5
255

>  <PUBCHEM_BONDANNOTATIONS>
11  12  8
11  15  8
12  13  8
13  19  8
14  16  8
15  20  8
16  21  8
17  22  8
19  20  8
21  22  8
7  9  3
9  14  8
9  17  8

$$$$
