480802
 OpenBabel06101807152D

 56 58  0  0  0  0  0  0  0  0999 V2000
    8.0901    0.5774    0.0000 O   0  0  0  0  0  0  0  0  0  0  0  0
    6.3301    3.6121    0.0000 O   0  0  0  0  0  0  0  0  0  0  0  0
    4.5981    0.6121    0.0000 O   0  0  0  0  0  0  0  0  0  0  0  0
    8.0785    3.6467    0.0000 O   0  0  0  0  0  0  0  0  0  0  0  0
   12.4525   -0.9221    0.0000 O   0  0  0  0  0  0  0  0  0  0  0  0
    7.1962    2.1121    0.0000 C   0  0  0  0  0  0  0  0  0  0  0  0
    5.4641    2.1121    0.0000 C   0  0  0  0  0  0  0  0  0  0  0  0
    7.1962    1.1121    0.0000 C   0  0  0  0  0  0  0  0  0  0  0  0
    6.3301    2.6121    0.0000 C   0  0  0  0  0  0  0  0  0  0  0  0
    8.9962    1.0912    0.0000 C   0  0  0  0  0  0  0  0  0  0  0  0
    4.5981    2.6121    0.0000 C   0  0  0  0  0  0  0  0  0  0  0  0
    9.8602    0.5879    0.0000 C   0  0  0  0  0  0  0  0  0  0  0  0
    5.4641    1.1121    0.0000 C   0  0  0  0  0  0  0  0  0  0  0  0
    6.3301    0.6121    0.0000 C   0  0  0  0  0  0  0  0  0  0  0  0
    8.0901    2.6467    0.0000 C   0  0  0  0  0  0  0  0  0  0  0  0
   10.7205   -0.9154    0.0000 C   0  0  0  0  0  0  0  0  0  0  0  0
    8.9962    2.1329    0.0000 C   0  0  0  0  0  0  0  0  0  0  0  0
    9.8564   -0.4121    0.0000 C   0  0  0  0  0  0  0  0  0  0  0  0
   10.7166   -1.9154    0.0000 C   0  0  0  0  0  0  0  0  0  0  0  0
   10.7282    1.0846    0.0000 C   0  0  0  0  0  0  0  0  0  0  0  0
   11.5884   -0.4188    0.0000 C   0  0  0  0  0  0  0  0  0  0  0  0
    3.7320    2.1121    0.0000 C   0  0  0  0  0  0  0  0  0  0  0  0
   11.5923    0.5812    0.0000 C   0  0  0  0  0  0  0  0  0  0  0  0
   11.5807   -2.4187    0.0000 C   0  0  0  0  0  0  0  0  0  0  0  0
    2.8660    2.6121    0.0000 C   0  0  0  0  0  0  0  0  0  0  0  0
   11.5769   -3.4187    0.0000 C   0  0  0  0  0  0  0  0  0  0  0  0
    2.0000    2.1121    0.0000 C   0  0  0  0  0  0  0  0  0  0  0  0
    2.8660    3.6121    0.0000 C   0  0  0  0  0  0  0  0  0  0  0  0
   12.4410   -3.9221    0.0000 C   0  0  0  0  0  0  0  0  0  0  0  0
   10.7089   -3.9154    0.0000 C   0  0  0  0  0  0  0  0  0  0  0  0
    4.9966    3.0870    0.0000 H   0  0  0  0  0  0  0  0  0  0  0  0
    4.1996    3.0870    0.0000 H   0  0  0  0  0  0  0  0  0  0  0  0
    6.3301   -0.0079    0.0000 H   0  0  0  0  0  0  0  0  0  0  0  0
    9.5319    2.4450    0.0000 H   0  0  0  0  0  0  0  0  0  0  0  0
    9.3183   -0.7200    0.0000 H   0  0  0  0  0  0  0  0  0  0  0  0
   10.1065   -1.8054    0.0000 H   0  0  0  0  0  0  0  0  0  0  0  0
   10.5023   -2.4972    0.0000 H   0  0  0  0  0  0  0  0  0  0  0  0
   10.7306    1.7046    0.0000 H   0  0  0  0  0  0  0  0  0  0  0  0
    3.7320    1.4921    0.0000 H   0  0  0  0  0  0  0  0  0  0  0  0
   12.1304    0.8892    0.0000 H   0  0  0  0  0  0  0  0  0  0  0  0
   12.1189   -2.1108    0.0000 H   0  0  0  0  0  0  0  0  0  0  0  0
    5.7932    3.9221    0.0000 H   0  0  0  0  0  0  0  0  0  0  0  0
    4.5981   -0.0079    0.0000 H   0  0  0  0  0  0  0  0  0  0  0  0
    1.6900    2.6490    0.0000 H   0  0  0  0  0  0  0  0  0  0  0  0
    1.4631    1.8021    0.0000 H   0  0  0  0  0  0  0  0  0  0  0  0
    2.3100    1.5751    0.0000 H   0  0  0  0  0  0  0  0  0  0  0  0
    3.4860    3.6121    0.0000 H   0  0  0  0  0  0  0  0  0  0  0  0
    2.8660    4.2321    0.0000 H   0  0  0  0  0  0  0  0  0  0  0  0
    2.2460    3.6121    0.0000 H   0  0  0  0  0  0  0  0  0  0  0  0
   10.4010   -3.3773    0.0000 H   0  0  0  0  0  0  0  0  0  0  0  0
   12.1289   -4.4578    0.0000 H   0  0  0  0  0  0  0  0  0  0  0  0
   12.9767   -4.2341    0.0000 H   0  0  0  0  0  0  0  0  0  0  0  0
   12.7530   -3.3863    0.0000 H   0  0  0  0  0  0  0  0  0  0  0  0
   10.1708   -4.2233    0.0000 H   0  0  0  0  0  0  0  0  0  0  0  0
   11.0169   -4.4535    0.0000 H   0  0  0  0  0  0  0  0  0  0  0  0
   12.9907   -0.6142    0.0000 H   0  0  0  0  0  0  0  0  0  0  0  0
  1  8  1  0  0  0  0
  1 10  1  0  0  0  0
  2  9  1  0  0  0  0
  2 42  1  0  0  0  0
  3 13  1  0  0  0  0
  3 43  1  0  0  0  0
  4 15  2  0  0  0  0
  5 21  1  0  0  0  0
  5 56  1  0  0  0  0
  6  8  2  0  0  0  0
  6  9  1  0  0  0  0
  6 15  1  0  0  0  0
  7  9  2  0  0  0  0
  7 11  1  0  0  0  0
  7 13  1  0  0  0  0
  8 14  1  0  0  0  0
 10 12  1  0  0  0  0
 10 17  2  0  0  0  0
 11 22  1  0  0  0  0
 11 31  1  0  0  0  0
 11 32  1  0  0  0  0
 12 18  2  0  0  0  0
 12 20  1  0  0  0  0
 13 14  2  0  0  0  0
 14 33  1  0  0  0  0
 15 17  1  0  0  0  0
 16 18  1  0  0  0  0
 16 19  1  0  0  0  0
 16 21  2  0  0  0  0
 17 34  1  0  0  0  0
 18 35  1  0  0  0  0
 19 24  1  0  0  0  0
 19 36  1  0  0  0  0
 19 37  1  0  0  0  0
 20 23  2  0  0  0  0
 20 38  1  0  0  0  0
 21 23  1  0  0  0  0
 22 25  2  0  0  0  0
 22 39  1  0  0  0  0
 23 40  1  0  0  0  0
 24 26  2  0  0  0  0
 24 41  1  0  0  0  0
 25 27  1  0  0  0  0
 25 28  1  0  0  0  0
 26 29  1  0  0  0  0
 26 30  1  0  0  0  0
 27 44  1  0  0  0  0
 27 45  1  0  0  0  0
 27 46  1  0  0  0  0
 28 47  1  0  0  0  0
 28 48  1  0  0  0  0
 28 49  1  0  0  0  0
 29 51  1  0  0  0  0
 29 52  1  0  0  0  0
 29 53  1  0  0  0  0
 30 50  1  0  0  0  0
 30 54  1  0  0  0  0
 30 55  1  0  0  0  0
M  END
>  <PUBCHEM_COMPOUND_CID>
480802

>  <PUBCHEM_COMPOUND_CANONICALIZED>
1

>  <PUBCHEM_CACTVS_COMPLEXITY>
713

>  <PUBCHEM_CACTVS_HBOND_ACCEPTOR>
5

>  <PUBCHEM_CACTVS_HBOND_DONOR>
3

>  <PUBCHEM_CACTVS_ROTATABLE_BOND>
5

>  <PUBCHEM_CACTVS_SUBSKEYS>
AAADceB4OAAAAAAAAAAAAAAAAAAAAAAAAAAwYIAAAAAAAACBQAAAGgAACAAADASAmAAyBoAABgCIAqBSAAACCAAkIAAIiAEGCMgMJzaGNRqCeWCl4BUIuQeI7OzOIAACCAAIAABAAAQQABAAAAAAAAAAAA==

>  <PUBCHEM_IUPAC_OPENEYE_NAME>
5,7-dihydroxy-2-[4-hydroxy-3-(3-methylbut-2-enyl)phenyl]-6-(3-methylbut-2-enyl)chromen-4-one

>  <PUBCHEM_IUPAC_CAS_NAME>
5,7-dihydroxy-2-[4-hydroxy-3-(3-methylbut-2-enyl)phenyl]-6-(3-methylbut-2-enyl)-1-benzopyran-4-one

>  <PUBCHEM_IUPAC_NAME>
5,7-dihydroxy-2-[4-hydroxy-3-(3-methylbut-2-enyl)phenyl]-6-(3-methylbut-2-enyl)chromen-4-one

>  <PUBCHEM_IUPAC_SYSTEMATIC_NAME>
6-(3-methylbut-2-enyl)-2-[3-(3-methylbut-2-enyl)-4-oxidanyl-phenyl]-5,7-bis(oxidanyl)chromen-4-one

>  <PUBCHEM_IUPAC_TRADITIONAL_NAME>
5,7-dihydroxy-2-[4-hydroxy-3-(3-methylbut-2-enyl)phenyl]-6-(3-methylbut-2-enyl)chromone

>  <PUBCHEM_IUPAC_INCHI>
InChI=1S/C25H26O5/c1-14(2)5-7-16-11-17(8-10-19(16)26)22-13-21(28)24-23(30-22)12-20(27)18(25(24)29)9-6-15(3)4/h5-6,8,10-13,26-27,29H,7,9H2,1-4H3

>  <PUBCHEM_IUPAC_INCHIKEY>
WGNIVAMNAWBYRO-UHFFFAOYSA-N

>  <PUBCHEM_XLOGP3_AA>
6.5

>  <PUBCHEM_EXACT_MASS>
406.178

>  <PUBCHEM_MOLECULAR_FORMULA>
C25H26O5

>  <PUBCHEM_MOLECULAR_WEIGHT>
406.478

>  <PUBCHEM_OPENEYE_CAN_SMILES>
CC(=CCC1=C(C=CC(=C1)C2=CC(=O)C3=C(C(=C(C=C3O2)O)CC=C(C)C)O)O)C

>  <PUBCHEM_OPENEYE_ISO_SMILES>
CC(=CCC1=C(C=CC(=C1)C2=CC(=O)C3=C(C(=C(C=C3O2)O)CC=C(C)C)O)O)C

>  <PUBCHEM_CACTVS_TPSA>
87

>  <PUBCHEM_MONOISOTOPIC_WEIGHT>
406.178

>  <PUBCHEM_TOTAL_CHARGE>
0

>  <PUBCHEM_HEAVY_ATOM_COUNT>
30

>  <PUBCHEM_ATOM_DEF_STEREO_COUNT>
0

>  <PUBCHEM_ATOM_UDEF_STEREO_COUNT>
0

>  <PUBCHEM_BOND_DEF_STEREO_COUNT>
0

>  <PUBCHEM_BOND_UDEF_STEREO_COUNT>
0

>  <PUBCHEM_ISOTOPIC_ATOM_COUNT>
0

>  <PUBCHEM_COMPONENT_COUNT>
1

>  <PUBCHEM_CACTVS_TAUTO_COUNT>
69

>  <PUBCHEM_COORDINATE_TYPE>
1
5
255

>  <PUBCHEM_BONDANNOTATIONS>
1  10  8
1  8  8
10  17  8
12  18  8
12  20  8
13  14  8
15  17  8
16  18  8
16  21  8
20  23  8
21  23  8
6  15  8
6  8  8
6  9  8
7  13  8
7  9  8
8  14  8

$$$$
