480817
 OpenBabel06101807152D

 43 45  0  0  0  0  0  0  0  0999 V2000
    4.3198    2.1212    0.0000 O   0  0  0  0  0  0  0  0  0  0  0  0
    2.5381   -0.9376    0.0000 O   0  0  0  0  0  0  0  0  0  0  0  0
    8.7202    2.6317    0.0000 O   0  0  0  0  0  0  0  0  0  0  0  0
    6.9464    3.6558    0.0000 O   0  0  0  0  0  0  0  0  0  0  0  0
    5.2022   -0.4134    0.0000 C   0  0  0  0  0  0  0  0  0  0  0  0
    6.0682   -0.9134    0.0000 C   0  0  0  0  0  0  0  0  0  0  0  0
    6.9343   -0.4134    0.0000 C   0  0  0  0  0  0  0  0  0  0  0  0
    5.2022    0.5866    0.0000 C   0  0  0  0  0  0  0  0  0  0  0  0
    6.9343    0.5866    0.0000 C   0  0  0  0  0  0  0  0  0  0  0  0
    6.0682    1.0866    0.0000 C   0  0  0  0  0  0  0  0  0  0  0  0
    4.3083   -0.9481    0.0000 C   0  0  0  0  0  0  0  0  0  0  0  0
    4.3083    1.1212    0.0000 C   0  0  0  0  0  0  0  0  0  0  0  0
    4.3198   -1.9480    0.0000 C   0  0  0  0  0  0  0  0  0  0  0  0
    3.4022   -0.4342    0.0000 C   0  0  0  0  0  0  0  0  0  0  0  0
    7.8443    1.0934    0.0000 C   0  0  0  0  0  0  0  0  0  0  0  0
    6.0522    2.1281    0.0000 C   0  0  0  0  0  0  0  0  0  0  0  0
    3.4022    0.6074    0.0000 C   0  0  0  0  0  0  0  0  0  0  0  0
    7.8523    2.1350    0.0000 C   0  0  0  0  0  0  0  0  0  0  0  0
    6.9502    2.6558    0.0000 C   0  0  0  0  0  0  0  0  0  0  0  0
    3.4597   -2.4580    0.0000 C   0  0  0  0  0  0  0  0  0  0  0  0
    3.4712   -3.4579    0.0000 C   0  0  0  0  0  0  0  0  0  0  0  0
    2.6110   -3.9679    0.0000 C   0  0  0  0  0  0  0  0  0  0  0  0
    4.3430   -3.9479    0.0000 C   0  0  0  0  0  0  0  0  0  0  0  0
    5.6697   -1.3884    0.0000 H   0  0  0  0  0  0  0  0  0  0  0  0
    6.4668   -1.3884    0.0000 H   0  0  0  0  0  0  0  0  0  0  0  0
    7.1463   -0.9960    0.0000 H   0  0  0  0  0  0  0  0  0  0  0  0
    7.5449   -0.3058    0.0000 H   0  0  0  0  0  0  0  0  0  0  0  0
    4.5386   -2.5281    0.0000 H   0  0  0  0  0  0  0  0  0  0  0  0
    4.9291   -1.8333    0.0000 H   0  0  0  0  0  0  0  0  0  0  0  0
    8.3776    0.7772    0.0000 H   0  0  0  0  0  0  0  0  0  0  0  0
    5.5117    2.4319    0.0000 H   0  0  0  0  0  0  0  0  0  0  0  0
    2.8665    0.9195    0.0000 H   0  0  0  0  0  0  0  0  0  0  0  0
    2.9192   -2.1542    0.0000 H   0  0  0  0  0  0  0  0  0  0  0  0
    3.7865    2.4374    0.0000 H   0  0  0  0  0  0  0  0  0  0  0  0
    2.0000   -0.6296    0.0000 H   0  0  0  0  0  0  0  0  0  0  0  0
    9.2560    2.3196    0.0000 H   0  0  0  0  0  0  0  0  0  0  0  0
    7.4821    3.9679    0.0000 H   0  0  0  0  0  0  0  0  0  0  0  0
    2.2948   -3.4346    0.0000 H   0  0  0  0  0  0  0  0  0  0  0  0
    2.0777   -4.2841    0.0000 H   0  0  0  0  0  0  0  0  0  0  0  0
    4.0392   -4.4884    0.0000 H   0  0  0  0  0  0  0  0  0  0  0  0
    4.8835   -4.2516    0.0000 H   0  0  0  0  0  0  0  0  0  0  0  0
    4.6468   -3.4074    0.0000 H   0  0  0  0  0  0  0  0  0  0  0  0
    2.9272   -4.5012    0.0000 H   0  0  0  0  0  0  0  0  0  0  0  0
  1 12  1  0  0  0  0
  1 34  1  0  0  0  0
  2 14  1  0  0  0  0
  2 35  1  0  0  0  0
  3 18  1  0  0  0  0
  3 36  1  0  0  0  0
  4 19  1  0  0  0  0
  4 37  1  0  0  0  0
  5  6  1  0  0  0  0
  5  8  1  0  0  0  0
  5 11  2  0  0  0  0
  6  7  1  0  0  0  0
  6 24  1  0  0  0  0
  6 25  1  0  0  0  0
  7  9  1  0  0  0  0
  7 26  1  0  0  0  0
  7 27  1  0  0  0  0
  8 10  1  0  0  0  0
  8 12  2  0  0  0  0
  9 10  1  0  0  0  0
  9 15  2  0  0  0  0
 10 16  2  0  0  0  0
 11 13  1  0  0  0  0
 11 14  1  0  0  0  0
 12 17  1  0  0  0  0
 13 20  1  0  0  0  0
 13 28  1  0  0  0  0
 13 29  1  0  0  0  0
 14 17  2  0  0  0  0
 15 18  1  0  0  0  0
 15 30  1  0  0  0  0
 16 19  1  0  0  0  0
 16 31  1  0  0  0  0
 17 32  1  0  0  0  0
 18 19  2  0  0  0  0
 20 21  2  0  0  0  0
 20 33  1  0  0  0  0
 21 22  1  0  0  0  0
 21 23  1  0  0  0  0
 22 38  1  0  0  0  0
 22 39  1  0  0  0  0
 22 43  1  0  0  0  0
 23 40  1  0  0  0  0
 23 41  1  0  0  0  0
 23 42  1  0  0  0  0
M  END
>  <PUBCHEM_COMPOUND_CID>
480817

>  <PUBCHEM_COMPOUND_CANONICALIZED>
1

>  <PUBCHEM_CACTVS_COMPLEXITY>
445

>  <PUBCHEM_CACTVS_HBOND_ACCEPTOR>
4

>  <PUBCHEM_CACTVS_HBOND_DONOR>
4

>  <PUBCHEM_CACTVS_ROTATABLE_BOND>
2

>  <PUBCHEM_CACTVS_SUBSKEYS>
AAADceB4OAAAAAAAAAAAAAAAAAAAAAAAAAAwYMAAAAAAAADBQAAAGgAACAAADASAmAAyBoAAAgCAAiBCAAACAAAgIAAAiAAGiIgJJyKCERKAcAElwBUJmAeA4PQOoAADCAAYQADAAAYQADCAAAAAAAAAAA==

>  <PUBCHEM_IUPAC_OPENEYE_NAME>
8-(3-methylbut-2-enyl)-9,10-dihydrophenanthrene-2,3,5,7-tetrol

>  <PUBCHEM_IUPAC_CAS_NAME>
8-(3-methylbut-2-enyl)-9,10-dihydrophenanthrene-2,3,5,7-tetrol

>  <PUBCHEM_IUPAC_NAME>
8-(3-methylbut-2-enyl)-9,10-dihydrophenanthrene-2,3,5,7-tetrol

>  <PUBCHEM_IUPAC_SYSTEMATIC_NAME>
8-(3-methylbut-2-enyl)-9,10-dihydrophenanthrene-2,3,5,7-tetrol

>  <PUBCHEM_IUPAC_TRADITIONAL_NAME>
8-(3-methylbut-2-enyl)-9,10-dihydrophenanthrene-2,3,5,7-tetrol

>  <PUBCHEM_IUPAC_INCHI>
InChI=1S/C19H20O4/c1-10(2)3-5-12-13-6-4-11-7-16(21)17(22)8-14(11)19(13)18(23)9-15(12)20/h3,7-9,20-23H,4-6H2,1-2H3

>  <PUBCHEM_IUPAC_INCHIKEY>
UEXOPXIMQJMWKA-UHFFFAOYSA-N

>  <PUBCHEM_XLOGP3_AA>
4.3

>  <PUBCHEM_EXACT_MASS>
312.136

>  <PUBCHEM_MOLECULAR_FORMULA>
C19H20O4

>  <PUBCHEM_MOLECULAR_WEIGHT>
312.365

>  <PUBCHEM_OPENEYE_CAN_SMILES>
CC(=CCC1=C(C=C(C2=C1CCC3=CC(=C(C=C32)O)O)O)O)C

>  <PUBCHEM_OPENEYE_ISO_SMILES>
CC(=CCC1=C(C=C(C2=C1CCC3=CC(=C(C=C32)O)O)O)O)C

>  <PUBCHEM_CACTVS_TPSA>
80.9

>  <PUBCHEM_MONOISOTOPIC_WEIGHT>
312.136

>  <PUBCHEM_TOTAL_CHARGE>
0

>  <PUBCHEM_HEAVY_ATOM_COUNT>
23

>  <PUBCHEM_ATOM_DEF_STEREO_COUNT>
0

>  <PUBCHEM_ATOM_UDEF_STEREO_COUNT>
0

>  <PUBCHEM_BOND_DEF_STEREO_COUNT>
0

>  <PUBCHEM_BOND_UDEF_STEREO_COUNT>
0

>  <PUBCHEM_ISOTOPIC_ATOM_COUNT>
0

>  <PUBCHEM_COMPONENT_COUNT>
1

>  <PUBCHEM_CACTVS_TAUTO_COUNT>
727

>  <PUBCHEM_COORDINATE_TYPE>
1
5
255

>  <PUBCHEM_BONDANNOTATIONS>
10  16  8
11  14  8
12  17  8
14  17  8
15  18  8
16  19  8
18  19  8
5  11  8
5  8  8
8  12  8
9  10  8
9  15  8

$$$$
