482558
 OpenBabel06101807152D

 33 35  0  0  0  0  0  0  0  0999 V2000
    7.2785    1.9377    0.0000 O   0  0  0  0  0  0  0  0  0  0  0  0
    3.7817   -2.1315    0.0000 O   0  0  0  0  0  0  0  0  0  0  0  0
    5.5301    1.9031    0.0000 O   0  0  0  0  0  0  0  0  0  0  0  0
    5.5301   -2.0969    0.0000 O   0  0  0  0  0  0  0  0  0  0  0  0
    9.0602    0.9273    0.0000 O   0  0  0  0  0  0  0  0  0  0  0  0
    4.6641   -0.5969    0.0000 C   0  0  0  0  0  0  0  0  0  0  0  0
    4.6641    0.4031    0.0000 C   0  0  0  0  0  0  0  0  0  0  0  0
    6.3961    0.4031    0.0000 C   0  0  0  0  0  0  0  0  0  0  0  0
    6.3961   -0.5969    0.0000 C   0  0  0  0  0  0  0  0  0  0  0  0
    5.5301    0.9031    0.0000 C   0  0  0  0  0  0  0  0  0  0  0  0
    5.5301   -1.0969    0.0000 C   0  0  0  0  0  0  0  0  0  0  0  0
    3.7702   -1.1316    0.0000 C   0  0  0  0  0  0  0  0  0  0  0  0
    7.2901    0.9378    0.0000 C   0  0  0  0  0  0  0  0  0  0  0  0
    2.8641   -0.6177    0.0000 C   0  0  0  0  0  0  0  0  0  0  0  0
    3.7702    0.9378    0.0000 C   0  0  0  0  0  0  0  0  0  0  0  0
    7.2901   -1.1316    0.0000 C   0  0  0  0  0  0  0  0  0  0  0  0
    2.8641    0.4239    0.0000 C   0  0  0  0  0  0  0  0  0  0  0  0
    8.1962    0.4239    0.0000 C   0  0  0  0  0  0  0  0  0  0  0  0
    8.1962   -0.6177    0.0000 C   0  0  0  0  0  0  0  0  0  0  0  0
    2.0000   -1.1211    0.0000 C   0  0  0  0  0  0  0  0  0  0  0  0
    8.1387    2.4477    0.0000 C   0  0  0  0  0  0  0  0  0  0  0  0
    3.7773    1.5577    0.0000 H   0  0  0  0  0  0  0  0  0  0  0  0
    7.2829   -1.7515    0.0000 H   0  0  0  0  0  0  0  0  0  0  0  0
    2.3284    0.7360    0.0000 H   0  0  0  0  0  0  0  0  0  0  0  0
    8.7319   -0.9298    0.0000 H   0  0  0  0  0  0  0  0  0  0  0  0
    1.6879   -0.5853    0.0000 H   0  0  0  0  0  0  0  0  0  0  0  0
    1.4643   -1.4331    0.0000 H   0  0  0  0  0  0  0  0  0  0  0  0
    2.3121   -1.6568    0.0000 H   0  0  0  0  0  0  0  0  0  0  0  0
    3.2484   -2.4477    0.0000 H   0  0  0  0  0  0  0  0  0  0  0  0
    9.5984    0.6193    0.0000 H   0  0  0  0  0  0  0  0  0  0  0  0
    8.4549    1.9144    0.0000 H   0  0  0  0  0  0  0  0  0  0  0  0
    8.6720    2.7639    0.0000 H   0  0  0  0  0  0  0  0  0  0  0  0
    7.8225    2.9810    0.0000 H   0  0  0  0  0  0  0  0  0  0  0  0
  1 13  1  0  0  0  0
  1 21  1  0  0  0  0
  2 12  1  0  0  0  0
  2 29  1  0  0  0  0
  3 10  2  0  0  0  0
  4 11  2  0  0  0  0
  5 18  1  0  0  0  0
  5 30  1  0  0  0  0
  6  7  2  0  0  0  0
  6 11  1  0  0  0  0
  6 12  1  0  0  0  0
  7 10  1  0  0  0  0
  7 15  1  0  0  0  0
  8  9  2  0  0  0  0
  8 10  1  0  0  0  0
  8 13  1  0  0  0  0
  9 11  1  0  0  0  0
  9 16  1  0  0  0  0
 12 14  2  0  0  0  0
 13 18  2  0  0  0  0
 14 17  1  0  0  0  0
 14 20  1  0  0  0  0
 15 17  2  0  0  0  0
 15 22  1  0  0  0  0
 16 19  2  0  0  0  0
 16 23  1  0  0  0  0
 17 24  1  0  0  0  0
 18 19  1  0  0  0  0
 19 25  1  0  0  0  0
 20 26  1  0  0  0  0
 20 27  1  0  0  0  0
 20 28  1  0  0  0  0
 21 31  1  0  0  0  0
 21 32  1  0  0  0  0
 21 33  1  0  0  0  0
M  END
>  <PUBCHEM_COMPOUND_CID>
482558

>  <PUBCHEM_COMPOUND_CANONICALIZED>
1

>  <PUBCHEM_CACTVS_COMPLEXITY>
448

>  <PUBCHEM_CACTVS_HBOND_ACCEPTOR>
5

>  <PUBCHEM_CACTVS_HBOND_DONOR>
2

>  <PUBCHEM_CACTVS_ROTATABLE_BOND>
1

>  <PUBCHEM_CACTVS_SUBSKEYS>
AAADccB4OAAAAAAAAAAAAAAAAAAAAAAAAAAwYMAAAAAAAADBQAAAGgAACAAADASAmAIyBoAABgCIAqBSAAACCAAkIAAIiAEGiMgNJjaGNRqAcWMk4BELuYeLzPDO4AADAAAYQADAAAYAADCAAAAAAAAAAA==

>  <PUBCHEM_IUPAC_OPENEYE_NAME>
1,6-dihydroxy-5-methoxy-2-methyl-anthracene-9,10-dione

>  <PUBCHEM_IUPAC_CAS_NAME>
1,6-dihydroxy-5-methoxy-2-methylanthracene-9,10-dione

>  <PUBCHEM_IUPAC_NAME>
1,6-dihydroxy-5-methoxy-2-methylanthracene-9,10-dione

>  <PUBCHEM_IUPAC_SYSTEMATIC_NAME>
1-methoxy-6-methyl-2,5-bis(oxidanyl)anthracene-9,10-dione

>  <PUBCHEM_IUPAC_TRADITIONAL_NAME>
1,6-dihydroxy-5-methoxy-2-methyl-9,10-anthraquinone

>  <PUBCHEM_IUPAC_INCHI>
InChI=1S/C16H12O5/c1-7-3-4-8-11(13(7)18)14(19)9-5-6-10(17)16(21-2)12(9)15(8)20/h3-6,17-18H,1-2H3

>  <PUBCHEM_IUPAC_INCHIKEY>
QJRHLPRUPYDZHC-UHFFFAOYSA-N

>  <PUBCHEM_XLOGP3_AA>
3

>  <PUBCHEM_EXACT_MASS>
284.068

>  <PUBCHEM_MOLECULAR_FORMULA>
C16H12O5

>  <PUBCHEM_MOLECULAR_WEIGHT>
284.267

>  <PUBCHEM_OPENEYE_CAN_SMILES>
CC1=C(C2=C(C=C1)C(=O)C3=C(C2=O)C=CC(=C3OC)O)O

>  <PUBCHEM_OPENEYE_ISO_SMILES>
CC1=C(C2=C(C=C1)C(=O)C3=C(C2=O)C=CC(=C3OC)O)O

>  <PUBCHEM_CACTVS_TPSA>
83.8

>  <PUBCHEM_MONOISOTOPIC_WEIGHT>
284.068

>  <PUBCHEM_TOTAL_CHARGE>
0

>  <PUBCHEM_HEAVY_ATOM_COUNT>
21

>  <PUBCHEM_ATOM_DEF_STEREO_COUNT>
0

>  <PUBCHEM_ATOM_UDEF_STEREO_COUNT>
0

>  <PUBCHEM_BOND_DEF_STEREO_COUNT>
0

>  <PUBCHEM_BOND_UDEF_STEREO_COUNT>
0

>  <PUBCHEM_ISOTOPIC_ATOM_COUNT>
0

>  <PUBCHEM_COMPONENT_COUNT>
1

>  <PUBCHEM_CACTVS_TAUTO_COUNT>
90

>  <PUBCHEM_COORDINATE_TYPE>
1
5
255

>  <PUBCHEM_BONDANNOTATIONS>
12  14  8
13  18  8
14  17  8
15  17  8
16  19  8
18  19  8
6  12  8
6  7  8
7  15  8
8  13  8
8  9  8
9  16  8

$$$$
