483513
 OpenBabel06101807152D

 38 40  0  0  1  0  0  0  0  0999 V2000
    5.5301   -0.0427    0.0000 O   0  0  0  0  0  0  0  0  0  0  0  0
    8.1282    2.4573    0.0000 O   0  0  0  0  0  0  0  0  0  0  0  0
    5.5301    1.9573    0.0000 O   0  0  0  0  0  0  0  0  0  0  0  0
    7.3424   -2.8474    0.0000 O   0  0  0  0  0  0  0  0  0  0  0  0
    3.7702   -3.0773    0.0000 O   0  0  0  0  0  0  0  0  0  0  0  0
    2.0000   -3.0668    0.0000 O   0  0  0  0  0  0  0  0  0  0  0  0
    7.2622    1.9573    0.0000 C   0  0  0  0  0  0  0  0  0  0  0  0
    6.3961    1.4573    0.0000 C   0  0  3  0  0  0  0  0  0  0  0  0
    6.3961    0.4573    0.0000 C   0  0  0  0  0  0  0  0  0  0  0  0
    6.7622    2.8234    0.0000 C   0  0  0  0  0  0  0  0  0  0  0  0
    7.7622    1.0913    0.0000 C   0  0  0  0  0  0  0  0  0  0  0  0
    5.5301   -1.0427    0.0000 C   0  0  0  0  0  0  0  0  0  0  0  0
    6.3961   -1.5427    0.0000 C   0  0  0  0  0  0  0  0  0  0  0  0
    4.6641   -1.5427    0.0000 C   0  0  0  0  0  0  0  0  0  0  0  0
    6.3961   -2.5427    0.0000 C   0  0  0  0  0  0  0  0  0  0  0  0
    4.6641   -2.5427    0.0000 C   0  0  0  0  0  0  0  0  0  0  0  0
    5.5301   -3.0427    0.0000 C   0  0  0  0  0  0  0  0  0  0  0  0
    7.3424   -1.2379    0.0000 C   0  0  0  0  0  0  0  0  0  0  0  0
    3.7702   -1.0080    0.0000 C   0  0  0  0  0  0  0  0  0  0  0  0
    7.9260   -2.0427    0.0000 C   0  0  0  0  0  0  0  0  0  0  0  0
    2.8641   -1.5218    0.0000 C   0  0  0  0  0  0  0  0  0  0  0  0
    2.8641   -2.5635    0.0000 C   0  0  0  0  0  0  0  0  0  0  0  0
    5.8592    1.1473    0.0000 H   0  0  0  0  0  0  0  0  0  0  0  0
    6.6082   -0.1253    0.0000 H   0  0  0  0  0  0  0  0  0  0  0  0
    7.0067    0.5650    0.0000 H   0  0  0  0  0  0  0  0  0  0  0  0
    7.2252    0.7813    0.0000 H   0  0  0  0  0  0  0  0  0  0  0  0
    8.0722    0.5544    0.0000 H   0  0  0  0  0  0  0  0  0  0  0  0
    7.2991    3.1334    0.0000 H   0  0  0  0  0  0  0  0  0  0  0  0
    6.4522    3.3603    0.0000 H   0  0  0  0  0  0  0  0  0  0  0  0
    6.2252    2.5134    0.0000 H   0  0  0  0  0  0  0  0  0  0  0  0
    8.2991    1.4013    0.0000 H   0  0  0  0  0  0  0  0  0  0  0  0
    8.1282    3.0773    0.0000 H   0  0  0  0  0  0  0  0  0  0  0  0
    5.5301    2.5773    0.0000 H   0  0  0  0  0  0  0  0  0  0  0  0
    5.5301   -3.6627    0.0000 H   0  0  0  0  0  0  0  0  0  0  0  0
    7.5350   -0.6486    0.0000 H   0  0  0  0  0  0  0  0  0  0  0  0
    3.7773   -0.3880    0.0000 H   0  0  0  0  0  0  0  0  0  0  0  0
    8.5460   -2.0427    0.0000 H   0  0  0  0  0  0  0  0  0  0  0  0
    2.3284   -1.2098    0.0000 H   0  0  0  0  0  0  0  0  0  0  0  0
  1  9  1  0  0  0  0
  1 12  1  0  0  0  0
  2  7  1  0  0  0  0
  2 32  1  0  0  0  0
  3  8  1  0  0  0  0
  3 33  1  0  0  0  0
  4 15  1  0  0  0  0
  4 20  1  0  0  0  0
  5 16  1  0  0  0  0
  5 22  1  0  0  0  0
  6 22  2  0  0  0  0
  7  8  1  0  0  0  0
  7 10  1  0  0  0  0
  7 11  1  0  0  0  0
  8  9  1  0  0  0  0
  8 23  1  0  0  0  0
  9 24  1  0  0  0  0
  9 25  1  0  0  0  0
 10 28  1  0  0  0  0
 10 29  1  0  0  0  0
 10 30  1  0  0  0  0
 11 26  1  0  0  0  0
 11 27  1  0  0  0  0
 11 31  1  0  0  0  0
 12 13  1  0  0  0  0
 12 14  2  0  0  0  0
 13 15  2  0  0  0  0
 13 18  1  0  0  0  0
 14 16  1  0  0  0  0
 14 19  1  0  0  0  0
 15 17  1  0  0  0  0
 16 17  2  0  0  0  0
 17 34  1  0  0  0  0
 18 20  2  0  0  0  0
 18 35  1  0  0  0  0
 19 21  2  0  0  0  0
 19 36  1  0  0  0  0
 20 37  1  0  0  0  0
 21 22  1  0  0  0  0
 21 38  1  0  0  0  0
M  END
>  <PUBCHEM_COMPOUND_CID>
483513

>  <PUBCHEM_COMPOUND_CANONICALIZED>
1

>  <PUBCHEM_CACTVS_COMPLEXITY>
460

>  <PUBCHEM_CACTVS_HBOND_ACCEPTOR>
6

>  <PUBCHEM_CACTVS_HBOND_DONOR>
2

>  <PUBCHEM_CACTVS_ROTATABLE_BOND>
4

>  <PUBCHEM_CACTVS_SUBSKEYS>
AAADceB4OAAAAAAAAAAAAAAAAAAAASAAAAAwQAAAAAAAAEiB8AAAGgAACAAADFSgmAIyDsAABkCIAqjSiAACCAAkIAAIiAEGCMgNNzaENBqCe2Cl4BULqYfK7PzOIAACCAAIAABAAAQQABAAAAAAAAAAAA==

>  <PUBCHEM_IUPAC_OPENEYE_NAME>
4-(2,3-dihydroxy-3-methyl-butoxy)furo[3,2-g]chromen-7-one

>  <PUBCHEM_IUPAC_CAS_NAME>
4-(2,3-dihydroxy-3-methylbutoxy)-7-furo[3,2-g][1]benzopyranone

>  <PUBCHEM_IUPAC_NAME>
4-(2,3-dihydroxy-3-methylbutoxy)furo[3,2-g]chromen-7-one

>  <PUBCHEM_IUPAC_SYSTEMATIC_NAME>
4-[3-methyl-2,3-bis(oxidanyl)butoxy]furo[3,2-g]chromen-7-one

>  <PUBCHEM_IUPAC_TRADITIONAL_NAME>
4-(2,3-dihydroxy-3-methyl-butoxy)furo[3,2-g]chromen-7-one

>  <PUBCHEM_IUPAC_INCHI>
InChI=1S/C16H16O6/c1-16(2,19)13(17)8-21-15-9-3-4-14(18)22-12(9)7-11-10(15)5-6-20-11/h3-7,13,17,19H,8H2,1-2H3

>  <PUBCHEM_IUPAC_INCHIKEY>
PEWFWDOPJISUOK-UHFFFAOYSA-N

>  <PUBCHEM_XLOGP3_AA>
1.6

>  <PUBCHEM_EXACT_MASS>
304.095

>  <PUBCHEM_MOLECULAR_FORMULA>
C16H16O6

>  <PUBCHEM_MOLECULAR_WEIGHT>
304.298

>  <PUBCHEM_OPENEYE_CAN_SMILES>
CC(C)(C(COC1=C2C=CC(=O)OC2=CC3=C1C=CO3)O)O

>  <PUBCHEM_OPENEYE_ISO_SMILES>
CC(C)(C(COC1=C2C=CC(=O)OC2=CC3=C1C=CO3)O)O

>  <PUBCHEM_CACTVS_TPSA>
89.1

>  <PUBCHEM_MONOISOTOPIC_WEIGHT>
304.095

>  <PUBCHEM_TOTAL_CHARGE>
0

>  <PUBCHEM_HEAVY_ATOM_COUNT>
22

>  <PUBCHEM_ATOM_DEF_STEREO_COUNT>
0

>  <PUBCHEM_ATOM_UDEF_STEREO_COUNT>
1

>  <PUBCHEM_BOND_DEF_STEREO_COUNT>
0

>  <PUBCHEM_BOND_UDEF_STEREO_COUNT>
0

>  <PUBCHEM_ISOTOPIC_ATOM_COUNT>
0

>  <PUBCHEM_COMPONENT_COUNT>
1

>  <PUBCHEM_CACTVS_TAUTO_COUNT>
1

>  <PUBCHEM_COORDINATE_TYPE>
1
5
255

>  <PUBCHEM_BONDANNOTATIONS>
12  13  8
12  14  8
13  15  8
13  18  8
14  16  8
14  19  8
15  17  8
16  17  8
18  20  8
19  21  8
21  22  8
8  3  3
4  15  8
4  20  8
5  16  8
5  22  8

$$$$
