483516
 OpenBabel06101807152D

 37 39  0  0  1  0  0  0  0  0999 V2000
    5.5301    0.0173    0.0000 O   0  0  0  0  0  0  0  0  0  0  0  0
    7.3424   -2.7874    0.0000 O   0  0  0  0  0  0  0  0  0  0  0  0
    5.5301    2.0173    0.0000 O   0  0  0  0  0  0  0  0  0  0  0  0
    2.0000   -3.0068    0.0000 O   0  0  0  0  0  0  0  0  0  0  0  0
    4.6641   -2.4827    0.0000 C   0  0  0  0  0  0  0  0  0  0  0  0
    4.6641   -1.4827    0.0000 C   0  0  0  0  0  0  0  0  0  0  0  0
    5.5301   -0.9827    0.0000 C   0  0  0  0  0  0  0  0  0  0  0  0
    6.3961   -1.4827    0.0000 C   0  0  0  0  0  0  0  0  0  0  0  0
    3.7702   -3.0173    0.0000 C   0  0  0  0  0  0  0  0  0  0  0  0
    6.3961   -2.4827    0.0000 C   0  0  0  0  0  0  0  0  0  0  0  0
    5.5301   -2.9827    0.0000 C   0  0  0  0  0  0  0  0  0  0  0  0
    3.7702   -0.9480    0.0000 C   0  0  0  0  0  0  0  0  0  0  0  0
    6.3961    0.5173    0.0000 C   0  0  0  0  0  0  0  0  0  0  0  0
    6.3961    1.5173    0.0000 C   0  0  3  0  0  0  0  0  0  0  0  0
    2.8641   -2.5035    0.0000 C   0  0  0  0  0  0  0  0  0  0  0  0
    7.3424   -1.1779    0.0000 C   0  0  0  0  0  0  0  0  0  0  0  0
    2.8641   -1.4619    0.0000 C   0  0  0  0  0  0  0  0  0  0  0  0
    7.9260   -1.9827    0.0000 C   0  0  0  0  0  0  0  0  0  0  0  0
    7.2622    2.0173    0.0000 C   0  0  0  0  0  0  0  0  0  0  0  0
    7.2622    3.0173    0.0000 C   0  0  0  0  0  0  0  0  0  0  0  0
    8.1282    1.5173    0.0000 C   0  0  0  0  0  0  0  0  0  0  0  0
    3.3765   -3.4964    0.0000 H   0  0  0  0  0  0  0  0  0  0  0  0
    4.1748   -3.4871    0.0000 H   0  0  0  0  0  0  0  0  0  0  0  0
    5.5301   -3.6027    0.0000 H   0  0  0  0  0  0  0  0  0  0  0  0
    3.7773   -0.3280    0.0000 H   0  0  0  0  0  0  0  0  0  0  0  0
    6.6082   -0.0653    0.0000 H   0  0  0  0  0  0  0  0  0  0  0  0
    7.0067    0.6250    0.0000 H   0  0  0  0  0  0  0  0  0  0  0  0
    5.8592    1.2073    0.0000 H   0  0  0  0  0  0  0  0  0  0  0  0
    7.5350   -0.5886    0.0000 H   0  0  0  0  0  0  0  0  0  0  0  0
    2.3284   -1.1498    0.0000 H   0  0  0  0  0  0  0  0  0  0  0  0
    8.5460   -1.9827    0.0000 H   0  0  0  0  0  0  0  0  0  0  0  0
    7.8822    3.0173    0.0000 H   0  0  0  0  0  0  0  0  0  0  0  0
    7.2622    3.6373    0.0000 H   0  0  0  0  0  0  0  0  0  0  0  0
    6.6422    3.0173    0.0000 H   0  0  0  0  0  0  0  0  0  0  0  0
    5.5301    2.6373    0.0000 H   0  0  0  0  0  0  0  0  0  0  0  0
    8.1282    0.8973    0.0000 H   0  0  0  0  0  0  0  0  0  0  0  0
    8.6651    1.8273    0.0000 H   0  0  0  0  0  0  0  0  0  0  0  0
  1  7  1  0  0  0  0
  1 13  1  0  0  0  0
  2 10  1  0  0  0  0
  2 18  1  0  0  0  0
  3 14  1  0  0  0  0
  3 35  1  0  0  0  0
  4 15  2  0  0  0  0
  5  6  1  0  0  0  0
  5  9  1  0  0  0  0
  5 11  2  0  0  0  0
  6  7  2  0  0  0  0
  6 12  1  0  0  0  0
  7  8  1  0  0  0  0
  8 10  2  0  0  0  0
  8 16  1  0  0  0  0
  9 15  1  0  0  0  0
  9 22  1  0  0  0  0
  9 23  1  0  0  0  0
 10 11  1  0  0  0  0
 11 24  1  0  0  0  0
 12 17  2  0  0  0  0
 12 25  1  0  0  0  0
 13 14  1  0  0  0  0
 13 26  1  0  0  0  0
 13 27  1  0  0  0  0
 14 19  1  0  0  0  0
 14 28  1  0  0  0  0
 15 17  1  0  0  0  0
 16 18  2  0  0  0  0
 16 29  1  0  0  0  0
 17 30  1  0  0  0  0
 18 31  1  0  0  0  0
 19 20  1  0  0  0  0
 19 21  2  0  0  0  0
 20 32  1  0  0  0  0
 20 33  1  0  0  0  0
 20 34  1  0  0  0  0
 21 36  1  0  0  0  0
 21 37  1  0  0  0  0
M  END
>  <PUBCHEM_COMPOUND_CID>
483516

>  <PUBCHEM_COMPOUND_CANONICALIZED>
1

>  <PUBCHEM_CACTVS_COMPLEXITY>
456

>  <PUBCHEM_CACTVS_HBOND_ACCEPTOR>
4

>  <PUBCHEM_CACTVS_HBOND_DONOR>
1

>  <PUBCHEM_CACTVS_ROTATABLE_BOND>
4

>  <PUBCHEM_CACTVS_SUBSKEYS>
AAADceB4OAAAAAAAAAAAAAAAAAAAASAAAAAwQAAAAAAAAEiB8AAAGgAACAAADBSgmAIyBsAABkCIAqhSgAACCAAkIAAIiAEGCMgNNzaENRqCeWCl4BULuYfK7vzu4AADCAAYAADAAAYQADAAAAAAAAAAAA==

>  <PUBCHEM_IUPAC_OPENEYE_NAME>
4-(2-hydroxy-3-methyl-but-3-enoxy)-8H-benzo[f]benzofuran-7-one

>  <PUBCHEM_IUPAC_CAS_NAME>
4-(2-hydroxy-3-methylbut-3-enoxy)-8H-benzo[f]benzofuran-7-one

>  <PUBCHEM_IUPAC_NAME>
4-(2-hydroxy-3-methylbut-3-enoxy)-8H-benzo[f][1]benzofuran-7-one

>  <PUBCHEM_IUPAC_SYSTEMATIC_NAME>
4-(3-methyl-2-oxidanyl-but-3-enoxy)-8H-benzo[f][1]benzofuran-7-one

>  <PUBCHEM_IUPAC_TRADITIONAL_NAME>
4-(2-hydroxy-3-methyl-but-3-enoxy)-8H-benzo[f]benzofuran-7-one

>  <PUBCHEM_IUPAC_INCHI>
InChI=1S/C17H16O4/c1-10(2)15(19)9-21-17-13-4-3-12(18)7-11(13)8-16-14(17)5-6-20-16/h3-6,8,15,19H,1,7,9H2,2H3

>  <PUBCHEM_IUPAC_INCHIKEY>
ORMQKTROSKJKMC-UHFFFAOYSA-N

>  <PUBCHEM_XLOGP3_AA>
2.9

>  <PUBCHEM_EXACT_MASS>
284.105

>  <PUBCHEM_MOLECULAR_FORMULA>
C17H16O4

>  <PUBCHEM_MOLECULAR_WEIGHT>
284.311

>  <PUBCHEM_OPENEYE_CAN_SMILES>
CC(=C)C(COC1=C2C=CC(=O)CC2=CC3=C1C=CO3)O

>  <PUBCHEM_OPENEYE_ISO_SMILES>
CC(=C)C(COC1=C2C=CC(=O)CC2=CC3=C1C=CO3)O

>  <PUBCHEM_CACTVS_TPSA>
59.7

>  <PUBCHEM_MONOISOTOPIC_WEIGHT>
284.105

>  <PUBCHEM_TOTAL_CHARGE>
0

>  <PUBCHEM_HEAVY_ATOM_COUNT>
21

>  <PUBCHEM_ATOM_DEF_STEREO_COUNT>
0

>  <PUBCHEM_ATOM_UDEF_STEREO_COUNT>
1

>  <PUBCHEM_BOND_DEF_STEREO_COUNT>
0

>  <PUBCHEM_BOND_UDEF_STEREO_COUNT>
0

>  <PUBCHEM_ISOTOPIC_ATOM_COUNT>
0

>  <PUBCHEM_COMPONENT_COUNT>
1

>  <PUBCHEM_CACTVS_TAUTO_COUNT>
2

>  <PUBCHEM_COORDINATE_TYPE>
1
5
255

>  <PUBCHEM_BONDANNOTATIONS>
10  11  8
16  18  8
2  10  8
2  18  8
14  3  3
5  11  8
5  6  8
6  7  8
7  8  8
8  10  8
8  16  8

$$$$
