483806
 OpenBabel06101807152D

 50 52  0  0  1  0  0  0  0  0999 V2000
    5.8660    3.0000    0.0000 F   0  0  0  0  0  0  0  0  0  0  0  0
    4.8660    2.0000    0.0000 F   0  0  0  0  0  0  0  0  0  0  0  0
    6.7320    2.5000    0.0000 F   0  0  0  0  0  0  0  0  0  0  0  0
    6.8660    1.0000    0.0000 O   0  0  0  0  0  0  0  0  0  0  0  0
    7.5981    0.0000    0.0000 O   0  0  0  0  0  0  0  0  0  0  0  0
    6.7320   -1.5000    0.0000 N   0  0  0  0  0  0  0  0  0  0  0  0
    2.8660    1.0000    0.0000 C   0  0  0  0  0  0  0  0  0  0  0  0
    2.0000    1.5000    0.0000 C   0  0  0  0  0  0  0  0  0  0  0  0
    2.0000    0.5000    0.0000 C   0  0  0  0  0  0  0  0  0  0  0  0
    3.8660    1.0000    0.0000 C   0  0  0  0  0  0  0  0  0  0  0  0
    5.8660    1.0000    0.0000 C   0  0  1  0  0  0  0  0  0  0  0  0
    4.8660    1.0000    0.0000 C   0  0  0  0  0  0  0  0  0  0  0  0
    5.8660    0.0000    0.0000 C   0  0  0  0  0  0  0  0  0  0  0  0
    5.8660    2.0000    0.0000 C   0  0  0  0  0  0  0  0  0  0  0  0
    5.0000   -0.5000    0.0000 C   0  0  0  0  0  0  0  0  0  0  0  0
    5.0000   -1.5000    0.0000 C   0  0  0  0  0  0  0  0  0  0  0  0
    6.7320   -0.5000    0.0000 C   0  0  0  0  0  0  0  0  0  0  0  0
    5.8660   -2.0000    0.0000 C   0  0  0  0  0  0  0  0  0  0  0  0
    4.1340   -2.0000    0.0000 C   0  0  0  0  0  0  0  0  0  0  0  0
    7.3660    1.8660    0.0000 C   0  0  0  0  0  0  0  0  0  0  0  0
    5.8660   -3.0000    0.0000 C   0  0  0  0  0  0  0  0  0  0  0  0
    8.3660    1.8660    0.0000 C   0  0  0  0  0  0  0  0  0  0  0  0
    3.2680   -1.5000    0.0000 C   0  0  0  0  0  0  0  0  0  0  0  0
    8.8660    1.0000    0.0000 C   0  0  0  0  0  0  0  0  0  0  0  0
    8.8660    2.7320    0.0000 C   0  0  0  0  0  0  0  0  0  0  0  0
    9.8660    1.0000    0.0000 C   0  0  0  0  0  0  0  0  0  0  0  0
    9.8660    2.7320    0.0000 C   0  0  0  0  0  0  0  0  0  0  0  0
   10.3660    1.8660    0.0000 C   0  0  0  0  0  0  0  0  0  0  0  0
    3.0265    0.4011    0.0000 H   0  0  0  0  0  0  0  0  0  0  0  0
    2.2120    2.0826    0.0000 H   0  0  0  0  0  0  0  0  0  0  0  0
    1.3894    1.6077    0.0000 H   0  0  0  0  0  0  0  0  0  0  0  0
    1.3894    0.3923    0.0000 H   0  0  0  0  0  0  0  0  0  0  0  0
    2.2120   -0.0826    0.0000 H   0  0  0  0  0  0  0  0  0  0  0  0
    4.4631   -0.1900    0.0000 H   0  0  0  0  0  0  0  0  0  0  0  0
    7.2690   -1.8100    0.0000 H   0  0  0  0  0  0  0  0  0  0  0  0
    3.7354   -2.4750    0.0000 H   0  0  0  0  0  0  0  0  0  0  0  0
    4.5325   -2.4750    0.0000 H   0  0  0  0  0  0  0  0  0  0  0  0
    7.4737    2.4766    0.0000 H   0  0  0  0  0  0  0  0  0  0  0  0
    6.7834    2.0781    0.0000 H   0  0  0  0  0  0  0  0  0  0  0  0
    5.2460   -3.0000    0.0000 H   0  0  0  0  0  0  0  0  0  0  0  0
    5.8660   -3.6200    0.0000 H   0  0  0  0  0  0  0  0  0  0  0  0
    6.4860   -3.0000    0.0000 H   0  0  0  0  0  0  0  0  0  0  0  0
    3.5780   -0.9631    0.0000 H   0  0  0  0  0  0  0  0  0  0  0  0
    2.7310   -1.1900    0.0000 H   0  0  0  0  0  0  0  0  0  0  0  0
    2.9580   -2.0369    0.0000 H   0  0  0  0  0  0  0  0  0  0  0  0
    8.5560    0.4631    0.0000 H   0  0  0  0  0  0  0  0  0  0  0  0
    8.5560    3.2690    0.0000 H   0  0  0  0  0  0  0  0  0  0  0  0
   10.1760    0.4631    0.0000 H   0  0  0  0  0  0  0  0  0  0  0  0
   10.1760    3.2690    0.0000 H   0  0  0  0  0  0  0  0  0  0  0  0
   10.9860    1.8660    0.0000 H   0  0  0  0  0  0  0  0  0  0  0  0
  1 14  1  0  0  0  0
  2 14  1  0  0  0  0
  3 14  1  0  0  0  0
  4 20  1  0  0  0  0
  5 17  2  0  0  0  0
  6 17  1  0  0  0  0
  6 18  1  0  0  0  0
  6 35  1  0  0  0  0
  7  8  1  0  0  0  0
  7  9  1  0  0  0  0
  7 10  1  0  0  0  0
  7 29  1  0  0  0  0
  8  9  1  0  0  0  0
  8 30  1  0  0  0  0
  8 31  1  0  0  0  0
  9 32  1  0  0  0  0
  9 33  1  0  0  0  0
 10 12  3  0  0  0  0
 11  4  1  0  0  0  0
 11 12  1  6  0  0  0
 11 13  1  0  0  0  0
 11 14  1  0  0  0  0
 13 15  2  0  0  0  0
 13 17  1  0  0  0  0
 15 16  1  0  0  0  0
 15 34  1  0  0  0  0
 16 18  2  0  0  0  0
 16 19  1  0  0  0  0
 18 21  1  0  0  0  0
 19 23  1  0  0  0  0
 19 36  1  0  0  0  0
 19 37  1  0  0  0  0
 20 22  1  0  0  0  0
 20 38  1  0  0  0  0
 20 39  1  0  0  0  0
 21 40  1  0  0  0  0
 21 41  1  0  0  0  0
 21 42  1  0  0  0  0
 22 24  2  0  0  0  0
 22 25  1  0  0  0  0
 23 43  1  0  0  0  0
 23 44  1  0  0  0  0
 23 45  1  0  0  0  0
 24 26  1  0  0  0  0
 24 46  1  0  0  0  0
 25 27  2  0  0  0  0
 25 47  1  0  0  0  0
 26 28  2  0  0  0  0
 26 48  1  0  0  0  0
 27 28  1  0  0  0  0
 27 49  1  0  0  0  0
 28 50  1  0  0  0  0
M  END
>  <PUBCHEM_COMPOUND_CID>
483806

>  <PUBCHEM_COMPOUND_CANONICALIZED>
1

>  <PUBCHEM_CACTVS_COMPLEXITY>
743

>  <PUBCHEM_CACTVS_HBOND_ACCEPTOR>
5

>  <PUBCHEM_CACTVS_HBOND_DONOR>
1

>  <PUBCHEM_CACTVS_ROTATABLE_BOND>
6

>  <PUBCHEM_CACTVS_SUBSKEYS>
AAADceB6MYAAAAAAAAAAAAAAGAAAAAAAAAAwQAAAAAAAAAABAAAAHwAQAAAADUyhmBIyAILABADIEiVSUAiCAAAgAAAIiAEACMgIJjaAsRiGMAAm9AGIqYeAwCAOAAAAAAAAAAAAAAAAAAAAAAAAAAAAAA==

>  <PUBCHEM_IUPAC_OPENEYE_NAME>
3-[(1S)-1-benzyloxy-3-cyclopropyl-1-(trifluoromethyl)prop-2-ynyl]-5-ethyl-6-methyl-1H-pyridin-2-one

>  <PUBCHEM_IUPAC_CAS_NAME>
3-[(2S)-4-cyclopropyl-1,1,1-trifluoro-2-phenylmethoxybut-3-yn-2-yl]-5-ethyl-6-methyl-1H-pyridin-2-one

>  <PUBCHEM_IUPAC_NAME>
3-[(2S)-4-cyclopropyl-1,1,1-trifluoro-2-phenylmethoxybut-3-yn-2-yl]-5-ethyl-6-methyl-1H-pyridin-2-one

>  <PUBCHEM_IUPAC_SYSTEMATIC_NAME>
3-[(2S)-4-cyclopropyl-1,1,1-tris(fluoranyl)-2-phenylmethoxy-but-3-yn-2-yl]-5-ethyl-6-methyl-1H-pyridin-2-one

>  <PUBCHEM_IUPAC_TRADITIONAL_NAME>
3-[(1S)-1-benzoxy-3-cyclopropyl-1-(trifluoromethyl)prop-2-ynyl]-5-ethyl-6-methyl-2-pyridone

>  <PUBCHEM_IUPAC_INCHI>
InChI=1S/C22H22F3NO2/c1-3-18-13-19(20(27)26-15(18)2)21(22(23,24)25,12-11-16-9-10-16)28-14-17-7-5-4-6-8-17/h4-8,13,16H,3,9-10,14H2,1-2H3,(H,26,27)/t21-/m0/s1

>  <PUBCHEM_IUPAC_INCHIKEY>
IJKRFIRPCMPTFM-NRFANRHFSA-N

>  <PUBCHEM_XLOGP3_AA>
4.4

>  <PUBCHEM_EXACT_MASS>
389.16

>  <PUBCHEM_MOLECULAR_FORMULA>
C22H22F3NO2

>  <PUBCHEM_MOLECULAR_WEIGHT>
389.418

>  <PUBCHEM_OPENEYE_CAN_SMILES>
CCC1=C(NC(=O)C(=C1)C(C#CC2CC2)(C(F)(F)F)OCC3=CC=CC=C3)C

>  <PUBCHEM_OPENEYE_ISO_SMILES>
CCC1=C(NC(=O)C(=C1)[C@@](C#CC2CC2)(C(F)(F)F)OCC3=CC=CC=C3)C

>  <PUBCHEM_CACTVS_TPSA>
38.3

>  <PUBCHEM_MONOISOTOPIC_WEIGHT>
389.16

>  <PUBCHEM_TOTAL_CHARGE>
0

>  <PUBCHEM_HEAVY_ATOM_COUNT>
28

>  <PUBCHEM_ATOM_DEF_STEREO_COUNT>
1

>  <PUBCHEM_ATOM_UDEF_STEREO_COUNT>
0

>  <PUBCHEM_BOND_DEF_STEREO_COUNT>
0

>  <PUBCHEM_BOND_UDEF_STEREO_COUNT>
0

>  <PUBCHEM_ISOTOPIC_ATOM_COUNT>
0

>  <PUBCHEM_COMPONENT_COUNT>
1

>  <PUBCHEM_CACTVS_TAUTO_COUNT>
5

>  <PUBCHEM_COORDINATE_TYPE>
1
5
255

>  <PUBCHEM_BONDANNOTATIONS>
13  15  8
13  17  8
15  16  8
16  18  8
22  24  8
22  25  8
24  26  8
25  27  8
26  28  8
27  28  8
11  4  6
6  17  8
6  18  8

$$$$
