492390
 OpenBabel06101807152D

 52 55  0  0  1  0  0  0  0  0999 V2000
    8.6823    2.9868    0.0000 O   0  0  0  0  0  0  0  0  0  0  0  0
    8.6663   -0.0824    0.0000 O   0  0  0  0  0  0  0  0  0  0  0  0
    6.9343    0.9176    0.0000 O   0  0  0  0  0  0  0  0  0  0  0  0
   10.4365    0.9144    0.0000 O   0  0  0  0  0  0  0  0  0  0  0  0
    6.9125    2.9490    0.0000 O   0  0  0  0  0  0  0  0  0  0  0  0
   10.4562    3.9627    0.0000 O   0  0  0  0  0  0  0  0  0  0  0  0
    7.8003   -1.5824    0.0000 O   0  0  0  0  0  0  0  0  0  0  0  0
    6.0682    2.4176    0.0000 O   0  0  0  0  0  0  0  0  0  0  0  0
    4.9502   -2.5028    0.0000 O   0  0  0  0  0  0  0  0  0  0  0  0
    4.3198   -1.6170    0.0000 O   0  0  0  0  0  0  0  0  0  0  0  0
    9.3312   -2.6512    0.0000 O   0  0  0  0  0  0  0  0  0  0  0  0
    7.0944   -3.9426    0.0000 O   0  0  0  0  0  0  0  0  0  0  0  0
    2.5381   -0.6066    0.0000 O   0  0  0  0  0  0  0  0  0  0  0  0
    2.5381    1.4417    0.0000 O   0  0  0  0  0  0  0  0  0  0  0  0
    8.6663    0.9176    0.0000 C   0  0  3  0  0  0  0  0  0  0  0  0
    9.5763    1.4244    0.0000 C   0  0  3  0  0  0  0  0  0  0  0  0
    7.8003    1.4176    0.0000 C   0  0  3  0  0  0  0  0  0  0  0  0
    9.5844    2.4660    0.0000 C   0  0  3  0  0  0  0  0  0  0  0  0
    7.7842    2.4591    0.0000 C   0  0  3  0  0  0  0  0  0  0  0  0
   10.4523    2.9627    0.0000 C   0  0  0  0  0  0  0  0  0  0  0  0
    7.8003   -0.5824    0.0000 C   0  0  0  0  0  0  0  0  0  0  0  0
    6.0682    1.4176    0.0000 C   0  0  0  0  0  0  0  0  0  0  0  0
    6.9343   -0.0824    0.0000 C   0  0  0  0  0  0  0  0  0  0  0  0
    5.2022    0.9176    0.0000 C   0  0  0  0  0  0  0  0  0  0  0  0
    6.0682   -0.5824    0.0000 C   0  0  0  0  0  0  0  0  0  0  0  0
    5.2022   -0.0824    0.0000 C   0  0  0  0  0  0  0  0  0  0  0  0
    8.3456   -0.6595    0.0000 C   0  0  0  0  0  0  0  0  0  0  0  0
    5.8624   -2.0932    0.0000 C   0  0  0  0  0  0  0  0  0  0  0  0
    4.3083   -0.6171    0.0000 C   0  0  0  0  0  0  0  0  0  0  0  0
    4.3083    1.4522    0.0000 C   0  0  0  0  0  0  0  0  0  0  0  0
    8.4488   -2.1808    0.0000 C   0  0  0  0  0  0  0  0  0  0  0  0
    7.1283   -2.9432    0.0000 C   0  0  0  0  0  0  0  0  0  0  0  0
    3.4022   -0.1032    0.0000 C   0  0  0  0  0  0  0  0  0  0  0  0
    3.4022    0.9384    0.0000 C   0  0  0  0  0  0  0  0  0  0  0  0
    9.2009    0.6035    0.0000 H   0  0  0  0  0  0  0  0  0  0  0  0
    9.5680    0.8045    0.0000 H   0  0  0  0  0  0  0  0  0  0  0  0
    7.2610    1.7234    0.0000 H   0  0  0  0  0  0  0  0  0  0  0  0
    9.5856    3.0860    0.0000 H   0  0  0  0  0  0  0  0  0  0  0  0
    7.7783    3.0791    0.0000 H   0  0  0  0  0  0  0  0  0  0  0  0
   10.6621    2.3793    0.0000 H   0  0  0  0  0  0  0  0  0  0  0  0
   11.0633    3.0680    0.0000 H   0  0  0  0  0  0  0  0  0  0  0  0
   10.9770    1.2182    0.0000 H   0  0  0  0  0  0  0  0  0  0  0  0
    6.9053    3.5690    0.0000 H   0  0  0  0  0  0  0  0  0  0  0  0
   10.9943    4.2706    0.0000 H   0  0  0  0  0  0  0  0  0  0  0  0
    8.8483   -0.2967    0.0000 H   0  0  0  0  0  0  0  0  0  0  0  0
    4.3154    2.0722    0.0000 H   0  0  0  0  0  0  0  0  0  0  0  0
    4.8873   -3.1196    0.0000 H   0  0  0  0  0  0  0  0  0  0  0  0
    3.7865   -1.9332    0.0000 H   0  0  0  0  0  0  0  0  0  0  0  0
    7.6206   -4.2706    0.0000 H   0  0  0  0  0  0  0  0  0  0  0  0
    9.3522   -3.2708    0.0000 H   0  0  0  0  0  0  0  0  0  0  0  0
    2.0000   -0.2986    0.0000 H   0  0  0  0  0  0  0  0  0  0  0  0
    2.5405    2.0617    0.0000 H   0  0  0  0  0  0  0  0  0  0  0  0
  1 18  1  0  0  0  0
  1 19  1  0  0  0  0
  2 15  1  0  0  0  0
  2 21  1  0  0  0  0
  3 17  1  0  0  0  0
  3 22  1  0  0  0  0
  4 16  1  0  0  0  0
  4 42  1  0  0  0  0
  5 19  1  0  0  0  0
  5 43  1  0  0  0  0
  6 20  1  0  0  0  0
  6 44  1  0  0  0  0
  7 21  2  0  0  0  0
  8 22  2  0  0  0  0
  9 28  1  0  0  0  0
  9 47  1  0  0  0  0
 10 29  1  0  0  0  0
 10 48  1  0  0  0  0
 11 31  1  0  0  0  0
 11 50  1  0  0  0  0
 12 32  1  0  0  0  0
 12 49  1  0  0  0  0
 13 33  1  0  0  0  0
 13 51  1  0  0  0  0
 14 34  1  0  0  0  0
 14 52  1  0  0  0  0
 15 16  1  0  0  0  0
 15 17  1  0  0  0  0
 15 35  1  0  0  0  0
 16 18  1  0  0  0  0
 16 36  1  0  0  0  0
 17 19  1  0  0  0  0
 17 37  1  0  0  0  0
 18 20  1  0  0  0  0
 18 38  1  0  0  0  0
 19 39  1  0  0  0  0
 20 40  1  0  0  0  0
 20 41  1  0  0  0  0
 21 23  1  0  0  0  0
 22 24  1  0  0  0  0
 23 25  1  0  0  0  0
 23 27  2  0  0  0  0
 24 26  1  0  0  0  0
 24 30  2  0  0  0  0
 25 26  1  0  0  0  0
 25 28  2  0  0  0  0
 26 29  2  0  0  0  0
 27 31  1  0  0  0  0
 27 45  1  0  0  0  0
 28 32  1  0  0  0  0
 29 33  1  0  0  0  0
 30 34  1  0  0  0  0
 30 46  1  0  0  0  0
 31 32  2  0  0  0  0
 33 34  2  0  0  0  0
M  END
>  <PUBCHEM_COMPOUND_CID>
492390

>  <PUBCHEM_COMPOUND_CANONICALIZED>
1

>  <PUBCHEM_CACTVS_COMPLEXITY>
778

>  <PUBCHEM_CACTVS_HBOND_ACCEPTOR>
14

>  <PUBCHEM_CACTVS_HBOND_DONOR>
9

>  <PUBCHEM_CACTVS_ROTATABLE_BOND>
1

>  <PUBCHEM_CACTVS_SUBSKEYS>
AAADceB4PAAAAAAAAAAAAAAAAAAAAAAAAAA0YIAAAAAAAACRQAAAGgAACAAADBSwmAMwDoAABgCIAiDSCAACAAAkIAAAiAEGiMgZNzKCNBqCcQElwBUPuYfK7PzOoAABCAAYQABAAAIQADCAAAAAAAAAAA==

>  <PUBCHEM_IUPAC_INCHI>
InChI=1S/C20H18O14/c21-3-8-13(26)16-17(20(31)32-8)34-19(30)5-2-7(23)12(25)15(28)10(5)9-4(18(29)33-16)1-6(22)11(24)14(9)27/h1-2,8,13,16-17,20-28,31H,3H2

>  <PUBCHEM_IUPAC_INCHIKEY>
GEAGRKQCZVLNAU-UHFFFAOYSA-N

>  <PUBCHEM_XLOGP3_AA>
-0.6

>  <PUBCHEM_EXACT_MASS>
482.07

>  <PUBCHEM_MOLECULAR_FORMULA>
C20H18O14

>  <PUBCHEM_MOLECULAR_WEIGHT>
482.35

>  <PUBCHEM_OPENEYE_CAN_SMILES>
C1=C2C(=C(C(=C1O)O)O)C3=C(C(=C(C=C3C(=O)OC4C(C(C(OC4O)CO)O)OC2=O)O)O)O

>  <PUBCHEM_OPENEYE_ISO_SMILES>
C1=C2C(=C(C(=C1O)O)O)C3=C(C(=C(C=C3C(=O)OC4C(C(C(OC4O)CO)O)OC2=O)O)O)O

>  <PUBCHEM_CACTVS_TPSA>
244

>  <PUBCHEM_MONOISOTOPIC_WEIGHT>
482.07

>  <PUBCHEM_TOTAL_CHARGE>
0

>  <PUBCHEM_HEAVY_ATOM_COUNT>
34

>  <PUBCHEM_ATOM_DEF_STEREO_COUNT>
0

>  <PUBCHEM_ATOM_UDEF_STEREO_COUNT>
5

>  <PUBCHEM_BOND_DEF_STEREO_COUNT>
0

>  <PUBCHEM_BOND_UDEF_STEREO_COUNT>
0

>  <PUBCHEM_ISOTOPIC_ATOM_COUNT>
0

>  <PUBCHEM_COMPONENT_COUNT>
1

>  <PUBCHEM_CACTVS_TAUTO_COUNT>
998

>  <PUBCHEM_COORDINATE_TYPE>
1
5
255

>  <PUBCHEM_BONDANNOTATIONS>
18  20  3
15  2  3
23  25  8
23  27  8
24  26  8
24  30  8
25  28  8
26  29  8
27  31  8
28  32  8
29  33  8
17  3  3
30  34  8
31  32  8
33  34  8
16  4  3
19  5  3

$$$$
