503731
 OpenBabel06101807152D

 45 47  0  0  0  0  0  0  0  0999 V2000
    8.1424   -0.9202    0.0000 O   0  0  0  0  0  0  0  0  0  0  0  0
    6.3301    1.8845    0.0000 O   0  0  0  0  0  0  0  0  0  0  0  0
    4.5981   -1.1155    0.0000 O   0  0  0  0  0  0  0  0  0  0  0  0
    9.7260   -1.8476    0.0000 O   0  0  0  0  0  0  0  0  0  0  0  0
   12.7260   -0.1155    0.0000 O   0  0  0  0  0  0  0  0  0  0  0  0
    7.1962    0.3845    0.0000 C   0  0  0  0  0  0  0  0  0  0  0  0
    5.4641    0.3845    0.0000 C   0  0  0  0  0  0  0  0  0  0  0  0
    6.3301    0.8845    0.0000 C   0  0  0  0  0  0  0  0  0  0  0  0
    7.1962   -0.6155    0.0000 C   0  0  0  0  0  0  0  0  0  0  0  0
    4.5981    0.8845    0.0000 C   0  0  0  0  0  0  0  0  0  0  0  0
    8.1424    0.6892    0.0000 C   0  0  0  0  0  0  0  0  0  0  0  0
    8.7260   -0.1155    0.0000 C   0  0  0  0  0  0  0  0  0  0  0  0
    5.4641   -0.6155    0.0000 C   0  0  0  0  0  0  0  0  0  0  0  0
    6.3301   -1.1155    0.0000 C   0  0  0  0  0  0  0  0  0  0  0  0
    9.7260   -0.1155    0.0000 C   0  0  0  0  0  0  0  0  0  0  0  0
    3.7320    0.3845    0.0000 C   0  0  0  0  0  0  0  0  0  0  0  0
   10.2260   -0.9815    0.0000 C   0  0  0  0  0  0  0  0  0  0  0  0
    2.8660    0.8845    0.0000 C   0  0  0  0  0  0  0  0  0  0  0  0
   10.2260    0.7505    0.0000 C   0  0  0  0  0  0  0  0  0  0  0  0
   11.2260   -0.9815    0.0000 C   0  0  0  0  0  0  0  0  0  0  0  0
   11.2260    0.7505    0.0000 C   0  0  0  0  0  0  0  0  0  0  0  0
    5.4641    2.3845    0.0000 C   0  0  0  0  0  0  0  0  0  0  0  0
   11.7260   -0.1155    0.0000 C   0  0  0  0  0  0  0  0  0  0  0  0
    2.0000    0.3845    0.0000 C   0  0  0  0  0  0  0  0  0  0  0  0
    2.8660    1.8845    0.0000 C   0  0  0  0  0  0  0  0  0  0  0  0
    4.9966    1.3594    0.0000 H   0  0  0  0  0  0  0  0  0  0  0  0
    4.1996    1.3594    0.0000 H   0  0  0  0  0  0  0  0  0  0  0  0
    8.3350    1.2786    0.0000 H   0  0  0  0  0  0  0  0  0  0  0  0
    6.3301   -1.7355    0.0000 H   0  0  0  0  0  0  0  0  0  0  0  0
    3.7320   -0.2355    0.0000 H   0  0  0  0  0  0  0  0  0  0  0  0
    9.9160    1.2874    0.0000 H   0  0  0  0  0  0  0  0  0  0  0  0
    4.5981   -1.7355    0.0000 H   0  0  0  0  0  0  0  0  0  0  0  0
   11.5360   -1.5185    0.0000 H   0  0  0  0  0  0  0  0  0  0  0  0
   11.5360    1.2874    0.0000 H   0  0  0  0  0  0  0  0  0  0  0  0
    5.7741    2.9214    0.0000 H   0  0  0  0  0  0  0  0  0  0  0  0
    4.9272    2.6945    0.0000 H   0  0  0  0  0  0  0  0  0  0  0  0
    5.1541    1.8476    0.0000 H   0  0  0  0  0  0  0  0  0  0  0  0
    1.6900    0.9214    0.0000 H   0  0  0  0  0  0  0  0  0  0  0  0
    1.4631    0.0745    0.0000 H   0  0  0  0  0  0  0  0  0  0  0  0
    3.4860    1.8845    0.0000 H   0  0  0  0  0  0  0  0  0  0  0  0
    2.8660    2.5045    0.0000 H   0  0  0  0  0  0  0  0  0  0  0  0
    2.2460    1.8845    0.0000 H   0  0  0  0  0  0  0  0  0  0  0  0
    2.3100   -0.1524    0.0000 H   0  0  0  0  0  0  0  0  0  0  0  0
   10.0360   -2.3845    0.0000 H   0  0  0  0  0  0  0  0  0  0  0  0
   13.0360    0.4214    0.0000 H   0  0  0  0  0  0  0  0  0  0  0  0
  1  9  1  0  0  0  0
  1 12  1  0  0  0  0
  2  8  1  0  0  0  0
  2 22  1  0  0  0  0
  3 13  1  0  0  0  0
  3 32  1  0  0  0  0
  4 17  1  0  0  0  0
  4 44  1  0  0  0  0
  5 23  1  0  0  0  0
  5 45  1  0  0  0  0
  6  8  1  0  0  0  0
  6  9  2  0  0  0  0
  6 11  1  0  0  0  0
  7  8  2  0  0  0  0
  7 10  1  0  0  0  0
  7 13  1  0  0  0  0
  9 14  1  0  0  0  0
 10 16  1  0  0  0  0
 10 26  1  0  0  0  0
 10 27  1  0  0  0  0
 11 12  2  0  0  0  0
 11 28  1  0  0  0  0
 12 15  1  0  0  0  0
 13 14  2  0  0  0  0
 14 29  1  0  0  0  0
 15 17  2  0  0  0  0
 15 19  1  0  0  0  0
 16 18  2  0  0  0  0
 16 30  1  0  0  0  0
 17 20  1  0  0  0  0
 18 24  1  0  0  0  0
 18 25  1  0  0  0  0
 19 21  2  0  0  0  0
 19 31  1  0  0  0  0
 20 23  2  0  0  0  0
 20 33  1  0  0  0  0
 21 23  1  0  0  0  0
 21 34  1  0  0  0  0
 22 35  1  0  0  0  0
 22 36  1  0  0  0  0
 22 37  1  0  0  0  0
 24 38  1  0  0  0  0
 24 39  1  0  0  0  0
 24 43  1  0  0  0  0
 25 40  1  0  0  0  0
 25 41  1  0  0  0  0
 25 42  1  0  0  0  0
M  END
>  <PUBCHEM_COMPOUND_CID>
503731

>  <PUBCHEM_COMPOUND_CANONICALIZED>
1

>  <PUBCHEM_CACTVS_COMPLEXITY>
475

>  <PUBCHEM_CACTVS_HBOND_ACCEPTOR>
5

>  <PUBCHEM_CACTVS_HBOND_DONOR>
3

>  <PUBCHEM_CACTVS_ROTATABLE_BOND>
4

>  <PUBCHEM_CACTVS_SUBSKEYS>
AAADceB4OAAAAAAAAAAAAAAAAAAAASAAAAAwYAAAAAAAAEgB9AAAGgAACAAADASAmAIyBsAABkCIAqBSAAACCAAkIAAIiAEGCMgMJzaGNRqCeWCl4BUIuYfK7PzOIAACCAAIAABAAAQQABAAAAAAAAAAAA==

>  <PUBCHEM_IUPAC_OPENEYE_NAME>
4-[6-hydroxy-4-methoxy-5-(3-methylbut-2-enyl)benzofuran-2-yl]benzene-1,3-diol

>  <PUBCHEM_IUPAC_CAS_NAME>
4-[6-hydroxy-4-methoxy-5-(3-methylbut-2-enyl)-2-benzofuranyl]benzene-1,3-diol

>  <PUBCHEM_IUPAC_NAME>
4-[6-hydroxy-4-methoxy-5-(3-methylbut-2-enyl)-1-benzofuran-2-yl]benzene-1,3-diol

>  <PUBCHEM_IUPAC_SYSTEMATIC_NAME>
4-[4-methoxy-5-(3-methylbut-2-enyl)-6-oxidanyl-1-benzofuran-2-yl]benzene-1,3-diol

>  <PUBCHEM_IUPAC_TRADITIONAL_NAME>
4-[6-hydroxy-4-methoxy-5-(3-methylbut-2-enyl)benzofuran-2-yl]resorcinol

>  <PUBCHEM_IUPAC_INCHI>
InChI=1S/C20H20O5/c1-11(2)4-6-14-17(23)10-19-15(20(14)24-3)9-18(25-19)13-7-5-12(21)8-16(13)22/h4-5,7-10,21-23H,6H2,1-3H3

>  <PUBCHEM_IUPAC_INCHIKEY>
CNPMAFLUEHEXRE-UHFFFAOYSA-N

>  <PUBCHEM_XLOGP3_AA>
4.8

>  <PUBCHEM_EXACT_MASS>
340.131

>  <PUBCHEM_MOLECULAR_FORMULA>
C20H20O5

>  <PUBCHEM_MOLECULAR_WEIGHT>
340.375

>  <PUBCHEM_OPENEYE_CAN_SMILES>
CC(=CCC1=C(C=C2C(=C1OC)C=C(O2)C3=C(C=C(C=C3)O)O)O)C

>  <PUBCHEM_OPENEYE_ISO_SMILES>
CC(=CCC1=C(C=C2C(=C1OC)C=C(O2)C3=C(C=C(C=C3)O)O)O)C

>  <PUBCHEM_CACTVS_TPSA>
83.1

>  <PUBCHEM_MONOISOTOPIC_WEIGHT>
340.131

>  <PUBCHEM_TOTAL_CHARGE>
0

>  <PUBCHEM_HEAVY_ATOM_COUNT>
25

>  <PUBCHEM_ATOM_DEF_STEREO_COUNT>
0

>  <PUBCHEM_ATOM_UDEF_STEREO_COUNT>
0

>  <PUBCHEM_BOND_DEF_STEREO_COUNT>
0

>  <PUBCHEM_BOND_UDEF_STEREO_COUNT>
0

>  <PUBCHEM_ISOTOPIC_ATOM_COUNT>
0

>  <PUBCHEM_COMPONENT_COUNT>
1

>  <PUBCHEM_CACTVS_TAUTO_COUNT>
36

>  <PUBCHEM_COORDINATE_TYPE>
1
5
255

>  <PUBCHEM_BONDANNOTATIONS>
1  12  8
1  9  8
11  12  8
13  14  8
15  17  8
15  19  8
17  20  8
19  21  8
20  23  8
21  23  8
6  11  8
6  8  8
6  9  8
7  13  8
7  8  8
9  14  8

$$$$
