5087641
 OpenBabel06101807152D

122128  0  0  1  0  0  0  0  0999 V2000
    7.7331   -1.6941    0.0000 O   0  0  0  0  0  0  0  0  0  0  0  0
    9.4869    7.5853    0.0000 O   0  0  0  0  0  0  0  0  0  0  0  0
   10.3702    6.0954    0.0000 O   0  0  0  0  0  0  0  0  0  0  0  0
    6.0010   -1.6941    0.0000 O   0  0  0  0  0  0  0  0  0  0  0  0
    7.7331   -3.6941    0.0000 O   0  0  0  0  0  0  0  0  0  0  0  0
    6.0010   -4.6941    0.0000 O   0  0  0  0  0  0  0  0  0  0  0  0
    4.2690   -3.6941    0.0000 O   0  0  0  0  0  0  0  0  0  0  0  0
    4.2690   -0.6941    0.0000 O   0  0  0  0  0  0  0  0  0  0  0  0
    4.2690   -4.6941    0.0000 O   0  0  0  0  0  0  0  0  0  0  0  0
    3.4030   -2.1941    0.0000 O   0  0  0  0  0  0  0  0  0  0  0  0
    6.0010   -6.6941    0.0000 O   0  0  0  0  0  0  0  0  0  0  0  0
    4.2690   -7.6941    0.0000 O   0  0  0  0  0  0  0  0  0  0  0  0
    2.5369   -6.6941    0.0000 O   0  0  0  0  0  0  0  0  0  0  0  0
    2.5369   -3.6941    0.0000 O   0  0  0  0  0  0  0  0  0  0  0  0
    8.6342    3.0061    0.0000 C   0  0  3  0  0  0  0  0  0  0  0  0
    7.7701    2.5027    0.0000 C   0  0  3  0  0  0  0  0  0  0  0  0
    7.7580    1.4612    0.0000 C   0  0  3  0  0  0  0  0  0  0  0  0
    8.6303    4.0061    0.0000 C   0  0  3  0  0  0  0  0  0  0  0  0
    8.6581    0.9369    0.0000 C   0  0  3  0  0  0  0  0  0  0  0  0
    9.5461    2.5027    0.0000 C   0  0  0  0  0  0  0  0  0  0  0  0
    8.6706   -0.1480    0.0000 C   0  0  0  0  0  0  0  0  0  0  0  0
    9.5581    1.4612    0.0000 C   0  0  0  0  0  0  0  0  0  0  0  0
    7.7624    4.5027    0.0000 C   0  0  0  0  0  0  0  0  0  0  0  0
    6.9021    2.9994    0.0000 C   0  0  0  0  0  0  0  0  0  0  0  0
    6.8081    0.9369    0.0000 C   0  0  0  0  0  0  0  0  0  0  0  0
    7.7423    5.5442    0.0000 C   0  0  3  0  0  0  0  0  0  0  0  0
    9.5383    4.5164    0.0000 C   0  0  0  0  0  0  0  0  0  0  0  0
    8.6383    6.0754    0.0000 C   0  0  3  0  0  0  0  0  0  0  0  0
    9.6183    3.1835    0.0000 C   0  0  0  0  0  0  0  0  0  0  0  0
    7.7331   -0.6941    0.0000 C   0  0  3  0  0  0  0  0  0  0  0  0
    9.5424    5.5580    0.0000 C   0  0  0  0  0  0  0  0  0  0  0  0
    6.8939    1.9645    0.0000 C   0  0  0  0  0  0  0  0  0  0  0  0
    6.7956   -0.1480    0.0000 C   0  0  0  0  0  0  0  0  0  0  0  0
    6.8983    3.9994    0.0000 C   0  0  0  0  0  0  0  0  0  0  0  0
    9.6158    3.8362    0.0000 C   0  0  0  0  0  0  0  0  0  0  0  0
    6.7884    6.0611    0.0000 C   0  0  0  0  0  0  0  0  0  0  0  0
    8.6424    7.1604    0.0000 C   0  0  0  0  0  0  0  0  0  0  0  0
    6.7674    7.1459    0.0000 C   0  0  0  0  0  0  0  0  0  0  0  0
    9.6706   -0.1403    0.0000 C   0  0  0  0  0  0  0  0  0  0  0  0
    9.1773   -1.0102    0.0000 C   0  0  0  0  0  0  0  0  0  0  0  0
    7.7007    7.6992    0.0000 C   0  0  0  0  0  0  0  0  0  0  0  0
    9.4985    6.5854    0.0000 C   0  0  0  0  0  0  0  0  0  0  0  0
    6.2542    8.0041    0.0000 C   0  0  0  0  0  0  0  0  0  0  0  0
    5.7676    7.1305    0.0000 C   0  0  0  0  0  0  0  0  0  0  0  0
    6.8671   -2.1941    0.0000 C   0  0  3  0  0  0  0  0  0  0  0  0
    6.8671   -3.1941    0.0000 C   0  0  3  0  0  0  0  0  0  0  0  0
    6.0010   -3.6941    0.0000 C   0  0  3  0  0  0  0  0  0  0  0  0
    5.1350   -2.1941    0.0000 C   0  0  3  0  0  0  0  0  0  0  0  0
    5.1350   -3.1941    0.0000 C   0  0  3  0  0  0  0  0  0  0  0  0
    4.2690   -1.6941    0.0000 C   0  0  0  0  0  0  0  0  0  0  0  0
    5.1350   -5.1941    0.0000 C   0  0  3  0  0  0  0  0  0  0  0  0
    5.1350   -6.1941    0.0000 C   0  0  3  0  0  0  0  0  0  0  0  0
    4.2690   -6.6941    0.0000 C   0  0  3  0  0  0  0  0  0  0  0  0
    3.4030   -5.1941    0.0000 C   0  0  3  0  0  0  0  0  0  0  0  0
    3.4030   -6.1941    0.0000 C   0  0  3  0  0  0  0  0  0  0  0  0
    2.5369   -4.6941    0.0000 C   0  0  0  0  0  0  0  0  0  0  0  0
    8.3058    2.1907    0.0000 H   0  0  0  0  0  0  0  0  0  0  0  0
    9.1974    0.6311    0.0000 H   0  0  0  0  0  0  0  0  0  0  0  0
   10.1581    2.4037    0.0000 H   0  0  0  0  0  0  0  0  0  0  0  0
    9.7484    3.0888    0.0000 H   0  0  0  0  0  0  0  0  0  0  0  0
    9.7739    0.8800    0.0000 H   0  0  0  0  0  0  0  0  0  0  0  0
   10.1677    1.5743    0.0000 H   0  0  0  0  0  0  0  0  0  0  0  0
    6.2911    3.1047    0.0000 H   0  0  0  0  0  0  0  0  0  0  0  0
    6.6923    2.4160    0.0000 H   0  0  0  0  0  0  0  0  0  0  0  0
    6.6058    1.5230    0.0000 H   0  0  0  0  0  0  0  0  0  0  0  0
    6.1961    0.8379    0.0000 H   0  0  0  0  0  0  0  0  0  0  0  0
    7.2126    5.2218    0.0000 H   0  0  0  0  0  0  0  0  0  0  0  0
    9.7451    3.9319    0.0000 H   0  0  0  0  0  0  0  0  0  0  0  0
   10.1496    4.6202    0.0000 H   0  0  0  0  0  0  0  0  0  0  0  0
    9.7283    2.5734    0.0000 H   0  0  0  0  0  0  0  0  0  0  0  0
   10.2284    3.2936    0.0000 H   0  0  0  0  0  0  0  0  0  0  0  0
    9.5083    3.7937    0.0000 H   0  0  0  0  0  0  0  0  0  0  0  0
    8.2706   -1.0031    0.0000 H   0  0  0  0  0  0  0  0  0  0  0  0
   10.1528    5.4496    0.0000 H   0  0  0  0  0  0  0  0  0  0  0  0
    9.7536    6.1409    0.0000 H   0  0  0  0  0  0  0  0  0  0  0  0
    7.2060    2.5003    0.0000 H   0  0  0  0  0  0  0  0  0  0  0  0
    6.3582    2.2766    0.0000 H   0  0  0  0  0  0  0  0  0  0  0  0
    6.5818    1.4288    0.0000 H   0  0  0  0  0  0  0  0  0  0  0  0
    6.1860   -0.0349    0.0000 H   0  0  0  0  0  0  0  0  0  0  0  0
    6.5798   -0.7293    0.0000 H   0  0  0  0  0  0  0  0  0  0  0  0
    6.3601    4.3073    0.0000 H   0  0  0  0  0  0  0  0  0  0  0  0
    9.5105    3.2252    0.0000 H   0  0  0  0  0  0  0  0  0  0  0  0
   10.2268    3.7309    0.0000 H   0  0  0  0  0  0  0  0  0  0  0  0
    9.7211    4.4472    0.0000 H   0  0  0  0  0  0  0  0  0  0  0  0
    6.1756    6.1554    0.0000 H   0  0  0  0  0  0  0  0  0  0  0  0
    6.5906    5.4735    0.0000 H   0  0  0  0  0  0  0  0  0  0  0  0
    9.2529    7.0519    0.0000 H   0  0  0  0  0  0  0  0  0  0  0  0
    8.8538    7.7433    0.0000 H   0  0  0  0  0  0  0  0  0  0  0  0
    8.6428   -1.3243    0.0000 H   0  0  0  0  0  0  0  0  0  0  0  0
    9.4914   -1.5447    0.0000 H   0  0  0  0  0  0  0  0  0  0  0  0
    9.7118   -0.6960    0.0000 H   0  0  0  0  0  0  0  0  0  0  0  0
    9.6754   -0.7603    0.0000 H   0  0  0  0  0  0  0  0  0  0  0  0
   10.2906   -0.1355    0.0000 H   0  0  0  0  0  0  0  0  0  0  0  0
    9.6658    0.4797    0.0000 H   0  0  0  0  0  0  0  0  0  0  0  0
    8.0962    8.1767    0.0000 H   0  0  0  0  0  0  0  0  0  0  0  0
    7.2980    8.1706    0.0000 H   0  0  0  0  0  0  0  0  0  0  0  0
    5.7580    7.7504    0.0000 H   0  0  0  0  0  0  0  0  0  0  0  0
    5.1476    7.1209    0.0000 H   0  0  0  0  0  0  0  0  0  0  0  0
    5.7771    6.5106    0.0000 H   0  0  0  0  0  0  0  0  0  0  0  0
    6.7862    8.3224    0.0000 H   0  0  0  0  0  0  0  0  0  0  0  0
    5.9359    8.5362    0.0000 H   0  0  0  0  0  0  0  0  0  0  0  0
    5.7220    7.6859    0.0000 H   0  0  0  0  0  0  0  0  0  0  0  0
    7.4040   -2.5041    0.0000 H   0  0  0  0  0  0  0  0  0  0  0  0
   10.0202    7.9015    0.0000 H   0  0  0  0  0  0  0  0  0  0  0  0
    6.8671   -3.8141    0.0000 H   0  0  0  0  0  0  0  0  0  0  0  0
    5.4641   -4.0041    0.0000 H   0  0  0  0  0  0  0  0  0  0  0  0
    5.1350   -1.5741    0.0000 H   0  0  0  0  0  0  0  0  0  0  0  0
    4.5981   -2.8841    0.0000 H   0  0  0  0  0  0  0  0  0  0  0  0
    7.7331   -4.3141    0.0000 H   0  0  0  0  0  0  0  0  0  0  0  0
    3.7320   -3.3841    0.0000 H   0  0  0  0  0  0  0  0  0  0  0  0
    5.1350   -4.5741    0.0000 H   0  0  0  0  0  0  0  0  0  0  0  0
    5.1350   -6.8141    0.0000 H   0  0  0  0  0  0  0  0  0  0  0  0
    3.7320   -0.3841    0.0000 H   0  0  0  0  0  0  0  0  0  0  0  0
    3.7320   -7.0041    0.0000 H   0  0  0  0  0  0  0  0  0  0  0  0
    3.4030   -4.5741    0.0000 H   0  0  0  0  0  0  0  0  0  0  0  0
    2.8660   -5.8841    0.0000 H   0  0  0  0  0  0  0  0  0  0  0  0
    6.0010   -7.3141    0.0000 H   0  0  0  0  0  0  0  0  0  0  0  0
    1.9264   -4.5865    0.0000 H   0  0  0  0  0  0  0  0  0  0  0  0
    2.3249   -5.2767    0.0000 H   0  0  0  0  0  0  0  0  0  0  0  0
    3.7320   -8.0041    0.0000 H   0  0  0  0  0  0  0  0  0  0  0  0
    2.0000   -6.3841    0.0000 H   0  0  0  0  0  0  0  0  0  0  0  0
    2.0000   -3.3841    0.0000 H   0  0  0  0  0  0  0  0  0  0  0  0
  1 30  1  0  0  0  0
  1 45  1  0  0  0  0
  2 42  1  0  0  0  0
  2104  1  0  0  0  0
  3 42  2  0  0  0  0
  4 45  1  0  0  0  0
  4 48  1  0  0  0  0
  5 46  1  0  0  0  0
  5109  1  0  0  0  0
  6 47  1  0  0  0  0
  6 51  1  0  0  0  0
  7 49  1  0  0  0  0
  7110  1  0  0  0  0
  8 50  1  0  0  0  0
  8113  1  0  0  0  0
  9 51  1  0  0  0  0
  9 54  1  0  0  0  0
 10 50  2  0  0  0  0
 11 52  1  0  0  0  0
 11117  1  0  0  0  0
 12 53  1  0  0  0  0
 12120  1  0  0  0  0
 13 55  1  0  0  0  0
 13121  1  0  0  0  0
 14 56  1  0  0  0  0
 14122  1  0  0  0  0
 15 16  1  0  0  0  0
 15 18  1  0  0  0  0
 15 20  1  0  0  0  0
 15 29  1  0  0  0  0
 16 17  1  0  0  0  0
 16 24  1  0  0  0  0
 16 57  1  0  0  0  0
 17 19  1  0  0  0  0
 17 25  1  0  0  0  0
 17 32  1  0  0  0  0
 18 23  1  0  0  0  0
 18 27  1  0  0  0  0
 18 35  1  0  0  0  0
 19 21  1  0  0  0  0
 19 22  1  0  0  0  0
 19 58  1  0  0  0  0
 20 22  1  0  0  0  0
 20 59  1  0  0  0  0
 20 60  1  0  0  0  0
 21 30  1  0  0  0  0
 21 39  1  0  0  0  0
 21 40  1  0  0  0  0
 22 61  1  0  0  0  0
 22 62  1  0  0  0  0
 23 26  1  0  0  0  0
 23 34  2  0  0  0  0
 24 34  1  0  0  0  0
 24 63  1  0  0  0  0
 24 64  1  0  0  0  0
 25 33  1  0  0  0  0
 25 65  1  0  0  0  0
 25 66  1  0  0  0  0
 26 28  1  0  0  0  0
 26 36  1  0  0  0  0
 26 67  1  0  0  0  0
 27 31  1  0  0  0  0
 27 68  1  0  0  0  0
 27 69  1  0  0  0  0
 28 31  1  0  0  0  0
 28 37  1  0  0  0  0
 28 42  1  0  0  0  0
 29 70  1  0  0  0  0
 29 71  1  0  0  0  0
 29 72  1  0  0  0  0
 30 33  1  0  0  0  0
 30 73  1  0  0  0  0
 31 74  1  0  0  0  0
 31 75  1  0  0  0  0
 32 76  1  0  0  0  0
 32 77  1  0  0  0  0
 32 78  1  0  0  0  0
 33 79  1  0  0  0  0
 33 80  1  0  0  0  0
 34 81  1  0  0  0  0
 35 82  1  0  0  0  0
 35 83  1  0  0  0  0
 35 84  1  0  0  0  0
 36 38  1  0  0  0  0
 36 85  1  0  0  0  0
 36 86  1  0  0  0  0
 37 41  1  0  0  0  0
 37 87  1  0  0  0  0
 37 88  1  0  0  0  0
 38 41  1  0  0  0  0
 38 43  1  0  0  0  0
 38 44  1  0  0  0  0
 39 92  1  0  0  0  0
 39 93  1  0  0  0  0
 39 94  1  0  0  0  0
 40 89  1  0  0  0  0
 40 90  1  0  0  0  0
 40 91  1  0  0  0  0
 41 95  1  0  0  0  0
 41 96  1  0  0  0  0
 43100  1  0  0  0  0
 43101  1  0  0  0  0
 43102  1  0  0  0  0
 44 97  1  0  0  0  0
 44 98  1  0  0  0  0
 44 99  1  0  0  0  0
 45 46  1  0  0  0  0
 45103  1  0  0  0  0
 46 47  1  0  0  0  0
 46105  1  0  0  0  0
 47 49  1  0  0  0  0
 47106  1  0  0  0  0
 48 49  1  0  0  0  0
 48 50  1  0  0  0  0
 48107  1  0  0  0  0
 49108  1  0  0  0  0
 51 52  1  0  0  0  0
 51111  1  0  0  0  0
 52 53  1  0  0  0  0
 52112  1  0  0  0  0
 53 55  1  0  0  0  0
 53114  1  0  0  0  0
 54 55  1  0  0  0  0
 54 56  1  0  0  0  0
 54115  1  0  0  0  0
 55116  1  0  0  0  0
 56118  1  0  0  0  0
 56119  1  0  0  0  0
M  END
>  <PUBCHEM_COMPOUND_CID>
5087641

>  <PUBCHEM_COMPOUND_CANONICALIZED>
1

>  <PUBCHEM_CACTVS_COMPLEXITY>
1560

>  <PUBCHEM_CACTVS_HBOND_ACCEPTOR>
14

>  <PUBCHEM_CACTVS_HBOND_DONOR>
8

>  <PUBCHEM_CACTVS_ROTATABLE_BOND>
7

>  <PUBCHEM_CACTVS_SUBSKEYS>
AAADcfB8PAAAAAAAAAAAAAAAAAAAAAAAAAA0aMGCAAAAAADAAAAAGgAACAAADxSwgAMCCAAABgCIAiDSCAIAAAAgAAAACAFAAAgREBYAAQQiQAAFoAAPAAPK7PzPgAAAAAAAAADAAAYAADAAAAAAAAAAAA==

>  <PUBCHEM_IUPAC_OPENEYE_NAME>
6-[(8a-carboxy-4,4,6a,6b,11,11,14b-heptamethyl-1,2,3,4a,5,6,7,8,9,10,12,12a,14,14a-tetradecahydropicen-3-yl)oxy]-3,5-dihydroxy-4-[3,4,5-trihydroxy-6-(hydroxymethyl)tetrahydropyran-2-yl]oxy-tetrahydropyran-2-carboxylic acid

>  <PUBCHEM_IUPAC_CAS_NAME>
6-[(8a-carboxy-4,4,6a,6b,11,11,14b-heptamethyl-1,2,3,4a,5,6,7,8,9,10,12,12a,14,14a-tetradecahydropicen-3-yl)oxy]-3,5-dihydroxy-4-[[3,4,5-trihydroxy-6-(hydroxymethyl)-2-oxanyl]oxy]-2-oxanecarboxylic acid

>  <PUBCHEM_IUPAC_NAME>
6-[(8a-carboxy-4,4,6a,6b,11,11,14b-heptamethyl-1,2,3,4a,5,6,7,8,9,10,12,12a,14,14a-tetradecahydropicen-3-yl)oxy]-3,5-dihydroxy-4-[3,4,5-trihydroxy-6-(hydroxymethyl)oxan-2-yl]oxyoxane-2-carboxylic acid

>  <PUBCHEM_IUPAC_SYSTEMATIC_NAME>
6-[(8a-carboxy-4,4,6a,6b,11,11,14b-heptamethyl-1,2,3,4a,5,6,7,8,9,10,12,12a,14,14a-tetradecahydropicen-3-yl)oxy]-4-[6-(hydroxymethyl)-3,4,5-tris(oxidanyl)oxan-2-yl]oxy-3,5-bis(oxidanyl)oxane-2-carboxylic acid

>  <PUBCHEM_IUPAC_TRADITIONAL_NAME>
6-[(8a-carboxy-4,4,6a,6b,11,11,14b-heptamethyl-1,2,3,4a,5,6,7,8,9,10,12,12a,14,14a-tetradecahydropicen-3-yl)oxy]-3,5-dihydroxy-4-(3,4,5-trihydroxy-6-methylol-tetrahydropyran-2-yl)oxy-tetrahydropyran-2-carboxylic acid

>  <PUBCHEM_IUPAC_INCHI>
InChI=1S/C42H66O14/c1-37(2)14-16-42(36(51)52)17-15-40(6)20(21(42)18-37)8-9-24-39(5)12-11-25(38(3,4)23(39)10-13-41(24,40)7)54-35-30(48)31(29(47)32(56-35)33(49)50)55-34-28(46)27(45)26(44)22(19-43)53-34/h8,21-32,34-35,43-48H,9-19H2,1-7H3,(H,49,50)(H,51,52)

>  <PUBCHEM_IUPAC_INCHIKEY>
BQPYEFAVIPEQIK-UHFFFAOYSA-N

>  <PUBCHEM_XLOGP3_AA>
4.5

>  <PUBCHEM_EXACT_MASS>
794.445

>  <PUBCHEM_MOLECULAR_FORMULA>
C42H66O14

>  <PUBCHEM_MOLECULAR_WEIGHT>
794.976

>  <PUBCHEM_OPENEYE_CAN_SMILES>
CC1(CCC2(CCC3(C(=CCC4C3(CCC5C4(CCC(C5(C)C)OC6C(C(C(C(O6)C(=O)O)O)OC7C(C(C(C(O7)CO)O)O)O)O)C)C)C2C1)C)C(=O)O)C

>  <PUBCHEM_OPENEYE_ISO_SMILES>
CC1(CCC2(CCC3(C(=CCC4C3(CCC5C4(CCC(C5(C)C)OC6C(C(C(C(O6)C(=O)O)O)OC7C(C(C(C(O7)CO)O)O)O)O)C)C)C2C1)C)C(=O)O)C

>  <PUBCHEM_CACTVS_TPSA>
233

>  <PUBCHEM_MONOISOTOPIC_WEIGHT>
794.445

>  <PUBCHEM_TOTAL_CHARGE>
0

>  <PUBCHEM_HEAVY_ATOM_COUNT>
56

>  <PUBCHEM_ATOM_DEF_STEREO_COUNT>
0

>  <PUBCHEM_ATOM_UDEF_STEREO_COUNT>
18

>  <PUBCHEM_BOND_DEF_STEREO_COUNT>
0

>  <PUBCHEM_BOND_UDEF_STEREO_COUNT>
0

>  <PUBCHEM_ISOTOPIC_ATOM_COUNT>
0

>  <PUBCHEM_COMPONENT_COUNT>
1

>  <PUBCHEM_CACTVS_TAUTO_COUNT>
1

>  <PUBCHEM_COORDINATE_TYPE>
1
5
255

>  <PUBCHEM_BONDANNOTATIONS>
30  1  3
45  1  3
52  11  3
53  12  3
55  13  3
15  29  3
16  24  3
17  32  3
18  35  3
19  22  3
26  36  3
28  42  3
48  50  3
46  5  3
54  56  3
47  6  3
51  6  3
49  7  3

$$$$
