509267
 OpenBabel06101807152D

 62 66  0  0  0  0  0  0  0  0999 V2000
    6.3496   -3.3846    0.0000 O   0  0  0  0  0  0  0  0  0  0  0  0
    8.1059   -0.2304    0.0000 O   0  0  0  0  0  0  0  0  0  0  0  0
    9.9718    2.8460    0.0000 O   0  0  0  0  0  0  0  0  0  0  0  0
    4.5879   -2.2755    0.0000 O   0  0  0  0  0  0  0  0  0  0  0  0
    6.3521    2.8011    0.0000 O   0  0  0  0  0  0  0  0  0  0  0  0
    5.5078    1.2696    0.0000 O   0  0  0  0  0  0  0  0  0  0  0  0
    7.2892   -3.9271    0.0000 C   0  0  0  0  0  0  0  0  0  0  0  0
    6.3739   -0.2304    0.0000 C   0  0  0  0  0  0  0  0  0  0  0  0
    7.2560   -1.7719    0.0000 C   0  0  0  0  0  0  0  0  0  0  0  0
    7.2399   -0.7304    0.0000 C   0  0  0  0  0  0  0  0  0  0  0  0
    6.3579   -2.2997    0.0000 C   0  0  0  0  0  0  0  0  0  0  0  0
    5.4639   -0.7372    0.0000 C   0  0  0  0  0  0  0  0  0  0  0  0
    7.2399    1.2696    0.0000 C   0  0  0  0  0  0  0  0  0  0  0  0
    9.9802    3.9310    0.0000 C   0  0  0  0  0  0  0  0  0  0  0  0
    5.4558   -1.7788    0.0000 C   0  0  0  0  0  0  0  0  0  0  0  0
    8.1059    0.7696    0.0000 C   0  0  0  0  0  0  0  0  0  0  0  0
    6.3739    0.7696    0.0000 C   0  0  0  0  0  0  0  0  0  0  0  0
    8.2246   -3.3774    0.0000 C   0  0  0  0  0  0  0  0  0  0  0  0
    8.1219    2.8389    0.0000 C   0  0  0  0  0  0  0  0  0  0  0  0
    8.2079   -2.2925    0.0000 C   0  0  0  0  0  0  0  0  0  0  0  0
    9.0239    2.3181    0.0000 C   0  0  0  0  0  0  0  0  0  0  0  0
    7.2238    2.3111    0.0000 C   0  0  0  0  0  0  0  0  0  0  0  0
    4.6037   -0.2273    0.0000 C   0  0  0  0  0  0  0  0  0  0  0  0
    9.0159    1.2765    0.0000 C   0  0  0  0  0  0  0  0  0  0  0  0
    7.7925   -4.7912    0.0000 C   0  0  0  0  0  0  0  0  0  0  0  0
    6.7925   -4.7951    0.0000 C   0  0  0  0  0  0  0  0  0  0  0  0
    9.0406    4.4735    0.0000 C   0  0  0  0  0  0  0  0  0  0  0  0
    8.1052    3.9237    0.0000 C   0  0  0  0  0  0  0  0  0  0  0  0
   10.4835    4.7951    0.0000 C   0  0  0  0  0  0  0  0  0  0  0  0
   10.9802    3.9271    0.0000 C   0  0  0  0  0  0  0  0  0  0  0  0
    3.7319   -0.7172    0.0000 C   0  0  0  0  0  0  0  0  0  0  0  0
    2.8718   -0.2072    0.0000 C   0  0  0  0  0  0  0  0  0  0  0  0
    2.0000   -0.6972    0.0000 C   0  0  0  0  0  0  0  0  0  0  0  0
    2.8833    0.7927    0.0000 C   0  0  0  0  0  0  0  0  0  0  0  0
    8.7651   -3.6812    0.0000 H   0  0  0  0  0  0  0  0  0  0  0  0
    8.7387   -1.9722    0.0000 H   0  0  0  0  0  0  0  0  0  0  0  0
    5.0077    0.2431    0.0000 H   0  0  0  0  0  0  0  0  0  0  0  0
    4.2107    0.2523    0.0000 H   0  0  0  0  0  0  0  0  0  0  0  0
    9.5492    0.9603    0.0000 H   0  0  0  0  0  0  0  0  0  0  0  0
    6.2544   -4.4871    0.0000 H   0  0  0  0  0  0  0  0  0  0  0  0
    7.2568   -5.1033    0.0000 H   0  0  0  0  0  0  0  0  0  0  0  0
    8.1046   -5.3269    0.0000 H   0  0  0  0  0  0  0  0  0  0  0  0
    8.3283   -4.4791    0.0000 H   0  0  0  0  0  0  0  0  0  0  0  0
    6.4846   -5.3332    0.0000 H   0  0  0  0  0  0  0  0  0  0  0  0
    7.3307   -5.1030    0.0000 H   0  0  0  0  0  0  0  0  0  0  0  0
    9.0382    5.0935    0.0000 H   0  0  0  0  0  0  0  0  0  0  0  0
    7.5647    4.2275    0.0000 H   0  0  0  0  0  0  0  0  0  0  0  0
   11.0193    4.4830    0.0000 H   0  0  0  0  0  0  0  0  0  0  0  0
   10.7956    5.3308    0.0000 H   0  0  0  0  0  0  0  0  0  0  0  0
    9.9478    5.1071    0.0000 H   0  0  0  0  0  0  0  0  0  0  0  0
   10.9778    3.3071    0.0000 H   0  0  0  0  0  0  0  0  0  0  0  0
   11.6002    3.9247    0.0000 H   0  0  0  0  0  0  0  0  0  0  0  0
   10.9826    4.5471    0.0000 H   0  0  0  0  0  0  0  0  0  0  0  0
    3.7248   -1.3372    0.0000 H   0  0  0  0  0  0  0  0  0  0  0  0
    4.5855   -2.8955    0.0000 H   0  0  0  0  0  0  0  0  0  0  0  0
    6.3449    3.4210    0.0000 H   0  0  0  0  0  0  0  0  0  0  0  0
    1.6962   -0.1567    0.0000 H   0  0  0  0  0  0  0  0  0  0  0  0
    3.5033    0.7855    0.0000 H   0  0  0  0  0  0  0  0  0  0  0  0
    2.8905    1.4127    0.0000 H   0  0  0  0  0  0  0  0  0  0  0  0
    2.2634    0.7999    0.0000 H   0  0  0  0  0  0  0  0  0  0  0  0
    1.4595   -1.0010    0.0000 H   0  0  0  0  0  0  0  0  0  0  0  0
    2.3038   -1.2377    0.0000 H   0  0  0  0  0  0  0  0  0  0  0  0
  1  7  1  0  0  0  0
  1 11  1  0  0  0  0
  2 10  1  0  0  0  0
  2 16  1  0  0  0  0
  3 14  1  0  0  0  0
  3 21  1  0  0  0  0
  4 15  1  0  0  0  0
  4 55  1  0  0  0  0
  5 22  1  0  0  0  0
  5 56  1  0  0  0  0
  6 17  2  0  0  0  0
  7 18  1  0  0  0  0
  7 25  1  0  0  0  0
  7 26  1  0  0  0  0
  8 10  1  0  0  0  0
  8 12  2  0  0  0  0
  8 17  1  0  0  0  0
  9 10  2  0  0  0  0
  9 11  1  0  0  0  0
  9 20  1  0  0  0  0
 11 15  2  0  0  0  0
 12 15  1  0  0  0  0
 12 23  1  0  0  0  0
 13 16  1  0  0  0  0
 13 17  1  0  0  0  0
 13 22  2  0  0  0  0
 14 27  1  0  0  0  0
 14 29  1  0  0  0  0
 14 30  1  0  0  0  0
 16 24  2  0  0  0  0
 18 20  2  0  0  0  0
 18 35  1  0  0  0  0
 19 21  2  0  0  0  0
 19 22  1  0  0  0  0
 19 28  1  0  0  0  0
 20 36  1  0  0  0  0
 21 24  1  0  0  0  0
 23 31  1  0  0  0  0
 23 37  1  0  0  0  0
 23 38  1  0  0  0  0
 24 39  1  0  0  0  0
 25 41  1  0  0  0  0
 25 42  1  0  0  0  0
 25 43  1  0  0  0  0
 26 40  1  0  0  0  0
 26 44  1  0  0  0  0
 26 45  1  0  0  0  0
 27 28  2  0  0  0  0
 27 46  1  0  0  0  0
 28 47  1  0  0  0  0
 29 48  1  0  0  0  0
 29 49  1  0  0  0  0
 29 50  1  0  0  0  0
 30 51  1  0  0  0  0
 30 52  1  0  0  0  0
 30 53  1  0  0  0  0
 31 32  2  0  0  0  0
 31 54  1  0  0  0  0
 32 33  1  0  0  0  0
 32 34  1  0  0  0  0
 33 57  1  0  0  0  0
 33 61  1  0  0  0  0
 33 62  1  0  0  0  0
 34 58  1  0  0  0  0
 34 59  1  0  0  0  0
 34 60  1  0  0  0  0
M  END
>  <PUBCHEM_COMPOUND_CID>
509267

>  <PUBCHEM_COMPOUND_CANONICALIZED>
1

>  <PUBCHEM_CACTVS_COMPLEXITY>
912

>  <PUBCHEM_CACTVS_HBOND_ACCEPTOR>
6

>  <PUBCHEM_CACTVS_HBOND_DONOR>
2

>  <PUBCHEM_CACTVS_ROTATABLE_BOND>
2

>  <PUBCHEM_CACTVS_SUBSKEYS>
AAADceB4OAAAAAAAAAAAAAAAAAAAAAAAAAA0YIECAAAAAACRQAAAGgAACAAADESAmAAyBoAABgCIAqBSAAACCAAkIAAIiAEGiMgNJzaGNRqCeWOl4BULuQfK7PzO4QADCAAYQADCAAYQADCAAAAAAAAAAA==

>  <PUBCHEM_IUPAC_INCHI>
InChI=1S/C28H28O6/c1-14(2)7-8-16-20-24(31)21-19(13-18-15(22(21)29)9-11-27(3,4)33-18)32-25(20)17-10-12-28(5,6)34-26(17)23(16)30/h7,9-13,29-30H,8H2,1-6H3

>  <PUBCHEM_IUPAC_INCHIKEY>
YXCXOSIXGSUDDV-UHFFFAOYSA-N

>  <PUBCHEM_XLOGP3_AA>
6.6

>  <PUBCHEM_EXACT_MASS>
460.189

>  <PUBCHEM_MOLECULAR_FORMULA>
C28H28O6

>  <PUBCHEM_MOLECULAR_WEIGHT>
460.526

>  <PUBCHEM_OPENEYE_CAN_SMILES>
CC(=CCC1=C2C(=C3C=CC(OC3=C1O)(C)C)OC4=CC5=C(C=CC(O5)(C)C)C(=C4C2=O)O)C

>  <PUBCHEM_OPENEYE_ISO_SMILES>
CC(=CCC1=C2C(=C3C=CC(OC3=C1O)(C)C)OC4=CC5=C(C=CC(O5)(C)C)C(=C4C2=O)O)C

>  <PUBCHEM_CACTVS_TPSA>
85.2

>  <PUBCHEM_MONOISOTOPIC_WEIGHT>
460.189

>  <PUBCHEM_TOTAL_CHARGE>
0

>  <PUBCHEM_HEAVY_ATOM_COUNT>
34

>  <PUBCHEM_ATOM_DEF_STEREO_COUNT>
0

>  <PUBCHEM_ATOM_UDEF_STEREO_COUNT>
0

>  <PUBCHEM_BOND_DEF_STEREO_COUNT>
0

>  <PUBCHEM_BOND_UDEF_STEREO_COUNT>
0

>  <PUBCHEM_ISOTOPIC_ATOM_COUNT>
0

>  <PUBCHEM_COMPONENT_COUNT>
1

>  <PUBCHEM_CACTVS_TAUTO_COUNT>
193

>  <PUBCHEM_COORDINATE_TYPE>
1
5
255

>  <PUBCHEM_BONDANNOTATIONS>
11  15  8
12  15  8
13  16  8
13  17  8
13  22  8
16  24  8
19  21  8
19  22  8
2  10  8
2  16  8
21  24  8
8  10  8
8  12  8
8  17  8
9  10  8
9  11  8

$$$$
