5133468
 OpenBabel06101807152D

 25 26  0  0  0  0  0  0  0  0999 V2000
    4.6660   -2.4827    0.0000 O   0  0  0  0  0  0  0  0  0  0  0  0
    4.6660    0.5173    0.0000 O   0  0  0  0  0  0  0  0  0  0  0  0
    6.3981   -2.4827    0.0000 O   0  0  0  0  0  0  0  0  0  0  0  0
    3.8000   -0.9827    0.0000 C   0  0  0  0  0  0  0  0  0  0  0  0
    3.8000   -1.9827    0.0000 C   0  0  0  0  0  0  0  0  0  0  0  0
    4.6660   -0.4827    0.0000 C   0  0  0  0  0  0  0  0  0  0  0  0
    2.9061   -0.4480    0.0000 C   0  0  0  0  0  0  0  0  0  0  0  0
    2.9061   -2.5173    0.0000 C   0  0  0  0  0  0  0  0  0  0  0  0
    5.5321   -0.9827    0.0000 C   0  0  0  0  0  0  0  0  0  0  0  0
    2.0000   -0.9619    0.0000 C   0  0  0  0  0  0  0  0  0  0  0  0
    2.0000   -2.0035    0.0000 C   0  0  0  0  0  0  0  0  0  0  0  0
    5.5321   -1.9827    0.0000 C   0  0  0  0  0  0  0  0  0  0  0  0
    5.5321    1.0173    0.0000 C   0  0  0  0  0  0  0  0  0  0  0  0
    5.5321    2.0173    0.0000 C   0  0  0  0  0  0  0  0  0  0  0  0
    6.3981    2.5173    0.0000 C   0  0  0  0  0  0  0  0  0  0  0  0
    2.9132    0.1720    0.0000 H   0  0  0  0  0  0  0  0  0  0  0  0
    2.9132   -3.1373    0.0000 H   0  0  0  0  0  0  0  0  0  0  0  0
    6.0690   -0.6727    0.0000 H   0  0  0  0  0  0  0  0  0  0  0  0
    1.4643   -0.6498    0.0000 H   0  0  0  0  0  0  0  0  0  0  0  0
    1.4643   -2.3156    0.0000 H   0  0  0  0  0  0  0  0  0  0  0  0
    5.7441    0.4347    0.0000 H   0  0  0  0  0  0  0  0  0  0  0  0
    6.1426    1.1250    0.0000 H   0  0  0  0  0  0  0  0  0  0  0  0
    4.9951    2.3273    0.0000 H   0  0  0  0  0  0  0  0  0  0  0  0
    6.9350    2.2073    0.0000 H   0  0  0  0  0  0  0  0  0  0  0  0
    6.3981    3.1373    0.0000 H   0  0  0  0  0  0  0  0  0  0  0  0
  1  5  1  0  0  0  0
  1 12  1  0  0  0  0
  2  6  1  0  0  0  0
  2 13  1  0  0  0  0
  3 12  2  0  0  0  0
  4  5  1  0  0  0  0
  4  6  1  0  0  0  0
  4  7  2  0  0  0  0
  5  8  2  0  0  0  0
  6  9  2  0  0  0  0
  7 10  1  0  0  0  0
  7 16  1  0  0  0  0
  8 11  1  0  0  0  0
  8 17  1  0  0  0  0
  9 12  1  0  0  0  0
  9 18  1  0  0  0  0
 10 11  2  0  0  0  0
 10 19  1  0  0  0  0
 11 20  1  0  0  0  0
 13 14  1  0  0  0  0
 13 21  1  0  0  0  0
 13 22  1  0  0  0  0
 14 15  2  0  0  0  0
 14 23  1  0  0  0  0
 15 24  1  0  0  0  0
 15 25  1  0  0  0  0
M  END
>  <PUBCHEM_COMPOUND_CID>
5133468

>  <PUBCHEM_COMPOUND_CANONICALIZED>
1

>  <PUBCHEM_CACTVS_COMPLEXITY>
293

>  <PUBCHEM_CACTVS_HBOND_ACCEPTOR>
3

>  <PUBCHEM_CACTVS_HBOND_DONOR>
0

>  <PUBCHEM_CACTVS_ROTATABLE_BOND>
3

>  <PUBCHEM_CACTVS_SUBSKEYS>
AAADccBwMAAAAAAAAAAAAAAAAAAAAAAAAAAwQAAAAAAAAACBAAAAGgAAAAAADASgmAIwDoAABACIAiDSCAACCAAgIAAIiAAGCMgMJyKEMRqCOiClwBEIqQeAwCAOAAAAAAAIAAAAAAAAABAAAAAAAAAAAA==

>  <PUBCHEM_IUPAC_OPENEYE_NAME>
4-allyloxychromen-2-one

>  <PUBCHEM_IUPAC_CAS_NAME>
4-prop-2-enoxy-1-benzopyran-2-one

>  <PUBCHEM_IUPAC_NAME>
4-prop-2-enoxychromen-2-one

>  <PUBCHEM_IUPAC_SYSTEMATIC_NAME>
4-prop-2-enoxychromen-2-one

>  <PUBCHEM_IUPAC_TRADITIONAL_NAME>
4-allyloxycoumarin

>  <PUBCHEM_IUPAC_INCHI>
InChI=1S/C12H10O3/c1-2-7-14-11-8-12(13)15-10-6-4-3-5-9(10)11/h2-6,8H,1,7H2

>  <PUBCHEM_IUPAC_INCHIKEY>
LWRKLYVFSHDLMU-UHFFFAOYSA-N

>  <PUBCHEM_XLOGP3_AA>
2.2

>  <PUBCHEM_EXACT_MASS>
202.063

>  <PUBCHEM_MOLECULAR_FORMULA>
C12H10O3

>  <PUBCHEM_MOLECULAR_WEIGHT>
202.209

>  <PUBCHEM_OPENEYE_CAN_SMILES>
C=CCOC1=CC(=O)OC2=CC=CC=C21

>  <PUBCHEM_OPENEYE_ISO_SMILES>
C=CCOC1=CC(=O)OC2=CC=CC=C21

>  <PUBCHEM_CACTVS_TPSA>
35.5

>  <PUBCHEM_MONOISOTOPIC_WEIGHT>
202.063

>  <PUBCHEM_TOTAL_CHARGE>
0

>  <PUBCHEM_HEAVY_ATOM_COUNT>
15

>  <PUBCHEM_ATOM_DEF_STEREO_COUNT>
0

>  <PUBCHEM_ATOM_UDEF_STEREO_COUNT>
0

>  <PUBCHEM_BOND_DEF_STEREO_COUNT>
0

>  <PUBCHEM_BOND_UDEF_STEREO_COUNT>
0

>  <PUBCHEM_ISOTOPIC_ATOM_COUNT>
0

>  <PUBCHEM_COMPONENT_COUNT>
1

>  <PUBCHEM_CACTVS_TAUTO_COUNT>
1

>  <PUBCHEM_COORDINATE_TYPE>
1
5
255

>  <PUBCHEM_BONDANNOTATIONS>
1  12  8
1  5  8
10  11  8
4  5  8
4  6  8
4  7  8
5  8  8
6  9  8
7  10  8
8  11  8
9  12  8

$$$$
