51551
 OpenBabel06101807152D

 42 42  0  0  1  0  0  0  0  0999 V2000
    6.3301    1.2694    0.0000 O   0  0  0  0  0  0  0  0  0  0  0  0
    2.0000   -1.2306    0.0000 O   0  0  0  0  0  0  0  0  0  0  0  0
    3.3660   -4.2694    0.0000 O   0  0  0  0  0  0  0  0  0  0  0  0
    4.5981    0.2694    0.0000 C   0  0  3  0  0  0  0  0  0  0  0  0
    4.5981    1.2694    0.0000 C   0  0  0  0  0  0  0  0  0  0  0  0
    5.4641    1.7694    0.0000 C   0  0  3  0  0  0  0  0  0  0  0  0
    5.4641    2.7694    0.0000 C   0  0  0  0  0  0  0  0  0  0  0  0
    3.7320   -0.2306    0.0000 C   0  0  0  0  0  0  0  0  0  0  0  0
    6.3301    3.2694    0.0000 C   0  0  0  0  0  0  0  0  0  0  0  0
    5.4641   -0.2306    0.0000 C   0  0  0  0  0  0  0  0  0  0  0  0
    3.7320   -1.2306    0.0000 C   0  0  0  0  0  0  0  0  0  0  0  0
    6.3301    4.2694    0.0000 C   0  0  0  0  0  0  0  0  0  0  0  0
    7.1962    2.7694    0.0000 C   0  0  0  0  0  0  0  0  0  0  0  0
    2.8660   -1.7306    0.0000 C   0  0  0  0  0  0  0  0  0  0  0  0
    2.8660   -2.7306    0.0000 C   0  0  0  0  0  0  0  0  0  0  0  0
    2.0570   -3.3184    0.0000 C   0  0  0  0  0  0  0  0  0  0  0  0
    3.6750   -3.3184    0.0000 C   0  0  0  0  0  0  0  0  0  0  0  0
    2.3660   -4.2694    0.0000 C   0  0  0  0  0  0  0  0  0  0  0  0
    4.5981   -0.5806    0.0000 H   0  0  0  0  0  0  0  0  0  0  0  0
    4.3860    1.8520    0.0000 H   0  0  0  0  0  0  0  0  0  0  0  0
    3.9875    1.1618    0.0000 H   0  0  0  0  0  0  0  0  0  0  0  0
    5.4641    0.9194    0.0000 H   0  0  0  0  0  0  0  0  0  0  0  0
    5.2520    3.3520    0.0000 H   0  0  0  0  0  0  0  0  0  0  0  0
    4.8535    2.6618    0.0000 H   0  0  0  0  0  0  0  0  0  0  0  0
    3.5200    0.3520    0.0000 H   0  0  0  0  0  0  0  0  0  0  0  0
    3.1215   -0.3382    0.0000 H   0  0  0  0  0  0  0  0  0  0  0  0
    6.8671    3.5794    0.0000 H   0  0  0  0  0  0  0  0  0  0  0  0
    5.1541   -0.7675    0.0000 H   0  0  0  0  0  0  0  0  0  0  0  0
    6.0010   -0.5406    0.0000 H   0  0  0  0  0  0  0  0  0  0  0  0
    5.7741    0.3064    0.0000 H   0  0  0  0  0  0  0  0  0  0  0  0
    3.9441   -1.8132    0.0000 H   0  0  0  0  0  0  0  0  0  0  0  0
    4.3426   -1.1229    0.0000 H   0  0  0  0  0  0  0  0  0  0  0  0
    6.9501    4.2694    0.0000 H   0  0  0  0  0  0  0  0  0  0  0  0
    6.3301    4.8894    0.0000 H   0  0  0  0  0  0  0  0  0  0  0  0
    5.7101    4.2694    0.0000 H   0  0  0  0  0  0  0  0  0  0  0  0
    6.8862    2.2325    0.0000 H   0  0  0  0  0  0  0  0  0  0  0  0
    7.7331    2.4594    0.0000 H   0  0  0  0  0  0  0  0  0  0  0  0
    7.5062    3.3064    0.0000 H   0  0  0  0  0  0  0  0  0  0  0  0
    6.8671    1.5794    0.0000 H   0  0  0  0  0  0  0  0  0  0  0  0
    1.4674   -3.1268    0.0000 H   0  0  0  0  0  0  0  0  0  0  0  0
    4.2647   -3.1268    0.0000 H   0  0  0  0  0  0  0  0  0  0  0  0
    2.0016   -4.7710    0.0000 H   0  0  0  0  0  0  0  0  0  0  0  0
  1  6  1  0  0  0  0
  1 39  1  0  0  0  0
  2 14  2  0  0  0  0
  3 17  1  0  0  0  0
  3 18  1  0  0  0  0
  4  5  1  0  0  0  0
  4  8  1  0  0  0  0
  4 10  1  0  0  0  0
  4 19  1  0  0  0  0
  5  6  1  0  0  0  0
  5 20  1  0  0  0  0
  5 21  1  0  0  0  0
  6  7  1  0  0  0  0
  6 22  1  0  0  0  0
  7  9  1  0  0  0  0
  7 23  1  0  0  0  0
  7 24  1  0  0  0  0
  8 11  1  0  0  0  0
  8 25  1  0  0  0  0
  8 26  1  0  0  0  0
  9 12  1  0  0  0  0
  9 13  1  0  0  0  0
  9 27  1  0  0  0  0
 10 28  1  0  0  0  0
 10 29  1  0  0  0  0
 10 30  1  0  0  0  0
 11 14  1  0  0  0  0
 11 31  1  0  0  0  0
 11 32  1  0  0  0  0
 12 33  1  0  0  0  0
 12 34  1  0  0  0  0
 12 35  1  0  0  0  0
 13 36  1  0  0  0  0
 13 37  1  0  0  0  0
 13 38  1  0  0  0  0
 14 15  1  0  0  0  0
 15 16  1  0  0  0  0
 15 17  2  0  0  0  0
 16 18  2  0  0  0  0
 16 40  1  0  0  0  0
 17 41  1  0  0  0  0
 18 42  1  0  0  0  0
M  END
>  <PUBCHEM_COMPOUND_CID>
51551

>  <PUBCHEM_COMPOUND_CANONICALIZED>
1

>  <PUBCHEM_CACTVS_COMPLEXITY>
250

>  <PUBCHEM_CACTVS_HBOND_ACCEPTOR>
3

>  <PUBCHEM_CACTVS_HBOND_DONOR>
1

>  <PUBCHEM_CACTVS_ROTATABLE_BOND>
8

>  <PUBCHEM_CACTVS_SUBSKEYS>
AAADceBwMAAAAAAAAAAAAAAAAAAAASAAAAAAAAAAAAAAAAABgAAAGgAACAAADRSgmAIyBIAABkCIAqhSgAACCAAkIAAIiAEGCMgMNhYMNQqCWWCk4BEIKYOLyOCOAAAAAAAAAAAAAAAAAAAAAAAAAAAAAA==

>  <PUBCHEM_IUPAC_OPENEYE_NAME>
1-(3-furyl)-6-hydroxy-4,8-dimethyl-nonan-1-one

>  <PUBCHEM_IUPAC_CAS_NAME>
1-(3-furanyl)-6-hydroxy-4,8-dimethyl-1-nonanone

>  <PUBCHEM_IUPAC_NAME>
1-(furan-3-yl)-6-hydroxy-4,8-dimethylnonan-1-one

>  <PUBCHEM_IUPAC_SYSTEMATIC_NAME>
1-(furan-3-yl)-4,8-dimethyl-6-oxidanyl-nonan-1-one

>  <PUBCHEM_IUPAC_TRADITIONAL_NAME>
1-(3-furyl)-6-hydroxy-4,8-dimethyl-nonan-1-one

>  <PUBCHEM_IUPAC_INCHI>
InChI=1S/C15H24O3/c1-11(2)8-14(16)9-12(3)4-5-15(17)13-6-7-18-10-13/h6-7,10-12,14,16H,4-5,8-9H2,1-3H3

>  <PUBCHEM_IUPAC_INCHIKEY>
BROZQMCDYUJKFQ-UHFFFAOYSA-N

>  <PUBCHEM_XLOGP3>
3.7

>  <PUBCHEM_EXACT_MASS>
252.173

>  <PUBCHEM_MOLECULAR_FORMULA>
C15H24O3

>  <PUBCHEM_MOLECULAR_WEIGHT>
252.354

>  <PUBCHEM_OPENEYE_CAN_SMILES>
CC(C)CC(CC(C)CCC(=O)C1=COC=C1)O

>  <PUBCHEM_OPENEYE_ISO_SMILES>
CC(C)CC(CC(C)CCC(=O)C1=COC=C1)O

>  <PUBCHEM_CACTVS_TPSA>
50.4

>  <PUBCHEM_MONOISOTOPIC_WEIGHT>
252.173

>  <PUBCHEM_TOTAL_CHARGE>
0

>  <PUBCHEM_HEAVY_ATOM_COUNT>
18

>  <PUBCHEM_ATOM_DEF_STEREO_COUNT>
0

>  <PUBCHEM_ATOM_UDEF_STEREO_COUNT>
2

>  <PUBCHEM_BOND_DEF_STEREO_COUNT>
0

>  <PUBCHEM_BOND_UDEF_STEREO_COUNT>
0

>  <PUBCHEM_ISOTOPIC_ATOM_COUNT>
0

>  <PUBCHEM_COMPONENT_COUNT>
1

>  <PUBCHEM_CACTVS_TAUTO_COUNT>
2

>  <PUBCHEM_COORDINATE_TYPE>
1
5
255

>  <PUBCHEM_BONDANNOTATIONS>
15  16  8
15  17  8
16  18  8
3  17  8
3  18  8
4  19  3
6  22  3

$$$$
