519960
 OpenBabel06101807152D

 39 42  0  0  1  0  0  0  0  0999 V2000
    5.4772    0.5853    0.0000 C   0  0  3  0  0  0  0  0  0  0  0  0
    4.9772    1.4514    0.0000 C   0  0  3  0  0  0  0  0  0  0  0  0
    5.9772    1.4514    0.0000 C   0  0  3  0  0  0  0  0  0  0  0  0
    5.3858   -1.1099    0.0000 C   0  0  3  0  0  0  0  0  0  0  0  0
    5.4772   -0.0785    0.0000 C   0  0  3  0  0  0  0  0  0  0  0  0
    4.6725    0.5052    0.0000 C   0  0  3  0  0  0  0  0  0  0  0  0
    6.2820    0.5052    0.0000 C   0  0  0  0  0  0  0  0  0  0  0  0
    3.7205    0.0978    0.0000 C   0  0  3  0  0  0  0  0  0  0  0  0
    4.4435   -1.5391    0.0000 C   0  0  0  0  0  0  0  0  0  0  0  0
    6.1201   -0.1806    0.0000 C   0  0  0  0  0  0  0  0  0  0  0  0
    3.6052   -0.9312    0.0000 C   0  0  0  0  0  0  0  0  0  0  0  0
    6.2020   -1.6876    0.0000 C   0  0  0  0  0  0  0  0  0  0  0  0
    2.9178    0.6942    0.0000 C   0  0  0  0  0  0  0  0  0  0  0  0
    2.0000    0.2973    0.0000 C   0  0  0  0  0  0  0  0  0  0  0  0
    3.0330    1.6876    0.0000 C   0  0  0  0  0  0  0  0  0  0  0  0
    4.4767    2.1384    0.0000 H   0  0  0  0  0  0  0  0  0  0  0  0
    6.4777    2.1384    0.0000 H   0  0  0  0  0  0  0  0  0  0  0  0
    6.2166   -0.4978    0.0000 H   0  0  0  0  0  0  0  0  0  0  0  0
    4.0442    1.0777    0.0000 H   0  0  0  0  0  0  0  0  0  0  0  0
    6.5912   -0.0322    0.0000 H   0  0  0  0  0  0  0  0  0  0  0  0
    6.8489    0.7562    0.0000 H   0  0  0  0  0  0  0  0  0  0  0  0
    2.9410   -0.2411    0.0000 H   0  0  0  0  0  0  0  0  0  0  0  0
    3.9990   -1.9714    0.0000 H   0  0  0  0  0  0  0  0  0  0  0  0
    4.7933   -2.0510    0.0000 H   0  0  0  0  0  0  0  0  0  0  0  0
    5.6452   -0.5792    0.0000 H   0  0  0  0  0  0  0  0  0  0  0  0
    6.5187   -0.6555    0.0000 H   0  0  0  0  0  0  0  0  0  0  0  0
    6.5950    0.2179    0.0000 H   0  0  0  0  0  0  0  0  0  0  0  0
    3.0100   -0.7578    0.0000 H   0  0  0  0  0  0  0  0  0  0  0  0
    3.3325   -1.4880    0.0000 H   0  0  0  0  0  0  0  0  0  0  0  0
    5.8439   -2.1936    0.0000 H   0  0  0  0  0  0  0  0  0  0  0  0
    6.7081   -2.0457    0.0000 H   0  0  0  0  0  0  0  0  0  0  0  0
    6.5602   -1.1815    0.0000 H   0  0  0  0  0  0  0  0  0  0  0  0
    3.4869    0.9403    0.0000 H   0  0  0  0  0  0  0  0  0  0  0  0
    1.7539    0.8663    0.0000 H   0  0  0  0  0  0  0  0  0  0  0  0
    1.4309    0.0512    0.0000 H   0  0  0  0  0  0  0  0  0  0  0  0
    2.2461   -0.2718    0.0000 H   0  0  0  0  0  0  0  0  0  0  0  0
    3.6489    1.6162    0.0000 H   0  0  0  0  0  0  0  0  0  0  0  0
    3.1044    2.3034    0.0000 H   0  0  0  0  0  0  0  0  0  0  0  0
    2.4171    1.7590    0.0000 H   0  0  0  0  0  0  0  0  0  0  0  0
  1  2  1  0  0  0  0
  1  3  1  0  0  0  0
  1  4  1  0  0  0  0
  1 10  1  0  0  0  0
  2  3  1  0  0  0  0
  2  6  1  0  0  0  0
  2 16  1  0  0  0  0
  3  7  1  0  0  0  0
  3 17  1  0  0  0  0
  4  5  1  0  0  0  0
  4  9  1  0  0  0  0
  4 12  1  0  0  0  0
  5  6  1  0  0  0  0
  5  7  1  0  0  0  0
  5 18  1  0  0  0  0
  6  8  1  0  0  0  0
  6 19  1  0  0  0  0
  7 20  1  0  0  0  0
  7 21  1  0  0  0  0
  8 11  1  0  0  0  0
  8 13  1  0  0  0  0
  8 22  1  0  0  0  0
  9 11  1  0  0  0  0
  9 23  1  0  0  0  0
  9 24  1  0  0  0  0
 10 25  1  0  0  0  0
 10 26  1  0  0  0  0
 10 27  1  0  0  0  0
 11 28  1  0  0  0  0
 11 29  1  0  0  0  0
 12 30  1  0  0  0  0
 12 31  1  0  0  0  0
 12 32  1  0  0  0  0
 13 14  1  0  0  0  0
 13 15  1  0  0  0  0
 13 33  1  0  0  0  0
 14 34  1  0  0  0  0
 14 35  1  0  0  0  0
 14 36  1  0  0  0  0
 15 37  1  0  0  0  0
 15 38  1  0  0  0  0
 15 39  1  0  0  0  0
M  END
>  <PUBCHEM_COMPOUND_CID>
519960

>  <PUBCHEM_COMPOUND_CANONICALIZED>
1

>  <PUBCHEM_CACTVS_COMPLEXITY>
331

>  <PUBCHEM_CACTVS_HBOND_ACCEPTOR>
0

>  <PUBCHEM_CACTVS_HBOND_DONOR>
0

>  <PUBCHEM_CACTVS_ROTATABLE_BOND>
1

>  <PUBCHEM_CACTVS_SUBSKEYS>
AAADceBwAAAAAAAAAAAAAAAAGAAAAYMAAAAwAAAABgAAAAAAAAAAGAAAAAAADwCAAAACAAAAAAAAAAAAAAAAAAAAAAAAAAAAAAAAAAIAAAAAAAAAAAAAAAEAgMAPgAAAAAAAAACAAAQAACAAAQAACAAAAA==

>  <PUBCHEM_IUPAC_INCHI>
InChI=1S/C15H24/c1-8(2)9-5-6-14(3)10-7-11-13(12(9)10)15(11,14)4/h8-13H,5-7H2,1-4H3

>  <PUBCHEM_IUPAC_INCHIKEY>
XBWACJDEQIZTPR-UHFFFAOYSA-N

>  <PUBCHEM_XLOGP3_AA>
4.9

>  <PUBCHEM_EXACT_MASS>
204.188

>  <PUBCHEM_MOLECULAR_FORMULA>
C15H24

>  <PUBCHEM_MOLECULAR_WEIGHT>
204.357

>  <PUBCHEM_OPENEYE_CAN_SMILES>
CC(C)C1CCC2(C3C1C4C2(C4C3)C)C

>  <PUBCHEM_OPENEYE_ISO_SMILES>
CC(C)C1CCC2(C3C1C4C2(C4C3)C)C

>  <PUBCHEM_CACTVS_TPSA>
0

>  <PUBCHEM_MONOISOTOPIC_WEIGHT>
204.188

>  <PUBCHEM_TOTAL_CHARGE>
0

>  <PUBCHEM_HEAVY_ATOM_COUNT>
15

>  <PUBCHEM_ATOM_DEF_STEREO_COUNT>
0

>  <PUBCHEM_ATOM_UDEF_STEREO_COUNT>
7

>  <PUBCHEM_BOND_DEF_STEREO_COUNT>
0

>  <PUBCHEM_BOND_UDEF_STEREO_COUNT>
0

>  <PUBCHEM_ISOTOPIC_ATOM_COUNT>
0

>  <PUBCHEM_COMPONENT_COUNT>
1

>  <PUBCHEM_CACTVS_TAUTO_COUNT>
1

>  <PUBCHEM_COORDINATE_TYPE>
1
5
255

>  <PUBCHEM_BONDANNOTATIONS>
1  10  3
2  16  3
3  17  3
4  12  3
5  18  3
6  19  3
8  22  3

$$$$
