521979
 OpenBabel06101807152D

 21 20  0  0  0  0  0  0  0  0999 V2000
    2.5369   -0.4330    0.0000 O   0  0  0  0  0  0  0  0  0  0  0  0
    6.0010    0.5670    0.0000 O   0  0  0  0  0  0  0  0  0  0  0  0
    5.1350   -0.9330    0.0000 O   0  0  0  0  0  0  0  0  0  0  0  0
    3.4030    0.0670    0.0000 C   0  0  0  0  0  0  0  0  0  0  0  0
    4.2690    0.5670    0.0000 C   0  0  0  0  0  0  0  0  0  0  0  0
    2.9030    0.9330    0.0000 C   0  0  0  0  0  0  0  0  0  0  0  0
    3.9030   -0.7990    0.0000 C   0  0  0  0  0  0  0  0  0  0  0  0
    5.1350    0.0670    0.0000 C   0  0  0  0  0  0  0  0  0  0  0  0
    6.8671    0.0670    0.0000 C   0  0  0  0  0  0  0  0  0  0  0  0
    4.6675    1.0419    0.0000 H   0  0  0  0  0  0  0  0  0  0  0  0
    3.8705    1.0419    0.0000 H   0  0  0  0  0  0  0  0  0  0  0  0
    3.4399    1.2430    0.0000 H   0  0  0  0  0  0  0  0  0  0  0  0
    2.5930    1.4700    0.0000 H   0  0  0  0  0  0  0  0  0  0  0  0
    2.3660    0.6230    0.0000 H   0  0  0  0  0  0  0  0  0  0  0  0
    3.3660   -1.1090    0.0000 H   0  0  0  0  0  0  0  0  0  0  0  0
    4.2130   -1.3360    0.0000 H   0  0  0  0  0  0  0  0  0  0  0  0
    4.4399   -0.4890    0.0000 H   0  0  0  0  0  0  0  0  0  0  0  0
    2.0000   -0.1230    0.0000 H   0  0  0  0  0  0  0  0  0  0  0  0
    6.5571   -0.4699    0.0000 H   0  0  0  0  0  0  0  0  0  0  0  0
    7.4040   -0.2430    0.0000 H   0  0  0  0  0  0  0  0  0  0  0  0
    7.1771    0.6039    0.0000 H   0  0  0  0  0  0  0  0  0  0  0  0
  1  4  1  0  0  0  0
  1 18  1  0  0  0  0
  2  8  1  0  0  0  0
  2  9  1  0  0  0  0
  3  8  2  0  0  0  0
  4  5  1  0  0  0  0
  4  6  1  0  0  0  0
  4  7  1  0  0  0  0
  5  8  1  0  0  0  0
  5 10  1  0  0  0  0
  5 11  1  0  0  0  0
  6 12  1  0  0  0  0
  6 13  1  0  0  0  0
  6 14  1  0  0  0  0
  7 15  1  0  0  0  0
  7 16  1  0  0  0  0
  7 17  1  0  0  0  0
  9 19  1  0  0  0  0
  9 20  1  0  0  0  0
  9 21  1  0  0  0  0
M  END
>  <PUBCHEM_COMPOUND_CID>
521979

>  <PUBCHEM_COMPOUND_CANONICALIZED>
1

>  <PUBCHEM_CACTVS_COMPLEXITY>
107

>  <PUBCHEM_CACTVS_HBOND_ACCEPTOR>
3

>  <PUBCHEM_CACTVS_HBOND_DONOR>
1

>  <PUBCHEM_CACTVS_ROTATABLE_BOND>
3

>  <PUBCHEM_CACTVS_SUBSKEYS>
AAADccBgMAAAAAAAAAAAAAAAAAAAAAAAAAAAAAAAAAAAAAAAAAAAGgAACAAADESAgAICCAAABgAIAACQCAAAAAAAAAAAAAEAAAAAABQAAAAAQAAFIAAAAAAAAAAIAAAAAAAAAAAAAAAAAAAAAAAAAAAAAA==

>  <PUBCHEM_IUPAC_OPENEYE_NAME>
methyl 3-hydroxy-3-methyl-butanoate

>  <PUBCHEM_IUPAC_CAS_NAME>
3-hydroxy-3-methylbutanoic acid methyl ester

>  <PUBCHEM_IUPAC_NAME>
methyl 3-hydroxy-3-methylbutanoate

>  <PUBCHEM_IUPAC_SYSTEMATIC_NAME>
methyl 3-methyl-3-oxidanyl-butanoate

>  <PUBCHEM_IUPAC_TRADITIONAL_NAME>
3-hydroxy-3-methyl-butyric acid methyl ester

>  <PUBCHEM_IUPAC_INCHI>
InChI=1S/C6H12O3/c1-6(2,8)4-5(7)9-3/h8H,4H2,1-3H3

>  <PUBCHEM_IUPAC_INCHIKEY>
JNURPEZKOSMRMZ-UHFFFAOYSA-N

>  <PUBCHEM_XLOGP3_AA>
0

>  <PUBCHEM_EXACT_MASS>
132.079

>  <PUBCHEM_MOLECULAR_FORMULA>
C6H12O3

>  <PUBCHEM_MOLECULAR_WEIGHT>
132.159

>  <PUBCHEM_OPENEYE_CAN_SMILES>
CC(C)(CC(=O)OC)O

>  <PUBCHEM_OPENEYE_ISO_SMILES>
CC(C)(CC(=O)OC)O

>  <PUBCHEM_CACTVS_TPSA>
46.5

>  <PUBCHEM_MONOISOTOPIC_WEIGHT>
132.079

>  <PUBCHEM_TOTAL_CHARGE>
0

>  <PUBCHEM_HEAVY_ATOM_COUNT>
9

>  <PUBCHEM_ATOM_DEF_STEREO_COUNT>
0

>  <PUBCHEM_ATOM_UDEF_STEREO_COUNT>
0

>  <PUBCHEM_BOND_DEF_STEREO_COUNT>
0

>  <PUBCHEM_BOND_UDEF_STEREO_COUNT>
0

>  <PUBCHEM_ISOTOPIC_ATOM_COUNT>
0

>  <PUBCHEM_COMPONENT_COUNT>
1

>  <PUBCHEM_CACTVS_TAUTO_COUNT>
1

>  <PUBCHEM_COORDINATE_TYPE>
1
5
255

$$$$
