5245667
 OpenBabel06101807152D

 38 43  0  0  0  0  0  0  0  0999 V2000
    5.5740   -3.5278    0.0000 O   0  0  0  0  0  0  0  0  0  0  0  0
    4.0684   -4.4125    0.0000 O   0  0  0  0  0  0  0  0  0  0  0  0
    2.9950    3.5673    0.0000 O   0  0  0  0  0  0  0  0  0  0  0  0
    4.4403    4.4167    0.0000 O   0  0  0  0  0  0  0  0  0  0  0  0
    2.0520    1.8368    0.0000 O   0  0  0  0  0  0  0  0  0  0  0  0
    2.9180    0.3368    0.0000 N   0  0  0  0  0  0  0  0  0  0  0  0
    2.0080   -0.1700    0.0000 C   0  0  0  0  0  0  0  0  0  0  0  0
    3.7841   -0.1632    0.0000 C   0  0  0  0  0  0  0  0  0  0  0  0
    2.0000   -1.2116    0.0000 C   0  0  0  0  0  0  0  0  0  0  0  0
    3.8001   -1.2047    0.0000 C   0  0  0  0  0  0  0  0  0  0  0  0
    2.9021   -1.7324    0.0000 C   0  0  0  0  0  0  0  0  0  0  0  0
    3.7841    1.8368    0.0000 C   0  0  0  0  0  0  0  0  0  0  0  0
    2.9180    1.3368    0.0000 C   0  0  0  0  0  0  0  0  0  0  0  0
    4.6501    0.3368    0.0000 C   0  0  0  0  0  0  0  0  0  0  0  0
    4.6501    1.3368    0.0000 C   0  0  0  0  0  0  0  0  0  0  0  0
    4.7520   -1.7253    0.0000 C   0  0  0  0  0  0  0  0  0  0  0  0
    2.8937   -2.8174    0.0000 C   0  0  0  0  0  0  0  0  0  0  0  0
    3.7680    2.8783    0.0000 C   0  0  0  0  0  0  0  0  0  0  0  0
    4.7688   -2.8102    0.0000 C   0  0  0  0  0  0  0  0  0  0  0  0
    3.8334   -3.3599    0.0000 C   0  0  0  0  0  0  0  0  0  0  0  0
    5.5601    1.8437    0.0000 C   0  0  0  0  0  0  0  0  0  0  0  0
    4.6660    3.4061    0.0000 C   0  0  0  0  0  0  0  0  0  0  0  0
    5.5681    2.8853    0.0000 C   0  0  0  0  0  0  0  0  0  0  0  0
    5.1420   -4.5161    0.0000 C   0  0  0  0  0  0  0  0  0  0  0  0
    3.4096    4.5161    0.0000 C   0  0  0  0  0  0  0  0  0  0  0  0
    1.8035    0.4153    0.0000 H   0  0  0  0  0  0  0  0  0  0  0  0
    1.3964   -0.2714    0.0000 H   0  0  0  0  0  0  0  0  0  0  0  0
    1.3900   -1.1008    0.0000 H   0  0  0  0  0  0  0  0  0  0  0  0
    1.7864   -1.7937    0.0000 H   0  0  0  0  0  0  0  0  0  0  0  0
    5.1870    0.0268    0.0000 H   0  0  0  0  0  0  0  0  0  0  0  0
    5.2829   -1.4050    0.0000 H   0  0  0  0  0  0  0  0  0  0  0  0
    2.3556   -3.1253    0.0000 H   0  0  0  0  0  0  0  0  0  0  0  0
    6.0934    1.5275    0.0000 H   0  0  0  0  0  0  0  0  0  0  0  0
    6.1062    3.1932    0.0000 H   0  0  0  0  0  0  0  0  0  0  0  0
    5.0180   -5.1235    0.0000 H   0  0  0  0  0  0  0  0  0  0  0  0
    5.7331   -4.7033    0.0000 H   0  0  0  0  0  0  0  0  0  0  0  0
    3.5337    5.1235    0.0000 H   0  0  0  0  0  0  0  0  0  0  0  0
    2.8186    4.7033    0.0000 H   0  0  0  0  0  0  0  0  0  0  0  0
  1 19  1  0  0  0  0
  1 24  1  0  0  0  0
  2 20  1  0  0  0  0
  2 24  1  0  0  0  0
  3 18  1  0  0  0  0
  3 25  1  0  0  0  0
  4 22  1  0  0  0  0
  4 25  1  0  0  0  0
  5 13  2  0  0  0  0
  6  7  1  0  0  0  0
  6  8  1  0  0  0  0
  6 13  1  0  0  0  0
  7  9  1  0  0  0  0
  7 26  1  0  0  0  0
  7 27  1  0  0  0  0
  8 10  1  0  0  0  0
  8 14  2  0  0  0  0
  9 11  1  0  0  0  0
  9 28  1  0  0  0  0
  9 29  1  0  0  0  0
 10 11  1  0  0  0  0
 10 16  2  0  0  0  0
 11 17  2  0  0  0  0
 12 13  1  0  0  0  0
 12 15  2  0  0  0  0
 12 18  1  0  0  0  0
 14 15  1  0  0  0  0
 14 30  1  0  0  0  0
 15 21  1  0  0  0  0
 16 19  1  0  0  0  0
 16 31  1  0  0  0  0
 17 20  1  0  0  0  0
 17 32  1  0  0  0  0
 18 22  2  0  0  0  0
 19 20  2  0  0  0  0
 21 23  2  0  0  0  0
 21 33  1  0  0  0  0
 22 23  1  0  0  0  0
 23 34  1  0  0  0  0
 24 35  1  0  0  0  0
 24 36  1  0  0  0  0
 25 37  1  0  0  0  0
 25 38  1  0  0  0  0
M  END
>  <PUBCHEM_COMPOUND_CID>
5245667

>  <PUBCHEM_COMPOUND_CANONICALIZED>
1

>  <PUBCHEM_CACTVS_COMPLEXITY>
621

>  <PUBCHEM_CACTVS_HBOND_ACCEPTOR>
5

>  <PUBCHEM_CACTVS_HBOND_DONOR>
0

>  <PUBCHEM_CACTVS_ROTATABLE_BOND>
0

>  <PUBCHEM_CACTVS_SUBSKEYS>
AAADccB6OAAAAAAAAAAAAAAAAAAAASJAAAA8YIEAAAAAAEixQAAAHgAAAAAADAzBmAcwDoMABACIAiVSUACCCAAkIgAIiAEOjMgdJjaEtRukMWpm5hGOqQe62LKOoAABAAAYQABAAAIAADCAAAAAAAAAAA==

>  <PUBCHEM_IUPAC_INCHI>
InChI=1S/C19H13NO5/c21-19-17-11(1-2-14-18(17)25-9-22-14)5-13-12-7-16-15(23-8-24-16)6-10(12)3-4-20(13)19/h1-2,5-7H,3-4,8-9H2

>  <PUBCHEM_IUPAC_INCHIKEY>
UCAFJBSQKXVPDX-UHFFFAOYSA-N

>  <PUBCHEM_XLOGP3_AA>
2.8

>  <PUBCHEM_EXACT_MASS>
335.079

>  <PUBCHEM_MOLECULAR_FORMULA>
C19H13NO5

>  <PUBCHEM_MOLECULAR_WEIGHT>
335.315

>  <PUBCHEM_OPENEYE_CAN_SMILES>
C1CN2C(=CC3=C(C2=O)C4=C(C=C3)OCO4)C5=CC6=C(C=C51)OCO6

>  <PUBCHEM_OPENEYE_ISO_SMILES>
C1CN2C(=CC3=C(C2=O)C4=C(C=C3)OCO4)C5=CC6=C(C=C51)OCO6

>  <PUBCHEM_CACTVS_TPSA>
57.2

>  <PUBCHEM_MONOISOTOPIC_WEIGHT>
335.079

>  <PUBCHEM_TOTAL_CHARGE>
0

>  <PUBCHEM_HEAVY_ATOM_COUNT>
25

>  <PUBCHEM_ATOM_DEF_STEREO_COUNT>
0

>  <PUBCHEM_ATOM_UDEF_STEREO_COUNT>
0

>  <PUBCHEM_BOND_DEF_STEREO_COUNT>
0

>  <PUBCHEM_BOND_UDEF_STEREO_COUNT>
0

>  <PUBCHEM_ISOTOPIC_ATOM_COUNT>
0

>  <PUBCHEM_COMPONENT_COUNT>
1

>  <PUBCHEM_CACTVS_TAUTO_COUNT>
1

>  <PUBCHEM_COORDINATE_TYPE>
1
5
255

>  <PUBCHEM_BONDANNOTATIONS>
10  11  8
10  16  8
11  17  8
12  13  8
12  15  8
12  18  8
14  15  8
15  21  8
16  19  8
17  20  8
18  22  8
19  20  8
21  23  8
22  23  8
6  13  8
6  8  8
8  14  8

$$$$
