525778
 OpenBabel06101807152D

 32 32  0  0  0  0  0  0  0  0999 V2000
    3.9680   -0.6374    0.0000 O   0  0  0  0  0  0  0  0  0  0  0  0
    4.4680    0.9014    0.0000 N   0  0  0  0  0  0  0  0  0  0  0  0
    5.7281   -0.3587    0.0000 C   0  0  0  0  0  0  0  0  0  0  0  0
    5.9360   -1.3368    0.0000 C   0  0  0  0  0  0  0  0  0  0  0  0
    4.7770   -0.0496    0.0000 C   0  0  0  0  0  0  0  0  0  0  0  0
    3.1590   -0.0496    0.0000 C   0  0  0  0  0  0  0  0  0  0  0  0
    3.4680    0.9014    0.0000 C   0  0  0  0  0  0  0  0  0  0  0  0
    6.8870   -1.6458    0.0000 C   0  0  0  0  0  0  0  0  0  0  0  0
    2.2079   -0.3587    0.0000 C   0  0  0  0  0  0  0  0  0  0  0  0
    2.8802    1.7104    0.0000 C   0  0  0  0  0  0  0  0  0  0  0  0
    7.0949   -2.6240    0.0000 C   0  0  0  0  0  0  0  0  0  0  0  0
    2.0000   -1.3368    0.0000 C   0  0  0  0  0  0  0  0  0  0  0  0
    3.2869    2.6240    0.0000 C   0  0  0  0  0  0  0  0  0  0  0  0
    6.3477   -0.3370    0.0000 H   0  0  0  0  0  0  0  0  0  0  0  0
    5.8144    0.2553    0.0000 H   0  0  0  0  0  0  0  0  0  0  0  0
    5.3164   -1.3584    0.0000 H   0  0  0  0  0  0  0  0  0  0  0  0
    5.8497   -1.9508    0.0000 H   0  0  0  0  0  0  0  0  0  0  0  0
    7.5066   -1.6242    0.0000 H   0  0  0  0  0  0  0  0  0  0  0  0
    6.9733   -1.0319    0.0000 H   0  0  0  0  0  0  0  0  0  0  0  0
    2.1216    0.2553    0.0000 H   0  0  0  0  0  0  0  0  0  0  0  0
    1.5883   -0.3370    0.0000 H   0  0  0  0  0  0  0  0  0  0  0  0
    2.3662    2.0571    0.0000 H   0  0  0  0  0  0  0  0  0  0  0  0
    2.4495    1.2644    0.0000 H   0  0  0  0  0  0  0  0  0  0  0  0
    6.4885   -2.7529    0.0000 H   0  0  0  0  0  0  0  0  0  0  0  0
    7.2238   -3.2304    0.0000 H   0  0  0  0  0  0  0  0  0  0  0  0
    7.7014   -2.4951    0.0000 H   0  0  0  0  0  0  0  0  0  0  0  0
    1.3936   -1.2079    0.0000 H   0  0  0  0  0  0  0  0  0  0  0  0
    1.8711   -1.9433    0.0000 H   0  0  0  0  0  0  0  0  0  0  0  0
    2.6064   -1.4657    0.0000 H   0  0  0  0  0  0  0  0  0  0  0  0
    3.8533    2.3718    0.0000 H   0  0  0  0  0  0  0  0  0  0  0  0
    3.5391    3.1904    0.0000 H   0  0  0  0  0  0  0  0  0  0  0  0
    2.7205    2.8762    0.0000 H   0  0  0  0  0  0  0  0  0  0  0  0
  1  5  1  0  0  0  0
  1  6  1  0  0  0  0
  2  5  2  0  0  0  0
  2  7  1  0  0  0  0
  3  4  1  0  0  0  0
  3  5  1  0  0  0  0
  3 14  1  0  0  0  0
  3 15  1  0  0  0  0
  4  8  1  0  0  0  0
  4 16  1  0  0  0  0
  4 17  1  0  0  0  0
  6  7  2  0  0  0  0
  6  9  1  0  0  0  0
  7 10  1  0  0  0  0
  8 11  1  0  0  0  0
  8 18  1  0  0  0  0
  8 19  1  0  0  0  0
  9 12  1  0  0  0  0
  9 20  1  0  0  0  0
  9 21  1  0  0  0  0
 10 13  1  0  0  0  0
 10 22  1  0  0  0  0
 10 23  1  0  0  0  0
 11 24  1  0  0  0  0
 11 25  1  0  0  0  0
 11 26  1  0  0  0  0
 12 27  1  0  0  0  0
 12 28  1  0  0  0  0
 12 29  1  0  0  0  0
 13 30  1  0  0  0  0
 13 31  1  0  0  0  0
 13 32  1  0  0  0  0
M  END
>  <PUBCHEM_COMPOUND_CID>
525778

>  <PUBCHEM_COMPOUND_CANONICALIZED>
1

>  <PUBCHEM_CACTVS_COMPLEXITY>
138

>  <PUBCHEM_CACTVS_HBOND_ACCEPTOR>
2

>  <PUBCHEM_CACTVS_HBOND_DONOR>
0

>  <PUBCHEM_CACTVS_ROTATABLE_BOND>
5

>  <PUBCHEM_CACTVS_SUBSKEYS>
AAADceByIAAAAAAAAAAAAAAAAAAAAWAAAAAAAAAAAAAAAAABgAAAHgAAAAAACAyBlgAChBIIFECoAYVwVAQAiCArYCAAGAG1QAgGIBJEgCIPCCCkBADYSAOYAAAAAAAAAAAAAAAAAAAAAAAAAAAAAAAAAA==

>  <PUBCHEM_IUPAC_OPENEYE_NAME>
2-butyl-4,5-diethyl-oxazole

>  <PUBCHEM_IUPAC_CAS_NAME>
2-butyl-4,5-diethyloxazole

>  <PUBCHEM_IUPAC_NAME>
2-butyl-4,5-diethyl-1,3-oxazole

>  <PUBCHEM_IUPAC_SYSTEMATIC_NAME>
2-butyl-4,5-diethyl-1,3-oxazole

>  <PUBCHEM_IUPAC_TRADITIONAL_NAME>
2-butyl-4,5-diethyl-oxazole

>  <PUBCHEM_IUPAC_INCHI>
InChI=1S/C11H19NO/c1-4-7-8-11-12-9(5-2)10(6-3)13-11/h4-8H2,1-3H3

>  <PUBCHEM_IUPAC_INCHIKEY>
LVIUUUNWXOKYDD-UHFFFAOYSA-N

>  <PUBCHEM_XLOGP3_AA>
3.7

>  <PUBCHEM_EXACT_MASS>
181.147

>  <PUBCHEM_MOLECULAR_FORMULA>
C11H19NO

>  <PUBCHEM_MOLECULAR_WEIGHT>
181.279

>  <PUBCHEM_OPENEYE_CAN_SMILES>
CCCCC1=NC(=C(O1)CC)CC

>  <PUBCHEM_OPENEYE_ISO_SMILES>
CCCCC1=NC(=C(O1)CC)CC

>  <PUBCHEM_CACTVS_TPSA>
26

>  <PUBCHEM_MONOISOTOPIC_WEIGHT>
181.147

>  <PUBCHEM_TOTAL_CHARGE>
0

>  <PUBCHEM_HEAVY_ATOM_COUNT>
13

>  <PUBCHEM_ATOM_DEF_STEREO_COUNT>
0

>  <PUBCHEM_ATOM_UDEF_STEREO_COUNT>
0

>  <PUBCHEM_BOND_DEF_STEREO_COUNT>
0

>  <PUBCHEM_BOND_UDEF_STEREO_COUNT>
0

>  <PUBCHEM_ISOTOPIC_ATOM_COUNT>
0

>  <PUBCHEM_COMPONENT_COUNT>
1

>  <PUBCHEM_CACTVS_TAUTO_COUNT>
2

>  <PUBCHEM_COORDINATE_TYPE>
1
5
255

>  <PUBCHEM_BONDANNOTATIONS>
1  5  8
1  6  8
2  5  8
2  7  8
6  7  8

$$$$
