525781
 OpenBabel06101807152D

 32 32  0  0  0  0  0  0  0  0999 V2000
    3.7601    0.4629    0.0000 O   0  0  0  0  0  0  0  0  0  0  0  0
    4.2601    2.0018    0.0000 N   0  0  0  0  0  0  0  0  0  0  0  0
    6.6791   -0.5455    0.0000 C   0  0  0  0  0  0  0  0  0  0  0  0
    5.7281   -0.2365    0.0000 C   0  0  0  0  0  0  0  0  0  0  0  0
    6.8870   -1.5236    0.0000 C   0  0  0  0  0  0  0  0  0  0  0  0
    5.5202    0.7417    0.0000 C   0  0  0  0  0  0  0  0  0  0  0  0
    7.8381   -1.8326    0.0000 C   0  0  0  0  0  0  0  0  0  0  0  0
    4.5691    1.0507    0.0000 C   0  0  0  0  0  0  0  0  0  0  0  0
    8.0460   -2.8108    0.0000 C   0  0  0  0  0  0  0  0  0  0  0  0
    2.9511    1.0507    0.0000 C   0  0  0  0  0  0  0  0  0  0  0  0
    3.2601    2.0018    0.0000 C   0  0  0  0  0  0  0  0  0  0  0  0
    2.0000    0.7417    0.0000 C   0  0  0  0  0  0  0  0  0  0  0  0
    2.6723    2.8108    0.0000 C   0  0  0  0  0  0  0  0  0  0  0  0
    7.2987   -0.5238    0.0000 H   0  0  0  0  0  0  0  0  0  0  0  0
    6.7654    0.0685    0.0000 H   0  0  0  0  0  0  0  0  0  0  0  0
    5.1084   -0.2581    0.0000 H   0  0  0  0  0  0  0  0  0  0  0  0
    5.6418   -0.8504    0.0000 H   0  0  0  0  0  0  0  0  0  0  0  0
    6.2674   -1.5453    0.0000 H   0  0  0  0  0  0  0  0  0  0  0  0
    6.8007   -2.1376    0.0000 H   0  0  0  0  0  0  0  0  0  0  0  0
    6.1398    0.7633    0.0000 H   0  0  0  0  0  0  0  0  0  0  0  0
    5.6064    1.3557    0.0000 H   0  0  0  0  0  0  0  0  0  0  0  0
    8.4577   -1.8110    0.0000 H   0  0  0  0  0  0  0  0  0  0  0  0
    7.9244   -1.2187    0.0000 H   0  0  0  0  0  0  0  0  0  0  0  0
    7.4395   -2.9397    0.0000 H   0  0  0  0  0  0  0  0  0  0  0  0
    8.1749   -3.4172    0.0000 H   0  0  0  0  0  0  0  0  0  0  0  0
    8.6524   -2.6819    0.0000 H   0  0  0  0  0  0  0  0  0  0  0  0
    1.8084    1.3314    0.0000 H   0  0  0  0  0  0  0  0  0  0  0  0
    1.4103    0.5501    0.0000 H   0  0  0  0  0  0  0  0  0  0  0  0
    2.1916    0.1520    0.0000 H   0  0  0  0  0  0  0  0  0  0  0  0
    3.1739    3.1752    0.0000 H   0  0  0  0  0  0  0  0  0  0  0  0
    2.3079    3.3124    0.0000 H   0  0  0  0  0  0  0  0  0  0  0  0
    2.1707    2.4464    0.0000 H   0  0  0  0  0  0  0  0  0  0  0  0
  1  8  1  0  0  0  0
  1 10  1  0  0  0  0
  2  8  2  0  0  0  0
  2 11  1  0  0  0  0
  3  4  1  0  0  0  0
  3  5  1  0  0  0  0
  3 14  1  0  0  0  0
  3 15  1  0  0  0  0
  4  6  1  0  0  0  0
  4 16  1  0  0  0  0
  4 17  1  0  0  0  0
  5  7  1  0  0  0  0
  5 18  1  0  0  0  0
  5 19  1  0  0  0  0
  6  8  1  0  0  0  0
  6 20  1  0  0  0  0
  6 21  1  0  0  0  0
  7  9  1  0  0  0  0
  7 22  1  0  0  0  0
  7 23  1  0  0  0  0
  9 24  1  0  0  0  0
  9 25  1  0  0  0  0
  9 26  1  0  0  0  0
 10 11  2  0  0  0  0
 10 12  1  0  0  0  0
 11 13  1  0  0  0  0
 12 27  1  0  0  0  0
 12 28  1  0  0  0  0
 12 29  1  0  0  0  0
 13 30  1  0  0  0  0
 13 31  1  0  0  0  0
 13 32  1  0  0  0  0
M  END
>  <PUBCHEM_COMPOUND_CID>
525781

>  <PUBCHEM_COMPOUND_CANONICALIZED>
1

>  <PUBCHEM_CACTVS_COMPLEXITY>
138

>  <PUBCHEM_CACTVS_HBOND_ACCEPTOR>
2

>  <PUBCHEM_CACTVS_HBOND_DONOR>
0

>  <PUBCHEM_CACTVS_ROTATABLE_BOND>
5

>  <PUBCHEM_CACTVS_SUBSKEYS>
AAADceByIAAAAAAAAAAAAAAAAAAAAWAAAAAAAAAAAAAAAAABgAAAHgAAAAAACAyBlgAChBIIFECoAYVwVAQAiCALYCAAGAG1QAAGABJEgCAPCCCEBADQAAGYyCCAAAAAAAAAAAAAAAAAAAAAAAAAAAAAAA==

>  <PUBCHEM_IUPAC_OPENEYE_NAME>
2-hexyl-4,5-dimethyl-oxazole

>  <PUBCHEM_IUPAC_CAS_NAME>
2-hexyl-4,5-dimethyloxazole

>  <PUBCHEM_IUPAC_NAME>
2-hexyl-4,5-dimethyl-1,3-oxazole

>  <PUBCHEM_IUPAC_SYSTEMATIC_NAME>
2-hexyl-4,5-dimethyl-1,3-oxazole

>  <PUBCHEM_IUPAC_TRADITIONAL_NAME>
2-hexyl-4,5-dimethyl-oxazole

>  <PUBCHEM_IUPAC_INCHI>
InChI=1S/C11H19NO/c1-4-5-6-7-8-11-12-9(2)10(3)13-11/h4-8H2,1-3H3

>  <PUBCHEM_IUPAC_INCHIKEY>
KNPWGHJHGHEJLW-UHFFFAOYSA-N

>  <PUBCHEM_XLOGP3_AA>
4

>  <PUBCHEM_EXACT_MASS>
181.147

>  <PUBCHEM_MOLECULAR_FORMULA>
C11H19NO

>  <PUBCHEM_MOLECULAR_WEIGHT>
181.279

>  <PUBCHEM_OPENEYE_CAN_SMILES>
CCCCCCC1=NC(=C(O1)C)C

>  <PUBCHEM_OPENEYE_ISO_SMILES>
CCCCCCC1=NC(=C(O1)C)C

>  <PUBCHEM_CACTVS_TPSA>
26

>  <PUBCHEM_MONOISOTOPIC_WEIGHT>
181.147

>  <PUBCHEM_TOTAL_CHARGE>
0

>  <PUBCHEM_HEAVY_ATOM_COUNT>
13

>  <PUBCHEM_ATOM_DEF_STEREO_COUNT>
0

>  <PUBCHEM_ATOM_UDEF_STEREO_COUNT>
0

>  <PUBCHEM_BOND_DEF_STEREO_COUNT>
0

>  <PUBCHEM_BOND_UDEF_STEREO_COUNT>
0

>  <PUBCHEM_ISOTOPIC_ATOM_COUNT>
0

>  <PUBCHEM_COMPONENT_COUNT>
1

>  <PUBCHEM_CACTVS_TAUTO_COUNT>
2

>  <PUBCHEM_COORDINATE_TYPE>
1
5
255

>  <PUBCHEM_BONDANNOTATIONS>
1  10  8
1  8  8
10  11  8
2  11  8
2  8  8

$$$$
