525783
 OpenBabel06101807152D

 23 23  0  0  0  0  0  0  0  0999 V2000
    6.6974    0.7694    0.0000 O   0  0  0  0  0  0  0  0  0  0  0  0
    6.1974   -0.7694    0.0000 N   0  0  0  0  0  0  0  0  0  0  0  0
    3.6942    0.1785    0.0000 C   0  0  0  0  0  0  0  0  0  0  0  0
    4.4374   -0.4907    0.0000 C   0  0  0  0  0  0  0  0  0  0  0  0
    2.7431   -0.1305    0.0000 C   0  0  0  0  0  0  0  0  0  0  0  0
    5.3884   -0.1816    0.0000 C   0  0  0  0  0  0  0  0  0  0  0  0
    2.0000    0.5386    0.0000 C   0  0  0  0  0  0  0  0  0  0  0  0
    5.6974    0.7694    0.0000 C   0  0  0  0  0  0  0  0  0  0  0  0
    7.0064   -0.1816    0.0000 C   0  0  0  0  0  0  0  0  0  0  0  0
    7.9575   -0.4907    0.0000 C   0  0  0  0  0  0  0  0  0  0  0  0
    4.1828    0.5602    0.0000 H   0  0  0  0  0  0  0  0  0  0  0  0
    3.4031    0.7259    0.0000 H   0  0  0  0  0  0  0  0  0  0  0  0
    3.9488   -0.8724    0.0000 H   0  0  0  0  0  0  0  0  0  0  0  0
    4.7284   -1.0381    0.0000 H   0  0  0  0  0  0  0  0  0  0  0  0
    2.2546   -0.5122    0.0000 H   0  0  0  0  0  0  0  0  0  0  0  0
    3.0342   -0.6780    0.0000 H   0  0  0  0  0  0  0  0  0  0  0  0
    2.4149    0.9993    0.0000 H   0  0  0  0  0  0  0  0  0  0  0  0
    1.5392    0.9535    0.0000 H   0  0  0  0  0  0  0  0  0  0  0  0
    1.5851    0.0778    0.0000 H   0  0  0  0  0  0  0  0  0  0  0  0
    5.3330    1.2710    0.0000 H   0  0  0  0  0  0  0  0  0  0  0  0
    7.7659   -1.0803    0.0000 H   0  0  0  0  0  0  0  0  0  0  0  0
    8.5472   -0.6822    0.0000 H   0  0  0  0  0  0  0  0  0  0  0  0
    8.1491    0.0990    0.0000 H   0  0  0  0  0  0  0  0  0  0  0  0
  1  8  1  0  0  0  0
  1  9  1  0  0  0  0
  2  6  1  0  0  0  0
  2  9  2  0  0  0  0
  3  4  1  0  0  0  0
  3  5  1  0  0  0  0
  3 11  1  0  0  0  0
  3 12  1  0  0  0  0
  4  6  1  0  0  0  0
  4 13  1  0  0  0  0
  4 14  1  0  0  0  0
  5  7  1  0  0  0  0
  5 15  1  0  0  0  0
  5 16  1  0  0  0  0
  6  8  2  0  0  0  0
  7 17  1  0  0  0  0
  7 18  1  0  0  0  0
  7 19  1  0  0  0  0
  8 20  1  0  0  0  0
  9 10  1  0  0  0  0
 10 21  1  0  0  0  0
 10 22  1  0  0  0  0
 10 23  1  0  0  0  0
M  END
>  <PUBCHEM_COMPOUND_CID>
525783

>  <PUBCHEM_COMPOUND_CANONICALIZED>
1

>  <PUBCHEM_CACTVS_COMPLEXITY>
95.3

>  <PUBCHEM_CACTVS_HBOND_ACCEPTOR>
2

>  <PUBCHEM_CACTVS_HBOND_DONOR>
0

>  <PUBCHEM_CACTVS_ROTATABLE_BOND>
3

>  <PUBCHEM_CACTVS_SUBSKEYS>
AAADccByIAAAAAAAAAAAAAAAAAAAAWAAAAAAAAAAAAAAAAABgAAAHgAAAAAACAihlgIihBIIFECoAQ1y1AQAiCArYiAAAAG1IAgGIBIEkSKPCCCEhACQAAGYSAAAAAAAAAAAAAAAAAAAAAAAAAAAAAAAAA==

>  <PUBCHEM_IUPAC_OPENEYE_NAME>
4-butyl-2-methyl-oxazole

>  <PUBCHEM_IUPAC_CAS_NAME>
4-butyl-2-methyloxazole

>  <PUBCHEM_IUPAC_NAME>
4-butyl-2-methyl-1,3-oxazole

>  <PUBCHEM_IUPAC_SYSTEMATIC_NAME>
4-butyl-2-methyl-1,3-oxazole

>  <PUBCHEM_IUPAC_TRADITIONAL_NAME>
4-butyl-2-methyl-oxazole

>  <PUBCHEM_IUPAC_INCHI>
InChI=1S/C8H13NO/c1-3-4-5-8-6-10-7(2)9-8/h6H,3-5H2,1-2H3

>  <PUBCHEM_IUPAC_INCHIKEY>
WLQJVRMHBOMLBM-UHFFFAOYSA-N

>  <PUBCHEM_XLOGP3_AA>
2.5

>  <PUBCHEM_EXACT_MASS>
139.1

>  <PUBCHEM_MOLECULAR_FORMULA>
C8H13NO

>  <PUBCHEM_MOLECULAR_WEIGHT>
139.198

>  <PUBCHEM_OPENEYE_CAN_SMILES>
CCCCC1=COC(=N1)C

>  <PUBCHEM_OPENEYE_ISO_SMILES>
CCCCC1=COC(=N1)C

>  <PUBCHEM_CACTVS_TPSA>
26

>  <PUBCHEM_MONOISOTOPIC_WEIGHT>
139.1

>  <PUBCHEM_TOTAL_CHARGE>
0

>  <PUBCHEM_HEAVY_ATOM_COUNT>
10

>  <PUBCHEM_ATOM_DEF_STEREO_COUNT>
0

>  <PUBCHEM_ATOM_UDEF_STEREO_COUNT>
0

>  <PUBCHEM_BOND_DEF_STEREO_COUNT>
0

>  <PUBCHEM_BOND_UDEF_STEREO_COUNT>
0

>  <PUBCHEM_ISOTOPIC_ATOM_COUNT>
0

>  <PUBCHEM_COMPONENT_COUNT>
1

>  <PUBCHEM_CACTVS_TAUTO_COUNT>
1

>  <PUBCHEM_COORDINATE_TYPE>
1
5
255

>  <PUBCHEM_BONDANNOTATIONS>
1  8  8
1  9  8
2  6  8
2  9  8
6  8  8

$$$$
