525785
 OpenBabel06101807152D

 17 17  0  0  0  0  0  0  0  0999 V2000
    5.0032    0.7694    0.0000 O   0  0  0  0  0  0  0  0  0  0  0  0
    4.5032   -0.7694    0.0000 N   0  0  0  0  0  0  0  0  0  0  0  0
    2.7431   -0.4907    0.0000 C   0  0  0  0  0  0  0  0  0  0  0  0
    3.6942   -0.1816    0.0000 C   0  0  0  0  0  0  0  0  0  0  0  0
    2.0000    0.1785    0.0000 C   0  0  0  0  0  0  0  0  0  0  0  0
    5.3122   -0.1816    0.0000 C   0  0  0  0  0  0  0  0  0  0  0  0
    4.0032    0.7694    0.0000 C   0  0  0  0  0  0  0  0  0  0  0  0
    6.2633   -0.4907    0.0000 C   0  0  0  0  0  0  0  0  0  0  0  0
    2.2546   -0.8724    0.0000 H   0  0  0  0  0  0  0  0  0  0  0  0
    3.0342   -1.0381    0.0000 H   0  0  0  0  0  0  0  0  0  0  0  0
    2.4149    0.6392    0.0000 H   0  0  0  0  0  0  0  0  0  0  0  0
    1.5392    0.5933    0.0000 H   0  0  0  0  0  0  0  0  0  0  0  0
    1.5851   -0.2823    0.0000 H   0  0  0  0  0  0  0  0  0  0  0  0
    3.6388    1.2710    0.0000 H   0  0  0  0  0  0  0  0  0  0  0  0
    6.0717   -1.0803    0.0000 H   0  0  0  0  0  0  0  0  0  0  0  0
    6.8530   -0.6822    0.0000 H   0  0  0  0  0  0  0  0  0  0  0  0
    6.4549    0.0990    0.0000 H   0  0  0  0  0  0  0  0  0  0  0  0
  1  6  1  0  0  0  0
  1  7  1  0  0  0  0
  2  4  1  0  0  0  0
  2  6  2  0  0  0  0
  3  4  1  0  0  0  0
  3  5  1  0  0  0  0
  3  9  1  0  0  0  0
  3 10  1  0  0  0  0
  4  7  2  0  0  0  0
  5 11  1  0  0  0  0
  5 12  1  0  0  0  0
  5 13  1  0  0  0  0
  6  8  1  0  0  0  0
  7 14  1  0  0  0  0
  8 15  1  0  0  0  0
  8 16  1  0  0  0  0
  8 17  1  0  0  0  0
M  END
>  <PUBCHEM_COMPOUND_CID>
525785

>  <PUBCHEM_COMPOUND_CANONICALIZED>
1

>  <PUBCHEM_CACTVS_COMPLEXITY>
74.9

>  <PUBCHEM_CACTVS_HBOND_ACCEPTOR>
2

>  <PUBCHEM_CACTVS_HBOND_DONOR>
0

>  <PUBCHEM_CACTVS_ROTATABLE_BOND>
1

>  <PUBCHEM_CACTVS_SUBSKEYS>
AAADccBiIAAAAAAAAAAAAAAAAAAAAWAAAAAAAAAAAAAAAAABgAAAHgAAAAAACAihlgIihBIIFECoAQ1y1AQAiCArYiAAAAG1IAgGIBAEASIPCCCEBACQAAAAAAAAAAAAAAAAAAAAAAAAAAAAAAAAAAAAAA==

>  <PUBCHEM_IUPAC_OPENEYE_NAME>
4-ethyl-2-methyl-oxazole

>  <PUBCHEM_IUPAC_CAS_NAME>
4-ethyl-2-methyloxazole

>  <PUBCHEM_IUPAC_NAME>
4-ethyl-2-methyl-1,3-oxazole

>  <PUBCHEM_IUPAC_SYSTEMATIC_NAME>
4-ethyl-2-methyl-1,3-oxazole

>  <PUBCHEM_IUPAC_TRADITIONAL_NAME>
4-ethyl-2-methyl-oxazole

>  <PUBCHEM_IUPAC_INCHI>
InChI=1S/C6H9NO/c1-3-6-4-8-5(2)7-6/h4H,3H2,1-2H3

>  <PUBCHEM_IUPAC_INCHIKEY>
FLRAVPRRUDBVKJ-UHFFFAOYSA-N

>  <PUBCHEM_XLOGP3_AA>
1.6

>  <PUBCHEM_EXACT_MASS>
111.068

>  <PUBCHEM_MOLECULAR_FORMULA>
C6H9NO

>  <PUBCHEM_MOLECULAR_WEIGHT>
111.144

>  <PUBCHEM_OPENEYE_CAN_SMILES>
CCC1=COC(=N1)C

>  <PUBCHEM_OPENEYE_ISO_SMILES>
CCC1=COC(=N1)C

>  <PUBCHEM_CACTVS_TPSA>
26

>  <PUBCHEM_MONOISOTOPIC_WEIGHT>
111.068

>  <PUBCHEM_TOTAL_CHARGE>
0

>  <PUBCHEM_HEAVY_ATOM_COUNT>
8

>  <PUBCHEM_ATOM_DEF_STEREO_COUNT>
0

>  <PUBCHEM_ATOM_UDEF_STEREO_COUNT>
0

>  <PUBCHEM_BOND_DEF_STEREO_COUNT>
0

>  <PUBCHEM_BOND_UDEF_STEREO_COUNT>
0

>  <PUBCHEM_ISOTOPIC_ATOM_COUNT>
0

>  <PUBCHEM_COMPONENT_COUNT>
1

>  <PUBCHEM_CACTVS_TAUTO_COUNT>
1

>  <PUBCHEM_COORDINATE_TYPE>
1
5
255

>  <PUBCHEM_BONDANNOTATIONS>
1  6  8
1  7  8
2  4  8
2  6  8
4  7  8

$$$$
