5274265
 OpenBabel06101807152D

 15 15  0  0  0  0  0  0  0  0999 V2000
    2.0000   -0.6900    0.0000 O   0  0  0  0  0  0  0  0  0  0  0  0
    5.4641   -0.6900    0.0000 O   0  0  0  0  0  0  0  0  0  0  0  0
    3.7321   -0.6900    0.0000 N   0  0  0  0  0  0  0  0  0  0  0  0
    4.5981    0.8100    0.0000 N   0  0  0  0  0  0  0  0  0  0  0  0
    2.8660    0.8100    0.0000 C   0  0  0  0  0  0  0  0  0  0  0  0
    2.8660   -0.1900    0.0000 C   0  0  0  0  0  0  0  0  0  0  0  0
    2.0000    1.3100    0.0000 C   0  0  0  0  0  0  0  0  0  0  0  0
    3.7321    1.3100    0.0000 C   0  0  0  0  0  0  0  0  0  0  0  0
    4.5981   -0.1900    0.0000 C   0  0  0  0  0  0  0  0  0  0  0  0
    2.3100    1.8469    0.0000 H   0  0  0  0  0  0  0  0  0  0  0  0
    1.4631    1.6200    0.0000 H   0  0  0  0  0  0  0  0  0  0  0  0
    1.6900    0.7731    0.0000 H   0  0  0  0  0  0  0  0  0  0  0  0
    3.7321    1.9300    0.0000 H   0  0  0  0  0  0  0  0  0  0  0  0
    2.0000   -1.3100    0.0000 H   0  0  0  0  0  0  0  0  0  0  0  0
    6.0010   -0.3800    0.0000 H   0  0  0  0  0  0  0  0  0  0  0  0
  1  6  1  0  0  0  0
  1 14  1  0  0  0  0
  2  9  1  0  0  0  0
  2 15  1  0  0  0  0
  3  6  2  0  0  0  0
  3  9  1  0  0  0  0
  4  8  1  0  0  0  0
  4  9  2  0  0  0  0
  5  6  1  0  0  0  0
  5  7  1  0  0  0  0
  5  8  2  0  0  0  0
  7 10  1  0  0  0  0
  7 11  1  0  0  0  0
  7 12  1  0  0  0  0
  8 13  1  0  0  0  0
M  END
>  <PUBCHEM_COMPOUND_CID>
5274265

>  <PUBCHEM_COMPOUND_CANONICALIZED>
1

>  <PUBCHEM_CACTVS_COMPLEXITY>
99

>  <PUBCHEM_CACTVS_HBOND_ACCEPTOR>
4

>  <PUBCHEM_CACTVS_HBOND_DONOR>
2

>  <PUBCHEM_CACTVS_ROTATABLE_BOND>
0

>  <PUBCHEM_CACTVS_SUBSKEYS>
AAADcYBjMAAAAAAAAAAAAAAAAAAAAAAAAAAsAAAAAAAAAAABgAAAHgAACAAADADBmgQvlJYIEgCgAhBnZACAgCkRIKABUCAsTBSADIBCSUAERAgKAApAECAAAAAAAAAAAAAAAAAAAAAAAAAAAAAAAAAAAA==

>  <PUBCHEM_IUPAC_OPENEYE_NAME>
5-methylpyrimidine-2,4-diol

>  <PUBCHEM_IUPAC_CAS_NAME>
5-methylpyrimidine-2,4-diol

>  <PUBCHEM_IUPAC_NAME>
5-methylpyrimidine-2,4-diol

>  <PUBCHEM_IUPAC_SYSTEMATIC_NAME>
5-methylpyrimidine-2,4-diol

>  <PUBCHEM_IUPAC_TRADITIONAL_NAME>
5-methylpyrimidine-2,4-diol

>  <PUBCHEM_IUPAC_INCHI>
InChI=1S/C5H6N2O2/c1-3-2-6-5(9)7-4(3)8/h2H,1H3,(H2,6,7,8,9)

>  <PUBCHEM_IUPAC_INCHIKEY>
RWQNBRDOKXIBIV-UHFFFAOYSA-N

>  <PUBCHEM_XLOGP3_AA>
0.5

>  <PUBCHEM_EXACT_MASS>
126.043

>  <PUBCHEM_MOLECULAR_FORMULA>
C5H6N2O2

>  <PUBCHEM_MOLECULAR_WEIGHT>
126.115

>  <PUBCHEM_OPENEYE_CAN_SMILES>
CC1=CN=C(N=C1O)O

>  <PUBCHEM_OPENEYE_ISO_SMILES>
CC1=CN=C(N=C1O)O

>  <PUBCHEM_CACTVS_TPSA>
66.2

>  <PUBCHEM_MONOISOTOPIC_WEIGHT>
126.043

>  <PUBCHEM_TOTAL_CHARGE>
0

>  <PUBCHEM_HEAVY_ATOM_COUNT>
9

>  <PUBCHEM_ATOM_DEF_STEREO_COUNT>
0

>  <PUBCHEM_ATOM_UDEF_STEREO_COUNT>
0

>  <PUBCHEM_BOND_DEF_STEREO_COUNT>
0

>  <PUBCHEM_BOND_UDEF_STEREO_COUNT>
0

>  <PUBCHEM_ISOTOPIC_ATOM_COUNT>
0

>  <PUBCHEM_COMPONENT_COUNT>
1

>  <PUBCHEM_CACTVS_TAUTO_COUNT>
6

>  <PUBCHEM_COORDINATE_TYPE>
1
5
255

>  <PUBCHEM_BONDANNOTATIONS>
3  6  8
3  9  8
4  8  8
4  9  8
5  6  8
5  8  8

$$$$
