5274267
 OpenBabel06101807152D

 12 12  0  0  0  0  0  0  0  0999 V2000
    2.5369   -1.0000    0.0000 O   0  0  0  0  0  0  0  0  0  0  0  0
    6.0010   -1.0000    0.0000 O   0  0  0  0  0  0  0  0  0  0  0  0
    4.2690   -1.0000    0.0000 N   0  0  0  0  0  0  0  0  0  0  0  0
    5.1350    0.5000    0.0000 N   0  0  0  0  0  0  0  0  0  0  0  0
    3.4030   -0.5000    0.0000 C   0  0  0  0  0  0  0  0  0  0  0  0
    3.4030    0.5000    0.0000 C   0  0  0  0  0  0  0  0  0  0  0  0
    4.2690    1.0000    0.0000 C   0  0  0  0  0  0  0  0  0  0  0  0
    5.1350   -0.5000    0.0000 C   0  0  0  0  0  0  0  0  0  0  0  0
    2.8660    0.8100    0.0000 H   0  0  0  0  0  0  0  0  0  0  0  0
    4.2690    1.6200    0.0000 H   0  0  0  0  0  0  0  0  0  0  0  0
    2.0000   -0.6900    0.0000 H   0  0  0  0  0  0  0  0  0  0  0  0
    6.5380   -0.6900    0.0000 H   0  0  0  0  0  0  0  0  0  0  0  0
  1  5  1  0  0  0  0
  1 11  1  0  0  0  0
  2  8  1  0  0  0  0
  2 12  1  0  0  0  0
  3  5  2  0  0  0  0
  3  8  1  0  0  0  0
  4  7  1  0  0  0  0
  4  8  2  0  0  0  0
  5  6  1  0  0  0  0
  6  7  2  0  0  0  0
  6  9  1  0  0  0  0
  7 10  1  0  0  0  0
M  END
>  <PUBCHEM_COMPOUND_CID>
5274267

>  <PUBCHEM_COMPOUND_CANONICALIZED>
1

>  <PUBCHEM_CACTVS_COMPLEXITY>
78.4

>  <PUBCHEM_CACTVS_HBOND_ACCEPTOR>
4

>  <PUBCHEM_CACTVS_HBOND_DONOR>
2

>  <PUBCHEM_CACTVS_ROTATABLE_BOND>
0

>  <PUBCHEM_CACTVS_SUBSKEYS>
AAADcYBjMAAAAAAAAAAAAAAAAAAAAAAAAAAsAAAAAAAAAAABgAAAHgAACAAACADBkgQ9lJYIEgCgADBnZACAgCkRIqAJUCA+bBSADIBCSEAERAgKAApAECAAAAAAAAAAAAAAAAAAAAAAAAAAAAAAAAAAAA==

>  <PUBCHEM_IUPAC_OPENEYE_NAME>
pyrimidine-2,4-diol

>  <PUBCHEM_IUPAC_CAS_NAME>
pyrimidine-2,4-diol

>  <PUBCHEM_IUPAC_NAME>
pyrimidine-2,4-diol

>  <PUBCHEM_IUPAC_SYSTEMATIC_NAME>
pyrimidine-2,4-diol

>  <PUBCHEM_IUPAC_TRADITIONAL_NAME>
pyrimidine-2,4-diol

>  <PUBCHEM_IUPAC_INCHI>
InChI=1S/C4H4N2O2/c7-3-1-2-5-4(8)6-3/h1-2H,(H2,5,6,7,8)

>  <PUBCHEM_IUPAC_INCHIKEY>
ISAKRJDGNUQOIC-UHFFFAOYSA-N

>  <PUBCHEM_XLOGP3_AA>
0.2

>  <PUBCHEM_EXACT_MASS>
112.027

>  <PUBCHEM_MOLECULAR_FORMULA>
C4H4N2O2

>  <PUBCHEM_MOLECULAR_WEIGHT>
112.088

>  <PUBCHEM_OPENEYE_CAN_SMILES>
C1=CN=C(N=C1O)O

>  <PUBCHEM_OPENEYE_ISO_SMILES>
C1=CN=C(N=C1O)O

>  <PUBCHEM_CACTVS_TPSA>
66.2

>  <PUBCHEM_MONOISOTOPIC_WEIGHT>
112.027

>  <PUBCHEM_TOTAL_CHARGE>
0

>  <PUBCHEM_HEAVY_ATOM_COUNT>
8

>  <PUBCHEM_ATOM_DEF_STEREO_COUNT>
0

>  <PUBCHEM_ATOM_UDEF_STEREO_COUNT>
0

>  <PUBCHEM_BOND_DEF_STEREO_COUNT>
0

>  <PUBCHEM_BOND_UDEF_STEREO_COUNT>
0

>  <PUBCHEM_ISOTOPIC_ATOM_COUNT>
0

>  <PUBCHEM_COMPONENT_COUNT>
1

>  <PUBCHEM_CACTVS_TAUTO_COUNT>
6

>  <PUBCHEM_COORDINATE_TYPE>
1
5
255

>  <PUBCHEM_BONDANNOTATIONS>
3  5  8
3  8  8
4  7  8
4  8  8
5  6  8
6  7  8

$$$$
