5280952
 OpenBabel06101807152D

 25 27  0  0  0  0  0  0  0  0999 V2000
    2.4166   -0.0608    0.0000 O   0  0  0  0  0  0  0  0  0  0  0  0
    5.9213    0.8518    0.0000 N   0  0  0  0  0  0  0  0  0  0  0  0
    8.4487   -0.2724    0.0000 N   0  0  0  0  0  0  0  0  0  0  0  0
    6.4213   -0.6871    0.0000 C   0  0  0  0  0  0  0  0  0  0  0  0
    5.4213   -0.6871    0.0000 C   0  0  0  0  0  0  0  0  0  0  0  0
    6.7303    0.2640    0.0000 C   0  0  0  0  0  0  0  0  0  0  0  0
    5.1123    0.2640    0.0000 C   0  0  0  0  0  0  0  0  0  0  0  0
    7.7458    0.4963    0.0000 C   0  0  0  0  0  0  0  0  0  0  0  0
    4.7364   -1.4718    0.0000 C   0  0  0  0  0  0  0  0  0  0  0  0
    7.1063   -1.4718    0.0000 C   0  0  0  0  0  0  0  0  0  0  0  0
    4.0969    0.4963    0.0000 C   0  0  0  0  0  0  0  0  0  0  0  0
    3.3940   -0.2724    0.0000 C   0  0  0  0  0  0  0  0  0  0  0  0
    3.7159   -1.2631    0.0000 C   0  0  0  0  0  0  0  0  0  0  0  0
    8.1268   -1.2631    0.0000 C   0  0  0  0  0  0  0  0  0  0  0  0
    8.0438    1.4508    0.0000 C   0  0  0  0  0  0  0  0  0  0  0  0
    5.9213    1.4718    0.0000 H   0  0  0  0  0  0  0  0  0  0  0  0
    4.9348   -2.0592    0.0000 H   0  0  0  0  0  0  0  0  0  0  0  0
    6.9079   -2.0592    0.0000 H   0  0  0  0  0  0  0  0  0  0  0  0
    3.9121    1.0881    0.0000 H   0  0  0  0  0  0  0  0  0  0  0  0
    3.3028   -1.7254    0.0000 H   0  0  0  0  0  0  0  0  0  0  0  0
    8.5399   -1.7254    0.0000 H   0  0  0  0  0  0  0  0  0  0  0  0
    8.6356    1.2661    0.0000 H   0  0  0  0  0  0  0  0  0  0  0  0
    8.2285    2.0427    0.0000 H   0  0  0  0  0  0  0  0  0  0  0  0
    7.4519    1.6356    0.0000 H   0  0  0  0  0  0  0  0  0  0  0  0
    2.0000   -0.5199    0.0000 H   0  0  0  0  0  0  0  0  0  0  0  0
  1 12  1  0  0  0  0
  1 25  1  0  0  0  0
  2  6  1  0  0  0  0
  2  7  1  0  0  0  0
  2 16  1  0  0  0  0
  3  8  2  0  0  0  0
  3 14  1  0  0  0  0
  4  5  1  0  0  0  0
  4  6  2  0  0  0  0
  4 10  1  0  0  0  0
  5  7  2  0  0  0  0
  5  9  1  0  0  0  0
  6  8  1  0  0  0  0
  7 11  1  0  0  0  0
  8 15  1  0  0  0  0
  9 13  2  0  0  0  0
  9 17  1  0  0  0  0
 10 14  2  0  0  0  0
 10 18  1  0  0  0  0
 11 12  2  0  0  0  0
 11 19  1  0  0  0  0
 12 13  1  0  0  0  0
 13 20  1  0  0  0  0
 14 21  1  0  0  0  0
 15 22  1  0  0  0  0
 15 23  1  0  0  0  0
 15 24  1  0  0  0  0
M  END
>  <PUBCHEM_COMPOUND_CID>
5280952

>  <PUBCHEM_COMPOUND_CANONICALIZED>
1

>  <PUBCHEM_CACTVS_COMPLEXITY>
246

>  <PUBCHEM_CACTVS_HBOND_ACCEPTOR>
2

>  <PUBCHEM_CACTVS_HBOND_DONOR>
2

>  <PUBCHEM_CACTVS_ROTATABLE_BOND>
0

>  <PUBCHEM_CACTVS_SUBSKEYS>
AAADccBzIAAAAAAAAAAAAAAAAAAAAWAAAAA8QAAAAAAAAFgB/gAAHgAQCAAADAzBngQ+xvLJkgCgAzRnRACCgCQxMiAI2SA+fJgIZuLCkZOUcAhm0BnI2AeQ0PMOoAAAAgACAABAAAAEAAQAAAAAAAAAAA==

>  <PUBCHEM_IUPAC_OPENEYE_NAME>
1-methyl-9H-pyrido[3,4-b]indol-7-ol

>  <PUBCHEM_IUPAC_CAS_NAME>
1-methyl-9H-pyrido[3,4-b]indol-7-ol

>  <PUBCHEM_IUPAC_NAME>
1-methyl-9H-pyrido[3,4-b]indol-7-ol

>  <PUBCHEM_IUPAC_SYSTEMATIC_NAME>
1-methyl-9H-pyrido[3,4-b]indol-7-ol

>  <PUBCHEM_IUPAC_TRADITIONAL_NAME>
1-methyl-9H-$b-carbolin-7-ol

>  <PUBCHEM_IUPAC_INCHI>
InChI=1S/C12H10N2O/c1-7-12-10(4-5-13-7)9-3-2-8(15)6-11(9)14-12/h2-6,14-15H,1H3

>  <PUBCHEM_IUPAC_INCHIKEY>
SATMZMMKDDTOSQ-UHFFFAOYSA-N

>  <PUBCHEM_XLOGP3>
3.2

>  <PUBCHEM_EXACT_MASS>
198.079

>  <PUBCHEM_MOLECULAR_FORMULA>
C12H10N2O

>  <PUBCHEM_MOLECULAR_WEIGHT>
198.225

>  <PUBCHEM_OPENEYE_CAN_SMILES>
CC1=NC=CC2=C1NC3=C2C=CC(=C3)O

>  <PUBCHEM_OPENEYE_ISO_SMILES>
CC1=NC=CC2=C1NC3=C2C=CC(=C3)O

>  <PUBCHEM_CACTVS_TPSA>
48.9

>  <PUBCHEM_MONOISOTOPIC_WEIGHT>
198.079

>  <PUBCHEM_TOTAL_CHARGE>
0

>  <PUBCHEM_HEAVY_ATOM_COUNT>
15

>  <PUBCHEM_ATOM_DEF_STEREO_COUNT>
0

>  <PUBCHEM_ATOM_UDEF_STEREO_COUNT>
0

>  <PUBCHEM_BOND_DEF_STEREO_COUNT>
0

>  <PUBCHEM_BOND_UDEF_STEREO_COUNT>
0

>  <PUBCHEM_ISOTOPIC_ATOM_COUNT>
0

>  <PUBCHEM_COMPONENT_COUNT>
1

>  <PUBCHEM_CACTVS_TAUTO_COUNT>
12

>  <PUBCHEM_COORDINATE_TYPE>
1
5
255

>  <PUBCHEM_BONDANNOTATIONS>
10  14  8
11  12  8
12  13  8
2  6  8
2  7  8
3  14  8
3  8  8
4  10  8
4  5  8
4  6  8
5  7  8
5  9  8
6  8  8
7  11  8
9  13  8

$$$$
