5280455
 OpenBabel06101807152D

 21 22  0  0  0  0  0  0  0  0999 V2000
    4.6660    1.8450    0.0000 O   0  0  0  0  0  0  0  0  0  0  0  0
    7.2641   -0.6550    0.0000 O   0  0  0  0  0  0  0  0  0  0  0  0
    6.3981   -2.1550    0.0000 O   0  0  0  0  0  0  0  0  0  0  0  0
    4.6660   -1.1550    0.0000 N   0  0  0  0  0  0  0  0  0  0  0  0
    3.8000    0.3450    0.0000 C   0  0  0  0  0  0  0  0  0  0  0  0
    3.8000   -0.6550    0.0000 C   0  0  0  0  0  0  0  0  0  0  0  0
    4.6660    0.8450    0.0000 C   0  0  0  0  0  0  0  0  0  0  0  0
    2.9061    0.8797    0.0000 C   0  0  0  0  0  0  0  0  0  0  0  0
    5.5321    0.3450    0.0000 C   0  0  0  0  0  0  0  0  0  0  0  0
    2.9061   -1.1897    0.0000 C   0  0  0  0  0  0  0  0  0  0  0  0
    5.5321   -0.6550    0.0000 C   0  0  0  0  0  0  0  0  0  0  0  0
    2.0000    0.3658    0.0000 C   0  0  0  0  0  0  0  0  0  0  0  0
    2.0000   -0.6758    0.0000 C   0  0  0  0  0  0  0  0  0  0  0  0
    6.3981   -1.1550    0.0000 C   0  0  0  0  0  0  0  0  0  0  0  0
    2.9132    1.4996    0.0000 H   0  0  0  0  0  0  0  0  0  0  0  0
    6.0690    0.6550    0.0000 H   0  0  0  0  0  0  0  0  0  0  0  0
    2.9132   -1.8096    0.0000 H   0  0  0  0  0  0  0  0  0  0  0  0
    1.4643    0.6779    0.0000 H   0  0  0  0  0  0  0  0  0  0  0  0
    1.4643   -0.9879    0.0000 H   0  0  0  0  0  0  0  0  0  0  0  0
    5.2030    2.1550    0.0000 H   0  0  0  0  0  0  0  0  0  0  0  0
    7.8010   -0.9650    0.0000 H   0  0  0  0  0  0  0  0  0  0  0  0
  1  7  1  0  0  0  0
  1 20  1  0  0  0  0
  2 14  1  0  0  0  0
  2 21  1  0  0  0  0
  3 14  2  0  0  0  0
  4  6  1  0  0  0  0
  4 11  2  0  0  0  0
  5  6  1  0  0  0  0
  5  7  1  0  0  0  0
  5  8  2  0  0  0  0
  6 10  2  0  0  0  0
  7  9  2  0  0  0  0
  8 12  1  0  0  0  0
  8 15  1  0  0  0  0
  9 11  1  0  0  0  0
  9 16  1  0  0  0  0
 10 13  1  0  0  0  0
 10 17  1  0  0  0  0
 11 14  1  0  0  0  0
 12 13  2  0  0  0  0
 12 18  1  0  0  0  0
 13 19  1  0  0  0  0
M  END
>  <PUBCHEM_COMPOUND_CID>
5280455

>  <PUBCHEM_COMPOUND_CANONICALIZED>
1

>  <PUBCHEM_CACTVS_COMPLEXITY>
231

>  <PUBCHEM_CACTVS_HBOND_ACCEPTOR>
4

>  <PUBCHEM_CACTVS_HBOND_DONOR>
2

>  <PUBCHEM_CACTVS_ROTATABLE_BOND>
1

>  <PUBCHEM_CACTVS_SUBSKEYS>
AAADcYByMAAAAAAAAAAAAAAAAAAAAAAAAAA8QAAAAAAAAACx8AAAHgAACAAADAyBngAwzvIIEgCoAyTyTASCgCAnIiAImCG2bNgKJvLClbOEcQhmwBnY2YfayLCOAAAAAAACAAAAAAAAAAQAAAAAAAAAAA==

>  <PUBCHEM_IUPAC_OPENEYE_NAME>
4-hydroxyquinoline-2-carboxylic acid

>  <PUBCHEM_IUPAC_CAS_NAME>
4-hydroxy-2-quinolinecarboxylic acid

>  <PUBCHEM_IUPAC_NAME>
4-hydroxyquinoline-2-carboxylic acid

>  <PUBCHEM_IUPAC_SYSTEMATIC_NAME>
4-oxidanylquinoline-2-carboxylic acid

>  <PUBCHEM_IUPAC_TRADITIONAL_NAME>
kynurenic acid

>  <PUBCHEM_IUPAC_INCHI>
InChI=1S/C10H7NO3/c12-9-5-8(10(13)14)11-7-4-2-1-3-6(7)9/h1-5H,(H,11,12)(H,13,14)

>  <PUBCHEM_IUPAC_INCHIKEY>
HCZHHEIFKROPDY-UHFFFAOYSA-N

>  <PUBCHEM_XLOGP3_AA>
1.7

>  <PUBCHEM_EXACT_MASS>
189.043

>  <PUBCHEM_MOLECULAR_FORMULA>
C10H7NO3

>  <PUBCHEM_MOLECULAR_WEIGHT>
189.17

>  <PUBCHEM_OPENEYE_CAN_SMILES>
C1=CC=C2C(=C1)C(=CC(=N2)C(=O)O)O

>  <PUBCHEM_OPENEYE_ISO_SMILES>
C1=CC=C2C(=C1)C(=CC(=N2)C(=O)O)O

>  <PUBCHEM_CACTVS_TPSA>
70.4

>  <PUBCHEM_MONOISOTOPIC_WEIGHT>
189.043

>  <PUBCHEM_TOTAL_CHARGE>
0

>  <PUBCHEM_HEAVY_ATOM_COUNT>
14

>  <PUBCHEM_ATOM_DEF_STEREO_COUNT>
0

>  <PUBCHEM_ATOM_UDEF_STEREO_COUNT>
0

>  <PUBCHEM_BOND_DEF_STEREO_COUNT>
0

>  <PUBCHEM_BOND_UDEF_STEREO_COUNT>
0

>  <PUBCHEM_ISOTOPIC_ATOM_COUNT>
0

>  <PUBCHEM_COMPONENT_COUNT>
1

>  <PUBCHEM_CACTVS_TAUTO_COUNT>
4

>  <PUBCHEM_COORDINATE_TYPE>
1
5
255

>  <PUBCHEM_BONDANNOTATIONS>
10  13  8
12  13  8
4  11  8
4  6  8
5  6  8
5  7  8
5  8  8
6  10  8
7  9  8
8  12  8
9  11  8

$$$$
