5280329
 OpenBabel06101807152D

101104  0  0  1  0  0  0  0  0999 V2000
    6.0986    5.4135    0.0000 S   0  0  0  0  0  0  0  0  0  0  0  0
   19.3228   -3.7669    0.0000 P   0  0  0  0  0  0  0  0  0  0  0  0
   16.0725   -2.9245    0.0000 P   0  0  3  0  0  0  0  0  0  0  0  0
   14.7874   -1.7633    0.0000 P   0  0  3  0  0  0  0  0  0  0  0  0
   17.0759   -5.8453    0.0000 O   0  0  0  0  0  0  0  0  0  0  0  0
   19.4256   -4.7616    0.0000 O   0  0  0  0  0  0  0  0  0  0  0  0
   19.4219   -6.9371    0.0000 O   0  0  0  0  0  0  0  0  0  0  0  0
   16.3799   -3.8761    0.0000 O   0  0  0  0  0  0  0  0  0  0  0  0
   19.2200   -2.7722    0.0000 O   0  0  0  0  0  0  0  0  0  0  0  0
   20.3175   -3.6641    0.0000 O   0  0  0  0  0  0  0  0  0  0  0  0
   15.7652   -1.9729    0.0000 O   0  0  0  0  0  0  0  0  0  0  0  0
   18.3281   -3.8697    0.0000 O   0  0  0  0  0  0  0  0  0  0  0  0
   13.8096   -1.5537    0.0000 O   0  0  0  0  0  0  0  0  0  0  0  0
   15.1209   -3.2319    0.0000 O   0  0  0  0  0  0  0  0  0  0  0  0
   17.0241   -2.6171    0.0000 O   0  0  0  0  0  0  0  0  0  0  0  0
   10.8762   -0.9249    0.0000 O   0  0  0  0  0  0  0  0  0  0  0  0
   14.9970   -0.7855    0.0000 O   0  0  0  0  0  0  0  0  0  0  0  0
   14.5778   -2.7411    0.0000 O   0  0  0  0  0  0  0  0  0  0  0  0
   11.9097    1.5107    0.0000 O   0  0  0  0  0  0  0  0  0  0  0  0
    9.3394    3.8331    0.0000 O   0  0  0  0  0  0  0  0  0  0  0  0
    4.4504    4.8811    0.0000 O   0  0  0  0  0  0  0  0  0  0  0  0
    2.6062   10.5906    0.0000 O   0  0  0  0  0  0  0  0  0  0  0  0
   17.3516   -7.6058    0.0000 N   0  0  0  0  0  0  0  0  0  0  0  0
   17.3516   -9.2153    0.0000 N   0  0  0  0  0  0  0  0  0  0  0  0
   15.5394   -7.4106    0.0000 N   0  0  0  0  0  0  0  0  0  0  0  0
   14.6733   -8.9106    0.0000 N   0  0  0  0  0  0  0  0  0  0  0  0
   15.5394  -10.4106    0.0000 N   0  0  0  0  0  0  0  0  0  0  0  0
   10.2615    0.9783    0.0000 N   0  0  0  0  0  0  0  0  0  0  0  0
    7.6912    3.3007    0.0000 N   0  0  0  0  0  0  0  0  0  0  0  0
   18.6156   -5.3480    0.0000 C   0  0  1  0  0  0  0  0  0  0  0  0
   18.6139   -6.3480    0.0000 C   0  0  2  0  0  0  0  0  0  0  0  0
   17.6651   -5.0373    0.0000 C   0  0  1  0  0  0  0  0  0  0  0  0
   17.6623   -6.6553    0.0000 C   0  0  1  0  0  0  0  0  0  0  0  0
   17.3577   -4.0857    0.0000 C   0  0  0  0  0  0  0  0  0  0  0  0
   16.4054   -7.9106    0.0000 C   0  0  0  0  0  0  0  0  0  0  0  0
   17.9352   -8.4106    0.0000 C   0  0  0  0  0  0  0  0  0  0  0  0
   16.4054   -8.9106    0.0000 C   0  0  0  0  0  0  0  0  0  0  0  0
   12.5244   -0.3925    0.0000 C   0  0  0  0  0  0  0  0  0  0  0  0
   11.5467   -0.1829    0.0000 C   0  0  3  0  0  0  0  0  0  0  0  0
   15.5394   -9.4106    0.0000 C   0  0  0  0  0  0  0  0  0  0  0  0
   13.5022   -0.6021    0.0000 C   0  0  0  0  0  0  0  0  0  0  0  0
   12.7340    0.5853    0.0000 C   0  0  0  0  0  0  0  0  0  0  0  0
   12.3148   -1.3703    0.0000 C   0  0  0  0  0  0  0  0  0  0  0  0
   14.6733   -7.9106    0.0000 C   0  0  0  0  0  0  0  0  0  0  0  0
   11.2393    0.7687    0.0000 C   0  0  0  0  0  0  0  0  0  0  0  0
    9.9541    1.9299    0.0000 C   0  0  0  0  0  0  0  0  0  0  0  0
    8.9763    2.1395    0.0000 C   0  0  0  0  0  0  0  0  0  0  0  0
    8.6690    3.0911    0.0000 C   0  0  0  0  0  0  0  0  0  0  0  0
    7.3838    4.2523    0.0000 C   0  0  0  0  0  0  0  0  0  0  0  0
    6.4060    4.4619    0.0000 C   0  0  0  0  0  0  0  0  0  0  0  0
    5.1209    5.6231    0.0000 C   0  0  0  0  0  0  0  0  0  0  0  0
    4.8135    6.5746    0.0000 C   0  0  0  0  0  0  0  0  0  0  0  0
    3.8357    6.7843    0.0000 C   0  0  0  0  0  0  0  0  0  0  0  0
    3.5283    7.7358    0.0000 C   0  0  0  0  0  0  0  0  0  0  0  0
    4.1988    8.4778    0.0000 C   0  0  0  0  0  0  0  0  0  0  0  0
    2.5506    7.9454    0.0000 C   0  0  0  0  0  0  0  0  0  0  0  0
    3.8914    9.4294    0.0000 C   0  0  0  0  0  0  0  0  0  0  0  0
    2.2432    8.8970    0.0000 C   0  0  0  0  0  0  0  0  0  0  0  0
    2.9136    9.6390    0.0000 C   0  0  0  0  0  0  0  0  0  0  0  0
   19.1675   -5.6304    0.0000 H   0  0  0  0  0  0  0  0  0  0  0  0
   18.5158   -6.9601    0.0000 H   0  0  0  0  0  0  0  0  0  0  0  0
   17.0529   -4.9392    0.0000 H   0  0  0  0  0  0  0  0  0  0  0  0
   17.0497   -6.7512    0.0000 H   0  0  0  0  0  0  0  0  0  0  0  0
   17.9718   -4.0005    0.0000 H   0  0  0  0  0  0  0  0  0  0  0  0
   17.3804   -3.4661    0.0000 H   0  0  0  0  0  0  0  0  0  0  0  0
   19.9887   -6.6859    0.0000 H   0  0  0  0  0  0  0  0  0  0  0  0
   18.5552   -8.4106    0.0000 H   0  0  0  0  0  0  0  0  0  0  0  0
   10.7155   -0.0047    0.0000 H   0  0  0  0  0  0  0  0  0  0  0  0
   14.1163   -0.5169    0.0000 H   0  0  0  0  0  0  0  0  0  0  0  0
   13.5249    0.0175    0.0000 H   0  0  0  0  0  0  0  0  0  0  0  0
   13.3403    0.4553    0.0000 H   0  0  0  0  0  0  0  0  0  0  0  0
   12.8640    1.1915    0.0000 H   0  0  0  0  0  0  0  0  0  0  0  0
   12.1278    0.7152    0.0000 H   0  0  0  0  0  0  0  0  0  0  0  0
   11.7086   -1.2403    0.0000 H   0  0  0  0  0  0  0  0  0  0  0  0
   12.1849   -1.9765    0.0000 H   0  0  0  0  0  0  0  0  0  0  0  0
   12.9211   -1.5002    0.0000 H   0  0  0  0  0  0  0  0  0  0  0  0
   19.7222   -2.4086    0.0000 H   0  0  0  0  0  0  0  0  0  0  0  0
   20.6811   -4.1663    0.0000 H   0  0  0  0  0  0  0  0  0  0  0  0
   14.1364   -7.6006    0.0000 H   0  0  0  0  0  0  0  0  0  0  0  0
   14.9910   -3.8381    0.0000 H   0  0  0  0  0  0  0  0  0  0  0  0
   15.0024  -10.7206    0.0000 H   0  0  0  0  0  0  0  0  0  0  0  0
   16.0763  -10.7206    0.0000 H   0  0  0  0  0  0  0  0  0  0  0  0
   10.2700   -0.7949    0.0000 H   0  0  0  0  0  0  0  0  0  0  0  0
    9.8458    0.5183    0.0000 H   0  0  0  0  0  0  0  0  0  0  0  0
   10.5682    2.0151    0.0000 H   0  0  0  0  0  0  0  0  0  0  0  0
    9.9768    2.5495    0.0000 H   0  0  0  0  0  0  0  0  0  0  0  0
   15.5870   -0.5950    0.0000 H   0  0  0  0  0  0  0  0  0  0  0  0
    8.3622    2.0543    0.0000 H   0  0  0  0  0  0  0  0  0  0  0  0
    8.9536    1.5199    0.0000 H   0  0  0  0  0  0  0  0  0  0  0  0
    7.2755    2.8406    0.0000 H   0  0  0  0  0  0  0  0  0  0  0  0
    7.9979    4.3375    0.0000 H   0  0  0  0  0  0  0  0  0  0  0  0
    7.4065    4.8718    0.0000 H   0  0  0  0  0  0  0  0  0  0  0  0
    5.7919    4.3766    0.0000 H   0  0  0  0  0  0  0  0  0  0  0  0
    6.3833    3.8423    0.0000 H   0  0  0  0  0  0  0  0  0  0  0  0
    5.2292    7.0347    0.0000 H   0  0  0  0  0  0  0  0  0  0  0  0
    3.4200    6.3242    0.0000 H   0  0  0  0  0  0  0  0  0  0  0  0
    4.8050    8.3479    0.0000 H   0  0  0  0  0  0  0  0  0  0  0  0
    2.1349    7.4854    0.0000 H   0  0  0  0  0  0  0  0  0  0  0  0
    4.3070    9.8894    0.0000 H   0  0  0  0  0  0  0  0  0  0  0  0
    1.6370    9.0270    0.0000 H   0  0  0  0  0  0  0  0  0  0  0  0
    2.0000   10.7206    0.0000 H   0  0  0  0  0  0  0  0  0  0  0  0
  1 50  1  0  0  0  0
  1 51  1  0  0  0  0
  2  6  1  0  0  0  0
  2  9  1  0  0  0  0
  2 10  1  0  0  0  0
  2 12  2  0  0  0  0
  3  8  1  0  0  0  0
  3 11  1  0  0  0  0
  3 14  1  0  0  0  0
  3 15  2  0  0  0  0
  4 11  1  0  0  0  0
  4 13  1  0  0  0  0
  4 17  1  0  0  0  0
  4 18  2  0  0  0  0
  5 32  1  0  0  0  0
  5 33  1  0  0  0  0
  7 66  1  0  0  0  0
  8 34  1  0  0  0  0
  9 77  1  0  0  0  0
 10 78  1  0  0  0  0
 13 41  1  0  0  0  0
 14 80  1  0  0  0  0
 16 39  1  0  0  0  0
 16 83  1  0  0  0  0
 17 87  1  0  0  0  0
 19 45  2  0  0  0  0
 20 48  2  0  0  0  0
 21 51  2  0  0  0  0
 22 59  1  0  0  0  0
 22101  1  0  0  0  0
 23 35  1  0  0  0  0
 23 36  1  0  0  0  0
 24 36  2  0  0  0  0
 24 37  1  0  0  0  0
 25 35  1  0  0  0  0
 25 44  2  0  0  0  0
 26 40  2  0  0  0  0
 26 44  1  0  0  0  0
 27 40  1  0  0  0  0
 27 81  1  0  0  0  0
 27 82  1  0  0  0  0
 28 45  1  0  0  0  0
 28 46  1  0  0  0  0
 28 84  1  0  0  0  0
 29 48  1  0  0  0  0
 29 49  1  0  0  0  0
 29 90  1  0  0  0  0
 30  6  1  0  0  0  0
 30 31  1  1  0  0  0
 30 60  1  0  0  0  0
 31  7  1  0  0  0  0
 31 33  1  1  0  0  0
 31 61  1  0  0  0  0
 32 30  1  1  0  0  0
 32 34  1  0  0  0  0
 32 62  1  0  0  0  0
 33 23  1  0  0  0  0
 33 63  1  1  0  0  0
 34 64  1  0  0  0  0
 34 65  1  0  0  0  0
 35 37  2  0  0  0  0
 36 67  1  0  0  0  0
 37 40  1  0  0  0  0
 38 39  1  0  0  0  0
 38 41  1  0  0  0  0
 38 42  1  0  0  0  0
 38 43  1  0  0  0  0
 39 45  1  0  0  0  0
 39 68  1  0  0  0  0
 41 69  1  0  0  0  0
 41 70  1  0  0  0  0
 42 71  1  0  0  0  0
 42 72  1  0  0  0  0
 42 73  1  0  0  0  0
 43 74  1  0  0  0  0
 43 75  1  0  0  0  0
 43 76  1  0  0  0  0
 44 79  1  0  0  0  0
 46 47  1  0  0  0  0
 46 85  1  0  0  0  0
 46 86  1  0  0  0  0
 47 48  1  0  0  0  0
 47 88  1  0  0  0  0
 47 89  1  0  0  0  0
 49 50  1  0  0  0  0
 49 91  1  0  0  0  0
 49 92  1  0  0  0  0
 50 93  1  0  0  0  0
 50 94  1  0  0  0  0
 51 52  1  0  0  0  0
 52 53  2  0  0  0  0
 52 95  1  0  0  0  0
 53 54  1  0  0  0  0
 53 96  1  0  0  0  0
 54 55  2  0  0  0  0
 54 56  1  0  0  0  0
 55 57  1  0  0  0  0
 55 97  1  0  0  0  0
 56 58  2  0  0  0  0
 56 98  1  0  0  0  0
 57 59  2  0  0  0  0
 57 99  1  0  0  0  0
 58 59  1  0  0  0  0
 58100  1  0  0  0  0
M  END
>  <PUBCHEM_COMPOUND_CID>
5280329

>  <PUBCHEM_COMPOUND_CANONICALIZED>
1

>  <PUBCHEM_CACTVS_COMPLEXITY>
1620

>  <PUBCHEM_CACTVS_HBOND_ACCEPTOR>
23

>  <PUBCHEM_CACTVS_HBOND_DONOR>
10

>  <PUBCHEM_CACTVS_ROTATABLE_BOND>
22

>  <PUBCHEM_CACTVS_SUBSKEYS>
AAADcfB7vgNAAAAAAAAAAAAAAAAAAWJAAAA8QAAAAAAAAFgB/AAAHgQQCCAADhzl3wa39r/MFxioQydzdIKCgC0xMLAJ2KFuXNiLfjrC2VKedAgv1hP7mafy8AIPIAAAAAAAAABAAAAAAAAAAAAAAAAAAA==

>  <PUBCHEM_IUPAC_OPENEYE_NAME>
S-[2-[3-[[4-[[[(2R,3S,4R,5R)-5-(6-aminopurin-9-yl)-4-hydroxy-3-phosphonooxy-tetrahydrofuran-2-yl]methoxy-hydroxy-phosphoryl]oxy-hydroxy-phosphoryl]oxy-2-hydroxy-3,3-dimethyl-butanoyl]amino]propanoylamino]ethyl] (E)-3-(4-hydroxyphenyl)prop-2-enethioate

>  <PUBCHEM_IUPAC_CAS_NAME>
(E)-3-(4-hydroxyphenyl)-2-propenethioic acid S-[2-[[3-[[4-[[[(2R,3S,4R,5R)-5-(6-aminopurin-9-yl)-4-hydroxy-3-phosphonooxy-2-oxolanyl]methoxy-hydroxyphosphoryl]oxy-hydroxyphosphoryl]oxy-2-hydroxy-3,3-dimethyl-1-oxobutyl]amino]-1-oxopropyl]amino]ethyl] ester

>  <PUBCHEM_IUPAC_NAME>
S-[2-[3-[[4-[[[(2R,3S,4R,5R)-5-(6-aminopurin-9-yl)-4-hydroxy-3-phosphonooxyoxolan-2-yl]methoxy-hydroxyphosphoryl]oxy-hydroxyphosphoryl]oxy-2-hydroxy-3,3-dimethylbutanoyl]amino]propanoylamino]ethyl] (E)-3-(4-hydroxyphenyl)prop-2-enethioate

>  <PUBCHEM_IUPAC_SYSTEMATIC_NAME>
S-[2-[3-[[4-[[[(2R,3S,4R,5R)-5-(6-aminopurin-9-yl)-4-oxidanyl-3-phosphonooxy-oxolan-2-yl]methoxy-oxidanyl-phosphoryl]oxy-oxidanyl-phosphoryl]oxy-3,3-dimethyl-2-oxidanyl-butanoyl]amino]propanoylamino]ethyl] (E)-3-(4-hydroxyphenyl)prop-2-enethioate

>  <PUBCHEM_IUPAC_TRADITIONAL_NAME>
(E)-3-(4-hydroxyphenyl)prop-2-enethioic acid S-[2-[3-[[4-[[[(2R,3S,4R,5R)-5-adenin-9-yl-4-hydroxy-3-phosphonooxy-tetrahydrofuran-2-yl]methoxy-hydroxy-phosphoryl]oxy-hydroxy-phosphoryl]oxy-2-hydroxy-3,3-dimethyl-butanoyl]amino]propanoylamino]ethyl] ester

>  <PUBCHEM_IUPAC_INCHI>
InChI=1S/C30H42N7O18P3S/c1-30(2,25(42)28(43)33-10-9-20(39)32-11-12-59-21(40)8-5-17-3-6-18(38)7-4-17)14-52-58(49,50)55-57(47,48)51-13-19-24(54-56(44,45)46)23(41)29(53-19)37-16-36-22-26(31)34-15-35-27(22)37/h3-8,15-16,19,23-25,29,38,41-42H,9-14H2,1-2H3,(H,32,39)(H,33,43)(H,47,48)(H,49,50)(H2,31,34,35)(H2,44,45,46)/b8-5+/t19-,23-,24-,25?,29-/m1/s1

>  <PUBCHEM_IUPAC_INCHIKEY>
DMZOKBALNZWDKI-AZKRPDILSA-N

>  <PUBCHEM_XLOGP3_AA>
-3.9

>  <PUBCHEM_EXACT_MASS>
913.152

>  <PUBCHEM_MOLECULAR_FORMULA>
C30H42N7O18P3S

>  <PUBCHEM_MOLECULAR_WEIGHT>
913.678

>  <PUBCHEM_OPENEYE_CAN_SMILES>
CC(C)(COP(=O)(O)OP(=O)(O)OCC1C(C(C(O1)N2C=NC3=C2N=CN=C3N)O)OP(=O)(O)O)C(C(=O)NCCC(=O)NCCSC(=O)C=CC4=CC=C(C=C4)O)O

>  <PUBCHEM_OPENEYE_ISO_SMILES>
CC(C)(COP(=O)(O)OP(=O)(O)OC[C@@H]1[C@H]([C@H]([C@@H](O1)N2C=NC3=C2N=CN=C3N)O)OP(=O)(O)O)C(C(=O)NCCC(=O)NCCSC(=O)/C=C/C4=CC=C(C=C4)O)O

>  <PUBCHEM_CACTVS_TPSA>
409

>  <PUBCHEM_MONOISOTOPIC_WEIGHT>
913.152

>  <PUBCHEM_TOTAL_CHARGE>
0

>  <PUBCHEM_HEAVY_ATOM_COUNT>
59

>  <PUBCHEM_ATOM_DEF_STEREO_COUNT>
4

>  <PUBCHEM_ATOM_UDEF_STEREO_COUNT>
1

>  <PUBCHEM_BOND_DEF_STEREO_COUNT>
1

>  <PUBCHEM_BOND_UDEF_STEREO_COUNT>
0

>  <PUBCHEM_ISOTOPIC_ATOM_COUNT>
0

>  <PUBCHEM_COMPONENT_COUNT>
1

>  <PUBCHEM_CACTVS_TAUTO_COUNT>
48

>  <PUBCHEM_COORDINATE_TYPE>
1
5
255

>  <PUBCHEM_BONDANNOTATIONS>
33  23  6
23  35  8
23  36  8
24  36  8
24  37  8
25  35  8
25  44  8
26  40  8
26  44  8
32  34  6
35  37  8
37  40  8
39  68  3
54  55  8
54  56  8
55  57  8
56  58  8
57  59  8
58  59  8
30  6  5
31  7  5

$$$$
