5281841
 OpenBabel06101807152D

 30 32  0  0  0  0  0  0  0  0999 V2000
    3.9061    0.9050    0.0000 O   0  0  0  0  0  0  0  0  0  0  0  0
    5.6660   -2.1296    0.0000 O   0  0  0  0  0  0  0  0  0  0  0  0
    6.5321   -0.6296    0.0000 N   0  0  0  0  0  0  0  0  0  0  0  0
    3.0000    0.3912    0.0000 C   0  0  0  0  0  0  0  0  0  0  0  0
    4.8000    0.3704    0.0000 C   0  0  0  0  0  0  0  0  0  0  0  0
    3.0000   -0.6504    0.0000 C   0  0  0  0  0  0  0  0  0  0  0  0
    4.8000   -0.6296    0.0000 C   0  0  0  0  0  0  0  0  0  0  0  0
    2.0000    0.3950    0.0000 C   0  0  0  0  0  0  0  0  0  0  0  0
    2.5033    1.2591    0.0000 C   0  0  0  0  0  0  0  0  0  0  0  0
    5.6660    0.8704    0.0000 C   0  0  0  0  0  0  0  0  0  0  0  0
    3.9061   -1.1643    0.0000 C   0  0  0  0  0  0  0  0  0  0  0  0
    6.5321    0.3704    0.0000 C   0  0  0  0  0  0  0  0  0  0  0  0
    5.6660   -1.1296    0.0000 C   0  0  0  0  0  0  0  0  0  0  0  0
    5.6500    1.9119    0.0000 C   0  0  0  0  0  0  0  0  0  0  0  0
    7.4421    0.8772    0.0000 C   0  0  0  0  0  0  0  0  0  0  0  0
    6.5480    2.4396    0.0000 C   0  0  0  0  0  0  0  0  0  0  0  0
    7.4501    1.9188    0.0000 C   0  0  0  0  0  0  0  0  0  0  0  0
    2.4643   -0.9625    0.0000 H   0  0  0  0  0  0  0  0  0  0  0  0
    2.0024    1.0150    0.0000 H   0  0  0  0  0  0  0  0  0  0  0  0
    1.3800    0.3974    0.0000 H   0  0  0  0  0  0  0  0  0  0  0  0
    1.9976   -0.2250    0.0000 H   0  0  0  0  0  0  0  0  0  0  0  0
    3.0415    1.5671    0.0000 H   0  0  0  0  0  0  0  0  0  0  0  0
    2.1954    1.7973    0.0000 H   0  0  0  0  0  0  0  0  0  0  0  0
    1.9652    0.9512    0.0000 H   0  0  0  0  0  0  0  0  0  0  0  0
    3.9132   -1.7843    0.0000 H   0  0  0  0  0  0  0  0  0  0  0  0
    5.1095    2.2156    0.0000 H   0  0  0  0  0  0  0  0  0  0  0  0
    7.9754    0.5610    0.0000 H   0  0  0  0  0  0  0  0  0  0  0  0
    6.5456    3.0596    0.0000 H   0  0  0  0  0  0  0  0  0  0  0  0
    7.9882    2.2267    0.0000 H   0  0  0  0  0  0  0  0  0  0  0  0
    6.2030   -2.4396    0.0000 H   0  0  0  0  0  0  0  0  0  0  0  0
  1  4  1  0  0  0  0
  1  5  1  0  0  0  0
  2 13  1  0  0  0  0
  2 30  1  0  0  0  0
  3 12  1  0  0  0  0
  3 13  2  0  0  0  0
  4  6  1  0  0  0  0
  4  8  1  0  0  0  0
  4  9  1  0  0  0  0
  5  7  2  0  0  0  0
  5 10  1  0  0  0  0
  6 11  2  0  0  0  0
  6 18  1  0  0  0  0
  7 11  1  0  0  0  0
  7 13  1  0  0  0  0
  8 19  1  0  0  0  0
  8 20  1  0  0  0  0
  8 21  1  0  0  0  0
  9 22  1  0  0  0  0
  9 23  1  0  0  0  0
  9 24  1  0  0  0  0
 10 12  1  0  0  0  0
 10 14  2  0  0  0  0
 11 25  1  0  0  0  0
 12 15  2  0  0  0  0
 14 16  1  0  0  0  0
 14 26  1  0  0  0  0
 15 17  1  0  0  0  0
 15 27  1  0  0  0  0
 16 17  2  0  0  0  0
 16 28  1  0  0  0  0
 17 29  1  0  0  0  0
M  END
>  <PUBCHEM_COMPOUND_CID>
5281841

>  <PUBCHEM_COMPOUND_CANONICALIZED>
1

>  <PUBCHEM_CACTVS_COMPLEXITY>
326

>  <PUBCHEM_CACTVS_HBOND_ACCEPTOR>
3

>  <PUBCHEM_CACTVS_HBOND_DONOR>
1

>  <PUBCHEM_CACTVS_ROTATABLE_BOND>
0

>  <PUBCHEM_CACTVS_SUBSKEYS>
AAADccByMAAAAAAAAAAAAAAAAAAAAAAAAAA8QIAAAAAAAACx8AAAHgAACAAADEyBngAyxvIIFgCgAyRiRACCiCAhIiAImCA0bJwMJ+LGsZuGeCjnwB3I+AeQ0OEOAAAAAAACAAAAAAAAAAQAAAAAAAAAAA==

>  <PUBCHEM_IUPAC_OPENEYE_NAME>
2,2-dimethylpyrano[3,2-c]quinolin-5-ol

>  <PUBCHEM_IUPAC_CAS_NAME>
2,2-dimethyl-5-pyrano[3,2-c]quinolinol

>  <PUBCHEM_IUPAC_NAME>
2,2-dimethylpyrano[3,2-c]quinolin-5-ol

>  <PUBCHEM_IUPAC_SYSTEMATIC_NAME>
2,2-dimethylpyrano[3,2-c]quinolin-5-ol

>  <PUBCHEM_IUPAC_TRADITIONAL_NAME>
2,2-dimethylpyrano[3,2-c]quinolin-5-ol

>  <PUBCHEM_IUPAC_INCHI>
InChI=1S/C14H13NO2/c1-14(2)8-7-10-12(17-14)9-5-3-4-6-11(9)15-13(10)16/h3-8H,1-2H3,(H,15,16)

>  <PUBCHEM_IUPAC_INCHIKEY>
PXNMNABLQWUMCX-UHFFFAOYSA-N

>  <PUBCHEM_XLOGP3_AA>
3.1

>  <PUBCHEM_EXACT_MASS>
227.095

>  <PUBCHEM_MOLECULAR_FORMULA>
C14H13NO2

>  <PUBCHEM_MOLECULAR_WEIGHT>
227.263

>  <PUBCHEM_OPENEYE_CAN_SMILES>
CC1(C=CC2=C(O1)C3=CC=CC=C3N=C2O)C

>  <PUBCHEM_OPENEYE_ISO_SMILES>
CC1(C=CC2=C(O1)C3=CC=CC=C3N=C2O)C

>  <PUBCHEM_CACTVS_TPSA>
42.4

>  <PUBCHEM_MONOISOTOPIC_WEIGHT>
227.095

>  <PUBCHEM_TOTAL_CHARGE>
0

>  <PUBCHEM_HEAVY_ATOM_COUNT>
17

>  <PUBCHEM_ATOM_DEF_STEREO_COUNT>
0

>  <PUBCHEM_ATOM_UDEF_STEREO_COUNT>
0

>  <PUBCHEM_BOND_DEF_STEREO_COUNT>
0

>  <PUBCHEM_BOND_UDEF_STEREO_COUNT>
0

>  <PUBCHEM_ISOTOPIC_ATOM_COUNT>
0

>  <PUBCHEM_COMPONENT_COUNT>
1

>  <PUBCHEM_CACTVS_TAUTO_COUNT>
2

>  <PUBCHEM_COORDINATE_TYPE>
1
5
255

>  <PUBCHEM_BONDANNOTATIONS>
10  12  8
10  14  8
12  15  8
14  16  8
15  17  8
16  17  8
3  12  8
3  13  8
5  10  8
5  7  8
7  13  8

$$$$
