5281608
 OpenBabel06101807152D

 45 47  0  0  0  0  0  0  0  0999 V2000
    6.3981   -0.1754    0.0000 O   0  0  0  0  0  0  0  0  0  0  0  0
    8.1301    1.8246    0.0000 O   0  0  0  0  0  0  0  0  0  0  0  0
    2.8680    1.8488    0.0000 O   0  0  0  0  0  0  0  0  0  0  0  0
    2.8680   -0.1995    0.0000 O   0  0  0  0  0  0  0  0  0  0  0  0
    4.6497    2.8592    0.0000 O   0  0  0  0  0  0  0  0  0  0  0  0
    6.3981    2.8246    0.0000 O   0  0  0  0  0  0  0  0  0  0  0  0
    8.9962   -2.6754    0.0000 O   0  0  0  0  0  0  0  0  0  0  0  0
   10.7282   -1.6754    0.0000 O   0  0  0  0  0  0  0  0  0  0  0  0
    5.5320    1.3246    0.0000 C   0  0  0  0  0  0  0  0  0  0  0  0
    5.5320    0.3246    0.0000 C   0  0  0  0  0  0  0  0  0  0  0  0
    7.2641    0.3246    0.0000 C   0  0  0  0  0  0  0  0  0  0  0  0
    7.2641    1.3246    0.0000 C   0  0  0  0  0  0  0  0  0  0  0  0
    6.3981    1.8246    0.0000 C   0  0  0  0  0  0  0  0  0  0  0  0
    4.6381    1.8593    0.0000 C   0  0  0  0  0  0  0  0  0  0  0  0
    8.1301   -0.1754    0.0000 C   0  0  0  0  0  0  0  0  0  0  0  0
    4.6381   -0.2101    0.0000 C   0  0  0  0  0  0  0  0  0  0  0  0
    3.7320    1.3454    0.0000 C   0  0  0  0  0  0  0  0  0  0  0  0
    3.7320    0.3038    0.0000 C   0  0  0  0  0  0  0  0  0  0  0  0
    8.1301   -1.1754    0.0000 C   0  0  0  0  0  0  0  0  0  0  0  0
    8.9962    0.3246    0.0000 C   0  0  0  0  0  0  0  0  0  0  0  0
    8.9962   -1.6754    0.0000 C   0  0  0  0  0  0  0  0  0  0  0  0
    9.8622   -0.1754    0.0000 C   0  0  0  0  0  0  0  0  0  0  0  0
    9.8622   -1.1754    0.0000 C   0  0  0  0  0  0  0  0  0  0  0  0
    8.1301    2.8246    0.0000 C   0  0  0  0  0  0  0  0  0  0  0  0
    2.0000    1.3521    0.0000 C   0  0  0  0  0  0  0  0  0  0  0  0
    2.8718   -1.1995    0.0000 C   0  0  0  0  0  0  0  0  0  0  0  0
    9.8622   -3.1754    0.0000 C   0  0  0  0  0  0  0  0  0  0  0  0
    4.6453   -0.8300    0.0000 H   0  0  0  0  0  0  0  0  0  0  0  0
    7.5932   -1.4854    0.0000 H   0  0  0  0  0  0  0  0  0  0  0  0
    8.9962    0.9446    0.0000 H   0  0  0  0  0  0  0  0  0  0  0  0
   10.3991    0.1346    0.0000 H   0  0  0  0  0  0  0  0  0  0  0  0
    4.1164    3.1754    0.0000 H   0  0  0  0  0  0  0  0  0  0  0  0
    8.7501    2.8246    0.0000 H   0  0  0  0  0  0  0  0  0  0  0  0
    8.1301    3.4446    0.0000 H   0  0  0  0  0  0  0  0  0  0  0  0
    7.5101    2.8246    0.0000 H   0  0  0  0  0  0  0  0  0  0  0  0
    1.6921    1.8902    0.0000 H   0  0  0  0  0  0  0  0  0  0  0  0
    1.4619    1.0442    0.0000 H   0  0  0  0  0  0  0  0  0  0  0  0
    2.3079    0.8140    0.0000 H   0  0  0  0  0  0  0  0  0  0  0  0
    2.2518   -1.2019    0.0000 H   0  0  0  0  0  0  0  0  0  0  0  0
    2.8742   -1.8195    0.0000 H   0  0  0  0  0  0  0  0  0  0  0  0
    3.4918   -1.1971    0.0000 H   0  0  0  0  0  0  0  0  0  0  0  0
   11.2651   -1.3654    0.0000 H   0  0  0  0  0  0  0  0  0  0  0  0
    9.5522   -3.7123    0.0000 H   0  0  0  0  0  0  0  0  0  0  0  0
   10.3991   -3.4854    0.0000 H   0  0  0  0  0  0  0  0  0  0  0  0
   10.1722   -2.6385    0.0000 H   0  0  0  0  0  0  0  0  0  0  0  0
  1 10  1  0  0  0  0
  1 11  1  0  0  0  0
  2 12  1  0  0  0  0
  2 24  1  0  0  0  0
  3 17  1  0  0  0  0
  3 25  1  0  0  0  0
  4 18  1  0  0  0  0
  4 26  1  0  0  0  0
  5 14  1  0  0  0  0
  5 32  1  0  0  0  0
  6 13  2  0  0  0  0
  7 21  1  0  0  0  0
  7 27  1  0  0  0  0
  8 23  1  0  0  0  0
  8 42  1  0  0  0  0
  9 10  1  0  0  0  0
  9 13  1  0  0  0  0
  9 14  2  0  0  0  0
 10 16  2  0  0  0  0
 11 12  2  0  0  0  0
 11 15  1  0  0  0  0
 12 13  1  0  0  0  0
 14 17  1  0  0  0  0
 15 19  2  0  0  0  0
 15 20  1  0  0  0  0
 16 18  1  0  0  0  0
 16 28  1  0  0  0  0
 17 18  2  0  0  0  0
 19 21  1  0  0  0  0
 19 29  1  0  0  0  0
 20 22  2  0  0  0  0
 20 30  1  0  0  0  0
 21 23  2  0  0  0  0
 22 23  1  0  0  0  0
 22 31  1  0  0  0  0
 24 33  1  0  0  0  0
 24 34  1  0  0  0  0
 24 35  1  0  0  0  0
 25 36  1  0  0  0  0
 25 37  1  0  0  0  0
 25 38  1  0  0  0  0
 26 39  1  0  0  0  0
 26 40  1  0  0  0  0
 26 41  1  0  0  0  0
 27 43  1  0  0  0  0
 27 44  1  0  0  0  0
 27 45  1  0  0  0  0
M  END
>  <PUBCHEM_COMPOUND_CID>
5281608

>  <PUBCHEM_COMPOUND_CANONICALIZED>
1

>  <PUBCHEM_CACTVS_COMPLEXITY>
576

>  <PUBCHEM_CACTVS_HBOND_ACCEPTOR>
8

>  <PUBCHEM_CACTVS_HBOND_DONOR>
2

>  <PUBCHEM_CACTVS_ROTATABLE_BOND>
5

>  <PUBCHEM_CACTVS_SUBSKEYS>
AAADceB4PAAAAAAAAAAAAAAAAAAAAAAAAAAwYIAAAAAAAACBQAAAGgAACAAADASAmAIyBoAABgCIAqBSAAICCAAkIAAIiAFGiMgNJzaGNR6CeWOl4BULuQfK7LzOIQABCAAIQABCAAIQABCAAAAAAAAAAA==

>  <PUBCHEM_IUPAC_OPENEYE_NAME>
5-hydroxy-2-(4-hydroxy-3-methoxy-phenyl)-3,6,7-trimethoxy-chromen-4-one

>  <PUBCHEM_IUPAC_CAS_NAME>
5-hydroxy-2-(4-hydroxy-3-methoxyphenyl)-3,6,7-trimethoxy-1-benzopyran-4-one

>  <PUBCHEM_IUPAC_NAME>
5-hydroxy-2-(4-hydroxy-3-methoxyphenyl)-3,6,7-trimethoxychromen-4-one

>  <PUBCHEM_IUPAC_SYSTEMATIC_NAME>
3,6,7-trimethoxy-2-(3-methoxy-4-oxidanyl-phenyl)-5-oxidanyl-chromen-4-one

>  <PUBCHEM_IUPAC_TRADITIONAL_NAME>
5-hydroxy-2-(4-hydroxy-3-methoxy-phenyl)-3,6,7-trimethoxy-chromone

>  <PUBCHEM_IUPAC_INCHI>
InChI=1S/C19H18O8/c1-23-11-7-9(5-6-10(11)20)17-19(26-4)16(22)14-12(27-17)8-13(24-2)18(25-3)15(14)21/h5-8,20-21H,1-4H3

>  <PUBCHEM_IUPAC_INCHIKEY>
NBVTYGIYKCPHQN-UHFFFAOYSA-N

>  <PUBCHEM_XLOGP3_AA>
3.1

>  <PUBCHEM_EXACT_MASS>
374.1

>  <PUBCHEM_MOLECULAR_FORMULA>
C19H18O8

>  <PUBCHEM_MOLECULAR_WEIGHT>
374.345

>  <PUBCHEM_OPENEYE_CAN_SMILES>
COC1=C(C=CC(=C1)C2=C(C(=O)C3=C(C(=C(C=C3O2)OC)OC)O)OC)O

>  <PUBCHEM_OPENEYE_ISO_SMILES>
COC1=C(C=CC(=C1)C2=C(C(=O)C3=C(C(=C(C=C3O2)OC)OC)O)OC)O

>  <PUBCHEM_CACTVS_TPSA>
104

>  <PUBCHEM_MONOISOTOPIC_WEIGHT>
374.1

>  <PUBCHEM_TOTAL_CHARGE>
0

>  <PUBCHEM_HEAVY_ATOM_COUNT>
27

>  <PUBCHEM_ATOM_DEF_STEREO_COUNT>
0

>  <PUBCHEM_ATOM_UDEF_STEREO_COUNT>
0

>  <PUBCHEM_BOND_DEF_STEREO_COUNT>
0

>  <PUBCHEM_BOND_UDEF_STEREO_COUNT>
0

>  <PUBCHEM_ISOTOPIC_ATOM_COUNT>
0

>  <PUBCHEM_COMPONENT_COUNT>
1

>  <PUBCHEM_CACTVS_TAUTO_COUNT>
25

>  <PUBCHEM_COORDINATE_TYPE>
1
5
255

>  <PUBCHEM_BONDANNOTATIONS>
1  10  8
1  11  8
10  16  8
11  12  8
12  13  8
14  17  8
15  19  8
15  20  8
16  18  8
17  18  8
19  21  8
20  22  8
21  23  8
22  23  8
9  10  8
9  13  8
9  14  8

$$$$
