5281226
 OpenBabel06101807152D

 59 58  0  0  0  0  0  0  0  0999 V2000
   13.2583   -6.0600    0.0000 O   0  0  0  0  0  0  0  0  0  0  0  0
   12.3923   -4.5600    0.0000 O   0  0  0  0  0  0  0  0  0  0  0  0
    2.0000    6.4400    0.0000 O   0  0  0  0  0  0  0  0  0  0  0  0
    3.7320    6.4400    0.0000 O   0  0  0  0  0  0  0  0  0  0  0  0
    8.0622   -3.0600    0.0000 C   0  0  0  0  0  0  0  0  0  0  0  0
    5.4641    0.4400    0.0000 C   0  0  0  0  0  0  0  0  0  0  0  0
    7.1962   -2.5600    0.0000 C   0  0  0  0  0  0  0  0  0  0  0  0
    8.0622   -4.0600    0.0000 C   0  0  0  0  0  0  0  0  0  0  0  0
    6.3301   -0.0600    0.0000 C   0  0  0  0  0  0  0  0  0  0  0  0
    5.4641    1.4400    0.0000 C   0  0  0  0  0  0  0  0  0  0  0  0
    9.7942   -6.0600    0.0000 C   0  0  0  0  0  0  0  0  0  0  0  0
    7.1962   -1.5600    0.0000 C   0  0  0  0  0  0  0  0  0  0  0  0
    6.3301   -1.0600    0.0000 C   0  0  0  0  0  0  0  0  0  0  0  0
    8.9282   -2.5600    0.0000 C   0  0  0  0  0  0  0  0  0  0  0  0
    8.9282   -4.5600    0.0000 C   0  0  0  0  0  0  0  0  0  0  0  0
    4.5981   -0.0600    0.0000 C   0  0  0  0  0  0  0  0  0  0  0  0
    8.9282   -5.5600    0.0000 C   0  0  0  0  0  0  0  0  0  0  0  0
    3.7320    3.4400    0.0000 C   0  0  0  0  0  0  0  0  0  0  0  0
    4.5981    1.9400    0.0000 C   0  0  0  0  0  0  0  0  0  0  0  0
    4.5981    2.9400    0.0000 C   0  0  0  0  0  0  0  0  0  0  0  0
    9.7942   -7.0600    0.0000 C   0  0  0  0  0  0  0  0  0  0  0  0
    2.8660    2.9400    0.0000 C   0  0  0  0  0  0  0  0  0  0  0  0
   10.6603   -5.5600    0.0000 C   0  0  0  0  0  0  0  0  0  0  0  0
    3.7320    4.4400    0.0000 C   0  0  0  0  0  0  0  0  0  0  0  0
   11.5263   -6.0600    0.0000 C   0  0  0  0  0  0  0  0  0  0  0  0
    2.8660    4.9400    0.0000 C   0  0  0  0  0  0  0  0  0  0  0  0
   12.3923   -5.5600    0.0000 C   0  0  0  0  0  0  0  0  0  0  0  0
    2.8660    5.9400    0.0000 C   0  0  0  0  0  0  0  0  0  0  0  0
   14.1244   -5.5600    0.0000 C   0  0  0  0  0  0  0  0  0  0  0  0
    6.6592   -2.8700    0.0000 H   0  0  0  0  0  0  0  0  0  0  0  0
    7.5252   -4.3700    0.0000 H   0  0  0  0  0  0  0  0  0  0  0  0
    6.8671    0.2500    0.0000 H   0  0  0  0  0  0  0  0  0  0  0  0
    6.0010    1.7500    0.0000 H   0  0  0  0  0  0  0  0  0  0  0  0
    7.7331   -1.2500    0.0000 H   0  0  0  0  0  0  0  0  0  0  0  0
    5.7932   -1.3700    0.0000 H   0  0  0  0  0  0  0  0  0  0  0  0
    9.2382   -3.0969    0.0000 H   0  0  0  0  0  0  0  0  0  0  0  0
    9.4651   -2.2500    0.0000 H   0  0  0  0  0  0  0  0  0  0  0  0
    8.6182   -2.0231    0.0000 H   0  0  0  0  0  0  0  0  0  0  0  0
    9.4651   -4.2500    0.0000 H   0  0  0  0  0  0  0  0  0  0  0  0
    4.2881    0.4769    0.0000 H   0  0  0  0  0  0  0  0  0  0  0  0
    4.0611   -0.3700    0.0000 H   0  0  0  0  0  0  0  0  0  0  0  0
    4.9081   -0.5969    0.0000 H   0  0  0  0  0  0  0  0  0  0  0  0
    8.3913   -5.8700    0.0000 H   0  0  0  0  0  0  0  0  0  0  0  0
    4.0611    1.6300    0.0000 H   0  0  0  0  0  0  0  0  0  0  0  0
    5.1350    3.2500    0.0000 H   0  0  0  0  0  0  0  0  0  0  0  0
    9.1742   -7.0600    0.0000 H   0  0  0  0  0  0  0  0  0  0  0  0
    9.7942   -7.6800    0.0000 H   0  0  0  0  0  0  0  0  0  0  0  0
   10.4142   -7.0600    0.0000 H   0  0  0  0  0  0  0  0  0  0  0  0
    2.5560    3.4769    0.0000 H   0  0  0  0  0  0  0  0  0  0  0  0
    2.3291    2.6300    0.0000 H   0  0  0  0  0  0  0  0  0  0  0  0
    3.1760    2.4031    0.0000 H   0  0  0  0  0  0  0  0  0  0  0  0
   10.6603   -4.9400    0.0000 H   0  0  0  0  0  0  0  0  0  0  0  0
    4.2690    4.7500    0.0000 H   0  0  0  0  0  0  0  0  0  0  0  0
   11.5263   -6.6800    0.0000 H   0  0  0  0  0  0  0  0  0  0  0  0
    2.3291    4.6300    0.0000 H   0  0  0  0  0  0  0  0  0  0  0  0
   14.4344   -6.0969    0.0000 H   0  0  0  0  0  0  0  0  0  0  0  0
   14.6613   -5.2500    0.0000 H   0  0  0  0  0  0  0  0  0  0  0  0
   13.8144   -5.0231    0.0000 H   0  0  0  0  0  0  0  0  0  0  0  0
    2.0000    7.0600    0.0000 H   0  0  0  0  0  0  0  0  0  0  0  0
  1 27  1  0  0  0  0
  1 29  1  0  0  0  0
  2 27  2  0  0  0  0
  3 28  1  0  0  0  0
  3 59  1  0  0  0  0
  4 28  2  0  0  0  0
  5  7  2  0  0  0  0
  5  8  1  0  0  0  0
  5 14  1  0  0  0  0
  6  9  2  0  0  0  0
  6 10  1  0  0  0  0
  6 16  1  0  0  0  0
  7 12  1  0  0  0  0
  7 30  1  0  0  0  0
  8 15  2  0  0  0  0
  8 31  1  0  0  0  0
  9 13  1  0  0  0  0
  9 32  1  0  0  0  0
 10 19  2  0  0  0  0
 10 33  1  0  0  0  0
 11 17  2  0  0  0  0
 11 21  1  0  0  0  0
 11 23  1  0  0  0  0
 12 13  2  0  0  0  0
 12 34  1  0  0  0  0
 13 35  1  0  0  0  0
 14 36  1  0  0  0  0
 14 37  1  0  0  0  0
 14 38  1  0  0  0  0
 15 17  1  0  0  0  0
 15 39  1  0  0  0  0
 16 40  1  0  0  0  0
 16 41  1  0  0  0  0
 16 42  1  0  0  0  0
 17 43  1  0  0  0  0
 18 20  2  0  0  0  0
 18 22  1  0  0  0  0
 18 24  1  0  0  0  0
 19 20  1  0  0  0  0
 19 44  1  0  0  0  0
 20 45  1  0  0  0  0
 21 46  1  0  0  0  0
 21 47  1  0  0  0  0
 21 48  1  0  0  0  0
 22 49  1  0  0  0  0
 22 50  1  0  0  0  0
 22 51  1  0  0  0  0
 23 25  2  0  0  0  0
 23 52  1  0  0  0  0
 24 26  2  0  0  0  0
 24 53  1  0  0  0  0
 25 27  1  0  0  0  0
 25 54  1  0  0  0  0
 26 28  1  0  0  0  0
 26 55  1  0  0  0  0
 29 56  1  0  0  0  0
 29 57  1  0  0  0  0
 29 58  1  0  0  0  0
M  END
>  <PUBCHEM_COMPOUND_CID>
5281226

>  <PUBCHEM_COMPOUND_CANONICALIZED>
1

>  <PUBCHEM_CACTVS_COMPLEXITY>
823

>  <PUBCHEM_CACTVS_HBOND_ACCEPTOR>
4

>  <PUBCHEM_CACTVS_HBOND_DONOR>
1

>  <PUBCHEM_CACTVS_ROTATABLE_BOND>
11

>  <PUBCHEM_CACTVS_SUBSKEYS>
AAADceB4OAAAAAAAAAAAAAAAAAAAAAAAAAAAAAAAAAAAAAAAAAAAGgAACAAADACAgAICCAAABgCIAiDSCAAAAAAgAAAICAAAAEgIBAAAIQAAEAAAAAAIsYIAAAAAAAAAAAAAAAAAAAAAAAAAAAAAAAAAAA==

>  <PUBCHEM_IUPAC_OPENEYE_NAME>
(2E,4E,6E,8E,10E,12E,14E,16Z,18E)-20-methoxy-4,8,13,17-tetramethyl-20-oxo-icosa-2,4,6,8,10,12,14,16,18-nonaenoic acid

>  <PUBCHEM_IUPAC_CAS_NAME>
(2E,4E,6E,8E,10E,12E,14E,16Z,18E)-20-methoxy-4,8,13,17-tetramethyl-20-oxoeicosa-2,4,6,8,10,12,14,16,18-nonaenoic acid

>  <PUBCHEM_IUPAC_NAME>
(2E,4E,6E,8E,10E,12E,14E,16Z,18E)-20-methoxy-4,8,13,17-tetramethyl-20-oxoicosa-2,4,6,8,10,12,14,16,18-nonaenoic acid

>  <PUBCHEM_IUPAC_SYSTEMATIC_NAME>
(2E,4E,6E,8E,10E,12E,14E,16Z,18E)-20-methoxy-4,8,13,17-tetramethyl-20-oxidanylidene-icosa-2,4,6,8,10,12,14,16,18-nonaenoic acid

>  <PUBCHEM_IUPAC_TRADITIONAL_NAME>
(2E,4E,6E,8E,10E,12E,14E,16Z,18E)-20-keto-20-methoxy-4,8,13,17-tetramethyl-eicosa-2,4,6,8,10,12,14,16,18-nonaenoic acid

>  <PUBCHEM_IUPAC_INCHI>
InChI=1S/C25H30O4/c1-20(12-8-14-22(3)16-18-24(26)27)10-6-7-11-21(2)13-9-15-23(4)17-19-25(28)29-5/h6-19H,1-5H3,(H,26,27)/b7-6+,12-8+,13-9+,18-16+,19-17+,20-10+,21-11+,22-14+,23-15-

>  <PUBCHEM_IUPAC_INCHIKEY>
RAFGELQLHMBRHD-SLEZCNMESA-N

>  <PUBCHEM_XLOGP3_AA>
7.5

>  <PUBCHEM_EXACT_MASS>
394.214

>  <PUBCHEM_MOLECULAR_FORMULA>
C25H30O4

>  <PUBCHEM_MOLECULAR_WEIGHT>
394.511

>  <PUBCHEM_OPENEYE_CAN_SMILES>
CC(=CC=CC=C(C)C=CC=C(C)C=CC(=O)OC)C=CC=C(C)C=CC(=O)O

>  <PUBCHEM_OPENEYE_ISO_SMILES>
C/C(=C\C=C\C=C(/C)\C=C\C=C(\C)/C=C/C(=O)OC)/C=C/C=C(\C)/C=C/C(=O)O

>  <PUBCHEM_CACTVS_TPSA>
63.6

>  <PUBCHEM_MONOISOTOPIC_WEIGHT>
394.214

>  <PUBCHEM_TOTAL_CHARGE>
0

>  <PUBCHEM_HEAVY_ATOM_COUNT>
29

>  <PUBCHEM_ATOM_DEF_STEREO_COUNT>
0

>  <PUBCHEM_ATOM_UDEF_STEREO_COUNT>
0

>  <PUBCHEM_BOND_DEF_STEREO_COUNT>
9

>  <PUBCHEM_BOND_UDEF_STEREO_COUNT>
0

>  <PUBCHEM_ISOTOPIC_ATOM_COUNT>
0

>  <PUBCHEM_COMPONENT_COUNT>
1

>  <PUBCHEM_CACTVS_TAUTO_COUNT>
1

>  <PUBCHEM_COORDINATE_TYPE>
1
5
255

$$$$
