5282773
 OpenBabel06101807152D

 72 71  0  0  0  0  0  0  0  0999 V2000
    2.5369    0.4400    0.0000 O   0  0  0  0  0  0  0  0  0  0  0  0
    3.4030   -1.0600    0.0000 O   0  0  0  0  0  0  0  0  0  0  0  0
    9.4651    0.4400    0.0000 C   0  0  0  0  0  0  0  0  0  0  0  0
   10.3312   -0.0600    0.0000 C   0  0  0  0  0  0  0  0  0  0  0  0
    8.5991   -0.0600    0.0000 C   0  0  0  0  0  0  0  0  0  0  0  0
   11.1972    0.4400    0.0000 C   0  0  0  0  0  0  0  0  0  0  0  0
    7.7331    0.4400    0.0000 C   0  0  0  0  0  0  0  0  0  0  0  0
   12.0632   -0.0600    0.0000 C   0  0  0  0  0  0  0  0  0  0  0  0
   12.9292    0.4400    0.0000 C   0  0  0  0  0  0  0  0  0  0  0  0
    6.8671   -0.0600    0.0000 C   0  0  0  0  0  0  0  0  0  0  0  0
   13.7953   -0.0600    0.0000 C   0  0  0  0  0  0  0  0  0  0  0  0
    6.0010    0.4400    0.0000 C   0  0  0  0  0  0  0  0  0  0  0  0
   14.6613    0.4400    0.0000 C   0  0  0  0  0  0  0  0  0  0  0  0
   18.9914   -0.0600    0.0000 C   0  0  0  0  0  0  0  0  0  0  0  0
   19.8574    0.4400    0.0000 C   0  0  0  0  0  0  0  0  0  0  0  0
    5.1350   -0.0600    0.0000 C   0  0  0  0  0  0  0  0  0  0  0  0
   18.1254    0.4400    0.0000 C   0  0  0  0  0  0  0  0  0  0  0  0
   20.7235   -0.0600    0.0000 C   0  0  0  0  0  0  0  0  0  0  0  0
   17.2594   -0.0600    0.0000 C   0  0  0  0  0  0  0  0  0  0  0  0
   21.5895    0.4400    0.0000 C   0  0  0  0  0  0  0  0  0  0  0  0
   15.5273   -0.0600    0.0000 C   0  0  0  0  0  0  0  0  0  0  0  0
    4.2690    0.4400    0.0000 C   0  0  0  0  0  0  0  0  0  0  0  0
   16.3933    0.4400    0.0000 C   0  0  0  0  0  0  0  0  0  0  0  0
   22.4555   -0.0600    0.0000 C   0  0  0  0  0  0  0  0  0  0  0  0
   23.3215    0.4400    0.0000 C   0  0  0  0  0  0  0  0  0  0  0  0
    3.4030   -0.0600    0.0000 C   0  0  0  0  0  0  0  0  0  0  0  0
    9.8637    0.9149    0.0000 H   0  0  0  0  0  0  0  0  0  0  0  0
    9.0666    0.9149    0.0000 H   0  0  0  0  0  0  0  0  0  0  0  0
    9.9326   -0.5349    0.0000 H   0  0  0  0  0  0  0  0  0  0  0  0
   10.7297   -0.5349    0.0000 H   0  0  0  0  0  0  0  0  0  0  0  0
    8.2006   -0.5349    0.0000 H   0  0  0  0  0  0  0  0  0  0  0  0
    8.9976   -0.5349    0.0000 H   0  0  0  0  0  0  0  0  0  0  0  0
   11.5957    0.9149    0.0000 H   0  0  0  0  0  0  0  0  0  0  0  0
   10.7987    0.9149    0.0000 H   0  0  0  0  0  0  0  0  0  0  0  0
    8.1316    0.9149    0.0000 H   0  0  0  0  0  0  0  0  0  0  0  0
    7.3346    0.9149    0.0000 H   0  0  0  0  0  0  0  0  0  0  0  0
   11.6647   -0.5349    0.0000 H   0  0  0  0  0  0  0  0  0  0  0  0
   12.4617   -0.5349    0.0000 H   0  0  0  0  0  0  0  0  0  0  0  0
   13.3278    0.9149    0.0000 H   0  0  0  0  0  0  0  0  0  0  0  0
   12.5307    0.9149    0.0000 H   0  0  0  0  0  0  0  0  0  0  0  0
    6.4685   -0.5349    0.0000 H   0  0  0  0  0  0  0  0  0  0  0  0
    7.2656   -0.5349    0.0000 H   0  0  0  0  0  0  0  0  0  0  0  0
   13.3967   -0.5349    0.0000 H   0  0  0  0  0  0  0  0  0  0  0  0
   14.1938   -0.5349    0.0000 H   0  0  0  0  0  0  0  0  0  0  0  0
    6.3996    0.9149    0.0000 H   0  0  0  0  0  0  0  0  0  0  0  0
    5.6025    0.9149    0.0000 H   0  0  0  0  0  0  0  0  0  0  0  0
   18.5929   -0.5349    0.0000 H   0  0  0  0  0  0  0  0  0  0  0  0
   19.3899   -0.5349    0.0000 H   0  0  0  0  0  0  0  0  0  0  0  0
   20.2560    0.9149    0.0000 H   0  0  0  0  0  0  0  0  0  0  0  0
   19.4589    0.9149    0.0000 H   0  0  0  0  0  0  0  0  0  0  0  0
   15.0598    0.9149    0.0000 H   0  0  0  0  0  0  0  0  0  0  0  0
   14.2628    0.9149    0.0000 H   0  0  0  0  0  0  0  0  0  0  0  0
    4.7365   -0.5349    0.0000 H   0  0  0  0  0  0  0  0  0  0  0  0
    5.5335   -0.5349    0.0000 H   0  0  0  0  0  0  0  0  0  0  0  0
   18.5239    0.9149    0.0000 H   0  0  0  0  0  0  0  0  0  0  0  0
   17.7269    0.9149    0.0000 H   0  0  0  0  0  0  0  0  0  0  0  0
   20.3249   -0.5349    0.0000 H   0  0  0  0  0  0  0  0  0  0  0  0
   21.1220   -0.5349    0.0000 H   0  0  0  0  0  0  0  0  0  0  0  0
   16.8608   -0.5349    0.0000 H   0  0  0  0  0  0  0  0  0  0  0  0
   17.6579   -0.5349    0.0000 H   0  0  0  0  0  0  0  0  0  0  0  0
   21.9880    0.9149    0.0000 H   0  0  0  0  0  0  0  0  0  0  0  0
   21.1910    0.9149    0.0000 H   0  0  0  0  0  0  0  0  0  0  0  0
   15.5273   -0.6800    0.0000 H   0  0  0  0  0  0  0  0  0  0  0  0
    4.6675    0.9149    0.0000 H   0  0  0  0  0  0  0  0  0  0  0  0
    3.8705    0.9149    0.0000 H   0  0  0  0  0  0  0  0  0  0  0  0
   16.3933    1.0600    0.0000 H   0  0  0  0  0  0  0  0  0  0  0  0
   22.0570   -0.5349    0.0000 H   0  0  0  0  0  0  0  0  0  0  0  0
   22.8540   -0.5349    0.0000 H   0  0  0  0  0  0  0  0  0  0  0  0
   23.6315   -0.0969    0.0000 H   0  0  0  0  0  0  0  0  0  0  0  0
   23.8585    0.7500    0.0000 H   0  0  0  0  0  0  0  0  0  0  0  0
   23.0115    0.9769    0.0000 H   0  0  0  0  0  0  0  0  0  0  0  0
    2.0000    0.1300    0.0000 H   0  0  0  0  0  0  0  0  0  0  0  0
  1 26  1  0  0  0  0
  1 72  1  0  0  0  0
  2 26  2  0  0  0  0
  3  4  1  0  0  0  0
  3  5  1  0  0  0  0
  3 27  1  0  0  0  0
  3 28  1  0  0  0  0
  4  6  1  0  0  0  0
  4 29  1  0  0  0  0
  4 30  1  0  0  0  0
  5  7  1  0  0  0  0
  5 31  1  0  0  0  0
  5 32  1  0  0  0  0
  6  8  1  0  0  0  0
  6 33  1  0  0  0  0
  6 34  1  0  0  0  0
  7 10  1  0  0  0  0
  7 35  1  0  0  0  0
  7 36  1  0  0  0  0
  8  9  1  0  0  0  0
  8 37  1  0  0  0  0
  8 38  1  0  0  0  0
  9 11  1  0  0  0  0
  9 39  1  0  0  0  0
  9 40  1  0  0  0  0
 10 12  1  0  0  0  0
 10 41  1  0  0  0  0
 10 42  1  0  0  0  0
 11 13  1  0  0  0  0
 11 43  1  0  0  0  0
 11 44  1  0  0  0  0
 12 16  1  0  0  0  0
 12 45  1  0  0  0  0
 12 46  1  0  0  0  0
 13 21  1  0  0  0  0
 13 51  1  0  0  0  0
 13 52  1  0  0  0  0
 14 15  1  0  0  0  0
 14 17  1  0  0  0  0
 14 47  1  0  0  0  0
 14 48  1  0  0  0  0
 15 18  1  0  0  0  0
 15 49  1  0  0  0  0
 15 50  1  0  0  0  0
 16 22  1  0  0  0  0
 16 53  1  0  0  0  0
 16 54  1  0  0  0  0
 17 19  1  0  0  0  0
 17 55  1  0  0  0  0
 17 56  1  0  0  0  0
 18 20  1  0  0  0  0
 18 57  1  0  0  0  0
 18 58  1  0  0  0  0
 19 23  1  0  0  0  0
 19 59  1  0  0  0  0
 19 60  1  0  0  0  0
 20 24  1  0  0  0  0
 20 61  1  0  0  0  0
 20 62  1  0  0  0  0
 21 23  2  0  0  0  0
 21 63  1  0  0  0  0
 22 26  1  0  0  0  0
 22 64  1  0  0  0  0
 22 65  1  0  0  0  0
 23 66  1  0  0  0  0
 24 25  1  0  0  0  0
 24 67  1  0  0  0  0
 24 68  1  0  0  0  0
 25 69  1  0  0  0  0
 25 70  1  0  0  0  0
 25 71  1  0  0  0  0
M  END
>  <PUBCHEM_COMPOUND_CID>
5282773

>  <PUBCHEM_COMPOUND_CANONICALIZED>
1

>  <PUBCHEM_CACTVS_COMPLEXITY>
309

>  <PUBCHEM_CACTVS_HBOND_ACCEPTOR>
2

>  <PUBCHEM_CACTVS_HBOND_DONOR>
1

>  <PUBCHEM_CACTVS_ROTATABLE_BOND>
21

>  <PUBCHEM_CACTVS_SUBSKEYS>
AAADcfB4MAAAAAAAAAAAAAAAAAAAAAAAAAAAAAAAAAAAAAAAAAAAGgAACAAACACAgAACCAAAAgCIACDSCAAAAAAgAAAICAEAAAgAABIAAQAAQAAEgAAIAAOIyKCAAAAAAAAAAAAAAAAAAAAAAAAAAAAAAA==

>  <PUBCHEM_IUPAC_OPENEYE_NAME>
(E)-tetracos-15-enoic acid

>  <PUBCHEM_IUPAC_CAS_NAME>
(E)-15-tetracosenoic acid

>  <PUBCHEM_IUPAC_NAME>
(E)-tetracos-15-enoic acid

>  <PUBCHEM_IUPAC_SYSTEMATIC_NAME>
(E)-tetracos-15-enoic acid

>  <PUBCHEM_IUPAC_TRADITIONAL_NAME>
(E)-tetracos-15-enoic acid

>  <PUBCHEM_IUPAC_INCHI>
InChI=1S/C24H46O2/c1-2-3-4-5-6-7-8-9-10-11-12-13-14-15-16-17-18-19-20-21-22-23-24(25)26/h9-10H,2-8,11-23H2,1H3,(H,25,26)/b10-9+

>  <PUBCHEM_IUPAC_INCHIKEY>
GWHCXVQVJPWHRF-MDZDMXLPSA-N

>  <PUBCHEM_XLOGP3>
9.8

>  <PUBCHEM_EXACT_MASS>
366.35

>  <PUBCHEM_MOLECULAR_FORMULA>
C24H46O2

>  <PUBCHEM_MOLECULAR_WEIGHT>
366.63

>  <PUBCHEM_OPENEYE_CAN_SMILES>
CCCCCCCCC=CCCCCCCCCCCCCCC(=O)O

>  <PUBCHEM_OPENEYE_ISO_SMILES>
CCCCCCCC/C=C/CCCCCCCCCCCCCC(=O)O

>  <PUBCHEM_CACTVS_TPSA>
37.3

>  <PUBCHEM_MONOISOTOPIC_WEIGHT>
366.35

>  <PUBCHEM_TOTAL_CHARGE>
0

>  <PUBCHEM_HEAVY_ATOM_COUNT>
26

>  <PUBCHEM_ATOM_DEF_STEREO_COUNT>
0

>  <PUBCHEM_ATOM_UDEF_STEREO_COUNT>
0

>  <PUBCHEM_BOND_DEF_STEREO_COUNT>
1

>  <PUBCHEM_BOND_UDEF_STEREO_COUNT>
0

>  <PUBCHEM_ISOTOPIC_ATOM_COUNT>
0

>  <PUBCHEM_COMPONENT_COUNT>
1

>  <PUBCHEM_CACTVS_TAUTO_COUNT>
1

>  <PUBCHEM_COORDINATE_TYPE>
1
5
255

$$$$
