5282159
 OpenBabel06101807152D

 61 64  0  0  1  0  0  0  0  0999 V2000
    8.5991   -1.2857    0.0000 O   0  0  0  0  0  0  0  0  0  0  0  0
   10.3312   -1.2857    0.0000 O   0  0  0  0  0  0  0  0  0  0  0  0
    6.8671   -3.2857    0.0000 O   0  0  0  0  0  0  0  0  0  0  0  0
    8.5991   -4.2857    0.0000 O   0  0  0  0  0  0  0  0  0  0  0  0
   10.3312   -3.2857    0.0000 O   0  0  0  0  0  0  0  0  0  0  0  0
    6.0010   -1.7857    0.0000 O   0  0  0  0  0  0  0  0  0  0  0  0
   11.1972    1.2143    0.0000 O   0  0  0  0  0  0  0  0  0  0  0  0
    8.5991   -0.2857    0.0000 O   0  0  0  0  0  0  0  0  0  0  0  0
    5.1350   -0.2857    0.0000 O   0  0  0  0  0  0  0  0  0  0  0  0
    7.6950    1.2112    0.0000 O   0  0  0  0  0  0  0  0  0  0  0  0
    9.4530    4.2836    0.0000 O   0  0  0  0  0  0  0  0  0  0  0  0
   14.6613    0.2143    0.0000 O   0  0  0  0  0  0  0  0  0  0  0  0
   14.6613   -1.7857    0.0000 O   0  0  0  0  0  0  0  0  0  0  0  0
    2.5369   -1.7857    0.0000 O   0  0  0  0  0  0  0  0  0  0  0  0
    3.4030   -0.2857    0.0000 O   0  0  0  0  0  0  0  0  0  0  0  0
    7.7331   -2.7857    0.0000 C   0  0  1  0  0  0  0  0  0  0  0  0
    8.5991   -3.2857    0.0000 C   0  0  1  0  0  0  0  0  0  0  0  0
    7.7331   -1.7857    0.0000 C   0  0  1  0  0  0  0  0  0  0  0  0
    9.4651   -2.7857    0.0000 C   0  0  2  0  0  0  0  0  0  0  0  0
    9.4651   -1.7857    0.0000 C   0  0  1  0  0  0  0  0  0  0  0  0
    6.8671   -1.2857    0.0000 C   0  0  0  0  0  0  0  0  0  0  0  0
   10.3312   -0.2857    0.0000 C   0  0  0  0  0  0  0  0  0  0  0  0
   11.1972    0.2143    0.0000 C   0  0  0  0  0  0  0  0  0  0  0  0
    9.4651    0.2143    0.0000 C   0  0  0  0  0  0  0  0  0  0  0  0
    9.4651    1.2143    0.0000 C   0  0  0  0  0  0  0  0  0  0  0  0
    5.1350   -1.2857    0.0000 C   0  0  0  0  0  0  0  0  0  0  0  0
   10.3312    1.7143    0.0000 C   0  0  0  0  0  0  0  0  0  0  0  0
   12.0632   -0.2857    0.0000 C   0  0  0  0  0  0  0  0  0  0  0  0
    8.5551    1.7212    0.0000 C   0  0  0  0  0  0  0  0  0  0  0  0
    4.2690   -1.7857    0.0000 C   0  0  0  0  0  0  0  0  0  0  0  0
   10.3472    2.7558    0.0000 C   0  0  0  0  0  0  0  0  0  0  0  0
   12.9292    0.2143    0.0000 C   0  0  0  0  0  0  0  0  0  0  0  0
   12.0632   -1.2857    0.0000 C   0  0  0  0  0  0  0  0  0  0  0  0
    8.5471    2.7628    0.0000 C   0  0  0  0  0  0  0  0  0  0  0  0
    9.4492    3.2836    0.0000 C   0  0  0  0  0  0  0  0  0  0  0  0
   13.7953   -0.2857    0.0000 C   0  0  0  0  0  0  0  0  0  0  0  0
   12.9292   -1.7857    0.0000 C   0  0  0  0  0  0  0  0  0  0  0  0
   13.7953   -1.2857    0.0000 C   0  0  0  0  0  0  0  0  0  0  0  0
    3.4030   -1.2857    0.0000 C   0  0  0  0  0  0  0  0  0  0  0  0
    7.7331   -3.4057    0.0000 H   0  0  0  0  0  0  0  0  0  0  0  0
    9.1360   -3.5957    0.0000 H   0  0  0  0  0  0  0  0  0  0  0  0
    7.7331   -1.1657    0.0000 H   0  0  0  0  0  0  0  0  0  0  0  0
   10.0021   -2.4757    0.0000 H   0  0  0  0  0  0  0  0  0  0  0  0
    9.4651   -1.1657    0.0000 H   0  0  0  0  0  0  0  0  0  0  0  0
    7.2656   -0.8107    0.0000 H   0  0  0  0  0  0  0  0  0  0  0  0
    6.4685   -0.8107    0.0000 H   0  0  0  0  0  0  0  0  0  0  0  0
    6.8671   -3.9057    0.0000 H   0  0  0  0  0  0  0  0  0  0  0  0
    8.0622   -4.5957    0.0000 H   0  0  0  0  0  0  0  0  0  0  0  0
   10.3312   -3.9057    0.0000 H   0  0  0  0  0  0  0  0  0  0  0  0
    3.8705   -2.2606    0.0000 H   0  0  0  0  0  0  0  0  0  0  0  0
    4.6675   -2.2606    0.0000 H   0  0  0  0  0  0  0  0  0  0  0  0
   10.8877    3.0596    0.0000 H   0  0  0  0  0  0  0  0  0  0  0  0
   12.9292    0.8343    0.0000 H   0  0  0  0  0  0  0  0  0  0  0  0
   11.5263   -1.5957    0.0000 H   0  0  0  0  0  0  0  0  0  0  0  0
    8.0090    3.0707    0.0000 H   0  0  0  0  0  0  0  0  0  0  0  0
   12.9292   -2.4057    0.0000 H   0  0  0  0  0  0  0  0  0  0  0  0
    7.1545    1.5150    0.0000 H   0  0  0  0  0  0  0  0  0  0  0  0
    8.9173    4.5957    0.0000 H   0  0  0  0  0  0  0  0  0  0  0  0
   14.6613    0.8343    0.0000 H   0  0  0  0  0  0  0  0  0  0  0  0
   14.6613   -2.4057    0.0000 H   0  0  0  0  0  0  0  0  0  0  0  0
    2.0000   -1.4757    0.0000 H   0  0  0  0  0  0  0  0  0  0  0  0
  1 18  1  0  0  0  0
  1 20  1  0  0  0  0
  2 22  1  0  0  0  0
  3 47  1  0  0  0  0
  4 48  1  0  0  0  0
  5 49  1  0  0  0  0
  6 21  1  0  0  0  0
  6 26  1  0  0  0  0
  7 23  1  0  0  0  0
  7 27  1  0  0  0  0
  8 24  2  0  0  0  0
  9 26  2  0  0  0  0
 10 29  1  0  0  0  0
 10 57  1  0  0  0  0
 11 35  1  0  0  0  0
 11 58  1  0  0  0  0
 12 36  1  0  0  0  0
 12 59  1  0  0  0  0
 13 38  1  0  0  0  0
 13 60  1  0  0  0  0
 14 39  1  0  0  0  0
 14 61  1  0  0  0  0
 15 39  2  0  0  0  0
 16  3  1  0  0  0  0
 16 17  1  6  0  0  0
 16 40  1  0  0  0  0
 17  4  1  0  0  0  0
 17 19  1  1  0  0  0
 17 41  1  0  0  0  0
 18 16  1  6  0  0  0
 18 21  1  0  0  0  0
 18 42  1  0  0  0  0
 19  5  1  0  0  0  0
 19 20  1  6  0  0  0
 19 43  1  0  0  0  0
 20  2  1  0  0  0  0
 20 44  1  6  0  0  0
 21 45  1  0  0  0  0
 21 46  1  0  0  0  0
 22 23  2  0  0  0  0
 22 24  1  0  0  0  0
 23 28  1  0  0  0  0
 24 25  1  0  0  0  0
 25 27  1  0  0  0  0
 25 29  2  0  0  0  0
 26 30  1  0  0  0  0
 27 31  2  0  0  0  0
 28 32  2  0  0  0  0
 28 33  1  0  0  0  0
 29 34  1  0  0  0  0
 30 39  1  0  0  0  0
 30 50  1  0  0  0  0
 30 51  1  0  0  0  0
 31 35  1  0  0  0  0
 31 52  1  0  0  0  0
 32 36  1  0  0  0  0
 32 53  1  0  0  0  0
 33 37  2  0  0  0  0
 33 54  1  0  0  0  0
 34 35  2  0  0  0  0
 34 55  1  0  0  0  0
 36 38  2  0  0  0  0
 37 38  1  0  0  0  0
 37 56  1  0  0  0  0
M  END
>  <PUBCHEM_COMPOUND_CID>
5282159

>  <PUBCHEM_COMPOUND_CANONICALIZED>
1

>  <PUBCHEM_CACTVS_COMPLEXITY>
967

>  <PUBCHEM_CACTVS_HBOND_ACCEPTOR>
15

>  <PUBCHEM_CACTVS_HBOND_DONOR>
8

>  <PUBCHEM_CACTVS_ROTATABLE_BOND>
8

>  <PUBCHEM_CACTVS_SUBSKEYS>
AAADceB4PAAAAAAAAAAAAAAAAAAAAAAAAAA0YIEAAAAAAACBQAAAGgAACAAADBSwmAMwDoAABgCIAqDSCAICCAAkIAAIiAFGiMgdNzaONR6ieWGl4BUPuQfI7LzOIAABCAAIQABAAAIQABCAAAAAAAAAAA==

>  <PUBCHEM_IUPAC_OPENEYE_NAME>
3-[[(2R,3S,4S,5R,6S)-6-[2-(3,4-dihydroxyphenyl)-5,7-dihydroxy-4-oxo-chromen-3-yl]oxy-3,4,5-trihydroxy-tetrahydropyran-2-yl]methoxy]-3-oxo-propanoic acid

>  <PUBCHEM_IUPAC_CAS_NAME>
3-[[(2R,3S,4S,5R,6S)-6-[[2-(3,4-dihydroxyphenyl)-5,7-dihydroxy-4-oxo-1-benzopyran-3-yl]oxy]-3,4,5-trihydroxy-2-oxanyl]methoxy]-3-oxopropanoic acid

>  <PUBCHEM_IUPAC_NAME>
3-[[(2R,3S,4S,5R,6S)-6-[2-(3,4-dihydroxyphenyl)-5,7-dihydroxy-4-oxochromen-3-yl]oxy-3,4,5-trihydroxyoxan-2-yl]methoxy]-3-oxopropanoic acid

>  <PUBCHEM_IUPAC_SYSTEMATIC_NAME>
3-[[(2R,3S,4S,5R,6S)-6-[2-[3,4-bis(oxidanyl)phenyl]-5,7-bis(oxidanyl)-4-oxidanylidene-chromen-3-yl]oxy-3,4,5-tris(oxidanyl)oxan-2-yl]methoxy]-3-oxidanylidene-propanoic acid

>  <PUBCHEM_IUPAC_TRADITIONAL_NAME>
3-[[(2R,3S,4S,5R,6S)-6-[2-(3,4-dihydroxyphenyl)-5,7-dihydroxy-4-keto-chromen-3-yl]oxy-3,4,5-trihydroxy-tetrahydropyran-2-yl]methoxy]-3-keto-propionic acid

>  <PUBCHEM_IUPAC_INCHI>
InChI=1S/C24H22O15/c25-9-4-12(28)17-13(5-9)37-22(8-1-2-10(26)11(27)3-8)23(19(17)33)39-24-21(35)20(34)18(32)14(38-24)7-36-16(31)6-15(29)30/h1-5,14,18,20-21,24-28,32,34-35H,6-7H2,(H,29,30)/t14-,18-,20+,21-,24+/m1/s1

>  <PUBCHEM_IUPAC_INCHIKEY>
NBQPHANHNTWDML-UJKBSQBPSA-N

>  <PUBCHEM_XLOGP3_AA>
0.1

>  <PUBCHEM_EXACT_MASS>
550.096

>  <PUBCHEM_MOLECULAR_FORMULA>
C24H22O15

>  <PUBCHEM_MOLECULAR_WEIGHT>
550.425

>  <PUBCHEM_OPENEYE_CAN_SMILES>
C1=CC(=C(C=C1C2=C(C(=O)C3=C(C=C(C=C3O2)O)O)OC4C(C(C(C(O4)COC(=O)CC(=O)O)O)O)O)O)O

>  <PUBCHEM_OPENEYE_ISO_SMILES>
C1=CC(=C(C=C1C2=C(C(=O)C3=C(C=C(C=C3O2)O)O)O[C@H]4[C@@H]([C@H]([C@@H]([C@H](O4)COC(=O)CC(=O)O)O)O)O)O)O

>  <PUBCHEM_CACTVS_TPSA>
250

>  <PUBCHEM_MONOISOTOPIC_WEIGHT>
550.096

>  <PUBCHEM_TOTAL_CHARGE>
0

>  <PUBCHEM_HEAVY_ATOM_COUNT>
39

>  <PUBCHEM_ATOM_DEF_STEREO_COUNT>
5

>  <PUBCHEM_ATOM_UDEF_STEREO_COUNT>
0

>  <PUBCHEM_BOND_DEF_STEREO_COUNT>
0

>  <PUBCHEM_BOND_UDEF_STEREO_COUNT>
0

>  <PUBCHEM_ISOTOPIC_ATOM_COUNT>
0

>  <PUBCHEM_COMPONENT_COUNT>
1

>  <PUBCHEM_CACTVS_TAUTO_COUNT>
162

>  <PUBCHEM_COORDINATE_TYPE>
1
5
255

>  <PUBCHEM_BONDANNOTATIONS>
18  21  5
20  2  5
22  23  8
22  24  8
24  25  8
25  27  8
25  29  8
27  31  8
28  32  8
28  33  8
29  34  8
16  3  6
31  35  8
32  36  8
33  37  8
34  35  8
36  38  8
37  38  8
17  4  5
19  5  6
7  23  8
7  27  8

$$$$
