5283018
 OpenBabel06101807152D

 53 53  0  0  1  0  0  0  0  0999 V2000
    9.4282   -0.9260    0.0000 O   0  0  0  0  0  0  0  0  0  0  0  0
   17.7224    0.4400    0.0000 O   0  0  0  0  0  0  0  0  0  0  0  0
   16.8564   -1.0600    0.0000 O   0  0  0  0  0  0  0  0  0  0  0  0
    9.9282   -0.0600    0.0000 C   0  0  3  0  0  0  0  0  0  0  0  0
    8.9282   -0.0600    0.0000 C   0  0  3  0  0  0  0  0  0  0  0  0
   10.7942    0.4400    0.0000 C   0  0  0  0  0  0  0  0  0  0  0  0
    8.0622    0.4400    0.0000 C   0  0  0  0  0  0  0  0  0  0  0  0
   11.6603   -0.0600    0.0000 C   0  0  0  0  0  0  0  0  0  0  0  0
   12.5263    0.4400    0.0000 C   0  0  0  0  0  0  0  0  0  0  0  0
   13.3923   -0.0600    0.0000 C   0  0  0  0  0  0  0  0  0  0  0  0
    7.1962   -0.0600    0.0000 C   0  0  0  0  0  0  0  0  0  0  0  0
   14.2583    0.4400    0.0000 C   0  0  0  0  0  0  0  0  0  0  0  0
    6.3301    0.4400    0.0000 C   0  0  0  0  0  0  0  0  0  0  0  0
   15.1244   -0.0600    0.0000 C   0  0  0  0  0  0  0  0  0  0  0  0
    5.4641   -0.0600    0.0000 C   0  0  0  0  0  0  0  0  0  0  0  0
    4.5981    0.4400    0.0000 C   0  0  0  0  0  0  0  0  0  0  0  0
   15.9904    0.4400    0.0000 C   0  0  0  0  0  0  0  0  0  0  0  0
    3.7320   -0.0600    0.0000 C   0  0  0  0  0  0  0  0  0  0  0  0
    2.8660    0.4400    0.0000 C   0  0  0  0  0  0  0  0  0  0  0  0
   16.8564   -0.0600    0.0000 C   0  0  0  0  0  0  0  0  0  0  0  0
    2.0000   -0.0600    0.0000 C   0  0  0  0  0  0  0  0  0  0  0  0
   10.5292   -0.6610    0.0000 H   0  0  0  0  0  0  0  0  0  0  0  0
    8.3272   -0.6610    0.0000 H   0  0  0  0  0  0  0  0  0  0  0  0
   11.1928    0.9149    0.0000 H   0  0  0  0  0  0  0  0  0  0  0  0
   10.3957    0.9149    0.0000 H   0  0  0  0  0  0  0  0  0  0  0  0
    8.4607    0.9149    0.0000 H   0  0  0  0  0  0  0  0  0  0  0  0
    7.6636    0.9149    0.0000 H   0  0  0  0  0  0  0  0  0  0  0  0
   11.2617   -0.5349    0.0000 H   0  0  0  0  0  0  0  0  0  0  0  0
   12.0588   -0.5349    0.0000 H   0  0  0  0  0  0  0  0  0  0  0  0
   12.9248    0.9149    0.0000 H   0  0  0  0  0  0  0  0  0  0  0  0
   12.1278    0.9149    0.0000 H   0  0  0  0  0  0  0  0  0  0  0  0
   12.9938   -0.5349    0.0000 H   0  0  0  0  0  0  0  0  0  0  0  0
   13.7908   -0.5349    0.0000 H   0  0  0  0  0  0  0  0  0  0  0  0
    7.1962   -0.6800    0.0000 H   0  0  0  0  0  0  0  0  0  0  0  0
   14.6569    0.9149    0.0000 H   0  0  0  0  0  0  0  0  0  0  0  0
   13.8598    0.9149    0.0000 H   0  0  0  0  0  0  0  0  0  0  0  0
    6.3301    1.0600    0.0000 H   0  0  0  0  0  0  0  0  0  0  0  0
   14.7258   -0.5349    0.0000 H   0  0  0  0  0  0  0  0  0  0  0  0
   15.5229   -0.5349    0.0000 H   0  0  0  0  0  0  0  0  0  0  0  0
    5.0656   -0.5349    0.0000 H   0  0  0  0  0  0  0  0  0  0  0  0
    5.8626   -0.5349    0.0000 H   0  0  0  0  0  0  0  0  0  0  0  0
    4.9966    0.9149    0.0000 H   0  0  0  0  0  0  0  0  0  0  0  0
    4.1996    0.9149    0.0000 H   0  0  0  0  0  0  0  0  0  0  0  0
   16.3889    0.9149    0.0000 H   0  0  0  0  0  0  0  0  0  0  0  0
   15.5919    0.9149    0.0000 H   0  0  0  0  0  0  0  0  0  0  0  0
    3.3335   -0.5349    0.0000 H   0  0  0  0  0  0  0  0  0  0  0  0
    4.1306   -0.5349    0.0000 H   0  0  0  0  0  0  0  0  0  0  0  0
    3.2646    0.9149    0.0000 H   0  0  0  0  0  0  0  0  0  0  0  0
    2.4675    0.9149    0.0000 H   0  0  0  0  0  0  0  0  0  0  0  0
    1.6900    0.4769    0.0000 H   0  0  0  0  0  0  0  0  0  0  0  0
    1.4631   -0.3700    0.0000 H   0  0  0  0  0  0  0  0  0  0  0  0
    2.3100   -0.5969    0.0000 H   0  0  0  0  0  0  0  0  0  0  0  0
   18.2594    0.1300    0.0000 H   0  0  0  0  0  0  0  0  0  0  0  0
  1  4  1  0  0  0  0
  1  5  1  0  0  0  0
  2 20  1  0  0  0  0
  2 53  1  0  0  0  0
  3 20  2  0  0  0  0
  4  5  1  0  0  0  0
  4  6  1  0  0  0  0
  4 22  1  0  0  0  0
  5  7  1  0  0  0  0
  5 23  1  0  0  0  0
  6  8  1  0  0  0  0
  6 24  1  0  0  0  0
  6 25  1  0  0  0  0
  7 11  1  0  0  0  0
  7 26  1  0  0  0  0
  7 27  1  0  0  0  0
  8  9  1  0  0  0  0
  8 28  1  0  0  0  0
  8 29  1  0  0  0  0
  9 10  1  0  0  0  0
  9 30  1  0  0  0  0
  9 31  1  0  0  0  0
 10 12  1  0  0  0  0
 10 32  1  0  0  0  0
 10 33  1  0  0  0  0
 11 13  2  0  0  0  0
 11 34  1  0  0  0  0
 12 14  1  0  0  0  0
 12 35  1  0  0  0  0
 12 36  1  0  0  0  0
 13 15  1  0  0  0  0
 13 37  1  0  0  0  0
 14 17  1  0  0  0  0
 14 38  1  0  0  0  0
 14 39  1  0  0  0  0
 15 16  1  0  0  0  0
 15 40  1  0  0  0  0
 15 41  1  0  0  0  0
 16 18  1  0  0  0  0
 16 42  1  0  0  0  0
 16 43  1  0  0  0  0
 17 20  1  0  0  0  0
 17 44  1  0  0  0  0
 17 45  1  0  0  0  0
 18 19  1  0  0  0  0
 18 46  1  0  0  0  0
 18 47  1  0  0  0  0
 19 21  1  0  0  0  0
 19 48  1  0  0  0  0
 19 49  1  0  0  0  0
 21 50  1  0  0  0  0
 21 51  1  0  0  0  0
 21 52  1  0  0  0  0
M  END
>  <PUBCHEM_COMPOUND_CID>
5283018

>  <PUBCHEM_COMPOUND_CANONICALIZED>
1

>  <PUBCHEM_CACTVS_COMPLEXITY>
299

>  <PUBCHEM_CACTVS_HBOND_ACCEPTOR>
3

>  <PUBCHEM_CACTVS_HBOND_DONOR>
1

>  <PUBCHEM_CACTVS_ROTATABLE_BOND>
14

>  <PUBCHEM_CACTVS_SUBSKEYS>
AAADcfB4MAAAAAAAAAAAAAAAEgAAAAAAAAAAAAAAAAAAAAAAAAAAGgAACAAACBSggAICCAAABgCIACDSCAAAAAAgAAAICAEAAAgAABIAAQACQAAEwAAIAAOIyKCAAAAAAAAAAAAAAAAAAAAAAAAAAAAAAA==

>  <PUBCHEM_IUPAC_OPENEYE_NAME>
8-[3-[(E)-oct-2-enyl]oxiran-2-yl]octanoic acid

>  <PUBCHEM_IUPAC_CAS_NAME>
8-[3-[(E)-oct-2-enyl]-2-oxiranyl]octanoic acid

>  <PUBCHEM_IUPAC_NAME>
8-[3-[(E)-oct-2-enyl]oxiran-2-yl]octanoic acid

>  <PUBCHEM_IUPAC_SYSTEMATIC_NAME>
8-[3-[(E)-oct-2-enyl]oxiran-2-yl]octanoic acid

>  <PUBCHEM_IUPAC_TRADITIONAL_NAME>
8-[3-[(E)-oct-2-enyl]oxiran-2-yl]caprylic acid

>  <PUBCHEM_IUPAC_INCHI>
InChI=1S/C18H32O3/c1-2-3-4-5-7-10-13-16-17(21-16)14-11-8-6-9-12-15-18(19)20/h7,10,16-17H,2-6,8-9,11-15H2,1H3,(H,19,20)/b10-7+

>  <PUBCHEM_IUPAC_INCHIKEY>
FBUKMFOXMZRGRB-JXMROGBWSA-N

>  <PUBCHEM_XLOGP3_AA>
5.6

>  <PUBCHEM_EXACT_MASS>
296.235

>  <PUBCHEM_MOLECULAR_FORMULA>
C18H32O3

>  <PUBCHEM_MOLECULAR_WEIGHT>
296.451

>  <PUBCHEM_OPENEYE_CAN_SMILES>
CCCCCC=CCC1C(O1)CCCCCCCC(=O)O

>  <PUBCHEM_OPENEYE_ISO_SMILES>
CCCCC/C=C/CC1C(O1)CCCCCCCC(=O)O

>  <PUBCHEM_CACTVS_TPSA>
49.8

>  <PUBCHEM_MONOISOTOPIC_WEIGHT>
296.235

>  <PUBCHEM_TOTAL_CHARGE>
0

>  <PUBCHEM_HEAVY_ATOM_COUNT>
21

>  <PUBCHEM_ATOM_DEF_STEREO_COUNT>
0

>  <PUBCHEM_ATOM_UDEF_STEREO_COUNT>
2

>  <PUBCHEM_BOND_DEF_STEREO_COUNT>
1

>  <PUBCHEM_BOND_UDEF_STEREO_COUNT>
0

>  <PUBCHEM_ISOTOPIC_ATOM_COUNT>
0

>  <PUBCHEM_COMPONENT_COUNT>
1

>  <PUBCHEM_CACTVS_TAUTO_COUNT>
1

>  <PUBCHEM_COORDINATE_TYPE>
1
5
255

>  <PUBCHEM_BONDANNOTATIONS>
4  22  3
5  23  3

$$$$
