528713
 OpenBabel06101807152D

 17 16  0  0  0  0  0  0  0  0999 V2000
    6.3301    0.2500    0.0000 S   0  0  0  0  0  0  0  0  0  0  0  0
    5.4641   -0.2500    0.0000 S   0  0  0  0  0  0  0  0  0  0  0  0
    2.8660    0.2500    0.0000 S   0  0  0  0  0  0  0  0  0  0  0  0
    4.5981    0.2500    0.0000 S   0  0  0  0  0  0  0  0  0  0  0  0
    3.7320   -0.2500    0.0000 S   0  0  0  0  0  0  0  0  0  0  0  0
    7.1962   -0.2500    0.0000 C   0  0  0  0  0  0  0  0  0  0  0  0
    8.0622    0.2500    0.0000 C   0  0  0  0  0  0  0  0  0  0  0  0
    8.9282   -0.2500    0.0000 C   0  0  0  0  0  0  0  0  0  0  0  0
    2.0000   -0.2500    0.0000 C   0  0  0  0  0  0  0  0  0  0  0  0
    6.7976   -0.7249    0.0000 H   0  0  0  0  0  0  0  0  0  0  0  0
    7.5947   -0.7249    0.0000 H   0  0  0  0  0  0  0  0  0  0  0  0
    8.0622    0.8700    0.0000 H   0  0  0  0  0  0  0  0  0  0  0  0
    8.9282   -0.8700    0.0000 H   0  0  0  0  0  0  0  0  0  0  0  0
    9.4651    0.0600    0.0000 H   0  0  0  0  0  0  0  0  0  0  0  0
    1.6900    0.2869    0.0000 H   0  0  0  0  0  0  0  0  0  0  0  0
    1.4631   -0.5600    0.0000 H   0  0  0  0  0  0  0  0  0  0  0  0
    2.3100   -0.7869    0.0000 H   0  0  0  0  0  0  0  0  0  0  0  0
  1  2  1  0  0  0  0
  1  6  1  0  0  0  0
  2  4  1  0  0  0  0
  3  5  1  0  0  0  0
  3  9  1  0  0  0  0
  4  5  1  0  0  0  0
  6  7  1  0  0  0  0
  6 10  1  0  0  0  0
  6 11  1  0  0  0  0
  7  8  2  0  0  0  0
  7 12  1  0  0  0  0
  8 13  1  0  0  0  0
  8 14  1  0  0  0  0
  9 15  1  0  0  0  0
  9 16  1  0  0  0  0
  9 17  1  0  0  0  0
M  END
>  <PUBCHEM_COMPOUND_CID>
528713

>  <PUBCHEM_COMPOUND_CANONICALIZED>
1

>  <PUBCHEM_CACTVS_COMPLEXITY>
64

>  <PUBCHEM_CACTVS_HBOND_ACCEPTOR>
5

>  <PUBCHEM_CACTVS_HBOND_DONOR>
0

>  <PUBCHEM_CACTVS_ROTATABLE_BOND>
6

>  <PUBCHEM_CACTVS_SUBSKEYS>
AAADccBgAABwAAAAAAAAAAAAAAAAAAAAAAAAAAAAAAAAAAAAAAAAGAQAAAAACACEQACCAAAAAACAACBCAAAAAAAAAAAIAAAAAAAAAAAAAQAAAAAAAAAAAAAAAAAAAAAAAAAAAAAAAAAAAAAAAAAAAAAAAA==

>  <PUBCHEM_IUPAC_OPENEYE_NAME>
3-(methylpentasulfanyl)prop-1-ene

>  <PUBCHEM_IUPAC_CAS_NAME>
3-(methylpentasulfanyl)-1-propene

>  <PUBCHEM_IUPAC_NAME>
3-(methylpentasulfanyl)prop-1-ene

>  <PUBCHEM_IUPAC_SYSTEMATIC_NAME>
3-(methylpentasulfanyl)prop-1-ene

>  <PUBCHEM_IUPAC_TRADITIONAL_NAME>
3-(methylpentasulfanyl)prop-1-ene

>  <PUBCHEM_IUPAC_INCHI>
InChI=1S/C4H8S5/c1-3-4-6-8-9-7-5-2/h3H,1,4H2,2H3

>  <PUBCHEM_IUPAC_INCHIKEY>
BFVOYECMMKLFQJ-UHFFFAOYSA-N

>  <PUBCHEM_XLOGP3_AA>
2.9

>  <PUBCHEM_EXACT_MASS>
215.923

>  <PUBCHEM_MOLECULAR_FORMULA>
C4H8S5

>  <PUBCHEM_MOLECULAR_WEIGHT>
216.408

>  <PUBCHEM_OPENEYE_CAN_SMILES>
CSSSSSCC=C

>  <PUBCHEM_OPENEYE_ISO_SMILES>
CSSSSSCC=C

>  <PUBCHEM_CACTVS_TPSA>
127

>  <PUBCHEM_MONOISOTOPIC_WEIGHT>
215.923

>  <PUBCHEM_TOTAL_CHARGE>
0

>  <PUBCHEM_HEAVY_ATOM_COUNT>
9

>  <PUBCHEM_ATOM_DEF_STEREO_COUNT>
0

>  <PUBCHEM_ATOM_UDEF_STEREO_COUNT>
0

>  <PUBCHEM_BOND_DEF_STEREO_COUNT>
0

>  <PUBCHEM_BOND_UDEF_STEREO_COUNT>
0

>  <PUBCHEM_ISOTOPIC_ATOM_COUNT>
0

>  <PUBCHEM_COMPONENT_COUNT>
1

>  <PUBCHEM_CACTVS_TAUTO_COUNT>
1

>  <PUBCHEM_COORDINATE_TYPE>
1
5
255

$$$$
