52916190
 OpenBabel06101807152D

 56 59  0  0  1  0  0  0  0  0999 V2000
    8.6179    1.0142    0.0000 O   0  0  0  0  0  0  0  0  0  0  0  0
    2.3052   -2.3476    0.0000 O   0  0  0  0  0  0  0  0  0  0  0  0
    6.5090    0.1434    0.0000 C   0  0  1  0  0  0  0  0  0  0  0  0
    5.6405    0.6391    0.0000 C   0  0  2  0  0  0  0  0  0  0  0  0
    4.7330    0.1277    0.0000 C   0  0  1  0  0  0  0  0  0  0  0  0
    4.7302   -0.9139    0.0000 C   0  0  2  0  0  0  0  0  0  0  0  0
    6.4845    1.3248    0.0000 C   0  0  0  0  0  0  0  0  0  0  0  0
    7.1606    2.2938    0.0000 C   0  0  2  0  0  0  0  0  0  0  0  0
    7.4380    0.5134    0.0000 C   0  0  0  0  0  0  0  0  0  0  0  0
    6.5302   -0.8980    0.0000 C   0  0  0  0  0  0  0  0  0  0  0  0
    7.7280    1.4704    0.0000 C   0  0  1  0  0  0  0  0  0  0  0  0
    5.4865    1.6272    0.0000 C   0  0  0  0  0  0  0  0  0  0  0  0
    5.6349   -1.4302    0.0000 C   0  0  0  0  0  0  0  0  0  0  0  0
    3.7975   -1.4683    0.0000 C   0  0  1  0  0  0  0  0  0  0  0  0
    6.1630    2.3636    0.0000 C   0  0  0  0  0  0  0  0  0  0  0  0
    3.8034    0.6872    0.0000 C   0  0  0  0  0  0  0  0  0  0  0  0
    4.3936    1.0683    0.0000 C   0  0  0  0  0  0  0  0  0  0  0  0
    2.8552   -0.9305    0.0000 C   0  0  0  0  0  0  0  0  0  0  0  0
    2.8582    0.1545    0.0000 C   0  0  0  0  0  0  0  0  0  0  0  0
    8.4369    2.1758    0.0000 C   0  0  0  0  0  0  0  0  0  0  0  0
    3.3052   -2.3387    0.0000 C   0  0  0  0  0  0  0  0  0  0  0  0
    4.3052   -2.3299    0.0000 C   0  0  0  0  0  0  0  0  0  0  0  0
    4.9023    1.0604    0.0000 H   0  0  0  0  0  0  0  0  0  0  0  0
    4.7377   -1.7639    0.0000 H   0  0  0  0  0  0  0  0  0  0  0  0
    6.1103    1.8191    0.0000 H   0  0  0  0  0  0  0  0  0  0  0  0
    5.8988    1.1213    0.0000 H   0  0  0  0  0  0  0  0  0  0  0  0
    7.4071    3.1073    0.0000 H   0  0  0  0  0  0  0  0  0  0  0  0
    7.5335   -0.0992    0.0000 H   0  0  0  0  0  0  0  0  0  0  0  0
    8.0565    0.4701    0.0000 H   0  0  0  0  0  0  0  0  0  0  0  0
    6.7512   -1.4773    0.0000 H   0  0  0  0  0  0  0  0  0  0  0  0
    7.1388   -0.7795    0.0000 H   0  0  0  0  0  0  0  0  0  0  0  0
    5.1347    2.1377    0.0000 H   0  0  0  0  0  0  0  0  0  0  0  0
    4.9105    1.3978    0.0000 H   0  0  0  0  0  0  0  0  0  0  0  0
    5.2399   -1.9082    0.0000 H   0  0  0  0  0  0  0  0  0  0  0  0
    6.0382   -1.9011    0.0000 H   0  0  0  0  0  0  0  0  0  0  0  0
    6.3428    2.9570    0.0000 H   0  0  0  0  0  0  0  0  0  0  0  0
    5.6246    2.6709    0.0000 H   0  0  0  0  0  0  0  0  0  0  0  0
    4.2093    1.1558    0.0000 H   0  0  0  0  0  0  0  0  0  0  0  0
    3.4111    1.1673    0.0000 H   0  0  0  0  0  0  0  0  0  0  0  0
    4.9768    1.2788    0.0000 H   0  0  0  0  0  0  0  0  0  0  0  0
    4.1831    1.6515    0.0000 H   0  0  0  0  0  0  0  0  0  0  0  0
    3.8104    0.8579    0.0000 H   0  0  0  0  0  0  0  0  0  0  0  0
    2.2446   -0.8227    0.0000 H   0  0  0  0  0  0  0  0  0  0  0  0
    2.6446   -1.5136    0.0000 H   0  0  0  0  0  0  0  0  0  0  0  0
    2.6507    0.7388    0.0000 H   0  0  0  0  0  0  0  0  0  0  0  0
    2.2470    0.0501    0.0000 H   0  0  0  0  0  0  0  0  0  0  0  0
    8.8742    1.7363    0.0000 H   0  0  0  0  0  0  0  0  0  0  0  0
    8.8764    2.6131    0.0000 H   0  0  0  0  0  0  0  0  0  0  0  0
    7.9996    2.6153    0.0000 H   0  0  0  0  0  0  0  0  0  0  0  0
    3.2029   -2.9502    0.0000 H   0  0  0  0  0  0  0  0  0  0  0  0
    3.8897   -2.5456    0.0000 H   0  0  0  0  0  0  0  0  0  0  0  0
    3.7710   -2.6446    0.0000 H   0  0  0  0  0  0  0  0  0  0  0  0
    4.6199   -2.8640    0.0000 H   0  0  0  0  0  0  0  0  0  0  0  0
    4.8393   -2.0151    0.0000 H   0  0  0  0  0  0  0  0  0  0  0  0
    9.1387    1.3506    0.0000 H   0  0  0  0  0  0  0  0  0  0  0  0
    2.0000   -2.8872    0.0000 H   0  0  0  0  0  0  0  0  0  0  0  0
  1 55  1  0  0  0  0
  2 21  1  0  0  0  0
  2 56  1  0  0  0  0
  3  4  1  1  0  0  0
  3  7  1  0  0  0  0
  3  9  1  0  0  0  0
  3 10  1  0  0  0  0
  4  5  1  6  0  0  0
  4 12  1  0  0  0  0
  4 23  1  0  0  0  0
  5  6  1  6  0  0  0
  5 16  1  0  0  0  0
  5 17  1  0  0  0  0
  6 13  1  0  0  0  0
  6 14  1  6  0  0  0
  6 24  1  0  0  0  0
  7  8  1  0  0  0  0
  7 25  1  0  0  0  0
  7 26  1  0  0  0  0
  8 11  1  1  0  0  0
  8 15  1  0  0  0  0
  8 27  1  0  0  0  0
  9 11  1  0  0  0  0
  9 28  1  0  0  0  0
  9 29  1  0  0  0  0
 10 13  1  0  0  0  0
 10 30  1  0  0  0  0
 10 31  1  0  0  0  0
 11  1  1  6  0  0  0
 11 20  1  0  0  0  0
 12 15  1  0  0  0  0
 12 32  1  0  0  0  0
 12 33  1  0  0  0  0
 13 34  1  0  0  0  0
 13 35  1  0  0  0  0
 14 18  1  0  0  0  0
 14 21  1  6  0  0  0
 14 22  1  0  0  0  0
 15 36  1  0  0  0  0
 15 37  1  0  0  0  0
 16 19  1  0  0  0  0
 16 38  1  0  0  0  0
 16 39  1  0  0  0  0
 17 40  1  0  0  0  0
 17 41  1  0  0  0  0
 17 42  1  0  0  0  0
 18 19  1  0  0  0  0
 18 43  1  0  0  0  0
 18 44  1  0  0  0  0
 19 45  1  0  0  0  0
 19 46  1  0  0  0  0
 20 47  1  0  0  0  0
 20 48  1  0  0  0  0
 20 49  1  0  0  0  0
 21 50  1  0  0  0  0
 21 51  1  0  0  0  0
 22 52  1  0  0  0  0
 22 53  1  0  0  0  0
 22 54  1  0  0  0  0
M  END
>  <PUBCHEM_COMPOUND_CID>
52916190

>  <PUBCHEM_COMPOUND_CANONICALIZED>
1

>  <PUBCHEM_CACTVS_COMPLEXITY>
476

>  <PUBCHEM_CACTVS_HBOND_ACCEPTOR>
2

>  <PUBCHEM_CACTVS_HBOND_DONOR>
2

>  <PUBCHEM_CACTVS_ROTATABLE_BOND>
1

>  <PUBCHEM_CACTVS_SUBSKEYS>
AAADcfB4MAAAAAAAAAAAAAAAAAAAAYAAAAAwYMAABgAAAADAAAAAGgAACAAAD0SggAICAAAAAgAAAAAAAAAAAAAAAAAAAAAAAAAAEAIAAAAAQAAEAAAAAAGAwPAPgAAAAAAAAACAAAQAACAAAYAADAAAAA==

>  <PUBCHEM_IUPAC_INCHI>
InChI=1S/C20H34O2/c1-17(13-21)8-4-9-18(2)15(17)7-10-20-11-14(5-6-16(18)20)19(3,22)12-20/h14-16,21-22H,4-13H2,1-3H3/t14-,15-,16+,17+,18-,19-,20+/m1/s1

>  <PUBCHEM_IUPAC_INCHIKEY>
XZESVXVYTBMYCR-WVMNWVHYSA-N

>  <PUBCHEM_XLOGP3_AA>
4.5

>  <PUBCHEM_EXACT_MASS>
306.256

>  <PUBCHEM_MOLECULAR_FORMULA>
C20H34O2

>  <PUBCHEM_MOLECULAR_WEIGHT>
306.49

>  <PUBCHEM_OPENEYE_CAN_SMILES>
CC1(CCCC2(C1CCC34C2CCC(C3)C(C4)(C)O)C)CO

>  <PUBCHEM_OPENEYE_ISO_SMILES>
C[C@]1(CCC[C@@]2([C@@H]1CC[C@]34[C@H]2CC[C@H](C3)[C@](C4)(C)O)C)CO

>  <PUBCHEM_CACTVS_TPSA>
40.5

>  <PUBCHEM_MONOISOTOPIC_WEIGHT>
306.256

>  <PUBCHEM_TOTAL_CHARGE>
0

>  <PUBCHEM_HEAVY_ATOM_COUNT>
22

>  <PUBCHEM_ATOM_DEF_STEREO_COUNT>
7

>  <PUBCHEM_ATOM_UDEF_STEREO_COUNT>
0

>  <PUBCHEM_BOND_DEF_STEREO_COUNT>
0

>  <PUBCHEM_BOND_UDEF_STEREO_COUNT>
0

>  <PUBCHEM_ISOTOPIC_ATOM_COUNT>
0

>  <PUBCHEM_COMPONENT_COUNT>
1

>  <PUBCHEM_CACTVS_TAUTO_COUNT>
1

>  <PUBCHEM_COORDINATE_TYPE>
1
5
255

>  <PUBCHEM_BONDANNOTATIONS>
11  1  6
14  22  5
3  10  6
4  23  5
5  17  6
6  24  5
8  27  6

$$$$
