529650
 OpenBabel06101807152D

 53 56  0  0  1  0  0  0  0  0999 V2000
    2.3052   -2.0858    0.0000 O   0  0  0  0  0  0  0  0  0  0  0  0
    6.5090    0.4052    0.0000 C   0  0  3  0  0  0  0  0  0  0  0  0
    5.6405    0.9009    0.0000 C   0  0  3  0  0  0  0  0  0  0  0  0
    4.7330    0.3895    0.0000 C   0  0  3  0  0  0  0  0  0  0  0  0
    4.7302   -0.6521    0.0000 C   0  0  3  0  0  0  0  0  0  0  0  0
    6.5302   -0.6362    0.0000 C   0  0  0  0  0  0  0  0  0  0  0  0
    6.4845    1.5866    0.0000 C   0  0  0  0  0  0  0  0  0  0  0  0
    5.6349   -1.1684    0.0000 C   0  0  0  0  0  0  0  0  0  0  0  0
    3.7975   -1.2065    0.0000 C   0  0  3  0  0  0  0  0  0  0  0  0
    7.1606    2.5556    0.0000 C   0  0  3  0  0  0  0  0  0  0  0  0
    5.4865    1.8890    0.0000 C   0  0  0  0  0  0  0  0  0  0  0  0
    7.4380    0.7752    0.0000 C   0  0  0  0  0  0  0  0  0  0  0  0
    3.8034    0.9490    0.0000 C   0  0  0  0  0  0  0  0  0  0  0  0
    6.1630    2.6254    0.0000 C   0  0  0  0  0  0  0  0  0  0  0  0
    7.7280    1.7322    0.0000 C   0  0  0  0  0  0  0  0  0  0  0  0
    4.7358    1.3895    0.0000 C   0  0  0  0  0  0  0  0  0  0  0  0
    2.8552   -0.6687    0.0000 C   0  0  0  0  0  0  0  0  0  0  0  0
    2.8582    0.4163    0.0000 C   0  0  0  0  0  0  0  0  0  0  0  0
    3.3052   -2.0769    0.0000 C   0  0  0  0  0  0  0  0  0  0  0  0
    4.3052   -2.0681    0.0000 C   0  0  0  0  0  0  0  0  0  0  0  0
    8.7161    1.8862    0.0000 C   0  0  0  0  0  0  0  0  0  0  0  0
    6.1510    1.2527    0.0000 H   0  0  0  0  0  0  0  0  0  0  0  0
    4.7357   -1.2721    0.0000 H   0  0  0  0  0  0  0  0  0  0  0  0
    6.7512   -1.2155    0.0000 H   0  0  0  0  0  0  0  0  0  0  0  0
    7.1388   -0.5177    0.0000 H   0  0  0  0  0  0  0  0  0  0  0  0
    6.1103    2.0809    0.0000 H   0  0  0  0  0  0  0  0  0  0  0  0
    5.8988    1.3831    0.0000 H   0  0  0  0  0  0  0  0  0  0  0  0
    5.2399   -1.6464    0.0000 H   0  0  0  0  0  0  0  0  0  0  0  0
    6.0382   -1.6393    0.0000 H   0  0  0  0  0  0  0  0  0  0  0  0
    7.4679    3.0941    0.0000 H   0  0  0  0  0  0  0  0  0  0  0  0
    5.1347    2.3995    0.0000 H   0  0  0  0  0  0  0  0  0  0  0  0
    4.9105    1.6596    0.0000 H   0  0  0  0  0  0  0  0  0  0  0  0
    7.5335    0.1626    0.0000 H   0  0  0  0  0  0  0  0  0  0  0  0
    8.0565    0.7319    0.0000 H   0  0  0  0  0  0  0  0  0  0  0  0
    4.2093    1.4176    0.0000 H   0  0  0  0  0  0  0  0  0  0  0  0
    3.4111    1.4291    0.0000 H   0  0  0  0  0  0  0  0  0  0  0  0
    6.3428    3.2188    0.0000 H   0  0  0  0  0  0  0  0  0  0  0  0
    5.6246    2.9327    0.0000 H   0  0  0  0  0  0  0  0  0  0  0  0
    5.3557    1.3878    0.0000 H   0  0  0  0  0  0  0  0  0  0  0  0
    4.7374    2.0095    0.0000 H   0  0  0  0  0  0  0  0  0  0  0  0
    4.1158    1.3912    0.0000 H   0  0  0  0  0  0  0  0  0  0  0  0
    2.2446   -0.5609    0.0000 H   0  0  0  0  0  0  0  0  0  0  0  0
    2.6446   -1.2518    0.0000 H   0  0  0  0  0  0  0  0  0  0  0  0
    2.6507    1.0006    0.0000 H   0  0  0  0  0  0  0  0  0  0  0  0
    2.2470    0.3119    0.0000 H   0  0  0  0  0  0  0  0  0  0  0  0
    3.2029   -2.6884    0.0000 H   0  0  0  0  0  0  0  0  0  0  0  0
    3.8897   -2.2838    0.0000 H   0  0  0  0  0  0  0  0  0  0  0  0
    3.7710   -2.3828    0.0000 H   0  0  0  0  0  0  0  0  0  0  0  0
    4.6199   -2.6022    0.0000 H   0  0  0  0  0  0  0  0  0  0  0  0
    4.8393   -1.7533    0.0000 H   0  0  0  0  0  0  0  0  0  0  0  0
    9.1051    1.4034    0.0000 H   0  0  0  0  0  0  0  0  0  0  0  0
    8.9397    2.4645    0.0000 H   0  0  0  0  0  0  0  0  0  0  0  0
    2.0000   -2.6254    0.0000 H   0  0  0  0  0  0  0  0  0  0  0  0
  1 19  1  0  0  0  0
  1 53  1  0  0  0  0
  2  3  1  0  0  0  0
  2  6  1  0  0  0  0
  2  7  1  0  0  0  0
  2 12  1  0  0  0  0
  3  4  1  0  0  0  0
  3 11  1  0  0  0  0
  3 22  1  0  0  0  0
  4  5  1  0  0  0  0
  4 13  1  0  0  0  0
  4 16  1  0  0  0  0
  5  8  1  0  0  0  0
  5  9  1  0  0  0  0
  5 23  1  0  0  0  0
  6  8  1  0  0  0  0
  6 24  1  0  0  0  0
  6 25  1  0  0  0  0
  7 10  1  0  0  0  0
  7 26  1  0  0  0  0
  7 27  1  0  0  0  0
  8 28  1  0  0  0  0
  8 29  1  0  0  0  0
  9 17  1  0  0  0  0
  9 19  1  0  0  0  0
  9 20  1  0  0  0  0
 10 14  1  0  0  0  0
 10 15  1  0  0  0  0
 10 30  1  0  0  0  0
 11 14  1  0  0  0  0
 11 31  1  0  0  0  0
 11 32  1  0  0  0  0
 12 15  1  0  0  0  0
 12 33  1  0  0  0  0
 12 34  1  0  0  0  0
 13 18  1  0  0  0  0
 13 35  1  0  0  0  0
 13 36  1  0  0  0  0
 14 37  1  0  0  0  0
 14 38  1  0  0  0  0
 15 21  2  0  0  0  0
 16 39  1  0  0  0  0
 16 40  1  0  0  0  0
 16 41  1  0  0  0  0
 17 18  1  0  0  0  0
 17 42  1  0  0  0  0
 17 43  1  0  0  0  0
 18 44  1  0  0  0  0
 18 45  1  0  0  0  0
 19 46  1  0  0  0  0
 19 47  1  0  0  0  0
 20 48  1  0  0  0  0
 20 49  1  0  0  0  0
 20 50  1  0  0  0  0
 21 51  1  0  0  0  0
 21 52  1  0  0  0  0
M  END
>  <PUBCHEM_COMPOUND_CID>
529650

>  <PUBCHEM_COMPOUND_CANONICALIZED>
1

>  <PUBCHEM_CACTVS_COMPLEXITY>
469

>  <PUBCHEM_CACTVS_HBOND_ACCEPTOR>
1

>  <PUBCHEM_CACTVS_HBOND_DONOR>
1

>  <PUBCHEM_CACTVS_ROTATABLE_BOND>
1

>  <PUBCHEM_CACTVS_SUBSKEYS>
AAADcfB4IAAAAAAAAAAAAAAAAAAAAYAAAAAwYMAABgAAAADAAAAAGgAACAAADwCggAICAAAAAgCAAgBCAAAAAAAgAAAAAAAAAAgAEAIAAQAAQAAEgAAAAAGAwPAPgAAAAAAAAACAAAQAACAAAQAAAAAAAA==

>  <PUBCHEM_IUPAC_INCHI>
InChI=1S/C20H32O/c1-14-11-20-10-7-16-18(2,13-21)8-4-9-19(16,3)17(20)6-5-15(14)12-20/h15-17,21H,1,4-13H2,2-3H3

>  <PUBCHEM_IUPAC_INCHIKEY>
TUJQVRFWMWRMIO-UHFFFAOYSA-N

>  <PUBCHEM_XLOGP3_AA>
5.5

>  <PUBCHEM_EXACT_MASS>
288.245

>  <PUBCHEM_MOLECULAR_FORMULA>
C20H32O

>  <PUBCHEM_MOLECULAR_WEIGHT>
288.475

>  <PUBCHEM_OPENEYE_CAN_SMILES>
CC1(CCCC2(C1CCC34C2CCC(C3)C(=C)C4)C)CO

>  <PUBCHEM_OPENEYE_ISO_SMILES>
CC1(CCCC2(C1CCC34C2CCC(C3)C(=C)C4)C)CO

>  <PUBCHEM_CACTVS_TPSA>
20.2

>  <PUBCHEM_MONOISOTOPIC_WEIGHT>
288.245

>  <PUBCHEM_TOTAL_CHARGE>
0

>  <PUBCHEM_HEAVY_ATOM_COUNT>
21

>  <PUBCHEM_ATOM_DEF_STEREO_COUNT>
0

>  <PUBCHEM_ATOM_UDEF_STEREO_COUNT>
6

>  <PUBCHEM_BOND_DEF_STEREO_COUNT>
0

>  <PUBCHEM_BOND_UDEF_STEREO_COUNT>
0

>  <PUBCHEM_ISOTOPIC_ATOM_COUNT>
0

>  <PUBCHEM_COMPONENT_COUNT>
1

>  <PUBCHEM_CACTVS_TAUTO_COUNT>
1

>  <PUBCHEM_COORDINATE_TYPE>
1
5
255

>  <PUBCHEM_BONDANNOTATIONS>
2  3  3
3  11  3
4  16  3
5  8  3
10  7  3
9  20  3

$$$$
