529648
 OpenBabel06101807152D

 51 54  0  0  1  0  0  0  0  0999 V2000
    2.0000   -2.0929    0.0000 O   0  0  0  0  0  0  0  0  0  0  0  0
    6.2038    0.3981    0.0000 C   0  0  3  0  0  0  0  0  0  0  0  0
    5.3352    0.8937    0.0000 C   0  0  3  0  0  0  0  0  0  0  0  0
    4.4278    0.3824    0.0000 C   0  0  3  0  0  0  0  0  0  0  0  0
    4.4250   -0.6593    0.0000 C   0  0  3  0  0  0  0  0  0  0  0  0
    6.1793    1.5794    0.0000 C   0  0  0  0  0  0  0  0  0  0  0  0
    6.2250   -0.6434    0.0000 C   0  0  0  0  0  0  0  0  0  0  0  0
    6.8554    2.5485    0.0000 C   0  0  3  0  0  0  0  0  0  0  0  0
    5.3296   -1.1756    0.0000 C   0  0  0  0  0  0  0  0  0  0  0  0
    5.1813    1.8818    0.0000 C   0  0  0  0  0  0  0  0  0  0  0  0
    7.1328    0.7680    0.0000 C   0  0  0  0  0  0  0  0  0  0  0  0
    3.4923   -1.2137    0.0000 C   0  0  3  0  0  0  0  0  0  0  0  0
    3.4982    0.9418    0.0000 C   0  0  0  0  0  0  0  0  0  0  0  0
    5.8578    2.6182    0.0000 C   0  0  0  0  0  0  0  0  0  0  0  0
    7.4228    1.7251    0.0000 C   0  0  0  0  0  0  0  0  0  0  0  0
    4.4305    1.3824    0.0000 C   0  0  0  0  0  0  0  0  0  0  0  0
    2.5500   -0.6758    0.0000 C   0  0  0  0  0  0  0  0  0  0  0  0
    2.5529    0.4091    0.0000 C   0  0  0  0  0  0  0  0  0  0  0  0
    3.9999   -2.0752    0.0000 C   0  0  0  0  0  0  0  0  0  0  0  0
    3.0000   -2.0841    0.0000 C   0  0  0  0  0  0  0  0  0  0  0  0
    8.4109    1.8790    0.0000 C   0  0  0  0  0  0  0  0  0  0  0  0
    5.8458    1.2455    0.0000 H   0  0  0  0  0  0  0  0  0  0  0  0
    4.4304   -1.2792    0.0000 H   0  0  0  0  0  0  0  0  0  0  0  0
    5.8050    2.0737    0.0000 H   0  0  0  0  0  0  0  0  0  0  0  0
    5.5936    1.3760    0.0000 H   0  0  0  0  0  0  0  0  0  0  0  0
    6.4459   -1.2227    0.0000 H   0  0  0  0  0  0  0  0  0  0  0  0
    6.8336   -0.5248    0.0000 H   0  0  0  0  0  0  0  0  0  0  0  0
    7.1627    3.0870    0.0000 H   0  0  0  0  0  0  0  0  0  0  0  0
    4.9347   -1.6535    0.0000 H   0  0  0  0  0  0  0  0  0  0  0  0
    5.7329   -1.6465    0.0000 H   0  0  0  0  0  0  0  0  0  0  0  0
    4.8295    2.3923    0.0000 H   0  0  0  0  0  0  0  0  0  0  0  0
    4.6053    1.6524    0.0000 H   0  0  0  0  0  0  0  0  0  0  0  0
    7.2283    0.1554    0.0000 H   0  0  0  0  0  0  0  0  0  0  0  0
    7.7513    0.7248    0.0000 H   0  0  0  0  0  0  0  0  0  0  0  0
    3.9040    1.4105    0.0000 H   0  0  0  0  0  0  0  0  0  0  0  0
    3.1058    1.4219    0.0000 H   0  0  0  0  0  0  0  0  0  0  0  0
    6.0376    3.2116    0.0000 H   0  0  0  0  0  0  0  0  0  0  0  0
    5.3193    2.9256    0.0000 H   0  0  0  0  0  0  0  0  0  0  0  0
    5.0505    1.3807    0.0000 H   0  0  0  0  0  0  0  0  0  0  0  0
    4.4322    2.0024    0.0000 H   0  0  0  0  0  0  0  0  0  0  0  0
    3.8105    1.3840    0.0000 H   0  0  0  0  0  0  0  0  0  0  0  0
    1.9394   -0.5681    0.0000 H   0  0  0  0  0  0  0  0  0  0  0  0
    2.3393   -1.2590    0.0000 H   0  0  0  0  0  0  0  0  0  0  0  0
    2.3454    0.9934    0.0000 H   0  0  0  0  0  0  0  0  0  0  0  0
    1.9418    0.3047    0.0000 H   0  0  0  0  0  0  0  0  0  0  0  0
    3.4658   -2.3900    0.0000 H   0  0  0  0  0  0  0  0  0  0  0  0
    4.3147   -2.6094    0.0000 H   0  0  0  0  0  0  0  0  0  0  0  0
    4.5341   -1.7605    0.0000 H   0  0  0  0  0  0  0  0  0  0  0  0
    3.3147   -2.6182    0.0000 H   0  0  0  0  0  0  0  0  0  0  0  0
    8.7998    1.3962    0.0000 H   0  0  0  0  0  0  0  0  0  0  0  0
    8.6345    2.4573    0.0000 H   0  0  0  0  0  0  0  0  0  0  0  0
  1 20  2  0  0  0  0
  2  3  1  0  0  0  0
  2  6  1  0  0  0  0
  2  7  1  0  0  0  0
  2 11  1  0  0  0  0
  3  4  1  0  0  0  0
  3 10  1  0  0  0  0
  3 22  1  0  0  0  0
  4  5  1  0  0  0  0
  4 13  1  0  0  0  0
  4 16  1  0  0  0  0
  5  9  1  0  0  0  0
  5 12  1  0  0  0  0
  5 23  1  0  0  0  0
  6  8  1  0  0  0  0
  6 24  1  0  0  0  0
  6 25  1  0  0  0  0
  7  9  1  0  0  0  0
  7 26  1  0  0  0  0
  7 27  1  0  0  0  0
  8 14  1  0  0  0  0
  8 15  1  0  0  0  0
  8 28  1  0  0  0  0
  9 29  1  0  0  0  0
  9 30  1  0  0  0  0
 10 14  1  0  0  0  0
 10 31  1  0  0  0  0
 10 32  1  0  0  0  0
 11 15  1  0  0  0  0
 11 33  1  0  0  0  0
 11 34  1  0  0  0  0
 12 17  1  0  0  0  0
 12 19  1  0  0  0  0
 12 20  1  0  0  0  0
 13 18  1  0  0  0  0
 13 35  1  0  0  0  0
 13 36  1  0  0  0  0
 14 37  1  0  0  0  0
 14 38  1  0  0  0  0
 15 21  2  0  0  0  0
 16 39  1  0  0  0  0
 16 40  1  0  0  0  0
 16 41  1  0  0  0  0
 17 18  1  0  0  0  0
 17 42  1  0  0  0  0
 17 43  1  0  0  0  0
 18 44  1  0  0  0  0
 18 45  1  0  0  0  0
 19 46  1  0  0  0  0
 19 47  1  0  0  0  0
 19 48  1  0  0  0  0
 20 49  1  0  0  0  0
 21 50  1  0  0  0  0
 21 51  1  0  0  0  0
M  END
>  <PUBCHEM_COMPOUND_CID>
529648

>  <PUBCHEM_COMPOUND_CANONICALIZED>
1

>  <PUBCHEM_CACTVS_COMPLEXITY>
494

>  <PUBCHEM_CACTVS_HBOND_ACCEPTOR>
1

>  <PUBCHEM_CACTVS_HBOND_DONOR>
0

>  <PUBCHEM_CACTVS_ROTATABLE_BOND>
1

>  <PUBCHEM_CACTVS_SUBSKEYS>
AAADceB4IAAAAAAAAAAAAAAAAAAAAYAAAAAwYMAABgAAAADAAAAAGgAAAAAADwCggAICAAAAAACIAghSgAAAAAAgAAAAAAEAAAgAABIAAQAAAAAAgAAAAAEIiMCPgAAAAAAAAACAAAQAACAAAQAAAAAAAA==

>  <PUBCHEM_IUPAC_INCHI>
InChI=1S/C20H30O/c1-14-11-20-10-7-16-18(2,13-21)8-4-9-19(16,3)17(20)6-5-15(14)12-20/h13,15-17H,1,4-12H2,2-3H3

>  <PUBCHEM_IUPAC_INCHIKEY>
JCAVDWHQNFTFBW-UHFFFAOYSA-N

>  <PUBCHEM_XLOGP3_AA>
5.4

>  <PUBCHEM_EXACT_MASS>
286.23

>  <PUBCHEM_MOLECULAR_FORMULA>
C20H30O

>  <PUBCHEM_MOLECULAR_WEIGHT>
286.459

>  <PUBCHEM_OPENEYE_CAN_SMILES>
CC1(CCCC2(C1CCC34C2CCC(C3)C(=C)C4)C)C=O

>  <PUBCHEM_OPENEYE_ISO_SMILES>
CC1(CCCC2(C1CCC34C2CCC(C3)C(=C)C4)C)C=O

>  <PUBCHEM_CACTVS_TPSA>
17.1

>  <PUBCHEM_MONOISOTOPIC_WEIGHT>
286.23

>  <PUBCHEM_TOTAL_CHARGE>
0

>  <PUBCHEM_HEAVY_ATOM_COUNT>
21

>  <PUBCHEM_ATOM_DEF_STEREO_COUNT>
0

>  <PUBCHEM_ATOM_UDEF_STEREO_COUNT>
6

>  <PUBCHEM_BOND_DEF_STEREO_COUNT>
0

>  <PUBCHEM_BOND_UDEF_STEREO_COUNT>
0

>  <PUBCHEM_ISOTOPIC_ATOM_COUNT>
0

>  <PUBCHEM_COMPONENT_COUNT>
1

>  <PUBCHEM_CACTVS_TAUTO_COUNT>
1

>  <PUBCHEM_COORDINATE_TYPE>
1
5
255

>  <PUBCHEM_BONDANNOTATIONS>
12  19  3
2  3  3
3  10  3
4  16  3
5  9  3
8  6  3

$$$$
