5315202
 OpenBabel06101807152D

 33 35  0  0  0  0  0  0  0  0999 V2000
    6.0682   -1.0223    0.0000 O   0  0  0  0  0  0  0  0  0  0  0  0
    4.3198    2.0123    0.0000 O   0  0  0  0  0  0  0  0  0  0  0  0
    6.0682    1.9777    0.0000 O   0  0  0  0  0  0  0  0  0  0  0  0
    2.5381   -1.0464    0.0000 O   0  0  0  0  0  0  0  0  0  0  0  0
   10.3984   -2.5223    0.0000 O   0  0  0  0  0  0  0  0  0  0  0  0
    5.2022    0.4777    0.0000 C   0  0  0  0  0  0  0  0  0  0  0  0
    5.2022   -0.5223    0.0000 C   0  0  0  0  0  0  0  0  0  0  0  0
    6.9343   -0.5223    0.0000 C   0  0  0  0  0  0  0  0  0  0  0  0
    4.3083    1.0124    0.0000 C   0  0  0  0  0  0  0  0  0  0  0  0
    6.0682    0.9777    0.0000 C   0  0  0  0  0  0  0  0  0  0  0  0
    7.8003   -1.0223    0.0000 C   0  0  0  0  0  0  0  0  0  0  0  0
    6.9343    0.4777    0.0000 C   0  0  0  0  0  0  0  0  0  0  0  0
    4.3083   -1.0570    0.0000 C   0  0  0  0  0  0  0  0  0  0  0  0
    3.4022    0.4985    0.0000 C   0  0  0  0  0  0  0  0  0  0  0  0
    3.4022   -0.5431    0.0000 C   0  0  0  0  0  0  0  0  0  0  0  0
    7.8003   -2.0223    0.0000 C   0  0  0  0  0  0  0  0  0  0  0  0
    8.6663   -0.5223    0.0000 C   0  0  0  0  0  0  0  0  0  0  0  0
    8.6663   -2.5223    0.0000 C   0  0  0  0  0  0  0  0  0  0  0  0
    9.5323   -1.0223    0.0000 C   0  0  0  0  0  0  0  0  0  0  0  0
    9.5323   -2.0223    0.0000 C   0  0  0  0  0  0  0  0  0  0  0  0
    3.4597    2.5223    0.0000 C   0  0  0  0  0  0  0  0  0  0  0  0
    7.4712    0.7877    0.0000 H   0  0  0  0  0  0  0  0  0  0  0  0
    4.3154   -1.6769    0.0000 H   0  0  0  0  0  0  0  0  0  0  0  0
    2.8665    0.8106    0.0000 H   0  0  0  0  0  0  0  0  0  0  0  0
    7.2634   -2.3323    0.0000 H   0  0  0  0  0  0  0  0  0  0  0  0
    8.6663    0.0977    0.0000 H   0  0  0  0  0  0  0  0  0  0  0  0
    8.6663   -3.1423    0.0000 H   0  0  0  0  0  0  0  0  0  0  0  0
   10.0693   -0.7123    0.0000 H   0  0  0  0  0  0  0  0  0  0  0  0
    3.7758    3.0556    0.0000 H   0  0  0  0  0  0  0  0  0  0  0  0
    2.9263    2.8385    0.0000 H   0  0  0  0  0  0  0  0  0  0  0  0
    3.1435    1.9890    0.0000 H   0  0  0  0  0  0  0  0  0  0  0  0
    2.0000   -0.7385    0.0000 H   0  0  0  0  0  0  0  0  0  0  0  0
   10.9353   -2.2123    0.0000 H   0  0  0  0  0  0  0  0  0  0  0  0
  1  7  1  0  0  0  0
  1  8  1  0  0  0  0
  2  9  1  0  0  0  0
  2 21  1  0  0  0  0
  3 10  2  0  0  0  0
  4 15  1  0  0  0  0
  4 32  1  0  0  0  0
  5 20  1  0  0  0  0
  5 33  1  0  0  0  0
  6  7  2  0  0  0  0
  6  9  1  0  0  0  0
  6 10  1  0  0  0  0
  7 13  1  0  0  0  0
  8 11  1  0  0  0  0
  8 12  2  0  0  0  0
  9 14  2  0  0  0  0
 10 12  1  0  0  0  0
 11 16  2  0  0  0  0
 11 17  1  0  0  0  0
 12 22  1  0  0  0  0
 13 15  2  0  0  0  0
 13 23  1  0  0  0  0
 14 15  1  0  0  0  0
 14 24  1  0  0  0  0
 16 18  1  0  0  0  0
 16 25  1  0  0  0  0
 17 19  2  0  0  0  0
 17 26  1  0  0  0  0
 18 20  2  0  0  0  0
 18 27  1  0  0  0  0
 19 20  1  0  0  0  0
 19 28  1  0  0  0  0
 21 29  1  0  0  0  0
 21 30  1  0  0  0  0
 21 31  1  0  0  0  0
M  END
>  <PUBCHEM_COMPOUND_CID>
5315202

>  <PUBCHEM_COMPOUND_CANONICALIZED>
1

>  <PUBCHEM_CACTVS_COMPLEXITY>
424

>  <PUBCHEM_CACTVS_HBOND_ACCEPTOR>
5

>  <PUBCHEM_CACTVS_HBOND_DONOR>
2

>  <PUBCHEM_CACTVS_ROTATABLE_BOND>
2

>  <PUBCHEM_CACTVS_SUBSKEYS>
AAADccB4OAAAAAAAAAAAAAAAAAAAAAAAAAAwYIAAAAAAAACBQAAAGgAACAAADASAmAIyBoAABgCIAqBSAAACCAAkIAAIiAEGCMgMJzaGNRqCeWCl4BUIuQeI7KzOIAAACAAIAABAAAAQABAAAAAAAAAAAA==

>  <PUBCHEM_IUPAC_OPENEYE_NAME>
7-hydroxy-2-(4-hydroxyphenyl)-5-methoxy-chromen-4-one

>  <PUBCHEM_IUPAC_CAS_NAME>
7-hydroxy-2-(4-hydroxyphenyl)-5-methoxy-1-benzopyran-4-one

>  <PUBCHEM_IUPAC_NAME>
7-hydroxy-2-(4-hydroxyphenyl)-5-methoxychromen-4-one

>  <PUBCHEM_IUPAC_SYSTEMATIC_NAME>
2-(4-hydroxyphenyl)-5-methoxy-7-oxidanyl-chromen-4-one

>  <PUBCHEM_IUPAC_TRADITIONAL_NAME>
7-hydroxy-2-(4-hydroxyphenyl)-5-methoxy-chromone

>  <PUBCHEM_IUPAC_INCHI>
InChI=1S/C16H12O5/c1-20-14-6-11(18)7-15-16(14)12(19)8-13(21-15)9-2-4-10(17)5-3-9/h2-8,17-18H,1H3

>  <PUBCHEM_IUPAC_INCHIKEY>
YQABHAHJGSNVQR-UHFFFAOYSA-N

>  <PUBCHEM_XLOGP3>
1.5

>  <PUBCHEM_EXACT_MASS>
284.068

>  <PUBCHEM_MOLECULAR_FORMULA>
C16H12O5

>  <PUBCHEM_MOLECULAR_WEIGHT>
284.267

>  <PUBCHEM_OPENEYE_CAN_SMILES>
COC1=C2C(=CC(=C1)O)OC(=CC2=O)C3=CC=C(C=C3)O

>  <PUBCHEM_OPENEYE_ISO_SMILES>
COC1=C2C(=CC(=C1)O)OC(=CC2=O)C3=CC=C(C=C3)O

>  <PUBCHEM_CACTVS_TPSA>
76

>  <PUBCHEM_MONOISOTOPIC_WEIGHT>
284.068

>  <PUBCHEM_TOTAL_CHARGE>
0

>  <PUBCHEM_HEAVY_ATOM_COUNT>
21

>  <PUBCHEM_ATOM_DEF_STEREO_COUNT>
0

>  <PUBCHEM_ATOM_UDEF_STEREO_COUNT>
0

>  <PUBCHEM_BOND_DEF_STEREO_COUNT>
0

>  <PUBCHEM_BOND_UDEF_STEREO_COUNT>
0

>  <PUBCHEM_ISOTOPIC_ATOM_COUNT>
0

>  <PUBCHEM_COMPONENT_COUNT>
1

>  <PUBCHEM_CACTVS_TAUTO_COUNT>
24

>  <PUBCHEM_COORDINATE_TYPE>
1
5
255

>  <PUBCHEM_BONDANNOTATIONS>
1  7  8
1  8  8
10  12  8
11  16  8
11  17  8
13  15  8
14  15  8
16  18  8
17  19  8
18  20  8
19  20  8
6  10  8
6  7  8
6  9  8
7  13  8
8  12  8
9  14  8

$$$$
