5315422
 OpenBabel06101807152D

 37 39  0  0  0  0  0  0  0  0999 V2000
    3.9061    0.7500    0.0000 O   0  0  0  0  0  0  0  0  0  0  0  0
    8.3022    0.2122    0.0000 O   0  0  0  0  0  0  0  0  0  0  0  0
    5.6660   -2.2846    0.0000 O   0  0  0  0  0  0  0  0  0  0  0  0
    6.5320   -0.7846    0.0000 N   0  0  0  0  0  0  0  0  0  0  0  0
    3.0000    0.2362    0.0000 C   0  0  0  0  0  0  0  0  0  0  0  0
    4.8000    0.2154    0.0000 C   0  0  0  0  0  0  0  0  0  0  0  0
    4.8000   -0.7846    0.0000 C   0  0  0  0  0  0  0  0  0  0  0  0
    5.6660    0.7154    0.0000 C   0  0  0  0  0  0  0  0  0  0  0  0
    6.5320    0.2154    0.0000 C   0  0  0  0  0  0  0  0  0  0  0  0
    3.0000   -0.8054    0.0000 C   0  0  0  0  0  0  0  0  0  0  0  0
    3.9061   -1.3193    0.0000 C   0  0  0  0  0  0  0  0  0  0  0  0
    5.6660   -1.2846    0.0000 C   0  0  0  0  0  0  0  0  0  0  0  0
    2.0000    0.2400    0.0000 C   0  0  0  0  0  0  0  0  0  0  0  0
    2.5033    1.1041    0.0000 C   0  0  0  0  0  0  0  0  0  0  0  0
    7.4420    0.7222    0.0000 C   0  0  0  0  0  0  0  0  0  0  0  0
    5.6500    1.7569    0.0000 C   0  0  0  0  0  0  0  0  0  0  0  0
    7.3981   -1.2846    0.0000 C   0  0  0  0  0  0  0  0  0  0  0  0
    7.4501    1.7638    0.0000 C   0  0  0  0  0  0  0  0  0  0  0  0
    6.5480    2.2846    0.0000 C   0  0  0  0  0  0  0  0  0  0  0  0
    9.1740    0.7022    0.0000 C   0  0  0  0  0  0  0  0  0  0  0  0
    2.4643   -1.1175    0.0000 H   0  0  0  0  0  0  0  0  0  0  0  0
    3.9132   -1.9392    0.0000 H   0  0  0  0  0  0  0  0  0  0  0  0
    3.0415    1.4121    0.0000 H   0  0  0  0  0  0  0  0  0  0  0  0
    2.1954    1.6423    0.0000 H   0  0  0  0  0  0  0  0  0  0  0  0
    1.9652    0.7962    0.0000 H   0  0  0  0  0  0  0  0  0  0  0  0
    2.0024    0.8600    0.0000 H   0  0  0  0  0  0  0  0  0  0  0  0
    1.3800    0.2424    0.0000 H   0  0  0  0  0  0  0  0  0  0  0  0
    1.9976   -0.3800    0.0000 H   0  0  0  0  0  0  0  0  0  0  0  0
    5.1095    2.0606    0.0000 H   0  0  0  0  0  0  0  0  0  0  0  0
    7.0881   -1.8216    0.0000 H   0  0  0  0  0  0  0  0  0  0  0  0
    7.9350   -1.5946    0.0000 H   0  0  0  0  0  0  0  0  0  0  0  0
    7.7081   -0.7477    0.0000 H   0  0  0  0  0  0  0  0  0  0  0  0
    7.9882    2.0717    0.0000 H   0  0  0  0  0  0  0  0  0  0  0  0
    6.5456    2.9046    0.0000 H   0  0  0  0  0  0  0  0  0  0  0  0
    9.4778    0.1617    0.0000 H   0  0  0  0  0  0  0  0  0  0  0  0
    9.7145    1.0060    0.0000 H   0  0  0  0  0  0  0  0  0  0  0  0
    8.8702    1.2427    0.0000 H   0  0  0  0  0  0  0  0  0  0  0  0
  1  5  1  0  0  0  0
  1  6  1  0  0  0  0
  2 15  1  0  0  0  0
  2 20  1  0  0  0  0
  3 12  2  0  0  0  0
  4  9  1  0  0  0  0
  4 12  1  0  0  0  0
  4 17  1  0  0  0  0
  5 10  1  0  0  0  0
  5 13  1  0  0  0  0
  5 14  1  0  0  0  0
  6  7  2  0  0  0  0
  6  8  1  0  0  0  0
  7 11  1  0  0  0  0
  7 12  1  0  0  0  0
  8  9  2  0  0  0  0
  8 16  1  0  0  0  0
  9 15  1  0  0  0  0
 10 11  2  0  0  0  0
 10 21  1  0  0  0  0
 11 22  1  0  0  0  0
 13 26  1  0  0  0  0
 13 27  1  0  0  0  0
 13 28  1  0  0  0  0
 14 23  1  0  0  0  0
 14 24  1  0  0  0  0
 14 25  1  0  0  0  0
 15 18  2  0  0  0  0
 16 19  2  0  0  0  0
 16 29  1  0  0  0  0
 17 30  1  0  0  0  0
 17 31  1  0  0  0  0
 17 32  1  0  0  0  0
 18 19  1  0  0  0  0
 18 33  1  0  0  0  0
 19 34  1  0  0  0  0
 20 35  1  0  0  0  0
 20 36  1  0  0  0  0
 20 37  1  0  0  0  0
M  END
>  <PUBCHEM_COMPOUND_CID>
5315422

>  <PUBCHEM_COMPOUND_CANONICALIZED>
1

>  <PUBCHEM_CACTVS_COMPLEXITY>
492

>  <PUBCHEM_CACTVS_HBOND_ACCEPTOR>
3

>  <PUBCHEM_CACTVS_HBOND_DONOR>
0

>  <PUBCHEM_CACTVS_ROTATABLE_BOND>
1

>  <PUBCHEM_CACTVS_SUBSKEYS>
AAADceB6MAAAAAAAAAAAAAAAAAAAAAAAAAAwQIAAAAAAAACBAAAAHgAAAAAADEyBmAYyxoMABACIAiVSUACCCAAhIAAIiAEPTMgOJiLEsZuHMChmxhHY6QfQwDAOAAABAAACEAAAAAIAAAQgAAAAAAAAAA==

>  <PUBCHEM_IUPAC_OPENEYE_NAME>
7-methoxy-2,2,6-trimethyl-pyrano[3,2-c]quinolin-5-one

>  <PUBCHEM_IUPAC_CAS_NAME>
7-methoxy-2,2,6-trimethyl-5-pyrano[3,2-c]quinolinone

>  <PUBCHEM_IUPAC_NAME>
7-methoxy-2,2,6-trimethylpyrano[3,2-c]quinolin-5-one

>  <PUBCHEM_IUPAC_SYSTEMATIC_NAME>
7-methoxy-2,2,6-trimethyl-pyrano[3,2-c]quinolin-5-one

>  <PUBCHEM_IUPAC_TRADITIONAL_NAME>
7-methoxy-2,2,6-trimethyl-pyrano[3,2-c]quinolin-5-one

>  <PUBCHEM_IUPAC_INCHI>
InChI=1S/C16H17NO3/c1-16(2)9-8-11-14(20-16)10-6-5-7-12(19-4)13(10)17(3)15(11)18/h5-9H,1-4H3

>  <PUBCHEM_IUPAC_INCHIKEY>
SYNIFQKDJZQOLI-UHFFFAOYSA-N

>  <PUBCHEM_XLOGP3_AA>
2.1

>  <PUBCHEM_EXACT_MASS>
271.121

>  <PUBCHEM_MOLECULAR_FORMULA>
C16H17NO3

>  <PUBCHEM_MOLECULAR_WEIGHT>
271.316

>  <PUBCHEM_OPENEYE_CAN_SMILES>
CC1(C=CC2=C(O1)C3=C(C(=CC=C3)OC)N(C2=O)C)C

>  <PUBCHEM_OPENEYE_ISO_SMILES>
CC1(C=CC2=C(O1)C3=C(C(=CC=C3)OC)N(C2=O)C)C

>  <PUBCHEM_CACTVS_TPSA>
38.8

>  <PUBCHEM_MONOISOTOPIC_WEIGHT>
271.121

>  <PUBCHEM_TOTAL_CHARGE>
0

>  <PUBCHEM_HEAVY_ATOM_COUNT>
20

>  <PUBCHEM_ATOM_DEF_STEREO_COUNT>
0

>  <PUBCHEM_ATOM_UDEF_STEREO_COUNT>
0

>  <PUBCHEM_BOND_DEF_STEREO_COUNT>
0

>  <PUBCHEM_BOND_UDEF_STEREO_COUNT>
0

>  <PUBCHEM_ISOTOPIC_ATOM_COUNT>
0

>  <PUBCHEM_COMPONENT_COUNT>
1

>  <PUBCHEM_CACTVS_TAUTO_COUNT>
1

>  <PUBCHEM_COORDINATE_TYPE>
1
5
255

>  <PUBCHEM_BONDANNOTATIONS>
15  18  8
16  19  8
18  19  8
4  12  8
4  9  8
6  7  8
6  8  8
7  12  8
8  16  8
8  9  8
9  15  8

$$$$
