5315718
 OpenBabel06101807152D

 38 40  0  0  1  0  0  0  0  0999 V2000
    3.7230   -0.4117    0.0000 O   0  0  0  0  0  0  0  0  0  0  0  0
    8.0559   -0.4918    0.0000 O   0  0  0  0  0  0  0  0  0  0  0  0
    2.0000    0.0205    0.0000 O   0  0  0  0  0  0  0  0  0  0  0  0
    5.4786   -0.3379    0.0000 C   0  0  3  0  0  0  0  0  0  0  0  0
    4.3551    1.0709    0.0000 C   0  0  3  0  0  0  0  0  0  0  0  0
    4.5777    0.0960    0.0000 C   0  0  3  0  0  0  0  0  0  0  0  0
    6.3796    0.0960    0.0000 C   0  0  3  0  0  0  0  0  0  0  0  0
    6.6021    1.0709    0.0000 C   0  0  3  0  0  0  0  0  0  0  0  0
    4.9786    1.8527    0.0000 C   0  0  0  0  0  0  0  0  0  0  0  0
    5.9786    1.8527    0.0000 C   0  0  0  0  0  0  0  0  0  0  0  0
    3.3648    1.1574    0.0000 C   0  0  3  0  0  0  0  0  0  0  0  0
    5.6146   -1.3227    0.0000 C   0  0  0  0  0  0  0  0  0  0  0  0
    7.0647   -0.6243    0.0000 C   0  0  0  0  0  0  0  0  0  0  0  0
    2.9749    0.2430    0.0000 C   0  0  0  0  0  0  0  0  0  0  0  0
    6.5929   -1.4993    0.0000 C   0  0  0  0  0  0  0  0  0  0  0  0
    7.5770    1.2934    0.0000 C   0  0  0  0  0  0  0  0  0  0  0  0
    2.8504    2.0150    0.0000 C   0  0  0  0  0  0  0  0  0  0  0  0
    4.8930   -2.0150    0.0000 C   0  0  0  0  0  0  0  0  0  0  0  0
    4.7916   -0.8384    0.0000 H   0  0  0  0  0  0  0  0  0  0  0  0
    4.0200    1.8520    0.0000 H   0  0  0  0  0  0  0  0  0  0  0  0
    4.6147   -0.7532    0.0000 H   0  0  0  0  0  0  0  0  0  0  0  0
    7.1993    0.3210    0.0000 H   0  0  0  0  0  0  0  0  0  0  0  0
    6.8829    1.8732    0.0000 H   0  0  0  0  0  0  0  0  0  0  0  0
    5.1166    2.4572    0.0000 H   0  0  0  0  0  0  0  0  0  0  0  0
    4.4200    2.1217    0.0000 H   0  0  0  0  0  0  0  0  0  0  0  0
    6.5372    2.1217    0.0000 H   0  0  0  0  0  0  0  0  0  0  0  0
    5.8407    2.4572    0.0000 H   0  0  0  0  0  0  0  0  0  0  0  0
    3.8155    1.8781    0.0000 H   0  0  0  0  0  0  0  0  0  0  0  0
    6.8619   -2.0579    0.0000 H   0  0  0  0  0  0  0  0  0  0  0  0
    7.7150    0.6889    0.0000 H   0  0  0  0  0  0  0  0  0  0  0  0
    8.1815    1.4314    0.0000 H   0  0  0  0  0  0  0  0  0  0  0  0
    7.4391    1.8979    0.0000 H   0  0  0  0  0  0  0  0  0  0  0  0
    3.3821    2.3339    0.0000 H   0  0  0  0  0  0  0  0  0  0  0  0
    2.5315    2.5467    0.0000 H   0  0  0  0  0  0  0  0  0  0  0  0
    2.3188    1.6961    0.0000 H   0  0  0  0  0  0  0  0  0  0  0  0
    4.4638   -1.5676    0.0000 H   0  0  0  0  0  0  0  0  0  0  0  0
    4.4456   -2.4442    0.0000 H   0  0  0  0  0  0  0  0  0  0  0  0
    5.3223   -2.4624    0.0000 H   0  0  0  0  0  0  0  0  0  0  0  0
  1  6  1  0  0  0  0
  1 14  1  0  0  0  0
  2 13  2  0  0  0  0
  3 14  2  0  0  0  0
  4  6  1  0  0  0  0
  4  7  1  0  0  0  0
  4 12  1  0  0  0  0
  4 19  1  0  0  0  0
  5  6  1  0  0  0  0
  5  9  1  0  0  0  0
  5 11  1  0  0  0  0
  5 20  1  0  0  0  0
  6 21  1  0  0  0  0
  7  8  1  0  0  0  0
  7 13  1  0  0  0  0
  7 22  1  0  0  0  0
  8 10  1  0  0  0  0
  8 16  1  0  0  0  0
  8 23  1  0  0  0  0
  9 10  1  0  0  0  0
  9 24  1  0  0  0  0
  9 25  1  0  0  0  0
 10 26  1  0  0  0  0
 10 27  1  0  0  0  0
 11 14  1  0  0  0  0
 11 17  1  0  0  0  0
 11 28  1  0  0  0  0
 12 15  2  0  0  0  0
 12 18  1  0  0  0  0
 13 15  1  0  0  0  0
 15 29  1  0  0  0  0
 16 30  1  0  0  0  0
 16 31  1  0  0  0  0
 16 32  1  0  0  0  0
 17 33  1  0  0  0  0
 17 34  1  0  0  0  0
 17 35  1  0  0  0  0
 18 36  1  0  0  0  0
 18 37  1  0  0  0  0
 18 38  1  0  0  0  0
M  END
>  <PUBCHEM_COMPOUND_CID>
5315718

>  <PUBCHEM_COMPOUND_CANONICALIZED>
1

>  <PUBCHEM_CACTVS_COMPLEXITY>
437

>  <PUBCHEM_CACTVS_HBOND_ACCEPTOR>
3

>  <PUBCHEM_CACTVS_HBOND_DONOR>
0

>  <PUBCHEM_CACTVS_ROTATABLE_BOND>
0

>  <PUBCHEM_CACTVS_SUBSKEYS>
AAADceBwMAAAAAAAAAAAAAAAAAAAASIAAAAAAAAABgAAAACQAAAAGgAAAAAADRSggAICCAAABACIAqDSCAAAAAAgAAAACAEAAEgAABIAAQACAAAEwAAIAQOKyPCOgAAAAAAAAAAAAAAAAAAAAAAAAAAAAA==

>  <PUBCHEM_IUPAC_OPENEYE_NAME>
3,6,9-trimethyl-3,3a,4,5,6,6a,9a,9b-octahydroazuleno[4,5-b]furan-2,7-dione

>  <PUBCHEM_IUPAC_CAS_NAME>
3,6,9-trimethyl-3,3a,4,5,6,6a,9a,9b-octahydroazuleno[4,5-b]furan-2,7-dione

>  <PUBCHEM_IUPAC_NAME>
3,6,9-trimethyl-3,3a,4,5,6,6a,9a,9b-octahydroazuleno[4,5-b]furan-2,7-dione

>  <PUBCHEM_IUPAC_SYSTEMATIC_NAME>
3,6,9-trimethyl-3,3a,4,5,6,6a,9a,9b-octahydroazuleno[4,5-b]furan-2,7-dione

>  <PUBCHEM_IUPAC_TRADITIONAL_NAME>
3,6,9-trimethyl-3,3a,4,5,6,6a,9a,9b-octahydroazuleno[4,5-b]furan-2,7-quinone

>  <PUBCHEM_IUPAC_INCHI>
InChI=1S/C15H20O3/c1-7-4-5-10-9(3)15(17)18-14(10)13-8(2)6-11(16)12(7)13/h6-7,9-10,12-14H,4-5H2,1-3H3

>  <PUBCHEM_IUPAC_INCHIKEY>
FJKWKEZAHVWIOR-UHFFFAOYSA-N

>  <PUBCHEM_XLOGP3_AA>
2.2

>  <PUBCHEM_EXACT_MASS>
248.141

>  <PUBCHEM_MOLECULAR_FORMULA>
C15H20O3

>  <PUBCHEM_MOLECULAR_WEIGHT>
248.322

>  <PUBCHEM_OPENEYE_CAN_SMILES>
CC1CCC2C(C(=O)OC2C3C1C(=O)C=C3C)C

>  <PUBCHEM_OPENEYE_ISO_SMILES>
CC1CCC2C(C(=O)OC2C3C1C(=O)C=C3C)C

>  <PUBCHEM_CACTVS_TPSA>
43.4

>  <PUBCHEM_MONOISOTOPIC_WEIGHT>
248.141

>  <PUBCHEM_TOTAL_CHARGE>
0

>  <PUBCHEM_HEAVY_ATOM_COUNT>
18

>  <PUBCHEM_ATOM_DEF_STEREO_COUNT>
0

>  <PUBCHEM_ATOM_UDEF_STEREO_COUNT>
6

>  <PUBCHEM_BOND_DEF_STEREO_COUNT>
0

>  <PUBCHEM_BOND_UDEF_STEREO_COUNT>
0

>  <PUBCHEM_ISOTOPIC_ATOM_COUNT>
0

>  <PUBCHEM_COMPONENT_COUNT>
1

>  <PUBCHEM_CACTVS_TAUTO_COUNT>
20

>  <PUBCHEM_COORDINATE_TYPE>
1
5
255

>  <PUBCHEM_BONDANNOTATIONS>
11  28  3
4  19  3
5  20  3
6  21  3
7  22  3
8  23  3

$$$$
