5315126
 OpenBabel06101807152D

 45 47  0  0  0  0  0  0  0  0999 V2000
    6.0682    0.5746    0.0000 O   0  0  0  0  0  0  0  0  0  0  0  0
   10.3984   -0.9254    0.0000 O   0  0  0  0  0  0  0  0  0  0  0  0
    7.8003    2.5746    0.0000 O   0  0  0  0  0  0  0  0  0  0  0  0
   10.3984    1.0746    0.0000 O   0  0  0  0  0  0  0  0  0  0  0  0
    4.3198    3.6092    0.0000 O   0  0  0  0  0  0  0  0  0  0  0  0
    6.0682    3.5746    0.0000 O   0  0  0  0  0  0  0  0  0  0  0  0
    2.5381    0.5505    0.0000 O   0  0  0  0  0  0  0  0  0  0  0  0
    7.8003    0.5746    0.0000 C   0  0  0  0  0  0  0  0  0  0  0  0
    8.6663   -0.9254    0.0000 C   0  0  0  0  0  0  0  0  0  0  0  0
    6.9343    1.0746    0.0000 C   0  0  0  0  0  0  0  0  0  0  0  0
    7.8003   -0.4254    0.0000 C   0  0  0  0  0  0  0  0  0  0  0  0
    8.6663   -1.9254    0.0000 C   0  0  0  0  0  0  0  0  0  0  0  0
    5.2022    2.0746    0.0000 C   0  0  0  0  0  0  0  0  0  0  0  0
    5.2022    1.0746    0.0000 C   0  0  0  0  0  0  0  0  0  0  0  0
    9.5323   -0.4254    0.0000 C   0  0  0  0  0  0  0  0  0  0  0  0
    8.6663    1.0746    0.0000 C   0  0  0  0  0  0  0  0  0  0  0  0
    6.9343    2.0746    0.0000 C   0  0  0  0  0  0  0  0  0  0  0  0
    9.5323    0.5746    0.0000 C   0  0  0  0  0  0  0  0  0  0  0  0
    6.0682    2.5746    0.0000 C   0  0  0  0  0  0  0  0  0  0  0  0
    7.8003   -2.4254    0.0000 C   0  0  0  0  0  0  0  0  0  0  0  0
    4.3083    2.6093    0.0000 C   0  0  0  0  0  0  0  0  0  0  0  0
    4.3083    0.5399    0.0000 C   0  0  0  0  0  0  0  0  0  0  0  0
    7.8003   -3.4254    0.0000 C   0  0  0  0  0  0  0  0  0  0  0  0
    3.4022    1.0538    0.0000 C   0  0  0  0  0  0  0  0  0  0  0  0
    3.4022    2.0954    0.0000 C   0  0  0  0  0  0  0  0  0  0  0  0
    6.9343   -3.9254    0.0000 C   0  0  0  0  0  0  0  0  0  0  0  0
    8.6663   -3.9254    0.0000 C   0  0  0  0  0  0  0  0  0  0  0  0
    7.2634   -0.7354    0.0000 H   0  0  0  0  0  0  0  0  0  0  0  0
    8.8784   -2.5080    0.0000 H   0  0  0  0  0  0  0  0  0  0  0  0
    9.2769   -1.8177    0.0000 H   0  0  0  0  0  0  0  0  0  0  0  0
    8.6663    1.6946    0.0000 H   0  0  0  0  0  0  0  0  0  0  0  0
    7.2634   -2.1154    0.0000 H   0  0  0  0  0  0  0  0  0  0  0  0
    4.3154   -0.0800    0.0000 H   0  0  0  0  0  0  0  0  0  0  0  0
    2.8665    2.4075    0.0000 H   0  0  0  0  0  0  0  0  0  0  0  0
    6.6243   -3.3885    0.0000 H   0  0  0  0  0  0  0  0  0  0  0  0
    8.3563   -4.4623    0.0000 H   0  0  0  0  0  0  0  0  0  0  0  0
    9.2033   -4.2354    0.0000 H   0  0  0  0  0  0  0  0  0  0  0  0
    8.9763   -3.3885    0.0000 H   0  0  0  0  0  0  0  0  0  0  0  0
    6.3973   -4.2354    0.0000 H   0  0  0  0  0  0  0  0  0  0  0  0
    7.2443   -4.4623    0.0000 H   0  0  0  0  0  0  0  0  0  0  0  0
   10.9353   -0.6154    0.0000 H   0  0  0  0  0  0  0  0  0  0  0  0
    7.8003    3.1946    0.0000 H   0  0  0  0  0  0  0  0  0  0  0  0
   10.3984    1.6946    0.0000 H   0  0  0  0  0  0  0  0  0  0  0  0
    3.7865    3.9254    0.0000 H   0  0  0  0  0  0  0  0  0  0  0  0
    2.0000    0.8584    0.0000 H   0  0  0  0  0  0  0  0  0  0  0  0
  1 10  1  0  0  0  0
  1 14  1  0  0  0  0
  2 15  1  0  0  0  0
  2 41  1  0  0  0  0
  3 17  1  0  0  0  0
  3 42  1  0  0  0  0
  4 18  1  0  0  0  0
  4 43  1  0  0  0  0
  5 21  1  0  0  0  0
  5 44  1  0  0  0  0
  6 19  2  0  0  0  0
  7 24  1  0  0  0  0
  7 45  1  0  0  0  0
  8 10  1  0  0  0  0
  8 11  2  0  0  0  0
  8 16  1  0  0  0  0
  9 11  1  0  0  0  0
  9 12  1  0  0  0  0
  9 15  2  0  0  0  0
 10 17  2  0  0  0  0
 11 28  1  0  0  0  0
 12 20  1  0  0  0  0
 12 29  1  0  0  0  0
 12 30  1  0  0  0  0
 13 14  1  0  0  0  0
 13 19  1  0  0  0  0
 13 21  2  0  0  0  0
 14 22  2  0  0  0  0
 15 18  1  0  0  0  0
 16 18  2  0  0  0  0
 16 31  1  0  0  0  0
 17 19  1  0  0  0  0
 20 23  2  0  0  0  0
 20 32  1  0  0  0  0
 21 25  1  0  0  0  0
 22 24  1  0  0  0  0
 22 33  1  0  0  0  0
 23 26  1  0  0  0  0
 23 27  1  0  0  0  0
 24 25  2  0  0  0  0
 25 34  1  0  0  0  0
 26 35  1  0  0  0  0
 26 39  1  0  0  0  0
 26 40  1  0  0  0  0
 27 36  1  0  0  0  0
 27 37  1  0  0  0  0
 27 38  1  0  0  0  0
M  END
>  <PUBCHEM_COMPOUND_CID>
5315126

>  <PUBCHEM_COMPOUND_CANONICALIZED>
1

>  <PUBCHEM_CACTVS_COMPLEXITY>
636

>  <PUBCHEM_CACTVS_HBOND_ACCEPTOR>
7

>  <PUBCHEM_CACTVS_HBOND_DONOR>
5

>  <PUBCHEM_CACTVS_ROTATABLE_BOND>
3

>  <PUBCHEM_CACTVS_SUBSKEYS>
AAADceB4OAAAAAAAAAAAAAAAAAAAAAAAAAAwYIAAAAAAAACBQAAAGgAACAAADASAmAAyBoAABgCIAqBSAAICCAAkIAAAiAFGiMgNJzaGNRqCeWGl4BUJuQfI7PzOIAADCAAIQABAAAYQABCAAAAAAAAAAA==

>  <PUBCHEM_IUPAC_OPENEYE_NAME>
2-[3,4-dihydroxy-5-(3-methylbut-2-enyl)phenyl]-3,5,7-trihydroxy-chromen-4-one

>  <PUBCHEM_IUPAC_CAS_NAME>
2-[3,4-dihydroxy-5-(3-methylbut-2-enyl)phenyl]-3,5,7-trihydroxy-1-benzopyran-4-one

>  <PUBCHEM_IUPAC_NAME>
2-[3,4-dihydroxy-5-(3-methylbut-2-enyl)phenyl]-3,5,7-trihydroxychromen-4-one

>  <PUBCHEM_IUPAC_SYSTEMATIC_NAME>
2-[3-(3-methylbut-2-enyl)-4,5-bis(oxidanyl)phenyl]-3,5,7-tris(oxidanyl)chromen-4-one

>  <PUBCHEM_IUPAC_TRADITIONAL_NAME>
2-[3,4-dihydroxy-5-(3-methylbut-2-enyl)phenyl]-3,5,7-trihydroxy-chromone

>  <PUBCHEM_IUPAC_INCHI>
InChI=1S/C20H18O7/c1-9(2)3-4-10-5-11(6-14(23)17(10)24)20-19(26)18(25)16-13(22)7-12(21)8-15(16)27-20/h3,5-8,21-24,26H,4H2,1-2H3

>  <PUBCHEM_IUPAC_INCHIKEY>
WOMWVGHYSNATOB-UHFFFAOYSA-N

>  <PUBCHEM_XLOGP3>
3.5

>  <PUBCHEM_EXACT_MASS>
370.105

>  <PUBCHEM_MOLECULAR_FORMULA>
C20H18O7

>  <PUBCHEM_MOLECULAR_WEIGHT>
370.357

>  <PUBCHEM_OPENEYE_CAN_SMILES>
CC(=CCC1=C(C(=CC(=C1)C2=C(C(=O)C3=C(C=C(C=C3O2)O)O)O)O)O)C

>  <PUBCHEM_OPENEYE_ISO_SMILES>
CC(=CCC1=C(C(=CC(=C1)C2=C(C(=O)C3=C(C=C(C=C3O2)O)O)O)O)O)C

>  <PUBCHEM_CACTVS_TPSA>
127

>  <PUBCHEM_MONOISOTOPIC_WEIGHT>
370.105

>  <PUBCHEM_TOTAL_CHARGE>
0

>  <PUBCHEM_HEAVY_ATOM_COUNT>
27

>  <PUBCHEM_ATOM_DEF_STEREO_COUNT>
0

>  <PUBCHEM_ATOM_UDEF_STEREO_COUNT>
0

>  <PUBCHEM_BOND_DEF_STEREO_COUNT>
0

>  <PUBCHEM_BOND_UDEF_STEREO_COUNT>
0

>  <PUBCHEM_ISOTOPIC_ATOM_COUNT>
0

>  <PUBCHEM_COMPONENT_COUNT>
1

>  <PUBCHEM_CACTVS_TAUTO_COUNT>
998

>  <PUBCHEM_COORDINATE_TYPE>
1
5
255

>  <PUBCHEM_BONDANNOTATIONS>
1  10  8
1  14  8
10  17  8
13  14  8
13  19  8
13  21  8
14  22  8
15  18  8
16  18  8
17  19  8
21  25  8
22  24  8
24  25  8
8  11  8
8  16  8
9  11  8
9  15  8

$$$$
