5315773
 OpenBabel06101807152D

 42 44  0  0  0  0  0  0  0  0999 V2000
    6.3981   -0.2704    0.0000 O   0  0  0  0  0  0  0  0  0  0  0  0
    8.1301    1.7296    0.0000 O   0  0  0  0  0  0  0  0  0  0  0  0
    2.8680    1.7538    0.0000 O   0  0  0  0  0  0  0  0  0  0  0  0
    4.6497    2.7642    0.0000 O   0  0  0  0  0  0  0  0  0  0  0  0
    6.3981    2.7296    0.0000 O   0  0  0  0  0  0  0  0  0  0  0  0
    2.8680   -0.2945    0.0000 O   0  0  0  0  0  0  0  0  0  0  0  0
   10.7282   -1.7704    0.0000 O   0  0  0  0  0  0  0  0  0  0  0  0
    8.9962   -2.7704    0.0000 O   0  0  0  0  0  0  0  0  0  0  0  0
    5.5320    1.2296    0.0000 C   0  0  0  0  0  0  0  0  0  0  0  0
    5.5320    0.2296    0.0000 C   0  0  0  0  0  0  0  0  0  0  0  0
    7.2641    0.2296    0.0000 C   0  0  0  0  0  0  0  0  0  0  0  0
    7.2641    1.2296    0.0000 C   0  0  0  0  0  0  0  0  0  0  0  0
    6.3981    1.7296    0.0000 C   0  0  0  0  0  0  0  0  0  0  0  0
    8.1301   -0.2704    0.0000 C   0  0  0  0  0  0  0  0  0  0  0  0
    4.6381    1.7643    0.0000 C   0  0  0  0  0  0  0  0  0  0  0  0
    4.6381   -0.3051    0.0000 C   0  0  0  0  0  0  0  0  0  0  0  0
    3.7320    1.2504    0.0000 C   0  0  0  0  0  0  0  0  0  0  0  0
    3.7320    0.2088    0.0000 C   0  0  0  0  0  0  0  0  0  0  0  0
    8.1301   -1.2704    0.0000 C   0  0  0  0  0  0  0  0  0  0  0  0
    8.9962    0.2296    0.0000 C   0  0  0  0  0  0  0  0  0  0  0  0
    8.9962   -1.7704    0.0000 C   0  0  0  0  0  0  0  0  0  0  0  0
    9.8622   -0.2704    0.0000 C   0  0  0  0  0  0  0  0  0  0  0  0
    9.8622   -1.2704    0.0000 C   0  0  0  0  0  0  0  0  0  0  0  0
    8.1301    2.7296    0.0000 C   0  0  0  0  0  0  0  0  0  0  0  0
    2.0000    1.2571    0.0000 C   0  0  0  0  0  0  0  0  0  0  0  0
   11.5942   -1.2704    0.0000 C   0  0  0  0  0  0  0  0  0  0  0  0
    4.6453   -0.9250    0.0000 H   0  0  0  0  0  0  0  0  0  0  0  0
    7.5932   -1.5804    0.0000 H   0  0  0  0  0  0  0  0  0  0  0  0
    8.9962    0.8496    0.0000 H   0  0  0  0  0  0  0  0  0  0  0  0
   10.3991    0.0396    0.0000 H   0  0  0  0  0  0  0  0  0  0  0  0
    4.1164    3.0804    0.0000 H   0  0  0  0  0  0  0  0  0  0  0  0
    8.7501    2.7296    0.0000 H   0  0  0  0  0  0  0  0  0  0  0  0
    8.1301    3.3496    0.0000 H   0  0  0  0  0  0  0  0  0  0  0  0
    7.5101    2.7296    0.0000 H   0  0  0  0  0  0  0  0  0  0  0  0
    2.8703   -0.9145    0.0000 H   0  0  0  0  0  0  0  0  0  0  0  0
    1.6921    1.7952    0.0000 H   0  0  0  0  0  0  0  0  0  0  0  0
    1.4619    0.9492    0.0000 H   0  0  0  0  0  0  0  0  0  0  0  0
    2.3079    0.7190    0.0000 H   0  0  0  0  0  0  0  0  0  0  0  0
    9.5331   -3.0804    0.0000 H   0  0  0  0  0  0  0  0  0  0  0  0
   11.9042   -1.8073    0.0000 H   0  0  0  0  0  0  0  0  0  0  0  0
   12.1312   -0.9604    0.0000 H   0  0  0  0  0  0  0  0  0  0  0  0
   11.2842   -0.7335    0.0000 H   0  0  0  0  0  0  0  0  0  0  0  0
  1 10  1  0  0  0  0
  1 11  1  0  0  0  0
  2 12  1  0  0  0  0
  2 24  1  0  0  0  0
  3 17  1  0  0  0  0
  3 25  1  0  0  0  0
  4 15  1  0  0  0  0
  4 31  1  0  0  0  0
  5 13  2  0  0  0  0
  6 18  1  0  0  0  0
  6 35  1  0  0  0  0
  7 23  1  0  0  0  0
  7 26  1  0  0  0  0
  8 21  1  0  0  0  0
  8 39  1  0  0  0  0
  9 10  2  0  0  0  0
  9 13  1  0  0  0  0
  9 15  1  0  0  0  0
 10 16  1  0  0  0  0
 11 12  2  0  0  0  0
 11 14  1  0  0  0  0
 12 13  1  0  0  0  0
 14 19  2  0  0  0  0
 14 20  1  0  0  0  0
 15 17  2  0  0  0  0
 16 18  2  0  0  0  0
 16 27  1  0  0  0  0
 17 18  1  0  0  0  0
 19 21  1  0  0  0  0
 19 28  1  0  0  0  0
 20 22  2  0  0  0  0
 20 29  1  0  0  0  0
 21 23  2  0  0  0  0
 22 23  1  0  0  0  0
 22 30  1  0  0  0  0
 24 32  1  0  0  0  0
 24 33  1  0  0  0  0
 24 34  1  0  0  0  0
 25 36  1  0  0  0  0
 25 37  1  0  0  0  0
 25 38  1  0  0  0  0
 26 40  1  0  0  0  0
 26 41  1  0  0  0  0
 26 42  1  0  0  0  0
M  END
>  <PUBCHEM_COMPOUND_CID>
5315773

>  <PUBCHEM_COMPOUND_CANONICALIZED>
1

>  <PUBCHEM_CACTVS_COMPLEXITY>
561

>  <PUBCHEM_CACTVS_HBOND_ACCEPTOR>
8

>  <PUBCHEM_CACTVS_HBOND_DONOR>
3

>  <PUBCHEM_CACTVS_ROTATABLE_BOND>
4

>  <PUBCHEM_CACTVS_SUBSKEYS>
AAADceB4PAAAAAAAAAAAAAAAAAAAAAAAAAAwYIAAAAAAAACBQAAAGgAACAAADASAmAIyBoAABgCIAqBSAAICCAAkIAAIiAFGiMgNJzaGNR6CeWOl4BULuQfK7LzOIQABCAAIQABCAAIQABCAAAAAAAAAAA==

>  <PUBCHEM_IUPAC_OPENEYE_NAME>
5,7-dihydroxy-2-(3-hydroxy-4-methoxy-phenyl)-3,6-dimethoxy-chromen-4-one

>  <PUBCHEM_IUPAC_CAS_NAME>
5,7-dihydroxy-2-(3-hydroxy-4-methoxyphenyl)-3,6-dimethoxy-1-benzopyran-4-one

>  <PUBCHEM_IUPAC_NAME>
5,7-dihydroxy-2-(3-hydroxy-4-methoxyphenyl)-3,6-dimethoxychromen-4-one

>  <PUBCHEM_IUPAC_SYSTEMATIC_NAME>
3,6-dimethoxy-2-(4-methoxy-3-oxidanyl-phenyl)-5,7-bis(oxidanyl)chromen-4-one

>  <PUBCHEM_IUPAC_TRADITIONAL_NAME>
5,7-dihydroxy-2-(3-hydroxy-4-methoxy-phenyl)-3,6-dimethoxy-chromone

>  <PUBCHEM_IUPAC_INCHI>
InChI=1S/C18H16O8/c1-23-11-5-4-8(6-9(11)19)16-18(25-3)15(22)13-12(26-16)7-10(20)17(24-2)14(13)21/h4-7,19-21H,1-3H3

>  <PUBCHEM_IUPAC_INCHIKEY>
BZXULYMZYPRZOG-UHFFFAOYSA-N

>  <PUBCHEM_XLOGP3_AA>
2.8

>  <PUBCHEM_EXACT_MASS>
360.085

>  <PUBCHEM_MOLECULAR_FORMULA>
C18H16O8

>  <PUBCHEM_MOLECULAR_WEIGHT>
360.318

>  <PUBCHEM_OPENEYE_CAN_SMILES>
COC1=C(C=C(C=C1)C2=C(C(=O)C3=C(C(=C(C=C3O2)O)OC)O)OC)O

>  <PUBCHEM_OPENEYE_ISO_SMILES>
COC1=C(C=C(C=C1)C2=C(C(=O)C3=C(C(=C(C=C3O2)O)OC)O)OC)O

>  <PUBCHEM_CACTVS_TPSA>
115

>  <PUBCHEM_MONOISOTOPIC_WEIGHT>
360.085

>  <PUBCHEM_TOTAL_CHARGE>
0

>  <PUBCHEM_HEAVY_ATOM_COUNT>
26

>  <PUBCHEM_ATOM_DEF_STEREO_COUNT>
0

>  <PUBCHEM_ATOM_UDEF_STEREO_COUNT>
0

>  <PUBCHEM_BOND_DEF_STEREO_COUNT>
0

>  <PUBCHEM_BOND_UDEF_STEREO_COUNT>
0

>  <PUBCHEM_ISOTOPIC_ATOM_COUNT>
0

>  <PUBCHEM_COMPONENT_COUNT>
1

>  <PUBCHEM_CACTVS_TAUTO_COUNT>
36

>  <PUBCHEM_COORDINATE_TYPE>
1
5
255

>  <PUBCHEM_BONDANNOTATIONS>
1  10  8
1  11  8
10  16  8
11  12  8
12  13  8
14  19  8
14  20  8
15  17  8
16  18  8
17  18  8
19  21  8
20  22  8
21  23  8
22  23  8
9  10  8
9  13  8
9  15  8

$$$$
