5315206
 OpenBabel06101807152D

 74 78  0  0  1  0  0  0  0  0999 V2000
    5.1350   -2.0000    0.0000 O   0  0  0  0  0  0  0  0  0  0  0  0
    6.0010    2.5000    0.0000 O   0  0  0  0  0  0  0  0  0  0  0  0
    6.8671   -2.0000    0.0000 O   0  0  0  0  0  0  0  0  0  0  0  0
    5.1350    1.0000    0.0000 O   0  0  0  0  0  0  0  0  0  0  0  0
    5.1350   -5.0000    0.0000 O   0  0  0  0  0  0  0  0  0  0  0  0
    3.4030   -4.0000    0.0000 O   0  0  0  0  0  0  0  0  0  0  0  0
    3.4030    4.0000    0.0000 O   0  0  0  0  0  0  0  0  0  0  0  0
    5.1350    5.0000    0.0000 O   0  0  0  0  0  0  0  0  0  0  0  0
    6.8671   -4.0000    0.0000 O   0  0  0  0  0  0  0  0  0  0  0  0
    3.4030    2.0000    0.0000 O   0  0  0  0  0  0  0  0  0  0  0  0
    2.5369   -2.5000    0.0000 O   0  0  0  0  0  0  0  0  0  0  0  0
    7.7331    3.5000    0.0000 O   0  0  0  0  0  0  0  0  0  0  0  0
    8.6270   -1.0347    0.0000 O   0  0  0  0  0  0  0  0  0  0  0  0
    5.1350   -1.0000    0.0000 O   0  0  0  0  0  0  0  0  0  0  0  0
    6.8671    2.0000    0.0000 O   0  0  0  0  0  0  0  0  0  0  0  0
    8.6155    2.0346    0.0000 O   0  0  0  0  0  0  0  0  0  0  0  0
   12.9895   -2.5342    0.0000 O   0  0  0  0  0  0  0  0  0  0  0  0
    5.1350   -4.0000    0.0000 C   0  0  1  0  0  0  0  0  0  0  0  0
    4.2690   -3.5000    0.0000 C   0  0  1  0  0  0  0  0  0  0  0  0
    4.2690    3.5000    0.0000 C   0  0  1  0  0  0  0  0  0  0  0  0
    5.1350    4.0000    0.0000 C   0  0  1  0  0  0  0  0  0  0  0  0
    6.0010   -3.5000    0.0000 C   0  0  2  0  0  0  0  0  0  0  0  0
    4.2690    2.5000    0.0000 C   0  0  2  0  0  0  0  0  0  0  0  0
    4.2690   -2.5000    0.0000 C   0  0  1  0  0  0  0  0  0  0  0  0
    6.0010    3.5000    0.0000 C   0  0  1  0  0  0  0  0  0  0  0  0
    6.0010   -2.5000    0.0000 C   0  0  1  0  0  0  0  0  0  0  0  0
    5.1350    2.0000    0.0000 C   0  0  1  0  0  0  0  0  0  0  0  0
    3.4030   -2.0000    0.0000 C   0  0  0  0  0  0  0  0  0  0  0  0
    6.8671    4.0000    0.0000 C   0  0  0  0  0  0  0  0  0  0  0  0
    6.8671   -1.0000    0.0000 C   0  0  0  0  0  0  0  0  0  0  0  0
    6.0010    0.5000    0.0000 C   0  0  0  0  0  0  0  0  0  0  0  0
    6.0010   -0.5000    0.0000 C   0  0  0  0  0  0  0  0  0  0  0  0
    7.7331   -0.5000    0.0000 C   0  0  0  0  0  0  0  0  0  0  0  0
    6.8671    1.0000    0.0000 C   0  0  0  0  0  0  0  0  0  0  0  0
    7.7331    0.5000    0.0000 C   0  0  0  0  0  0  0  0  0  0  0  0
    8.6270    1.0347    0.0000 C   0  0  0  0  0  0  0  0  0  0  0  0
    9.5331   -0.5208    0.0000 C   0  0  0  0  0  0  0  0  0  0  0  0
    9.5331    0.5208    0.0000 C   0  0  0  0  0  0  0  0  0  0  0  0
   10.3972   -1.0241    0.0000 C   0  0  0  0  0  0  0  0  0  0  0  0
   10.3933   -2.0241    0.0000 C   0  0  0  0  0  0  0  0  0  0  0  0
   11.2651   -0.5275    0.0000 C   0  0  0  0  0  0  0  0  0  0  0  0
   11.2574   -2.5275    0.0000 C   0  0  0  0  0  0  0  0  0  0  0  0
   12.1292   -1.0308    0.0000 C   0  0  0  0  0  0  0  0  0  0  0  0
   12.1254   -2.0308    0.0000 C   0  0  0  0  0  0  0  0  0  0  0  0
    5.6720   -4.3100    0.0000 H   0  0  0  0  0  0  0  0  0  0  0  0
    4.2690   -4.1200    0.0000 H   0  0  0  0  0  0  0  0  0  0  0  0
    4.2690    4.1200    0.0000 H   0  0  0  0  0  0  0  0  0  0  0  0
    5.6720    4.3100    0.0000 H   0  0  0  0  0  0  0  0  0  0  0  0
    6.5380   -3.1900    0.0000 H   0  0  0  0  0  0  0  0  0  0  0  0
    4.2690    1.8800    0.0000 H   0  0  0  0  0  0  0  0  0  0  0  0
    4.2690   -1.8800    0.0000 H   0  0  0  0  0  0  0  0  0  0  0  0
    6.5380    3.1900    0.0000 H   0  0  0  0  0  0  0  0  0  0  0  0
    6.0010   -1.8800    0.0000 H   0  0  0  0  0  0  0  0  0  0  0  0
    5.6720    1.6900    0.0000 H   0  0  0  0  0  0  0  0  0  0  0  0
    3.8015   -1.5250    0.0000 H   0  0  0  0  0  0  0  0  0  0  0  0
    3.0044   -1.5250    0.0000 H   0  0  0  0  0  0  0  0  0  0  0  0
    7.2656    4.4750    0.0000 H   0  0  0  0  0  0  0  0  0  0  0  0
    6.4685    4.4750    0.0000 H   0  0  0  0  0  0  0  0  0  0  0  0
    4.5981   -5.3100    0.0000 H   0  0  0  0  0  0  0  0  0  0  0  0
    3.4030   -4.6200    0.0000 H   0  0  0  0  0  0  0  0  0  0  0  0
    3.4030    4.6200    0.0000 H   0  0  0  0  0  0  0  0  0  0  0  0
    5.6720    5.3100    0.0000 H   0  0  0  0  0  0  0  0  0  0  0  0
    6.8671   -4.6200    0.0000 H   0  0  0  0  0  0  0  0  0  0  0  0
    2.8660    2.3100    0.0000 H   0  0  0  0  0  0  0  0  0  0  0  0
    2.0000   -2.1900    0.0000 H   0  0  0  0  0  0  0  0  0  0  0  0
    8.2700    3.8100    0.0000 H   0  0  0  0  0  0  0  0  0  0  0  0
    4.5981   -0.6900    0.0000 H   0  0  0  0  0  0  0  0  0  0  0  0
   10.0688    0.8329    0.0000 H   0  0  0  0  0  0  0  0  0  0  0  0
    7.4040    2.3100    0.0000 H   0  0  0  0  0  0  0  0  0  0  0  0
    9.8552   -2.3321    0.0000 H   0  0  0  0  0  0  0  0  0  0  0  0
   11.2675    0.0925    0.0000 H   0  0  0  0  0  0  0  0  0  0  0  0
   11.2550   -3.1475    0.0000 H   0  0  0  0  0  0  0  0  0  0  0  0
   12.6674   -0.7229    0.0000 H   0  0  0  0  0  0  0  0  0  0  0  0
   13.5276   -2.2262    0.0000 H   0  0  0  0  0  0  0  0  0  0  0  0
  1 24  1  0  0  0  0
  1 26  1  0  0  0  0
  2 25  1  0  0  0  0
  2 27  1  0  0  0  0
  3 30  1  0  0  0  0
  4 31  1  0  0  0  0
  5 59  1  0  0  0  0
  6 60  1  0  0  0  0
  7 61  1  0  0  0  0
  8 62  1  0  0  0  0
  9 63  1  0  0  0  0
 10 64  1  0  0  0  0
 11 28  1  0  0  0  0
 11 65  1  0  0  0  0
 12 29  1  0  0  0  0
 12 66  1  0  0  0  0
 13 33  1  0  0  0  0
 13 37  1  0  0  0  0
 14 32  1  0  0  0  0
 14 67  1  0  0  0  0
 15 34  1  0  0  0  0
 15 69  1  0  0  0  0
 16 36  2  0  0  0  0
 17 44  1  0  0  0  0
 17 74  1  0  0  0  0
 18  5  1  0  0  0  0
 18 19  1  6  0  0  0
 18 45  1  0  0  0  0
 19  6  1  0  0  0  0
 19 24  1  1  0  0  0
 19 46  1  0  0  0  0
 20  7  1  0  0  0  0
 20 21  1  1  0  0  0
 20 47  1  0  0  0  0
 21  8  1  0  0  0  0
 21 25  1  6  0  0  0
 21 48  1  0  0  0  0
 22  9  1  0  0  0  0
 22 18  1  1  0  0  0
 22 49  1  0  0  0  0
 23 10  1  0  0  0  0
 23 20  1  1  0  0  0
 23 50  1  0  0  0  0
 24 28  1  0  0  0  0
 24 51  1  6  0  0  0
 25 29  1  0  0  0  0
 25 52  1  6  0  0  0
 26  3  1  0  0  0  0
 26 22  1  6  0  0  0
 26 53  1  0  0  0  0
 27  4  1  0  0  0  0
 27 23  1  6  0  0  0
 27 54  1  0  0  0  0
 28 55  1  0  0  0  0
 28 56  1  0  0  0  0
 29 57  1  0  0  0  0
 29 58  1  0  0  0  0
 30 32  1  0  0  0  0
 30 33  2  0  0  0  0
 31 32  2  0  0  0  0
 31 34  1  0  0  0  0
 33 35  1  0  0  0  0
 34 35  2  0  0  0  0
 35 36  1  0  0  0  0
 36 38  1  0  0  0  0
 37 38  2  0  0  0  0
 37 39  1  0  0  0  0
 38 68  1  0  0  0  0
 39 40  2  0  0  0  0
 39 41  1  0  0  0  0
 40 42  1  0  0  0  0
 40 70  1  0  0  0  0
 41 43  2  0  0  0  0
 41 71  1  0  0  0  0
 42 44  2  0  0  0  0
 42 72  1  0  0  0  0
 43 44  1  0  0  0  0
 43 73  1  0  0  0  0
M  END
>  <PUBCHEM_COMPOUND_CID>
5315206

>  <PUBCHEM_COMPOUND_CANONICALIZED>
1

>  <PUBCHEM_CACTVS_COMPLEXITY>
1020

>  <PUBCHEM_CACTVS_HBOND_ACCEPTOR>
17

>  <PUBCHEM_CACTVS_HBOND_DONOR>
11

>  <PUBCHEM_CACTVS_ROTATABLE_BOND>
7

>  <PUBCHEM_CACTVS_SUBSKEYS>
AAADceB4PgAAAAAAAAAAAAAAAAAAAAAAAAA0aIECAAAAAACBQAAAGgAACAAADBSwmAMwDoAABgCIAqBSAAACCAAkIAAIiAEGiMgdNzaGNRqieWOl4BUPuQfK7LzOIQABCAAIQABCAAIQABCAAAAAAAAAAA==

>  <PUBCHEM_IUPAC_OPENEYE_NAME>
5,7-dihydroxy-2-(4-hydroxyphenyl)-6,8-bis[[(2S,3R,4S,5S,6R)-3,4,5-trihydroxy-6-(hydroxymethyl)tetrahydropyran-2-yl]oxy]chromen-4-one

>  <PUBCHEM_IUPAC_CAS_NAME>
5,7-dihydroxy-2-(4-hydroxyphenyl)-6,8-bis[[(2S,3R,4S,5S,6R)-3,4,5-trihydroxy-6-(hydroxymethyl)-2-oxanyl]oxy]-1-benzopyran-4-one

>  <PUBCHEM_IUPAC_NAME>
5,7-dihydroxy-2-(4-hydroxyphenyl)-6,8-bis[[(2S,3R,4S,5S,6R)-3,4,5-trihydroxy-6-(hydroxymethyl)oxan-2-yl]oxy]chromen-4-one

>  <PUBCHEM_IUPAC_SYSTEMATIC_NAME>
6,8-bis[[(2S,3R,4S,5S,6R)-6-(hydroxymethyl)-3,4,5-tris(oxidanyl)oxan-2-yl]oxy]-2-(4-hydroxyphenyl)-5,7-bis(oxidanyl)chromen-4-one

>  <PUBCHEM_IUPAC_TRADITIONAL_NAME>
5,7-dihydroxy-2-(4-hydroxyphenyl)-6,8-bis[[(2S,3R,4S,5S,6R)-3,4,5-trihydroxy-6-methylol-tetrahydropyran-2-yl]oxy]chromone

>  <PUBCHEM_IUPAC_INCHI>
InChI=1S/C27H30O17/c28-6-12-15(32)18(35)20(37)26(41-12)43-24-17(34)14-10(31)5-11(8-1-3-9(30)4-2-8)40-23(14)25(22(24)39)44-27-21(38)19(36)16(33)13(7-29)42-27/h1-5,12-13,15-16,18-21,26-30,32-39H,6-7H2/t12-,13-,15-,16-,18+,19+,20-,21-,26+,27+/m1/s1

>  <PUBCHEM_IUPAC_INCHIKEY>
CSNXTSWTBUEIJB-PXJYGDGDSA-N

>  <PUBCHEM_XLOGP3_AA>
-1.7

>  <PUBCHEM_EXACT_MASS>
626.148

>  <PUBCHEM_MOLECULAR_FORMULA>
C27H30O17

>  <PUBCHEM_MOLECULAR_WEIGHT>
626.52

>  <PUBCHEM_OPENEYE_CAN_SMILES>
C1=CC(=CC=C1C2=CC(=O)C3=C(O2)C(=C(C(=C3O)OC4C(C(C(C(O4)CO)O)O)O)O)OC5C(C(C(C(O5)CO)O)O)O)O

>  <PUBCHEM_OPENEYE_ISO_SMILES>
C1=CC(=CC=C1C2=CC(=O)C3=C(O2)C(=C(C(=C3O)O[C@H]4[C@@H]([C@H]([C@@H]([C@H](O4)CO)O)O)O)O)O[C@H]5[C@@H]([C@H]([C@@H]([C@H](O5)CO)O)O)O)O

>  <PUBCHEM_CACTVS_TPSA>
286

>  <PUBCHEM_MONOISOTOPIC_WEIGHT>
626.148

>  <PUBCHEM_TOTAL_CHARGE>
0

>  <PUBCHEM_HEAVY_ATOM_COUNT>
44

>  <PUBCHEM_ATOM_DEF_STEREO_COUNT>
10

>  <PUBCHEM_ATOM_UDEF_STEREO_COUNT>
0

>  <PUBCHEM_BOND_DEF_STEREO_COUNT>
0

>  <PUBCHEM_BOND_UDEF_STEREO_COUNT>
0

>  <PUBCHEM_ISOTOPIC_ATOM_COUNT>
0

>  <PUBCHEM_COMPONENT_COUNT>
1

>  <PUBCHEM_CACTVS_TAUTO_COUNT>
57

>  <PUBCHEM_COORDINATE_TYPE>
1
5
255

>  <PUBCHEM_BONDANNOTATIONS>
23  10  6
13  33  8
13  37  8
24  28  5
25  29  5
26  3  5
30  32  8
30  33  8
31  32  8
31  34  8
33  35  8
34  35  8
35  36  8
36  38  8
37  38  8
39  40  8
39  41  8
27  4  5
40  42  8
41  43  8
42  44  8
43  44  8
18  5  5
19  6  6
20  7  5
21  8  6
22  9  6

$$$$
