5315503
 OpenBabel06101807152D

 37 38  0  0  0  0  0  0  0  0999 V2000
    2.8660   -0.9050    0.0000 O   0  0  0  0  0  0  0  0  0  0  0  0
    4.5981   -3.9050    0.0000 O   0  0  0  0  0  0  0  0  0  0  0  0
    8.9282    3.5950    0.0000 O   0  0  0  0  0  0  0  0  0  0  0  0
    5.4641    0.5950    0.0000 C   0  0  0  0  0  0  0  0  0  0  0  0
    4.5981    0.0950    0.0000 C   0  0  0  0  0  0  0  0  0  0  0  0
    5.4641    1.5950    0.0000 C   0  0  0  0  0  0  0  0  0  0  0  0
    4.5981   -0.9050    0.0000 C   0  0  0  0  0  0  0  0  0  0  0  0
    6.3301    2.0950    0.0000 C   0  0  0  0  0  0  0  0  0  0  0  0
    3.7320   -1.4050    0.0000 C   0  0  0  0  0  0  0  0  0  0  0  0
    5.4641   -1.4050    0.0000 C   0  0  0  0  0  0  0  0  0  0  0  0
    6.3301    3.0950    0.0000 C   0  0  0  0  0  0  0  0  0  0  0  0
    7.1962    1.5950    0.0000 C   0  0  0  0  0  0  0  0  0  0  0  0
    3.7320   -2.4050    0.0000 C   0  0  0  0  0  0  0  0  0  0  0  0
    5.4641   -2.4050    0.0000 C   0  0  0  0  0  0  0  0  0  0  0  0
    4.5981   -2.9050    0.0000 C   0  0  0  0  0  0  0  0  0  0  0  0
    7.1962    3.5950    0.0000 C   0  0  0  0  0  0  0  0  0  0  0  0
    8.0622    2.0950    0.0000 C   0  0  0  0  0  0  0  0  0  0  0  0
    8.0622    3.0950    0.0000 C   0  0  0  0  0  0  0  0  0  0  0  0
    2.0000   -1.4050    0.0000 C   0  0  0  0  0  0  0  0  0  0  0  0
    5.6762    0.0124    0.0000 H   0  0  0  0  0  0  0  0  0  0  0  0
    6.0747    0.7027    0.0000 H   0  0  0  0  0  0  0  0  0  0  0  0
    4.3860    0.6776    0.0000 H   0  0  0  0  0  0  0  0  0  0  0  0
    3.9875   -0.0127    0.0000 H   0  0  0  0  0  0  0  0  0  0  0  0
    5.2520    2.1776    0.0000 H   0  0  0  0  0  0  0  0  0  0  0  0
    4.8535    1.4873    0.0000 H   0  0  0  0  0  0  0  0  0  0  0  0
    6.0010   -1.0950    0.0000 H   0  0  0  0  0  0  0  0  0  0  0  0
    5.7932    3.4050    0.0000 H   0  0  0  0  0  0  0  0  0  0  0  0
    7.1962    0.9750    0.0000 H   0  0  0  0  0  0  0  0  0  0  0  0
    3.1951   -2.7150    0.0000 H   0  0  0  0  0  0  0  0  0  0  0  0
    6.0010   -2.7150    0.0000 H   0  0  0  0  0  0  0  0  0  0  0  0
    7.1962    4.2150    0.0000 H   0  0  0  0  0  0  0  0  0  0  0  0
    8.5991    1.7850    0.0000 H   0  0  0  0  0  0  0  0  0  0  0  0
    1.6900   -0.8681    0.0000 H   0  0  0  0  0  0  0  0  0  0  0  0
    1.4631   -1.7150    0.0000 H   0  0  0  0  0  0  0  0  0  0  0  0
    2.3100   -1.9419    0.0000 H   0  0  0  0  0  0  0  0  0  0  0  0
    5.1350   -4.2150    0.0000 H   0  0  0  0  0  0  0  0  0  0  0  0
    8.9282    4.2150    0.0000 H   0  0  0  0  0  0  0  0  0  0  0  0
  1  9  1  0  0  0  0
  1 19  1  0  0  0  0
  2 15  1  0  0  0  0
  2 36  1  0  0  0  0
  3 18  1  0  0  0  0
  3 37  1  0  0  0  0
  4  5  1  0  0  0  0
  4  6  1  0  0  0  0
  4 20  1  0  0  0  0
  4 21  1  0  0  0  0
  5  7  1  0  0  0  0
  5 22  1  0  0  0  0
  5 23  1  0  0  0  0
  6  8  1  0  0  0  0
  6 24  1  0  0  0  0
  6 25  1  0  0  0  0
  7  9  2  0  0  0  0
  7 10  1  0  0  0  0
  8 11  2  0  0  0  0
  8 12  1  0  0  0  0
  9 13  1  0  0  0  0
 10 14  2  0  0  0  0
 10 26  1  0  0  0  0
 11 16  1  0  0  0  0
 11 27  1  0  0  0  0
 12 17  2  0  0  0  0
 12 28  1  0  0  0  0
 13 15  2  0  0  0  0
 13 29  1  0  0  0  0
 14 15  1  0  0  0  0
 14 30  1  0  0  0  0
 16 18  2  0  0  0  0
 16 31  1  0  0  0  0
 17 18  1  0  0  0  0
 17 32  1  0  0  0  0
 19 33  1  0  0  0  0
 19 34  1  0  0  0  0
 19 35  1  0  0  0  0
M  END
>  <PUBCHEM_COMPOUND_CID>
5315503

>  <PUBCHEM_COMPOUND_CANONICALIZED>
1

>  <PUBCHEM_CACTVS_COMPLEXITY>
248

>  <PUBCHEM_CACTVS_HBOND_ACCEPTOR>
3

>  <PUBCHEM_CACTVS_HBOND_DONOR>
2

>  <PUBCHEM_CACTVS_ROTATABLE_BOND>
5

>  <PUBCHEM_CACTVS_SUBSKEYS>
AAADceB4MAAAAAAAAAAAAAAAAAAAAAAAAAAwYAAAAAAAAAABQAAAGgAACAAADASAmAIyBoAABgCAAiBCAAACCAAgIAAIiAAGCIgMJyKGMRqAcCAlwBUIuAeA4OwOIAAACAAIAABAAAAQABAAAAAAAAAAAA==

>  <PUBCHEM_IUPAC_OPENEYE_NAME>
4-[3-(4-hydroxyphenyl)propyl]-3-methoxy-phenol

>  <PUBCHEM_IUPAC_CAS_NAME>
4-[3-(4-hydroxyphenyl)propyl]-3-methoxyphenol

>  <PUBCHEM_IUPAC_NAME>
4-[3-(4-hydroxyphenyl)propyl]-3-methoxyphenol

>  <PUBCHEM_IUPAC_SYSTEMATIC_NAME>
4-[3-(4-hydroxyphenyl)propyl]-3-methoxy-phenol

>  <PUBCHEM_IUPAC_TRADITIONAL_NAME>
4-[3-(4-hydroxyphenyl)propyl]-3-methoxy-phenol

>  <PUBCHEM_IUPAC_INCHI>
InChI=1S/C16H18O3/c1-19-16-11-15(18)10-7-13(16)4-2-3-12-5-8-14(17)9-6-12/h5-11,17-18H,2-4H2,1H3

>  <PUBCHEM_IUPAC_INCHIKEY>
CJJJQWAYMRTLJT-UHFFFAOYSA-N

>  <PUBCHEM_XLOGP3_AA>
3.9

>  <PUBCHEM_EXACT_MASS>
258.126

>  <PUBCHEM_MOLECULAR_FORMULA>
C16H18O3

>  <PUBCHEM_MOLECULAR_WEIGHT>
258.317

>  <PUBCHEM_OPENEYE_CAN_SMILES>
COC1=C(C=CC(=C1)O)CCCC2=CC=C(C=C2)O

>  <PUBCHEM_OPENEYE_ISO_SMILES>
COC1=C(C=CC(=C1)O)CCCC2=CC=C(C=C2)O

>  <PUBCHEM_CACTVS_TPSA>
49.7

>  <PUBCHEM_MONOISOTOPIC_WEIGHT>
258.126

>  <PUBCHEM_TOTAL_CHARGE>
0

>  <PUBCHEM_HEAVY_ATOM_COUNT>
19

>  <PUBCHEM_ATOM_DEF_STEREO_COUNT>
0

>  <PUBCHEM_ATOM_UDEF_STEREO_COUNT>
0

>  <PUBCHEM_BOND_DEF_STEREO_COUNT>
0

>  <PUBCHEM_BOND_UDEF_STEREO_COUNT>
0

>  <PUBCHEM_ISOTOPIC_ATOM_COUNT>
0

>  <PUBCHEM_COMPONENT_COUNT>
1

>  <PUBCHEM_CACTVS_TAUTO_COUNT>
6

>  <PUBCHEM_COORDINATE_TYPE>
1
5
255

>  <PUBCHEM_BONDANNOTATIONS>
10  14  8
11  16  8
12  17  8
13  15  8
14  15  8
16  18  8
17  18  8
7  10  8
7  9  8
8  11  8
8  12  8
9  13  8

$$$$
