5315299
 OpenBabel06101807152D

 40 41  0  0  1  0  0  0  0  0999 V2000
    7.4226    1.4284    0.0000 O   0  0  0  0  0  0  0  0  0  0  0  0
    4.0835   -1.7134    0.0000 C   0  0  0  0  0  0  0  0  0  0  0  0
    4.4245   -0.7645    0.0000 C   0  0  3  0  0  0  0  0  0  0  0  0
    3.4848   -0.4225    0.0000 C   0  0  3  0  0  0  0  0  0  0  0  0
    3.1361   -1.3685    0.0000 C   0  0  0  0  0  0  0  0  0  0  0  0
    5.3642   -0.4225    0.0000 C   0  0  0  0  0  0  0  0  0  0  0  0
    3.7434   -2.6538    0.0000 C   0  0  0  0  0  0  0  0  0  0  0  0
    5.0239   -2.0535    0.0000 C   0  0  0  0  0  0  0  0  0  0  0  0
    2.9848    0.4436    0.0000 C   0  0  0  0  0  0  0  0  0  0  0  0
    5.8642    0.4436    0.0000 C   0  0  0  0  0  0  0  0  0  0  0  0
    3.1585    1.4284    0.0000 C   0  0  0  0  0  0  0  0  0  0  0  0
    5.6905    1.4284    0.0000 C   0  0  0  0  0  0  0  0  0  0  0  0
    3.9245    2.0712    0.0000 C   0  0  0  0  0  0  0  0  0  0  0  0
    2.0000    0.2699    0.0000 C   0  0  0  0  0  0  0  0  0  0  0  0
    4.9245    2.0712    0.0000 C   0  0  0  0  0  0  0  0  0  0  0  0
    6.5566    1.9284    0.0000 C   0  0  0  0  0  0  0  0  0  0  0  0
    4.8638   -1.2020    0.0000 H   0  0  0  0  0  0  0  0  0  0  0  0
    2.8671   -0.4752    0.0000 H   0  0  0  0  0  0  0  0  0  0  0  0
    2.5540   -1.1549    0.0000 H   0  0  0  0  0  0  0  0  0  0  0  0
    2.9232   -1.9508    0.0000 H   0  0  0  0  0  0  0  0  0  0  0  0
    5.4002   -1.0414    0.0000 H   0  0  0  0  0  0  0  0  0  0  0  0
    5.9675   -0.5654    0.0000 H   0  0  0  0  0  0  0  0  0  0  0  0
    4.8131   -2.6365    0.0000 H   0  0  0  0  0  0  0  0  0  0  0  0
    5.6070   -2.2643    0.0000 H   0  0  0  0  0  0  0  0  0  0  0  0
    3.1604   -2.4429    0.0000 H   0  0  0  0  0  0  0  0  0  0  0  0
    3.5326   -3.2368    0.0000 H   0  0  0  0  0  0  0  0  0  0  0  0
    4.3265   -2.8646    0.0000 H   0  0  0  0  0  0  0  0  0  0  0  0
    5.2348   -1.4704    0.0000 H   0  0  0  0  0  0  0  0  0  0  0  0
    6.2897   -0.0074    0.0000 H   0  0  0  0  0  0  0  0  0  0  0  0
    6.4182    0.7218    0.0000 H   0  0  0  0  0  0  0  0  0  0  0  0
    2.9129    1.9977    0.0000 H   0  0  0  0  0  0  0  0  0  0  0  0
    2.5426    1.3564    0.0000 H   0  0  0  0  0  0  0  0  0  0  0  0
    4.1023    2.6651    0.0000 H   0  0  0  0  0  0  0  0  0  0  0  0
    3.4065    2.4118    0.0000 H   0  0  0  0  0  0  0  0  0  0  0  0
    1.6015    0.7449    0.0000 H   0  0  0  0  0  0  0  0  0  0  0  0
    1.7880   -0.3127    0.0000 H   0  0  0  0  0  0  0  0  0  0  0  0
    5.1366    2.6538    0.0000 H   0  0  0  0  0  0  0  0  0  0  0  0
    6.9551    2.4033    0.0000 H   0  0  0  0  0  0  0  0  0  0  0  0
    6.1580    2.4033    0.0000 H   0  0  0  0  0  0  0  0  0  0  0  0
    7.9595    1.7384    0.0000 H   0  0  0  0  0  0  0  0  0  0  0  0
  1 16  1  0  0  0  0
  1 40  1  0  0  0  0
  2  3  1  0  0  0  0
  2  5  1  0  0  0  0
  2  7  1  0  0  0  0
  2  8  1  0  0  0  0
  3  4  1  0  0  0  0
  3  6  1  0  0  0  0
  3 17  1  0  0  0  0
  4  5  1  0  0  0  0
  4  9  1  0  0  0  0
  4 18  1  0  0  0  0
  5 19  1  0  0  0  0
  5 20  1  0  0  0  0
  6 10  1  0  0  0  0
  6 21  1  0  0  0  0
  6 22  1  0  0  0  0
  7 25  1  0  0  0  0
  7 26  1  0  0  0  0
  7 27  1  0  0  0  0
  8 23  1  0  0  0  0
  8 24  1  0  0  0  0
  8 28  1  0  0  0  0
  9 11  1  0  0  0  0
  9 14  2  0  0  0  0
 10 12  1  0  0  0  0
 10 29  1  0  0  0  0
 10 30  1  0  0  0  0
 11 13  1  0  0  0  0
 11 31  1  0  0  0  0
 11 32  1  0  0  0  0
 12 15  2  0  0  0  0
 12 16  1  0  0  0  0
 13 15  1  0  0  0  0
 13 33  1  0  0  0  0
 13 34  1  0  0  0  0
 14 35  1  0  0  0  0
 14 36  1  0  0  0  0
 15 37  1  0  0  0  0
 16 38  1  0  0  0  0
 16 39  1  0  0  0  0
M  END
>  <PUBCHEM_COMPOUND_CID>
5315299

>  <PUBCHEM_COMPOUND_CANONICALIZED>
1

>  <PUBCHEM_CACTVS_COMPLEXITY>
311

>  <PUBCHEM_CACTVS_HBOND_ACCEPTOR>
1

>  <PUBCHEM_CACTVS_HBOND_DONOR>
1

>  <PUBCHEM_CACTVS_ROTATABLE_BOND>
1

>  <PUBCHEM_CACTVS_SUBSKEYS>
AAADceBwIAAAAAAAAAAAAAAAAABgAAAAAAAAAAAAAAAAAEAAAAAAGgAACAAADwCggAICAAAAAgCAAiBCAAAAAAAgAAAACAAAAAgAFAIAAQAAUAAEgAAIEAOAwPAPgAAAAAAAAAAAAAAAAAAAAAAAAAAAAA==

>  <PUBCHEM_IUPAC_OPENEYE_NAME>
[(4E)-11,11-dimethyl-8-methylene-4-bicyclo[7.2.0]undec-4-enyl]methanol

>  <PUBCHEM_IUPAC_CAS_NAME>
[(4E)-11,11-dimethyl-8-methylene-4-bicyclo[7.2.0]undec-4-enyl]methanol

>  <PUBCHEM_IUPAC_NAME>
[(4E)-11,11-dimethyl-8-methylidene-4-bicyclo[7.2.0]undec-4-enyl]methanol

>  <PUBCHEM_IUPAC_SYSTEMATIC_NAME>
[(4E)-11,11-dimethyl-8-methylidene-4-bicyclo[7.2.0]undec-4-enyl]methanol

>  <PUBCHEM_IUPAC_TRADITIONAL_NAME>
[(4E)-11,11-dimethyl-8-methylene-4-bicyclo[7.2.0]undec-4-enyl]methanol

>  <PUBCHEM_IUPAC_INCHI>
InChI=1S/C15H24O/c1-11-5-4-6-12(10-16)7-8-14-13(11)9-15(14,2)3/h6,13-14,16H,1,4-5,7-10H2,2-3H3/b12-6+

>  <PUBCHEM_IUPAC_INCHIKEY>
MGIQTXDHQJGPEZ-WUXMJOGZSA-N

>  <PUBCHEM_XLOGP3_AA>
3.1

>  <PUBCHEM_EXACT_MASS>
220.183

>  <PUBCHEM_MOLECULAR_FORMULA>
C15H24O

>  <PUBCHEM_MOLECULAR_WEIGHT>
220.356

>  <PUBCHEM_OPENEYE_CAN_SMILES>
CC1(CC2C1CCC(=CCCC2=C)CO)C

>  <PUBCHEM_OPENEYE_ISO_SMILES>
CC1(CC2C1CC/C(=C\CCC2=C)/CO)C

>  <PUBCHEM_CACTVS_TPSA>
20.2

>  <PUBCHEM_MONOISOTOPIC_WEIGHT>
220.183

>  <PUBCHEM_TOTAL_CHARGE>
0

>  <PUBCHEM_HEAVY_ATOM_COUNT>
16

>  <PUBCHEM_ATOM_DEF_STEREO_COUNT>
0

>  <PUBCHEM_ATOM_UDEF_STEREO_COUNT>
2

>  <PUBCHEM_BOND_DEF_STEREO_COUNT>
1

>  <PUBCHEM_BOND_UDEF_STEREO_COUNT>
0

>  <PUBCHEM_ISOTOPIC_ATOM_COUNT>
0

>  <PUBCHEM_COMPONENT_COUNT>
1

>  <PUBCHEM_CACTVS_TAUTO_COUNT>
1

>  <PUBCHEM_COORDINATE_TYPE>
1
5
255

>  <PUBCHEM_BONDANNOTATIONS>
3  2  3
4  5  3

$$$$
