5316959
 OpenBabel06101807152D

 37 42  0  0  1  0  0  0  0  0999 V2000
    2.9180    1.3320    0.0000 O   0  0  0  0  0  0  0  0  0  0  0  0
    2.0000   -1.2164    0.0000 O   0  0  0  0  0  0  0  0  0  0  0  0
    5.5161   -0.1680    0.0000 O   0  0  0  0  0  0  0  0  0  0  0  0
    5.5740   -3.5326    0.0000 O   0  0  0  0  0  0  0  0  0  0  0  0
    4.0684   -4.4174    0.0000 O   0  0  0  0  0  0  0  0  0  0  0  0
    4.8839    4.4135    0.0000 O   0  0  0  0  0  0  0  0  0  0  0  0
    3.7841   -0.1680    0.0000 C   0  0  3  0  0  0  0  0  0  0  0  0
    2.9180    0.3320    0.0000 C   0  0  3  0  0  0  0  0  0  0  0  0
    3.8001   -1.2095    0.0000 C   0  0  0  0  0  0  0  0  0  0  0  0
    2.0080   -0.1748    0.0000 C   0  0  0  0  0  0  0  0  0  0  0  0
    4.6501    0.3320    0.0000 C   0  0  0  0  0  0  0  0  0  0  0  0
    2.9021   -1.7372    0.0000 C   0  0  0  0  0  0  0  0  0  0  0  0
    4.6501    1.3320    0.0000 C   0  0  0  0  0  0  0  0  0  0  0  0
    3.7841    1.8320    0.0000 C   0  0  0  0  0  0  0  0  0  0  0  0
    4.7520   -1.7301    0.0000 C   0  0  0  0  0  0  0  0  0  0  0  0
    2.8937   -2.8222    0.0000 C   0  0  0  0  0  0  0  0  0  0  0  0
    4.7688   -2.8150    0.0000 C   0  0  0  0  0  0  0  0  0  0  0  0
    5.5601    1.8388    0.0000 C   0  0  0  0  0  0  0  0  0  0  0  0
    3.8334   -3.3647    0.0000 C   0  0  0  0  0  0  0  0  0  0  0  0
    3.7680    2.8735    0.0000 C   0  0  0  0  0  0  0  0  0  0  0  0
    5.5681    2.8804    0.0000 C   0  0  0  0  0  0  0  0  0  0  0  0
    4.6660    3.4013    0.0000 C   0  0  0  0  0  0  0  0  0  0  0  0
    5.1420   -4.5209    0.0000 C   0  0  0  0  0  0  0  0  0  0  0  0
    6.3358    3.5753    0.0000 C   0  0  0  0  0  0  0  0  0  0  0  0
    5.9138    4.5209    0.0000 C   0  0  0  0  0  0  0  0  0  0  0  0
    4.3234   -0.4738    0.0000 H   0  0  0  0  0  0  0  0  0  0  0  0
    2.3835    0.6461    0.0000 H   0  0  0  0  0  0  0  0  0  0  0  0
    1.8035    0.4104    0.0000 H   0  0  0  0  0  0  0  0  0  0  0  0
    1.3964   -0.2762    0.0000 H   0  0  0  0  0  0  0  0  0  0  0  0
    5.2829   -1.4098    0.0000 H   0  0  0  0  0  0  0  0  0  0  0  0
    2.3556   -3.1301    0.0000 H   0  0  0  0  0  0  0  0  0  0  0  0
    6.0934    1.5227    0.0000 H   0  0  0  0  0  0  0  0  0  0  0  0
    3.2275    3.1773    0.0000 H   0  0  0  0  0  0  0  0  0  0  0  0
    5.0180   -5.1284    0.0000 H   0  0  0  0  0  0  0  0  0  0  0  0
    5.7331   -4.7081    0.0000 H   0  0  0  0  0  0  0  0  0  0  0  0
    6.9425    3.4474    0.0000 H   0  0  0  0  0  0  0  0  0  0  0  0
    6.2238    5.0578    0.0000 H   0  0  0  0  0  0  0  0  0  0  0  0
  1  8  1  0  0  0  0
  1 14  1  0  0  0  0
  2 10  1  0  0  0  0
  2 12  1  0  0  0  0
  3 11  2  0  0  0  0
  4 17  1  0  0  0  0
  4 23  1  0  0  0  0
  5 19  1  0  0  0  0
  5 23  1  0  0  0  0
  6 22  1  0  0  0  0
  6 25  1  0  0  0  0
  7  8  1  0  0  0  0
  7  9  1  0  0  0  0
  7 11  1  0  0  0  0
  7 26  1  0  0  0  0
  8 10  1  0  0  0  0
  8 27  1  0  0  0  0
  9 12  1  0  0  0  0
  9 15  2  0  0  0  0
 10 28  1  0  0  0  0
 10 29  1  0  0  0  0
 11 13  1  0  0  0  0
 12 16  2  0  0  0  0
 13 14  2  0  0  0  0
 13 18  1  0  0  0  0
 14 20  1  0  0  0  0
 15 17  1  0  0  0  0
 15 30  1  0  0  0  0
 16 19  1  0  0  0  0
 16 31  1  0  0  0  0
 17 19  2  0  0  0  0
 18 21  2  0  0  0  0
 18 32  1  0  0  0  0
 20 22  2  0  0  0  0
 20 33  1  0  0  0  0
 21 22  1  0  0  0  0
 21 24  1  0  0  0  0
 23 34  1  0  0  0  0
 23 35  1  0  0  0  0
 24 25  2  0  0  0  0
 24 36  1  0  0  0  0
 25 37  1  0  0  0  0
M  END
>  <PUBCHEM_COMPOUND_CID>
5316959

>  <PUBCHEM_COMPOUND_CANONICALIZED>
1

>  <PUBCHEM_CACTVS_COMPLEXITY>
566

>  <PUBCHEM_CACTVS_HBOND_ACCEPTOR>
6

>  <PUBCHEM_CACTVS_HBOND_DONOR>
0

>  <PUBCHEM_CACTVS_ROTATABLE_BOND>
0

>  <PUBCHEM_CACTVS_SUBSKEYS>
AAADccB4OAAAAAAAAAAAAAAAAAAAASJAAAA0aIEAAAAAAEiR9AAAGgAAAAAADRSgmAMwDsAABECIAqhSgAACCAAkIAAIiAEGiMgdJzaENRqiOWKl4BUOqYfK7vzuoQADCAAIQABCAAYQABCAAAAAAAAAAA==

>  <PUBCHEM_IUPAC_INCHI>
InChI=1S/C19H12O6/c20-19-11-3-9-1-2-21-12(9)5-14(11)25-17-7-22-13-6-16-15(23-8-24-16)4-10(13)18(17)19/h1-6,17-18H,7-8H2

>  <PUBCHEM_IUPAC_INCHIKEY>
RAJDDCCSNZAPCH-UHFFFAOYSA-N

>  <PUBCHEM_XLOGP3_AA>
3.1

>  <PUBCHEM_EXACT_MASS>
336.063

>  <PUBCHEM_MOLECULAR_FORMULA>
C19H12O6

>  <PUBCHEM_MOLECULAR_WEIGHT>
336.299

>  <PUBCHEM_OPENEYE_CAN_SMILES>
C1C2C(C3=CC4=C(C=C3O1)OCO4)C(=O)C5=C(O2)C=C6C(=C5)C=CO6

>  <PUBCHEM_OPENEYE_ISO_SMILES>
C1C2C(C3=CC4=C(C=C3O1)OCO4)C(=O)C5=C(O2)C=C6C(=C5)C=CO6

>  <PUBCHEM_CACTVS_TPSA>
67.1

>  <PUBCHEM_MONOISOTOPIC_WEIGHT>
336.063

>  <PUBCHEM_TOTAL_CHARGE>
0

>  <PUBCHEM_HEAVY_ATOM_COUNT>
25

>  <PUBCHEM_ATOM_DEF_STEREO_COUNT>
0

>  <PUBCHEM_ATOM_UDEF_STEREO_COUNT>
2

>  <PUBCHEM_BOND_DEF_STEREO_COUNT>
0

>  <PUBCHEM_BOND_UDEF_STEREO_COUNT>
0

>  <PUBCHEM_ISOTOPIC_ATOM_COUNT>
0

>  <PUBCHEM_COMPONENT_COUNT>
1

>  <PUBCHEM_CACTVS_TAUTO_COUNT>
2

>  <PUBCHEM_COORDINATE_TYPE>
1
5
255

>  <PUBCHEM_BONDANNOTATIONS>
12  16  8
13  14  8
13  18  8
14  20  8
15  17  8
16  19  8
17  19  8
18  21  8
20  22  8
21  22  8
21  24  8
24  25  8
6  22  8
6  25  8
7  11  3
8  10  3
9  12  8
9  15  8

$$$$
