5316653
 OpenBabel06101807152D

 40 43  0  0  0  0  0  0  0  0999 V2000
    7.2304   -2.5327    0.0000 O   0  0  0  0  0  0  0  0  0  0  0  0
   10.8026   -0.6933    0.0000 O   0  0  0  0  0  0  0  0  0  0  0  0
   10.8026   -2.3028    0.0000 O   0  0  0  0  0  0  0  0  0  0  0  0
    8.9904    0.5019    0.0000 O   0  0  0  0  0  0  0  0  0  0  0  0
    7.2419    0.5365    0.0000 O   0  0  0  0  0  0  0  0  0  0  0  0
    4.6038    2.0294    0.0000 O   0  0  0  0  0  0  0  0  0  0  0  0
    2.8680    1.0361    0.0000 O   0  0  0  0  0  0  0  0  0  0  0  0
    2.8602   -0.9639    0.0000 O   0  0  0  0  0  0  0  0  0  0  0  0
    8.1243   -0.9981    0.0000 C   0  0  0  0  0  0  0  0  0  0  0  0
    8.1243   -1.9981    0.0000 C   0  0  0  0  0  0  0  0  0  0  0  0
    6.3243   -0.9773    0.0000 C   0  0  0  0  0  0  0  0  0  0  0  0
    9.8564   -0.9981    0.0000 C   0  0  0  0  0  0  0  0  0  0  0  0
    8.9904   -0.4981    0.0000 C   0  0  0  0  0  0  0  0  0  0  0  0
    7.2304   -0.4634    0.0000 C   0  0  0  0  0  0  0  0  0  0  0  0
    9.8564   -1.9981    0.0000 C   0  0  0  0  0  0  0  0  0  0  0  0
    5.4602   -0.4739    0.0000 C   0  0  0  0  0  0  0  0  0  0  0  0
    8.9904   -2.4981    0.0000 C   0  0  0  0  0  0  0  0  0  0  0  0
    6.3243   -2.0189    0.0000 C   0  0  0  0  0  0  0  0  0  0  0  0
   11.3862   -1.4981    0.0000 C   0  0  0  0  0  0  0  0  0  0  0  0
    5.4641    0.5261    0.0000 C   0  0  0  0  0  0  0  0  0  0  0  0
    4.5923   -0.9706    0.0000 C   0  0  0  0  0  0  0  0  0  0  0  0
    4.6000    1.0294    0.0000 C   0  0  0  0  0  0  0  0  0  0  0  0
    3.7282   -0.4672    0.0000 C   0  0  0  0  0  0  0  0  0  0  0  0
    3.7320    0.5327    0.0000 C   0  0  0  0  0  0  0  0  0  0  0  0
    3.7398    2.5327    0.0000 C   0  0  0  0  0  0  0  0  0  0  0  0
    2.0000    0.5394    0.0000 C   0  0  0  0  0  0  0  0  0  0  0  0
    8.9904   -3.1181    0.0000 H   0  0  0  0  0  0  0  0  0  0  0  0
    5.7886   -2.3310    0.0000 H   0  0  0  0  0  0  0  0  0  0  0  0
   11.8471   -1.9128    0.0000 H   0  0  0  0  0  0  0  0  0  0  0  0
   11.8471   -1.0833    0.0000 H   0  0  0  0  0  0  0  0  0  0  0  0
    6.0022    0.8340    0.0000 H   0  0  0  0  0  0  0  0  0  0  0  0
    4.5899   -1.5906    0.0000 H   0  0  0  0  0  0  0  0  0  0  0  0
    9.5273    0.8119    0.0000 H   0  0  0  0  0  0  0  0  0  0  0  0
    2.8578   -1.5839    0.0000 H   0  0  0  0  0  0  0  0  0  0  0  0
    4.0518    3.0685    0.0000 H   0  0  0  0  0  0  0  0  0  0  0  0
    3.2040    2.8448    0.0000 H   0  0  0  0  0  0  0  0  0  0  0  0
    3.4277    1.9970    0.0000 H   0  0  0  0  0  0  0  0  0  0  0  0
    1.6921    1.0776    0.0000 H   0  0  0  0  0  0  0  0  0  0  0  0
    1.4619    0.2315    0.0000 H   0  0  0  0  0  0  0  0  0  0  0  0
    2.3079    0.0013    0.0000 H   0  0  0  0  0  0  0  0  0  0  0  0
  1 10  1  0  0  0  0
  1 18  1  0  0  0  0
  2 12  1  0  0  0  0
  2 19  1  0  0  0  0
  3 15  1  0  0  0  0
  3 19  1  0  0  0  0
  4 13  1  0  0  0  0
  4 33  1  0  0  0  0
  5 14  2  0  0  0  0
  6 22  1  0  0  0  0
  6 25  1  0  0  0  0
  7 24  1  0  0  0  0
  7 26  1  0  0  0  0
  8 23  1  0  0  0  0
  8 34  1  0  0  0  0
  9 10  1  0  0  0  0
  9 13  2  0  0  0  0
  9 14  1  0  0  0  0
 10 17  2  0  0  0  0
 11 14  1  0  0  0  0
 11 16  1  0  0  0  0
 11 18  2  0  0  0  0
 12 13  1  0  0  0  0
 12 15  2  0  0  0  0
 15 17  1  0  0  0  0
 16 20  1  0  0  0  0
 16 21  2  0  0  0  0
 17 27  1  0  0  0  0
 18 28  1  0  0  0  0
 19 29  1  0  0  0  0
 19 30  1  0  0  0  0
 20 22  2  0  0  0  0
 20 31  1  0  0  0  0
 21 23  1  0  0  0  0
 21 32  1  0  0  0  0
 22 24  1  0  0  0  0
 23 24  2  0  0  0  0
 25 35  1  0  0  0  0
 25 36  1  0  0  0  0
 25 37  1  0  0  0  0
 26 38  1  0  0  0  0
 26 39  1  0  0  0  0
 26 40  1  0  0  0  0
M  END
>  <PUBCHEM_COMPOUND_CID>
5316653

>  <PUBCHEM_COMPOUND_CANONICALIZED>
1

>  <PUBCHEM_CACTVS_COMPLEXITY>
578

>  <PUBCHEM_CACTVS_HBOND_ACCEPTOR>
8

>  <PUBCHEM_CACTVS_HBOND_DONOR>
2

>  <PUBCHEM_CACTVS_ROTATABLE_BOND>
3

>  <PUBCHEM_CACTVS_SUBSKEYS>
AAADccB4PAAAAAAAAAAAAAAAAAAAASAAAAAwYIAAAAAAAEiBQAAAGgAACAAADASgmAMyDoAABgCIAqBSAAACCAAkIAAAiAEGiMgdJzaGNRqgcWMl4BUPuYfK7PzOIQABCAAIQABCAAIQABCAAAAAAAAAAA==

>  <PUBCHEM_IUPAC_OPENEYE_NAME>
9-hydroxy-7-(3-hydroxy-4,5-dimethoxy-phenyl)-[1,3]dioxolo[4,5-g]chromen-8-one

>  <PUBCHEM_IUPAC_CAS_NAME>
9-hydroxy-7-(3-hydroxy-4,5-dimethoxyphenyl)-[1,3]dioxolo[4,5-g][1]benzopyran-8-one

>  <PUBCHEM_IUPAC_NAME>
9-hydroxy-7-(3-hydroxy-4,5-dimethoxyphenyl)-[1,3]dioxolo[4,5-g]chromen-8-one

>  <PUBCHEM_IUPAC_SYSTEMATIC_NAME>
7-(3,4-dimethoxy-5-oxidanyl-phenyl)-9-oxidanyl-[1,3]dioxolo[4,5-g]chromen-8-one

>  <PUBCHEM_IUPAC_TRADITIONAL_NAME>
9-hydroxy-7-(3-hydroxy-4,5-dimethoxy-phenyl)-[1,3]dioxolo[4,5-g]chromen-8-one

>  <PUBCHEM_IUPAC_INCHI>
InChI=1S/C18H14O8/c1-22-12-4-8(3-10(19)17(12)23-2)9-6-24-11-5-13-18(26-7-25-13)16(21)14(11)15(9)20/h3-6,19,21H,7H2,1-2H3

>  <PUBCHEM_IUPAC_INCHIKEY>
PFFOGGCBLWTCPM-UHFFFAOYSA-N

>  <PUBCHEM_XLOGP3_AA>
2.8

>  <PUBCHEM_EXACT_MASS>
358.069

>  <PUBCHEM_MOLECULAR_FORMULA>
C18H14O8

>  <PUBCHEM_MOLECULAR_WEIGHT>
358.302

>  <PUBCHEM_OPENEYE_CAN_SMILES>
COC1=CC(=CC(=C1OC)O)C2=COC3=CC4=C(C(=C3C2=O)O)OCO4

>  <PUBCHEM_OPENEYE_ISO_SMILES>
COC1=CC(=CC(=C1OC)O)C2=COC3=CC4=C(C(=C3C2=O)O)OCO4

>  <PUBCHEM_CACTVS_TPSA>
104

>  <PUBCHEM_MONOISOTOPIC_WEIGHT>
358.069

>  <PUBCHEM_TOTAL_CHARGE>
0

>  <PUBCHEM_HEAVY_ATOM_COUNT>
26

>  <PUBCHEM_ATOM_DEF_STEREO_COUNT>
0

>  <PUBCHEM_ATOM_UDEF_STEREO_COUNT>
0

>  <PUBCHEM_BOND_DEF_STEREO_COUNT>
0

>  <PUBCHEM_BOND_UDEF_STEREO_COUNT>
0

>  <PUBCHEM_ISOTOPIC_ATOM_COUNT>
0

>  <PUBCHEM_COMPONENT_COUNT>
1

>  <PUBCHEM_CACTVS_TAUTO_COUNT>
12

>  <PUBCHEM_COORDINATE_TYPE>
1
5
255

>  <PUBCHEM_BONDANNOTATIONS>
1  10  8
1  18  8
10  17  8
11  14  8
11  18  8
12  13  8
12  15  8
15  17  8
16  20  8
16  21  8
20  22  8
21  23  8
22  24  8
23  24  8
9  10  8
9  13  8
9  14  8

$$$$
