5316449
 OpenBabel06101807152D

 43 43  0  0  0  0  0  0  0  0999 V2000
    8.0622    0.5950    0.0000 O   0  0  0  0  0  0  0  0  0  0  0  0
    6.3301    0.5950    0.0000 O   0  0  0  0  0  0  0  0  0  0  0  0
    2.8660   -1.4050    0.0000 O   0  0  0  0  0  0  0  0  0  0  0  0
    4.5981   -2.4050    0.0000 O   0  0  0  0  0  0  0  0  0  0  0  0
   10.6603    2.0950    0.0000 C   0  0  0  0  0  0  0  0  0  0  0  0
    9.7942    1.5950    0.0000 C   0  0  0  0  0  0  0  0  0  0  0  0
   11.5263    1.5950    0.0000 C   0  0  0  0  0  0  0  0  0  0  0  0
    8.9282    2.0950    0.0000 C   0  0  0  0  0  0  0  0  0  0  0  0
   12.3923    2.0950    0.0000 C   0  0  0  0  0  0  0  0  0  0  0  0
    8.0622    1.5950    0.0000 C   0  0  0  0  0  0  0  0  0  0  0  0
    7.1962    2.0950    0.0000 C   0  0  0  0  0  0  0  0  0  0  0  0
    6.3301    1.5950    0.0000 C   0  0  0  0  0  0  0  0  0  0  0  0
    4.5981    0.5950    0.0000 C   0  0  0  0  0  0  0  0  0  0  0  0
    5.4641    2.0950    0.0000 C   0  0  0  0  0  0  0  0  0  0  0  0
    4.5981    1.5950    0.0000 C   0  0  0  0  0  0  0  0  0  0  0  0
    3.7320    0.0950    0.0000 C   0  0  0  0  0  0  0  0  0  0  0  0
    3.7320   -0.9050    0.0000 C   0  0  0  0  0  0  0  0  0  0  0  0
    5.4641    0.0950    0.0000 C   0  0  0  0  0  0  0  0  0  0  0  0
    4.5981   -1.4050    0.0000 C   0  0  0  0  0  0  0  0  0  0  0  0
    5.4641   -0.9050    0.0000 C   0  0  0  0  0  0  0  0  0  0  0  0
    2.0000   -0.9050    0.0000 C   0  0  0  0  0  0  0  0  0  0  0  0
   11.0588    2.5700    0.0000 H   0  0  0  0  0  0  0  0  0  0  0  0
   10.2617    2.5700    0.0000 H   0  0  0  0  0  0  0  0  0  0  0  0
    9.3957    1.1200    0.0000 H   0  0  0  0  0  0  0  0  0  0  0  0
   10.1928    1.1200    0.0000 H   0  0  0  0  0  0  0  0  0  0  0  0
   11.1278    1.1200    0.0000 H   0  0  0  0  0  0  0  0  0  0  0  0
   11.9248    1.1200    0.0000 H   0  0  0  0  0  0  0  0  0  0  0  0
    9.3267    2.5700    0.0000 H   0  0  0  0  0  0  0  0  0  0  0  0
    8.5297    2.5700    0.0000 H   0  0  0  0  0  0  0  0  0  0  0  0
   12.7023    1.5581    0.0000 H   0  0  0  0  0  0  0  0  0  0  0  0
   12.9292    2.4050    0.0000 H   0  0  0  0  0  0  0  0  0  0  0  0
   12.0823    2.6319    0.0000 H   0  0  0  0  0  0  0  0  0  0  0  0
    7.1962    2.7150    0.0000 H   0  0  0  0  0  0  0  0  0  0  0  0
    5.4641    2.7150    0.0000 H   0  0  0  0  0  0  0  0  0  0  0  0
    4.0611    1.9050    0.0000 H   0  0  0  0  0  0  0  0  0  0  0  0
    3.1951    0.4050    0.0000 H   0  0  0  0  0  0  0  0  0  0  0  0
    6.0010    0.4050    0.0000 H   0  0  0  0  0  0  0  0  0  0  0  0
    6.0010   -1.2150    0.0000 H   0  0  0  0  0  0  0  0  0  0  0  0
    6.8671    0.2850    0.0000 H   0  0  0  0  0  0  0  0  0  0  0  0
    5.1350   -2.7150    0.0000 H   0  0  0  0  0  0  0  0  0  0  0  0
    2.3100   -0.3681    0.0000 H   0  0  0  0  0  0  0  0  0  0  0  0
    1.4631   -0.5950    0.0000 H   0  0  0  0  0  0  0  0  0  0  0  0
    1.6900   -1.4419    0.0000 H   0  0  0  0  0  0  0  0  0  0  0  0
  1 10  2  0  0  0  0
  2 12  1  0  0  0  0
  2 39  1  0  0  0  0
  3 17  1  0  0  0  0
  3 21  1  0  0  0  0
  4 19  1  0  0  0  0
  4 40  1  0  0  0  0
  5  6  1  0  0  0  0
  5  7  1  0  0  0  0
  5 22  1  0  0  0  0
  5 23  1  0  0  0  0
  6  8  1  0  0  0  0
  6 24  1  0  0  0  0
  6 25  1  0  0  0  0
  7  9  1  0  0  0  0
  7 26  1  0  0  0  0
  7 27  1  0  0  0  0
  8 10  1  0  0  0  0
  8 28  1  0  0  0  0
  8 29  1  0  0  0  0
  9 30  1  0  0  0  0
  9 31  1  0  0  0  0
  9 32  1  0  0  0  0
 10 11  1  0  0  0  0
 11 12  2  0  0  0  0
 11 33  1  0  0  0  0
 12 14  1  0  0  0  0
 13 15  1  0  0  0  0
 13 16  2  0  0  0  0
 13 18  1  0  0  0  0
 14 15  2  0  0  0  0
 14 34  1  0  0  0  0
 15 35  1  0  0  0  0
 16 17  1  0  0  0  0
 16 36  1  0  0  0  0
 17 19  2  0  0  0  0
 18 20  2  0  0  0  0
 18 37  1  0  0  0  0
 19 20  1  0  0  0  0
 20 38  1  0  0  0  0
 21 41  1  0  0  0  0
 21 42  1  0  0  0  0
 21 43  1  0  0  0  0
M  END
>  <PUBCHEM_COMPOUND_CID>
5316449

>  <PUBCHEM_COMPOUND_CANONICALIZED>
1

>  <PUBCHEM_CACTVS_COMPLEXITY>
373

>  <PUBCHEM_CACTVS_HBOND_ACCEPTOR>
4

>  <PUBCHEM_CACTVS_HBOND_DONOR>
2

>  <PUBCHEM_CACTVS_ROTATABLE_BOND>
8

>  <PUBCHEM_CACTVS_SUBSKEYS>
AAADceB4OAAAAAAAAAAAAAAAAAAAAAAAAAAwAAAAAAAAAAABAAAAGgAACAAADASAmAIyBoAABgCIAqBSAAACCAAgIAAIiAEGiMgNJjKGMRqAcCMkwBELuQeIyBAOIAABAAAAQABAAAIAAACAAAAAAAAAAA==

>  <PUBCHEM_IUPAC_OPENEYE_NAME>
(1Z,3Z)-3-hydroxy-1-(4-hydroxy-3-methoxy-phenyl)deca-1,3-dien-5-one

>  <PUBCHEM_IUPAC_CAS_NAME>
(1Z,3Z)-3-hydroxy-1-(4-hydroxy-3-methoxyphenyl)-5-deca-1,3-dienone

>  <PUBCHEM_IUPAC_NAME>
(1Z,3Z)-3-hydroxy-1-(4-hydroxy-3-methoxyphenyl)deca-1,3-dien-5-one

>  <PUBCHEM_IUPAC_SYSTEMATIC_NAME>
(1Z,3Z)-1-(3-methoxy-4-oxidanyl-phenyl)-3-oxidanyl-deca-1,3-dien-5-one

>  <PUBCHEM_IUPAC_TRADITIONAL_NAME>
(1Z,3Z)-3-hydroxy-1-(4-hydroxy-3-methoxy-phenyl)deca-1,3-dien-5-one

>  <PUBCHEM_IUPAC_INCHI>
InChI=1S/C17H22O4/c1-3-4-5-6-14(18)12-15(19)9-7-13-8-10-16(20)17(11-13)21-2/h7-12,19-20H,3-6H2,1-2H3/b9-7-,15-12-

>  <PUBCHEM_IUPAC_INCHIKEY>
FZWNRFAUDBWSKY-YUKZMVOFSA-N

>  <PUBCHEM_XLOGP3_AA>
4.2

>  <PUBCHEM_EXACT_MASS>
290.152

>  <PUBCHEM_MOLECULAR_FORMULA>
C17H22O4

>  <PUBCHEM_MOLECULAR_WEIGHT>
290.359

>  <PUBCHEM_OPENEYE_CAN_SMILES>
CCCCCC(=O)C=C(C=CC1=CC(=C(C=C1)O)OC)O

>  <PUBCHEM_OPENEYE_ISO_SMILES>
CCCCCC(=O)/C=C(/C=C\C1=CC(=C(C=C1)O)OC)\O

>  <PUBCHEM_CACTVS_TPSA>
66.8

>  <PUBCHEM_MONOISOTOPIC_WEIGHT>
290.152

>  <PUBCHEM_TOTAL_CHARGE>
0

>  <PUBCHEM_HEAVY_ATOM_COUNT>
21

>  <PUBCHEM_ATOM_DEF_STEREO_COUNT>
0

>  <PUBCHEM_ATOM_UDEF_STEREO_COUNT>
0

>  <PUBCHEM_BOND_DEF_STEREO_COUNT>
2

>  <PUBCHEM_BOND_UDEF_STEREO_COUNT>
0

>  <PUBCHEM_ISOTOPIC_ATOM_COUNT>
0

>  <PUBCHEM_COMPONENT_COUNT>
1

>  <PUBCHEM_CACTVS_TAUTO_COUNT>
28

>  <PUBCHEM_COORDINATE_TYPE>
1
5
255

>  <PUBCHEM_BONDANNOTATIONS>
13  16  8
13  18  8
16  17  8
17  19  8
18  20  8
19  20  8

$$$$
