5316606
 OpenBabel06101807152D

 53 55  0  0  1  0  0  0  0  0999 V2000
    5.4641   -1.8450    0.0000 O   0  0  0  0  0  0  0  0  0  0  0  0
    3.7320   -3.8450    0.0000 O   0  0  0  0  0  0  0  0  0  0  0  0
    5.4641   -4.8450    0.0000 O   0  0  0  0  0  0  0  0  0  0  0  0
    7.1962   -1.8450    0.0000 O   0  0  0  0  0  0  0  0  0  0  0  0
    7.1962   -3.8450    0.0000 O   0  0  0  0  0  0  0  0  0  0  0  0
    3.7320   -0.8450    0.0000 O   0  0  0  0  0  0  0  0  0  0  0  0
    8.9282    1.1550    0.0000 O   0  0  0  0  0  0  0  0  0  0  0  0
    2.0000    4.1550    0.0000 O   0  0  0  0  0  0  0  0  0  0  0  0
    4.5981   -3.3450    0.0000 C   0  0  1  0  0  0  0  0  0  0  0  0
    5.4641   -3.8450    0.0000 C   0  0  1  0  0  0  0  0  0  0  0  0
    4.5981   -2.3450    0.0000 C   0  0  1  0  0  0  0  0  0  0  0  0
    6.3301   -3.3450    0.0000 C   0  0  2  0  0  0  0  0  0  0  0  0
    6.3301   -2.3450    0.0000 C   0  0  1  0  0  0  0  0  0  0  0  0
    3.7320   -1.8450    0.0000 C   0  0  0  0  0  0  0  0  0  0  0  0
    7.1962   -0.8450    0.0000 C   0  0  0  0  0  0  0  0  0  0  0  0
    6.3301   -0.3450    0.0000 C   0  0  0  0  0  0  0  0  0  0  0  0
    8.0622   -0.3450    0.0000 C   0  0  0  0  0  0  0  0  0  0  0  0
    6.3301    0.6550    0.0000 C   0  0  0  0  0  0  0  0  0  0  0  0
    8.0622    0.6550    0.0000 C   0  0  0  0  0  0  0  0  0  0  0  0
    7.1962    1.1550    0.0000 C   0  0  0  0  0  0  0  0  0  0  0  0
    5.4641    1.1550    0.0000 C   0  0  0  0  0  0  0  0  0  0  0  0
    5.4641    2.1550    0.0000 C   0  0  0  0  0  0  0  0  0  0  0  0
    4.5981    2.6550    0.0000 C   0  0  0  0  0  0  0  0  0  0  0  0
    4.5981    3.6550    0.0000 C   0  0  0  0  0  0  0  0  0  0  0  0
    3.7320    2.1550    0.0000 C   0  0  0  0  0  0  0  0  0  0  0  0
    3.7320    4.1550    0.0000 C   0  0  0  0  0  0  0  0  0  0  0  0
    2.8660    2.6550    0.0000 C   0  0  0  0  0  0  0  0  0  0  0  0
    2.8660    3.6550    0.0000 C   0  0  0  0  0  0  0  0  0  0  0  0
    2.0000    5.1550    0.0000 C   0  0  0  0  0  0  0  0  0  0  0  0
    4.5981   -3.9650    0.0000 H   0  0  0  0  0  0  0  0  0  0  0  0
    6.0010   -4.1550    0.0000 H   0  0  0  0  0  0  0  0  0  0  0  0
    4.5981   -1.7250    0.0000 H   0  0  0  0  0  0  0  0  0  0  0  0
    6.8671   -3.0350    0.0000 H   0  0  0  0  0  0  0  0  0  0  0  0
    6.3301   -1.7250    0.0000 H   0  0  0  0  0  0  0  0  0  0  0  0
    3.1215   -1.7373    0.0000 H   0  0  0  0  0  0  0  0  0  0  0  0
    3.5200   -2.4276    0.0000 H   0  0  0  0  0  0  0  0  0  0  0  0
    4.9272   -5.1550    0.0000 H   0  0  0  0  0  0  0  0  0  0  0  0
    3.1951   -3.5350    0.0000 H   0  0  0  0  0  0  0  0  0  0  0  0
    7.7331   -3.5350    0.0000 H   0  0  0  0  0  0  0  0  0  0  0  0
    3.1951   -0.5350    0.0000 H   0  0  0  0  0  0  0  0  0  0  0  0
    5.7932   -0.6550    0.0000 H   0  0  0  0  0  0  0  0  0  0  0  0
    8.5991   -0.6550    0.0000 H   0  0  0  0  0  0  0  0  0  0  0  0
    7.1962    1.7750    0.0000 H   0  0  0  0  0  0  0  0  0  0  0  0
    4.9272    0.8450    0.0000 H   0  0  0  0  0  0  0  0  0  0  0  0
    6.0010    2.4650    0.0000 H   0  0  0  0  0  0  0  0  0  0  0  0
    8.9282    1.7750    0.0000 H   0  0  0  0  0  0  0  0  0  0  0  0
    5.1350    3.9650    0.0000 H   0  0  0  0  0  0  0  0  0  0  0  0
    3.7320    1.5350    0.0000 H   0  0  0  0  0  0  0  0  0  0  0  0
    3.7320    4.7750    0.0000 H   0  0  0  0  0  0  0  0  0  0  0  0
    2.3291    2.3450    0.0000 H   0  0  0  0  0  0  0  0  0  0  0  0
    2.6200    5.1550    0.0000 H   0  0  0  0  0  0  0  0  0  0  0  0
    2.0000    5.7750    0.0000 H   0  0  0  0  0  0  0  0  0  0  0  0
    1.3800    5.1550    0.0000 H   0  0  0  0  0  0  0  0  0  0  0  0
  1 11  1  0  0  0  0
  1 13  1  0  0  0  0
  2 38  1  0  0  0  0
  3 37  1  0  0  0  0
  4 15  1  0  0  0  0
  5 39  1  0  0  0  0
  6 14  1  0  0  0  0
  6 40  1  0  0  0  0
  7 19  1  0  0  0  0
  7 46  1  0  0  0  0
  8 28  1  0  0  0  0
  8 29  1  0  0  0  0
  9  2  1  0  0  0  0
  9 10  1  6  0  0  0
  9 30  1  0  0  0  0
 10  3  1  0  0  0  0
 10 12  1  1  0  0  0
 10 31  1  0  0  0  0
 11  9  1  6  0  0  0
 11 14  1  0  0  0  0
 11 32  1  0  0  0  0
 12  5  1  0  0  0  0
 12 13  1  6  0  0  0
 12 33  1  0  0  0  0
 13  4  1  0  0  0  0
 13 34  1  6  0  0  0
 14 35  1  0  0  0  0
 14 36  1  0  0  0  0
 15 16  2  0  0  0  0
 15 17  1  0  0  0  0
 16 18  1  0  0  0  0
 16 41  1  0  0  0  0
 17 19  2  0  0  0  0
 17 42  1  0  0  0  0
 18 20  2  0  0  0  0
 18 21  1  0  0  0  0
 19 20  1  0  0  0  0
 20 43  1  0  0  0  0
 21 22  2  0  0  0  0
 21 44  1  0  0  0  0
 22 23  1  0  0  0  0
 22 45  1  0  0  0  0
 23 24  2  0  0  0  0
 23 25  1  0  0  0  0
 24 26  1  0  0  0  0
 24 47  1  0  0  0  0
 25 27  2  0  0  0  0
 25 48  1  0  0  0  0
 26 28  2  0  0  0  0
 26 49  1  0  0  0  0
 27 28  1  0  0  0  0
 27 50  1  0  0  0  0
 29 51  1  0  0  0  0
 29 52  1  0  0  0  0
 29 53  1  0  0  0  0
M  END
>  <PUBCHEM_COMPOUND_CID>
5316606

>  <PUBCHEM_COMPOUND_CANONICALIZED>
1

>  <PUBCHEM_CACTVS_COMPLEXITY>
521

>  <PUBCHEM_CACTVS_HBOND_ACCEPTOR>
8

>  <PUBCHEM_CACTVS_HBOND_DONOR>
5

>  <PUBCHEM_CACTVS_ROTATABLE_BOND>
6

>  <PUBCHEM_CACTVS_SUBSKEYS>
AAADceB4PAAAAAAAAAAAAAAAAAAAAAAAAAA0YIAAAAAAAAABQAAAGgAACAAADBSwmAMyDoAABgCAAiBCAAACCAAgIAAIiAAGCIgdNyKGMRqieCClwBUPuAfA4BwOIAABCAAAAABAAAIQAAAAAAAAAAAAAA==

>  <PUBCHEM_IUPAC_OPENEYE_NAME>
(2S,3R,4S,5S,6R)-2-[3-hydroxy-5-[(E)-2-(4-methoxyphenyl)vinyl]phenoxy]-6-(hydroxymethyl)tetrahydropyran-3,4,5-triol

>  <PUBCHEM_IUPAC_CAS_NAME>
(2S,3R,4S,5S,6R)-2-[3-hydroxy-5-[(E)-2-(4-methoxyphenyl)ethenyl]phenoxy]-6-(hydroxymethyl)oxane-3,4,5-triol

>  <PUBCHEM_IUPAC_NAME>
(2S,3R,4S,5S,6R)-2-[3-hydroxy-5-[(E)-2-(4-methoxyphenyl)ethenyl]phenoxy]-6-(hydroxymethyl)oxane-3,4,5-triol

>  <PUBCHEM_IUPAC_SYSTEMATIC_NAME>
(2R,3S,4S,5R,6S)-2-(hydroxymethyl)-6-[3-[(E)-2-(4-methoxyphenyl)ethenyl]-5-oxidanyl-phenoxy]oxane-3,4,5-triol

>  <PUBCHEM_IUPAC_TRADITIONAL_NAME>
(2S,3R,4S,5S,6R)-2-[3-hydroxy-5-[(E)-2-(4-methoxyphenyl)vinyl]phenoxy]-6-methylol-tetrahydropyran-3,4,5-triol

>  <PUBCHEM_IUPAC_INCHI>
InChI=1S/C21H24O8/c1-27-15-6-4-12(5-7-15)2-3-13-8-14(23)10-16(9-13)28-21-20(26)19(25)18(24)17(11-22)29-21/h2-10,17-26H,11H2,1H3/b3-2+/t17-,18-,19+,20-,21-/m1/s1

>  <PUBCHEM_IUPAC_INCHIKEY>
MFMQRDLLSRLUJY-DXKBKAGUSA-N

>  <PUBCHEM_XLOGP3>
1.4

>  <PUBCHEM_EXACT_MASS>
404.147

>  <PUBCHEM_MOLECULAR_FORMULA>
C21H24O8

>  <PUBCHEM_MOLECULAR_WEIGHT>
404.415

>  <PUBCHEM_OPENEYE_CAN_SMILES>
COC1=CC=C(C=C1)C=CC2=CC(=CC(=C2)OC3C(C(C(C(O3)CO)O)O)O)O

>  <PUBCHEM_OPENEYE_ISO_SMILES>
COC1=CC=C(C=C1)/C=C/C2=CC(=CC(=C2)O[C@H]3[C@@H]([C@H]([C@@H]([C@H](O3)CO)O)O)O)O

>  <PUBCHEM_CACTVS_TPSA>
129

>  <PUBCHEM_MONOISOTOPIC_WEIGHT>
404.147

>  <PUBCHEM_TOTAL_CHARGE>
0

>  <PUBCHEM_HEAVY_ATOM_COUNT>
29

>  <PUBCHEM_ATOM_DEF_STEREO_COUNT>
5

>  <PUBCHEM_ATOM_UDEF_STEREO_COUNT>
0

>  <PUBCHEM_BOND_DEF_STEREO_COUNT>
1

>  <PUBCHEM_BOND_UDEF_STEREO_COUNT>
0

>  <PUBCHEM_ISOTOPIC_ATOM_COUNT>
0

>  <PUBCHEM_COMPONENT_COUNT>
1

>  <PUBCHEM_CACTVS_TAUTO_COUNT>
3

>  <PUBCHEM_COORDINATE_TYPE>
1
5
255

>  <PUBCHEM_BONDANNOTATIONS>
11  14  5
15  16  8
15  17  8
16  18  8
17  19  8
18  20  8
19  20  8
9  2  6
23  24  8
23  25  8
24  26  8
25  27  8
26  28  8
27  28  8
10  3  5
13  4  5
12  5  6

$$$$
