5316144
 OpenBabel06101807152D

 61 66  0  0  0  0  0  0  0  0999 V2000
   13.8904   -0.2643    0.0000 O   0  0  0  0  0  0  0  0  0  0  0  0
   10.3984    1.7704    0.0000 O   0  0  0  0  0  0  0  0  0  0  0  0
    6.0682    0.2704    0.0000 O   0  0  0  0  0  0  0  0  0  0  0  0
   12.1304    2.7704    0.0000 O   0  0  0  0  0  0  0  0  0  0  0  0
   10.3984   -0.2296    0.0000 O   0  0  0  0  0  0  0  0  0  0  0  0
   13.8788    2.8050    0.0000 O   0  0  0  0  0  0  0  0  0  0  0  0
    4.3198   -2.7642    0.0000 O   0  0  0  0  0  0  0  0  0  0  0  0
    6.0682   -2.7296    0.0000 O   0  0  0  0  0  0  0  0  0  0  0  0
    2.5381    0.2945    0.0000 O   0  0  0  0  0  0  0  0  0  0  0  0
   18.2528   -1.7638    0.0000 O   0  0  0  0  0  0  0  0  0  0  0  0
   12.9965    1.2704    0.0000 C   0  0  0  0  0  0  0  0  0  0  0  0
   12.9965    0.2704    0.0000 C   0  0  0  0  0  0  0  0  0  0  0  0
   12.1304    1.7704    0.0000 C   0  0  0  0  0  0  0  0  0  0  0  0
   11.2644    1.2704    0.0000 C   0  0  0  0  0  0  0  0  0  0  0  0
   14.7965    0.2496    0.0000 C   0  0  0  0  0  0  0  0  0  0  0  0
   13.8904    1.8050    0.0000 C   0  0  0  0  0  0  0  0  0  0  0  0
    7.8003    0.2704    0.0000 C   0  0  0  0  0  0  0  0  0  0  0  0
   12.1304   -0.2296    0.0000 C   0  0  0  0  0  0  0  0  0  0  0  0
    6.9343   -0.2296    0.0000 C   0  0  0  0  0  0  0  0  0  0  0  0
   11.2644    0.2704    0.0000 C   0  0  0  0  0  0  0  0  0  0  0  0
    5.2022   -1.2296    0.0000 C   0  0  0  0  0  0  0  0  0  0  0  0
   14.7965    1.2912    0.0000 C   0  0  0  0  0  0  0  0  0  0  0  0
    5.2022   -0.2296    0.0000 C   0  0  0  0  0  0  0  0  0  0  0  0
   15.6606   -0.2538    0.0000 C   0  0  0  0  0  0  0  0  0  0  0  0
    9.5323    1.2704    0.0000 C   0  0  0  0  0  0  0  0  0  0  0  0
    6.9343   -1.2296    0.0000 C   0  0  0  0  0  0  0  0  0  0  0  0
    6.0682   -1.7296    0.0000 C   0  0  0  0  0  0  0  0  0  0  0  0
    8.6663   -0.2296    0.0000 C   0  0  0  0  0  0  0  0  0  0  0  0
    7.8003    1.2704    0.0000 C   0  0  0  0  0  0  0  0  0  0  0  0
    9.5323    0.2704    0.0000 C   0  0  0  0  0  0  0  0  0  0  0  0
    8.6663    1.7704    0.0000 C   0  0  0  0  0  0  0  0  0  0  0  0
    4.3083   -1.7643    0.0000 C   0  0  0  0  0  0  0  0  0  0  0  0
    4.3083    0.3051    0.0000 C   0  0  0  0  0  0  0  0  0  0  0  0
   15.6567   -1.2538    0.0000 C   0  0  0  0  0  0  0  0  0  0  0  0
   16.5285    0.2429    0.0000 C   0  0  0  0  0  0  0  0  0  0  0  0
    3.4022   -0.2088    0.0000 C   0  0  0  0  0  0  0  0  0  0  0  0
    3.4022   -1.2504    0.0000 C   0  0  0  0  0  0  0  0  0  0  0  0
   16.5208   -1.7571    0.0000 C   0  0  0  0  0  0  0  0  0  0  0  0
   17.3926   -0.2604    0.0000 C   0  0  0  0  0  0  0  0  0  0  0  0
   17.3887   -1.2604    0.0000 C   0  0  0  0  0  0  0  0  0  0  0  0
   19.1208   -1.2671    0.0000 C   0  0  0  0  0  0  0  0  0  0  0  0
   12.1304   -0.8496    0.0000 H   0  0  0  0  0  0  0  0  0  0  0  0
   15.3322    1.6033    0.0000 H   0  0  0  0  0  0  0  0  0  0  0  0
    7.4712   -1.5396    0.0000 H   0  0  0  0  0  0  0  0  0  0  0  0
    8.6663   -0.8496    0.0000 H   0  0  0  0  0  0  0  0  0  0  0  0
    7.2634    1.5804    0.0000 H   0  0  0  0  0  0  0  0  0  0  0  0
   10.0693   -0.0396    0.0000 H   0  0  0  0  0  0  0  0  0  0  0  0
    8.6663    2.3904    0.0000 H   0  0  0  0  0  0  0  0  0  0  0  0
    4.3154    0.9250    0.0000 H   0  0  0  0  0  0  0  0  0  0  0  0
   15.1186   -1.5617    0.0000 H   0  0  0  0  0  0  0  0  0  0  0  0
   16.5309    0.8629    0.0000 H   0  0  0  0  0  0  0  0  0  0  0  0
    2.8665   -1.5625    0.0000 H   0  0  0  0  0  0  0  0  0  0  0  0
   16.5184   -2.3771    0.0000 H   0  0  0  0  0  0  0  0  0  0  0  0
   17.9307    0.0475    0.0000 H   0  0  0  0  0  0  0  0  0  0  0  0
   11.5935    3.0804    0.0000 H   0  0  0  0  0  0  0  0  0  0  0  0
   10.3984   -0.8496    0.0000 H   0  0  0  0  0  0  0  0  0  0  0  0
    3.7865   -3.0804    0.0000 H   0  0  0  0  0  0  0  0  0  0  0  0
    2.0000   -0.0134    0.0000 H   0  0  0  0  0  0  0  0  0  0  0  0
   19.4287   -1.8052    0.0000 H   0  0  0  0  0  0  0  0  0  0  0  0
   19.6589   -0.9592    0.0000 H   0  0  0  0  0  0  0  0  0  0  0  0
   18.8128   -0.7290    0.0000 H   0  0  0  0  0  0  0  0  0  0  0  0
  1 12  1  0  0  0  0
  1 15  1  0  0  0  0
  2 14  1  0  0  0  0
  2 25  1  0  0  0  0
  3 19  1  0  0  0  0
  3 23  1  0  0  0  0
  4 13  1  0  0  0  0
  4 55  1  0  0  0  0
  5 20  1  0  0  0  0
  5 56  1  0  0  0  0
  6 16  2  0  0  0  0
  7 32  1  0  0  0  0
  7 57  1  0  0  0  0
  8 27  2  0  0  0  0
  9 36  1  0  0  0  0
  9 58  1  0  0  0  0
 10 40  1  0  0  0  0
 10 41  1  0  0  0  0
 11 12  2  0  0  0  0
 11 13  1  0  0  0  0
 11 16  1  0  0  0  0
 12 18  1  0  0  0  0
 13 14  2  0  0  0  0
 14 20  1  0  0  0  0
 15 22  2  0  0  0  0
 15 24  1  0  0  0  0
 16 22  1  0  0  0  0
 17 19  1  0  0  0  0
 17 28  2  0  0  0  0
 17 29  1  0  0  0  0
 18 20  2  0  0  0  0
 18 42  1  0  0  0  0
 19 26  2  0  0  0  0
 21 23  1  0  0  0  0
 21 27  1  0  0  0  0
 21 32  2  0  0  0  0
 22 43  1  0  0  0  0
 23 33  2  0  0  0  0
 24 34  2  0  0  0  0
 24 35  1  0  0  0  0
 25 30  2  0  0  0  0
 25 31  1  0  0  0  0
 26 27  1  0  0  0  0
 26 44  1  0  0  0  0
 28 30  1  0  0  0  0
 28 45  1  0  0  0  0
 29 31  2  0  0  0  0
 29 46  1  0  0  0  0
 30 47  1  0  0  0  0
 31 48  1  0  0  0  0
 32 37  1  0  0  0  0
 33 36  1  0  0  0  0
 33 49  1  0  0  0  0
 34 38  1  0  0  0  0
 34 50  1  0  0  0  0
 35 39  2  0  0  0  0
 35 51  1  0  0  0  0
 36 37  2  0  0  0  0
 37 52  1  0  0  0  0
 38 40  2  0  0  0  0
 38 53  1  0  0  0  0
 39 40  1  0  0  0  0
 39 54  1  0  0  0  0
 41 59  1  0  0  0  0
 41 60  1  0  0  0  0
 41 61  1  0  0  0  0
M  END
>  <PUBCHEM_COMPOUND_CID>
5316144

>  <PUBCHEM_COMPOUND_CANONICALIZED>
1

>  <PUBCHEM_CACTVS_COMPLEXITY>
1040

>  <PUBCHEM_CACTVS_HBOND_ACCEPTOR>
10

>  <PUBCHEM_CACTVS_HBOND_DONOR>
4

>  <PUBCHEM_CACTVS_ROTATABLE_BOND>
5

>  <PUBCHEM_CACTVS_SUBSKEYS>
AAADceB4PAAAAAAAAAAAAAAAAAAAAAAAAAAwYMGCAAAAAACBVAAAGgAACAAADASAmAIyBoAABgCIAqBSAAACCAAkIAAIiAEGiMgNJzaGNRqCeWOl4BULuQfK7LzOIQABCAAIQABCAAIQABCAAAAAAAAAAA==

>  <PUBCHEM_IUPAC_OPENEYE_NAME>
6-[4-(5,7-dihydroxy-4-oxo-chromen-2-yl)phenoxy]-5,7-dihydroxy-2-(4-methoxyphenyl)chromen-4-one

>  <PUBCHEM_IUPAC_CAS_NAME>
6-[4-(5,7-dihydroxy-4-oxo-1-benzopyran-2-yl)phenoxy]-5,7-dihydroxy-2-(4-methoxyphenyl)-1-benzopyran-4-one

>  <PUBCHEM_IUPAC_NAME>
6-[4-(5,7-dihydroxy-4-oxochromen-2-yl)phenoxy]-5,7-dihydroxy-2-(4-methoxyphenyl)chromen-4-one

>  <PUBCHEM_IUPAC_SYSTEMATIC_NAME>
6-[4-[5,7-bis(oxidanyl)-4-oxidanylidene-chromen-2-yl]phenoxy]-2-(4-methoxyphenyl)-5,7-bis(oxidanyl)chromen-4-one

>  <PUBCHEM_IUPAC_TRADITIONAL_NAME>
6-[4-(5,7-dihydroxy-4-keto-chromen-2-yl)phenoxy]-5,7-dihydroxy-2-(4-methoxyphenyl)chromone

>  <PUBCHEM_IUPAC_INCHI>
InChI=1S/C31H20O10/c1-38-18-6-2-15(3-7-18)25-13-22(35)29-27(41-25)14-23(36)31(30(29)37)39-19-8-4-16(5-9-19)24-12-21(34)28-20(33)10-17(32)11-26(28)40-24/h2-14,32-33,36-37H,1H3

>  <PUBCHEM_IUPAC_INCHIKEY>
JLHZOLWNLOEMKU-UHFFFAOYSA-N

>  <PUBCHEM_XLOGP3_AA>
5.6

>  <PUBCHEM_EXACT_MASS>
552.106

>  <PUBCHEM_MOLECULAR_FORMULA>
C31H20O10

>  <PUBCHEM_MOLECULAR_WEIGHT>
552.491

>  <PUBCHEM_OPENEYE_CAN_SMILES>
COC1=CC=C(C=C1)C2=CC(=O)C3=C(C(=C(C=C3O2)O)OC4=CC=C(C=C4)C5=CC(=O)C6=C(C=C(C=C6O5)O)O)O

>  <PUBCHEM_OPENEYE_ISO_SMILES>
COC1=CC=C(C=C1)C2=CC(=O)C3=C(C(=C(C=C3O2)O)OC4=CC=C(C=C4)C5=CC(=O)C6=C(C=C(C=C6O5)O)O)O

>  <PUBCHEM_CACTVS_TPSA>
152

>  <PUBCHEM_MONOISOTOPIC_WEIGHT>
552.106

>  <PUBCHEM_TOTAL_CHARGE>
0

>  <PUBCHEM_HEAVY_ATOM_COUNT>
41

>  <PUBCHEM_ATOM_DEF_STEREO_COUNT>
0

>  <PUBCHEM_ATOM_UDEF_STEREO_COUNT>
0

>  <PUBCHEM_BOND_DEF_STEREO_COUNT>
0

>  <PUBCHEM_BOND_UDEF_STEREO_COUNT>
0

>  <PUBCHEM_ISOTOPIC_ATOM_COUNT>
0

>  <PUBCHEM_COMPONENT_COUNT>
1

>  <PUBCHEM_CACTVS_TAUTO_COUNT>
144

>  <PUBCHEM_COORDINATE_TYPE>
1
5
255

>  <PUBCHEM_BONDANNOTATIONS>
1  12  8
1  15  8
11  12  8
11  13  8
11  16  8
12  18  8
13  14  8
14  20  8
15  22  8
16  22  8
17  28  8
17  29  8
18  20  8
19  26  8
21  23  8
21  27  8
21  32  8
23  33  8
24  34  8
24  35  8
25  30  8
25  31  8
26  27  8
28  30  8
29  31  8
3  19  8
3  23  8
32  37  8
33  36  8
34  38  8
35  39  8
36  37  8
38  40  8
39  40  8

$$$$
