5316094
 OpenBabel06101807152D

 44 48  0  0  0  0  0  0  0  0999 V2000
    9.5233    2.1467    0.0000 O   0  0  0  0  0  0  0  0  0  0  0  0
    8.1326    2.9568    0.0000 O   0  0  0  0  0  0  0  0  0  0  0  0
    2.5836   -1.2513    0.0000 O   0  0  0  0  0  0  0  0  0  0  0  0
    2.5836   -2.8607    0.0000 O   0  0  0  0  0  0  0  0  0  0  0  0
    5.2778    0.5133    0.0000 N   0  0  0  0  0  0  0  0  0  0  0  0
    8.7683   -2.5176    0.0000 N   0  0  0  0  0  0  0  0  0  0  0  0
    7.9120   -0.0142    0.0000 C   0  0  0  0  0  0  0  0  0  0  0  0
    7.0479    0.4891    0.0000 C   0  0  0  0  0  0  0  0  0  0  0  0
    7.9081   -1.0142    0.0000 C   0  0  0  0  0  0  0  0  0  0  0  0
    6.1799   -0.0076    0.0000 C   0  0  0  0  0  0  0  0  0  0  0  0
    8.7799    0.4824    0.0000 C   0  0  0  0  0  0  0  0  0  0  0  0
    5.2619   -1.5560    0.0000 C   0  0  0  0  0  0  0  0  0  0  0  0
    7.0517    1.4891    0.0000 C   0  0  0  0  0  0  0  0  0  0  0  0
    4.3958   -1.0560    0.0000 C   0  0  0  0  0  0  0  0  0  0  0  0
    8.7838    1.4824    0.0000 C   0  0  0  0  0  0  0  0  0  0  0  0
    7.9197    1.9858    0.0000 C   0  0  0  0  0  0  0  0  0  0  0  0
    8.7722   -1.5176    0.0000 C   0  0  0  0  0  0  0  0  0  0  0  0
    6.1719   -1.0492    0.0000 C   0  0  0  0  0  0  0  0  0  0  0  0
    3.5298   -1.5560    0.0000 C   0  0  0  0  0  0  0  0  0  0  0  0
    3.5298   -2.5560    0.0000 C   0  0  0  0  0  0  0  0  0  0  0  0
    4.3798   -0.0145    0.0000 C   0  0  0  0  0  0  0  0  0  0  0  0
    5.2619   -2.5560    0.0000 C   0  0  0  0  0  0  0  0  0  0  0  0
    4.3958   -3.0560    0.0000 C   0  0  0  0  0  0  0  0  0  0  0  0
    9.1217    3.0560    0.0000 C   0  0  0  0  0  0  0  0  0  0  0  0
    2.0000   -2.0560    0.0000 C   0  0  0  0  0  0  0  0  0  0  0  0
    9.6324   -3.0209    0.0000 C   0  0  0  0  0  0  0  0  0  0  0  0
    7.2979   -0.9042    0.0000 H   0  0  0  0  0  0  0  0  0  0  0  0
    7.6938   -1.5960    0.0000 H   0  0  0  0  0  0  0  0  0  0  0  0
    9.3156    0.1704    0.0000 H   0  0  0  0  0  0  0  0  0  0  0  0
    6.5160    1.8012    0.0000 H   0  0  0  0  0  0  0  0  0  0  0  0
    9.3824   -1.6276    0.0000 H   0  0  0  0  0  0  0  0  0  0  0  0
    8.9865   -0.9358    0.0000 H   0  0  0  0  0  0  0  0  0  0  0  0
    6.7052   -1.3653    0.0000 H   0  0  0  0  0  0  0  0  0  0  0  0
    3.8393    0.2893    0.0000 H   0  0  0  0  0  0  0  0  0  0  0  0
    5.7988   -2.8660    0.0000 H   0  0  0  0  0  0  0  0  0  0  0  0
    4.3958   -3.6760    0.0000 H   0  0  0  0  0  0  0  0  0  0  0  0
    9.7120    3.2455    0.0000 H   0  0  0  0  0  0  0  0  0  0  0  0
    8.9953    3.6630    0.0000 H   0  0  0  0  0  0  0  0  0  0  0  0
    8.2302   -2.8255    0.0000 H   0  0  0  0  0  0  0  0  0  0  0  0
    1.5391   -1.6413    0.0000 H   0  0  0  0  0  0  0  0  0  0  0  0
    1.5391   -2.4707    0.0000 H   0  0  0  0  0  0  0  0  0  0  0  0
    9.3204   -3.5566    0.0000 H   0  0  0  0  0  0  0  0  0  0  0  0
   10.1682   -3.3330    0.0000 H   0  0  0  0  0  0  0  0  0  0  0  0
    9.9445   -2.4852    0.0000 H   0  0  0  0  0  0  0  0  0  0  0  0
  1 15  1  0  0  0  0
  1 24  1  0  0  0  0
  2 16  1  0  0  0  0
  2 24  1  0  0  0  0
  3 19  1  0  0  0  0
  3 25  1  0  0  0  0
  4 20  1  0  0  0  0
  4 25  1  0  0  0  0
  5 10  2  0  0  0  0
  5 21  1  0  0  0  0
  6 17  1  0  0  0  0
  6 26  1  0  0  0  0
  6 39  1  0  0  0  0
  7  8  1  0  0  0  0
  7  9  1  0  0  0  0
  7 11  2  0  0  0  0
  8 10  1  0  0  0  0
  8 13  2  0  0  0  0
  9 17  1  0  0  0  0
  9 27  1  0  0  0  0
  9 28  1  0  0  0  0
 10 18  1  0  0  0  0
 11 15  1  0  0  0  0
 11 29  1  0  0  0  0
 12 14  1  0  0  0  0
 12 18  2  0  0  0  0
 12 22  1  0  0  0  0
 13 16  1  0  0  0  0
 13 30  1  0  0  0  0
 14 19  1  0  0  0  0
 14 21  2  0  0  0  0
 15 16  2  0  0  0  0
 17 31  1  0  0  0  0
 17 32  1  0  0  0  0
 18 33  1  0  0  0  0
 19 20  2  0  0  0  0
 20 23  1  0  0  0  0
 21 34  1  0  0  0  0
 22 23  2  0  0  0  0
 22 35  1  0  0  0  0
 23 36  1  0  0  0  0
 24 37  1  0  0  0  0
 24 38  1  0  0  0  0
 25 40  1  0  0  0  0
 25 41  1  0  0  0  0
 26 42  1  0  0  0  0
 26 43  1  0  0  0  0
 26 44  1  0  0  0  0
M  END
>  <PUBCHEM_COMPOUND_CID>
5316094

>  <PUBCHEM_COMPOUND_CANONICALIZED>
1

>  <PUBCHEM_CACTVS_COMPLEXITY>
492

>  <PUBCHEM_CACTVS_HBOND_ACCEPTOR>
6

>  <PUBCHEM_CACTVS_HBOND_DONOR>
1

>  <PUBCHEM_CACTVS_ROTATABLE_BOND>
4

>  <PUBCHEM_CACTVS_SUBSKEYS>
AAADceB7OAAAAAAAAAAAAAAAAAAAASJAAAA8YIAAAAAAAEix9AAAHgAQAAAADAzBngc+jtLIFACgAzRnRACCiCAxIiAI2KA+7JgdJuLEsZukMCpm0BnO6Aew0PMOoAABAAAYQABAAAIAADCAAAAAAAAAAA==

>  <PUBCHEM_IUPAC_OPENEYE_NAME>
2-[6-([1,3]dioxolo[4,5-h]isoquinolin-7-yl)-1,3-benzodioxol-5-yl]-N-methyl-ethanamine

>  <PUBCHEM_IUPAC_CAS_NAME>
2-[6-([1,3]dioxolo[4,5-h]isoquinolin-7-yl)-1,3-benzodioxol-5-yl]-N-methylethanamine

>  <PUBCHEM_IUPAC_NAME>
2-[6-([1,3]dioxolo[4,5-h]isoquinolin-7-yl)-1,3-benzodioxol-5-yl]-N-methylethanamine

>  <PUBCHEM_IUPAC_SYSTEMATIC_NAME>
2-[6-([1,3]dioxolo[4,5-h]isoquinolin-7-yl)-1,3-benzodioxol-5-yl]-N-methyl-ethanamine

>  <PUBCHEM_IUPAC_TRADITIONAL_NAME>
2-[6-([1,3]dioxol[4,5-h]isoquinolin-7-yl)-1,3-benzodioxol-5-yl]ethyl-methyl-amine

>  <PUBCHEM_IUPAC_INCHI>
InChI=1S/C20H18N2O4/c1-21-5-4-13-7-18-19(25-10-24-18)8-14(13)16-6-12-2-3-17-20(26-11-23-17)15(12)9-22-16/h2-3,6-9,21H,4-5,10-11H2,1H3

>  <PUBCHEM_IUPAC_INCHIKEY>
VWHAIQHZMVRBJN-UHFFFAOYSA-N

>  <PUBCHEM_XLOGP3_AA>
3.2

>  <PUBCHEM_EXACT_MASS>
350.127

>  <PUBCHEM_MOLECULAR_FORMULA>
C20H18N2O4

>  <PUBCHEM_MOLECULAR_WEIGHT>
350.374

>  <PUBCHEM_OPENEYE_CAN_SMILES>
CNCCC1=CC2=C(C=C1C3=NC=C4C(=C3)C=CC5=C4OCO5)OCO2

>  <PUBCHEM_OPENEYE_ISO_SMILES>
CNCCC1=CC2=C(C=C1C3=NC=C4C(=C3)C=CC5=C4OCO5)OCO2

>  <PUBCHEM_CACTVS_TPSA>
61.8

>  <PUBCHEM_MONOISOTOPIC_WEIGHT>
350.127

>  <PUBCHEM_TOTAL_CHARGE>
0

>  <PUBCHEM_HEAVY_ATOM_COUNT>
26

>  <PUBCHEM_ATOM_DEF_STEREO_COUNT>
0

>  <PUBCHEM_ATOM_UDEF_STEREO_COUNT>
0

>  <PUBCHEM_BOND_DEF_STEREO_COUNT>
0

>  <PUBCHEM_BOND_UDEF_STEREO_COUNT>
0

>  <PUBCHEM_ISOTOPIC_ATOM_COUNT>
0

>  <PUBCHEM_COMPONENT_COUNT>
1

>  <PUBCHEM_CACTVS_TAUTO_COUNT>
1

>  <PUBCHEM_COORDINATE_TYPE>
1
5
255

>  <PUBCHEM_BONDANNOTATIONS>
10  18  8
11  15  8
12  14  8
12  18  8
12  22  8
13  16  8
14  19  8
14  21  8
15  16  8
19  20  8
20  23  8
22  23  8
5  10  8
5  21  8
7  11  8
7  8  8
8  13  8

$$$$
