5317742
 OpenBabel06101807152D

 48 51  0  0  1  0  0  0  0  0999 V2000
    5.9065    0.6431    0.0000 O   0  0  0  0  0  0  0  0  0  0  0  0
    8.0505    2.7116    0.0000 O   0  0  0  0  0  0  0  0  0  0  0  0
    6.0942    3.1274    0.0000 O   0  0  0  0  0  0  0  0  0  0  0  0
   10.6901    0.3674    0.0000 O   0  0  0  0  0  0  0  0  0  0  0  0
    2.4170    1.5473    0.0000 O   0  0  0  0  0  0  0  0  0  0  0  0
    6.4033    2.1763    0.0000 C   0  0  3  0  0  0  0  0  0  0  0  0
    6.7123    1.2253    0.0000 C   0  0  3  0  0  0  0  0  0  0  0  0
    5.4092    2.1738    0.0000 C   0  0  0  0  0  0  0  0  0  0  0  0
    7.0724    2.9195    0.0000 C   0  0  0  0  0  0  0  0  0  0  0  0
    7.6904    1.0174    0.0000 C   0  0  0  0  0  0  0  0  0  0  0  0
    5.1028    1.2281    0.0000 C   0  0  0  0  0  0  0  0  0  0  0  0
    8.3596    1.7605    0.0000 C   0  0  0  0  0  0  0  0  0  0  0  0
    7.9970    0.0219    0.0000 C   0  0  0  0  0  0  0  0  0  0  0  0
    4.7276    2.9533    0.0000 C   0  0  0  0  0  0  0  0  0  0  0  0
    9.0142   -0.2025    0.0000 C   0  0  0  0  0  0  0  0  0  0  0  0
    4.0936    0.9963    0.0000 C   0  0  0  0  0  0  0  0  0  0  0  0
    9.3816    1.5597    0.0000 C   0  0  0  0  0  0  0  0  0  0  0  0
    9.7112    0.5715    0.0000 C   0  0  0  0  0  0  0  0  0  0  0  0
    3.7133    2.7449    0.0000 C   0  0  0  0  0  0  0  0  0  0  0  0
    3.3942    1.7598    0.0000 C   0  0  0  0  0  0  0  0  0  0  0  0
    9.3195   -1.1548    0.0000 C   0  0  0  0  0  0  0  0  0  0  0  0
    8.6475   -1.8953    0.0000 C   0  0  0  0  0  0  0  0  0  0  0  0
    8.9529   -2.8476    0.0000 C   0  0  0  0  0  0  0  0  0  0  0  0
   11.3564    1.1131    0.0000 C   0  0  0  0  0  0  0  0  0  0  0  0
    8.2809   -3.5881    0.0000 C   0  0  0  0  0  0  0  0  0  0  0  0
    9.9302   -3.0593    0.0000 C   0  0  0  0  0  0  0  0  0  0  0  0
    6.8404    0.6187    0.0000 H   0  0  0  0  0  0  0  0  0  0  0  0
    7.3046    3.4943    0.0000 H   0  0  0  0  0  0  0  0  0  0  0  0
    6.5466    3.2480    0.0000 H   0  0  0  0  0  0  0  0  0  0  0  0
    7.5768   -0.4340    0.0000 H   0  0  0  0  0  0  0  0  0  0  0  0
    4.9255    3.5408    0.0000 H   0  0  0  0  0  0  0  0  0  0  0  0
    6.5091    3.5881    0.0000 H   0  0  0  0  0  0  0  0  0  0  0  0
    3.9094    0.4043    0.0000 H   0  0  0  0  0  0  0  0  0  0  0  0
    9.7912    2.0252    0.0000 H   0  0  0  0  0  0  0  0  0  0  0  0
    3.2998    3.2069    0.0000 H   0  0  0  0  0  0  0  0  0  0  0  0
    9.6993   -1.6448    0.0000 H   0  0  0  0  0  0  0  0  0  0  0  0
    9.8681   -0.8658    0.0000 H   0  0  0  0  0  0  0  0  0  0  0  0
    8.0416   -1.7641    0.0000 H   0  0  0  0  0  0  0  0  0  0  0  0
    2.0000    2.0061    0.0000 H   0  0  0  0  0  0  0  0  0  0  0  0
   11.8187    0.7000    0.0000 H   0  0  0  0  0  0  0  0  0  0  0  0
   11.7694    1.5755    0.0000 H   0  0  0  0  0  0  0  0  0  0  0  0
   10.8940    1.5262    0.0000 H   0  0  0  0  0  0  0  0  0  0  0  0
    7.8217   -3.1715    0.0000 H   0  0  0  0  0  0  0  0  0  0  0  0
    9.7990   -3.6652    0.0000 H   0  0  0  0  0  0  0  0  0  0  0  0
   10.5362   -3.1905    0.0000 H   0  0  0  0  0  0  0  0  0  0  0  0
   10.0615   -2.4533    0.0000 H   0  0  0  0  0  0  0  0  0  0  0  0
    7.8642   -4.0473    0.0000 H   0  0  0  0  0  0  0  0  0  0  0  0
    8.7400   -4.0048    0.0000 H   0  0  0  0  0  0  0  0  0  0  0  0
  1  7  1  0  0  0  0
  1 11  1  0  0  0  0
  2  9  1  0  0  0  0
  2 12  1  0  0  0  0
  3  6  1  0  0  0  0
  3 32  1  0  0  0  0
  4 18  1  0  0  0  0
  4 24  1  0  0  0  0
  5 20  1  0  0  0  0
  5 39  1  0  0  0  0
  6  7  1  0  0  0  0
  6  8  1  0  0  0  0
  6  9  1  0  0  0  0
  7 10  1  0  0  0  0
  7 27  1  0  0  0  0
  8 11  2  0  0  0  0
  8 14  1  0  0  0  0
  9 28  1  0  0  0  0
  9 29  1  0  0  0  0
 10 12  2  0  0  0  0
 10 13  1  0  0  0  0
 11 16  1  0  0  0  0
 12 17  1  0  0  0  0
 13 15  2  0  0  0  0
 13 30  1  0  0  0  0
 14 19  2  0  0  0  0
 14 31  1  0  0  0  0
 15 18  1  0  0  0  0
 15 21  1  0  0  0  0
 16 20  2  0  0  0  0
 16 33  1  0  0  0  0
 17 18  2  0  0  0  0
 17 34  1  0  0  0  0
 19 20  1  0  0  0  0
 19 35  1  0  0  0  0
 21 22  1  0  0  0  0
 21 36  1  0  0  0  0
 21 37  1  0  0  0  0
 22 23  2  0  0  0  0
 22 38  1  0  0  0  0
 23 25  1  0  0  0  0
 23 26  1  0  0  0  0
 24 40  1  0  0  0  0
 24 41  1  0  0  0  0
 24 42  1  0  0  0  0
 25 43  1  0  0  0  0
 25 47  1  0  0  0  0
 25 48  1  0  0  0  0
 26 44  1  0  0  0  0
 26 45  1  0  0  0  0
 26 46  1  0  0  0  0
M  END
>  <PUBCHEM_COMPOUND_CID>
5317742

>  <PUBCHEM_COMPOUND_CANONICALIZED>
1

>  <PUBCHEM_CACTVS_COMPLEXITY>
545

>  <PUBCHEM_CACTVS_HBOND_ACCEPTOR>
5

>  <PUBCHEM_CACTVS_HBOND_DONOR>
2

>  <PUBCHEM_CACTVS_ROTATABLE_BOND>
3

>  <PUBCHEM_CACTVS_SUBSKEYS>
AAADceB4OAAAAAAAAAAAAAAAAAAAASAAAAA0YIAAAAAAAEiRQAAAGgAACAAADFSgmAIyBoAABgCAAiBCAAACCAAgIAAIiAAGCIgNJyKGMRqCeCClwBULuAfA4PwOoAACCAAIAABAAAQQABAAAAAAAAAAAA==

>  <PUBCHEM_IUPAC_OPENEYE_NAME>
3-methoxy-2-(3-methylbut-2-enyl)-6,11a-dihydrobenzofuro[3,2-c]chromene-6a,9-diol

>  <PUBCHEM_IUPAC_CAS_NAME>
3-methoxy-2-(3-methylbut-2-enyl)-6,11a-dihydrobenzofuro[3,2-c][1]benzopyran-6a,9-diol

>  <PUBCHEM_IUPAC_NAME>
3-methoxy-2-(3-methylbut-2-enyl)-6,11a-dihydro-[1]benzofuro[3,2-c]chromene-6a,9-diol

>  <PUBCHEM_IUPAC_SYSTEMATIC_NAME>
3-methoxy-2-(3-methylbut-2-enyl)-6,11a-dihydro-[1]benzofuro[3,2-c]chromene-6a,9-diol

>  <PUBCHEM_IUPAC_TRADITIONAL_NAME>
3-methoxy-2-(3-methylbut-2-enyl)-6,11a-dihydrobenzofuro[3,2-c]chromene-6a,9-diol

>  <PUBCHEM_IUPAC_INCHI>
InChI=1S/C21H22O5/c1-12(2)4-5-13-8-15-18(10-17(13)24-3)25-11-21(23)16-7-6-14(22)9-19(16)26-20(15)21/h4,6-10,20,22-23H,5,11H2,1-3H3

>  <PUBCHEM_IUPAC_INCHIKEY>
WOKIXZBYDPTMJD-UHFFFAOYSA-N

>  <PUBCHEM_XLOGP3_AA>
3.5

>  <PUBCHEM_EXACT_MASS>
354.147

>  <PUBCHEM_MOLECULAR_FORMULA>
C21H22O5

>  <PUBCHEM_MOLECULAR_WEIGHT>
354.402

>  <PUBCHEM_OPENEYE_CAN_SMILES>
CC(=CCC1=C(C=C2C(=C1)C3C(CO2)(C4=C(O3)C=C(C=C4)O)O)OC)C

>  <PUBCHEM_OPENEYE_ISO_SMILES>
CC(=CCC1=C(C=C2C(=C1)C3C(CO2)(C4=C(O3)C=C(C=C4)O)O)OC)C

>  <PUBCHEM_CACTVS_TPSA>
68.2

>  <PUBCHEM_MONOISOTOPIC_WEIGHT>
354.147

>  <PUBCHEM_TOTAL_CHARGE>
0

>  <PUBCHEM_HEAVY_ATOM_COUNT>
26

>  <PUBCHEM_ATOM_DEF_STEREO_COUNT>
0

>  <PUBCHEM_ATOM_UDEF_STEREO_COUNT>
2

>  <PUBCHEM_BOND_DEF_STEREO_COUNT>
0

>  <PUBCHEM_BOND_UDEF_STEREO_COUNT>
0

>  <PUBCHEM_ISOTOPIC_ATOM_COUNT>
0

>  <PUBCHEM_COMPONENT_COUNT>
1

>  <PUBCHEM_CACTVS_TAUTO_COUNT>
3

>  <PUBCHEM_COORDINATE_TYPE>
1
5
255

>  <PUBCHEM_BONDANNOTATIONS>
7  1  3
10  12  8
10  13  8
11  16  8
12  17  8
13  15  8
14  19  8
15  18  8
16  20  8
17  18  8
19  20  8
6  3  3
8  11  8
8  14  8

$$$$
