5317189
 OpenBabel06101807152D

 32 37  0  0  0  0  0  0  0  0999 V2000
    6.2719   -0.7339    0.0000 O   0  0  0  0  0  0  0  0  0  0  0  0
    6.4811    2.2379    0.0000 O   0  0  0  0  0  0  0  0  0  0  0  0
    2.2123   -0.7507    0.0000 O   0  0  0  0  0  0  0  0  0  0  0  0
    2.8914   -2.2725    0.0000 O   0  0  0  0  0  0  0  0  0  0  0  0
   10.1327    2.0761    0.0000 O   0  0  0  0  0  0  0  0  0  0  0  0
    4.7490    2.2379    0.0000 O   0  0  0  0  0  0  0  0  0  0  0  0
    5.6151    0.7379    0.0000 C   0  0  0  0  0  0  0  0  0  0  0  0
    4.8780    0.0708    0.0000 C   0  0  0  0  0  0  0  0  0  0  0  0
    6.4811    0.2379    0.0000 C   0  0  0  0  0  0  0  0  0  0  0  0
    7.3471    0.7379    0.0000 C   0  0  0  0  0  0  0  0  0  0  0  0
    5.2832   -0.8370    0.0000 C   0  0  0  0  0  0  0  0  0  0  0  0
    7.3471    1.7379    0.0000 C   0  0  0  0  0  0  0  0  0  0  0  0
    3.8499    0.1940    0.0000 C   0  0  0  0  0  0  0  0  0  0  0  0
    3.2356   -0.6395    0.0000 C   0  0  0  0  0  0  0  0  0  0  0  0
    8.2410    0.2032    0.0000 C   0  0  0  0  0  0  0  0  0  0  0  0
    4.6882   -1.6845    0.0000 C   0  0  0  0  0  0  0  0  0  0  0  0
    3.6576   -1.5851    0.0000 C   0  0  0  0  0  0  0  0  0  0  0  0
    5.6151    1.7379    0.0000 C   0  0  0  0  0  0  0  0  0  0  0  0
    9.1471    0.7171    0.0000 C   0  0  0  0  0  0  0  0  0  0  0  0
    9.1471    1.7587    0.0000 C   0  0  0  0  0  0  0  0  0  0  0  0
    8.2410    2.2725    0.0000 C   0  0  0  0  0  0  0  0  0  0  0  0
    2.0000   -1.7579    0.0000 C   0  0  0  0  0  0  0  0  0  0  0  0
   10.1327    0.3996    0.0000 C   0  0  0  0  0  0  0  0  0  0  0  0
   10.7406    1.2379    0.0000 C   0  0  0  0  0  0  0  0  0  0  0  0
    3.6038    0.7631    0.0000 H   0  0  0  0  0  0  0  0  0  0  0  0
    8.2339   -0.4167    0.0000 H   0  0  0  0  0  0  0  0  0  0  0  0
    4.9474   -2.2477    0.0000 H   0  0  0  0  0  0  0  0  0  0  0  0
    8.2339    2.8925    0.0000 H   0  0  0  0  0  0  0  0  0  0  0  0
    1.4101   -1.5670    0.0000 H   0  0  0  0  0  0  0  0  0  0  0  0
    1.7482   -2.3244    0.0000 H   0  0  0  0  0  0  0  0  0  0  0  0
   10.3253   -0.1897    0.0000 H   0  0  0  0  0  0  0  0  0  0  0  0
   11.3606    1.2379    0.0000 H   0  0  0  0  0  0  0  0  0  0  0  0
  1  9  1  0  0  0  0
  1 11  1  0  0  0  0
  2 12  1  0  0  0  0
  2 18  1  0  0  0  0
  3 14  1  0  0  0  0
  3 22  1  0  0  0  0
  4 17  1  0  0  0  0
  4 22  1  0  0  0  0
  5 20  1  0  0  0  0
  5 24  1  0  0  0  0
  6 18  2  0  0  0  0
  7  8  1  0  0  0  0
  7  9  2  0  0  0  0
  7 18  1  0  0  0  0
  8 11  1  0  0  0  0
  8 13  2  0  0  0  0
  9 10  1  0  0  0  0
 10 12  2  0  0  0  0
 10 15  1  0  0  0  0
 11 16  2  0  0  0  0
 12 21  1  0  0  0  0
 13 14  1  0  0  0  0
 13 25  1  0  0  0  0
 14 17  2  0  0  0  0
 15 19  2  0  0  0  0
 15 26  1  0  0  0  0
 16 17  1  0  0  0  0
 16 27  1  0  0  0  0
 19 20  1  0  0  0  0
 19 23  1  0  0  0  0
 20 21  2  0  0  0  0
 21 28  1  0  0  0  0
 22 29  1  0  0  0  0
 22 30  1  0  0  0  0
 23 24  2  0  0  0  0
 23 31  1  0  0  0  0
 24 32  1  0  0  0  0
M  END
>  <PUBCHEM_COMPOUND_CID>
5317189

>  <PUBCHEM_COMPOUND_CANONICALIZED>
1

>  <PUBCHEM_CACTVS_COMPLEXITY>
552

>  <PUBCHEM_CACTVS_HBOND_ACCEPTOR>
6

>  <PUBCHEM_CACTVS_HBOND_DONOR>
0

>  <PUBCHEM_CACTVS_ROTATABLE_BOND>
0

>  <PUBCHEM_CACTVS_SUBSKEYS>
AAADccB4OAAAAAAAAAAAAAAAAAAAASJEgAA0YIAAAAAAAEiR/gAAGgAAAAAADASgmAMwDsAABECIAqjSiAACCAAkIAAIiAEGiMgdJzaMNRqiO2Kl4BUOqYfL7vzuoQADCAAIQABCAAYQABCAAAAAAAAAAA==

>  <PUBCHEM_IUPAC_INCHI>
InChI=1S/C18H8O6/c19-18-16-9-4-14-15(22-7-21-14)6-12(9)23-17(16)10-3-8-1-2-20-11(8)5-13(10)24-18/h1-6H,7H2

>  <PUBCHEM_IUPAC_INCHIKEY>
YQXNKHVPEJJBTJ-UHFFFAOYSA-N

>  <PUBCHEM_XLOGP3_AA>
3.7

>  <PUBCHEM_EXACT_MASS>
320.032

>  <PUBCHEM_MOLECULAR_FORMULA>
C18H8O6

>  <PUBCHEM_MOLECULAR_WEIGHT>
320.256

>  <PUBCHEM_OPENEYE_CAN_SMILES>
C1OC2=C(O1)C=C3C(=C2)C4=C(O3)C5=C(C=C6C(=C5)C=CO6)OC4=O

>  <PUBCHEM_OPENEYE_ISO_SMILES>
C1OC2=C(O1)C=C3C(=C2)C4=C(O3)C5=C(C=C6C(=C5)C=CO6)OC4=O

>  <PUBCHEM_CACTVS_TPSA>
71

>  <PUBCHEM_MONOISOTOPIC_WEIGHT>
320.032

>  <PUBCHEM_TOTAL_CHARGE>
0

>  <PUBCHEM_HEAVY_ATOM_COUNT>
24

>  <PUBCHEM_ATOM_DEF_STEREO_COUNT>
0

>  <PUBCHEM_ATOM_UDEF_STEREO_COUNT>
0

>  <PUBCHEM_BOND_DEF_STEREO_COUNT>
0

>  <PUBCHEM_BOND_UDEF_STEREO_COUNT>
0

>  <PUBCHEM_ISOTOPIC_ATOM_COUNT>
0

>  <PUBCHEM_COMPONENT_COUNT>
1

>  <PUBCHEM_CACTVS_TAUTO_COUNT>
1

>  <PUBCHEM_COORDINATE_TYPE>
1
5
255

>  <PUBCHEM_BONDANNOTATIONS>
1  11  8
1  9  8
10  12  8
10  15  8
11  16  8
12  21  8
13  14  8
14  17  8
15  19  8
16  17  8
19  20  8
19  23  8
2  12  8
2  18  8
20  21  8
23  24  8
5  20  8
5  24  8
7  18  8
7  8  8
7  9  8
8  11  8
8  13  8
9  10  8

$$$$
