5317463
 OpenBabel06101807152D

 39 40  0  0  1  0  0  0  0  0999 V2000
    6.8671   -1.2500    0.0000 O   0  0  0  0  0  0  0  0  0  0  0  0
    5.1350   -3.2500    0.0000 O   0  0  0  0  0  0  0  0  0  0  0  0
    6.8671   -4.2500    0.0000 O   0  0  0  0  0  0  0  0  0  0  0  0
    8.5991   -3.2500    0.0000 O   0  0  0  0  0  0  0  0  0  0  0  0
    8.5991   -1.2500    0.0000 O   0  0  0  0  0  0  0  0  0  0  0  0
    5.1350   -0.2500    0.0000 O   0  0  0  0  0  0  0  0  0  0  0  0
    3.4030   -0.2500    0.0000 O   0  0  0  0  0  0  0  0  0  0  0  0
    2.5369    3.2500    0.0000 O   0  0  0  0  0  0  0  0  0  0  0  0
    6.0010    3.2500    0.0000 O   0  0  0  0  0  0  0  0  0  0  0  0
    4.2690    4.2500    0.0000 O   0  0  0  0  0  0  0  0  0  0  0  0
    6.0010   -2.7500    0.0000 C   0  0  1  0  0  0  0  0  0  0  0  0
    6.8671   -3.2500    0.0000 C   0  0  1  0  0  0  0  0  0  0  0  0
    6.0010   -1.7500    0.0000 C   0  0  1  0  0  0  0  0  0  0  0  0
    7.7331   -2.7500    0.0000 C   0  0  2  0  0  0  0  0  0  0  0  0
    7.7331   -1.7500    0.0000 C   0  0  1  0  0  0  0  0  0  0  0  0
    5.1350   -1.2500    0.0000 C   0  0  0  0  0  0  0  0  0  0  0  0
    4.2690    0.2500    0.0000 C   0  0  0  0  0  0  0  0  0  0  0  0
    4.2690    1.2500    0.0000 C   0  0  0  0  0  0  0  0  0  0  0  0
    5.1350    1.7500    0.0000 C   0  0  0  0  0  0  0  0  0  0  0  0
    3.4030    1.7500    0.0000 C   0  0  0  0  0  0  0  0  0  0  0  0
    3.4030    2.7500    0.0000 C   0  0  0  0  0  0  0  0  0  0  0  0
    5.1350    2.7500    0.0000 C   0  0  0  0  0  0  0  0  0  0  0  0
    4.2690    3.2500    0.0000 C   0  0  0  0  0  0  0  0  0  0  0  0
    6.0010   -3.3700    0.0000 H   0  0  0  0  0  0  0  0  0  0  0  0
    7.4040   -3.5600    0.0000 H   0  0  0  0  0  0  0  0  0  0  0  0
    6.0010   -1.1300    0.0000 H   0  0  0  0  0  0  0  0  0  0  0  0
    8.2700   -2.4400    0.0000 H   0  0  0  0  0  0  0  0  0  0  0  0
    7.7331   -1.1300    0.0000 H   0  0  0  0  0  0  0  0  0  0  0  0
    4.5244   -1.1423    0.0000 H   0  0  0  0  0  0  0  0  0  0  0  0
    4.9230   -1.8326    0.0000 H   0  0  0  0  0  0  0  0  0  0  0  0
    4.5981   -2.9400    0.0000 H   0  0  0  0  0  0  0  0  0  0  0  0
    7.4040   -4.5600    0.0000 H   0  0  0  0  0  0  0  0  0  0  0  0
    9.1360   -2.9400    0.0000 H   0  0  0  0  0  0  0  0  0  0  0  0
    8.5991   -0.6300    0.0000 H   0  0  0  0  0  0  0  0  0  0  0  0
    5.6720    1.4400    0.0000 H   0  0  0  0  0  0  0  0  0  0  0  0
    2.8660    1.4400    0.0000 H   0  0  0  0  0  0  0  0  0  0  0  0
    2.0000    2.9400    0.0000 H   0  0  0  0  0  0  0  0  0  0  0  0
    6.5380    2.9400    0.0000 H   0  0  0  0  0  0  0  0  0  0  0  0
    3.7320    4.5600    0.0000 H   0  0  0  0  0  0  0  0  0  0  0  0
  1 13  1  0  0  0  0
  1 15  1  0  0  0  0
  2 31  1  0  0  0  0
  3 32  1  0  0  0  0
  4 33  1  0  0  0  0
  5 34  1  0  0  0  0
  6 16  1  0  0  0  0
  6 17  1  0  0  0  0
  7 17  2  0  0  0  0
  8 21  1  0  0  0  0
  8 37  1  0  0  0  0
  9 22  1  0  0  0  0
  9 38  1  0  0  0  0
 10 23  1  0  0  0  0
 10 39  1  0  0  0  0
 11  2  1  0  0  0  0
 11 12  1  6  0  0  0
 11 24  1  0  0  0  0
 12  3  1  0  0  0  0
 12 14  1  1  0  0  0
 12 25  1  0  0  0  0
 13 11  1  6  0  0  0
 13 16  1  0  0  0  0
 13 26  1  0  0  0  0
 14  4  1  0  0  0  0
 14 15  1  6  0  0  0
 14 27  1  0  0  0  0
 15  5  1  0  0  0  0
 15 28  1  6  0  0  0
 16 29  1  0  0  0  0
 16 30  1  0  0  0  0
 17 18  1  0  0  0  0
 18 19  2  0  0  0  0
 18 20  1  0  0  0  0
 19 22  1  0  0  0  0
 19 35  1  0  0  0  0
 20 21  2  0  0  0  0
 20 36  1  0  0  0  0
 21 23  1  0  0  0  0
 22 23  2  0  0  0  0
M  END
>  <PUBCHEM_COMPOUND_CID>
5317463

>  <PUBCHEM_COMPOUND_CANONICALIZED>
1

>  <PUBCHEM_CACTVS_COMPLEXITY>
406

>  <PUBCHEM_CACTVS_HBOND_ACCEPTOR>
10

>  <PUBCHEM_CACTVS_HBOND_DONOR>
7

>  <PUBCHEM_CACTVS_ROTATABLE_BOND>
4

>  <PUBCHEM_CACTVS_SUBSKEYS>
AAADceBwPAAAAAAAAAAAAAAAAAAAAAAAAAA0QAAAAAAAAAABAAAAGgAACAAADBSwmAMwDoAABgCIAiDSCAACAAAkIAAAiAEGiMgZNzKCNRqCcQElwBUPuYfK7DzOIAABCAAAQABAAAIQAACAAAAAAAAAAA==

>  <PUBCHEM_IUPAC_OPENEYE_NAME>
[(2R,3S,4S,5R,6R)-3,4,5,6-tetrahydroxytetrahydropyran-2-yl]methyl 3,4,5-trihydroxybenzoate

>  <PUBCHEM_IUPAC_CAS_NAME>
3,4,5-trihydroxybenzoic acid [(2R,3S,4S,5R,6R)-3,4,5,6-tetrahydroxy-2-oxanyl]methyl ester

>  <PUBCHEM_IUPAC_NAME>
[(2R,3S,4S,5R,6R)-3,4,5,6-tetrahydroxyoxan-2-yl]methyl 3,4,5-trihydroxybenzoate

>  <PUBCHEM_IUPAC_SYSTEMATIC_NAME>
[(2R,3S,4S,5R,6R)-3,4,5,6-tetrakis(oxidanyl)oxan-2-yl]methyl 3,4,5-tris(oxidanyl)benzoate

>  <PUBCHEM_IUPAC_TRADITIONAL_NAME>
3,4,5-trihydroxybenzoic acid [(2R,3S,4S,5R,6R)-3,4,5,6-tetrahydroxytetrahydropyran-2-yl]methyl ester

>  <PUBCHEM_IUPAC_INCHI>
InChI=1S/C13H16O10/c14-5-1-4(2-6(15)8(5)16)12(20)22-3-7-9(17)10(18)11(19)13(21)23-7/h1-2,7,9-11,13-19,21H,3H2/t7-,9-,10+,11-,13-/m1/s1

>  <PUBCHEM_IUPAC_INCHIKEY>
VGVDLJNNDOFWKT-JEUROIALSA-N

>  <PUBCHEM_XLOGP3_AA>
-2

>  <PUBCHEM_EXACT_MASS>
332.074

>  <PUBCHEM_MOLECULAR_FORMULA>
C13H16O10

>  <PUBCHEM_MOLECULAR_WEIGHT>
332.261

>  <PUBCHEM_OPENEYE_CAN_SMILES>
C1=C(C=C(C(=C1O)O)O)C(=O)OCC2C(C(C(C(O2)O)O)O)O

>  <PUBCHEM_OPENEYE_ISO_SMILES>
C1=C(C=C(C(=C1O)O)O)C(=O)OC[C@@H]2[C@H]([C@@H]([C@H]([C@@H](O2)O)O)O)O

>  <PUBCHEM_CACTVS_TPSA>
177

>  <PUBCHEM_MONOISOTOPIC_WEIGHT>
332.074

>  <PUBCHEM_TOTAL_CHARGE>
0

>  <PUBCHEM_HEAVY_ATOM_COUNT>
23

>  <PUBCHEM_ATOM_DEF_STEREO_COUNT>
5

>  <PUBCHEM_ATOM_UDEF_STEREO_COUNT>
0

>  <PUBCHEM_BOND_DEF_STEREO_COUNT>
0

>  <PUBCHEM_BOND_UDEF_STEREO_COUNT>
0

>  <PUBCHEM_ISOTOPIC_ATOM_COUNT>
0

>  <PUBCHEM_COMPONENT_COUNT>
1

>  <PUBCHEM_CACTVS_TAUTO_COUNT>
14

>  <PUBCHEM_COORDINATE_TYPE>
1
5
255

>  <PUBCHEM_BONDANNOTATIONS>
13  16  5
18  19  8
18  20  8
19  22  8
11  2  6
20  21  8
21  23  8
22  23  8
12  3  5
14  4  6
15  5  5

$$$$
