5317431
 OpenBabel06101807152D

 62 64  0  0  1  0  0  0  0  0999 V2000
    2.8680   -1.0127    0.0000 S   0  0  0  0  0  0  0  0  0  0  0  0
    9.8622   -0.0502    0.0000 O   0  0  0  0  0  0  0  0  0  0  0  0
    6.3320   -1.0260    0.0000 O   0  0  0  0  0  0  0  0  0  0  0  0
   11.6744   -2.8549    0.0000 O   0  0  0  0  0  0  0  0  0  0  0  0
   11.3621    0.8158    0.0000 O   0  0  0  0  0  0  0  0  0  0  0  0
    5.4602   -2.5227    0.0000 O   0  0  0  0  0  0  0  0  0  0  0  0
    8.9961   -1.5502    0.0000 C   0  0  1  0  0  0  0  0  0  0  0  0
    8.9961   -2.5502    0.0000 C   0  0  2  0  0  0  0  0  0  0  0  0
    8.1022   -1.0155    0.0000 C   0  0  2  0  0  0  0  0  0  0  0  0
    9.8622   -1.0502    0.0000 C   0  0  1  0  0  0  0  0  0  0  0  0
    8.1022   -3.0848    0.0000 C   0  0  0  0  0  0  0  0  0  0  0  0
    7.1961   -1.5294    0.0000 C   0  0  3  0  0  0  0  0  0  0  0  0
    9.8622   -3.0502    0.0000 C   0  0  0  0  0  0  0  0  0  0  0  0
    7.1961   -2.5710    0.0000 C   0  0  0  0  0  0  0  0  0  0  0  0
    8.9961   -0.5502    0.0000 C   0  0  0  0  0  0  0  0  0  0  0  0
   10.7282   -1.5502    0.0000 C   0  0  0  0  0  0  0  0  0  0  0  0
   10.7282   -2.5502    0.0000 C   0  0  0  0  0  0  0  0  0  0  0  0
    8.1137   -0.0156    0.0000 C   0  0  0  0  0  0  0  0  0  0  0  0
   11.6744   -1.2454    0.0000 C   0  0  0  0  0  0  0  0  0  0  0  0
   12.2580   -2.0502    0.0000 C   0  0  0  0  0  0  0  0  0  0  0  0
   12.4187   -0.5776    0.0000 C   0  0  0  0  0  0  0  0  0  0  0  0
   10.3621    0.8158    0.0000 C   0  0  0  0  0  0  0  0  0  0  0  0
    5.4641   -1.5227    0.0000 C   0  0  0  0  0  0  0  0  0  0  0  0
    9.8622    1.6819    0.0000 C   0  0  0  0  0  0  0  0  0  0  0  0
    4.6000   -1.0194    0.0000 C   0  0  0  0  0  0  0  0  0  0  0  0
    8.8622    1.6819    0.0000 C   0  0  0  0  0  0  0  0  0  0  0  0
   10.3621    2.5479    0.0000 C   0  0  0  0  0  0  0  0  0  0  0  0
    3.7320   -1.5160    0.0000 C   0  0  0  0  0  0  0  0  0  0  0  0
   11.3621    2.5479    0.0000 C   0  0  0  0  0  0  0  0  0  0  0  0
    2.0000   -1.5093    0.0000 C   0  0  0  0  0  0  0  0  0  0  0  0
    9.0027   -3.4002    0.0000 H   0  0  0  0  0  0  0  0  0  0  0  0
    7.5683   -0.7004    0.0000 H   0  0  0  0  0  0  0  0  0  0  0  0
   10.3991   -0.7402    0.0000 H   0  0  0  0  0  0  0  0  0  0  0  0
    7.7086   -3.5639    0.0000 H   0  0  0  0  0  0  0  0  0  0  0  0
    8.5068   -3.5546    0.0000 H   0  0  0  0  0  0  0  0  0  0  0  0
    6.4592   -1.9529    0.0000 H   0  0  0  0  0  0  0  0  0  0  0  0
    9.4636   -3.5251    0.0000 H   0  0  0  0  0  0  0  0  0  0  0  0
   10.2607   -3.5251    0.0000 H   0  0  0  0  0  0  0  0  0  0  0  0
    6.5853   -2.4649    0.0000 H   0  0  0  0  0  0  0  0  0  0  0  0
    6.9871   -3.1547    0.0000 H   0  0  0  0  0  0  0  0  0  0  0  0
    9.6161   -0.5502    0.0000 H   0  0  0  0  0  0  0  0  0  0  0  0
    8.9961    0.0698    0.0000 H   0  0  0  0  0  0  0  0  0  0  0  0
    8.3761   -0.5502    0.0000 H   0  0  0  0  0  0  0  0  0  0  0  0
    8.7337   -0.0228    0.0000 H   0  0  0  0  0  0  0  0  0  0  0  0
    8.1209    0.6044    0.0000 H   0  0  0  0  0  0  0  0  0  0  0  0
    7.4938   -0.0084    0.0000 H   0  0  0  0  0  0  0  0  0  0  0  0
   12.8780   -2.0502    0.0000 H   0  0  0  0  0  0  0  0  0  0  0  0
   12.8328   -1.0391    0.0000 H   0  0  0  0  0  0  0  0  0  0  0  0
   12.8802   -0.1635    0.0000 H   0  0  0  0  0  0  0  0  0  0  0  0
   12.0046   -0.1161    0.0000 H   0  0  0  0  0  0  0  0  0  0  0  0
    4.6024   -0.3994    0.0000 H   0  0  0  0  0  0  0  0  0  0  0  0
    8.8622    2.3019    0.0000 H   0  0  0  0  0  0  0  0  0  0  0  0
    8.2422    1.6819    0.0000 H   0  0  0  0  0  0  0  0  0  0  0  0
    8.8622    1.0619    0.0000 H   0  0  0  0  0  0  0  0  0  0  0  0
   10.0521    3.0848    0.0000 H   0  0  0  0  0  0  0  0  0  0  0  0
    3.7296   -2.1360    0.0000 H   0  0  0  0  0  0  0  0  0  0  0  0
   11.3621    1.9279    0.0000 H   0  0  0  0  0  0  0  0  0  0  0  0
   11.9821    2.5479    0.0000 H   0  0  0  0  0  0  0  0  0  0  0  0
   11.3621    3.1679    0.0000 H   0  0  0  0  0  0  0  0  0  0  0  0
    1.6921   -0.9712    0.0000 H   0  0  0  0  0  0  0  0  0  0  0  0
    1.4619   -1.8173    0.0000 H   0  0  0  0  0  0  0  0  0  0  0  0
    2.3079   -2.0475    0.0000 H   0  0  0  0  0  0  0  0  0  0  0  0
  1 28  1  0  0  0  0
  1 30  1  0  0  0  0
  2 22  1  0  0  0  0
  3 12  1  0  0  0  0
  3 23  1  0  0  0  0
  4 17  1  0  0  0  0
  4 20  1  0  0  0  0
  5 22  2  0  0  0  0
  6 23  2  0  0  0  0
  7  8  1  6  0  0  0
  7 15  1  0  0  0  0
  8 11  1  0  0  0  0
  8 13  1  0  0  0  0
  8 31  1  6  0  0  0
  9  7  1  1  0  0  0
  9 12  1  0  0  0  0
  9 18  1  0  0  0  0
  9 32  1  0  0  0  0
 10  2  1  0  0  0  0
 10  7  1  1  0  0  0
 10 16  1  0  0  0  0
 10 33  1  0  0  0  0
 11 14  1  0  0  0  0
 11 34  1  0  0  0  0
 11 35  1  0  0  0  0
 12 14  1  0  0  0  0
 12 36  1  0  0  0  0
 13 17  1  0  0  0  0
 13 37  1  0  0  0  0
 13 38  1  0  0  0  0
 14 39  1  0  0  0  0
 14 40  1  0  0  0  0
 15 41  1  0  0  0  0
 15 42  1  0  0  0  0
 15 43  1  0  0  0  0
 16 17  2  0  0  0  0
 16 19  1  0  0  0  0
 18 44  1  0  0  0  0
 18 45  1  0  0  0  0
 18 46  1  0  0  0  0
 19 20  2  0  0  0  0
 19 21  1  0  0  0  0
 20 47  1  0  0  0  0
 21 48  1  0  0  0  0
 21 49  1  0  0  0  0
 21 50  1  0  0  0  0
 22 24  1  0  0  0  0
 23 25  1  0  0  0  0
 24 26  1  0  0  0  0
 24 27  2  0  0  0  0
 25 28  2  0  0  0  0
 25 51  1  0  0  0  0
 26 52  1  0  0  0  0
 26 53  1  0  0  0  0
 26 54  1  0  0  0  0
 27 29  1  0  0  0  0
 27 55  1  0  0  0  0
 28 56  1  0  0  0  0
 29 57  1  0  0  0  0
 29 58  1  0  0  0  0
 29 59  1  0  0  0  0
 30 60  1  0  0  0  0
 30 61  1  0  0  0  0
 30 62  1  0  0  0  0
M  END
>  <PUBCHEM_COMPOUND_CID>
5317431

>  <PUBCHEM_COMPOUND_CANONICALIZED>
1

>  <PUBCHEM_CACTVS_COMPLEXITY>
716

>  <PUBCHEM_CACTVS_HBOND_ACCEPTOR>
6

>  <PUBCHEM_CACTVS_HBOND_DONOR>
0

>  <PUBCHEM_CACTVS_ROTATABLE_BOND>
7

>  <PUBCHEM_CACTVS_SUBSKEYS>
AAADcfB4OABAAAAAAAAAAAAAAAAAASAAAAAwYAAAAAAAAEjBgAAAGgQAAAAADxSk2AKiDIAABEiIAqjSiAACCAAkIAAIiAEECMgMJzaENRqCGSCl4BEIqYfK7PzPgAAAAAAAAADAAAYQADAAAAAAAAAAAA==

>  <PUBCHEM_IUPAC_OPENEYE_NAME>
[(4S,4aS,5R,8aR)-3,4a,5-trimethyl-6-[(E)-3-methylsulfanylprop-2-enoyl]oxy-5,6,7,8,8a,9-hexahydro-4H-benzo[f]benzofuran-4-yl] (Z)-2-methylbut-2-enoate

>  <PUBCHEM_IUPAC_CAS_NAME>
(Z)-2-methyl-2-butenoic acid [(4S,4aS,5R,8aR)-3,4a,5-trimethyl-6-[(E)-3-(methylthio)-1-oxoprop-2-enoxy]-5,6,7,8,8a,9-hexahydro-4H-benzo[f]benzofuran-4-yl] ester

>  <PUBCHEM_IUPAC_NAME>
[(4S,4aS,5R,8aR)-3,4a,5-trimethyl-6-[(E)-3-methylsulfanylprop-2-enoyl]oxy-5,6,7,8,8a,9-hexahydro-4H-benzo[f][1]benzofuran-4-yl] (Z)-2-methylbut-2-enoate

>  <PUBCHEM_IUPAC_SYSTEMATIC_NAME>
[(4S,4aS,5R,8aR)-3,4a,5-trimethyl-6-[(E)-3-methylsulfanylprop-2-enoyl]oxy-5,6,7,8,8a,9-hexahydro-4H-benzo[f][1]benzofuran-4-yl] (Z)-2-methylbut-2-enoate

>  <PUBCHEM_IUPAC_TRADITIONAL_NAME>
(Z)-2-methylbut-2-enoic acid [(4S,4aS,5R,8aR)-3,4a,5-trimethyl-6-[(E)-3-(methylthio)acryloyl]oxy-5,6,7,8,8a,9-hexahydro-4H-benzo[f]benzofuran-4-yl] ester

>  <PUBCHEM_IUPAC_INCHI>
InChI=1S/C24H32O5S/c1-7-14(2)23(26)29-22-21-15(3)13-27-19(21)12-17-8-9-18(16(4)24(17,22)5)28-20(25)10-11-30-6/h7,10-11,13,16-18,22H,8-9,12H2,1-6H3/b11-10+,14-7-/t16-,17+,18?,22+,24+/m0/s1

>  <PUBCHEM_IUPAC_INCHIKEY>
DZIJJEZRPMYRRP-OOEJXFKJSA-N

>  <PUBCHEM_XLOGP3_AA>
5.2

>  <PUBCHEM_EXACT_MASS>
432.197

>  <PUBCHEM_MOLECULAR_FORMULA>
C24H32O5S

>  <PUBCHEM_MOLECULAR_WEIGHT>
432.575

>  <PUBCHEM_OPENEYE_CAN_SMILES>
CC=C(C)C(=O)OC1C2=C(CC3C1(C(C(CC3)OC(=O)C=CSC)C)C)OC=C2C

>  <PUBCHEM_OPENEYE_ISO_SMILES>
C/C=C(/C)\C(=O)O[C@@H]1C2=C(C[C@@H]3[C@]1([C@H](C(CC3)OC(=O)/C=C/SC)C)C)OC=C2C

>  <PUBCHEM_CACTVS_TPSA>
91

>  <PUBCHEM_MONOISOTOPIC_WEIGHT>
432.197

>  <PUBCHEM_TOTAL_CHARGE>
0

>  <PUBCHEM_HEAVY_ATOM_COUNT>
30

>  <PUBCHEM_ATOM_DEF_STEREO_COUNT>
4

>  <PUBCHEM_ATOM_UDEF_STEREO_COUNT>
1

>  <PUBCHEM_BOND_DEF_STEREO_COUNT>
2

>  <PUBCHEM_BOND_UDEF_STEREO_COUNT>
0

>  <PUBCHEM_ISOTOPIC_ATOM_COUNT>
0

>  <PUBCHEM_COMPONENT_COUNT>
1

>  <PUBCHEM_CACTVS_TAUTO_COUNT>
1

>  <PUBCHEM_COORDINATE_TYPE>
1
5
255

>  <PUBCHEM_BONDANNOTATIONS>
12  36  3
16  17  8
16  19  8
19  20  8
10  2  6
4  17  8
4  20  8
7  15  6
8  31  6
9  18  6

$$$$
