5317991
 OpenBabel06101807152D

 70 74  0  0  1  0  0  0  0  0999 V2000
   11.1972   -1.2857    0.0000 O   0  0  0  0  0  0  0  0  0  0  0  0
   12.9292   -1.2857    0.0000 O   0  0  0  0  0  0  0  0  0  0  0  0
    9.4651   -3.2857    0.0000 O   0  0  0  0  0  0  0  0  0  0  0  0
   11.1972   -4.2857    0.0000 O   0  0  0  0  0  0  0  0  0  0  0  0
   12.9292   -3.2857    0.0000 O   0  0  0  0  0  0  0  0  0  0  0  0
    8.5991   -1.7857    0.0000 O   0  0  0  0  0  0  0  0  0  0  0  0
   13.7953    1.2143    0.0000 O   0  0  0  0  0  0  0  0  0  0  0  0
   11.1972   -0.2857    0.0000 O   0  0  0  0  0  0  0  0  0  0  0  0
    7.7331   -0.2857    0.0000 O   0  0  0  0  0  0  0  0  0  0  0  0
   10.2930    1.2112    0.0000 O   0  0  0  0  0  0  0  0  0  0  0  0
   12.0511    4.2836    0.0000 O   0  0  0  0  0  0  0  0  0  0  0  0
   17.2594    0.2143    0.0000 O   0  0  0  0  0  0  0  0  0  0  0  0
   17.2594   -1.7857    0.0000 O   0  0  0  0  0  0  0  0  0  0  0  0
    2.5369   -3.2857    0.0000 O   0  0  0  0  0  0  0  0  0  0  0  0
   10.3312   -2.7857    0.0000 C   0  0  1  0  0  0  0  0  0  0  0  0
   11.1972   -3.2857    0.0000 C   0  0  1  0  0  0  0  0  0  0  0  0
   10.3312   -1.7857    0.0000 C   0  0  1  0  0  0  0  0  0  0  0  0
   12.0632   -2.7857    0.0000 C   0  0  2  0  0  0  0  0  0  0  0  0
   12.0632   -1.7857    0.0000 C   0  0  1  0  0  0  0  0  0  0  0  0
    9.4651   -1.2857    0.0000 C   0  0  0  0  0  0  0  0  0  0  0  0
   12.9292   -0.2857    0.0000 C   0  0  0  0  0  0  0  0  0  0  0  0
   13.7953    0.2143    0.0000 C   0  0  0  0  0  0  0  0  0  0  0  0
   12.0632    0.2143    0.0000 C   0  0  0  0  0  0  0  0  0  0  0  0
   12.0632    1.2143    0.0000 C   0  0  0  0  0  0  0  0  0  0  0  0
    7.7331   -1.2857    0.0000 C   0  0  0  0  0  0  0  0  0  0  0  0
   12.9292    1.7143    0.0000 C   0  0  0  0  0  0  0  0  0  0  0  0
   14.6613   -0.2857    0.0000 C   0  0  0  0  0  0  0  0  0  0  0  0
   11.1532    1.7212    0.0000 C   0  0  0  0  0  0  0  0  0  0  0  0
   12.9453    2.7558    0.0000 C   0  0  0  0  0  0  0  0  0  0  0  0
   15.5273    0.2143    0.0000 C   0  0  0  0  0  0  0  0  0  0  0  0
   14.6613   -1.2857    0.0000 C   0  0  0  0  0  0  0  0  0  0  0  0
    6.8671   -1.7857    0.0000 C   0  0  0  0  0  0  0  0  0  0  0  0
   11.1452    2.7628    0.0000 C   0  0  0  0  0  0  0  0  0  0  0  0
   12.0473    3.2836    0.0000 C   0  0  0  0  0  0  0  0  0  0  0  0
   16.3933   -0.2857    0.0000 C   0  0  0  0  0  0  0  0  0  0  0  0
   15.5273   -1.7857    0.0000 C   0  0  0  0  0  0  0  0  0  0  0  0
   16.3933   -1.2857    0.0000 C   0  0  0  0  0  0  0  0  0  0  0  0
    6.0010   -1.2857    0.0000 C   0  0  0  0  0  0  0  0  0  0  0  0
    5.1350   -1.7857    0.0000 C   0  0  0  0  0  0  0  0  0  0  0  0
    4.2690   -1.2857    0.0000 C   0  0  0  0  0  0  0  0  0  0  0  0
    5.1350   -2.7857    0.0000 C   0  0  0  0  0  0  0  0  0  0  0  0
    3.4030   -1.7857    0.0000 C   0  0  0  0  0  0  0  0  0  0  0  0
    4.2690   -3.2857    0.0000 C   0  0  0  0  0  0  0  0  0  0  0  0
    3.4030   -2.7857    0.0000 C   0  0  0  0  0  0  0  0  0  0  0  0
    9.7942   -2.4757    0.0000 H   0  0  0  0  0  0  0  0  0  0  0  0
   11.7341   -3.5957    0.0000 H   0  0  0  0  0  0  0  0  0  0  0  0
   10.3312   -1.1657    0.0000 H   0  0  0  0  0  0  0  0  0  0  0  0
   12.6002   -2.4757    0.0000 H   0  0  0  0  0  0  0  0  0  0  0  0
   12.0632   -1.1657    0.0000 H   0  0  0  0  0  0  0  0  0  0  0  0
    9.8637   -0.8107    0.0000 H   0  0  0  0  0  0  0  0  0  0  0  0
    9.0666   -0.8107    0.0000 H   0  0  0  0  0  0  0  0  0  0  0  0
    9.4651   -3.9057    0.0000 H   0  0  0  0  0  0  0  0  0  0  0  0
   10.6603   -4.5957    0.0000 H   0  0  0  0  0  0  0  0  0  0  0  0
   12.9292   -3.9057    0.0000 H   0  0  0  0  0  0  0  0  0  0  0  0
   13.4858    3.0596    0.0000 H   0  0  0  0  0  0  0  0  0  0  0  0
   15.5273    0.8343    0.0000 H   0  0  0  0  0  0  0  0  0  0  0  0
   14.1244   -1.5957    0.0000 H   0  0  0  0  0  0  0  0  0  0  0  0
    6.8671   -2.4057    0.0000 H   0  0  0  0  0  0  0  0  0  0  0  0
   10.6071    3.0707    0.0000 H   0  0  0  0  0  0  0  0  0  0  0  0
   15.5273   -2.4057    0.0000 H   0  0  0  0  0  0  0  0  0  0  0  0
    6.0010   -0.6657    0.0000 H   0  0  0  0  0  0  0  0  0  0  0  0
    9.7525    1.5150    0.0000 H   0  0  0  0  0  0  0  0  0  0  0  0
   11.5154    4.5957    0.0000 H   0  0  0  0  0  0  0  0  0  0  0  0
   17.2594    0.8343    0.0000 H   0  0  0  0  0  0  0  0  0  0  0  0
   17.2594   -2.4057    0.0000 H   0  0  0  0  0  0  0  0  0  0  0  0
    4.2690   -0.6657    0.0000 H   0  0  0  0  0  0  0  0  0  0  0  0
    5.6720   -3.0957    0.0000 H   0  0  0  0  0  0  0  0  0  0  0  0
    2.8660   -1.4757    0.0000 H   0  0  0  0  0  0  0  0  0  0  0  0
    4.2690   -3.9057    0.0000 H   0  0  0  0  0  0  0  0  0  0  0  0
    2.0000   -2.9757    0.0000 H   0  0  0  0  0  0  0  0  0  0  0  0
  1 17  1  0  0  0  0
  1 19  1  0  0  0  0
  2 21  1  0  0  0  0
  3 52  1  0  0  0  0
  4 53  1  0  0  0  0
  5 54  1  0  0  0  0
  6 20  1  0  0  0  0
  6 25  1  0  0  0  0
  7 22  1  0  0  0  0
  7 26  1  0  0  0  0
  8 23  2  0  0  0  0
  9 25  2  0  0  0  0
 10 28  1  0  0  0  0
 10 62  1  0  0  0  0
 11 34  1  0  0  0  0
 11 63  1  0  0  0  0
 12 35  1  0  0  0  0
 12 64  1  0  0  0  0
 13 37  1  0  0  0  0
 13 65  1  0  0  0  0
 14 44  1  0  0  0  0
 14 70  1  0  0  0  0
 15  3  1  0  0  0  0
 15 16  1  1  0  0  0
 15 45  1  0  0  0  0
 16  4  1  0  0  0  0
 16 18  1  1  0  0  0
 16 46  1  0  0  0  0
 17 15  1  6  0  0  0
 17 20  1  0  0  0  0
 17 47  1  0  0  0  0
 18  5  1  0  0  0  0
 18 19  1  6  0  0  0
 18 48  1  0  0  0  0
 19  2  1  0  0  0  0
 19 49  1  6  0  0  0
 20 50  1  0  0  0  0
 20 51  1  0  0  0  0
 21 22  2  0  0  0  0
 21 23  1  0  0  0  0
 22 27  1  0  0  0  0
 23 24  1  0  0  0  0
 24 26  1  0  0  0  0
 24 28  2  0  0  0  0
 25 32  1  0  0  0  0
 26 29  2  0  0  0  0
 27 30  2  0  0  0  0
 27 31  1  0  0  0  0
 28 33  1  0  0  0  0
 29 34  1  0  0  0  0
 29 55  1  0  0  0  0
 30 35  1  0  0  0  0
 30 56  1  0  0  0  0
 31 36  2  0  0  0  0
 31 57  1  0  0  0  0
 32 38  2  0  0  0  0
 32 58  1  0  0  0  0
 33 34  2  0  0  0  0
 33 59  1  0  0  0  0
 35 37  2  0  0  0  0
 36 37  1  0  0  0  0
 36 60  1  0  0  0  0
 38 39  1  0  0  0  0
 38 61  1  0  0  0  0
 39 40  2  0  0  0  0
 39 41  1  0  0  0  0
 40 42  1  0  0  0  0
 40 66  1  0  0  0  0
 41 43  2  0  0  0  0
 41 67  1  0  0  0  0
 42 44  2  0  0  0  0
 42 68  1  0  0  0  0
 43 44  1  0  0  0  0
 43 69  1  0  0  0  0
M  END
>  <PUBCHEM_COMPOUND_CID>
5317991

>  <PUBCHEM_COMPOUND_CANONICALIZED>
1

>  <PUBCHEM_CACTVS_COMPLEXITY>
1090

>  <PUBCHEM_CACTVS_HBOND_ACCEPTOR>
14

>  <PUBCHEM_CACTVS_HBOND_DONOR>
8

>  <PUBCHEM_CACTVS_ROTATABLE_BOND>
8

>  <PUBCHEM_CACTVS_SUBSKEYS>
AAADceB4PAAAAAAAAAAAAAAAAAAAAAAAAAA0YMECAAAAAACBUAAAGgAACAAADBSwmAMwDoAABgCIAqDSCAICCAAkIAAIiAFGiMgdNzaGNR6ieWGl4BUPuYfI7LzOIAABCAAIQABAAAIQABCAAAAAAAAAAA==

>  <PUBCHEM_IUPAC_OPENEYE_NAME>
[(2R,3S,4S,5R,6S)-6-[2-(3,4-dihydroxyphenyl)-5,7-dihydroxy-4-oxo-chromen-3-yl]oxy-3,4,5-trihydroxy-tetrahydropyran-2-yl]methyl (E)-3-(4-hydroxyphenyl)prop-2-enoate

>  <PUBCHEM_IUPAC_CAS_NAME>
(E)-3-(4-hydroxyphenyl)-2-propenoic acid [(2R,3S,4S,5R,6S)-6-[[2-(3,4-dihydroxyphenyl)-5,7-dihydroxy-4-oxo-1-benzopyran-3-yl]oxy]-3,4,5-trihydroxy-2-oxanyl]methyl ester

>  <PUBCHEM_IUPAC_NAME>
[(2R,3S,4S,5R,6S)-6-[2-(3,4-dihydroxyphenyl)-5,7-dihydroxy-4-oxochromen-3-yl]oxy-3,4,5-trihydroxyoxan-2-yl]methyl (E)-3-(4-hydroxyphenyl)prop-2-enoate

>  <PUBCHEM_IUPAC_SYSTEMATIC_NAME>
[(2R,3S,4S,5R,6S)-6-[2-[3,4-bis(oxidanyl)phenyl]-5,7-bis(oxidanyl)-4-oxidanylidene-chromen-3-yl]oxy-3,4,5-tris(oxidanyl)oxan-2-yl]methyl (E)-3-(4-hydroxyphenyl)prop-2-enoate

>  <PUBCHEM_IUPAC_TRADITIONAL_NAME>
(E)-3-(4-hydroxyphenyl)acrylic acid [(2R,3S,4S,5R,6S)-6-[2-(3,4-dihydroxyphenyl)-5,7-dihydroxy-4-keto-chromen-3-yl]oxy-3,4,5-trihydroxy-tetrahydropyran-2-yl]methyl ester

>  <PUBCHEM_IUPAC_INCHI>
InChI=1S/C30H26O14/c31-15-5-1-13(2-6-15)3-8-22(36)41-12-21-24(37)26(39)27(40)30(43-21)44-29-25(38)23-19(35)10-16(32)11-20(23)42-28(29)14-4-7-17(33)18(34)9-14/h1-11,21,24,26-27,30-35,37,39-40H,12H2/b8-3+/t21-,24-,26+,27-,30+/m1/s1

>  <PUBCHEM_IUPAC_INCHIKEY>
NBAZENYUDPJQIH-DVQXAVRRSA-N

>  <PUBCHEM_XLOGP3_AA>
2.1

>  <PUBCHEM_EXACT_MASS>
610.132

>  <PUBCHEM_MOLECULAR_FORMULA>
C30H26O14

>  <PUBCHEM_MOLECULAR_WEIGHT>
610.524

>  <PUBCHEM_OPENEYE_CAN_SMILES>
C1=CC(=CC=C1C=CC(=O)OCC2C(C(C(C(O2)OC3=C(OC4=CC(=CC(=C4C3=O)O)O)C5=CC(=C(C=C5)O)O)O)O)O)O

>  <PUBCHEM_OPENEYE_ISO_SMILES>
C1=CC(=CC=C1/C=C/C(=O)OC[C@@H]2[C@H]([C@@H]([C@H]([C@@H](O2)OC3=C(OC4=CC(=CC(=C4C3=O)O)O)C5=CC(=C(C=C5)O)O)O)O)O)O

>  <PUBCHEM_CACTVS_TPSA>
233

>  <PUBCHEM_MONOISOTOPIC_WEIGHT>
610.132

>  <PUBCHEM_TOTAL_CHARGE>
0

>  <PUBCHEM_HEAVY_ATOM_COUNT>
44

>  <PUBCHEM_ATOM_DEF_STEREO_COUNT>
5

>  <PUBCHEM_ATOM_UDEF_STEREO_COUNT>
0

>  <PUBCHEM_BOND_DEF_STEREO_COUNT>
1

>  <PUBCHEM_BOND_UDEF_STEREO_COUNT>
0

>  <PUBCHEM_ISOTOPIC_ATOM_COUNT>
0

>  <PUBCHEM_COMPONENT_COUNT>
1

>  <PUBCHEM_CACTVS_TAUTO_COUNT>
648

>  <PUBCHEM_COORDINATE_TYPE>
1
5
255

>  <PUBCHEM_BONDANNOTATIONS>
17  20  5
19  2  5
21  22  8
21  23  8
23  24  8
24  26  8
24  28  8
26  29  8
27  30  8
27  31  8
28  33  8
29  34  8
15  3  6
30  35  8
31  36  8
33  34  8
35  37  8
36  37  8
39  40  8
39  41  8
16  4  5
40  42  8
41  43  8
42  44  8
43  44  8
18  5  6
7  22  8
7  26  8

$$$$
