5317726
 OpenBabel06101807152D

 39 40  0  0  1  0  0  0  0  0999 V2000
    4.2690   -0.1550    0.0000 O   0  0  0  0  0  0  0  0  0  0  0  0
    2.5369   -2.1550    0.0000 O   0  0  0  0  0  0  0  0  0  0  0  0
    4.2690   -3.1550    0.0000 O   0  0  0  0  0  0  0  0  0  0  0  0
    6.0010   -0.1550    0.0000 O   0  0  0  0  0  0  0  0  0  0  0  0
    6.0010   -2.1550    0.0000 O   0  0  0  0  0  0  0  0  0  0  0  0
    2.5369    0.8450    0.0000 O   0  0  0  0  0  0  0  0  0  0  0  0
    5.1350    1.3450    0.0000 O   0  0  0  0  0  0  0  0  0  0  0  0
    7.7331   -0.1550    0.0000 O   0  0  0  0  0  0  0  0  0  0  0  0
    9.4651    0.8450    0.0000 O   0  0  0  0  0  0  0  0  0  0  0  0
    9.4651    2.8450    0.0000 O   0  0  0  0  0  0  0  0  0  0  0  0
    3.4030   -1.6550    0.0000 C   0  0  1  0  0  0  0  0  0  0  0  0
    4.2690   -2.1550    0.0000 C   0  0  1  0  0  0  0  0  0  0  0  0
    3.4030   -0.6550    0.0000 C   0  0  1  0  0  0  0  0  0  0  0  0
    5.1350   -1.6550    0.0000 C   0  0  2  0  0  0  0  0  0  0  0  0
    5.1350   -0.6550    0.0000 C   0  0  1  0  0  0  0  0  0  0  0  0
    2.5369   -0.1550    0.0000 C   0  0  0  0  0  0  0  0  0  0  0  0
    6.0010    0.8450    0.0000 C   0  0  0  0  0  0  0  0  0  0  0  0
    6.8671    1.3450    0.0000 C   0  0  0  0  0  0  0  0  0  0  0  0
    7.7331    0.8450    0.0000 C   0  0  0  0  0  0  0  0  0  0  0  0
    6.8671    2.3450    0.0000 C   0  0  0  0  0  0  0  0  0  0  0  0
    8.5991    1.3450    0.0000 C   0  0  0  0  0  0  0  0  0  0  0  0
    7.7331    2.8450    0.0000 C   0  0  0  0  0  0  0  0  0  0  0  0
    8.5991    2.3450    0.0000 C   0  0  0  0  0  0  0  0  0  0  0  0
    3.4030   -2.2750    0.0000 H   0  0  0  0  0  0  0  0  0  0  0  0
    4.8059   -2.4650    0.0000 H   0  0  0  0  0  0  0  0  0  0  0  0
    3.4030   -0.0350    0.0000 H   0  0  0  0  0  0  0  0  0  0  0  0
    5.6720   -1.3450    0.0000 H   0  0  0  0  0  0  0  0  0  0  0  0
    5.1350   -0.0350    0.0000 H   0  0  0  0  0  0  0  0  0  0  0  0
    1.9264   -0.0473    0.0000 H   0  0  0  0  0  0  0  0  0  0  0  0
    2.3249   -0.7376    0.0000 H   0  0  0  0  0  0  0  0  0  0  0  0
    2.0000   -1.8450    0.0000 H   0  0  0  0  0  0  0  0  0  0  0  0
    3.7320   -3.4650    0.0000 H   0  0  0  0  0  0  0  0  0  0  0  0
    6.5380   -1.8450    0.0000 H   0  0  0  0  0  0  0  0  0  0  0  0
    2.0000    1.1550    0.0000 H   0  0  0  0  0  0  0  0  0  0  0  0
    6.3301    2.6550    0.0000 H   0  0  0  0  0  0  0  0  0  0  0  0
    7.7331    3.4650    0.0000 H   0  0  0  0  0  0  0  0  0  0  0  0
    8.2700   -0.4650    0.0000 H   0  0  0  0  0  0  0  0  0  0  0  0
   10.0021    1.1550    0.0000 H   0  0  0  0  0  0  0  0  0  0  0  0
    9.4651    3.4650    0.0000 H   0  0  0  0  0  0  0  0  0  0  0  0
  1 13  1  0  0  0  0
  1 15  1  0  0  0  0
  2 31  1  0  0  0  0
  3 32  1  0  0  0  0
  4 17  1  0  0  0  0
  5 33  1  0  0  0  0
  6 16  1  0  0  0  0
  6 34  1  0  0  0  0
  7 17  2  0  0  0  0
  8 19  1  0  0  0  0
  8 37  1  0  0  0  0
  9 21  1  0  0  0  0
  9 38  1  0  0  0  0
 10 23  1  0  0  0  0
 10 39  1  0  0  0  0
 11  2  1  0  0  0  0
 11 12  1  6  0  0  0
 11 24  1  0  0  0  0
 12  3  1  0  0  0  0
 12 14  1  1  0  0  0
 12 25  1  0  0  0  0
 13 11  1  6  0  0  0
 13 16  1  0  0  0  0
 13 26  1  0  0  0  0
 14  5  1  0  0  0  0
 14 15  1  6  0  0  0
 14 27  1  0  0  0  0
 15  4  1  0  0  0  0
 15 28  1  6  0  0  0
 16 29  1  0  0  0  0
 16 30  1  0  0  0  0
 17 18  1  0  0  0  0
 18 19  2  0  0  0  0
 18 20  1  0  0  0  0
 19 21  1  0  0  0  0
 20 22  2  0  0  0  0
 20 35  1  0  0  0  0
 21 23  2  0  0  0  0
 22 23  1  0  0  0  0
 22 36  1  0  0  0  0
M  END
>  <PUBCHEM_COMPOUND_CID>
5317726

>  <PUBCHEM_COMPOUND_CANONICALIZED>
1

>  <PUBCHEM_CACTVS_COMPLEXITY>
418

>  <PUBCHEM_CACTVS_HBOND_ACCEPTOR>
10

>  <PUBCHEM_CACTVS_HBOND_DONOR>
7

>  <PUBCHEM_CACTVS_ROTATABLE_BOND>
4

>  <PUBCHEM_CACTVS_SUBSKEYS>
AAADceBwPAAAAAAAAAAAAAAAAAAAAAAAAAA0QAAAAAAAAAABAAAAGgAACAAADBSwmAMwDoAABgCIAiDSCAACAAAkIAAIiAEGiMgZNzaCNBqicUEl4BUPuYfK7DzOIAABCAAIQABAAAIQABCAAAAAAAAAAA==

>  <PUBCHEM_IUPAC_OPENEYE_NAME>
[(2S,3R,4S,5S,6R)-3,4,5-trihydroxy-6-(hydroxymethyl)tetrahydropyran-2-yl] 2,3,4-trihydroxybenzoate

>  <PUBCHEM_IUPAC_CAS_NAME>
2,3,4-trihydroxybenzoic acid [(2S,3R,4S,5S,6R)-3,4,5-trihydroxy-6-(hydroxymethyl)-2-oxanyl] ester

>  <PUBCHEM_IUPAC_NAME>
[(2S,3R,4S,5S,6R)-3,4,5-trihydroxy-6-(hydroxymethyl)oxan-2-yl] 2,3,4-trihydroxybenzoate

>  <PUBCHEM_IUPAC_SYSTEMATIC_NAME>
[(2S,3R,4S,5S,6R)-6-(hydroxymethyl)-3,4,5-tris(oxidanyl)oxan-2-yl] 2,3,4-tris(oxidanyl)benzoate

>  <PUBCHEM_IUPAC_TRADITIONAL_NAME>
2,3,4-trihydroxybenzoic acid [(2S,3R,4S,5S,6R)-3,4,5-trihydroxy-6-methylol-tetrahydropyran-2-yl] ester

>  <PUBCHEM_IUPAC_INCHI>
InChI=1S/C13H16O10/c14-3-6-9(18)10(19)11(20)13(22-6)23-12(21)4-1-2-5(15)8(17)7(4)16/h1-2,6,9-11,13-20H,3H2/t6-,9-,10+,11-,13+/m1/s1

>  <PUBCHEM_IUPAC_INCHIKEY>
FUUSOIOWAGMHTM-HSQZMIOISA-N

>  <PUBCHEM_XLOGP3_AA>
-0.9

>  <PUBCHEM_EXACT_MASS>
332.074

>  <PUBCHEM_MOLECULAR_FORMULA>
C13H16O10

>  <PUBCHEM_MOLECULAR_WEIGHT>
332.261

>  <PUBCHEM_OPENEYE_CAN_SMILES>
C1=CC(=C(C(=C1C(=O)OC2C(C(C(C(O2)CO)O)O)O)O)O)O

>  <PUBCHEM_OPENEYE_ISO_SMILES>
C1=CC(=C(C(=C1C(=O)O[C@H]2[C@@H]([C@H]([C@@H]([C@H](O2)CO)O)O)O)O)O)O

>  <PUBCHEM_CACTVS_TPSA>
177

>  <PUBCHEM_MONOISOTOPIC_WEIGHT>
332.074

>  <PUBCHEM_TOTAL_CHARGE>
0

>  <PUBCHEM_HEAVY_ATOM_COUNT>
23

>  <PUBCHEM_ATOM_DEF_STEREO_COUNT>
5

>  <PUBCHEM_ATOM_UDEF_STEREO_COUNT>
0

>  <PUBCHEM_BOND_DEF_STEREO_COUNT>
0

>  <PUBCHEM_BOND_UDEF_STEREO_COUNT>
0

>  <PUBCHEM_ISOTOPIC_ATOM_COUNT>
0

>  <PUBCHEM_COMPONENT_COUNT>
1

>  <PUBCHEM_CACTVS_TAUTO_COUNT>
26

>  <PUBCHEM_COORDINATE_TYPE>
1
5
255

>  <PUBCHEM_BONDANNOTATIONS>
13  16  5
18  19  8
18  20  8
19  21  8
11  2  6
20  22  8
21  23  8
22  23  8
12  3  5
15  4  5
14  5  6

$$$$
