5317478
 OpenBabel06101807152D

 46 48  0  0  0  0  0  0  0  0999 V2000
    8.0901   -1.4917    0.0000 O   0  0  0  0  0  0  0  0  0  0  0  0
    6.3301    1.5429    0.0000 O   0  0  0  0  0  0  0  0  0  0  0  0
    4.5981   -1.4571    0.0000 O   0  0  0  0  0  0  0  0  0  0  0  0
    8.0785    1.5775    0.0000 O   0  0  0  0  0  0  0  0  0  0  0  0
   12.4525    2.0771    0.0000 O   0  0  0  0  0  0  0  0  0  0  0  0
    7.1962    0.0429    0.0000 C   0  0  0  0  0  0  0  0  0  0  0  0
    5.4641    0.0429    0.0000 C   0  0  0  0  0  0  0  0  0  0  0  0
    6.3301    0.5429    0.0000 C   0  0  0  0  0  0  0  0  0  0  0  0
    7.1962   -0.9571    0.0000 C   0  0  0  0  0  0  0  0  0  0  0  0
    4.5981    0.5429    0.0000 C   0  0  0  0  0  0  0  0  0  0  0  0
    5.4641   -0.9571    0.0000 C   0  0  0  0  0  0  0  0  0  0  0  0
    8.0901    0.5776    0.0000 C   0  0  0  0  0  0  0  0  0  0  0  0
    8.9962    0.0637    0.0000 C   0  0  0  0  0  0  0  0  0  0  0  0
    6.3301   -1.4571    0.0000 C   0  0  0  0  0  0  0  0  0  0  0  0
    9.8602    0.5671    0.0000 C   0  0  0  0  0  0  0  0  0  0  0  0
    3.7320    0.0429    0.0000 C   0  0  0  0  0  0  0  0  0  0  0  0
    8.9962   -0.9779    0.0000 C   0  0  0  0  0  0  0  0  0  0  0  0
    2.8660    0.5429    0.0000 C   0  0  0  0  0  0  0  0  0  0  0  0
   10.7282    0.0704    0.0000 C   0  0  0  0  0  0  0  0  0  0  0  0
    9.8564    1.5671    0.0000 C   0  0  0  0  0  0  0  0  0  0  0  0
   11.5923    0.5738    0.0000 C   0  0  0  0  0  0  0  0  0  0  0  0
   10.7205    2.0704    0.0000 C   0  0  0  0  0  0  0  0  0  0  0  0
   11.5884    1.5737    0.0000 C   0  0  0  0  0  0  0  0  0  0  0  0
    2.0000    0.0429    0.0000 C   0  0  0  0  0  0  0  0  0  0  0  0
    2.8660    1.5429    0.0000 C   0  0  0  0  0  0  0  0  0  0  0  0
   13.3205    1.5804    0.0000 C   0  0  0  0  0  0  0  0  0  0  0  0
    4.9966    1.0179    0.0000 H   0  0  0  0  0  0  0  0  0  0  0  0
    4.1996    1.0179    0.0000 H   0  0  0  0  0  0  0  0  0  0  0  0
    6.3301   -2.0771    0.0000 H   0  0  0  0  0  0  0  0  0  0  0  0
    3.7320   -0.5771    0.0000 H   0  0  0  0  0  0  0  0  0  0  0  0
    9.5319   -1.2900    0.0000 H   0  0  0  0  0  0  0  0  0  0  0  0
   10.7306   -0.5496    0.0000 H   0  0  0  0  0  0  0  0  0  0  0  0
    9.3183    1.8750    0.0000 H   0  0  0  0  0  0  0  0  0  0  0  0
    5.7932    1.8529    0.0000 H   0  0  0  0  0  0  0  0  0  0  0  0
   12.1304    0.2658    0.0000 H   0  0  0  0  0  0  0  0  0  0  0  0
   10.7181    2.6904    0.0000 H   0  0  0  0  0  0  0  0  0  0  0  0
    4.5981   -2.0771    0.0000 H   0  0  0  0  0  0  0  0  0  0  0  0
    1.6900    0.5799    0.0000 H   0  0  0  0  0  0  0  0  0  0  0  0
    3.4860    1.5429    0.0000 H   0  0  0  0  0  0  0  0  0  0  0  0
    2.8660    2.1629    0.0000 H   0  0  0  0  0  0  0  0  0  0  0  0
    2.2460    1.5429    0.0000 H   0  0  0  0  0  0  0  0  0  0  0  0
    1.4631   -0.2671    0.0000 H   0  0  0  0  0  0  0  0  0  0  0  0
    2.3100   -0.4940    0.0000 H   0  0  0  0  0  0  0  0  0  0  0  0
   13.0125    1.0423    0.0000 H   0  0  0  0  0  0  0  0  0  0  0  0
   13.8586    1.2725    0.0000 H   0  0  0  0  0  0  0  0  0  0  0  0
   13.6284    2.1186    0.0000 H   0  0  0  0  0  0  0  0  0  0  0  0
  1  9  1  0  0  0  0
  1 17  1  0  0  0  0
  2  8  1  0  0  0  0
  2 34  1  0  0  0  0
  3 11  1  0  0  0  0
  3 37  1  0  0  0  0
  4 12  2  0  0  0  0
  5 23  1  0  0  0  0
  5 26  1  0  0  0  0
  6  8  1  0  0  0  0
  6  9  2  0  0  0  0
  6 12  1  0  0  0  0
  7  8  2  0  0  0  0
  7 10  1  0  0  0  0
  7 11  1  0  0  0  0
  9 14  1  0  0  0  0
 10 16  1  0  0  0  0
 10 27  1  0  0  0  0
 10 28  1  0  0  0  0
 11 14  2  0  0  0  0
 12 13  1  0  0  0  0
 13 15  1  0  0  0  0
 13 17  2  0  0  0  0
 14 29  1  0  0  0  0
 15 19  2  0  0  0  0
 15 20  1  0  0  0  0
 16 18  2  0  0  0  0
 16 30  1  0  0  0  0
 17 31  1  0  0  0  0
 18 24  1  0  0  0  0
 18 25  1  0  0  0  0
 19 21  1  0  0  0  0
 19 32  1  0  0  0  0
 20 22  2  0  0  0  0
 20 33  1  0  0  0  0
 21 23  2  0  0  0  0
 21 35  1  0  0  0  0
 22 23  1  0  0  0  0
 22 36  1  0  0  0  0
 24 38  1  0  0  0  0
 24 42  1  0  0  0  0
 24 43  1  0  0  0  0
 25 39  1  0  0  0  0
 25 40  1  0  0  0  0
 25 41  1  0  0  0  0
 26 44  1  0  0  0  0
 26 45  1  0  0  0  0
 26 46  1  0  0  0  0
M  END
>  <PUBCHEM_COMPOUND_CID>
5317478

>  <PUBCHEM_COMPOUND_CANONICALIZED>
1

>  <PUBCHEM_CACTVS_COMPLEXITY>
569

>  <PUBCHEM_CACTVS_HBOND_ACCEPTOR>
5

>  <PUBCHEM_CACTVS_HBOND_DONOR>
2

>  <PUBCHEM_CACTVS_ROTATABLE_BOND>
4

>  <PUBCHEM_CACTVS_SUBSKEYS>
AAADceB4OAAAAAAAAAAAAAAAAAAAAAAAAAAwYIAAAAAAAACBQAAAGgAACAAADASgmAIyBoAABgCIAqBSAAACCAAkIAAIiAEGCMgMJzaGNRqAcWAl4BUIuYeI7PzOIAACCAAIAABAAAQQABAAAAAAAAAAAA==

>  <PUBCHEM_IUPAC_OPENEYE_NAME>
5,7-dihydroxy-3-(4-methoxyphenyl)-6-(3-methylbut-2-enyl)chromen-4-one

>  <PUBCHEM_IUPAC_CAS_NAME>
5,7-dihydroxy-3-(4-methoxyphenyl)-6-(3-methylbut-2-enyl)-1-benzopyran-4-one

>  <PUBCHEM_IUPAC_NAME>
5,7-dihydroxy-3-(4-methoxyphenyl)-6-(3-methylbut-2-enyl)chromen-4-one

>  <PUBCHEM_IUPAC_SYSTEMATIC_NAME>
3-(4-methoxyphenyl)-6-(3-methylbut-2-enyl)-5,7-bis(oxidanyl)chromen-4-one

>  <PUBCHEM_IUPAC_TRADITIONAL_NAME>
5,7-dihydroxy-3-(4-methoxyphenyl)-6-(3-methylbut-2-enyl)chromone

>  <PUBCHEM_IUPAC_INCHI>
InChI=1S/C21H20O5/c1-12(2)4-9-15-17(22)10-18-19(20(15)23)21(24)16(11-26-18)13-5-7-14(25-3)8-6-13/h4-8,10-11,22-23H,9H2,1-3H3

>  <PUBCHEM_IUPAC_INCHIKEY>
JQNSUDIGIIGIOL-UHFFFAOYSA-N

>  <PUBCHEM_XLOGP3_AA>
4.9

>  <PUBCHEM_EXACT_MASS>
352.131

>  <PUBCHEM_MOLECULAR_FORMULA>
C21H20O5

>  <PUBCHEM_MOLECULAR_WEIGHT>
352.386

>  <PUBCHEM_OPENEYE_CAN_SMILES>
CC(=CCC1=C(C=C2C(=C1O)C(=O)C(=CO2)C3=CC=C(C=C3)OC)O)C

>  <PUBCHEM_OPENEYE_ISO_SMILES>
CC(=CCC1=C(C=C2C(=C1O)C(=O)C(=CO2)C3=CC=C(C=C3)OC)O)C

>  <PUBCHEM_CACTVS_TPSA>
76

>  <PUBCHEM_MONOISOTOPIC_WEIGHT>
352.131

>  <PUBCHEM_TOTAL_CHARGE>
0

>  <PUBCHEM_HEAVY_ATOM_COUNT>
26

>  <PUBCHEM_ATOM_DEF_STEREO_COUNT>
0

>  <PUBCHEM_ATOM_UDEF_STEREO_COUNT>
0

>  <PUBCHEM_BOND_DEF_STEREO_COUNT>
0

>  <PUBCHEM_BOND_UDEF_STEREO_COUNT>
0

>  <PUBCHEM_ISOTOPIC_ATOM_COUNT>
0

>  <PUBCHEM_COMPONENT_COUNT>
1

>  <PUBCHEM_CACTVS_TAUTO_COUNT>
12

>  <PUBCHEM_COORDINATE_TYPE>
1
5
255

>  <PUBCHEM_BONDANNOTATIONS>
1  17  8
1  9  8
11  14  8
12  13  8
13  17  8
15  19  8
15  20  8
19  21  8
20  22  8
21  23  8
22  23  8
6  12  8
6  8  8
6  9  8
7  11  8
7  8  8
9  14  8

$$$$
