5318274
 OpenBabel06101807152D

 53 53  0  0  1  0  0  0  0  0999 V2000
    7.7331    0.0000    0.0000 O   0  0  0  0  0  0  0  0  0  0  0  0
    6.0010   -3.0000    0.0000 O   0  0  0  0  0  0  0  0  0  0  0  0
    4.2690    4.0000    0.0000 O   0  0  0  0  0  0  0  0  0  0  0  0
    8.5991   -1.5000    0.0000 O   0  0  0  0  0  0  0  0  0  0  0  0
    7.7331   -3.0000    0.0000 O   0  0  0  0  0  0  0  0  0  0  0  0
    2.5369    3.0000    0.0000 O   0  0  0  0  0  0  0  0  0  0  0  0
    6.8671   -1.5000    0.0000 C   0  0  0  0  0  0  0  0  0  0  0  0
    6.8671   -0.5000    0.0000 C   0  0  3  0  0  0  0  0  0  0  0  0
    6.0010   -2.0000    0.0000 C   0  0  3  0  0  0  0  0  0  0  0  0
    6.0010    0.0000    0.0000 C   0  0  0  0  0  0  0  0  0  0  0  0
    5.1350   -1.5000    0.0000 C   0  0  0  0  0  0  0  0  0  0  0  0
    6.0010    1.0000    0.0000 C   0  0  0  0  0  0  0  0  0  0  0  0
    4.2690   -2.0000    0.0000 C   0  0  0  0  0  0  0  0  0  0  0  0
    5.1350    1.5000    0.0000 C   0  0  0  0  0  0  0  0  0  0  0  0
    3.4030   -1.5000    0.0000 C   0  0  0  0  0  0  0  0  0  0  0  0
    5.1350    2.5000    0.0000 C   0  0  0  0  0  0  0  0  0  0  0  0
    4.2690    1.0000    0.0000 C   0  0  0  0  0  0  0  0  0  0  0  0
    8.5991   -0.5000    0.0000 C   0  0  0  0  0  0  0  0  0  0  0  0
    6.8671   -3.5000    0.0000 C   0  0  0  0  0  0  0  0  0  0  0  0
    4.2690    3.0000    0.0000 C   0  0  0  0  0  0  0  0  0  0  0  0
    3.4030    1.5000    0.0000 C   0  0  0  0  0  0  0  0  0  0  0  0
    3.4030    2.5000    0.0000 C   0  0  0  0  0  0  0  0  0  0  0  0
    9.4651    0.0000    0.0000 C   0  0  0  0  0  0  0  0  0  0  0  0
    6.8671   -4.5000    0.0000 C   0  0  0  0  0  0  0  0  0  0  0  0
    5.1350    4.5000    0.0000 C   0  0  0  0  0  0  0  0  0  0  0  0
    7.0791   -2.0826    0.0000 H   0  0  0  0  0  0  0  0  0  0  0  0
    7.4776   -1.3923    0.0000 H   0  0  0  0  0  0  0  0  0  0  0  0
    7.4040   -0.8100    0.0000 H   0  0  0  0  0  0  0  0  0  0  0  0
    6.5380   -2.3100    0.0000 H   0  0  0  0  0  0  0  0  0  0  0  0
    5.3905    0.1077    0.0000 H   0  0  0  0  0  0  0  0  0  0  0  0
    5.7890   -0.5826    0.0000 H   0  0  0  0  0  0  0  0  0  0  0  0
    5.5335   -1.0250    0.0000 H   0  0  0  0  0  0  0  0  0  0  0  0
    4.7365   -1.0250    0.0000 H   0  0  0  0  0  0  0  0  0  0  0  0
    6.6116    0.8923    0.0000 H   0  0  0  0  0  0  0  0  0  0  0  0
    6.2131    1.5826    0.0000 H   0  0  0  0  0  0  0  0  0  0  0  0
    3.8705   -2.4750    0.0000 H   0  0  0  0  0  0  0  0  0  0  0  0
    4.6675   -2.4750    0.0000 H   0  0  0  0  0  0  0  0  0  0  0  0
    3.7130   -0.9631    0.0000 H   0  0  0  0  0  0  0  0  0  0  0  0
    2.8660   -1.1900    0.0000 H   0  0  0  0  0  0  0  0  0  0  0  0
    3.0930   -2.0369    0.0000 H   0  0  0  0  0  0  0  0  0  0  0  0
    5.6720    2.8100    0.0000 H   0  0  0  0  0  0  0  0  0  0  0  0
    4.2690    0.3800    0.0000 H   0  0  0  0  0  0  0  0  0  0  0  0
    2.8660    1.1900    0.0000 H   0  0  0  0  0  0  0  0  0  0  0  0
    9.7751   -0.5369    0.0000 H   0  0  0  0  0  0  0  0  0  0  0  0
   10.0021    0.3100    0.0000 H   0  0  0  0  0  0  0  0  0  0  0  0
    9.1551    0.5369    0.0000 H   0  0  0  0  0  0  0  0  0  0  0  0
    6.2471   -4.5000    0.0000 H   0  0  0  0  0  0  0  0  0  0  0  0
    6.8671   -5.1200    0.0000 H   0  0  0  0  0  0  0  0  0  0  0  0
    7.4871   -4.5000    0.0000 H   0  0  0  0  0  0  0  0  0  0  0  0
    2.0000    2.6900    0.0000 H   0  0  0  0  0  0  0  0  0  0  0  0
    5.4450    3.9631    0.0000 H   0  0  0  0  0  0  0  0  0  0  0  0
    5.6720    4.8100    0.0000 H   0  0  0  0  0  0  0  0  0  0  0  0
    4.8250    5.0369    0.0000 H   0  0  0  0  0  0  0  0  0  0  0  0
  1  8  1  0  0  0  0
  1 18  1  0  0  0  0
  2  9  1  0  0  0  0
  2 19  1  0  0  0  0
  3 20  1  0  0  0  0
  3 25  1  0  0  0  0
  4 18  2  0  0  0  0
  5 19  2  0  0  0  0
  6 22  1  0  0  0  0
  6 50  1  0  0  0  0
  7  8  1  0  0  0  0
  7  9  1  0  0  0  0
  7 26  1  0  0  0  0
  7 27  1  0  0  0  0
  8 10  1  0  0  0  0
  8 28  1  0  0  0  0
  9 11  1  0  0  0  0
  9 29  1  0  0  0  0
 10 12  1  0  0  0  0
 10 30  1  0  0  0  0
 10 31  1  0  0  0  0
 11 13  1  0  0  0  0
 11 32  1  0  0  0  0
 11 33  1  0  0  0  0
 12 14  1  0  0  0  0
 12 34  1  0  0  0  0
 12 35  1  0  0  0  0
 13 15  1  0  0  0  0
 13 36  1  0  0  0  0
 13 37  1  0  0  0  0
 14 16  2  0  0  0  0
 14 17  1  0  0  0  0
 15 38  1  0  0  0  0
 15 39  1  0  0  0  0
 15 40  1  0  0  0  0
 16 20  1  0  0  0  0
 16 41  1  0  0  0  0
 17 21  2  0  0  0  0
 17 42  1  0  0  0  0
 18 23  1  0  0  0  0
 19 24  1  0  0  0  0
 20 22  2  0  0  0  0
 21 22  1  0  0  0  0
 21 43  1  0  0  0  0
 23 44  1  0  0  0  0
 23 45  1  0  0  0  0
 23 46  1  0  0  0  0
 24 47  1  0  0  0  0
 24 48  1  0  0  0  0
 24 49  1  0  0  0  0
 25 51  1  0  0  0  0
 25 52  1  0  0  0  0
 25 53  1  0  0  0  0
M  END
>  <PUBCHEM_COMPOUND_CID>
5318274

>  <PUBCHEM_COMPOUND_CANONICALIZED>
1

>  <PUBCHEM_CACTVS_COMPLEXITY>
411

>  <PUBCHEM_CACTVS_HBOND_ACCEPTOR>
6

>  <PUBCHEM_CACTVS_HBOND_DONOR>
1

>  <PUBCHEM_CACTVS_ROTATABLE_BOND>
12

>  <PUBCHEM_CACTVS_SUBSKEYS>
AAADceB4OAAAAAAAAAAAAAAAAAAAAAAAAAAwAAAAAAAAAAABAAAAGgAACAAADBSgmAIyDoAABgCIAiDSCAACCAAgIAAIiAAGiIgNJiKGMRqCcCMlwBELuAeAwPAOIAABAAAAQABAAAIAAACAAAAAAAAAAA==

>  <PUBCHEM_IUPAC_OPENEYE_NAME>
[3-acetoxy-5-(4-hydroxy-3-methoxy-phenyl)-1-propyl-pentyl] acetate

>  <PUBCHEM_IUPAC_CAS_NAME>
acetic acid [6-acetyloxy-8-(4-hydroxy-3-methoxyphenyl)octan-4-yl] ester

>  <PUBCHEM_IUPAC_NAME>
[6-acetyloxy-8-(4-hydroxy-3-methoxyphenyl)octan-4-yl] acetate

>  <PUBCHEM_IUPAC_SYSTEMATIC_NAME>
[6-acetyloxy-8-(3-methoxy-4-oxidanyl-phenyl)octan-4-yl] ethanoate

>  <PUBCHEM_IUPAC_TRADITIONAL_NAME>
acetic acid [3-acetoxy-5-(4-hydroxy-3-methoxy-phenyl)-1-propyl-pentyl] ester

>  <PUBCHEM_IUPAC_INCHI>
InChI=1S/C19H28O6/c1-5-6-16(24-13(2)20)12-17(25-14(3)21)9-7-15-8-10-18(22)19(11-15)23-4/h8,10-11,16-17,22H,5-7,9,12H2,1-4H3

>  <PUBCHEM_IUPAC_INCHIKEY>
AUBPDZJRJKZQEX-UHFFFAOYSA-N

>  <PUBCHEM_XLOGP3>
3

>  <PUBCHEM_EXACT_MASS>
352.189

>  <PUBCHEM_MOLECULAR_FORMULA>
C19H28O6

>  <PUBCHEM_MOLECULAR_WEIGHT>
352.427

>  <PUBCHEM_OPENEYE_CAN_SMILES>
CCCC(CC(CCC1=CC(=C(C=C1)O)OC)OC(=O)C)OC(=O)C

>  <PUBCHEM_OPENEYE_ISO_SMILES>
CCCC(CC(CCC1=CC(=C(C=C1)O)OC)OC(=O)C)OC(=O)C

>  <PUBCHEM_CACTVS_TPSA>
82.1

>  <PUBCHEM_MONOISOTOPIC_WEIGHT>
352.189

>  <PUBCHEM_TOTAL_CHARGE>
0

>  <PUBCHEM_HEAVY_ATOM_COUNT>
25

>  <PUBCHEM_ATOM_DEF_STEREO_COUNT>
0

>  <PUBCHEM_ATOM_UDEF_STEREO_COUNT>
2

>  <PUBCHEM_BOND_DEF_STEREO_COUNT>
0

>  <PUBCHEM_BOND_UDEF_STEREO_COUNT>
0

>  <PUBCHEM_ISOTOPIC_ATOM_COUNT>
0

>  <PUBCHEM_COMPONENT_COUNT>
1

>  <PUBCHEM_CACTVS_TAUTO_COUNT>
3

>  <PUBCHEM_COORDINATE_TYPE>
1
5
255

>  <PUBCHEM_BONDANNOTATIONS>
14  16  8
14  17  8
16  20  8
17  21  8
20  22  8
21  22  8
8  10  3
9  11  3

$$$$
