5318875
 OpenBabel06101807152D

 33 35  0  0  0  0  0  0  0  0999 V2000
    5.9631   -1.6692    0.0000 O   0  0  0  0  0  0  0  0  0  0  0  0
    2.9757    2.2008    0.0000 O   0  0  0  0  0  0  0  0  0  0  0  0
    5.0981    1.6018    0.0000 N   0  0  0  0  0  0  0  0  0  0  0  0
    7.6255    0.4776    0.0000 N   0  0  0  0  0  0  0  0  0  0  0  0
    5.5981    0.0630    0.0000 C   0  0  0  0  0  0  0  0  0  0  0  0
    4.5981    0.0630    0.0000 C   0  0  0  0  0  0  0  0  0  0  0  0
    4.2891    1.0140    0.0000 C   0  0  0  0  0  0  0  0  0  0  0  0
    5.9071    1.0140    0.0000 C   0  0  0  0  0  0  0  0  0  0  0  0
    6.2831   -0.7218    0.0000 C   0  0  0  0  0  0  0  0  0  0  0  0
    3.2737    1.2463    0.0000 C   0  0  0  0  0  0  0  0  0  0  0  0
    3.9131   -0.7218    0.0000 C   0  0  0  0  0  0  0  0  0  0  0  0
    6.9225    1.2463    0.0000 C   0  0  0  0  0  0  0  0  0  0  0  0
    2.5707    0.4776    0.0000 C   0  0  0  0  0  0  0  0  0  0  0  0
    2.8926   -0.5131    0.0000 C   0  0  0  0  0  0  0  0  0  0  0  0
    7.3036   -0.5131    0.0000 C   0  0  0  0  0  0  0  0  0  0  0  0
    7.2205    2.2008    0.0000 C   0  0  0  0  0  0  0  0  0  0  0  0
    6.6236   -2.4200    0.0000 C   0  0  0  0  0  0  0  0  0  0  0  0
    2.0000    2.4200    0.0000 C   0  0  0  0  0  0  0  0  0  0  0  0
    8.1962    2.4200    0.0000 C   0  0  0  0  0  0  0  0  0  0  0  0
    5.0981    2.2218    0.0000 H   0  0  0  0  0  0  0  0  0  0  0  0
    4.1115   -1.3092    0.0000 H   0  0  0  0  0  0  0  0  0  0  0  0
    1.9648    0.6088    0.0000 H   0  0  0  0  0  0  0  0  0  0  0  0
    2.4795   -0.9754    0.0000 H   0  0  0  0  0  0  0  0  0  0  0  0
    7.7167   -0.9754    0.0000 H   0  0  0  0  0  0  0  0  0  0  0  0
    6.8004    2.6568    0.0000 H   0  0  0  0  0  0  0  0  0  0  0  0
    6.1581   -2.8295    0.0000 H   0  0  0  0  0  0  0  0  0  0  0  0
    7.0331   -2.8856    0.0000 H   0  0  0  0  0  0  0  0  0  0  0  0
    7.0891   -2.0105    0.0000 H   0  0  0  0  0  0  0  0  0  0  0  0
    2.1359    3.0250    0.0000 H   0  0  0  0  0  0  0  0  0  0  0  0
    1.3951    2.5559    0.0000 H   0  0  0  0  0  0  0  0  0  0  0  0
    1.8641    1.8151    0.0000 H   0  0  0  0  0  0  0  0  0  0  0  0
    8.6164    1.9641    0.0000 H   0  0  0  0  0  0  0  0  0  0  0  0
    8.3810    3.0119    0.0000 H   0  0  0  0  0  0  0  0  0  0  0  0
  1  9  1  0  0  0  0
  1 17  1  0  0  0  0
  2 10  1  0  0  0  0
  2 18  1  0  0  0  0
  3  7  1  0  0  0  0
  3  8  1  0  0  0  0
  3 20  1  0  0  0  0
  4 12  2  0  0  0  0
  4 15  1  0  0  0  0
  5  6  1  0  0  0  0
  5  8  2  0  0  0  0
  5  9  1  0  0  0  0
  6  7  2  0  0  0  0
  6 11  1  0  0  0  0
  7 10  1  0  0  0  0
  8 12  1  0  0  0  0
  9 15  2  0  0  0  0
 10 13  2  0  0  0  0
 11 14  2  0  0  0  0
 11 21  1  0  0  0  0
 12 16  1  0  0  0  0
 13 14  1  0  0  0  0
 13 22  1  0  0  0  0
 14 23  1  0  0  0  0
 15 24  1  0  0  0  0
 16 19  2  0  0  0  0
 16 25  1  0  0  0  0
 17 26  1  0  0  0  0
 17 27  1  0  0  0  0
 17 28  1  0  0  0  0
 18 29  1  0  0  0  0
 18 30  1  0  0  0  0
 18 31  1  0  0  0  0
 19 32  1  0  0  0  0
 19 33  1  0  0  0  0
M  END
>  <PUBCHEM_COMPOUND_CID>
5318875

>  <PUBCHEM_COMPOUND_CANONICALIZED>
1

>  <PUBCHEM_CACTVS_COMPLEXITY>
336

>  <PUBCHEM_CACTVS_HBOND_ACCEPTOR>
3

>  <PUBCHEM_CACTVS_HBOND_DONOR>
1

>  <PUBCHEM_CACTVS_ROTATABLE_BOND>
3

>  <PUBCHEM_CACTVS_SUBSKEYS>
AAADccBzMAAAAAAAAAAAAAAAAAAAAWAAAAA8QAAAAAAAAFgB/gAAHgAQAAAADAzBngY+xvLJlACgAzRnRASCiCQxcCAI2SA/XJgOZuLEsZuVMChmwBnY6Aew8P0OgAABAAACEAAAAAIAAAQgAAAAAAAAAA==

>  <PUBCHEM_IUPAC_OPENEYE_NAME>
4,8-dimethoxy-1-vinyl-9H-pyrido[3,4-b]indole

>  <PUBCHEM_IUPAC_CAS_NAME>
1-ethenyl-4,8-dimethoxy-9H-pyrido[3,4-b]indole

>  <PUBCHEM_IUPAC_NAME>
1-ethenyl-4,8-dimethoxy-9H-pyrido[3,4-b]indole

>  <PUBCHEM_IUPAC_SYSTEMATIC_NAME>
1-ethenyl-4,8-dimethoxy-9H-pyrido[3,4-b]indole

>  <PUBCHEM_IUPAC_TRADITIONAL_NAME>
4,8-dimethoxy-1-vinyl-9H-$b-carboline

>  <PUBCHEM_IUPAC_INCHI>
InChI=1S/C15H14N2O2/c1-4-10-15-13(12(19-3)8-16-10)9-6-5-7-11(18-2)14(9)17-15/h4-8,17H,1H2,2-3H3

>  <PUBCHEM_IUPAC_INCHIKEY>
LDWBTKDUAXOZRB-UHFFFAOYSA-N

>  <PUBCHEM_XLOGP3_AA>
3.1

>  <PUBCHEM_EXACT_MASS>
254.106

>  <PUBCHEM_MOLECULAR_FORMULA>
C15H14N2O2

>  <PUBCHEM_MOLECULAR_WEIGHT>
254.289

>  <PUBCHEM_OPENEYE_CAN_SMILES>
COC1=CC=CC2=C1NC3=C2C(=CN=C3C=C)OC

>  <PUBCHEM_OPENEYE_ISO_SMILES>
COC1=CC=CC2=C1NC3=C2C(=CN=C3C=C)OC

>  <PUBCHEM_CACTVS_TPSA>
47.1

>  <PUBCHEM_MONOISOTOPIC_WEIGHT>
254.106

>  <PUBCHEM_TOTAL_CHARGE>
0

>  <PUBCHEM_HEAVY_ATOM_COUNT>
19

>  <PUBCHEM_ATOM_DEF_STEREO_COUNT>
0

>  <PUBCHEM_ATOM_UDEF_STEREO_COUNT>
0

>  <PUBCHEM_BOND_DEF_STEREO_COUNT>
0

>  <PUBCHEM_BOND_UDEF_STEREO_COUNT>
0

>  <PUBCHEM_ISOTOPIC_ATOM_COUNT>
0

>  <PUBCHEM_COMPONENT_COUNT>
1

>  <PUBCHEM_CACTVS_TAUTO_COUNT>
2

>  <PUBCHEM_COORDINATE_TYPE>
1
5
255

>  <PUBCHEM_BONDANNOTATIONS>
10  13  8
11  14  8
13  14  8
3  7  8
3  8  8
4  12  8
4  15  8
5  6  8
5  8  8
5  9  8
6  11  8
6  7  8
7  10  8
8  12  8
9  15  8

$$$$
