5318570
 OpenBabel06101807152D

 45 49  0  0  0  0  0  0  0  0999 V2000
    6.1384   -1.3085    0.0000 O   0  0  0  0  0  0  0  0  0  0  0  0
    5.2941    0.4489    0.0000 O   0  0  0  0  0  0  0  0  0  0  0  0
    7.9724    1.7536    0.0000 O   0  0  0  0  0  0  0  0  0  0  0  0
    9.7584   -1.2915    0.0000 O   0  0  0  0  0  0  0  0  0  0  0  0
    7.1064    3.2536    0.0000 O   0  0  0  0  0  0  0  0  0  0  0  0
    2.2548    2.3872    0.0000 O   0  0  0  0  0  0  0  0  0  0  0  0
    6.1217   -2.3934    0.0000 C   0  0  0  0  0  0  0  0  0  0  0  0
    7.0571   -2.9431    0.0000 C   0  0  0  0  0  0  0  0  0  0  0  0
    7.9967   -2.4006    0.0000 C   0  0  0  0  0  0  0  0  0  0  0  0
    7.9884   -1.3157    0.0000 C   0  0  0  0  0  0  0  0  0  0  0  0
    7.0903   -0.7879    0.0000 C   0  0  0  0  0  0  0  0  0  0  0  0
    7.1064    0.2536    0.0000 C   0  0  0  0  0  0  0  0  0  0  0  0
    5.6117   -3.2536    0.0000 C   0  0  0  0  0  0  0  0  0  0  0  0
    5.1217   -2.3818    0.0000 C   0  0  0  0  0  0  0  0  0  0  0  0
    8.8904   -0.7949    0.0000 C   0  0  0  0  0  0  0  0  0  0  0  0
    7.9724    0.7536    0.0000 C   0  0  0  0  0  0  0  0  0  0  0  0
    6.2404    0.7536    0.0000 C   0  0  0  0  0  0  0  0  0  0  0  0
    8.8824    0.2467    0.0000 C   0  0  0  0  0  0  0  0  0  0  0  0
    6.2404    1.7536    0.0000 C   0  0  0  0  0  0  0  0  0  0  0  0
    5.2941    2.0583    0.0000 C   0  0  0  0  0  0  0  0  0  0  0  0
    4.7105    1.2536    0.0000 C   0  0  0  0  0  0  0  0  0  0  0  0
    7.1064    2.2536    0.0000 C   0  0  0  0  0  0  0  0  0  0  0  0
    4.8868    3.0103    0.0000 C   0  0  0  0  0  0  0  0  0  0  0  0
    3.6791    1.3450    0.0000 C   0  0  0  0  0  0  0  0  0  0  0  0
    3.8578    3.1256    0.0000 C   0  0  0  0  0  0  0  0  0  0  0  0
    3.2498    2.2873    0.0000 C   0  0  0  0  0  0  0  0  0  0  0  0
   10.6225   -0.7882    0.0000 C   0  0  0  0  0  0  0  0  0  0  0  0
    6.6561   -3.4160    0.0000 H   0  0  0  0  0  0  0  0  0  0  0  0
    7.4544   -3.4191    0.0000 H   0  0  0  0  0  0  0  0  0  0  0  0
    8.2103   -2.9827    0.0000 H   0  0  0  0  0  0  0  0  0  0  0  0
    8.6067   -2.2898    0.0000 H   0  0  0  0  0  0  0  0  0  0  0  0
    5.0784   -2.9374    0.0000 H   0  0  0  0  0  0  0  0  0  0  0  0
    5.1289   -1.7619    0.0000 H   0  0  0  0  0  0  0  0  0  0  0  0
    4.5018   -2.3747    0.0000 H   0  0  0  0  0  0  0  0  0  0  0  0
    5.1146   -3.0018    0.0000 H   0  0  0  0  0  0  0  0  0  0  0  0
    5.2955   -3.7869    0.0000 H   0  0  0  0  0  0  0  0  0  0  0  0
    6.1450   -3.5698    0.0000 H   0  0  0  0  0  0  0  0  0  0  0  0
    9.4157    0.5629    0.0000 H   0  0  0  0  0  0  0  0  0  0  0  0
    5.2566    3.5080    0.0000 H   0  0  0  0  0  0  0  0  0  0  0  0
    3.3209    0.8390    0.0000 H   0  0  0  0  0  0  0  0  0  0  0  0
    3.6073    3.6927    0.0000 H   0  0  0  0  0  0  0  0  0  0  0  0
   10.9345   -1.3239    0.0000 H   0  0  0  0  0  0  0  0  0  0  0  0
   11.1582   -0.4761    0.0000 H   0  0  0  0  0  0  0  0  0  0  0  0
   10.3104   -0.2524    0.0000 H   0  0  0  0  0  0  0  0  0  0  0  0
    2.0000    2.9524    0.0000 H   0  0  0  0  0  0  0  0  0  0  0  0
  1  7  1  0  0  0  0
  1 11  1  0  0  0  0
  2 17  1  0  0  0  0
  2 21  1  0  0  0  0
  3 16  1  0  0  0  0
  3 22  1  0  0  0  0
  4 15  1  0  0  0  0
  4 27  1  0  0  0  0
  5 22  2  0  0  0  0
  6 26  1  0  0  0  0
  6 45  1  0  0  0  0
  7  8  1  0  0  0  0
  7 13  1  0  0  0  0
  7 14  1  0  0  0  0
  8  9  1  0  0  0  0
  8 28  1  0  0  0  0
  8 29  1  0  0  0  0
  9 10  1  0  0  0  0
  9 30  1  0  0  0  0
  9 31  1  0  0  0  0
 10 11  1  0  0  0  0
 10 15  2  0  0  0  0
 11 12  2  0  0  0  0
 12 16  1  0  0  0  0
 12 17  1  0  0  0  0
 13 32  1  0  0  0  0
 13 36  1  0  0  0  0
 13 37  1  0  0  0  0
 14 33  1  0  0  0  0
 14 34  1  0  0  0  0
 14 35  1  0  0  0  0
 15 18  1  0  0  0  0
 16 18  2  0  0  0  0
 17 19  2  0  0  0  0
 18 38  1  0  0  0  0
 19 20  1  0  0  0  0
 19 22  1  0  0  0  0
 20 21  2  0  0  0  0
 20 23  1  0  0  0  0
 21 24  1  0  0  0  0
 23 25  2  0  0  0  0
 23 39  1  0  0  0  0
 24 26  2  0  0  0  0
 24 40  1  0  0  0  0
 25 26  1  0  0  0  0
 25 41  1  0  0  0  0
 27 42  1  0  0  0  0
 27 43  1  0  0  0  0
 27 44  1  0  0  0  0
M  END
>  <PUBCHEM_COMPOUND_CID>
5318570

>  <PUBCHEM_COMPOUND_CANONICALIZED>
1

>  <PUBCHEM_CACTVS_COMPLEXITY>
606

>  <PUBCHEM_CACTVS_HBOND_ACCEPTOR>
6

>  <PUBCHEM_CACTVS_HBOND_DONOR>
1

>  <PUBCHEM_CACTVS_ROTATABLE_BOND>
1

>  <PUBCHEM_CACTVS_SUBSKEYS>
AAADceB4OAAAAAAAAAAAAAAAAAAAASAAAAA0aIEAAAAAAEiR9AAAGgAACAAADESAmAIyDsAABkCIAqDSCAACCAAkIAAIiAEGCMgMJzaONRqCe2Cl4BUIuYfL7PzOoAACCAAIAABAAAQQABAAAAAAAAAAAA==

>  <PUBCHEM_IUPAC_INCHI>
InChI=1S/C21H18O6/c1-21(2)7-6-12-13(24-3)9-15-17(18(12)27-21)19-16(20(23)26-15)11-5-4-10(22)8-14(11)25-19/h4-5,8-9,22H,6-7H2,1-3H3

>  <PUBCHEM_IUPAC_INCHIKEY>
OJFZQSUOBVJAIP-UHFFFAOYSA-N

>  <PUBCHEM_XLOGP3_AA>
4.1

>  <PUBCHEM_EXACT_MASS>
366.11

>  <PUBCHEM_MOLECULAR_FORMULA>
C21H18O6

>  <PUBCHEM_MOLECULAR_WEIGHT>
366.369

>  <PUBCHEM_OPENEYE_CAN_SMILES>
CC1(CCC2=C(C=C3C(=C2O1)C4=C(C5=C(O4)C=C(C=C5)O)C(=O)O3)OC)C

>  <PUBCHEM_OPENEYE_ISO_SMILES>
CC1(CCC2=C(C=C3C(=C2O1)C4=C(C5=C(O4)C=C(C=C5)O)C(=O)O3)OC)C

>  <PUBCHEM_CACTVS_TPSA>
78.1

>  <PUBCHEM_MONOISOTOPIC_WEIGHT>
366.11

>  <PUBCHEM_TOTAL_CHARGE>
0

>  <PUBCHEM_HEAVY_ATOM_COUNT>
27

>  <PUBCHEM_ATOM_DEF_STEREO_COUNT>
0

>  <PUBCHEM_ATOM_UDEF_STEREO_COUNT>
0

>  <PUBCHEM_BOND_DEF_STEREO_COUNT>
0

>  <PUBCHEM_BOND_UDEF_STEREO_COUNT>
0

>  <PUBCHEM_ISOTOPIC_ATOM_COUNT>
0

>  <PUBCHEM_COMPONENT_COUNT>
1

>  <PUBCHEM_CACTVS_TAUTO_COUNT>
3

>  <PUBCHEM_COORDINATE_TYPE>
1
5
255

>  <PUBCHEM_BONDANNOTATIONS>
10  11  8
10  15  8
11  12  8
12  16  8
12  17  8
15  18  8
16  18  8
17  19  8
19  20  8
19  22  8
2  17  8
2  21  8
20  21  8
20  23  8
21  24  8
23  25  8
24  26  8
25  26  8
3  16  8
3  22  8

$$$$
