5318834
 OpenBabel06101807152D

 34 36  0  0  0  0  0  0  0  0999 V2000
    6.0682   -2.2327    0.0000 O   0  0  0  0  0  0  0  0  0  0  0  0
    8.6663   -1.7327    0.0000 O   0  0  0  0  0  0  0  0  0  0  0  0
   10.3984    1.2673    0.0000 O   0  0  0  0  0  0  0  0  0  0  0  0
    6.0682    0.7673    0.0000 O   0  0  0  0  0  0  0  0  0  0  0  0
   10.3984   -0.7327    0.0000 O   0  0  0  0  0  0  0  0  0  0  0  0
    2.5381   -2.2568    0.0000 O   0  0  0  0  0  0  0  0  0  0  0  0
    6.9343   -0.7327    0.0000 C   0  0  0  0  0  0  0  0  0  0  0  0
    7.8003   -0.2327    0.0000 C   0  0  0  0  0  0  0  0  0  0  0  0
    5.2022   -0.7327    0.0000 C   0  0  0  0  0  0  0  0  0  0  0  0
    6.0682   -0.2327    0.0000 C   0  0  0  0  0  0  0  0  0  0  0  0
    5.2022   -1.7327    0.0000 C   0  0  0  0  0  0  0  0  0  0  0  0
    8.6663   -0.7327    0.0000 C   0  0  0  0  0  0  0  0  0  0  0  0
    6.9343   -1.7327    0.0000 C   0  0  0  0  0  0  0  0  0  0  0  0
    7.8003    0.7673    0.0000 C   0  0  0  0  0  0  0  0  0  0  0  0
    4.3083   -0.1980    0.0000 C   0  0  0  0  0  0  0  0  0  0  0  0
    9.5323   -0.2327    0.0000 C   0  0  0  0  0  0  0  0  0  0  0  0
    4.3083   -2.2673    0.0000 C   0  0  0  0  0  0  0  0  0  0  0  0
    9.5323    0.7673    0.0000 C   0  0  0  0  0  0  0  0  0  0  0  0
    8.6663    1.2673    0.0000 C   0  0  0  0  0  0  0  0  0  0  0  0
    3.4022   -0.7119    0.0000 C   0  0  0  0  0  0  0  0  0  0  0  0
    3.4022   -1.7535    0.0000 C   0  0  0  0  0  0  0  0  0  0  0  0
   10.3984    2.2673    0.0000 C   0  0  0  0  0  0  0  0  0  0  0  0
    7.4712   -2.0427    0.0000 H   0  0  0  0  0  0  0  0  0  0  0  0
    7.2634    1.0773    0.0000 H   0  0  0  0  0  0  0  0  0  0  0  0
    4.3154    0.4220    0.0000 H   0  0  0  0  0  0  0  0  0  0  0  0
    4.3154   -2.8873    0.0000 H   0  0  0  0  0  0  0  0  0  0  0  0
    8.6663    1.8873    0.0000 H   0  0  0  0  0  0  0  0  0  0  0  0
    2.8665   -0.3998    0.0000 H   0  0  0  0  0  0  0  0  0  0  0  0
    9.2033   -2.0427    0.0000 H   0  0  0  0  0  0  0  0  0  0  0  0
   10.9353   -0.4227    0.0000 H   0  0  0  0  0  0  0  0  0  0  0  0
    2.0000   -1.9489    0.0000 H   0  0  0  0  0  0  0  0  0  0  0  0
   11.0184    2.2673    0.0000 H   0  0  0  0  0  0  0  0  0  0  0  0
   10.3984    2.8873    0.0000 H   0  0  0  0  0  0  0  0  0  0  0  0
    9.7784    2.2673    0.0000 H   0  0  0  0  0  0  0  0  0  0  0  0
  1 11  1  0  0  0  0
  1 13  1  0  0  0  0
  2 12  1  0  0  0  0
  2 29  1  0  0  0  0
  3 18  1  0  0  0  0
  3 22  1  0  0  0  0
  4 10  2  0  0  0  0
  5 16  1  0  0  0  0
  5 30  1  0  0  0  0
  6 21  1  0  0  0  0
  6 31  1  0  0  0  0
  7  8  1  0  0  0  0
  7 10  1  0  0  0  0
  7 13  2  0  0  0  0
  8 12  2  0  0  0  0
  8 14  1  0  0  0  0
  9 10  1  0  0  0  0
  9 11  2  0  0  0  0
  9 15  1  0  0  0  0
 11 17  1  0  0  0  0
 12 16  1  0  0  0  0
 13 23  1  0  0  0  0
 14 19  2  0  0  0  0
 14 24  1  0  0  0  0
 15 20  2  0  0  0  0
 15 25  1  0  0  0  0
 16 18  2  0  0  0  0
 17 21  2  0  0  0  0
 17 26  1  0  0  0  0
 18 19  1  0  0  0  0
 19 27  1  0  0  0  0
 20 21  1  0  0  0  0
 20 28  1  0  0  0  0
 22 32  1  0  0  0  0
 22 33  1  0  0  0  0
 22 34  1  0  0  0  0
M  END
>  <PUBCHEM_COMPOUND_CID>
5318834

>  <PUBCHEM_COMPOUND_CANONICALIZED>
1

>  <PUBCHEM_CACTVS_COMPLEXITY>
462

>  <PUBCHEM_CACTVS_HBOND_ACCEPTOR>
6

>  <PUBCHEM_CACTVS_HBOND_DONOR>
3

>  <PUBCHEM_CACTVS_ROTATABLE_BOND>
2

>  <PUBCHEM_CACTVS_SUBSKEYS>
AAADccB4OAAAAAAAAAAAAAAAAAAAAAAAAAAwYIAAAAAAAACBQAAAGgAACAAADASgmAIyBoAABgCIAqBSAAACCAAkIAAIiAEGiMgNJzaGNRqAcWMl4BULuYeK7PzOIAABCAAIQABAAAIQABCAAAAAAAAAAA==

>  <PUBCHEM_IUPAC_OPENEYE_NAME>
3-(2,3-dihydroxy-4-methoxy-phenyl)-7-hydroxy-chromen-4-one

>  <PUBCHEM_IUPAC_CAS_NAME>
3-(2,3-dihydroxy-4-methoxyphenyl)-7-hydroxy-1-benzopyran-4-one

>  <PUBCHEM_IUPAC_NAME>
3-(2,3-dihydroxy-4-methoxyphenyl)-7-hydroxychromen-4-one

>  <PUBCHEM_IUPAC_SYSTEMATIC_NAME>
3-[4-methoxy-2,3-bis(oxidanyl)phenyl]-7-oxidanyl-chromen-4-one

>  <PUBCHEM_IUPAC_TRADITIONAL_NAME>
3-(2,3-dihydroxy-4-methoxy-phenyl)-7-hydroxy-chromone

>  <PUBCHEM_IUPAC_INCHI>
InChI=1S/C16H12O6/c1-21-12-5-4-9(15(19)16(12)20)11-7-22-13-6-8(17)2-3-10(13)14(11)18/h2-7,17,19-20H,1H3

>  <PUBCHEM_IUPAC_INCHIKEY>
SMOFGXHPWCTYQD-UHFFFAOYSA-N

>  <PUBCHEM_XLOGP3_AA>
2.1

>  <PUBCHEM_EXACT_MASS>
300.063

>  <PUBCHEM_MOLECULAR_FORMULA>
C16H12O6

>  <PUBCHEM_MOLECULAR_WEIGHT>
300.266

>  <PUBCHEM_OPENEYE_CAN_SMILES>
COC1=C(C(=C(C=C1)C2=COC3=C(C2=O)C=CC(=C3)O)O)O

>  <PUBCHEM_OPENEYE_ISO_SMILES>
COC1=C(C(=C(C=C1)C2=COC3=C(C2=O)C=CC(=C3)O)O)O

>  <PUBCHEM_CACTVS_TPSA>
96.2

>  <PUBCHEM_MONOISOTOPIC_WEIGHT>
300.063

>  <PUBCHEM_TOTAL_CHARGE>
0

>  <PUBCHEM_HEAVY_ATOM_COUNT>
22

>  <PUBCHEM_ATOM_DEF_STEREO_COUNT>
0

>  <PUBCHEM_ATOM_UDEF_STEREO_COUNT>
0

>  <PUBCHEM_BOND_DEF_STEREO_COUNT>
0

>  <PUBCHEM_BOND_UDEF_STEREO_COUNT>
0

>  <PUBCHEM_ISOTOPIC_ATOM_COUNT>
0

>  <PUBCHEM_COMPONENT_COUNT>
1

>  <PUBCHEM_CACTVS_TAUTO_COUNT>
50

>  <PUBCHEM_COORDINATE_TYPE>
1
5
255

>  <PUBCHEM_BONDANNOTATIONS>
1  11  8
1  13  8
11  17  8
12  16  8
14  19  8
15  20  8
16  18  8
17  21  8
18  19  8
20  21  8
7  10  8
7  13  8
8  12  8
8  14  8
9  10  8
9  11  8
9  15  8

$$$$
