5318679
 OpenBabel06101807152D

 32 35  0  0  0  0  0  0  0  0999 V2000
    5.9065   -0.4582    0.0000 O   0  0  0  0  0  0  0  0  0  0  0  0
    8.0505    1.6103    0.0000 O   0  0  0  0  0  0  0  0  0  0  0  0
    7.3193   -1.8147    0.0000 O   0  0  0  0  0  0  0  0  0  0  0  0
    6.7634    2.7693    0.0000 O   0  0  0  0  0  0  0  0  0  0  0  0
   10.6901   -0.7338    0.0000 O   0  0  0  0  0  0  0  0  0  0  0  0
    2.4170    0.4461    0.0000 O   0  0  0  0  0  0  0  0  0  0  0  0
    6.7123    0.1240    0.0000 C   0  0  0  0  0  0  0  0  0  0  0  0
    6.4033    1.0751    0.0000 C   0  0  0  0  0  0  0  0  0  0  0  0
    7.6904   -0.0839    0.0000 C   0  0  0  0  0  0  0  0  0  0  0  0
    5.4092    1.0725    0.0000 C   0  0  0  0  0  0  0  0  0  0  0  0
    5.1028    0.1268    0.0000 C   0  0  0  0  0  0  0  0  0  0  0  0
    8.3596    0.6593    0.0000 C   0  0  0  0  0  0  0  0  0  0  0  0
    7.9970   -1.0794    0.0000 C   0  0  0  0  0  0  0  0  0  0  0  0
    7.0724    1.8182    0.0000 C   0  0  0  0  0  0  0  0  0  0  0  0
    4.7276    1.8520    0.0000 C   0  0  0  0  0  0  0  0  0  0  0  0
    4.0936   -0.1049    0.0000 C   0  0  0  0  0  0  0  0  0  0  0  0
    9.3816    0.4584    0.0000 C   0  0  0  0  0  0  0  0  0  0  0  0
    9.0142   -1.3038    0.0000 C   0  0  0  0  0  0  0  0  0  0  0  0
    9.7112   -0.5297    0.0000 C   0  0  0  0  0  0  0  0  0  0  0  0
    3.7133    1.6437    0.0000 C   0  0  0  0  0  0  0  0  0  0  0  0
    3.3942    0.6586    0.0000 C   0  0  0  0  0  0  0  0  0  0  0  0
    7.6173   -2.7693    0.0000 C   0  0  0  0  0  0  0  0  0  0  0  0
    4.9255    2.4396    0.0000 H   0  0  0  0  0  0  0  0  0  0  0  0
    3.9094   -0.6969    0.0000 H   0  0  0  0  0  0  0  0  0  0  0  0
    9.7912    0.9240    0.0000 H   0  0  0  0  0  0  0  0  0  0  0  0
    9.2035   -1.8942    0.0000 H   0  0  0  0  0  0  0  0  0  0  0  0
    3.2998    2.1056    0.0000 H   0  0  0  0  0  0  0  0  0  0  0  0
    7.0255   -2.9540    0.0000 H   0  0  0  0  0  0  0  0  0  0  0  0
    7.8021   -3.3611    0.0000 H   0  0  0  0  0  0  0  0  0  0  0  0
    8.2092   -2.5845    0.0000 H   0  0  0  0  0  0  0  0  0  0  0  0
   11.1032   -0.2715    0.0000 H   0  0  0  0  0  0  0  0  0  0  0  0
    2.0000    0.9049    0.0000 H   0  0  0  0  0  0  0  0  0  0  0  0
  1  7  1  0  0  0  0
  1 11  1  0  0  0  0
  2 12  1  0  0  0  0
  2 14  1  0  0  0  0
  3 13  1  0  0  0  0
  3 22  1  0  0  0  0
  4 14  2  0  0  0  0
  5 19  1  0  0  0  0
  5 31  1  0  0  0  0
  6 21  1  0  0  0  0
  6 32  1  0  0  0  0
  7  8  2  0  0  0  0
  7  9  1  0  0  0  0
  8 10  1  0  0  0  0
  8 14  1  0  0  0  0
  9 12  2  0  0  0  0
  9 13  1  0  0  0  0
 10 11  2  0  0  0  0
 10 15  1  0  0  0  0
 11 16  1  0  0  0  0
 12 17  1  0  0  0  0
 13 18  2  0  0  0  0
 15 20  2  0  0  0  0
 15 23  1  0  0  0  0
 16 21  2  0  0  0  0
 16 24  1  0  0  0  0
 17 19  2  0  0  0  0
 17 25  1  0  0  0  0
 18 19  1  0  0  0  0
 18 26  1  0  0  0  0
 20 21  1  0  0  0  0
 20 27  1  0  0  0  0
 22 28  1  0  0  0  0
 22 29  1  0  0  0  0
 22 30  1  0  0  0  0
M  END
>  <PUBCHEM_COMPOUND_CID>
5318679

>  <PUBCHEM_COMPOUND_CANONICALIZED>
1

>  <PUBCHEM_CACTVS_COMPLEXITY>
454

>  <PUBCHEM_CACTVS_HBOND_ACCEPTOR>
6

>  <PUBCHEM_CACTVS_HBOND_DONOR>
2

>  <PUBCHEM_CACTVS_ROTATABLE_BOND>
1

>  <PUBCHEM_CACTVS_SUBSKEYS>
AAADccB4OAAAAAAAAAAAAAAAAAAAASAAAAA0YIAAAAAAAEiR9AAAGgAACAAADASAmAIyDsAABkCIAqDSCAACCAAkIAAIiAEGCMgMJzaONRqCe2Cl4BUIuYfL7PzOoAAACAAIAABAAAAQABAAAAAAAAAAAA==

>  <PUBCHEM_IUPAC_OPENEYE_NAME>
3,9-dihydroxy-1-methoxy-benzofuro[3,2-c]chromen-6-one

>  <PUBCHEM_IUPAC_CAS_NAME>
3,9-dihydroxy-1-methoxy-6-benzofuro[3,2-c][1]benzopyranone

>  <PUBCHEM_IUPAC_NAME>
3,9-dihydroxy-1-methoxy-[1]benzofuro[3,2-c]chromen-6-one

>  <PUBCHEM_IUPAC_SYSTEMATIC_NAME>
1-methoxy-3,9-bis(oxidanyl)-[1]benzofuro[3,2-c]chromen-6-one

>  <PUBCHEM_IUPAC_TRADITIONAL_NAME>
3,9-dihydroxy-1-methoxy-benzofuro[3,2-c]chromen-6-one

>  <PUBCHEM_IUPAC_INCHI>
InChI=1S/C16H10O6/c1-20-11-5-8(18)6-12-14(11)15-13(16(19)22-12)9-3-2-7(17)4-10(9)21-15/h2-6,17-18H,1H3

>  <PUBCHEM_IUPAC_INCHIKEY>
OVLUQDOJWGTPHA-UHFFFAOYSA-N

>  <PUBCHEM_XLOGP3_AA>
2.7

>  <PUBCHEM_EXACT_MASS>
298.048

>  <PUBCHEM_MOLECULAR_FORMULA>
C16H10O6

>  <PUBCHEM_MOLECULAR_WEIGHT>
298.25

>  <PUBCHEM_OPENEYE_CAN_SMILES>
COC1=C2C(=CC(=C1)O)OC(=O)C3=C2OC4=C3C=CC(=C4)O

>  <PUBCHEM_OPENEYE_ISO_SMILES>
COC1=C2C(=CC(=C1)O)OC(=O)C3=C2OC4=C3C=CC(=C4)O

>  <PUBCHEM_CACTVS_TPSA>
89.1

>  <PUBCHEM_MONOISOTOPIC_WEIGHT>
298.048

>  <PUBCHEM_TOTAL_CHARGE>
0

>  <PUBCHEM_HEAVY_ATOM_COUNT>
22

>  <PUBCHEM_ATOM_DEF_STEREO_COUNT>
0

>  <PUBCHEM_ATOM_UDEF_STEREO_COUNT>
0

>  <PUBCHEM_BOND_DEF_STEREO_COUNT>
0

>  <PUBCHEM_BOND_UDEF_STEREO_COUNT>
0

>  <PUBCHEM_ISOTOPIC_ATOM_COUNT>
0

>  <PUBCHEM_COMPONENT_COUNT>
1

>  <PUBCHEM_CACTVS_TAUTO_COUNT>
15

>  <PUBCHEM_COORDINATE_TYPE>
1
5
255

>  <PUBCHEM_BONDANNOTATIONS>
1  11  8
1  7  8
10  11  8
10  15  8
11  16  8
12  17  8
13  18  8
15  20  8
16  21  8
17  19  8
18  19  8
2  12  8
2  14  8
20  21  8
7  8  8
7  9  8
8  10  8
8  14  8
9  12  8
9  13  8

$$$$
