5318393
 OpenBabel06101807152D

 48 47  0  0  0  0  0  0  0  0999 V2000
    2.5369   -2.2500    0.0000 O   0  0  0  0  0  0  0  0  0  0  0  0
    3.4030   -3.7500    0.0000 O   0  0  0  0  0  0  0  0  0  0  0  0
   11.1972    0.7500    0.0000 C   0  0  0  0  0  0  0  0  0  0  0  0
   10.3312    0.2500    0.0000 C   0  0  0  0  0  0  0  0  0  0  0  0
   11.1972    1.7500    0.0000 C   0  0  0  0  0  0  0  0  0  0  0  0
   10.3312   -0.7500    0.0000 C   0  0  0  0  0  0  0  0  0  0  0  0
   12.0632    2.2500    0.0000 C   0  0  0  0  0  0  0  0  0  0  0  0
    9.4651   -1.2500    0.0000 C   0  0  0  0  0  0  0  0  0  0  0  0
    6.8671   -2.7500    0.0000 C   0  0  0  0  0  0  0  0  0  0  0  0
   12.0632    3.2500    0.0000 C   0  0  0  0  0  0  0  0  0  0  0  0
    6.0010   -2.2500    0.0000 C   0  0  0  0  0  0  0  0  0  0  0  0
    7.7331   -2.2500    0.0000 C   0  0  0  0  0  0  0  0  0  0  0  0
    5.1350   -2.7500    0.0000 C   0  0  0  0  0  0  0  0  0  0  0  0
    9.4651   -2.2500    0.0000 C   0  0  0  0  0  0  0  0  0  0  0  0
    8.5991   -2.7500    0.0000 C   0  0  0  0  0  0  0  0  0  0  0  0
   12.9292    3.7500    0.0000 C   0  0  0  0  0  0  0  0  0  0  0  0
    4.2690   -2.2500    0.0000 C   0  0  0  0  0  0  0  0  0  0  0  0
    3.4030   -2.7500    0.0000 C   0  0  0  0  0  0  0  0  0  0  0  0
   11.4092    0.1674    0.0000 H   0  0  0  0  0  0  0  0  0  0  0  0
   11.8078    0.8577    0.0000 H   0  0  0  0  0  0  0  0  0  0  0  0
   10.1191    0.8326    0.0000 H   0  0  0  0  0  0  0  0  0  0  0  0
    9.7206    0.1423    0.0000 H   0  0  0  0  0  0  0  0  0  0  0  0
   10.9851    2.3326    0.0000 H   0  0  0  0  0  0  0  0  0  0  0  0
   10.5866    1.6423    0.0000 H   0  0  0  0  0  0  0  0  0  0  0  0
   10.5432   -1.3326    0.0000 H   0  0  0  0  0  0  0  0  0  0  0  0
   10.9417   -0.6423    0.0000 H   0  0  0  0  0  0  0  0  0  0  0  0
   12.2753    1.6674    0.0000 H   0  0  0  0  0  0  0  0  0  0  0  0
   12.6738    2.3577    0.0000 H   0  0  0  0  0  0  0  0  0  0  0  0
    9.2531   -0.6674    0.0000 H   0  0  0  0  0  0  0  0  0  0  0  0
    8.8546   -1.3577    0.0000 H   0  0  0  0  0  0  0  0  0  0  0  0
    6.4685   -3.2250    0.0000 H   0  0  0  0  0  0  0  0  0  0  0  0
    7.2656   -3.2250    0.0000 H   0  0  0  0  0  0  0  0  0  0  0  0
   11.8512    3.8326    0.0000 H   0  0  0  0  0  0  0  0  0  0  0  0
   11.4526    3.1423    0.0000 H   0  0  0  0  0  0  0  0  0  0  0  0
    6.3996   -1.7750    0.0000 H   0  0  0  0  0  0  0  0  0  0  0  0
    5.6025   -1.7750    0.0000 H   0  0  0  0  0  0  0  0  0  0  0  0
    8.1316   -1.7750    0.0000 H   0  0  0  0  0  0  0  0  0  0  0  0
    7.3346   -1.7750    0.0000 H   0  0  0  0  0  0  0  0  0  0  0  0
    4.7365   -3.2250    0.0000 H   0  0  0  0  0  0  0  0  0  0  0  0
    5.5335   -3.2250    0.0000 H   0  0  0  0  0  0  0  0  0  0  0  0
   10.0021   -2.5600    0.0000 H   0  0  0  0  0  0  0  0  0  0  0  0
    8.5991   -3.3700    0.0000 H   0  0  0  0  0  0  0  0  0  0  0  0
    4.6675   -1.7750    0.0000 H   0  0  0  0  0  0  0  0  0  0  0  0
    3.8705   -1.7750    0.0000 H   0  0  0  0  0  0  0  0  0  0  0  0
   13.2392    3.2131    0.0000 H   0  0  0  0  0  0  0  0  0  0  0  0
   13.4662    4.0600    0.0000 H   0  0  0  0  0  0  0  0  0  0  0  0
   12.6192    4.2869    0.0000 H   0  0  0  0  0  0  0  0  0  0  0  0
    2.0000   -2.5600    0.0000 H   0  0  0  0  0  0  0  0  0  0  0  0
  1 18  1  0  0  0  0
  1 48  1  0  0  0  0
  2 18  2  0  0  0  0
  3  4  1  0  0  0  0
  3  5  1  0  0  0  0
  3 19  1  0  0  0  0
  3 20  1  0  0  0  0
  4  6  1  0  0  0  0
  4 21  1  0  0  0  0
  4 22  1  0  0  0  0
  5  7  1  0  0  0  0
  5 23  1  0  0  0  0
  5 24  1  0  0  0  0
  6  8  1  0  0  0  0
  6 25  1  0  0  0  0
  6 26  1  0  0  0  0
  7 10  1  0  0  0  0
  7 27  1  0  0  0  0
  7 28  1  0  0  0  0
  8 14  1  0  0  0  0
  8 29  1  0  0  0  0
  8 30  1  0  0  0  0
  9 11  1  0  0  0  0
  9 12  1  0  0  0  0
  9 31  1  0  0  0  0
  9 32  1  0  0  0  0
 10 16  1  0  0  0  0
 10 33  1  0  0  0  0
 10 34  1  0  0  0  0
 11 13  1  0  0  0  0
 11 35  1  0  0  0  0
 11 36  1  0  0  0  0
 12 15  1  0  0  0  0
 12 37  1  0  0  0  0
 12 38  1  0  0  0  0
 13 17  1  0  0  0  0
 13 39  1  0  0  0  0
 13 40  1  0  0  0  0
 14 15  2  0  0  0  0
 14 41  1  0  0  0  0
 15 42  1  0  0  0  0
 16 45  1  0  0  0  0
 16 46  1  0  0  0  0
 16 47  1  0  0  0  0
 17 18  1  0  0  0  0
 17 43  1  0  0  0  0
 17 44  1  0  0  0  0
M  END
>  <PUBCHEM_COMPOUND_CID>
5318393

>  <PUBCHEM_COMPOUND_CANONICALIZED>
1

>  <PUBCHEM_CACTVS_COMPLEXITY>
209

>  <PUBCHEM_CACTVS_HBOND_ACCEPTOR>
2

>  <PUBCHEM_CACTVS_HBOND_DONOR>
1

>  <PUBCHEM_CACTVS_ROTATABLE_BOND>
13

>  <PUBCHEM_CACTVS_SUBSKEYS>
AAADceB4MAAAAAAAAAAAAAAAAAAAAAAAAAAAAAAAAAAAAAAAAAAAGgAACAAACACAgAACCAAAAgCIACDSCAAAAAAgAAAICAEAAAgAABIAAQAAQAAEgAAIAAOIyKCAAAAAAAAAAAAAAAAAAAAAAAAAAAAAAA==

>  <PUBCHEM_IUPAC_OPENEYE_NAME>
(Z)-hexadec-7-enoic acid

>  <PUBCHEM_IUPAC_CAS_NAME>
(Z)-7-hexadecenoic acid

>  <PUBCHEM_IUPAC_NAME>
(Z)-hexadec-7-enoic acid

>  <PUBCHEM_IUPAC_SYSTEMATIC_NAME>
(Z)-hexadec-7-enoic acid

>  <PUBCHEM_IUPAC_TRADITIONAL_NAME>
(Z)-hexadec-7-enoic acid

>  <PUBCHEM_IUPAC_INCHI>
InChI=1S/C16H30O2/c1-2-3-4-5-6-7-8-9-10-11-12-13-14-15-16(17)18/h9-10H,2-8,11-15H2,1H3,(H,17,18)/b10-9-

>  <PUBCHEM_IUPAC_INCHIKEY>
PJHOFUXBXJNUAC-KTKRTIGZSA-N

>  <PUBCHEM_XLOGP3>
6.4

>  <PUBCHEM_EXACT_MASS>
254.225

>  <PUBCHEM_MOLECULAR_FORMULA>
C16H30O2

>  <PUBCHEM_MOLECULAR_WEIGHT>
254.414

>  <PUBCHEM_OPENEYE_CAN_SMILES>
CCCCCCCCC=CCCCCCC(=O)O

>  <PUBCHEM_OPENEYE_ISO_SMILES>
CCCCCCCC/C=C\CCCCCC(=O)O

>  <PUBCHEM_CACTVS_TPSA>
37.3

>  <PUBCHEM_MONOISOTOPIC_WEIGHT>
254.225

>  <PUBCHEM_TOTAL_CHARGE>
0

>  <PUBCHEM_HEAVY_ATOM_COUNT>
18

>  <PUBCHEM_ATOM_DEF_STEREO_COUNT>
0

>  <PUBCHEM_ATOM_UDEF_STEREO_COUNT>
0

>  <PUBCHEM_BOND_DEF_STEREO_COUNT>
1

>  <PUBCHEM_BOND_UDEF_STEREO_COUNT>
0

>  <PUBCHEM_ISOTOPIC_ATOM_COUNT>
0

>  <PUBCHEM_COMPONENT_COUNT>
1

>  <PUBCHEM_CACTVS_TAUTO_COUNT>
1

>  <PUBCHEM_COORDINATE_TYPE>
1
5
255

$$$$
