5318562
 OpenBabel06101807152D

 25 26  0  0  0  0  0  0  0  0999 V2000
    6.0290   -1.1897    0.0000 O   0  0  0  0  0  0  0  0  0  0  0  0
    4.2690    1.8450    0.0000 O   0  0  0  0  0  0  0  0  0  0  0  0
    2.5369   -1.1550    0.0000 O   0  0  0  0  0  0  0  0  0  0  0  0
    6.0174    1.8796    0.0000 O   0  0  0  0  0  0  0  0  0  0  0  0
    5.1350   -0.6550    0.0000 C   0  0  0  0  0  0  0  0  0  0  0  0
    5.1350    0.3450    0.0000 C   0  0  0  0  0  0  0  0  0  0  0  0
    4.2690   -1.1550    0.0000 C   0  0  0  0  0  0  0  0  0  0  0  0
    4.2690    0.8450    0.0000 C   0  0  0  0  0  0  0  0  0  0  0  0
    3.4030   -0.6550    0.0000 C   0  0  0  0  0  0  0  0  0  0  0  0
    6.0290    0.8797    0.0000 C   0  0  0  0  0  0  0  0  0  0  0  0
    3.4030    0.3450    0.0000 C   0  0  0  0  0  0  0  0  0  0  0  0
    6.9350   -0.6758    0.0000 C   0  0  0  0  0  0  0  0  0  0  0  0
    6.9350    0.3658    0.0000 C   0  0  0  0  0  0  0  0  0  0  0  0
    4.2690   -2.1550    0.0000 C   0  0  0  0  0  0  0  0  0  0  0  0
    7.7991   -1.1792    0.0000 C   0  0  0  0  0  0  0  0  0  0  0  0
    2.8660    0.6550    0.0000 H   0  0  0  0  0  0  0  0  0  0  0  0
    7.4708    0.6779    0.0000 H   0  0  0  0  0  0  0  0  0  0  0  0
    3.6490   -2.1550    0.0000 H   0  0  0  0  0  0  0  0  0  0  0  0
    4.2690   -2.7750    0.0000 H   0  0  0  0  0  0  0  0  0  0  0  0
    4.8890   -2.1550    0.0000 H   0  0  0  0  0  0  0  0  0  0  0  0
    7.4870   -1.7149    0.0000 H   0  0  0  0  0  0  0  0  0  0  0  0
    8.3348   -1.4912    0.0000 H   0  0  0  0  0  0  0  0  0  0  0  0
    8.1112   -0.6434    0.0000 H   0  0  0  0  0  0  0  0  0  0  0  0
    3.7320    2.1550    0.0000 H   0  0  0  0  0  0  0  0  0  0  0  0
    2.0000   -0.8450    0.0000 H   0  0  0  0  0  0  0  0  0  0  0  0
  1  5  1  0  0  0  0
  1 12  1  0  0  0  0
  2  8  1  0  0  0  0
  2 24  1  0  0  0  0
  3  9  1  0  0  0  0
  3 25  1  0  0  0  0
  4 10  2  0  0  0  0
  5  6  1  0  0  0  0
  5  7  2  0  0  0  0
  6  8  2  0  0  0  0
  6 10  1  0  0  0  0
  7  9  1  0  0  0  0
  7 14  1  0  0  0  0
  8 11  1  0  0  0  0
  9 11  2  0  0  0  0
 10 13  1  0  0  0  0
 11 16  1  0  0  0  0
 12 13  2  0  0  0  0
 12 15  1  0  0  0  0
 13 17  1  0  0  0  0
 14 18  1  0  0  0  0
 14 19  1  0  0  0  0
 14 20  1  0  0  0  0
 15 21  1  0  0  0  0
 15 22  1  0  0  0  0
 15 23  1  0  0  0  0
M  END
>  <PUBCHEM_COMPOUND_CID>
5318562

>  <PUBCHEM_COMPOUND_CANONICALIZED>
1

>  <PUBCHEM_CACTVS_COMPLEXITY>
310

>  <PUBCHEM_CACTVS_HBOND_ACCEPTOR>
4

>  <PUBCHEM_CACTVS_HBOND_DONOR>
2

>  <PUBCHEM_CACTVS_ROTATABLE_BOND>
0

>  <PUBCHEM_CACTVS_SUBSKEYS>
AAADccBwOAAAAAAAAAAAAAAAAAAAAAAAAAAwQAAAAAAAAACBAAAAGgAACAAADASAmAAyBoAABgCIAqBSAAACCAAkIAAAiAEGCMgMJzaGNRqCeWCl4BUIuQeI7OzOIAACCAAIAABAAAQQABAAAAAAAAAAAA==

>  <PUBCHEM_IUPAC_OPENEYE_NAME>
5,7-dihydroxy-2,8-dimethyl-chromen-4-one

>  <PUBCHEM_IUPAC_CAS_NAME>
5,7-dihydroxy-2,8-dimethyl-1-benzopyran-4-one

>  <PUBCHEM_IUPAC_NAME>
5,7-dihydroxy-2,8-dimethylchromen-4-one

>  <PUBCHEM_IUPAC_SYSTEMATIC_NAME>
2,8-dimethyl-5,7-bis(oxidanyl)chromen-4-one

>  <PUBCHEM_IUPAC_TRADITIONAL_NAME>
5,7-dihydroxy-2,8-dimethyl-chromone

>  <PUBCHEM_IUPAC_INCHI>
InChI=1S/C11H10O4/c1-5-3-8(13)10-9(14)4-7(12)6(2)11(10)15-5/h3-4,12,14H,1-2H3

>  <PUBCHEM_IUPAC_INCHIKEY>
XSSGQRFNGHRFBC-UHFFFAOYSA-N

>  <PUBCHEM_XLOGP3_AA>
2.1

>  <PUBCHEM_EXACT_MASS>
206.058

>  <PUBCHEM_MOLECULAR_FORMULA>
C11H10O4

>  <PUBCHEM_MOLECULAR_WEIGHT>
206.197

>  <PUBCHEM_OPENEYE_CAN_SMILES>
CC1=CC(=O)C2=C(O1)C(=C(C=C2O)O)C

>  <PUBCHEM_OPENEYE_ISO_SMILES>
CC1=CC(=O)C2=C(O1)C(=C(C=C2O)O)C

>  <PUBCHEM_CACTVS_TPSA>
66.8

>  <PUBCHEM_MONOISOTOPIC_WEIGHT>
206.058

>  <PUBCHEM_TOTAL_CHARGE>
0

>  <PUBCHEM_HEAVY_ATOM_COUNT>
15

>  <PUBCHEM_ATOM_DEF_STEREO_COUNT>
0

>  <PUBCHEM_ATOM_UDEF_STEREO_COUNT>
0

>  <PUBCHEM_BOND_DEF_STEREO_COUNT>
0

>  <PUBCHEM_BOND_UDEF_STEREO_COUNT>
0

>  <PUBCHEM_ISOTOPIC_ATOM_COUNT>
0

>  <PUBCHEM_COMPONENT_COUNT>
1

>  <PUBCHEM_CACTVS_TAUTO_COUNT>
33

>  <PUBCHEM_COORDINATE_TYPE>
1
5
255

>  <PUBCHEM_BONDANNOTATIONS>
1  12  8
1  5  8
10  13  8
12  13  8
5  6  8
5  7  8
6  10  8
6  8  8
7  9  8
8  11  8
9  11  8

$$$$
