5318508
 OpenBabel06101807152D

 42 44  0  0  0  0  0  0  0  0999 V2000
    6.0290   -0.4293    0.0000 O   0  0  0  0  0  0  0  0  0  0  0  0
    6.9273   -1.9154    0.0000 O   0  0  0  0  0  0  0  0  0  0  0  0
    2.5369   -0.3946    0.0000 O   0  0  0  0  0  0  0  0  0  0  0  0
    4.2690    2.6054    0.0000 O   0  0  0  0  0  0  0  0  0  0  0  0
   10.3991    0.0712    0.0000 O   0  0  0  0  0  0  0  0  0  0  0  0
    2.5369    1.6054    0.0000 O   0  0  0  0  0  0  0  0  0  0  0  0
    6.0174    2.6400    0.0000 O   0  0  0  0  0  0  0  0  0  0  0  0
   10.3914   -1.9288    0.0000 O   0  0  0  0  0  0  0  0  0  0  0  0
    5.1350    1.1054    0.0000 C   0  0  0  0  0  0  0  0  0  0  0  0
    6.9350    0.0846    0.0000 C   0  0  0  0  0  0  0  0  0  0  0  0
    5.1350    0.1054    0.0000 C   0  0  0  0  0  0  0  0  0  0  0  0
    7.7991   -0.4188    0.0000 C   0  0  0  0  0  0  0  0  0  0  0  0
    6.0290    1.6401    0.0000 C   0  0  0  0  0  0  0  0  0  0  0  0
    6.9350    1.1262    0.0000 C   0  0  0  0  0  0  0  0  0  0  0  0
    4.2690    1.6054    0.0000 C   0  0  0  0  0  0  0  0  0  0  0  0
    4.2690   -0.3946    0.0000 C   0  0  0  0  0  0  0  0  0  0  0  0
    7.7953   -1.4188    0.0000 C   0  0  0  0  0  0  0  0  0  0  0  0
    8.6671    0.0779    0.0000 C   0  0  0  0  0  0  0  0  0  0  0  0
    3.4030    0.1054    0.0000 C   0  0  0  0  0  0  0  0  0  0  0  0
    3.4030    1.1054    0.0000 C   0  0  0  0  0  0  0  0  0  0  0  0
    9.5312   -0.4254    0.0000 C   0  0  0  0  0  0  0  0  0  0  0  0
    8.6594   -1.9221    0.0000 C   0  0  0  0  0  0  0  0  0  0  0  0
    9.5273   -1.4254    0.0000 C   0  0  0  0  0  0  0  0  0  0  0  0
    6.9235   -2.9154    0.0000 C   0  0  0  0  0  0  0  0  0  0  0  0
    2.5369   -1.3946    0.0000 C   0  0  0  0  0  0  0  0  0  0  0  0
   10.4030    1.0712    0.0000 C   0  0  0  0  0  0  0  0  0  0  0  0
    7.4708    1.4383    0.0000 H   0  0  0  0  0  0  0  0  0  0  0  0
    4.2690   -1.0146    0.0000 H   0  0  0  0  0  0  0  0  0  0  0  0
    8.6694    0.6979    0.0000 H   0  0  0  0  0  0  0  0  0  0  0  0
    8.6570   -2.5421    0.0000 H   0  0  0  0  0  0  0  0  0  0  0  0
    3.7320    2.9154    0.0000 H   0  0  0  0  0  0  0  0  0  0  0  0
    2.0000    1.2954    0.0000 H   0  0  0  0  0  0  0  0  0  0  0  0
    6.3035   -2.9130    0.0000 H   0  0  0  0  0  0  0  0  0  0  0  0
    6.9211   -3.5354    0.0000 H   0  0  0  0  0  0  0  0  0  0  0  0
    7.5434   -2.9178    0.0000 H   0  0  0  0  0  0  0  0  0  0  0  0
   10.3890   -2.5488    0.0000 H   0  0  0  0  0  0  0  0  0  0  0  0
    1.9169   -1.3946    0.0000 H   0  0  0  0  0  0  0  0  0  0  0  0
    2.5369   -2.0146    0.0000 H   0  0  0  0  0  0  0  0  0  0  0  0
    3.1569   -1.3946    0.0000 H   0  0  0  0  0  0  0  0  0  0  0  0
   11.0229    1.0688    0.0000 H   0  0  0  0  0  0  0  0  0  0  0  0
   10.4053    1.6912    0.0000 H   0  0  0  0  0  0  0  0  0  0  0  0
    9.7830    1.0736    0.0000 H   0  0  0  0  0  0  0  0  0  0  0  0
  1 10  1  0  0  0  0
  1 11  1  0  0  0  0
  2 17  1  0  0  0  0
  2 24  1  0  0  0  0
  3 19  1  0  0  0  0
  3 25  1  0  0  0  0
  4 15  1  0  0  0  0
  4 31  1  0  0  0  0
  5 21  1  0  0  0  0
  5 26  1  0  0  0  0
  6 20  1  0  0  0  0
  6 32  1  0  0  0  0
  7 13  2  0  0  0  0
  8 23  1  0  0  0  0
  8 36  1  0  0  0  0
  9 11  1  0  0  0  0
  9 13  1  0  0  0  0
  9 15  2  0  0  0  0
 10 12  1  0  0  0  0
 10 14  2  0  0  0  0
 11 16  2  0  0  0  0
 12 17  1  0  0  0  0
 12 18  2  0  0  0  0
 13 14  1  0  0  0  0
 14 27  1  0  0  0  0
 15 20  1  0  0  0  0
 16 19  1  0  0  0  0
 16 28  1  0  0  0  0
 17 22  2  0  0  0  0
 18 21  1  0  0  0  0
 18 29  1  0  0  0  0
 19 20  2  0  0  0  0
 21 23  2  0  0  0  0
 22 23  1  0  0  0  0
 22 30  1  0  0  0  0
 24 33  1  0  0  0  0
 24 34  1  0  0  0  0
 24 35  1  0  0  0  0
 25 37  1  0  0  0  0
 25 38  1  0  0  0  0
 25 39  1  0  0  0  0
 26 40  1  0  0  0  0
 26 41  1  0  0  0  0
 26 42  1  0  0  0  0
M  END
>  <PUBCHEM_COMPOUND_CID>
5318508

>  <PUBCHEM_COMPOUND_CANONICALIZED>
1

>  <PUBCHEM_CACTVS_COMPLEXITY>
549

>  <PUBCHEM_CACTVS_HBOND_ACCEPTOR>
8

>  <PUBCHEM_CACTVS_HBOND_DONOR>
3

>  <PUBCHEM_CACTVS_ROTATABLE_BOND>
4

>  <PUBCHEM_CACTVS_SUBSKEYS>
AAADceB4PAAAAAAAAAAAAAAAAAAAAAAAAAAwYIAAAAAAAACBQAAAGgAACAAADASAmAIyBoAABgCIAqBSAAACCAAkIAAAiAEGiMgNJzaGNBqCeWOl4BULuQfK7LzOIQABCAAIQABCAAIQABCAAAAAAAAAAA==

>  <PUBCHEM_IUPAC_OPENEYE_NAME>
5,6-dihydroxy-2-(4-hydroxy-2,5-dimethoxy-phenyl)-7-methoxy-chromen-4-one

>  <PUBCHEM_IUPAC_CAS_NAME>
5,6-dihydroxy-2-(4-hydroxy-2,5-dimethoxyphenyl)-7-methoxy-1-benzopyran-4-one

>  <PUBCHEM_IUPAC_NAME>
5,6-dihydroxy-2-(4-hydroxy-2,5-dimethoxyphenyl)-7-methoxychromen-4-one

>  <PUBCHEM_IUPAC_SYSTEMATIC_NAME>
2-(2,5-dimethoxy-4-oxidanyl-phenyl)-7-methoxy-5,6-bis(oxidanyl)chromen-4-one

>  <PUBCHEM_IUPAC_TRADITIONAL_NAME>
5,6-dihydroxy-2-(4-hydroxy-2,5-dimethoxy-phenyl)-7-methoxy-chromone

>  <PUBCHEM_IUPAC_INCHI>
InChI=1S/C18H16O8/c1-23-11-5-9(19)13(24-2)4-8(11)12-6-10(20)16-14(26-12)7-15(25-3)17(21)18(16)22/h4-7,19,21-22H,1-3H3

>  <PUBCHEM_IUPAC_INCHIKEY>
HPDHWLHTEDKQKQ-UHFFFAOYSA-N

>  <PUBCHEM_XLOGP3_AA>
2.6

>  <PUBCHEM_EXACT_MASS>
360.085

>  <PUBCHEM_MOLECULAR_FORMULA>
C18H16O8

>  <PUBCHEM_MOLECULAR_WEIGHT>
360.318

>  <PUBCHEM_OPENEYE_CAN_SMILES>
COC1=CC(=C(C=C1C2=CC(=O)C3=C(C(=C(C=C3O2)OC)O)O)OC)O

>  <PUBCHEM_OPENEYE_ISO_SMILES>
COC1=CC(=C(C=C1C2=CC(=O)C3=C(C(=C(C=C3O2)OC)O)O)OC)O

>  <PUBCHEM_CACTVS_TPSA>
115

>  <PUBCHEM_MONOISOTOPIC_WEIGHT>
360.085

>  <PUBCHEM_TOTAL_CHARGE>
0

>  <PUBCHEM_HEAVY_ATOM_COUNT>
26

>  <PUBCHEM_ATOM_DEF_STEREO_COUNT>
0

>  <PUBCHEM_ATOM_UDEF_STEREO_COUNT>
0

>  <PUBCHEM_BOND_DEF_STEREO_COUNT>
0

>  <PUBCHEM_BOND_UDEF_STEREO_COUNT>
0

>  <PUBCHEM_ISOTOPIC_ATOM_COUNT>
0

>  <PUBCHEM_COMPONENT_COUNT>
1

>  <PUBCHEM_CACTVS_TAUTO_COUNT>
58

>  <PUBCHEM_COORDINATE_TYPE>
1
5
255

>  <PUBCHEM_BONDANNOTATIONS>
1  10  8
1  11  8
10  14  8
11  16  8
12  17  8
12  18  8
13  14  8
15  20  8
16  19  8
17  22  8
18  21  8
19  20  8
21  23  8
22  23  8
9  11  8
9  13  8
9  15  8

$$$$
