5318547
 OpenBabel06101807152D

 30 33  0  0  0  0  0  0  0  0999 V2000
    5.6783   -0.7535    0.0000 O   0  0  0  0  0  0  0  0  0  0  0  0
    7.8223    1.3150    0.0000 O   0  0  0  0  0  0  0  0  0  0  0  0
    6.5352    2.4740    0.0000 O   0  0  0  0  0  0  0  0  0  0  0  0
    9.8139    0.9140    0.0000 O   0  0  0  0  0  0  0  0  0  0  0  0
    2.8182    2.0935    0.0000 O   0  0  0  0  0  0  0  0  0  0  0  0
    2.1888    0.1508    0.0000 O   0  0  0  0  0  0  0  0  0  0  0  0
    9.0913   -2.5513    0.0000 O   0  0  0  0  0  0  0  0  0  0  0  0
    6.1750    0.7798    0.0000 C   0  0  0  0  0  0  0  0  0  0  0  0
    6.4840   -0.1713    0.0000 C   0  0  0  0  0  0  0  0  0  0  0  0
    5.1810    0.7772    0.0000 C   0  0  0  0  0  0  0  0  0  0  0  0
    7.4622   -0.3792    0.0000 C   0  0  0  0  0  0  0  0  0  0  0  0
    4.8746   -0.1685    0.0000 C   0  0  0  0  0  0  0  0  0  0  0  0
    8.1313    0.3640    0.0000 C   0  0  0  0  0  0  0  0  0  0  0  0
    6.8442    1.5229    0.0000 C   0  0  0  0  0  0  0  0  0  0  0  0
    4.4994    1.5567    0.0000 C   0  0  0  0  0  0  0  0  0  0  0  0
    7.7688   -1.3747    0.0000 C   0  0  0  0  0  0  0  0  0  0  0  0
    3.8654   -0.4002    0.0000 C   0  0  0  0  0  0  0  0  0  0  0  0
    9.1534    0.1631    0.0000 C   0  0  0  0  0  0  0  0  0  0  0  0
    3.4851    1.3484    0.0000 C   0  0  0  0  0  0  0  0  0  0  0  0
    3.1660    0.3633    0.0000 C   0  0  0  0  0  0  0  0  0  0  0  0
    8.7859   -1.5991    0.0000 C   0  0  0  0  0  0  0  0  0  0  0  0
    9.4829   -0.8250    0.0000 C   0  0  0  0  0  0  0  0  0  0  0  0
    4.6973    2.1443    0.0000 H   0  0  0  0  0  0  0  0  0  0  0  0
    7.3486   -1.8306    0.0000 H   0  0  0  0  0  0  0  0  0  0  0  0
    3.6812   -0.9922    0.0000 H   0  0  0  0  0  0  0  0  0  0  0  0
   10.0899   -0.9516    0.0000 H   0  0  0  0  0  0  0  0  0  0  0  0
   10.4218    0.7921    0.0000 H   0  0  0  0  0  0  0  0  0  0  0  0
    3.0115    2.6826    0.0000 H   0  0  0  0  0  0  0  0  0  0  0  0
    2.0000   -0.4398    0.0000 H   0  0  0  0  0  0  0  0  0  0  0  0
    9.6972   -2.6826    0.0000 H   0  0  0  0  0  0  0  0  0  0  0  0
  1  9  1  0  0  0  0
  1 12  1  0  0  0  0
  2 13  1  0  0  0  0
  2 14  1  0  0  0  0
  3 14  2  0  0  0  0
  4 18  1  0  0  0  0
  4 27  1  0  0  0  0
  5 19  1  0  0  0  0
  5 28  1  0  0  0  0
  6 20  1  0  0  0  0
  6 29  1  0  0  0  0
  7 21  1  0  0  0  0
  7 30  1  0  0  0  0
  8  9  2  0  0  0  0
  8 10  1  0  0  0  0
  8 14  1  0  0  0  0
  9 11  1  0  0  0  0
 10 12  1  0  0  0  0
 10 15  2  0  0  0  0
 11 13  2  0  0  0  0
 11 16  1  0  0  0  0
 12 17  2  0  0  0  0
 13 18  1  0  0  0  0
 15 19  1  0  0  0  0
 15 23  1  0  0  0  0
 16 21  2  0  0  0  0
 16 24  1  0  0  0  0
 17 20  1  0  0  0  0
 17 25  1  0  0  0  0
 18 22  2  0  0  0  0
 19 20  2  0  0  0  0
 21 22  1  0  0  0  0
 22 26  1  0  0  0  0
M  END
>  <PUBCHEM_COMPOUND_CID>
5318547

>  <PUBCHEM_COMPOUND_CANONICALIZED>
1

>  <PUBCHEM_CACTVS_COMPLEXITY>
469

>  <PUBCHEM_CACTVS_HBOND_ACCEPTOR>
7

>  <PUBCHEM_CACTVS_HBOND_DONOR>
4

>  <PUBCHEM_CACTVS_ROTATABLE_BOND>
0

>  <PUBCHEM_CACTVS_SUBSKEYS>
AAADccBwOAAAAAAAAAAAAAAAAAAAASAAAAA0YIAAAAAAAEiR9AAAGgAACAAADASAmAAwDsAABkCIAqDSCAACCAAkIAAAiAEGiMgNJzaONRqCe2Ol4BULuYfL7PzOoQABCAAIQABCAAIQABCAAAAAAAAAAA==

>  <PUBCHEM_IUPAC_OPENEYE_NAME>
2,4,8,9-tetrahydroxybenzofuro[3,2-c]chromen-6-one

>  <PUBCHEM_IUPAC_CAS_NAME>
2,4,8,9-tetrahydroxy-6-benzofuro[3,2-c][1]benzopyranone

>  <PUBCHEM_IUPAC_NAME>
2,4,8,9-tetrahydroxy-[1]benzofuro[3,2-c]chromen-6-one

>  <PUBCHEM_IUPAC_SYSTEMATIC_NAME>
2,4,8,9-tetrakis(oxidanyl)-[1]benzofuro[3,2-c]chromen-6-one

>  <PUBCHEM_IUPAC_TRADITIONAL_NAME>
2,4,8,9-tetrahydroxybenzofuro[3,2-c]chromen-6-one

>  <PUBCHEM_IUPAC_INCHI>
InChI=1S/C15H8O7/c16-5-1-7-13(10(19)2-5)22-15(20)12-6-3-8(17)9(18)4-11(6)21-14(7)12/h1-4,16-19H

>  <PUBCHEM_IUPAC_INCHIKEY>
OBEHELRBTWMPHI-UHFFFAOYSA-N

>  <PUBCHEM_XLOGP3_AA>
2.1

>  <PUBCHEM_EXACT_MASS>
300.027

>  <PUBCHEM_MOLECULAR_FORMULA>
C15H8O7

>  <PUBCHEM_MOLECULAR_WEIGHT>
300.222

>  <PUBCHEM_OPENEYE_CAN_SMILES>
C1=C(C=C2C(=C1O)OC(=O)C3=C2OC4=CC(=C(C=C43)O)O)O

>  <PUBCHEM_OPENEYE_ISO_SMILES>
C1=C(C=C2C(=C1O)OC(=O)C3=C2OC4=CC(=C(C=C43)O)O)O

>  <PUBCHEM_CACTVS_TPSA>
120

>  <PUBCHEM_MONOISOTOPIC_WEIGHT>
300.027

>  <PUBCHEM_TOTAL_CHARGE>
0

>  <PUBCHEM_HEAVY_ATOM_COUNT>
22

>  <PUBCHEM_ATOM_DEF_STEREO_COUNT>
0

>  <PUBCHEM_ATOM_UDEF_STEREO_COUNT>
0

>  <PUBCHEM_BOND_DEF_STEREO_COUNT>
0

>  <PUBCHEM_BOND_UDEF_STEREO_COUNT>
0

>  <PUBCHEM_ISOTOPIC_ATOM_COUNT>
0

>  <PUBCHEM_COMPONENT_COUNT>
1

>  <PUBCHEM_CACTVS_TAUTO_COUNT>
112

>  <PUBCHEM_COORDINATE_TYPE>
1
5
255

>  <PUBCHEM_BONDANNOTATIONS>
1  12  8
1  9  8
10  12  8
10  15  8
11  13  8
11  16  8
12  17  8
13  18  8
15  19  8
16  21  8
17  20  8
18  22  8
19  20  8
2  13  8
2  14  8
21  22  8
8  10  8
8  14  8
8  9  8
9  11  8

$$$$
