5318373
 OpenBabel06101807152D

 36 38  0  0  0  0  0  0  0  0999 V2000
    5.5301   -1.1633    0.0000 O   0  0  0  0  0  0  0  0  0  0  0  0
    2.0000    0.8608    0.0000 O   0  0  0  0  0  0  0  0  0  0  0  0
    2.0000   -1.1875    0.0000 O   0  0  0  0  0  0  0  0  0  0  0  0
    5.5301    1.8367    0.0000 O   0  0  0  0  0  0  0  0  0  0  0  0
    7.2785    1.8713    0.0000 O   0  0  0  0  0  0  0  0  0  0  0  0
    9.0602   -1.1875    0.0000 O   0  0  0  0  0  0  0  0  0  0  0  0
    4.6641    0.3367    0.0000 C   0  0  0  0  0  0  0  0  0  0  0  0
    6.3961    0.3367    0.0000 C   0  0  0  0  0  0  0  0  0  0  0  0
    4.6641   -0.6633    0.0000 C   0  0  0  0  0  0  0  0  0  0  0  0
    6.3961   -0.6633    0.0000 C   0  0  0  0  0  0  0  0  0  0  0  0
    5.5301    0.8367    0.0000 C   0  0  0  0  0  0  0  0  0  0  0  0
    3.7702    0.8713    0.0000 C   0  0  0  0  0  0  0  0  0  0  0  0
    7.2901    0.8713    0.0000 C   0  0  0  0  0  0  0  0  0  0  0  0
    3.7702   -1.1980    0.0000 C   0  0  0  0  0  0  0  0  0  0  0  0
    2.8641    0.3575    0.0000 C   0  0  0  0  0  0  0  0  0  0  0  0
    7.2901   -1.1980    0.0000 C   0  0  0  0  0  0  0  0  0  0  0  0
    2.8641   -0.6841    0.0000 C   0  0  0  0  0  0  0  0  0  0  0  0
    8.1962   -0.6841    0.0000 C   0  0  0  0  0  0  0  0  0  0  0  0
    8.1962    0.3575    0.0000 C   0  0  0  0  0  0  0  0  0  0  0  0
    2.0038    1.8608    0.0000 C   0  0  0  0  0  0  0  0  0  0  0  0
    2.0038   -2.1875    0.0000 C   0  0  0  0  0  0  0  0  0  0  0  0
    9.9282   -0.6908    0.0000 C   0  0  0  0  0  0  0  0  0  0  0  0
    3.7773    1.4913    0.0000 H   0  0  0  0  0  0  0  0  0  0  0  0
    3.7773   -1.8179    0.0000 H   0  0  0  0  0  0  0  0  0  0  0  0
    7.2829   -1.8179    0.0000 H   0  0  0  0  0  0  0  0  0  0  0  0
    8.7319    0.6696    0.0000 H   0  0  0  0  0  0  0  0  0  0  0  0
    7.8118    2.1875    0.0000 H   0  0  0  0  0  0  0  0  0  0  0  0
    2.6238    1.8584    0.0000 H   0  0  0  0  0  0  0  0  0  0  0  0
    2.0062    2.4808    0.0000 H   0  0  0  0  0  0  0  0  0  0  0  0
    1.3839    1.8632    0.0000 H   0  0  0  0  0  0  0  0  0  0  0  0
    1.3839   -2.1898    0.0000 H   0  0  0  0  0  0  0  0  0  0  0  0
    2.0062   -2.8075    0.0000 H   0  0  0  0  0  0  0  0  0  0  0  0
    2.6238   -2.1851    0.0000 H   0  0  0  0  0  0  0  0  0  0  0  0
   10.2361   -1.2289    0.0000 H   0  0  0  0  0  0  0  0  0  0  0  0
   10.4663   -0.3829    0.0000 H   0  0  0  0  0  0  0  0  0  0  0  0
    9.6203   -0.1527    0.0000 H   0  0  0  0  0  0  0  0  0  0  0  0
  1  9  1  0  0  0  0
  1 10  1  0  0  0  0
  2 15  1  0  0  0  0
  2 20  1  0  0  0  0
  3 17  1  0  0  0  0
  3 21  1  0  0  0  0
  4 11  2  0  0  0  0
  5 13  1  0  0  0  0
  5 27  1  0  0  0  0
  6 18  1  0  0  0  0
  6 22  1  0  0  0  0
  7  9  1  0  0  0  0
  7 11  1  0  0  0  0
  7 12  2  0  0  0  0
  8 10  1  0  0  0  0
  8 11  1  0  0  0  0
  8 13  2  0  0  0  0
  9 14  2  0  0  0  0
 10 16  2  0  0  0  0
 12 15  1  0  0  0  0
 12 23  1  0  0  0  0
 13 19  1  0  0  0  0
 14 17  1  0  0  0  0
 14 24  1  0  0  0  0
 15 17  2  0  0  0  0
 16 18  1  0  0  0  0
 16 25  1  0  0  0  0
 18 19  2  0  0  0  0
 19 26  1  0  0  0  0
 20 28  1  0  0  0  0
 20 29  1  0  0  0  0
 20 30  1  0  0  0  0
 21 31  1  0  0  0  0
 21 32  1  0  0  0  0
 21 33  1  0  0  0  0
 22 34  1  0  0  0  0
 22 35  1  0  0  0  0
 22 36  1  0  0  0  0
M  END
>  <PUBCHEM_COMPOUND_CID>
5318373

>  <PUBCHEM_COMPOUND_CANONICALIZED>
1

>  <PUBCHEM_CACTVS_COMPLEXITY>
413

>  <PUBCHEM_CACTVS_HBOND_ACCEPTOR>
6

>  <PUBCHEM_CACTVS_HBOND_DONOR>
1

>  <PUBCHEM_CACTVS_ROTATABLE_BOND>
3

>  <PUBCHEM_CACTVS_SUBSKEYS>
AAADccB4OAAAAAAAAAAAAAAAAAAAAAAAAAA0YIAAAAAAAACRQAAAGgAACAAADASAmAIyBoAABgCIAqBSAAACCAAkIAAAiAEGiMgNJzaGNRqCeWKl4BUKuYfK7PzOIQABCAAIQABCAAIQABCAAAAAAAAAAA==

>  <PUBCHEM_IUPAC_OPENEYE_NAME>
1-hydroxy-3,6,7-trimethoxy-xanthen-9-one

>  <PUBCHEM_IUPAC_CAS_NAME>
1-hydroxy-3,6,7-trimethoxy-9-xanthenone

>  <PUBCHEM_IUPAC_NAME>
1-hydroxy-3,6,7-trimethoxyxanthen-9-one

>  <PUBCHEM_IUPAC_SYSTEMATIC_NAME>
3,6,7-trimethoxy-1-oxidanyl-xanthen-9-one

>  <PUBCHEM_IUPAC_TRADITIONAL_NAME>
1-hydroxy-3,6,7-trimethoxy-xanthone

>  <PUBCHEM_IUPAC_INCHI>
InChI=1S/C16H14O6/c1-19-8-4-10(17)15-14(5-8)22-11-7-13(21-3)12(20-2)6-9(11)16(15)18/h4-7,17H,1-3H3

>  <PUBCHEM_IUPAC_INCHIKEY>
YBXGACGRJWDKHC-UHFFFAOYSA-N

>  <PUBCHEM_XLOGP3_AA>
3.1

>  <PUBCHEM_EXACT_MASS>
302.079

>  <PUBCHEM_MOLECULAR_FORMULA>
C16H14O6

>  <PUBCHEM_MOLECULAR_WEIGHT>
302.282

>  <PUBCHEM_OPENEYE_CAN_SMILES>
COC1=CC(=C2C(=C1)OC3=CC(=C(C=C3C2=O)OC)OC)O

>  <PUBCHEM_OPENEYE_ISO_SMILES>
COC1=CC(=C2C(=C1)OC3=CC(=C(C=C3C2=O)OC)OC)O

>  <PUBCHEM_CACTVS_TPSA>
74.2

>  <PUBCHEM_MONOISOTOPIC_WEIGHT>
302.079

>  <PUBCHEM_TOTAL_CHARGE>
0

>  <PUBCHEM_HEAVY_ATOM_COUNT>
22

>  <PUBCHEM_ATOM_DEF_STEREO_COUNT>
0

>  <PUBCHEM_ATOM_UDEF_STEREO_COUNT>
0

>  <PUBCHEM_BOND_DEF_STEREO_COUNT>
0

>  <PUBCHEM_BOND_UDEF_STEREO_COUNT>
0

>  <PUBCHEM_ISOTOPIC_ATOM_COUNT>
0

>  <PUBCHEM_COMPONENT_COUNT>
1

>  <PUBCHEM_CACTVS_TAUTO_COUNT>
5

>  <PUBCHEM_COORDINATE_TYPE>
1
5
255

>  <PUBCHEM_BONDANNOTATIONS>
1  10  8
1  9  8
10  16  8
12  15  8
13  19  8
14  17  8
15  17  8
16  18  8
18  19  8
7  11  8
7  12  8
7  9  8
8  10  8
8  11  8
8  13  8
9  14  8

$$$$
