5318002
 OpenBabel06101807152D

 76 78  0  0  0  0  0  0  0  0999 V2000
    8.8575   -1.1537    0.0000 Fe  0  1  0  0  0 15  0  0  0  0  0  0
    9.7216   -1.6570    0.0000 Cl  0  5  0  0  0  0  0  0  0  0  0  0
    7.9909    5.2164    0.0000 O   0  0  0  0  0  0  0  0  0  0  0  0
    6.5959    4.1898    0.0000 O   0  0  0  0  0  0  0  0  0  0  0  0
    2.4934   -0.2001    0.0000 O   0  0  0  0  0  0  0  0  0  0  0  0
    3.5422    1.1784    0.0000 O   0  0  0  0  0  0  0  0  0  0  0  0
    8.8626    0.2098    0.0000 N   0  5  0  0  0  0  0  0  0  0  0  0
    8.8953   -2.4632    0.0000 N   0  5  0  0  0  0  0  0  0  0  0  0
    7.4280   -1.1267    0.0000 N   0  0  0  0  0  0  0  0  0  0  0  0
   10.3609   -1.1267    0.0000 N   0  0  0  0  0  0  0  0  0  0  0  0
    8.3741    1.7735    0.0000 C   0  0  0  0  0  0  0  0  0  0  0  0
    8.0799    0.8291    0.0000 C   0  0  0  0  0  0  0  0  0  0  0  0
    9.6779    0.8618    0.0000 C   0  0  0  0  0  0  0  0  0  0  0  0
    9.3512    1.7735    0.0000 C   0  0  0  0  0  0  0  0  0  0  0  0
    8.1126   -3.0826    0.0000 C   0  0  0  0  0  0  0  0  0  0  0  0
    7.7814    2.5789    0.0000 C   0  0  0  0  0  0  0  0  0  0  0  0
    9.6779   -3.0499    0.0000 C   0  0  0  0  0  0  0  0  0  0  0  0
    5.9297   -0.6382    0.0000 C   0  0  0  0  0  0  0  0  0  0  0  0
    6.8742   -0.3768    0.0000 C   0  0  0  0  0  0  0  0  0  0  0  0
    7.1356    0.5677    0.0000 C   0  0  0  0  0  0  0  0  0  0  0  0
    8.4067   -3.9943    0.0000 C   0  0  0  0  0  0  0  0  0  0  0  0
    5.9297   -1.6152    0.0000 C   0  0  0  0  0  0  0  0  0  0  0  0
    6.8742   -1.8767    0.0000 C   0  0  0  0  0  0  0  0  0  0  0  0
    9.3839   -3.9943    0.0000 C   0  0  0  0  0  0  0  0  0  0  0  0
   10.6223    0.5677    0.0000 C   0  0  0  0  0  0  0  0  0  0  0  0
    7.1682   -2.7884    0.0000 C   0  0  0  0  0  0  0  0  0  0  0  0
    5.1339   -0.0327    0.0000 C   0  0  0  0  0  0  0  0  0  0  0  0
    9.9268    2.5912    0.0000 C   0  0  0  0  0  0  0  0  0  0  0  0
   10.9148   -0.3441    0.0000 C   0  0  0  0  0  0  0  0  0  0  0  0
   10.6550   -2.7884    0.0000 C   0  0  0  0  0  0  0  0  0  0  0  0
   10.9475   -1.8440    0.0000 C   0  0  0  0  0  0  0  0  0  0  0  0
    8.1825    3.4950    0.0000 C   0  0  0  0  0  0  0  0  0  0  0  0
   11.8608   -1.5826    0.0000 C   0  0  0  0  0  0  0  0  0  0  0  0
   11.8608   -0.6056    0.0000 C   0  0  0  0  0  0  0  0  0  0  0  0
    7.8181   -4.8027    0.0000 C   0  0  0  0  0  0  0  0  0  0  0  0
    5.1338   -2.2207    0.0000 C   0  0  0  0  0  0  0  0  0  0  0  0
    4.2116   -0.4191    0.0000 C   0  0  0  0  0  0  0  0  0  0  0  0
    9.9766   -4.7997    0.0000 C   0  0  0  0  0  0  0  0  0  0  0  0
   12.6593   -2.1846    0.0000 C   0  0  0  0  0  0  0  0  0  0  0  0
    7.5898    4.3004    0.0000 C   0  0  0  0  0  0  0  0  0  0  0  0
   12.6565    0.0000    0.0000 C   0  0  0  0  0  0  0  0  0  0  0  0
    3.4157    0.1864    0.0000 C   0  0  0  0  0  0  0  0  0  0  0  0
    9.5756   -5.7157    0.0000 C   0  0  0  0  0  0  0  0  0  0  0  0
   13.5789   -0.3863    0.0000 C   0  0  0  0  0  0  0  0  0  0  0  0
    7.2652    2.9225    0.0000 H   0  0  0  0  0  0  0  0  0  0  0  0
    7.3534    2.1303    0.0000 H   0  0  0  0  0  0  0  0  0  0  0  0
    6.6936    1.0024    0.0000 H   0  0  0  0  0  0  0  0  0  0  0  0
   11.0389    1.0268    0.0000 H   0  0  0  0  0  0  0  0  0  0  0  0
    6.7320   -3.2290    0.0000 H   0  0  0  0  0  0  0  0  0  0  0  0
    5.5893    0.3880    0.0000 H   0  0  0  0  0  0  0  0  0  0  0  0
    4.7986    0.4888    0.0000 H   0  0  0  0  0  0  0  0  0  0  0  0
   10.4338    2.2344    0.0000 H   0  0  0  0  0  0  0  0  0  0  0  0
   10.2836    3.0982    0.0000 H   0  0  0  0  0  0  0  0  0  0  0  0
    9.4198    2.9481    0.0000 H   0  0  0  0  0  0  0  0  0  0  0  0
   11.0932   -3.2271    0.0000 H   0  0  0  0  0  0  0  0  0  0  0  0
    8.6986    3.1514    0.0000 H   0  0  0  0  0  0  0  0  0  0  0  0
    8.6105    3.9436    0.0000 H   0  0  0  0  0  0  0  0  0  0  0  0
    7.3168   -4.4378    0.0000 H   0  0  0  0  0  0  0  0  0  0  0  0
    7.4531   -5.3040    0.0000 H   0  0  0  0  0  0  0  0  0  0  0  0
    8.3193   -5.1677    0.0000 H   0  0  0  0  0  0  0  0  0  0  0  0
    4.7584   -1.7272    0.0000 H   0  0  0  0  0  0  0  0  0  0  0  0
    4.6404   -2.5961    0.0000 H   0  0  0  0  0  0  0  0  0  0  0  0
    5.5092   -2.7141    0.0000 H   0  0  0  0  0  0  0  0  0  0  0  0
    3.7562   -0.8399    0.0000 H   0  0  0  0  0  0  0  0  0  0  0  0
    4.5468   -0.9407    0.0000 H   0  0  0  0  0  0  0  0  0  0  0  0
   10.5928   -4.7311    0.0000 H   0  0  0  0  0  0  0  0  0  0  0  0
   12.2860   -2.6796    0.0000 H   0  0  0  0  0  0  0  0  0  0  0  0
   13.1543   -2.5578    0.0000 H   0  0  0  0  0  0  0  0  0  0  0  0
   13.0325   -1.6895    0.0000 H   0  0  0  0  0  0  0  0  0  0  0  0
   12.5780    0.6150    0.0000 H   0  0  0  0  0  0  0  0  0  0  0  0
    8.9594   -5.7844    0.0000 H   0  0  0  0  0  0  0  0  0  0  0  0
    9.9431   -6.2151    0.0000 H   0  0  0  0  0  0  0  0  0  0  0  0
   13.6574   -1.0013    0.0000 H   0  0  0  0  0  0  0  0  0  0  0  0
   14.0722   -0.0108    0.0000 H   0  0  0  0  0  0  0  0  0  0  0  0
    7.6235    5.7157    0.0000 H   0  0  0  0  0  0  0  0  0  0  0  0
    2.0000    0.1754    0.0000 H   0  0  0  0  0  0  0  0  0  0  0  0
  3 40  1  0  0  0  0
  3 75  1  0  0  0  0
  4 40  2  0  0  0  0
  5 42  1  0  0  0  0
  5 76  1  0  0  0  0
  6 42  2  0  0  0  0
  7 12  1  0  0  0  0
  7 13  1  0  0  0  0
  8 15  1  0  0  0  0
  8 17  1  0  0  0  0
  9 19  1  0  0  0  0
  9 23  2  0  0  0  0
 10 29  1  0  0  0  0
 10 31  2  0  0  0  0
 11 12  2  0  0  0  0
 11 14  1  0  0  0  0
 11 16  1  0  0  0  0
 12 20  1  0  0  0  0
 13 14  2  0  0  0  0
 13 25  1  0  0  0  0
 14 28  1  0  0  0  0
 15 21  1  0  0  0  0
 15 26  2  0  0  0  0
 16 32  1  0  0  0  0
 16 45  1  0  0  0  0
 16 46  1  0  0  0  0
 17 24  1  0  0  0  0
 17 30  2  0  0  0  0
 18 19  1  0  0  0  0
 18 22  2  0  0  0  0
 18 27  1  0  0  0  0
 19 20  2  0  0  0  0
 20 47  1  0  0  0  0
 21 24  2  0  0  0  0
 21 35  1  0  0  0  0
 22 23  1  0  0  0  0
 22 36  1  0  0  0  0
 23 26  1  0  0  0  0
 24 38  1  0  0  0  0
 25 29  2  0  0  0  0
 25 48  1  0  0  0  0
 26 49  1  0  0  0  0
 27 37  1  0  0  0  0
 27 50  1  0  0  0  0
 27 51  1  0  0  0  0
 28 52  1  0  0  0  0
 28 53  1  0  0  0  0
 28 54  1  0  0  0  0
 29 34  1  0  0  0  0
 30 31  1  0  0  0  0
 30 55  1  0  0  0  0
 31 33  1  0  0  0  0
 32 40  1  0  0  0  0
 32 56  1  0  0  0  0
 32 57  1  0  0  0  0
 33 34  2  0  0  0  0
 33 39  1  0  0  0  0
 34 41  1  0  0  0  0
 35 58  1  0  0  0  0
 35 59  1  0  0  0  0
 35 60  1  0  0  0  0
 36 61  1  0  0  0  0
 36 62  1  0  0  0  0
 36 63  1  0  0  0  0
 37 42  1  0  0  0  0
 37 64  1  0  0  0  0
 37 65  1  0  0  0  0
 38 43  2  0  0  0  0
 38 66  1  0  0  0  0
 39 67  1  0  0  0  0
 39 68  1  0  0  0  0
 39 69  1  0  0  0  0
 41 44  2  0  0  0  0
 41 70  1  0  0  0  0
 43 71  1  0  0  0  0
 43 72  1  0  0  0  0
 44 73  1  0  0  0  0
 44 74  1  0  0  0  0
M  CHG  4   1   3   2  -1   7  -1   8  -1
M  END
>  <PUBCHEM_COMPOUND_CID>
5318002

>  <PUBCHEM_COMPOUND_CANONICALIZED>
1

>  <PUBCHEM_CACTVS_COMPLEXITY>
1580

>  <PUBCHEM_CACTVS_HBOND_ACCEPTOR>
9

>  <PUBCHEM_CACTVS_HBOND_DONOR>
2

>  <PUBCHEM_CACTVS_ROTATABLE_BOND>
8

>  <PUBCHEM_CACTVS_SUBSKEYS>
AAADcfB/uAAEAAAgAAAAAAAAAAAAAWIECAAAAAAAAAAAAACBgAAAHgAACAAADAiBngACiJIIEgCoAyTyTACCgCAhAiAImCEwRJgIIHLAkJGEQAhkgADIyAeY2TOegAAAAAAAAAAAAAAAAAAAAAAAAAAAAA==

>  <PUBCHEM_IUPAC_OPENEYE_NAME>
ferric;3-[18-(2-carboxyethyl)-3,8,13,17-tetramethyl-7,12-divinyl-porphyrin-21,23-diid-2-yl]propanoic acid;chloride

>  <PUBCHEM_IUPAC_CAS_NAME>
3-[18-(2-carboxyethyl)-7,12-bis(ethenyl)-3,8,13,17-tetramethyl-2-porphyrin-21,23-diidyl]propanoic acid;iron(3+);chloride

>  <PUBCHEM_IUPAC_NAME>
3-[18-(2-carboxyethyl)-7,12-bis(ethenyl)-3,8,13,17-tetramethylporphyrin-21,23-diid-2-yl]propanoic acid;iron(3+);chloride

>  <PUBCHEM_IUPAC_SYSTEMATIC_NAME>
3-[7,12-bis(ethenyl)-18-(3-hydroxy-3-oxopropyl)-3,8,13,17-tetramethyl-porphyrin-21,23-diid-2-yl]propanoic acid;iron(3+);chloride

>  <PUBCHEM_IUPAC_TRADITIONAL_NAME>
ferric;3-[18-(2-carboxyethyl)-3,8,13,17-tetramethyl-7,12-divinyl-porphine-21,23-diid-2-yl]propionic acid;chloride

>  <PUBCHEM_IUPAC_INCHI>
InChI=1S/C34H34N4O4.ClH.Fe/c1-7-21-17(3)25-13-26-19(5)23(9-11-33(39)40)31(37-26)16-32-24(10-12-34(41)42)20(6)28(38-32)15-30-22(8-2)18(4)27(36-30)14-29(21)35-25;;/h7-8,13-16H,1-2,9-12H2,3-6H3,(H4,35,36,37,38,39,40,41,42);1H;/q;;+3/p-3

>  <PUBCHEM_IUPAC_INCHIKEY>
BTIJJDXEELBZFS-UHFFFAOYSA-K

>  <PUBCHEM_EXACT_MASS>
651.146

>  <PUBCHEM_MOLECULAR_FORMULA>
C34H32ClFeN4O4

>  <PUBCHEM_MOLECULAR_WEIGHT>
651.949

>  <PUBCHEM_OPENEYE_CAN_SMILES>
CC1=C(C2=CC3=NC(=CC4=C(C(=C([N-]4)C=C5C(=C(C(=N5)C=C1[N-]2)C)CCC(=O)O)CCC(=O)O)C)C(=C3C)C=C)C=C.[Cl-].[Fe+3]

>  <PUBCHEM_OPENEYE_ISO_SMILES>
CC1=C(C2=CC3=NC(=CC4=C(C(=C([N-]4)C=C5C(=C(C(=N5)C=C1[N-]2)C)CCC(=O)O)CCC(=O)O)C)C(=C3C)C=C)C=C.[Cl-].[Fe+3]

>  <PUBCHEM_CACTVS_TPSA>
101

>  <PUBCHEM_MONOISOTOPIC_WEIGHT>
651.146

>  <PUBCHEM_TOTAL_CHARGE>
0

>  <PUBCHEM_HEAVY_ATOM_COUNT>
44

>  <PUBCHEM_ATOM_DEF_STEREO_COUNT>
0

>  <PUBCHEM_ATOM_UDEF_STEREO_COUNT>
0

>  <PUBCHEM_BOND_DEF_STEREO_COUNT>
0

>  <PUBCHEM_BOND_UDEF_STEREO_COUNT>
0

>  <PUBCHEM_ISOTOPIC_ATOM_COUNT>
0

>  <PUBCHEM_COMPONENT_COUNT>
3

>  <PUBCHEM_CACTVS_TAUTO_COUNT>
3

>  <PUBCHEM_NONSTANDARDBOND>
1  7  6
1  8  6

>  <PUBCHEM_COORDINATE_TYPE>
1
5
255

>  <PUBCHEM_BONDANNOTATIONS>
10  29  8
10  31  8
11  12  8
11  14  8
12  20  8
13  14  8
13  25  8
15  21  8
15  26  8
17  24  8
17  30  8
19  20  8
21  24  8
23  26  8
25  29  8
30  31  8
7  12  8
7  13  8
8  15  8
8  17  8
9  19  8
9  23  8

$$$$
