5318556
 OpenBabel06101807152D

 24 24  0  0  0  0  0  0  0  0999 V2000
    3.3660   -2.7694    0.0000 O   0  0  0  0  0  0  0  0  0  0  0  0
    2.0000    0.2694    0.0000 O   0  0  0  0  0  0  0  0  0  0  0  0
    4.5981    1.7694    0.0000 C   0  0  0  0  0  0  0  0  0  0  0  0
    3.7320    1.2694    0.0000 C   0  0  0  0  0  0  0  0  0  0  0  0
    4.5981    2.7694    0.0000 C   0  0  0  0  0  0  0  0  0  0  0  0
    5.4641    1.2694    0.0000 C   0  0  0  0  0  0  0  0  0  0  0  0
    3.7320    0.2694    0.0000 C   0  0  0  0  0  0  0  0  0  0  0  0
    2.8660   -0.2306    0.0000 C   0  0  0  0  0  0  0  0  0  0  0  0
    2.8660   -1.2306    0.0000 C   0  0  0  0  0  0  0  0  0  0  0  0
    2.0570   -1.8184    0.0000 C   0  0  0  0  0  0  0  0  0  0  0  0
    3.6750   -1.8184    0.0000 C   0  0  0  0  0  0  0  0  0  0  0  0
    2.3660   -2.7694    0.0000 C   0  0  0  0  0  0  0  0  0  0  0  0
    4.5981    1.1494    0.0000 H   0  0  0  0  0  0  0  0  0  0  0  0
    3.1951    1.5794    0.0000 H   0  0  0  0  0  0  0  0  0  0  0  0
    5.2181    2.7694    0.0000 H   0  0  0  0  0  0  0  0  0  0  0  0
    4.5981    3.3894    0.0000 H   0  0  0  0  0  0  0  0  0  0  0  0
    3.9781    2.7694    0.0000 H   0  0  0  0  0  0  0  0  0  0  0  0
    5.1541    0.7325    0.0000 H   0  0  0  0  0  0  0  0  0  0  0  0
    6.0010    0.9594    0.0000 H   0  0  0  0  0  0  0  0  0  0  0  0
    5.7741    1.8064    0.0000 H   0  0  0  0  0  0  0  0  0  0  0  0
    4.2690   -0.0406    0.0000 H   0  0  0  0  0  0  0  0  0  0  0  0
    1.4674   -1.6268    0.0000 H   0  0  0  0  0  0  0  0  0  0  0  0
    4.2647   -1.6268    0.0000 H   0  0  0  0  0  0  0  0  0  0  0  0
    2.0016   -3.2710    0.0000 H   0  0  0  0  0  0  0  0  0  0  0  0
  1 11  1  0  0  0  0
  1 12  1  0  0  0  0
  2  8  2  0  0  0  0
  3  4  1  0  0  0  0
  3  5  1  0  0  0  0
  3  6  1  0  0  0  0
  3 13  1  0  0  0  0
  4  7  2  0  0  0  0
  4 14  1  0  0  0  0
  5 15  1  0  0  0  0
  5 16  1  0  0  0  0
  5 17  1  0  0  0  0
  6 18  1  0  0  0  0
  6 19  1  0  0  0  0
  6 20  1  0  0  0  0
  7  8  1  0  0  0  0
  7 21  1  0  0  0  0
  8  9  1  0  0  0  0
  9 10  1  0  0  0  0
  9 11  2  0  0  0  0
 10 12  2  0  0  0  0
 10 22  1  0  0  0  0
 11 23  1  0  0  0  0
 12 24  1  0  0  0  0
M  END
>  <PUBCHEM_COMPOUND_CID>
5318556

>  <PUBCHEM_COMPOUND_CANONICALIZED>
1

>  <PUBCHEM_CACTVS_COMPLEXITY>
182

>  <PUBCHEM_CACTVS_HBOND_ACCEPTOR>
2

>  <PUBCHEM_CACTVS_HBOND_DONOR>
0

>  <PUBCHEM_CACTVS_ROTATABLE_BOND>
3

>  <PUBCHEM_CACTVS_SUBSKEYS>
AAADccBwMAAAAAAAAAAAAAAAAAAAASAAAAAAAAAAAAAAAAABgAAAGgAAAAAADQSgmAIyBIAABECIAqhSgAACCAAkIAAIiAEGCMgMJhYMNQqCGWCk4BEIKYKLAAAKAAAAAAAAAAAAAAAAAAAAAAAAAAAAAA==

>  <PUBCHEM_IUPAC_OPENEYE_NAME>
(E)-1-(3-furyl)-4-methyl-pent-2-en-1-one

>  <PUBCHEM_IUPAC_CAS_NAME>
(E)-1-(3-furanyl)-4-methyl-2-penten-1-one

>  <PUBCHEM_IUPAC_NAME>
(E)-1-(furan-3-yl)-4-methylpent-2-en-1-one

>  <PUBCHEM_IUPAC_SYSTEMATIC_NAME>
(E)-1-(furan-3-yl)-4-methyl-pent-2-en-1-one

>  <PUBCHEM_IUPAC_TRADITIONAL_NAME>
(E)-1-(3-furyl)-4-methyl-pent-2-en-1-one

>  <PUBCHEM_IUPAC_INCHI>
InChI=1S/C10H12O2/c1-8(2)3-4-10(11)9-5-6-12-7-9/h3-8H,1-2H3/b4-3+

>  <PUBCHEM_IUPAC_INCHIKEY>
XEYCZVQIOJGCNL-ONEGZZNKSA-N

>  <PUBCHEM_XLOGP3_AA>
2.3

>  <PUBCHEM_EXACT_MASS>
164.084

>  <PUBCHEM_MOLECULAR_FORMULA>
C10H12O2

>  <PUBCHEM_MOLECULAR_WEIGHT>
164.204

>  <PUBCHEM_OPENEYE_CAN_SMILES>
CC(C)C=CC(=O)C1=COC=C1

>  <PUBCHEM_OPENEYE_ISO_SMILES>
CC(C)/C=C/C(=O)C1=COC=C1

>  <PUBCHEM_CACTVS_TPSA>
30.2

>  <PUBCHEM_MONOISOTOPIC_WEIGHT>
164.084

>  <PUBCHEM_TOTAL_CHARGE>
0

>  <PUBCHEM_HEAVY_ATOM_COUNT>
12

>  <PUBCHEM_ATOM_DEF_STEREO_COUNT>
0

>  <PUBCHEM_ATOM_UDEF_STEREO_COUNT>
0

>  <PUBCHEM_BOND_DEF_STEREO_COUNT>
1

>  <PUBCHEM_BOND_UDEF_STEREO_COUNT>
0

>  <PUBCHEM_ISOTOPIC_ATOM_COUNT>
0

>  <PUBCHEM_COMPONENT_COUNT>
1

>  <PUBCHEM_CACTVS_TAUTO_COUNT>
3

>  <PUBCHEM_COORDINATE_TYPE>
1
5
255

>  <PUBCHEM_BONDANNOTATIONS>
1  11  8
1  12  8
10  12  8
9  10  8
9  11  8

$$$$
