5318080
 OpenBabel06101807152D

 65 67  0  0  1  0  0  0  0  0999 V2000
    5.0403   -1.4527    0.0000 O   0  0  0  0  0  0  0  0  0  0  0  0
    4.7658    0.6898    0.0000 O   0  0  0  0  0  0  0  0  0  0  0  0
    6.3004   -3.2703    0.0000 O   0  0  0  0  0  0  0  0  0  0  0  0
    5.0132   -2.5272    0.0000 O   0  0  0  0  0  0  0  0  0  0  0  0
    3.7531   -0.2937    0.0000 O   0  0  0  0  0  0  0  0  0  0  0  0
    4.7457    2.4217    0.0000 O   0  0  0  0  0  0  0  0  0  0  0  0
    7.3004   -0.1926    0.0000 C   0  0  2  0  0  0  0  0  0  0  0  0
    6.3004   -0.1926    0.0000 C   0  0  1  0  0  0  0  0  0  0  0  0
    6.8004   -1.7315    0.0000 C   0  0  2  0  0  0  0  0  0  0  0  0
    7.6094   -1.1437    0.0000 C   0  0  0  0  0  0  0  0  0  0  0  0
    5.9914   -1.1437    0.0000 C   0  0  2  0  0  0  0  0  0  0  0  0
    7.8350    0.7013    0.0000 C   0  0  2  0  0  0  0  0  0  0  0  0
    5.7657    0.7013    0.0000 C   0  0  3  0  0  0  0  0  0  0  0  0
    7.3212    1.6074    0.0000 C   0  0  0  0  0  0  0  0  0  0  0  0
    6.2796    1.6074    0.0000 C   0  0  0  0  0  0  0  0  0  0  0  0
    8.3004   -0.1926    0.0000 C   0  0  0  0  0  0  0  0  0  0  0  0
    7.6094   -2.3192    0.0000 C   0  0  0  0  0  0  0  0  0  0  0  0
    5.9914   -2.3192    0.0000 C   0  0  0  0  0  0  0  0  0  0  0  0
    8.8350    0.6898    0.0000 C   0  0  0  0  0  0  0  0  0  0  0  0
    7.3004   -3.2703    0.0000 C   0  0  0  0  0  0  0  0  0  0  0  0
    8.5604   -2.0102    0.0000 C   0  0  0  0  0  0  0  0  0  0  0  0
    4.0622   -1.2447    0.0000 C   0  0  0  0  0  0  0  0  0  0  0  0
    4.2558    1.5499    0.0000 C   0  0  0  0  0  0  0  0  0  0  0  0
    3.3930   -1.9879    0.0000 C   0  0  0  0  0  0  0  0  0  0  0  0
    3.2559    1.5384    0.0000 C   0  0  0  0  0  0  0  0  0  0  0  0
    3.7021   -2.9390    0.0000 C   0  0  0  0  0  0  0  0  0  0  0  0
    2.4149   -1.7800    0.0000 C   0  0  0  0  0  0  0  0  0  0  0  0
    2.7659    0.6666    0.0000 C   0  0  0  0  0  0  0  0  0  0  0  0
    2.7459    2.3986    0.0000 C   0  0  0  0  0  0  0  0  0  0  0  0
    2.1059   -0.8289    0.0000 C   0  0  0  0  0  0  0  0  0  0  0  0
    3.2358    3.2703    0.0000 C   0  0  0  0  0  0  0  0  0  0  0  0
    5.4557   -0.2880    0.0000 H   0  0  0  0  0  0  0  0  0  0  0  0
    7.9194   -1.6806    0.0000 H   0  0  0  0  0  0  0  0  0  0  0  0
    8.1758   -0.8915    0.0000 H   0  0  0  0  0  0  0  0  0  0  0  0
    5.8944   -1.7560    0.0000 H   0  0  0  0  0  0  0  0  0  0  0  0
    8.1502    1.2352    0.0000 H   0  0  0  0  0  0  0  0  0  0  0  0
    5.3507   -0.0405    0.0000 H   0  0  0  0  0  0  0  0  0  0  0  0
    7.9049    1.8164    0.0000 H   0  0  0  0  0  0  0  0  0  0  0  0
    7.2151    2.2182    0.0000 H   0  0  0  0  0  0  0  0  0  0  0  0
    6.3856    2.2182    0.0000 H   0  0  0  0  0  0  0  0  0  0  0  0
    5.6959    1.8164    0.0000 H   0  0  0  0  0  0  0  0  0  0  0  0
    8.3004   -0.8126    0.0000 H   0  0  0  0  0  0  0  0  0  0  0  0
    8.9204   -0.1926    0.0000 H   0  0  0  0  0  0  0  0  0  0  0  0
    8.3004    0.4274    0.0000 H   0  0  0  0  0  0  0  0  0  0  0  0
    8.8278    0.0698    0.0000 H   0  0  0  0  0  0  0  0  0  0  0  0
    9.4549    0.6826    0.0000 H   0  0  0  0  0  0  0  0  0  0  0  0
    8.8421    1.3097    0.0000 H   0  0  0  0  0  0  0  0  0  0  0  0
    7.2356   -3.8869    0.0000 H   0  0  0  0  0  0  0  0  0  0  0  0
    7.9068   -3.3992    0.0000 H   0  0  0  0  0  0  0  0  0  0  0  0
    9.0212   -2.4251    0.0000 H   0  0  0  0  0  0  0  0  0  0  0  0
    8.6893   -1.4038    0.0000 H   0  0  0  0  0  0  0  0  0  0  0  0
    3.1124   -3.1306    0.0000 H   0  0  0  0  0  0  0  0  0  0  0  0
    3.8937   -3.5287    0.0000 H   0  0  0  0  0  0  0  0  0  0  0  0
    4.2917   -2.7474    0.0000 H   0  0  0  0  0  0  0  0  0  0  0  0
    2.0000   -2.2408    0.0000 H   0  0  0  0  0  0  0  0  0  0  0  0
    2.2254    0.9704    0.0000 H   0  0  0  0  0  0  0  0  0  0  0  0
    2.4621    0.1261    0.0000 H   0  0  0  0  0  0  0  0  0  0  0  0
    3.3064    0.3629    0.0000 H   0  0  0  0  0  0  0  0  0  0  0  0
    2.1259    2.3914    0.0000 H   0  0  0  0  0  0  0  0  0  0  0  0
    2.6955   -0.6373    0.0000 H   0  0  0  0  0  0  0  0  0  0  0  0
    1.9143   -0.2392    0.0000 H   0  0  0  0  0  0  0  0  0  0  0  0
    1.5162   -1.0205    0.0000 H   0  0  0  0  0  0  0  0  0  0  0  0
    3.7763    2.9665    0.0000 H   0  0  0  0  0  0  0  0  0  0  0  0
    3.5396    3.8108    0.0000 H   0  0  0  0  0  0  0  0  0  0  0  0
    2.6953    3.5741    0.0000 H   0  0  0  0  0  0  0  0  0  0  0  0
  1 22  1  0  0  0  0
  2 13  1  0  0  0  0
  2 23  1  0  0  0  0
  3 18  1  0  0  0  0
  3 20  1  0  0  0  0
  4 18  2  0  0  0  0
  5 22  2  0  0  0  0
  6 23  2  0  0  0  0
  7  8  1  6  0  0  0
  7 10  1  0  0  0  0
  7 16  1  0  0  0  0
  8 11  1  1  0  0  0
  8 13  1  0  0  0  0
  8 32  1  0  0  0  0
  9 10  1  0  0  0  0
  9 11  1  1  0  0  0
  9 17  1  0  0  0  0
  9 18  1  0  0  0  0
 10 33  1  0  0  0  0
 10 34  1  0  0  0  0
 11  1  1  0  0  0  0
 11 35  1  1  0  0  0
 12  7  1  1  0  0  0
 12 14  1  0  0  0  0
 12 19  1  0  0  0  0
 12 36  1  0  0  0  0
 13 15  1  0  0  0  0
 13 37  1  0  0  0  0
 14 15  1  0  0  0  0
 14 38  1  0  0  0  0
 14 39  1  0  0  0  0
 15 40  1  0  0  0  0
 15 41  1  0  0  0  0
 16 42  1  0  0  0  0
 16 43  1  0  0  0  0
 16 44  1  0  0  0  0
 17 20  1  0  0  0  0
 17 21  2  0  0  0  0
 19 45  1  0  0  0  0
 19 46  1  0  0  0  0
 19 47  1  0  0  0  0
 20 48  1  0  0  0  0
 20 49  1  0  0  0  0
 21 50  1  0  0  0  0
 21 51  1  0  0  0  0
 22 24  1  0  0  0  0
 23 25  1  0  0  0  0
 24 26  1  0  0  0  0
 24 27  2  0  0  0  0
 25 28  1  0  0  0  0
 25 29  2  0  0  0  0
 26 52  1  0  0  0  0
 26 53  1  0  0  0  0
 26 54  1  0  0  0  0
 27 30  1  0  0  0  0
 27 55  1  0  0  0  0
 28 56  1  0  0  0  0
 28 57  1  0  0  0  0
 28 58  1  0  0  0  0
 29 31  1  0  0  0  0
 29 59  1  0  0  0  0
 30 60  1  0  0  0  0
 30 61  1  0  0  0  0
 30 62  1  0  0  0  0
 31 63  1  0  0  0  0
 31 64  1  0  0  0  0
 31 65  1  0  0  0  0
M  END
>  <PUBCHEM_COMPOUND_CID>
5318080

>  <PUBCHEM_COMPOUND_CANONICALIZED>
1

>  <PUBCHEM_CACTVS_COMPLEXITY>
867

>  <PUBCHEM_CACTVS_HBOND_ACCEPTOR>
6

>  <PUBCHEM_CACTVS_HBOND_DONOR>
0

>  <PUBCHEM_CACTVS_ROTATABLE_BOND>
6

>  <PUBCHEM_CACTVS_SUBSKEYS>
AAADcfB4OAAAAAAAAAAAAAAAAAAAAaIAAAAwAAAAAAAAAGAAAAAAGgAAAAAADxSggAICCAAABACIAiDSCAAAAAAgAAAACAEAAEgABBYAIQACEAAF4AAAIYHK7PzPgAAAAAAAAABAAAYAADAAAYAADAAAAA==

>  <PUBCHEM_IUPAC_OPENEYE_NAME>
[(2R,3R,3aR,7S,7aR)-7,7a-dimethyl-3-[(Z)-2-methylbut-2-enoyl]oxy-4'-methylene-2'-oxo-spiro[3,3a,4,5,6,7-hexahydro-1H-indene-2,3'-tetrahydrofuran]-4-yl] (Z)-2-methylbut-2-enoate

>  <PUBCHEM_IUPAC_CAS_NAME>
(Z)-2-methyl-2-butenoic acid [(2R,3R,3aR,7S,7aR)-7,7a-dimethyl-4'-methylene-3-[(Z)-2-methyl-1-oxobut-2-enoxy]-2'-oxo-4-spiro[3,3a,4,5,6,7-hexahydro-1H-indene-2,3'-oxolane]yl] ester

>  <PUBCHEM_IUPAC_NAME>
[(2R,3R,3aR,7S,7aR)-7,7a-dimethyl-3-[(Z)-2-methylbut-2-enoyl]oxy-4'-methylidene-2'-oxospiro[3,3a,4,5,6,7-hexahydro-1H-indene-2,3'-oxolane]-4-yl] (Z)-2-methylbut-2-enoate

>  <PUBCHEM_IUPAC_SYSTEMATIC_NAME>
[(2R,3R,3aR,7S,7aR)-7,7a-dimethyl-3-[(Z)-2-methylbut-2-enoyl]oxy-4'-methylidene-2'-oxidanylidene-spiro[3,3a,4,5,6,7-hexahydro-1H-indene-2,3'-oxolane]-4-yl] (Z)-2-methylbut-2-enoate

>  <PUBCHEM_IUPAC_TRADITIONAL_NAME>
(Z)-2-methylbut-2-enoic acid [(2R,3R,3aR,7S,7aR)-2'-keto-7,7a-dimethyl-3-[(Z)-2-methylbut-2-enoyl]oxy-4'-methylene-spiro[3,3a,4,5,6,7-hexahydro-1H-indene-2,3'-tetrahydrofuran]-4-yl] ester

>  <PUBCHEM_IUPAC_INCHI>
InChI=1S/C25H34O6/c1-8-14(3)21(26)30-18-11-10-16(5)24(7)13-25(17(6)12-29-23(25)28)20(19(18)24)31-22(27)15(4)9-2/h8-9,16,18-20H,6,10-13H2,1-5,7H3/b14-8-,15-9-/t16-,18?,19+,20+,24+,25+/m0/s1

>  <PUBCHEM_IUPAC_INCHIKEY>
SRBBDMVRDLLMJD-FGWCDJEDSA-N

>  <PUBCHEM_XLOGP3_AA>
4.5

>  <PUBCHEM_EXACT_MASS>
430.236

>  <PUBCHEM_MOLECULAR_FORMULA>
C25H34O6

>  <PUBCHEM_MOLECULAR_WEIGHT>
430.541

>  <PUBCHEM_OPENEYE_CAN_SMILES>
CC=C(C)C(=O)OC1CCC(C2(C1C(C3(C2)C(=C)COC3=O)OC(=O)C(=CC)C)C)C

>  <PUBCHEM_OPENEYE_ISO_SMILES>
C/C=C(/C)\C(=O)O[C@@H]1[C@H]2C(CC[C@@H]([C@]2(C[C@@]13C(=C)COC3=O)C)C)OC(=O)/C(=C\C)/C

>  <PUBCHEM_CACTVS_TPSA>
78.9

>  <PUBCHEM_MONOISOTOPIC_WEIGHT>
430.236

>  <PUBCHEM_TOTAL_CHARGE>
0

>  <PUBCHEM_HEAVY_ATOM_COUNT>
31

>  <PUBCHEM_ATOM_DEF_STEREO_COUNT>
5

>  <PUBCHEM_ATOM_UDEF_STEREO_COUNT>
1

>  <PUBCHEM_BOND_DEF_STEREO_COUNT>
2

>  <PUBCHEM_BOND_UDEF_STEREO_COUNT>
0

>  <PUBCHEM_ISOTOPIC_ATOM_COUNT>
0

>  <PUBCHEM_COMPONENT_COUNT>
1

>  <PUBCHEM_CACTVS_TAUTO_COUNT>
1

>  <PUBCHEM_COORDINATE_TYPE>
1
5
255

>  <PUBCHEM_BONDANNOTATIONS>
11  1  6
12  19  6
13  37  3
7  16  6
8  32  6
9  10  6

$$$$
