5319886
 OpenBabel06101807152D

 95100  0  0  1  0  0  0  0  0999 V2000
    8.5991   -2.7500    0.0000 O   0  0  0  0  0  0  0  0  0  0  0  0
   10.3312   -2.7500    0.0000 O   0  0  0  0  0  0  0  0  0  0  0  0
   11.1972   -0.2500    0.0000 O   0  0  0  0  0  0  0  0  0  0  0  0
    6.8671   -1.7500    0.0000 O   0  0  0  0  0  0  0  0  0  0  0  0
    5.1350   -1.7500    0.0000 O   0  0  0  0  0  0  0  0  0  0  0  0
    6.8671   -4.7500    0.0000 O   0  0  0  0  0  0  0  0  0  0  0  0
    8.5991   -5.7500    0.0000 O   0  0  0  0  0  0  0  0  0  0  0  0
   10.3312   -4.7500    0.0000 O   0  0  0  0  0  0  0  0  0  0  0  0
   12.0632   -2.7500    0.0000 O   0  0  0  0  0  0  0  0  0  0  0  0
   13.7953   -1.7500    0.0000 O   0  0  0  0  0  0  0  0  0  0  0  0
   12.0632    1.2500    0.0000 O   0  0  0  0  0  0  0  0  0  0  0  0
    6.8671    0.2500    0.0000 O   0  0  0  0  0  0  0  0  0  0  0  0
   13.7953    0.2500    0.0000 O   0  0  0  0  0  0  0  0  0  0  0  0
    5.1350    1.2500    0.0000 O   0  0  0  0  0  0  0  0  0  0  0  0
    3.4030    0.2500    0.0000 O   0  0  0  0  0  0  0  0  0  0  0  0
    2.5369   -1.2500    0.0000 O   0  0  0  0  0  0  0  0  0  0  0  0
   10.3312    3.2500    0.0000 O   0  0  0  0  0  0  0  0  0  0  0  0
   10.3312    0.2500    0.0000 O   0  0  0  0  0  0  0  0  0  0  0  0
    8.5828    0.2154    0.0000 O   0  0  0  0  0  0  0  0  0  0  0  0
    6.8010    3.2742    0.0000 O   0  0  0  0  0  0  0  0  0  0  0  0
   12.9292    5.7500    0.0000 O   0  0  0  0  0  0  0  0  0  0  0  0
   14.6613    4.7500    0.0000 O   0  0  0  0  0  0  0  0  0  0  0  0
    7.7331   -3.2500    0.0000 C   0  0  1  0  0  0  0  0  0  0  0  0
    7.7331   -4.2500    0.0000 C   0  0  2  0  0  0  0  0  0  0  0  0
    8.5991   -4.7500    0.0000 C   0  0  1  0  0  0  0  0  0  0  0  0
    9.4651   -4.2500    0.0000 C   0  0  2  0  0  0  0  0  0  0  0  0
    9.4651   -3.2500    0.0000 C   0  0  1  0  0  0  0  0  0  0  0  0
   11.1972   -1.2500    0.0000 C   0  0  1  0  0  0  0  0  0  0  0  0
   12.0632   -1.7500    0.0000 C   0  0  2  0  0  0  0  0  0  0  0  0
   12.9292   -1.2500    0.0000 C   0  0  1  0  0  0  0  0  0  0  0  0
    6.8671   -2.7500    0.0000 C   0  0  0  0  0  0  0  0  0  0  0  0
    6.0010   -1.2500    0.0000 C   0  0  2  0  0  0  0  0  0  0  0  0
    6.0010   -0.2500    0.0000 C   0  0  1  0  0  0  0  0  0  0  0  0
   12.9292   -0.2500    0.0000 C   0  0  2  0  0  0  0  0  0  0  0  0
   10.3312   -1.7500    0.0000 C   0  0  0  0  0  0  0  0  0  0  0  0
    5.1350    0.2500    0.0000 C   0  0  2  0  0  0  0  0  0  0  0  0
    4.2690   -0.2500    0.0000 C   0  0  1  0  0  0  0  0  0  0  0  0
    4.2690   -1.2500    0.0000 C   0  0  1  0  0  0  0  0  0  0  0  0
   12.0632    0.2500    0.0000 C   0  0  1  0  0  0  0  0  0  0  0  0
    3.4030   -1.7500    0.0000 C   0  0  0  0  0  0  0  0  0  0  0  0
   11.1972    1.7500    0.0000 C   0  0  0  0  0  0  0  0  0  0  0  0
   11.1972    2.7500    0.0000 C   0  0  0  0  0  0  0  0  0  0  0  0
   10.3312    1.2500    0.0000 C   0  0  0  0  0  0  0  0  0  0  0  0
    9.4651    1.7500    0.0000 C   0  0  0  0  0  0  0  0  0  0  0  0
   12.0632    3.2500    0.0000 C   0  0  0  0  0  0  0  0  0  0  0  0
    9.4651    2.7500    0.0000 C   0  0  0  0  0  0  0  0  0  0  0  0
    8.5712    1.2153    0.0000 C   0  0  0  0  0  0  0  0  0  0  0  0
    8.5712    3.2847    0.0000 C   0  0  0  0  0  0  0  0  0  0  0  0
   12.0632    4.2500    0.0000 C   0  0  0  0  0  0  0  0  0  0  0  0
   12.9292    2.7500    0.0000 C   0  0  0  0  0  0  0  0  0  0  0  0
    7.6651    1.7292    0.0000 C   0  0  0  0  0  0  0  0  0  0  0  0
    7.6651    2.7708    0.0000 C   0  0  0  0  0  0  0  0  0  0  0  0
   12.9292    4.7500    0.0000 C   0  0  0  0  0  0  0  0  0  0  0  0
   13.7953    3.2500    0.0000 C   0  0  0  0  0  0  0  0  0  0  0  0
   13.7953    4.2500    0.0000 C   0  0  0  0  0  0  0  0  0  0  0  0
    7.7331   -2.6300    0.0000 H   0  0  0  0  0  0  0  0  0  0  0  0
    7.7331   -4.8700    0.0000 H   0  0  0  0  0  0  0  0  0  0  0  0
    9.1360   -5.0600    0.0000 H   0  0  0  0  0  0  0  0  0  0  0  0
   10.0021   -3.9400    0.0000 H   0  0  0  0  0  0  0  0  0  0  0  0
    9.4651   -2.6300    0.0000 H   0  0  0  0  0  0  0  0  0  0  0  0
   10.6603   -0.9400    0.0000 H   0  0  0  0  0  0  0  0  0  0  0  0
   12.6002   -2.0600    0.0000 H   0  0  0  0  0  0  0  0  0  0  0  0
   13.4662   -0.9400    0.0000 H   0  0  0  0  0  0  0  0  0  0  0  0
    6.2565   -2.6423    0.0000 H   0  0  0  0  0  0  0  0  0  0  0  0
    6.6550   -3.3326    0.0000 H   0  0  0  0  0  0  0  0  0  0  0  0
    6.5380   -0.9400    0.0000 H   0  0  0  0  0  0  0  0  0  0  0  0
    6.0010    0.3700    0.0000 H   0  0  0  0  0  0  0  0  0  0  0  0
   12.9292    0.3700    0.0000 H   0  0  0  0  0  0  0  0  0  0  0  0
   10.1191   -1.1674    0.0000 H   0  0  0  0  0  0  0  0  0  0  0  0
    9.7206   -1.8577    0.0000 H   0  0  0  0  0  0  0  0  0  0  0  0
    4.5981    0.5600    0.0000 H   0  0  0  0  0  0  0  0  0  0  0  0
    4.8311    0.3700    0.0000 H   0  0  0  0  0  0  0  0  0  0  0  0
    4.2690   -1.8700    0.0000 H   0  0  0  0  0  0  0  0  0  0  0  0
   11.5263    0.5600    0.0000 H   0  0  0  0  0  0  0  0  0  0  0  0
    6.3301   -4.4400    0.0000 H   0  0  0  0  0  0  0  0  0  0  0  0
    3.0044   -2.2250    0.0000 H   0  0  0  0  0  0  0  0  0  0  0  0
    3.8015   -2.2250    0.0000 H   0  0  0  0  0  0  0  0  0  0  0  0
    8.0622   -6.0600    0.0000 H   0  0  0  0  0  0  0  0  0  0  0  0
   10.8681   -4.4400    0.0000 H   0  0  0  0  0  0  0  0  0  0  0  0
   12.6002   -3.0600    0.0000 H   0  0  0  0  0  0  0  0  0  0  0  0
   13.7953   -2.3700    0.0000 H   0  0  0  0  0  0  0  0  0  0  0  0
    6.8671    0.8700    0.0000 H   0  0  0  0  0  0  0  0  0  0  0  0
   14.3322   -0.0600    0.0000 H   0  0  0  0  0  0  0  0  0  0  0  0
    4.5981    1.5600    0.0000 H   0  0  0  0  0  0  0  0  0  0  0  0
    3.4030    0.8700    0.0000 H   0  0  0  0  0  0  0  0  0  0  0  0
    2.0000   -1.5600    0.0000 H   0  0  0  0  0  0  0  0  0  0  0  0
    8.5784    3.9046    0.0000 H   0  0  0  0  0  0  0  0  0  0  0  0
   11.5263    4.5600    0.0000 H   0  0  0  0  0  0  0  0  0  0  0  0
   12.9292    2.1300    0.0000 H   0  0  0  0  0  0  0  0  0  0  0  0
    7.1294    1.4171    0.0000 H   0  0  0  0  0  0  0  0  0  0  0  0
   14.3322    2.9400    0.0000 H   0  0  0  0  0  0  0  0  0  0  0  0
    8.0494   -0.1008    0.0000 H   0  0  0  0  0  0  0  0  0  0  0  0
    6.2629    2.9662    0.0000 H   0  0  0  0  0  0  0  0  0  0  0  0
   12.3923    6.0600    0.0000 H   0  0  0  0  0  0  0  0  0  0  0  0
   14.6613    5.3700    0.0000 H   0  0  0  0  0  0  0  0  0  0  0  0
  1 23  1  0  0  0  0
  1 27  1  0  0  0  0
  2 35  1  0  0  0  0
  3 28  1  0  0  0  0
  3 39  1  0  0  0  0
  4 31  1  0  0  0  0
  5 32  1  0  0  0  0
  5 38  1  0  0  0  0
  6 75  1  0  0  0  0
  7 78  1  0  0  0  0
  8 79  1  0  0  0  0
  9 80  1  0  0  0  0
 10 81  1  0  0  0  0
 11 41  1  0  0  0  0
 12 82  1  0  0  0  0
 13 83  1  0  0  0  0
 14 84  1  0  0  0  0
 15 85  1  0  0  0  0
 16 40  1  0  0  0  0
 16 86  1  0  0  0  0
 17 42  1  0  0  0  0
 17 46  1  0  0  0  0
 18 43  2  0  0  0  0
 19 47  1  0  0  0  0
 19 92  1  0  0  0  0
 20 52  1  0  0  0  0
 20 93  1  0  0  0  0
 21 53  1  0  0  0  0
 21 94  1  0  0  0  0
 22 55  1  0  0  0  0
 22 95  1  0  0  0  0
 23 24  1  6  0  0  0
 23 31  1  0  0  0  0
 23 56  1  0  0  0  0
 24  6  1  0  0  0  0
 24 25  1  6  0  0  0
 24 57  1  0  0  0  0
 25  7  1  0  0  0  0
 25 26  1  1  0  0  0
 25 58  1  0  0  0  0
 26  8  1  0  0  0  0
 26 27  1  6  0  0  0
 26 59  1  0  0  0  0
 27  2  1  0  0  0  0
 27 60  1  6  0  0  0
 28 29  1  6  0  0  0
 28 35  1  0  0  0  0
 28 61  1  0  0  0  0
 29  9  1  0  0  0  0
 29 30  1  6  0  0  0
 29 62  1  0  0  0  0
 30 10  1  0  0  0  0
 30 34  1  1  0  0  0
 30 63  1  0  0  0  0
 31 64  1  0  0  0  0
 31 65  1  0  0  0  0
 32  4  1  0  0  0  0
 32 33  1  6  0  0  0
 32 66  1  0  0  0  0
 33 12  1  0  0  0  0
 33 36  1  1  0  0  0
 33 67  1  0  0  0  0
 34 13  1  0  0  0  0
 34 39  1  6  0  0  0
 34 68  1  0  0  0  0
 35 69  1  0  0  0  0
 35 70  1  0  0  0  0
 36 14  1  0  0  0  0
 36 37  1  6  0  0  0
 36 71  1  0  0  0  0
 37 15  1  0  0  0  0
 37 38  1  6  0  0  0
 37 72  1  0  0  0  0
 38 40  1  0  0  0  0
 38 73  1  1  0  0  0
 39 11  1  0  0  0  0
 39 74  1  6  0  0  0
 40 76  1  0  0  0  0
 40 77  1  0  0  0  0
 41 42  2  0  0  0  0
 41 43  1  0  0  0  0
 42 45  1  0  0  0  0
 43 44  1  0  0  0  0
 44 46  1  0  0  0  0
 44 47  2  0  0  0  0
 45 49  2  0  0  0  0
 45 50  1  0  0  0  0
 46 48  2  0  0  0  0
 47 51  1  0  0  0  0
 48 52  1  0  0  0  0
 48 87  1  0  0  0  0
 49 53  1  0  0  0  0
 49 88  1  0  0  0  0
 50 54  2  0  0  0  0
 50 89  1  0  0  0  0
 51 52  2  0  0  0  0
 51 90  1  0  0  0  0
 53 55  2  0  0  0  0
 54 55  1  0  0  0  0
 54 91  1  0  0  0  0
M  END
>  <PUBCHEM_COMPOUND_CID>
5319886

>  <PUBCHEM_COMPOUND_CANONICALIZED>
1

>  <PUBCHEM_CACTVS_COMPLEXITY>
1340

>  <PUBCHEM_CACTVS_HBOND_ACCEPTOR>
22

>  <PUBCHEM_CACTVS_HBOND_DONOR>
14

>  <PUBCHEM_CACTVS_ROTATABLE_BOND>
10

>  <PUBCHEM_CACTVS_SUBSKEYS>
AAADcfB8PgAAAAAAAAAAAAAAAAAAAAAAAAA0aJECAAAAAACBQAAAGgAACAAADBSwmAMwDoAABgCIAqBSAAICCAAkIAAIiAFGiMgdNzaGNR6ieWGl4BUPuQfI7LzOIAABCAAIQABAAAIQABCAAAAAAAAAAA==

>  <PUBCHEM_IUPAC_OPENEYE_NAME>
2-(3,4-dihydroxyphenyl)-5,7-dihydroxy-3-[(2S,3R,4S,5S,6R)-3,4,5-trihydroxy-6-[[(2R,3R,4S,5S,6R)-3,4,5-trihydroxy-6-[[(2R,3R,4S,5S,6R)-3,4,5-trihydroxy-6-(hydroxymethyl)tetrahydropyran-2-yl]oxymethyl]tetrahydropyran-2-yl]oxymethyl]tetrahydropyran-2-yl]oxy-chromen-4-one

>  <PUBCHEM_IUPAC_CAS_NAME>
2-(3,4-dihydroxyphenyl)-5,7-dihydroxy-3-[[(2S,3R,4S,5S,6R)-3,4,5-trihydroxy-6-[[(2R,3R,4S,5S,6R)-3,4,5-trihydroxy-6-[[(2R,3R,4S,5S,6R)-3,4,5-trihydroxy-6-(hydroxymethyl)-2-oxanyl]oxymethyl]-2-oxanyl]oxymethyl]-2-oxanyl]oxy]-1-benzopyran-4-one

>  <PUBCHEM_IUPAC_NAME>
2-(3,4-dihydroxyphenyl)-5,7-dihydroxy-3-[(2S,3R,4S,5S,6R)-3,4,5-trihydroxy-6-[[(2R,3R,4S,5S,6R)-3,4,5-trihydroxy-6-[[(2R,3R,4S,5S,6R)-3,4,5-trihydroxy-6-(hydroxymethyl)oxan-2-yl]oxymethyl]oxan-2-yl]oxymethyl]oxan-2-yl]oxychromen-4-one

>  <PUBCHEM_IUPAC_SYSTEMATIC_NAME>
2-[3,4-bis(oxidanyl)phenyl]-3-[(2S,3R,4S,5S,6R)-6-[[(2R,3R,4S,5S,6R)-6-[[(2R,3R,4S,5S,6R)-6-(hydroxymethyl)-3,4,5-tris(oxidanyl)oxan-2-yl]oxymethyl]-3,4,5-tris(oxidanyl)oxan-2-yl]oxymethyl]-3,4,5-tris(oxidanyl)oxan-2-yl]oxy-5,7-bis(oxidanyl)chromen-4-one

>  <PUBCHEM_IUPAC_TRADITIONAL_NAME>
2-(3,4-dihydroxyphenyl)-5,7-dihydroxy-3-[(2S,3R,4S,5S,6R)-3,4,5-trihydroxy-6-[[(2R,3R,4S,5S,6R)-3,4,5-trihydroxy-6-[[(2R,3R,4S,5S,6R)-3,4,5-trihydroxy-6-methylol-tetrahydropyran-2-yl]oxymethyl]tetrahydropyran-2-yl]oxymethyl]tetrahydropyran-2-yl]oxy-chromone

>  <PUBCHEM_IUPAC_INCHI>
InChI=1S/C33H40O22/c34-6-15-19(39)23(43)26(46)31(52-15)49-7-16-20(40)24(44)27(47)32(53-16)50-8-17-21(41)25(45)28(48)33(54-17)55-30-22(42)18-13(38)4-10(35)5-14(18)51-29(30)9-1-2-11(36)12(37)3-9/h1-5,15-17,19-21,23-28,31-41,43-48H,6-8H2/t15-,16-,17-,19-,20-,21-,23+,24+,25+,26-,27-,28-,31-,32-,33+/m1/s1

>  <PUBCHEM_IUPAC_INCHIKEY>
XXHSUYNZCSBPBG-GZIDCZEMSA-N

>  <PUBCHEM_XLOGP3_AA>
-3.9

>  <PUBCHEM_EXACT_MASS>
788.201

>  <PUBCHEM_MOLECULAR_FORMULA>
C33H40O22

>  <PUBCHEM_MOLECULAR_WEIGHT>
788.661

>  <PUBCHEM_OPENEYE_CAN_SMILES>
C1=CC(=C(C=C1C2=C(C(=O)C3=C(C=C(C=C3O2)O)O)OC4C(C(C(C(O4)COC5C(C(C(C(O5)COC6C(C(C(C(O6)CO)O)O)O)O)O)O)O)O)O)O)O

>  <PUBCHEM_OPENEYE_ISO_SMILES>
C1=CC(=C(C=C1C2=C(C(=O)C3=C(C=C(C=C3O2)O)O)O[C@H]4[C@@H]([C@H]([C@@H]([C@H](O4)CO[C@H]5[C@@H]([C@H]([C@@H]([C@H](O5)CO[C@H]6[C@@H]([C@H]([C@@H]([C@H](O6)CO)O)O)O)O)O)O)O)O)O)O)O

>  <PUBCHEM_CACTVS_TPSA>
365

>  <PUBCHEM_MONOISOTOPIC_WEIGHT>
788.201

>  <PUBCHEM_TOTAL_CHARGE>
0

>  <PUBCHEM_HEAVY_ATOM_COUNT>
55

>  <PUBCHEM_ATOM_DEF_STEREO_COUNT>
15

>  <PUBCHEM_ATOM_UDEF_STEREO_COUNT>
0

>  <PUBCHEM_BOND_DEF_STEREO_COUNT>
0

>  <PUBCHEM_BOND_UDEF_STEREO_COUNT>
0

>  <PUBCHEM_ISOTOPIC_ATOM_COUNT>
0

>  <PUBCHEM_COMPONENT_COUNT>
1

>  <PUBCHEM_CACTVS_TAUTO_COUNT>
162

>  <PUBCHEM_COORDINATE_TYPE>
1
5
255

>  <PUBCHEM_BONDANNOTATIONS>
30  10  5
39  11  5
33  12  5
34  13  6
36  14  6
37  15  5
17  42  8
17  46  8
27  2  5
23  31  5
28  35  5
38  40  6
32  4  6
41  42  8
41  43  8
43  44  8
44  46  8
44  47  8
45  49  8
45  50  8
46  48  8
47  51  8
48  52  8
49  53  8
50  54  8
51  52  8
53  55  8
54  55  8
24  6  6
25  7  5
26  8  6
29  9  6

$$$$
