5319565
 OpenBabel06101807152D

 31 34  0  0  0  0  0  0  0  0999 V2000
    6.1621   -1.1814    0.0000 O   0  0  0  0  0  0  0  0  0  0  0  0
    8.3061    0.8871    0.0000 O   0  0  0  0  0  0  0  0  0  0  0  0
    2.6726   -0.2772    0.0000 O   0  0  0  0  0  0  0  0  0  0  0  0
    7.0190    2.0460    0.0000 O   0  0  0  0  0  0  0  0  0  0  0  0
   10.9457   -1.4571    0.0000 O   0  0  0  0  0  0  0  0  0  0  0  0
    6.6589    0.3518    0.0000 C   0  0  0  0  0  0  0  0  0  0  0  0
    6.9679   -0.5992    0.0000 C   0  0  0  0  0  0  0  0  0  0  0  0
    5.6648    0.3492    0.0000 C   0  0  0  0  0  0  0  0  0  0  0  0
    7.9460   -0.8071    0.0000 C   0  0  0  0  0  0  0  0  0  0  0  0
    5.3584   -0.5964    0.0000 C   0  0  0  0  0  0  0  0  0  0  0  0
    8.6152   -0.0640    0.0000 C   0  0  0  0  0  0  0  0  0  0  0  0
    7.3280    1.0950    0.0000 C   0  0  0  0  0  0  0  0  0  0  0  0
    4.9832    1.1287    0.0000 C   0  0  0  0  0  0  0  0  0  0  0  0
    4.3492   -0.8282    0.0000 C   0  0  0  0  0  0  0  0  0  0  0  0
    8.2526   -1.8026    0.0000 C   0  0  0  0  0  0  0  0  0  0  0  0
    3.6498   -0.0647    0.0000 C   0  0  0  0  0  0  0  0  0  0  0  0
    3.9689    0.9204    0.0000 C   0  0  0  0  0  0  0  0  0  0  0  0
    9.6372   -0.2648    0.0000 C   0  0  0  0  0  0  0  0  0  0  0  0
    9.2698   -2.0271    0.0000 C   0  0  0  0  0  0  0  0  0  0  0  0
    9.9668   -1.2530    0.0000 C   0  0  0  0  0  0  0  0  0  0  0  0
    2.0000    0.4628    0.0000 C   0  0  0  0  0  0  0  0  0  0  0  0
    5.1811    1.7163    0.0000 H   0  0  0  0  0  0  0  0  0  0  0  0
    4.1650   -1.4202    0.0000 H   0  0  0  0  0  0  0  0  0  0  0  0
    7.8324   -2.2586    0.0000 H   0  0  0  0  0  0  0  0  0  0  0  0
    3.5554    1.3824    0.0000 H   0  0  0  0  0  0  0  0  0  0  0  0
   10.0467    0.2007    0.0000 H   0  0  0  0  0  0  0  0  0  0  0  0
    9.4591   -2.6174    0.0000 H   0  0  0  0  0  0  0  0  0  0  0  0
   11.1396   -2.0460    0.0000 H   0  0  0  0  0  0  0  0  0  0  0  0
    2.4588    0.8798    0.0000 H   0  0  0  0  0  0  0  0  0  0  0  0
    1.5830    0.9216    0.0000 H   0  0  0  0  0  0  0  0  0  0  0  0
    1.5412    0.0458    0.0000 H   0  0  0  0  0  0  0  0  0  0  0  0
  1  7  1  0  0  0  0
  1 10  1  0  0  0  0
  2 11  1  0  0  0  0
  2 12  1  0  0  0  0
  3 16  1  0  0  0  0
  3 21  1  0  0  0  0
  4 12  2  0  0  0  0
  5 20  1  0  0  0  0
  5 28  1  0  0  0  0
  6  7  2  0  0  0  0
  6  8  1  0  0  0  0
  6 12  1  0  0  0  0
  7  9  1  0  0  0  0
  8 10  2  0  0  0  0
  8 13  1  0  0  0  0
  9 11  2  0  0  0  0
  9 15  1  0  0  0  0
 10 14  1  0  0  0  0
 11 18  1  0  0  0  0
 13 17  2  0  0  0  0
 13 22  1  0  0  0  0
 14 16  2  0  0  0  0
 14 23  1  0  0  0  0
 15 19  2  0  0  0  0
 15 24  1  0  0  0  0
 16 17  1  0  0  0  0
 17 25  1  0  0  0  0
 18 20  2  0  0  0  0
 18 26  1  0  0  0  0
 19 20  1  0  0  0  0
 19 27  1  0  0  0  0
 21 29  1  0  0  0  0
 21 30  1  0  0  0  0
 21 31  1  0  0  0  0
M  END
>  <PUBCHEM_COMPOUND_CID>
5319565

>  <PUBCHEM_COMPOUND_CANONICALIZED>
1

>  <PUBCHEM_CACTVS_COMPLEXITY>
425

>  <PUBCHEM_CACTVS_HBOND_ACCEPTOR>
5

>  <PUBCHEM_CACTVS_HBOND_DONOR>
1

>  <PUBCHEM_CACTVS_ROTATABLE_BOND>
1

>  <PUBCHEM_CACTVS_SUBSKEYS>
AAADccB4OAAAAAAAAAAAAAAAAAAAASAAAAA0YIAAAAAAAEiR9AAAGgAACAAADASAmAIyDsAABkCIAqDSCAACCAAkIAAIiAEGCMgMJzaONRqCe2Cl4BUIuYfL7PzOoAAACAAIAABAAAAQABAAAAAAAAAAAA==

>  <PUBCHEM_IUPAC_OPENEYE_NAME>
3-hydroxy-9-methoxy-benzofuro[3,2-c]chromen-6-one

>  <PUBCHEM_IUPAC_CAS_NAME>
3-hydroxy-9-methoxy-6-benzofuro[3,2-c][1]benzopyranone

>  <PUBCHEM_IUPAC_NAME>
3-hydroxy-9-methoxy-[1]benzofuro[3,2-c]chromen-6-one

>  <PUBCHEM_IUPAC_SYSTEMATIC_NAME>
9-methoxy-3-oxidanyl-[1]benzofuro[3,2-c]chromen-6-one

>  <PUBCHEM_IUPAC_TRADITIONAL_NAME>
3-hydroxy-9-methoxy-benzofuro[3,2-c]chromen-6-one

>  <PUBCHEM_IUPAC_INCHI>
InChI=1S/C16H10O5/c1-19-9-3-5-10-13(7-9)20-15-11-4-2-8(17)6-12(11)21-16(18)14(10)15/h2-7,17H,1H3

>  <PUBCHEM_IUPAC_INCHIKEY>
HHEZPZWGHDOWCQ-UHFFFAOYSA-N

>  <PUBCHEM_XLOGP3_AA>
3.1

>  <PUBCHEM_EXACT_MASS>
282.053

>  <PUBCHEM_MOLECULAR_FORMULA>
C16H10O5

>  <PUBCHEM_MOLECULAR_WEIGHT>
282.251

>  <PUBCHEM_OPENEYE_CAN_SMILES>
COC1=CC2=C(C=C1)C3=C(O2)C4=C(C=C(C=C4)O)OC3=O

>  <PUBCHEM_OPENEYE_ISO_SMILES>
COC1=CC2=C(C=C1)C3=C(O2)C4=C(C=C(C=C4)O)OC3=O

>  <PUBCHEM_CACTVS_TPSA>
68.9

>  <PUBCHEM_MONOISOTOPIC_WEIGHT>
282.053

>  <PUBCHEM_TOTAL_CHARGE>
0

>  <PUBCHEM_HEAVY_ATOM_COUNT>
21

>  <PUBCHEM_ATOM_DEF_STEREO_COUNT>
0

>  <PUBCHEM_ATOM_UDEF_STEREO_COUNT>
0

>  <PUBCHEM_BOND_DEF_STEREO_COUNT>
0

>  <PUBCHEM_BOND_UDEF_STEREO_COUNT>
0

>  <PUBCHEM_ISOTOPIC_ATOM_COUNT>
0

>  <PUBCHEM_COMPONENT_COUNT>
1

>  <PUBCHEM_CACTVS_TAUTO_COUNT>
5

>  <PUBCHEM_COORDINATE_TYPE>
1
5
255

>  <PUBCHEM_BONDANNOTATIONS>
1  10  8
1  7  8
10  14  8
11  18  8
13  17  8
14  16  8
15  19  8
16  17  8
18  20  8
19  20  8
2  11  8
2  12  8
6  12  8
6  7  8
6  8  8
7  9  8
8  10  8
8  13  8
9  11  8
9  15  8

$$$$
