5319913
 OpenBabel06101807152D

 32 34  0  0  0  0  0  0  0  0999 V2000
    6.6498    2.0951    0.0000 O   0  0  0  0  0  0  0  0  0  0  0  0
    8.3780   -1.1604    0.0000 O   0  0  0  0  0  0  0  0  0  0  0  0
    7.0864   -2.3143    0.0000 O   0  0  0  0  0  0  0  0  0  0  0  0
    4.5274    1.4961    0.0000 N   0  0  0  0  0  0  0  0  0  0  0  0
    5.0274   -0.0427    0.0000 C   0  0  0  0  0  0  0  0  0  0  0  0
    5.3364    0.9083    0.0000 C   0  0  0  0  0  0  0  0  0  0  0  0
    4.0274   -0.0427    0.0000 C   0  0  0  0  0  0  0  0  0  0  0  0
    3.7183    0.9083    0.0000 C   0  0  0  0  0  0  0  0  0  0  0  0
    6.3518    1.1406    0.0000 C   0  0  0  0  0  0  0  0  0  0  0  0
    5.7123   -0.8275    0.0000 C   0  0  0  0  0  0  0  0  0  0  0  0
    6.7328   -0.6188    0.0000 C   0  0  0  0  0  0  0  0  0  0  0  0
    3.3424   -0.8275    0.0000 C   0  0  0  0  0  0  0  0  0  0  0  0
    7.0547    0.3719    0.0000 C   0  0  0  0  0  0  0  0  0  0  0  0
    2.7029    1.1406    0.0000 C   0  0  0  0  0  0  0  0  0  0  0  0
    2.3219   -0.6188    0.0000 C   0  0  0  0  0  0  0  0  0  0  0  0
    2.0000    0.3719    0.0000 C   0  0  0  0  0  0  0  0  0  0  0  0
    7.3991   -1.3645    0.0000 C   0  0  0  0  0  0  0  0  0  0  0  0
    7.6255    2.3143    0.0000 C   0  0  0  0  0  0  0  0  0  0  0  0
    9.0443   -1.9061    0.0000 C   0  0  0  0  0  0  0  0  0  0  0  0
    4.5274    2.1161    0.0000 H   0  0  0  0  0  0  0  0  0  0  0  0
    5.5139   -1.4149    0.0000 H   0  0  0  0  0  0  0  0  0  0  0  0
    3.5408   -1.4149    0.0000 H   0  0  0  0  0  0  0  0  0  0  0  0
    7.6607    0.5031    0.0000 H   0  0  0  0  0  0  0  0  0  0  0  0
    2.5182    1.7324    0.0000 H   0  0  0  0  0  0  0  0  0  0  0  0
    1.9088   -1.0811    0.0000 H   0  0  0  0  0  0  0  0  0  0  0  0
    1.3940    0.5031    0.0000 H   0  0  0  0  0  0  0  0  0  0  0  0
    7.7614    1.7094    0.0000 H   0  0  0  0  0  0  0  0  0  0  0  0
    8.2304    2.4502    0.0000 H   0  0  0  0  0  0  0  0  0  0  0  0
    7.4896    2.9193    0.0000 H   0  0  0  0  0  0  0  0  0  0  0  0
    8.5820   -2.3192    0.0000 H   0  0  0  0  0  0  0  0  0  0  0  0
    9.4574   -2.3684    0.0000 H   0  0  0  0  0  0  0  0  0  0  0  0
    9.5066   -1.4930    0.0000 H   0  0  0  0  0  0  0  0  0  0  0  0
  1  9  1  0  0  0  0
  1 18  1  0  0  0  0
  2 17  1  0  0  0  0
  2 19  1  0  0  0  0
  3 17  2  0  0  0  0
  4  6  1  0  0  0  0
  4  8  1  0  0  0  0
  4 20  1  0  0  0  0
  5  6  2  0  0  0  0
  5  7  1  0  0  0  0
  5 10  1  0  0  0  0
  6  9  1  0  0  0  0
  7  8  1  0  0  0  0
  7 12  2  0  0  0  0
  8 14  2  0  0  0  0
  9 13  2  0  0  0  0
 10 11  2  0  0  0  0
 10 21  1  0  0  0  0
 11 13  1  0  0  0  0
 11 17  1  0  0  0  0
 12 15  1  0  0  0  0
 12 22  1  0  0  0  0
 13 23  1  0  0  0  0
 14 16  1  0  0  0  0
 14 24  1  0  0  0  0
 15 16  2  0  0  0  0
 15 25  1  0  0  0  0
 16 26  1  0  0  0  0
 18 27  1  0  0  0  0
 18 28  1  0  0  0  0
 18 29  1  0  0  0  0
 19 30  1  0  0  0  0
 19 31  1  0  0  0  0
 19 32  1  0  0  0  0
M  END
>  <PUBCHEM_COMPOUND_CID>
5319913

>  <PUBCHEM_COMPOUND_CANONICALIZED>
1

>  <PUBCHEM_CACTVS_COMPLEXITY>
346

>  <PUBCHEM_CACTVS_HBOND_ACCEPTOR>
3

>  <PUBCHEM_CACTVS_HBOND_DONOR>
1

>  <PUBCHEM_CACTVS_ROTATABLE_BOND>
3

>  <PUBCHEM_CACTVS_SUBSKEYS>
AAADccByMAAAAAAAAAAAAAAAAAAAAWAAAAAwYAAAAAAAAFgB/AAAHgAQAAAADAyBngIyzvLJlACoAyTyTASCiCAlYiAImSE3bNgOJvLEtZuFMShk0BHY6Yfa2fOeiAADAAACEAAQAAYAAAQgAAAAAAAAAA==

>  <PUBCHEM_IUPAC_OPENEYE_NAME>
methyl 1-methoxy-9H-carbazole-3-carboxylate

>  <PUBCHEM_IUPAC_CAS_NAME>
1-methoxy-9H-carbazole-3-carboxylic acid methyl ester

>  <PUBCHEM_IUPAC_NAME>
methyl 1-methoxy-9H-carbazole-3-carboxylate

>  <PUBCHEM_IUPAC_SYSTEMATIC_NAME>
methyl 1-methoxy-9H-carbazole-3-carboxylate

>  <PUBCHEM_IUPAC_TRADITIONAL_NAME>
1-methoxy-9H-carbazole-3-carboxylic acid methyl ester

>  <PUBCHEM_IUPAC_INCHI>
InChI=1S/C15H13NO3/c1-18-13-8-9(15(17)19-2)7-11-10-5-3-4-6-12(10)16-14(11)13/h3-8,16H,1-2H3

>  <PUBCHEM_IUPAC_INCHIKEY>
GIKICDROPGNERQ-UHFFFAOYSA-N

>  <PUBCHEM_XLOGP3_AA>
3.2

>  <PUBCHEM_EXACT_MASS>
255.09

>  <PUBCHEM_MOLECULAR_FORMULA>
C15H13NO3

>  <PUBCHEM_MOLECULAR_WEIGHT>
255.273

>  <PUBCHEM_OPENEYE_CAN_SMILES>
COC1=C2C(=CC(=C1)C(=O)OC)C3=CC=CC=C3N2

>  <PUBCHEM_OPENEYE_ISO_SMILES>
COC1=C2C(=CC(=C1)C(=O)OC)C3=CC=CC=C3N2

>  <PUBCHEM_CACTVS_TPSA>
51.3

>  <PUBCHEM_MONOISOTOPIC_WEIGHT>
255.09

>  <PUBCHEM_TOTAL_CHARGE>
0

>  <PUBCHEM_HEAVY_ATOM_COUNT>
19

>  <PUBCHEM_ATOM_DEF_STEREO_COUNT>
0

>  <PUBCHEM_ATOM_UDEF_STEREO_COUNT>
0

>  <PUBCHEM_BOND_DEF_STEREO_COUNT>
0

>  <PUBCHEM_BOND_UDEF_STEREO_COUNT>
0

>  <PUBCHEM_ISOTOPIC_ATOM_COUNT>
0

>  <PUBCHEM_COMPONENT_COUNT>
1

>  <PUBCHEM_CACTVS_TAUTO_COUNT>
3

>  <PUBCHEM_COORDINATE_TYPE>
1
5
255

>  <PUBCHEM_BONDANNOTATIONS>
10  11  8
11  13  8
12  15  8
14  16  8
15  16  8
4  6  8
4  8  8
5  10  8
5  6  8
5  7  8
6  9  8
7  12  8
7  8  8
8  14  8
9  13  8

$$$$
