5319194
 OpenBabel06101807152D

 61 64  0  0  1  0  0  0  0  0999 V2000
   11.6065   -1.2097    0.0000 O   0  0  0  0  0  0  0  0  0  0  0  0
   12.8956    1.5565    0.0000 O   0  0  0  0  0  0  0  0  0  0  0  0
    9.7942   -2.4050    0.0000 O   0  0  0  0  0  0  0  0  0  0  0  0
   11.2493    2.0946    0.0000 O   0  0  0  0  0  0  0  0  0  0  0  0
   15.1901   -2.1370    0.0000 O   0  0  0  0  0  0  0  0  0  0  0  0
    7.1962    2.0950    0.0000 O   0  0  0  0  0  0  0  0  0  0  0  0
   16.1901   -0.4050    0.0000 O   0  0  0  0  0  0  0  0  0  0  0  0
    8.0622    0.5950    0.0000 O   0  0  0  0  0  0  0  0  0  0  0  0
    5.4641    0.0950    0.0000 O   0  0  0  0  0  0  0  0  0  0  0  0
    7.1962    0.0950    0.0000 O   0  0  0  0  0  0  0  0  0  0  0  0
    2.0000    2.0950    0.0000 O   0  0  0  0  0  0  0  0  0  0  0  0
    2.0000    0.0950    0.0000 O   0  0  0  0  0  0  0  0  0  0  0  0
   11.6065    0.3997    0.0000 C   0  0  3  0  0  0  0  0  0  0  0  0
   12.1901   -0.4050    0.0000 C   0  0  3  0  0  0  0  0  0  0  0  0
   10.6603    0.0950    0.0000 C   0  0  0  0  0  0  0  0  0  0  0  0
   10.6603   -0.9050    0.0000 C   0  0  0  0  0  0  0  0  0  0  0  0
   13.1901   -0.4050    0.0000 C   0  0  0  0  0  0  0  0  0  0  0  0
    9.7942    0.5950    0.0000 C   0  0  0  0  0  0  0  0  0  0  0  0
   11.9171    1.3502    0.0000 C   0  0  0  0  0  0  0  0  0  0  0  0
    9.7942   -1.4050    0.0000 C   0  0  0  0  0  0  0  0  0  0  0  0
    8.9282    0.0950    0.0000 C   0  0  0  0  0  0  0  0  0  0  0  0
   13.6901   -1.2710    0.0000 C   0  0  0  0  0  0  0  0  0  0  0  0
   13.6901    0.4610    0.0000 C   0  0  0  0  0  0  0  0  0  0  0  0
    8.9282   -0.9050    0.0000 C   0  0  0  0  0  0  0  0  0  0  0  0
    9.7942    1.5950    0.0000 C   0  0  0  0  0  0  0  0  0  0  0  0
   14.6901   -1.2710    0.0000 C   0  0  0  0  0  0  0  0  0  0  0  0
   14.6901    0.4610    0.0000 C   0  0  0  0  0  0  0  0  0  0  0  0
   15.1901   -0.4050    0.0000 C   0  0  0  0  0  0  0  0  0  0  0  0
    8.9282    2.0950    0.0000 C   0  0  0  0  0  0  0  0  0  0  0  0
    6.3301    1.5950    0.0000 C   0  0  3  0  0  0  0  0  0  0  0  0
    5.4641    2.0950    0.0000 C   0  0  0  0  0  0  0  0  0  0  0  0
    8.0622    1.5950    0.0000 C   0  0  0  0  0  0  0  0  0  0  0  0
    4.5981    1.5950    0.0000 C   0  0  0  0  0  0  0  0  0  0  0  0
    3.7320    2.0950    0.0000 C   0  0  0  0  0  0  0  0  0  0  0  0
    6.3301    0.5950    0.0000 C   0  0  0  0  0  0  0  0  0  0  0  0
    4.5981    0.5950    0.0000 C   0  0  0  0  0  0  0  0  0  0  0  0
    2.8660    1.5950    0.0000 C   0  0  0  0  0  0  0  0  0  0  0  0
    3.7320    0.0950    0.0000 C   0  0  0  0  0  0  0  0  0  0  0  0
    2.8660    0.5950    0.0000 C   0  0  0  0  0  0  0  0  0  0  0  0
   12.2190    0.4959    0.0000 H   0  0  0  0  0  0  0  0  0  0  0  0
   12.4718   -0.9573    0.0000 H   0  0  0  0  0  0  0  0  0  0  0  0
    8.3913    0.4050    0.0000 H   0  0  0  0  0  0  0  0  0  0  0  0
   13.3801   -1.8080    0.0000 H   0  0  0  0  0  0  0  0  0  0  0  0
   13.3801    0.9980    0.0000 H   0  0  0  0  0  0  0  0  0  0  0  0
    8.3913   -1.2150    0.0000 H   0  0  0  0  0  0  0  0  0  0  0  0
   10.3312    1.9050    0.0000 H   0  0  0  0  0  0  0  0  0  0  0  0
   15.0001    0.9980    0.0000 H   0  0  0  0  0  0  0  0  0  0  0  0
   13.0883    2.1458    0.0000 H   0  0  0  0  0  0  0  0  0  0  0  0
    9.2573   -2.7150    0.0000 H   0  0  0  0  0  0  0  0  0  0  0  0
    8.9282    2.7150    0.0000 H   0  0  0  0  0  0  0  0  0  0  0  0
    6.8671    1.2850    0.0000 H   0  0  0  0  0  0  0  0  0  0  0  0
    5.8626    2.5700    0.0000 H   0  0  0  0  0  0  0  0  0  0  0  0
    5.0656    2.5700    0.0000 H   0  0  0  0  0  0  0  0  0  0  0  0
   14.8801   -2.6740    0.0000 H   0  0  0  0  0  0  0  0  0  0  0  0
   16.5001    0.1319    0.0000 H   0  0  0  0  0  0  0  0  0  0  0  0
    3.7320    2.7150    0.0000 H   0  0  0  0  0  0  0  0  0  0  0  0
    5.1350    0.2850    0.0000 H   0  0  0  0  0  0  0  0  0  0  0  0
    3.7320   -0.5250    0.0000 H   0  0  0  0  0  0  0  0  0  0  0  0
    5.4641   -0.5250    0.0000 H   0  0  0  0  0  0  0  0  0  0  0  0
    2.0000    2.7150    0.0000 H   0  0  0  0  0  0  0  0  0  0  0  0
    2.0000   -0.5250    0.0000 H   0  0  0  0  0  0  0  0  0  0  0  0
  1 14  1  0  0  0  0
  1 16  1  0  0  0  0
  2 19  1  0  0  0  0
  2 48  1  0  0  0  0
  3 20  1  0  0  0  0
  3 49  1  0  0  0  0
  4 19  2  0  0  0  0
  5 26  1  0  0  0  0
  5 54  1  0  0  0  0
  6 30  1  0  0  0  0
  6 32  1  0  0  0  0
  7 28  1  0  0  0  0
  7 55  1  0  0  0  0
  8 32  2  0  0  0  0
  9 35  1  0  0  0  0
  9 59  1  0  0  0  0
 10 35  2  0  0  0  0
 11 37  1  0  0  0  0
 11 60  1  0  0  0  0
 12 39  1  0  0  0  0
 12 61  1  0  0  0  0
 13 14  1  0  0  0  0
 13 15  1  0  0  0  0
 13 19  1  0  0  0  0
 13 40  1  0  0  0  0
 14 17  1  0  0  0  0
 14 41  1  0  0  0  0
 15 16  1  0  0  0  0
 15 18  2  0  0  0  0
 16 20  2  0  0  0  0
 17 22  2  0  0  0  0
 17 23  1  0  0  0  0
 18 21  1  0  0  0  0
 18 25  1  0  0  0  0
 20 24  1  0  0  0  0
 21 24  2  0  0  0  0
 21 42  1  0  0  0  0
 22 26  1  0  0  0  0
 22 43  1  0  0  0  0
 23 27  2  0  0  0  0
 23 44  1  0  0  0  0
 24 45  1  0  0  0  0
 25 29  2  0  0  0  0
 25 46  1  0  0  0  0
 26 28  2  0  0  0  0
 27 28  1  0  0  0  0
 27 47  1  0  0  0  0
 29 32  1  0  0  0  0
 29 50  1  0  0  0  0
 30 31  1  0  0  0  0
 30 35  1  0  0  0  0
 30 51  1  0  0  0  0
 31 33  1  0  0  0  0
 31 52  1  0  0  0  0
 31 53  1  0  0  0  0
 33 34  2  0  0  0  0
 33 36  1  0  0  0  0
 34 37  1  0  0  0  0
 34 56  1  0  0  0  0
 36 38  2  0  0  0  0
 36 57  1  0  0  0  0
 37 39  2  0  0  0  0
 38 39  1  0  0  0  0
 38 58  1  0  0  0  0
M  END
>  <PUBCHEM_COMPOUND_CID>
5319194

>  <PUBCHEM_COMPOUND_CANONICALIZED>
1

>  <PUBCHEM_CACTVS_COMPLEXITY>
922

>  <PUBCHEM_CACTVS_HBOND_ACCEPTOR>
12

>  <PUBCHEM_CACTVS_HBOND_DONOR>
7

>  <PUBCHEM_CACTVS_ROTATABLE_BOND>
9

>  <PUBCHEM_CACTVS_SUBSKEYS>
AAADceB4PAAAAAAAAAAAAAAAAAAAASAAAAAwYMAAAAAAAEgBUAAAGgAACAAADRSgmAIwDoAABgCIAiDSCAICCAAgIAAIiAFGiMgNJjaGNR6CeCOl4BELuYfK7PzOoAABAAAYQABAAAIAADCAAAAAAAAAAA==

>  <PUBCHEM_IUPAC_OPENEYE_NAME>
4-[(Z)-3-[1-carboxy-2-(3,4-dihydroxyphenyl)ethoxy]-3-oxo-prop-1-enyl]-2-(3,4-dihydroxyphenyl)-7-hydroxy-2,3-dihydrobenzofuran-3-carboxylic acid

>  <PUBCHEM_IUPAC_CAS_NAME>
4-[(Z)-3-[1-carboxy-2-(3,4-dihydroxyphenyl)ethoxy]-3-oxoprop-1-enyl]-2-(3,4-dihydroxyphenyl)-7-hydroxy-2,3-dihydrobenzofuran-3-carboxylic acid

>  <PUBCHEM_IUPAC_NAME>
4-[(Z)-3-[1-carboxy-2-(3,4-dihydroxyphenyl)ethoxy]-3-oxoprop-1-enyl]-2-(3,4-dihydroxyphenyl)-7-hydroxy-2,3-dihydro-1-benzofuran-3-carboxylic acid

>  <PUBCHEM_IUPAC_SYSTEMATIC_NAME>
2-[3,4-bis(oxidanyl)phenyl]-4-[(Z)-3-[3-[3,4-bis(oxidanyl)phenyl]-1-oxidanyl-1-oxidanylidene-propan-2-yl]oxy-3-oxidanylidene-prop-1-enyl]-7-oxidanyl-2,3-dihydro-1-benzofuran-3-carboxylic acid

>  <PUBCHEM_IUPAC_TRADITIONAL_NAME>
4-[(Z)-3-[1-carboxy-2-(3,4-dihydroxyphenyl)ethoxy]-3-keto-prop-1-enyl]-2-(3,4-dihydroxyphenyl)-7-hydroxy-coumaran-3-carboxylic acid

>  <PUBCHEM_IUPAC_INCHI>
InChI=1S/C27H22O12/c28-15-5-1-12(9-18(15)31)10-20(26(34)35)38-21(33)8-4-13-2-7-17(30)25-22(13)23(27(36)37)24(39-25)14-3-6-16(29)19(32)11-14/h1-9,11,20,23-24,28-32H,10H2,(H,34,35)(H,36,37)/b8-4-

>  <PUBCHEM_IUPAC_INCHIKEY>
UJZQBMQZMKFSRV-YWEYNIOJSA-N

>  <PUBCHEM_XLOGP3_AA>
2.8

>  <PUBCHEM_EXACT_MASS>
538.111

>  <PUBCHEM_MOLECULAR_FORMULA>
C27H22O12

>  <PUBCHEM_MOLECULAR_WEIGHT>
538.461

>  <PUBCHEM_OPENEYE_CAN_SMILES>
C1=CC(=C(C=C1CC(C(=O)O)OC(=O)C=CC2=C3C(C(OC3=C(C=C2)O)C4=CC(=C(C=C4)O)O)C(=O)O)O)O

>  <PUBCHEM_OPENEYE_ISO_SMILES>
C1=CC(=C(C=C1CC(C(=O)O)OC(=O)/C=C\C2=C3C(C(OC3=C(C=C2)O)C4=CC(=C(C=C4)O)O)C(=O)O)O)O

>  <PUBCHEM_CACTVS_TPSA>
211

>  <PUBCHEM_MONOISOTOPIC_WEIGHT>
538.111

>  <PUBCHEM_TOTAL_CHARGE>
0

>  <PUBCHEM_HEAVY_ATOM_COUNT>
39

>  <PUBCHEM_ATOM_DEF_STEREO_COUNT>
0

>  <PUBCHEM_ATOM_UDEF_STEREO_COUNT>
3

>  <PUBCHEM_BOND_DEF_STEREO_COUNT>
1

>  <PUBCHEM_BOND_UDEF_STEREO_COUNT>
0

>  <PUBCHEM_ISOTOPIC_ATOM_COUNT>
0

>  <PUBCHEM_COMPONENT_COUNT>
1

>  <PUBCHEM_CACTVS_TAUTO_COUNT>
994

>  <PUBCHEM_COORDINATE_TYPE>
1
5
255

>  <PUBCHEM_BONDANNOTATIONS>
13  19  3
14  17  3
15  16  8
15  18  8
16  20  8
17  22  8
17  23  8
18  21  8
20  24  8
21  24  8
22  26  8
23  27  8
26  28  8
27  28  8
30  31  3
33  34  8
33  36  8
34  37  8
36  38  8
37  39  8
38  39  8

$$$$
