5319260
 OpenBabel06101807152D

 81 85  0  0  1  0  0  0  0  0999 V2000
    2.5381   -3.9520    0.0000 O   0  0  0  0  0  0  0  0  0  0  0  0
   11.4103    4.3696    0.0000 O   0  0  0  0  0  0  0  0  0  0  0  0
   10.1123    3.2228    0.0000 O   0  0  0  0  0  0  0  0  0  0  0  0
    6.0682   -1.9278    0.0000 C   0  0  3  0  0  0  0  0  0  0  0  0
    5.2022   -2.4278    0.0000 C   0  0  2  0  0  0  0  0  0  0  0  0
    5.2020   -1.4274    0.0000 C   0  0  0  0  0  0  0  0  0  0  0  0
    6.9343   -2.4278    0.0000 C   0  0  3  0  0  0  0  0  0  0  0  0
    5.2022   -3.4278    0.0000 C   0  0  3  0  0  0  0  0  0  0  0  0
    7.8443   -1.9210    0.0000 C   0  0  3  0  0  0  0  0  0  0  0  0
    6.0522   -0.8863    0.0000 C   0  0  0  0  0  0  0  0  0  0  0  0
    7.8523   -0.8794    0.0000 C   0  0  2  0  0  0  0  0  0  0  0  0
    4.3083   -1.8932    0.0000 C   0  0  0  0  0  0  0  0  0  0  0  0
    6.9343   -3.4278    0.0000 C   0  0  0  0  0  0  0  0  0  0  0  0
    6.0682   -3.9278    0.0000 C   0  0  0  0  0  0  0  0  0  0  0  0
    6.9502   -0.3586    0.0000 C   0  0  0  0  0  0  0  0  0  0  0  0
    4.3083   -3.9625    0.0000 C   0  0  0  0  0  0  0  0  0  0  0  0
    8.8403   -0.5696    0.0000 C   0  0  2  0  0  0  0  0  0  0  0  0
    8.8274   -2.2460    0.0000 C   0  0  0  0  0  0  0  0  0  0  0  0
    3.4022   -2.4070    0.0000 C   0  0  0  0  0  0  0  0  0  0  0  0
    3.4022   -3.4486    0.0000 C   0  0  2  0  0  0  0  0  0  0  0  0
    9.4418   -1.4125    0.0000 C   0  0  0  0  0  0  0  0  0  0  0  0
    7.8366   -2.9210    0.0000 C   0  0  0  0  0  0  0  0  0  0  0  0
    7.8600    0.1206    0.0000 C   0  0  0  0  0  0  0  0  0  0  0  0
    9.1583    0.3785    0.0000 C   0  0  3  0  0  0  0  0  0  0  0  0
    3.8183   -4.8342    0.0000 C   0  0  0  0  0  0  0  0  0  0  0  0
    4.8183   -4.8227    0.0000 C   0  0  0  0  0  0  0  0  0  0  0  0
   10.1384    0.5772    0.0000 C   0  0  0  0  0  0  0  0  0  0  0  0
    8.4962    1.1280    0.0000 C   0  0  0  0  0  0  0  0  0  0  0  0
   10.4564    1.5253    0.0000 C   0  0  0  0  0  0  0  0  0  0  0  0
   11.4364    1.7240    0.0000 C   0  0  0  0  0  0  0  0  0  0  0  0
   11.7544    2.6721    0.0000 C   0  0  0  0  0  0  0  0  0  0  0  0
   12.7345    2.8707    0.0000 C   0  0  0  0  0  0  0  0  0  0  0  0
   11.0923    3.4215    0.0000 C   0  0  0  0  0  0  0  0  0  0  0  0
    5.4141   -0.8448    0.0000 H   0  0  0  0  0  0  0  0  0  0  0  0
    4.5914   -1.3198    0.0000 H   0  0  0  0  0  0  0  0  0  0  0  0
    7.6671   -2.8585    0.0000 H   0  0  0  0  0  0  0  0  0  0  0  0
    5.2088   -4.2778    0.0000 H   0  0  0  0  0  0  0  0  0  0  0  0
    5.8342   -0.3059    0.0000 H   0  0  0  0  0  0  0  0  0  0  0  0
    5.4431   -1.0018    0.0000 H   0  0  0  0  0  0  0  0  0  0  0  0
    4.7129   -1.4234    0.0000 H   0  0  0  0  0  0  0  0  0  0  0  0
    3.9147   -1.4141    0.0000 H   0  0  0  0  0  0  0  0  0  0  0  0
    7.1463   -4.0104    0.0000 H   0  0  0  0  0  0  0  0  0  0  0  0
    7.5449   -3.3202    0.0000 H   0  0  0  0  0  0  0  0  0  0  0  0
    5.6697   -4.4028    0.0000 H   0  0  0  0  0  0  0  0  0  0  0  0
    6.4668   -4.4028    0.0000 H   0  0  0  0  0  0  0  0  0  0  0  0
    7.3475    0.1174    0.0000 H   0  0  0  0  0  0  0  0  0  0  0  0
    6.5493    0.1143    0.0000 H   0  0  0  0  0  0  0  0  0  0  0  0
    9.4536   -0.4781    0.0000 H   0  0  0  0  0  0  0  0  0  0  0  0
    8.5720   -2.8109    0.0000 H   0  0  0  0  0  0  0  0  0  0  0  0
    9.3624   -2.5593    0.0000 H   0  0  0  0  0  0  0  0  0  0  0  0
    3.1932   -1.8233    0.0000 H   0  0  0  0  0  0  0  0  0  0  0  0
    2.7914   -2.5131    0.0000 H   0  0  0  0  0  0  0  0  0  0  0  0
    2.8647   -3.1397    0.0000 H   0  0  0  0  0  0  0  0  0  0  0  0
    9.8994   -1.8307    0.0000 H   0  0  0  0  0  0  0  0  0  0  0  0
    9.9058   -1.0013    0.0000 H   0  0  0  0  0  0  0  0  0  0  0  0
    7.2166   -2.9162    0.0000 H   0  0  0  0  0  0  0  0  0  0  0  0
    7.8318   -3.5409    0.0000 H   0  0  0  0  0  0  0  0  0  0  0  0
    8.4566   -2.9257    0.0000 H   0  0  0  0  0  0  0  0  0  0  0  0
    8.4800    0.1158    0.0000 H   0  0  0  0  0  0  0  0  0  0  0  0
    7.8648    0.7406    0.0000 H   0  0  0  0  0  0  0  0  0  0  0  0
    7.2400    0.1254    0.0000 H   0  0  0  0  0  0  0  0  0  0  0  0
    9.4286    1.1844    0.0000 H   0  0  0  0  0  0  0  0  0  0  0  0
    3.2778   -4.5305    0.0000 H   0  0  0  0  0  0  0  0  0  0  0  0
    4.2850   -5.1389    0.0000 H   0  0  0  0  0  0  0  0  0  0  0  0
    5.1344   -5.3560    0.0000 H   0  0  0  0  0  0  0  0  0  0  0  0
    3.5146   -5.3747    0.0000 H   0  0  0  0  0  0  0  0  0  0  0  0
    4.3588   -5.1380    0.0000 H   0  0  0  0  0  0  0  0  0  0  0  0
    5.3516   -4.5065    0.0000 H   0  0  0  0  0  0  0  0  0  0  0  0
    2.0000   -3.6440    0.0000 H   0  0  0  0  0  0  0  0  0  0  0  0
   10.1542   -0.0426    0.0000 H   0  0  0  0  0  0  0  0  0  0  0  0
   10.7515    0.4851    0.0000 H   0  0  0  0  0  0  0  0  0  0  0  0
    8.9609    1.5385    0.0000 H   0  0  0  0  0  0  0  0  0  0  0  0
    8.0857    1.5926    0.0000 H   0  0  0  0  0  0  0  0  0  0  0  0
    8.0316    0.7175    0.0000 H   0  0  0  0  0  0  0  0  0  0  0  0
   10.4406    2.1451    0.0000 H   0  0  0  0  0  0  0  0  0  0  0  0
    9.8432    1.6174    0.0000 H   0  0  0  0  0  0  0  0  0  0  0  0
   11.8469    1.2593    0.0000 H   0  0  0  0  0  0  0  0  0  0  0  0
   12.8577    2.2631    0.0000 H   0  0  0  0  0  0  0  0  0  0  0  0
   13.3421    2.9939    0.0000 H   0  0  0  0  0  0  0  0  0  0  0  0
   12.6113    3.4784    0.0000 H   0  0  0  0  0  0  0  0  0  0  0  0
   10.9998    4.8342    0.0000 H   0  0  0  0  0  0  0  0  0  0  0  0
  1 69  1  0  0  0  0
  2 33  1  0  0  0  0
  2 81  1  0  0  0  0
  3 33  2  0  0  0  0
  4  6  1  0  0  0  0
  4  7  1  0  0  0  0
  4 10  1  0  0  0  0
  5  4  1  6  0  0  0
  5  6  1  0  0  0  0
  5  8  1  0  0  0  0
  5 12  1  0  0  0  0
  6 34  1  0  0  0  0
  6 35  1  0  0  0  0
  7  9  1  0  0  0  0
  7 13  1  0  0  0  0
  7 36  1  0  0  0  0
  8 14  1  0  0  0  0
  8 16  1  0  0  0  0
  8 37  1  0  0  0  0
  9 18  1  0  0  0  0
  9 22  1  0  0  0  0
 10 15  1  0  0  0  0
 10 38  1  0  0  0  0
 10 39  1  0  0  0  0
 11  9  1  1  0  0  0
 11 15  1  0  0  0  0
 11 23  1  0  0  0  0
 12 19  1  0  0  0  0
 12 40  1  0  0  0  0
 12 41  1  0  0  0  0
 13 14  1  0  0  0  0
 13 42  1  0  0  0  0
 13 43  1  0  0  0  0
 14 44  1  0  0  0  0
 14 45  1  0  0  0  0
 15 46  1  0  0  0  0
 15 47  1  0  0  0  0
 16 20  1  0  0  0  0
 16 25  1  0  0  0  0
 16 26  1  0  0  0  0
 17 11  1  6  0  0  0
 17 21  1  0  0  0  0
 17 24  1  0  0  0  0
 17 48  1  0  0  0  0
 18 21  1  0  0  0  0
 18 49  1  0  0  0  0
 18 50  1  0  0  0  0
 19 20  1  0  0  0  0
 19 51  1  0  0  0  0
 19 52  1  0  0  0  0
 20  1  1  0  0  0  0
 20 53  1  6  0  0  0
 21 54  1  0  0  0  0
 21 55  1  0  0  0  0
 22 56  1  0  0  0  0
 22 57  1  0  0  0  0
 22 58  1  0  0  0  0
 23 59  1  0  0  0  0
 23 60  1  0  0  0  0
 23 61  1  0  0  0  0
 24 27  1  0  0  0  0
 24 28  1  0  0  0  0
 24 62  1  0  0  0  0
 25 63  1  0  0  0  0
 25 66  1  0  0  0  0
 25 67  1  0  0  0  0
 26 64  1  0  0  0  0
 26 65  1  0  0  0  0
 26 68  1  0  0  0  0
 27 29  1  0  0  0  0
 27 70  1  0  0  0  0
 27 71  1  0  0  0  0
 28 72  1  0  0  0  0
 28 73  1  0  0  0  0
 28 74  1  0  0  0  0
 29 30  1  0  0  0  0
 29 75  1  0  0  0  0
 29 76  1  0  0  0  0
 30 31  2  0  0  0  0
 30 77  1  0  0  0  0
 31 32  1  0  0  0  0
 31 33  1  0  0  0  0
 32 78  1  0  0  0  0
 32 79  1  0  0  0  0
 32 80  1  0  0  0  0
M  END
>  <PUBCHEM_COMPOUND_CID>
5319260

>  <PUBCHEM_COMPOUND_CANONICALIZED>
1

>  <PUBCHEM_CACTVS_COMPLEXITY>
859

>  <PUBCHEM_CACTVS_HBOND_ACCEPTOR>
3

>  <PUBCHEM_CACTVS_HBOND_DONOR>
2

>  <PUBCHEM_CACTVS_ROTATABLE_BOND>
5

>  <PUBCHEM_CACTVS_SUBSKEYS>
AAADcfB4MAAAAAAAAAAAAAAAGAAAAYAAAAAwYMAABgAAAGDAAAAAGgAACAAADxSggAICCAAAAgCIAiDSCAAAAAAgAAAACAEAAEgAFAIAAQAAUAAEgAAIEYOAwPAPgAAAAAAAAADAAAYAADAAAQAACAAAAA==

>  <PUBCHEM_IUPAC_INCHI>
InChI=1S/C30H48O3/c1-19(8-7-9-20(2)25(32)33)21-12-14-28(6)23-11-10-22-26(3,4)24(31)13-15-29(22)18-30(23,29)17-16-27(21,28)5/h9,19,21-24,31H,7-8,10-18H2,1-6H3,(H,32,33)/b20-9-/t19?,21-,22?,23?,24+,27-,28?,29-,30?/m1/s1

>  <PUBCHEM_IUPAC_INCHIKEY>
CYHOTEDWAOHQLA-FBXNKIIPSA-N

>  <PUBCHEM_XLOGP3_AA>
8.5

>  <PUBCHEM_EXACT_MASS>
456.36

>  <PUBCHEM_MOLECULAR_FORMULA>
C30H48O3

>  <PUBCHEM_MOLECULAR_WEIGHT>
456.711

>  <PUBCHEM_OPENEYE_CAN_SMILES>
CC(CCC=C(C)C(=O)O)C1CCC2(C1(CCC34C2CCC5C3(C4)CCC(C5(C)C)O)C)C

>  <PUBCHEM_OPENEYE_ISO_SMILES>
CC(CC/C=C(/C)\C(=O)O)[C@H]1CCC2([C@@]1(CCC34C2CCC5[C@]3(C4)CC[C@@H](C5(C)C)O)C)C

>  <PUBCHEM_CACTVS_TPSA>
57.5

>  <PUBCHEM_MONOISOTOPIC_WEIGHT>
456.36

>  <PUBCHEM_TOTAL_CHARGE>
0

>  <PUBCHEM_HEAVY_ATOM_COUNT>
33

>  <PUBCHEM_ATOM_DEF_STEREO_COUNT>
4

>  <PUBCHEM_ATOM_UDEF_STEREO_COUNT>
5

>  <PUBCHEM_BOND_DEF_STEREO_COUNT>
1

>  <PUBCHEM_BOND_UDEF_STEREO_COUNT>
0

>  <PUBCHEM_ISOTOPIC_ATOM_COUNT>
0

>  <PUBCHEM_COMPONENT_COUNT>
1

>  <PUBCHEM_CACTVS_TAUTO_COUNT>
1

>  <PUBCHEM_COORDINATE_TYPE>
1
5
255

>  <PUBCHEM_BONDANNOTATIONS>
20  1  5
11  23  5
17  24  5
24  62  3
4  6  3
5  6  5
7  36  3
8  37  3
9  22  3

$$$$
