5319929
 OpenBabel06101807152D

 57 59  0  0  0  0  0  0  0  0999 V2000
    6.0812   -0.8047    0.0000 O   0  0  0  0  0  0  0  0  0  0  0  0
    9.6648   -1.7320    0.0000 O   0  0  0  0  0  0  0  0  0  0  0  0
    9.6648    1.7320    0.0000 O   0  0  0  0  0  0  0  0  0  0  0  0
    2.5369   -1.0000    0.0000 O   0  0  0  0  0  0  0  0  0  0  0  0
    7.6648   -0.0000    0.0000 C   0  0  0  0  0  0  0  0  0  0  0  0
    8.1648   -0.8660    0.0000 C   0  0  0  0  0  0  0  0  0  0  0  0
    8.1648    0.8660    0.0000 C   0  0  0  0  0  0  0  0  0  0  0  0
    6.6648   -0.0000    0.0000 C   0  0  0  0  0  0  0  0  0  0  0  0
    7.6648   -1.7320    0.0000 C   0  0  0  0  0  0  0  0  0  0  0  0
    7.6648    1.7320    0.0000 C   0  0  0  0  0  0  0  0  0  0  0  0
    9.1648   -0.8660    0.0000 C   0  0  0  0  0  0  0  0  0  0  0  0
    9.1648    0.8660    0.0000 C   0  0  0  0  0  0  0  0  0  0  0  0
    9.6648   -0.0000    0.0000 C   0  0  0  0  0  0  0  0  0  0  0  0
    6.0812    0.8047    0.0000 C   0  0  0  0  0  0  0  0  0  0  0  0
    5.1350    0.5000    0.0000 C   0  0  0  0  0  0  0  0  0  0  0  0
    5.1350   -0.5000    0.0000 C   0  0  0  0  0  0  0  0  0  0  0  0
    8.1648   -2.5981    0.0000 C   0  0  0  0  0  0  0  0  0  0  0  0
    8.1648    2.5981    0.0000 C   0  0  0  0  0  0  0  0  0  0  0  0
    4.2690    1.0000    0.0000 C   0  0  0  0  0  0  0  0  0  0  0  0
    4.2690   -1.0000    0.0000 C   0  0  0  0  0  0  0  0  0  0  0  0
    7.6648   -3.4641    0.0000 C   0  0  0  0  0  0  0  0  0  0  0  0
    7.6648    3.4641    0.0000 C   0  0  0  0  0  0  0  0  0  0  0  0
    3.4030   -0.5000    0.0000 C   0  0  0  0  0  0  0  0  0  0  0  0
    3.4030    0.5000    0.0000 C   0  0  0  0  0  0  0  0  0  0  0  0
    8.1648   -4.3301    0.0000 C   0  0  0  0  0  0  0  0  0  0  0  0
    6.6648   -3.4641    0.0000 C   0  0  0  0  0  0  0  0  0  0  0  0
    8.1648    4.3301    0.0000 C   0  0  0  0  0  0  0  0  0  0  0  0
    6.6648    3.4641    0.0000 C   0  0  0  0  0  0  0  0  0  0  0  0
   10.6648   -1.7320    0.0000 C   0  0  0  0  0  0  0  0  0  0  0  0
    7.1899   -1.3335    0.0000 H   0  0  0  0  0  0  0  0  0  0  0  0
    7.1899   -2.1306    0.0000 H   0  0  0  0  0  0  0  0  0  0  0  0
    7.1899    2.1306    0.0000 H   0  0  0  0  0  0  0  0  0  0  0  0
    7.1899    1.3335    0.0000 H   0  0  0  0  0  0  0  0  0  0  0  0
   10.2848   -0.0000    0.0000 H   0  0  0  0  0  0  0  0  0  0  0  0
    6.2738    1.3940    0.0000 H   0  0  0  0  0  0  0  0  0  0  0  0
    8.7848   -2.5981    0.0000 H   0  0  0  0  0  0  0  0  0  0  0  0
    8.7848    2.5981    0.0000 H   0  0  0  0  0  0  0  0  0  0  0  0
    4.2690    1.6200    0.0000 H   0  0  0  0  0  0  0  0  0  0  0  0
    4.2690   -1.6200    0.0000 H   0  0  0  0  0  0  0  0  0  0  0  0
    2.8660    0.8100    0.0000 H   0  0  0  0  0  0  0  0  0  0  0  0
   10.2848    1.7320    0.0000 H   0  0  0  0  0  0  0  0  0  0  0  0
    7.6279   -4.6401    0.0000 H   0  0  0  0  0  0  0  0  0  0  0  0
    8.4748   -4.8671    0.0000 H   0  0  0  0  0  0  0  0  0  0  0  0
    8.7018   -4.0201    0.0000 H   0  0  0  0  0  0  0  0  0  0  0  0
    6.6648   -2.8441    0.0000 H   0  0  0  0  0  0  0  0  0  0  0  0
    6.0448   -3.4641    0.0000 H   0  0  0  0  0  0  0  0  0  0  0  0
    6.6648   -4.0841    0.0000 H   0  0  0  0  0  0  0  0  0  0  0  0
    8.7018    4.0201    0.0000 H   0  0  0  0  0  0  0  0  0  0  0  0
    6.6648    4.0841    0.0000 H   0  0  0  0  0  0  0  0  0  0  0  0
    6.0448    3.4641    0.0000 H   0  0  0  0  0  0  0  0  0  0  0  0
    6.6648    2.8441    0.0000 H   0  0  0  0  0  0  0  0  0  0  0  0
    8.4748    4.8671    0.0000 H   0  0  0  0  0  0  0  0  0  0  0  0
    7.6279    4.6401    0.0000 H   0  0  0  0  0  0  0  0  0  0  0  0
   10.6648   -2.3521    0.0000 H   0  0  0  0  0  0  0  0  0  0  0  0
   11.2848   -1.7320    0.0000 H   0  0  0  0  0  0  0  0  0  0  0  0
   10.6648   -1.1120    0.0000 H   0  0  0  0  0  0  0  0  0  0  0  0
    2.0000   -0.6900    0.0000 H   0  0  0  0  0  0  0  0  0  0  0  0
  1  8  1  0  0  0  0
  1 16  1  0  0  0  0
  2 11  1  0  0  0  0
  2 29  1  0  0  0  0
  3 12  1  0  0  0  0
  3 41  1  0  0  0  0
  4 23  1  0  0  0  0
  4 57  1  0  0  0  0
  5  6  1  0  0  0  0
  5  7  2  0  0  0  0
  5  8  1  0  0  0  0
  6  9  1  0  0  0  0
  6 11  2  0  0  0  0
  7 10  1  0  0  0  0
  7 12  1  0  0  0  0
  8 14  2  0  0  0  0
  9 17  1  0  0  0  0
  9 30  1  0  0  0  0
  9 31  1  0  0  0  0
 10 18  1  0  0  0  0
 10 32  1  0  0  0  0
 10 33  1  0  0  0  0
 11 13  1  0  0  0  0
 12 13  2  0  0  0  0
 13 34  1  0  0  0  0
 14 15  1  0  0  0  0
 14 35  1  0  0  0  0
 15 16  2  0  0  0  0
 15 19  1  0  0  0  0
 16 20  1  0  0  0  0
 17 21  2  0  0  0  0
 17 36  1  0  0  0  0
 18 22  2  0  0  0  0
 18 37  1  0  0  0  0
 19 24  2  0  0  0  0
 19 38  1  0  0  0  0
 20 23  2  0  0  0  0
 20 39  1  0  0  0  0
 21 25  1  0  0  0  0
 21 26  1  0  0  0  0
 22 27  1  0  0  0  0
 22 28  1  0  0  0  0
 23 24  1  0  0  0  0
 24 40  1  0  0  0  0
 25 42  1  0  0  0  0
 25 43  1  0  0  0  0
 25 44  1  0  0  0  0
 26 45  1  0  0  0  0
 26 46  1  0  0  0  0
 26 47  1  0  0  0  0
 27 48  1  0  0  0  0
 27 52  1  0  0  0  0
 27 53  1  0  0  0  0
 28 49  1  0  0  0  0
 28 50  1  0  0  0  0
 28 51  1  0  0  0  0
 29 54  1  0  0  0  0
 29 55  1  0  0  0  0
 29 56  1  0  0  0  0
M  END
>  <PUBCHEM_COMPOUND_CID>
5319929

>  <PUBCHEM_COMPOUND_CANONICALIZED>
1

>  <PUBCHEM_CACTVS_COMPLEXITY>
590

>  <PUBCHEM_CACTVS_HBOND_ACCEPTOR>
4

>  <PUBCHEM_CACTVS_HBOND_DONOR>
2

>  <PUBCHEM_CACTVS_ROTATABLE_BOND>
6

>  <PUBCHEM_CACTVS_SUBSKEYS>
AAADceB4OAAAAAAAAAAAAAAAAAAAASAAAAAwYAAAAAAAAEgB9AAAGgAACAAADASAmAIyBsAABkCIAqBSAAACCAAkIAAIiAEGCMgMJzaGNRqCeWCl4BUIuYfK7PzOoAADCAAYAABAAAYQADAAAAAAAAAAAA==

>  <PUBCHEM_IUPAC_OPENEYE_NAME>
2-[3-hydroxy-5-methoxy-2,6-bis(3-methylbut-2-enyl)phenyl]benzofuran-6-ol

>  <PUBCHEM_IUPAC_CAS_NAME>
2-[3-hydroxy-5-methoxy-2,6-bis(3-methylbut-2-enyl)phenyl]-6-benzofuranol

>  <PUBCHEM_IUPAC_NAME>
2-[3-hydroxy-5-methoxy-2,6-bis(3-methylbut-2-enyl)phenyl]-1-benzofuran-6-ol

>  <PUBCHEM_IUPAC_SYSTEMATIC_NAME>
2-[3-methoxy-2,6-bis(3-methylbut-2-enyl)-5-oxidanyl-phenyl]-1-benzofuran-6-ol

>  <PUBCHEM_IUPAC_TRADITIONAL_NAME>
2-[3-hydroxy-5-methoxy-2,6-bis(3-methylbut-2-enyl)phenyl]benzofuran-6-ol

>  <PUBCHEM_IUPAC_INCHI>
InChI=1S/C25H28O4/c1-15(2)6-10-19-21(27)14-23(28-5)20(11-7-16(3)4)25(19)24-12-17-8-9-18(26)13-22(17)29-24/h6-9,12-14,26-27H,10-11H2,1-5H3

>  <PUBCHEM_IUPAC_INCHIKEY>
FQCIZSDZXMIYOY-UHFFFAOYSA-N

>  <PUBCHEM_XLOGP3_AA>
7.1

>  <PUBCHEM_EXACT_MASS>
392.199

>  <PUBCHEM_MOLECULAR_FORMULA>
C25H28O4

>  <PUBCHEM_MOLECULAR_WEIGHT>
392.495

>  <PUBCHEM_OPENEYE_CAN_SMILES>
CC(=CCC1=C(C(=C(C=C1O)OC)CC=C(C)C)C2=CC3=C(O2)C=C(C=C3)O)C

>  <PUBCHEM_OPENEYE_ISO_SMILES>
CC(=CCC1=C(C(=C(C=C1O)OC)CC=C(C)C)C2=CC3=C(O2)C=C(C=C3)O)C

>  <PUBCHEM_CACTVS_TPSA>
62.8

>  <PUBCHEM_MONOISOTOPIC_WEIGHT>
392.199

>  <PUBCHEM_TOTAL_CHARGE>
0

>  <PUBCHEM_HEAVY_ATOM_COUNT>
29

>  <PUBCHEM_ATOM_DEF_STEREO_COUNT>
0

>  <PUBCHEM_ATOM_UDEF_STEREO_COUNT>
0

>  <PUBCHEM_BOND_DEF_STEREO_COUNT>
0

>  <PUBCHEM_BOND_UDEF_STEREO_COUNT>
0

>  <PUBCHEM_ISOTOPIC_ATOM_COUNT>
0

>  <PUBCHEM_COMPONENT_COUNT>
1

>  <PUBCHEM_CACTVS_TAUTO_COUNT>
19

>  <PUBCHEM_COORDINATE_TYPE>
1
5
255

>  <PUBCHEM_BONDANNOTATIONS>
1  16  8
1  8  8
11  13  8
12  13  8
14  15  8
15  16  8
15  19  8
16  20  8
19  24  8
20  23  8
23  24  8
5  6  8
5  7  8
6  11  8
7  12  8
8  14  8

$$$$
