5319422
 OpenBabel06101807152D

 33 35  0  0  0  0  0  0  0  0999 V2000
    6.0682   -2.0427    0.0000 O   0  0  0  0  0  0  0  0  0  0  0  0
   10.3984   -0.5427    0.0000 O   0  0  0  0  0  0  0  0  0  0  0  0
    6.0682    0.9573    0.0000 O   0  0  0  0  0  0  0  0  0  0  0  0
   10.3984    1.4573    0.0000 O   0  0  0  0  0  0  0  0  0  0  0  0
    2.5381   -2.0668    0.0000 O   0  0  0  0  0  0  0  0  0  0  0  0
    6.9343   -0.5427    0.0000 C   0  0  0  0  0  0  0  0  0  0  0  0
    5.2022   -0.5427    0.0000 C   0  0  0  0  0  0  0  0  0  0  0  0
    7.8003   -0.0427    0.0000 C   0  0  0  0  0  0  0  0  0  0  0  0
    6.0682   -0.0427    0.0000 C   0  0  0  0  0  0  0  0  0  0  0  0
    5.2022   -1.5427    0.0000 C   0  0  0  0  0  0  0  0  0  0  0  0
    6.9343   -1.5427    0.0000 C   0  0  0  0  0  0  0  0  0  0  0  0
    8.6663   -0.5427    0.0000 C   0  0  0  0  0  0  0  0  0  0  0  0
    4.3083   -0.0080    0.0000 C   0  0  0  0  0  0  0  0  0  0  0  0
    7.8003    0.9573    0.0000 C   0  0  0  0  0  0  0  0  0  0  0  0
    4.3083   -2.0773    0.0000 C   0  0  0  0  0  0  0  0  0  0  0  0
    9.5323   -0.0427    0.0000 C   0  0  0  0  0  0  0  0  0  0  0  0
    8.6663    1.4573    0.0000 C   0  0  0  0  0  0  0  0  0  0  0  0
    3.4022   -1.5635    0.0000 C   0  0  0  0  0  0  0  0  0  0  0  0
    3.4022   -0.5219    0.0000 C   0  0  0  0  0  0  0  0  0  0  0  0
    9.5323    0.9573    0.0000 C   0  0  0  0  0  0  0  0  0  0  0  0
   10.3984   -1.5427    0.0000 C   0  0  0  0  0  0  0  0  0  0  0  0
    7.4712   -1.8527    0.0000 H   0  0  0  0  0  0  0  0  0  0  0  0
    8.6663   -1.1627    0.0000 H   0  0  0  0  0  0  0  0  0  0  0  0
    7.2634    1.2673    0.0000 H   0  0  0  0  0  0  0  0  0  0  0  0
    4.3154    0.6120    0.0000 H   0  0  0  0  0  0  0  0  0  0  0  0
    4.3154   -2.6973    0.0000 H   0  0  0  0  0  0  0  0  0  0  0  0
    8.6663    2.0773    0.0000 H   0  0  0  0  0  0  0  0  0  0  0  0
    2.8665   -0.2098    0.0000 H   0  0  0  0  0  0  0  0  0  0  0  0
   10.3984    2.0773    0.0000 H   0  0  0  0  0  0  0  0  0  0  0  0
    2.0000   -1.7589    0.0000 H   0  0  0  0  0  0  0  0  0  0  0  0
    9.7784   -1.5427    0.0000 H   0  0  0  0  0  0  0  0  0  0  0  0
   10.3984   -2.1627    0.0000 H   0  0  0  0  0  0  0  0  0  0  0  0
   11.0184   -1.5427    0.0000 H   0  0  0  0  0  0  0  0  0  0  0  0
  1 10  1  0  0  0  0
  1 11  1  0  0  0  0
  2 16  1  0  0  0  0
  2 21  1  0  0  0  0
  3  9  2  0  0  0  0
  4 20  1  0  0  0  0
  4 29  1  0  0  0  0
  5 18  1  0  0  0  0
  5 30  1  0  0  0  0
  6  8  1  0  0  0  0
  6  9  1  0  0  0  0
  6 11  2  0  0  0  0
  7  9  1  0  0  0  0
  7 10  2  0  0  0  0
  7 13  1  0  0  0  0
  8 12  2  0  0  0  0
  8 14  1  0  0  0  0
 10 15  1  0  0  0  0
 11 22  1  0  0  0  0
 12 16  1  0  0  0  0
 12 23  1  0  0  0  0
 13 19  2  0  0  0  0
 13 25  1  0  0  0  0
 14 17  2  0  0  0  0
 14 24  1  0  0  0  0
 15 18  2  0  0  0  0
 15 26  1  0  0  0  0
 16 20  2  0  0  0  0
 17 20  1  0  0  0  0
 17 27  1  0  0  0  0
 18 19  1  0  0  0  0
 19 28  1  0  0  0  0
 21 31  1  0  0  0  0
 21 32  1  0  0  0  0
 21 33  1  0  0  0  0
M  END
>  <PUBCHEM_COMPOUND_CID>
5319422

>  <PUBCHEM_COMPOUND_CANONICALIZED>
1

>  <PUBCHEM_CACTVS_COMPLEXITY>
432

>  <PUBCHEM_CACTVS_HBOND_ACCEPTOR>
5

>  <PUBCHEM_CACTVS_HBOND_DONOR>
2

>  <PUBCHEM_CACTVS_ROTATABLE_BOND>
2

>  <PUBCHEM_CACTVS_SUBSKEYS>
AAADccB4OAAAAAAAAAAAAAAAAAAAAAAAAAAwYIAAAAAAAACBQAAAGgAACAAADASgmAIyBoAABgCIAqBSAAACCAAkIAAIiAEGiMgNJzaGNRqAcWMl4BULuYeI7PzOIAABCAAIQABAAAIQABCAAAAAAAAAAA==

>  <PUBCHEM_IUPAC_OPENEYE_NAME>
7-hydroxy-3-(4-hydroxy-3-methoxy-phenyl)chromen-4-one

>  <PUBCHEM_IUPAC_CAS_NAME>
7-hydroxy-3-(4-hydroxy-3-methoxyphenyl)-1-benzopyran-4-one

>  <PUBCHEM_IUPAC_NAME>
7-hydroxy-3-(4-hydroxy-3-methoxyphenyl)chromen-4-one

>  <PUBCHEM_IUPAC_SYSTEMATIC_NAME>
3-(3-methoxy-4-oxidanyl-phenyl)-7-oxidanyl-chromen-4-one

>  <PUBCHEM_IUPAC_TRADITIONAL_NAME>
7-hydroxy-3-(4-hydroxy-3-methoxy-phenyl)chromone

>  <PUBCHEM_IUPAC_INCHI>
InChI=1S/C16H12O5/c1-20-15-6-9(2-5-13(15)18)12-8-21-14-7-10(17)3-4-11(14)16(12)19/h2-8,17-18H,1H3

>  <PUBCHEM_IUPAC_INCHIKEY>
MUYAUELJBWQNDH-UHFFFAOYSA-N

>  <PUBCHEM_XLOGP3_AA>
2.4

>  <PUBCHEM_EXACT_MASS>
284.068

>  <PUBCHEM_MOLECULAR_FORMULA>
C16H12O5

>  <PUBCHEM_MOLECULAR_WEIGHT>
284.267

>  <PUBCHEM_OPENEYE_CAN_SMILES>
COC1=C(C=CC(=C1)C2=COC3=C(C2=O)C=CC(=C3)O)O

>  <PUBCHEM_OPENEYE_ISO_SMILES>
COC1=C(C=CC(=C1)C2=COC3=C(C2=O)C=CC(=C3)O)O

>  <PUBCHEM_CACTVS_TPSA>
76

>  <PUBCHEM_MONOISOTOPIC_WEIGHT>
284.068

>  <PUBCHEM_TOTAL_CHARGE>
0

>  <PUBCHEM_HEAVY_ATOM_COUNT>
21

>  <PUBCHEM_ATOM_DEF_STEREO_COUNT>
0

>  <PUBCHEM_ATOM_UDEF_STEREO_COUNT>
0

>  <PUBCHEM_BOND_DEF_STEREO_COUNT>
0

>  <PUBCHEM_BOND_UDEF_STEREO_COUNT>
0

>  <PUBCHEM_ISOTOPIC_ATOM_COUNT>
0

>  <PUBCHEM_COMPONENT_COUNT>
1

>  <PUBCHEM_CACTVS_TAUTO_COUNT>
15

>  <PUBCHEM_COORDINATE_TYPE>
1
5
255

>  <PUBCHEM_BONDANNOTATIONS>
1  10  8
1  11  8
10  15  8
12  16  8
13  19  8
14  17  8
15  18  8
16  20  8
17  20  8
18  19  8
6  11  8
6  9  8
7  10  8
7  13  8
7  9  8
8  12  8
8  14  8

$$$$
