5319888
 OpenBabel06101807152D

 39 42  0  0  0  0  0  0  0  0999 V2000
    5.4920   -3.5571    0.0000 O   0  0  0  0  0  0  0  0  0  0  0  0
    2.9273    0.0612    0.0000 O   0  0  0  0  0  0  0  0  0  0  0  0
    2.0000   -3.5224    0.0000 O   0  0  0  0  0  0  0  0  0  0  0  0
    2.7320    3.6055    0.0000 O   0  0  0  0  0  0  0  0  0  0  0  0
    6.3981   -3.0432    0.0000 C   0  0  0  0  0  0  0  0  0  0  0  0
    4.5981   -2.0224    0.0000 C   0  0  0  0  0  0  0  0  0  0  0  0
    4.5981   -3.0224    0.0000 C   0  0  0  0  0  0  0  0  0  0  0  0
    6.3981   -2.0016    0.0000 C   0  0  0  0  0  0  0  0  0  0  0  0
    3.7320   -1.5224    0.0000 C   0  0  0  0  0  0  0  0  0  0  0  0
    5.4920   -1.4878    0.0000 C   0  0  0  0  0  0  0  0  0  0  0  0
    7.3981   -3.0471    0.0000 C   0  0  0  0  0  0  0  0  0  0  0  0
    6.8947   -3.9112    0.0000 C   0  0  0  0  0  0  0  0  0  0  0  0
    3.7320   -0.5224    0.0000 C   0  0  0  0  0  0  0  0  0  0  0  0
    3.7320   -3.5224    0.0000 C   0  0  0  0  0  0  0  0  0  0  0  0
    2.8660   -2.0224    0.0000 C   0  0  0  0  0  0  0  0  0  0  0  0
    2.8660   -3.0224    0.0000 C   0  0  0  0  0  0  0  0  0  0  0  0
    4.5368    0.0612    0.0000 C   0  0  0  0  0  0  0  0  0  0  0  0
    4.2320    1.0074    0.0000 C   0  0  0  0  0  0  0  0  0  0  0  0
    3.2320    1.0074    0.0000 C   0  0  0  0  0  0  0  0  0  0  0  0
    4.7320    1.8734    0.0000 C   0  0  0  0  0  0  0  0  0  0  0  0
    2.7320    1.8734    0.0000 C   0  0  0  0  0  0  0  0  0  0  0  0
    3.2320    2.7395    0.0000 C   0  0  0  0  0  0  0  0  0  0  0  0
    4.2320    2.7395    0.0000 C   0  0  0  0  0  0  0  0  0  0  0  0
    6.9338   -1.6895    0.0000 H   0  0  0  0  0  0  0  0  0  0  0  0
    5.4848   -0.8678    0.0000 H   0  0  0  0  0  0  0  0  0  0  0  0
    7.3957   -3.6671    0.0000 H   0  0  0  0  0  0  0  0  0  0  0  0
    8.0181   -3.0495    0.0000 H   0  0  0  0  0  0  0  0  0  0  0  0
    6.3566   -4.2191    0.0000 H   0  0  0  0  0  0  0  0  0  0  0  0
    7.2027   -4.4493    0.0000 H   0  0  0  0  0  0  0  0  0  0  0  0
    7.4329   -3.6032    0.0000 H   0  0  0  0  0  0  0  0  0  0  0  0
    7.4005   -2.4271    0.0000 H   0  0  0  0  0  0  0  0  0  0  0  0
    3.7320   -4.1424    0.0000 H   0  0  0  0  0  0  0  0  0  0  0  0
    2.3291   -1.7124    0.0000 H   0  0  0  0  0  0  0  0  0  0  0  0
    5.1261   -0.1314    0.0000 H   0  0  0  0  0  0  0  0  0  0  0  0
    5.3520    1.8734    0.0000 H   0  0  0  0  0  0  0  0  0  0  0  0
    2.1120    1.8734    0.0000 H   0  0  0  0  0  0  0  0  0  0  0  0
    4.5420    3.2764    0.0000 H   0  0  0  0  0  0  0  0  0  0  0  0
    2.0000   -4.1424    0.0000 H   0  0  0  0  0  0  0  0  0  0  0  0
    3.0420    4.1424    0.0000 H   0  0  0  0  0  0  0  0  0  0  0  0
  1  5  1  0  0  0  0
  1  7  1  0  0  0  0
  2 13  1  0  0  0  0
  2 19  1  0  0  0  0
  3 16  1  0  0  0  0
  3 38  1  0  0  0  0
  4 22  1  0  0  0  0
  4 39  1  0  0  0  0
  5  8  1  0  0  0  0
  5 11  1  0  0  0  0
  5 12  1  0  0  0  0
  6  7  1  0  0  0  0
  6  9  2  0  0  0  0
  6 10  1  0  0  0  0
  7 14  2  0  0  0  0
  8 10  2  0  0  0  0
  8 24  1  0  0  0  0
  9 13  1  0  0  0  0
  9 15  1  0  0  0  0
 10 25  1  0  0  0  0
 11 26  1  0  0  0  0
 11 27  1  0  0  0  0
 11 31  1  0  0  0  0
 12 28  1  0  0  0  0
 12 29  1  0  0  0  0
 12 30  1  0  0  0  0
 13 17  2  0  0  0  0
 14 16  1  0  0  0  0
 14 32  1  0  0  0  0
 15 16  2  0  0  0  0
 15 33  1  0  0  0  0
 17 18  1  0  0  0  0
 17 34  1  0  0  0  0
 18 19  2  0  0  0  0
 18 20  1  0  0  0  0
 19 21  1  0  0  0  0
 20 23  2  0  0  0  0
 20 35  1  0  0  0  0
 21 22  2  0  0  0  0
 21 36  1  0  0  0  0
 22 23  1  0  0  0  0
 23 37  1  0  0  0  0
M  END
>  <PUBCHEM_COMPOUND_CID>
5319888

>  <PUBCHEM_COMPOUND_CANONICALIZED>
1

>  <PUBCHEM_CACTVS_COMPLEXITY>
474

>  <PUBCHEM_CACTVS_HBOND_ACCEPTOR>
4

>  <PUBCHEM_CACTVS_HBOND_DONOR>
2

>  <PUBCHEM_CACTVS_ROTATABLE_BOND>
1

>  <PUBCHEM_CACTVS_SUBSKEYS>
AAADceB4OAAAAAAAAAAAAAAAAAAAASAAAAAwYIAAAAAAAEiB9AAAGgAACAAADESAmAAyBsAABkCIAqBSAAACCAAkIAAIiAEGCMgMJzaGNRqCeWCl4BUIuYfK7PzOoAABCAAYAABAAAIQADAAAAAAAAAAAA==

>  <PUBCHEM_IUPAC_OPENEYE_NAME>
5-(6-hydroxybenzofuran-2-yl)-2,2-dimethyl-chromen-7-ol

>  <PUBCHEM_IUPAC_CAS_NAME>
5-(6-hydroxy-2-benzofuranyl)-2,2-dimethyl-1-benzopyran-7-ol

>  <PUBCHEM_IUPAC_NAME>
5-(6-hydroxy-1-benzofuran-2-yl)-2,2-dimethylchromen-7-ol

>  <PUBCHEM_IUPAC_SYSTEMATIC_NAME>
2,2-dimethyl-5-(6-oxidanyl-1-benzofuran-2-yl)chromen-7-ol

>  <PUBCHEM_IUPAC_TRADITIONAL_NAME>
5-(6-hydroxybenzofuran-2-yl)-2,2-dimethyl-chromen-7-ol

>  <PUBCHEM_IUPAC_INCHI>
InChI=1S/C19H16O4/c1-19(2)6-5-14-15(8-13(21)10-18(14)23-19)17-7-11-3-4-12(20)9-16(11)22-17/h3-10,20-21H,1-2H3

>  <PUBCHEM_IUPAC_INCHIKEY>
GDSYWTBPYYYLLE-UHFFFAOYSA-N

>  <PUBCHEM_XLOGP3_AA>
4.2

>  <PUBCHEM_EXACT_MASS>
308.105

>  <PUBCHEM_MOLECULAR_FORMULA>
C19H16O4

>  <PUBCHEM_MOLECULAR_WEIGHT>
308.333

>  <PUBCHEM_OPENEYE_CAN_SMILES>
CC1(C=CC2=C(O1)C=C(C=C2C3=CC4=C(O3)C=C(C=C4)O)O)C

>  <PUBCHEM_OPENEYE_ISO_SMILES>
CC1(C=CC2=C(O1)C=C(C=C2C3=CC4=C(O3)C=C(C=C4)O)O)C

>  <PUBCHEM_CACTVS_TPSA>
62.8

>  <PUBCHEM_MONOISOTOPIC_WEIGHT>
308.105

>  <PUBCHEM_TOTAL_CHARGE>
0

>  <PUBCHEM_HEAVY_ATOM_COUNT>
23

>  <PUBCHEM_ATOM_DEF_STEREO_COUNT>
0

>  <PUBCHEM_ATOM_UDEF_STEREO_COUNT>
0

>  <PUBCHEM_BOND_DEF_STEREO_COUNT>
0

>  <PUBCHEM_BOND_UDEF_STEREO_COUNT>
0

>  <PUBCHEM_ISOTOPIC_ATOM_COUNT>
0

>  <PUBCHEM_COMPONENT_COUNT>
1

>  <PUBCHEM_CACTVS_TAUTO_COUNT>
25

>  <PUBCHEM_COORDINATE_TYPE>
1
5
255

>  <PUBCHEM_BONDANNOTATIONS>
13  17  8
14  16  8
15  16  8
17  18  8
18  19  8
18  20  8
19  21  8
2  13  8
2  19  8
20  23  8
21  22  8
22  23  8
6  7  8
6  9  8
7  14  8
9  15  8

$$$$
