5319609
 OpenBabel06101807152D

 51 55  0  0  1  0  0  0  0  0999 V2000
    4.2690   -1.3182    0.0000 O   0  0  0  0  0  0  0  0  0  0  0  0
    6.0010   -1.3182    0.0000 O   0  0  0  0  0  0  0  0  0  0  0  0
    4.2690   -4.3182    0.0000 O   0  0  0  0  0  0  0  0  0  0  0  0
    2.5369   -3.3182    0.0000 O   0  0  0  0  0  0  0  0  0  0  0  0
    6.0010   -3.3182    0.0000 O   0  0  0  0  0  0  0  0  0  0  0  0
    7.7252   -0.3341    0.0000 O   0  0  0  0  0  0  0  0  0  0  0  0
    6.8697    3.2416    0.0000 O   0  0  0  0  0  0  0  0  0  0  0  0
    4.2794   -0.3383    0.0000 O   0  0  0  0  0  0  0  0  0  0  0  0
    8.6837    4.1627    0.0000 O   0  0  0  0  0  0  0  0  0  0  0  0
    9.4572   -0.3469    0.0000 O   0  0  0  0  0  0  0  0  0  0  0  0
    5.0995    3.2306    0.0000 O   0  0  0  0  0  0  0  0  0  0  0  0
   10.3654    3.1157    0.0000 O   0  0  0  0  0  0  0  0  0  0  0  0
    4.2690   -3.3182    0.0000 C   0  0  2  0  0  0  0  0  0  0  0  0
    3.4030   -2.8182    0.0000 C   0  0  2  0  0  0  0  0  0  0  0  0
    5.1350   -2.8182    0.0000 C   0  0  2  0  0  0  0  0  0  0  0  0
    3.4030   -1.8182    0.0000 C   0  0  2  0  0  0  0  0  0  0  0  0
    5.1350   -1.8182    0.0000 C   0  0  1  0  0  0  0  0  0  0  0  0
    2.5369   -1.3182    0.0000 C   0  0  0  0  0  0  0  0  0  0  0  0
    6.0010   -0.3182    0.0000 C   0  0  0  0  0  0  0  0  0  0  0  0
    6.8703    1.1723    0.0000 C   0  0  0  0  0  0  0  0  0  0  0  0
    6.8629    0.1723    0.0000 C   0  0  0  0  0  0  0  0  0  0  0  0
    7.7400    1.6659    0.0000 C   0  0  0  0  0  0  0  0  0  0  0  0
    5.9641    1.6859    0.0000 C   0  0  0  0  0  0  0  0  0  0  0  0
    5.1392    0.1723    0.0000 C   0  0  0  0  0  0  0  0  0  0  0  0
    8.6023    1.1595    0.0000 C   0  0  0  0  0  0  0  0  0  0  0  0
    7.7638    2.7072    0.0000 C   0  0  0  0  0  0  0  0  0  0  0  0
    5.1209    1.1639    0.0000 C   0  0  0  0  0  0  0  0  0  0  0  0
    8.5949    0.1595    0.0000 C   0  0  0  0  0  0  0  0  0  0  0  0
    5.9638    2.7275    0.0000 C   0  0  0  0  0  0  0  0  0  0  0  0
    8.6443    3.1635    0.0000 C   0  0  0  0  0  0  0  0  0  0  0  0
    9.4654    1.6479    0.0000 C   0  0  0  0  0  0  0  0  0  0  0  0
    9.4862    2.6394    0.0000 C   0  0  0  0  0  0  0  0  0  0  0  0
    9.5687    4.6282    0.0000 C   0  0  0  0  0  0  0  0  0  0  0  0
    4.8059   -3.6282    0.0000 H   0  0  0  0  0  0  0  0  0  0  0  0
    3.4030   -3.4382    0.0000 H   0  0  0  0  0  0  0  0  0  0  0  0
    5.6720   -2.5082    0.0000 H   0  0  0  0  0  0  0  0  0  0  0  0
    3.4030   -1.1982    0.0000 H   0  0  0  0  0  0  0  0  0  0  0  0
    5.1350   -1.1982    0.0000 H   0  0  0  0  0  0  0  0  0  0  0  0
    2.8469   -0.7813    0.0000 H   0  0  0  0  0  0  0  0  0  0  0  0
    2.0000   -1.0082    0.0000 H   0  0  0  0  0  0  0  0  0  0  0  0
    2.2269   -1.8552    0.0000 H   0  0  0  0  0  0  0  0  0  0  0  0
    3.7320   -4.6282    0.0000 H   0  0  0  0  0  0  0  0  0  0  0  0
    2.0000   -3.0082    0.0000 H   0  0  0  0  0  0  0  0  0  0  0  0
    6.0010   -3.9382    0.0000 H   0  0  0  0  0  0  0  0  0  0  0  0
    4.5765    1.4606    0.0000 H   0  0  0  0  0  0  0  0  0  0  0  0
    9.9977    1.3300    0.0000 H   0  0  0  0  0  0  0  0  0  0  0  0
    3.7386   -0.0349    0.0000 H   0  0  0  0  0  0  0  0  0  0  0  0
   10.8938    2.7913    0.0000 H   0  0  0  0  0  0  0  0  0  0  0  0
    9.8573    4.0795    0.0000 H   0  0  0  0  0  0  0  0  0  0  0  0
   10.1174    4.9168    0.0000 H   0  0  0  0  0  0  0  0  0  0  0  0
    9.2801    5.1770    0.0000 H   0  0  0  0  0  0  0  0  0  0  0  0
  1 16  1  0  0  0  0
  1 17  1  0  0  0  0
  2 19  1  0  0  0  0
  3 42  1  0  0  0  0
  4 43  1  0  0  0  0
  5 44  1  0  0  0  0
  6 21  1  0  0  0  0
  6 28  1  0  0  0  0
  7 26  1  0  0  0  0
  7 29  1  0  0  0  0
  8 24  1  0  0  0  0
  8 47  1  0  0  0  0
  9 30  1  0  0  0  0
  9 33  1  0  0  0  0
 10 28  2  0  0  0  0
 11 29  2  0  0  0  0
 12 32  1  0  0  0  0
 12 48  1  0  0  0  0
 13  3  1  0  0  0  0
 13 14  1  1  0  0  0
 13 34  1  0  0  0  0
 14  4  1  0  0  0  0
 14 16  1  6  0  0  0
 14 35  1  0  0  0  0
 15  5  1  0  0  0  0
 15 13  1  1  0  0  0
 15 36  1  0  0  0  0
 16 18  1  0  0  0  0
 16 37  1  1  0  0  0
 17  2  1  0  0  0  0
 17 15  1  6  0  0  0
 17 38  1  0  0  0  0
 18 39  1  0  0  0  0
 18 40  1  0  0  0  0
 18 41  1  0  0  0  0
 19 21  1  0  0  0  0
 19 24  2  0  0  0  0
 20 21  2  0  0  0  0
 20 22  1  0  0  0  0
 20 23  1  0  0  0  0
 22 25  1  0  0  0  0
 22 26  2  0  0  0  0
 23 27  2  0  0  0  0
 23 29  1  0  0  0  0
 24 27  1  0  0  0  0
 25 28  1  0  0  0  0
 25 31  2  0  0  0  0
 26 30  1  0  0  0  0
 27 45  1  0  0  0  0
 30 32  2  0  0  0  0
 31 32  1  0  0  0  0
 31 46  1  0  0  0  0
 33 49  1  0  0  0  0
 33 50  1  0  0  0  0
 33 51  1  0  0  0  0
M  END
>  <PUBCHEM_COMPOUND_CID>
5319609

>  <PUBCHEM_COMPOUND_CANONICALIZED>
1

>  <PUBCHEM_CACTVS_COMPLEXITY>
791

>  <PUBCHEM_CACTVS_HBOND_ACCEPTOR>
12

>  <PUBCHEM_CACTVS_HBOND_DONOR>
5

>  <PUBCHEM_CACTVS_ROTATABLE_BOND>
3

>  <PUBCHEM_CACTVS_SUBSKEYS>
AAADceB4PAAAAAAAAAAAAAAAAAAAAAAAAAA0aJECAAAAAACRQAAAGgAACAAADBSwmAMyDoAABgCIAiDSCAACCAAkIAAAiAEGiMgdNzKGNBqieyOlwBUPuYfK7PzOoAABCAAYQABAAAIQADCAAAAAAAAAAA==

>  <PUBCHEM_IUPAC_INCHI>
InChI=1S/C21H18O12/c1-5-12(24)13(25)14(26)21(30-5)33-16-9(23)4-7-11-10-6(20(28)32-18(11)16)3-8(22)15(29-2)17(10)31-19(7)27/h3-5,12-14,21-26H,1-2H3/t5-,12-,13+,14+,21-/m0/s1

>  <PUBCHEM_IUPAC_INCHIKEY>
UNIJYMVRSKZTJI-HFGFDTQGSA-N

>  <PUBCHEM_XLOGP3_AA>
0.1

>  <PUBCHEM_EXACT_MASS>
462.08

>  <PUBCHEM_MOLECULAR_FORMULA>
C21H18O12

>  <PUBCHEM_MOLECULAR_WEIGHT>
462.363

>  <PUBCHEM_OPENEYE_CAN_SMILES>
CC1C(C(C(C(O1)OC2=C(C=C3C4=C2OC(=O)C5=CC(=C(C(=C54)OC3=O)OC)O)O)O)O)O

>  <PUBCHEM_OPENEYE_ISO_SMILES>
C[C@H]1[C@@H]([C@H]([C@H]([C@@H](O1)OC2=C(C=C3C4=C2OC(=O)C5=CC(=C(C(=C54)OC3=O)OC)O)O)O)O)O

>  <PUBCHEM_CACTVS_TPSA>
181

>  <PUBCHEM_MONOISOTOPIC_WEIGHT>
462.08

>  <PUBCHEM_TOTAL_CHARGE>
0

>  <PUBCHEM_HEAVY_ATOM_COUNT>
33

>  <PUBCHEM_ATOM_DEF_STEREO_COUNT>
5

>  <PUBCHEM_ATOM_UDEF_STEREO_COUNT>
0

>  <PUBCHEM_BOND_DEF_STEREO_COUNT>
0

>  <PUBCHEM_BOND_UDEF_STEREO_COUNT>
0

>  <PUBCHEM_ISOTOPIC_ATOM_COUNT>
0

>  <PUBCHEM_COMPONENT_COUNT>
1

>  <PUBCHEM_CACTVS_TAUTO_COUNT>
17

>  <PUBCHEM_COORDINATE_TYPE>
1
5
255

>  <PUBCHEM_BONDANNOTATIONS>
16  18  6
19  21  8
19  24  8
17  2  5
20  21  8
20  22  8
20  23  8
22  25  8
22  26  8
23  27  8
23  29  8
24  27  8
25  28  8
25  31  8
26  30  8
13  3  6
30  32  8
31  32  8
14  4  5
15  5  6
6  21  8
6  28  8
7  26  8
7  29  8

$$$$
