5319892
 OpenBabel06101807152D

 70 72  0  0  0  0  0  0  0  0999 V2000
    8.9561    2.8103    0.0000 O   0  0  0  0  0  0  0  0  0  0  0  0
    5.4641    2.8450    0.0000 O   0  0  0  0  0  0  0  0  0  0  0  0
    7.1962    5.8450    0.0000 O   0  0  0  0  0  0  0  0  0  0  0  0
    8.9446    5.8796    0.0000 O   0  0  0  0  0  0  0  0  0  0  0  0
    9.8545    1.3242    0.0000 O   0  0  0  0  0  0  0  0  0  0  0  0
   13.3186    1.3108    0.0000 O   0  0  0  0  0  0  0  0  0  0  0  0
    7.1962    2.8450    0.0000 C   0  0  0  0  0  0  0  0  0  0  0  0
    5.4641   -0.1550    0.0000 C   0  0  0  0  0  0  0  0  0  0  0  0
    7.1962    1.8450    0.0000 C   0  0  0  0  0  0  0  0  0  0  0  0
    6.3301    0.3450    0.0000 C   0  0  0  0  0  0  0  0  0  0  0  0
    5.4641   -1.1550    0.0000 C   0  0  0  0  0  0  0  0  0  0  0  0
    8.0622    3.3450    0.0000 C   0  0  0  0  0  0  0  0  0  0  0  0
    6.3301    1.3450    0.0000 C   0  0  0  0  0  0  0  0  0  0  0  0
    8.0622    4.3450    0.0000 C   0  0  0  0  0  0  0  0  0  0  0  0
    4.5981   -2.6550    0.0000 C   0  0  0  0  0  0  0  0  0  0  0  0
    4.5981   -1.6550    0.0000 C   0  0  0  0  0  0  0  0  0  0  0  0
    3.7320   -3.1550    0.0000 C   0  0  0  0  0  0  0  0  0  0  0  0
    6.3301    3.3450    0.0000 C   0  0  0  0  0  0  0  0  0  0  0  0
    7.1962    4.8450    0.0000 C   0  0  0  0  0  0  0  0  0  0  0  0
    3.7320   -4.1550    0.0000 C   0  0  0  0  0  0  0  0  0  0  0  0
    7.1962   -0.1550    0.0000 C   0  0  0  0  0  0  0  0  0  0  0  0
    6.3301    4.3450    0.0000 C   0  0  0  0  0  0  0  0  0  0  0  0
    9.8622    3.3242    0.0000 C   0  0  0  0  0  0  0  0  0  0  0  0
    8.9561    4.8797    0.0000 C   0  0  0  0  0  0  0  0  0  0  0  0
    9.8622    4.3658    0.0000 C   0  0  0  0  0  0  0  0  0  0  0  0
    5.4641   -3.1550    0.0000 C   0  0  0  0  0  0  0  0  0  0  0  0
   10.7263    2.8208    0.0000 C   0  0  0  0  0  0  0  0  0  0  0  0
    2.8660   -4.6550    0.0000 C   0  0  0  0  0  0  0  0  0  0  0  0
    2.8660   -5.6550    0.0000 C   0  0  0  0  0  0  0  0  0  0  0  0
   10.7224    1.8209    0.0000 C   0  0  0  0  0  0  0  0  0  0  0  0
   11.5942    3.3175    0.0000 C   0  0  0  0  0  0  0  0  0  0  0  0
   11.5865    1.3175    0.0000 C   0  0  0  0  0  0  0  0  0  0  0  0
   12.4583    2.8142    0.0000 C   0  0  0  0  0  0  0  0  0  0  0  0
    2.0000   -6.1550    0.0000 C   0  0  0  0  0  0  0  0  0  0  0  0
    3.7320   -6.1550    0.0000 C   0  0  0  0  0  0  0  0  0  0  0  0
   12.4545    1.8142    0.0000 C   0  0  0  0  0  0  0  0  0  0  0  0
    5.2520    0.4276    0.0000 H   0  0  0  0  0  0  0  0  0  0  0  0
    4.8535   -0.2627    0.0000 H   0  0  0  0  0  0  0  0  0  0  0  0
    7.4082    1.2624    0.0000 H   0  0  0  0  0  0  0  0  0  0  0  0
    7.8067    1.9527    0.0000 H   0  0  0  0  0  0  0  0  0  0  0  0
    5.6762   -1.7376    0.0000 H   0  0  0  0  0  0  0  0  0  0  0  0
    6.0747   -1.0473    0.0000 H   0  0  0  0  0  0  0  0  0  0  0  0
    5.7932    1.6550    0.0000 H   0  0  0  0  0  0  0  0  0  0  0  0
    3.5200   -2.5724    0.0000 H   0  0  0  0  0  0  0  0  0  0  0  0
    3.1215   -3.2627    0.0000 H   0  0  0  0  0  0  0  0  0  0  0  0
    4.0611   -1.3450    0.0000 H   0  0  0  0  0  0  0  0  0  0  0  0
    3.9441   -4.7376    0.0000 H   0  0  0  0  0  0  0  0  0  0  0  0
    4.3426   -4.0473    0.0000 H   0  0  0  0  0  0  0  0  0  0  0  0
    6.8862   -0.6919    0.0000 H   0  0  0  0  0  0  0  0  0  0  0  0
    7.7331   -0.4650    0.0000 H   0  0  0  0  0  0  0  0  0  0  0  0
    7.5062    0.3819    0.0000 H   0  0  0  0  0  0  0  0  0  0  0  0
    5.7932    4.6550    0.0000 H   0  0  0  0  0  0  0  0  0  0  0  0
   10.3979    4.6779    0.0000 H   0  0  0  0  0  0  0  0  0  0  0  0
    5.1541   -3.6919    0.0000 H   0  0  0  0  0  0  0  0  0  0  0  0
    6.0010   -3.4650    0.0000 H   0  0  0  0  0  0  0  0  0  0  0  0
    5.7741   -2.6181    0.0000 H   0  0  0  0  0  0  0  0  0  0  0  0
    2.3291   -4.3450    0.0000 H   0  0  0  0  0  0  0  0  0  0  0  0
    4.9272    3.1550    0.0000 H   0  0  0  0  0  0  0  0  0  0  0  0
   11.5966    3.9375    0.0000 H   0  0  0  0  0  0  0  0  0  0  0  0
    6.6592    6.1550    0.0000 H   0  0  0  0  0  0  0  0  0  0  0  0
   11.5841    0.6975    0.0000 H   0  0  0  0  0  0  0  0  0  0  0  0
   12.9964    3.1221    0.0000 H   0  0  0  0  0  0  0  0  0  0  0  0
    1.6900   -5.6181    0.0000 H   0  0  0  0  0  0  0  0  0  0  0  0
    1.4631   -6.4650    0.0000 H   0  0  0  0  0  0  0  0  0  0  0  0
    2.3100   -6.6919    0.0000 H   0  0  0  0  0  0  0  0  0  0  0  0
    3.4220   -6.6919    0.0000 H   0  0  0  0  0  0  0  0  0  0  0  0
    4.2690   -6.4650    0.0000 H   0  0  0  0  0  0  0  0  0  0  0  0
    4.0420   -5.6181    0.0000 H   0  0  0  0  0  0  0  0  0  0  0  0
    9.8521    0.7042    0.0000 H   0  0  0  0  0  0  0  0  0  0  0  0
   13.8567    1.6188    0.0000 H   0  0  0  0  0  0  0  0  0  0  0  0
  1 12  1  0  0  0  0
  1 23  1  0  0  0  0
  2 18  1  0  0  0  0
  2 58  1  0  0  0  0
  3 19  1  0  0  0  0
  3 60  1  0  0  0  0
  4 24  2  0  0  0  0
  5 30  1  0  0  0  0
  5 69  1  0  0  0  0
  6 36  1  0  0  0  0
  6 70  1  0  0  0  0
  7  9  1  0  0  0  0
  7 12  2  0  0  0  0
  7 18  1  0  0  0  0
  8 10  1  0  0  0  0
  8 11  1  0  0  0  0
  8 37  1  0  0  0  0
  8 38  1  0  0  0  0
  9 13  1  0  0  0  0
  9 39  1  0  0  0  0
  9 40  1  0  0  0  0
 10 13  2  0  0  0  0
 10 21  1  0  0  0  0
 11 16  1  0  0  0  0
 11 41  1  0  0  0  0
 11 42  1  0  0  0  0
 12 14  1  0  0  0  0
 13 43  1  0  0  0  0
 14 19  2  0  0  0  0
 14 24  1  0  0  0  0
 15 16  2  0  0  0  0
 15 17  1  0  0  0  0
 15 26  1  0  0  0  0
 16 46  1  0  0  0  0
 17 20  1  0  0  0  0
 17 44  1  0  0  0  0
 17 45  1  0  0  0  0
 18 22  2  0  0  0  0
 19 22  1  0  0  0  0
 20 28  1  0  0  0  0
 20 47  1  0  0  0  0
 20 48  1  0  0  0  0
 21 49  1  0  0  0  0
 21 50  1  0  0  0  0
 21 51  1  0  0  0  0
 22 52  1  0  0  0  0
 23 25  2  0  0  0  0
 23 27  1  0  0  0  0
 24 25  1  0  0  0  0
 25 53  1  0  0  0  0
 26 54  1  0  0  0  0
 26 55  1  0  0  0  0
 26 56  1  0  0  0  0
 27 30  2  0  0  0  0
 27 31  1  0  0  0  0
 28 29  2  0  0  0  0
 28 57  1  0  0  0  0
 29 34  1  0  0  0  0
 29 35  1  0  0  0  0
 30 32  1  0  0  0  0
 31 33  2  0  0  0  0
 31 59  1  0  0  0  0
 32 36  2  0  0  0  0
 32 61  1  0  0  0  0
 33 36  1  0  0  0  0
 33 62  1  0  0  0  0
 34 63  1  0  0  0  0
 34 64  1  0  0  0  0
 34 65  1  0  0  0  0
 35 66  1  0  0  0  0
 35 67  1  0  0  0  0
 35 68  1  0  0  0  0
M  END
>  <PUBCHEM_COMPOUND_CID>
5319892

>  <PUBCHEM_COMPOUND_CANONICALIZED>
1

>  <PUBCHEM_CACTVS_COMPLEXITY>
880

>  <PUBCHEM_CACTVS_HBOND_ACCEPTOR>
6

>  <PUBCHEM_CACTVS_HBOND_DONOR>
4

>  <PUBCHEM_CACTVS_ROTATABLE_BOND>
9

>  <PUBCHEM_CACTVS_SUBSKEYS>
AAADcfB4OAAAAAAAAAAAAAAAAAAAAAAAAAAwYIAAAAAAAACBQAAAGgAACAAADASAmAAyBoAABgCIAqBSAAACCAAkIAAIiAEGCMgMJzaGNRqCeWCl4BUIuQeI7OzOIAACCAAIAABAAAQQABAAAAAAAAAAAA==

>  <PUBCHEM_IUPAC_OPENEYE_NAME>
2-(2,4-dihydroxyphenyl)-5,7-dihydroxy-8-[(2E,6E)-3,7,11-trimethyldodeca-2,6,10-trienyl]chromen-4-one

>  <PUBCHEM_IUPAC_CAS_NAME>
2-(2,4-dihydroxyphenyl)-5,7-dihydroxy-8-[(2E,6E)-3,7,11-trimethyldodeca-2,6,10-trienyl]-1-benzopyran-4-one

>  <PUBCHEM_IUPAC_NAME>
2-(2,4-dihydroxyphenyl)-5,7-dihydroxy-8-[(2E,6E)-3,7,11-trimethyldodeca-2,6,10-trienyl]chromen-4-one

>  <PUBCHEM_IUPAC_SYSTEMATIC_NAME>
2-[2,4-bis(oxidanyl)phenyl]-5,7-bis(oxidanyl)-8-[(2E,6E)-3,7,11-trimethyldodeca-2,6,10-trienyl]chromen-4-one

>  <PUBCHEM_IUPAC_TRADITIONAL_NAME>
2-(2,4-dihydroxyphenyl)-5,7-dihydroxy-8-[(2E,6E)-3,7,11-trimethyldodeca-2,6,10-trienyl]chromone

>  <PUBCHEM_IUPAC_INCHI>
InChI=1S/C30H34O6/c1-18(2)7-5-8-19(3)9-6-10-20(4)11-13-23-25(33)16-26(34)29-27(35)17-28(36-30(23)29)22-14-12-21(31)15-24(22)32/h7,9,11-12,14-17,31-34H,5-6,8,10,13H2,1-4H3/b19-9+,20-11+

>  <PUBCHEM_IUPAC_INCHIKEY>
KVTGJUFKNDYOTO-VQCWNDBCSA-N

>  <PUBCHEM_XLOGP3_AA>
8

>  <PUBCHEM_EXACT_MASS>
490.236

>  <PUBCHEM_MOLECULAR_FORMULA>
C30H34O6

>  <PUBCHEM_MOLECULAR_WEIGHT>
490.596

>  <PUBCHEM_OPENEYE_CAN_SMILES>
CC(=CCCC(=CCCC(=CCC1=C(C=C(C2=C1OC(=CC2=O)C3=C(C=C(C=C3)O)O)O)O)C)C)C

>  <PUBCHEM_OPENEYE_ISO_SMILES>
CC(=CCC/C(=C/CC/C(=C/CC1=C(C=C(C2=C1OC(=CC2=O)C3=C(C=C(C=C3)O)O)O)O)/C)/C)C

>  <PUBCHEM_CACTVS_TPSA>
107

>  <PUBCHEM_MONOISOTOPIC_WEIGHT>
490.236

>  <PUBCHEM_TOTAL_CHARGE>
0

>  <PUBCHEM_HEAVY_ATOM_COUNT>
36

>  <PUBCHEM_ATOM_DEF_STEREO_COUNT>
0

>  <PUBCHEM_ATOM_UDEF_STEREO_COUNT>
0

>  <PUBCHEM_BOND_DEF_STEREO_COUNT>
2

>  <PUBCHEM_BOND_UDEF_STEREO_COUNT>
0

>  <PUBCHEM_ISOTOPIC_ATOM_COUNT>
0

>  <PUBCHEM_COMPONENT_COUNT>
1

>  <PUBCHEM_CACTVS_TAUTO_COUNT>
171

>  <PUBCHEM_COORDINATE_TYPE>
1
5
255

>  <PUBCHEM_BONDANNOTATIONS>
1  12  8
1  23  8
12  14  8
14  19  8
14  24  8
18  22  8
19  22  8
23  25  8
24  25  8
27  30  8
27  31  8
30  32  8
31  33  8
32  36  8
33  36  8
7  12  8
7  18  8

$$$$
