5319452
 OpenBabel06101807152D

 33 35  0  0  0  0  0  0  0  0999 V2000
    6.3981   -0.4400    0.0000 O   0  0  0  0  0  0  0  0  0  0  0  0
    8.1301    1.5600    0.0000 O   0  0  0  0  0  0  0  0  0  0  0  0
    2.8680   -0.4642    0.0000 O   0  0  0  0  0  0  0  0  0  0  0  0
    6.3981    2.5600    0.0000 O   0  0  0  0  0  0  0  0  0  0  0  0
   10.7282   -1.9400    0.0000 O   0  0  0  0  0  0  0  0  0  0  0  0
    5.5320    1.0600    0.0000 C   0  0  0  0  0  0  0  0  0  0  0  0
    5.5320    0.0600    0.0000 C   0  0  0  0  0  0  0  0  0  0  0  0
    7.2641    0.0600    0.0000 C   0  0  0  0  0  0  0  0  0  0  0  0
    8.1301   -0.4400    0.0000 C   0  0  0  0  0  0  0  0  0  0  0  0
    7.2641    1.0600    0.0000 C   0  0  0  0  0  0  0  0  0  0  0  0
    6.3981    1.5600    0.0000 C   0  0  0  0  0  0  0  0  0  0  0  0
    4.6381   -0.4747    0.0000 C   0  0  0  0  0  0  0  0  0  0  0  0
    4.6381    1.5947    0.0000 C   0  0  0  0  0  0  0  0  0  0  0  0
    3.7320    0.0392    0.0000 C   0  0  0  0  0  0  0  0  0  0  0  0
    3.7320    1.0808    0.0000 C   0  0  0  0  0  0  0  0  0  0  0  0
    8.1301   -1.4400    0.0000 C   0  0  0  0  0  0  0  0  0  0  0  0
    8.9962    0.0600    0.0000 C   0  0  0  0  0  0  0  0  0  0  0  0
    8.9962   -1.9400    0.0000 C   0  0  0  0  0  0  0  0  0  0  0  0
    9.8622   -0.4400    0.0000 C   0  0  0  0  0  0  0  0  0  0  0  0
    9.8622   -1.4400    0.0000 C   0  0  0  0  0  0  0  0  0  0  0  0
    2.0000    0.0325    0.0000 C   0  0  0  0  0  0  0  0  0  0  0  0
    4.6453   -1.0946    0.0000 H   0  0  0  0  0  0  0  0  0  0  0  0
    4.6453    2.2146    0.0000 H   0  0  0  0  0  0  0  0  0  0  0  0
    3.1963    1.3929    0.0000 H   0  0  0  0  0  0  0  0  0  0  0  0
    7.5932   -1.7500    0.0000 H   0  0  0  0  0  0  0  0  0  0  0  0
    8.9962    0.6800    0.0000 H   0  0  0  0  0  0  0  0  0  0  0  0
    8.9962   -2.5600    0.0000 H   0  0  0  0  0  0  0  0  0  0  0  0
   10.3991   -0.1300    0.0000 H   0  0  0  0  0  0  0  0  0  0  0  0
    8.1301    2.1800    0.0000 H   0  0  0  0  0  0  0  0  0  0  0  0
    2.3079    0.5706    0.0000 H   0  0  0  0  0  0  0  0  0  0  0  0
    1.4619    0.3404    0.0000 H   0  0  0  0  0  0  0  0  0  0  0  0
    1.6921   -0.5056    0.0000 H   0  0  0  0  0  0  0  0  0  0  0  0
   10.7282   -2.5600    0.0000 H   0  0  0  0  0  0  0  0  0  0  0  0
  1  7  1  0  0  0  0
  1  8  1  0  0  0  0
  2 10  1  0  0  0  0
  2 29  1  0  0  0  0
  3 14  1  0  0  0  0
  3 21  1  0  0  0  0
  4 11  2  0  0  0  0
  5 20  1  0  0  0  0
  5 33  1  0  0  0  0
  6  7  2  0  0  0  0
  6 11  1  0  0  0  0
  6 13  1  0  0  0  0
  7 12  1  0  0  0  0
  8  9  1  0  0  0  0
  8 10  2  0  0  0  0
  9 16  2  0  0  0  0
  9 17  1  0  0  0  0
 10 11  1  0  0  0  0
 12 14  2  0  0  0  0
 12 22  1  0  0  0  0
 13 15  2  0  0  0  0
 13 23  1  0  0  0  0
 14 15  1  0  0  0  0
 15 24  1  0  0  0  0
 16 18  1  0  0  0  0
 16 25  1  0  0  0  0
 17 19  2  0  0  0  0
 17 26  1  0  0  0  0
 18 20  2  0  0  0  0
 18 27  1  0  0  0  0
 19 20  1  0  0  0  0
 19 28  1  0  0  0  0
 21 30  1  0  0  0  0
 21 31  1  0  0  0  0
 21 32  1  0  0  0  0
M  END
>  <PUBCHEM_COMPOUND_CID>
5319452

>  <PUBCHEM_COMPOUND_CANONICALIZED>
1

>  <PUBCHEM_CACTVS_COMPLEXITY>
436

>  <PUBCHEM_CACTVS_HBOND_ACCEPTOR>
5

>  <PUBCHEM_CACTVS_HBOND_DONOR>
2

>  <PUBCHEM_CACTVS_ROTATABLE_BOND>
2

>  <PUBCHEM_CACTVS_SUBSKEYS>
AAADccB4OAAAAAAAAAAAAAAAAAAAAAAAAAAwYIAAAAAAAACBQAAAGgAACAAADASAmAIyBoAABgCIAqBSAAICCAAkIAAIiAFGCMgMJzaGNRqCeWCl4BUIuYfI7KzOIAAACAAIAABAAAAQABAAAAAAAAAAAA==

>  <PUBCHEM_IUPAC_OPENEYE_NAME>
3-hydroxy-2-(4-hydroxyphenyl)-7-methoxy-chromen-4-one

>  <PUBCHEM_IUPAC_CAS_NAME>
3-hydroxy-2-(4-hydroxyphenyl)-7-methoxy-1-benzopyran-4-one

>  <PUBCHEM_IUPAC_NAME>
3-hydroxy-2-(4-hydroxyphenyl)-7-methoxychromen-4-one

>  <PUBCHEM_IUPAC_SYSTEMATIC_NAME>
2-(4-hydroxyphenyl)-7-methoxy-3-oxidanyl-chromen-4-one

>  <PUBCHEM_IUPAC_TRADITIONAL_NAME>
3-hydroxy-2-(4-hydroxyphenyl)-7-methoxy-chromone

>  <PUBCHEM_IUPAC_INCHI>
InChI=1S/C16H12O5/c1-20-11-6-7-12-13(8-11)21-16(15(19)14(12)18)9-2-4-10(17)5-3-9/h2-8,17,19H,1H3

>  <PUBCHEM_IUPAC_INCHIKEY>
UAESYLAPUNIHOF-UHFFFAOYSA-N

>  <PUBCHEM_XLOGP3>
3

>  <PUBCHEM_EXACT_MASS>
284.068

>  <PUBCHEM_MOLECULAR_FORMULA>
C16H12O5

>  <PUBCHEM_MOLECULAR_WEIGHT>
284.267

>  <PUBCHEM_OPENEYE_CAN_SMILES>
COC1=CC2=C(C=C1)C(=O)C(=C(O2)C3=CC=C(C=C3)O)O

>  <PUBCHEM_OPENEYE_ISO_SMILES>
COC1=CC2=C(C=C1)C(=O)C(=C(O2)C3=CC=C(C=C3)O)O

>  <PUBCHEM_CACTVS_TPSA>
76

>  <PUBCHEM_MONOISOTOPIC_WEIGHT>
284.068

>  <PUBCHEM_TOTAL_CHARGE>
0

>  <PUBCHEM_HEAVY_ATOM_COUNT>
21

>  <PUBCHEM_ATOM_DEF_STEREO_COUNT>
0

>  <PUBCHEM_ATOM_UDEF_STEREO_COUNT>
0

>  <PUBCHEM_BOND_DEF_STEREO_COUNT>
0

>  <PUBCHEM_BOND_UDEF_STEREO_COUNT>
0

>  <PUBCHEM_ISOTOPIC_ATOM_COUNT>
0

>  <PUBCHEM_COMPONENT_COUNT>
1

>  <PUBCHEM_CACTVS_TAUTO_COUNT>
11

>  <PUBCHEM_COORDINATE_TYPE>
1
5
255

>  <PUBCHEM_BONDANNOTATIONS>
1  7  8
1  8  8
10  11  8
12  14  8
13  15  8
14  15  8
16  18  8
17  19  8
18  20  8
19  20  8
6  11  8
6  13  8
6  7  8
7  12  8
8  10  8
9  16  8
9  17  8

$$$$
