5319962
 OpenBabel06101807152D

 36 39  0  0  0  0  0  0  0  0999 V2000
    7.9875   -0.5419    0.0000 O   0  0  0  0  0  0  0  0  0  0  0  0
    7.0165    2.3042    0.0000 O   0  0  0  0  0  0  0  0  0  0  0  0
    4.5124   -1.4586    0.0000 N   0  0  0  0  0  0  0  0  0  0  0  0
    8.3170   -1.5301    0.0000 C   0  0  0  0  0  0  0  0  0  0  0  0
    5.3181   -0.8763    0.0000 C   0  0  0  0  0  0  0  0  0  0  0  0
    6.2962   -1.0842    0.0000 C   0  0  0  0  0  0  0  0  0  0  0  0
    5.0091    0.0747    0.0000 C   0  0  0  0  0  0  0  0  0  0  0  0
    6.9654   -0.3411    0.0000 C   0  0  0  0  0  0  0  0  0  0  0  0
    4.0150    0.0721    0.0000 C   0  0  0  0  0  0  0  0  0  0  0  0
    7.6200   -2.3042    0.0000 C   0  0  0  0  0  0  0  0  0  0  0  0
    3.7086   -0.8736    0.0000 C   0  0  0  0  0  0  0  0  0  0  0  0
    6.6028   -2.0797    0.0000 C   0  0  0  0  0  0  0  0  0  0  0  0
    6.6564    0.6100    0.0000 C   0  0  0  0  0  0  0  0  0  0  0  0
    5.6782    0.8179    0.0000 C   0  0  0  0  0  0  0  0  0  0  0  0
    9.0627   -2.1963    0.0000 C   0  0  0  0  0  0  0  0  0  0  0  0
    9.2668   -1.2174    0.0000 C   0  0  0  0  0  0  0  0  0  0  0  0
    3.3334    0.8516    0.0000 C   0  0  0  0  0  0  0  0  0  0  0  0
    2.6994   -1.1053    0.0000 C   0  0  0  0  0  0  0  0  0  0  0  0
    2.3191    0.6433    0.0000 C   0  0  0  0  0  0  0  0  0  0  0  0
    7.3255    1.3531    0.0000 C   0  0  0  0  0  0  0  0  0  0  0  0
    2.0000   -0.3418    0.0000 C   0  0  0  0  0  0  0  0  0  0  0  0
    7.8093   -2.8946    0.0000 H   0  0  0  0  0  0  0  0  0  0  0  0
    6.1826   -2.5357    0.0000 H   0  0  0  0  0  0  0  0  0  0  0  0
    4.5113   -2.0786    0.0000 H   0  0  0  0  0  0  0  0  0  0  0  0
    5.4866    1.4075    0.0000 H   0  0  0  0  0  0  0  0  0  0  0  0
    8.6496   -2.6587    0.0000 H   0  0  0  0  0  0  0  0  0  0  0  0
    9.5250   -2.6094    0.0000 H   0  0  0  0  0  0  0  0  0  0  0  0
    9.4607   -1.8063    0.0000 H   0  0  0  0  0  0  0  0  0  0  0  0
    9.8557   -1.0235    0.0000 H   0  0  0  0  0  0  0  0  0  0  0  0
    9.0730   -0.6285    0.0000 H   0  0  0  0  0  0  0  0  0  0  0  0
    9.4758   -1.7340    0.0000 H   0  0  0  0  0  0  0  0  0  0  0  0
    3.5313    1.4392    0.0000 H   0  0  0  0  0  0  0  0  0  0  0  0
    2.5152   -1.6973    0.0000 H   0  0  0  0  0  0  0  0  0  0  0  0
    1.9056    1.1053    0.0000 H   0  0  0  0  0  0  0  0  0  0  0  0
    7.9319    1.2242    0.0000 H   0  0  0  0  0  0  0  0  0  0  0  0
    1.3942   -0.4735    0.0000 H   0  0  0  0  0  0  0  0  0  0  0  0
  1  4  1  0  0  0  0
  1  8  1  0  0  0  0
  2 20  2  0  0  0  0
  3  5  1  0  0  0  0
  3 11  1  0  0  0  0
  3 24  1  0  0  0  0
  4 10  1  0  0  0  0
  4 15  1  0  0  0  0
  4 16  1  0  0  0  0
  5  6  1  0  0  0  0
  5  7  2  0  0  0  0
  6  8  2  0  0  0  0
  6 12  1  0  0  0  0
  7  9  1  0  0  0  0
  7 14  1  0  0  0  0
  8 13  1  0  0  0  0
  9 11  1  0  0  0  0
  9 17  2  0  0  0  0
 10 12  2  0  0  0  0
 10 22  1  0  0  0  0
 11 18  2  0  0  0  0
 12 23  1  0  0  0  0
 13 14  2  0  0  0  0
 13 20  1  0  0  0  0
 14 25  1  0  0  0  0
 15 26  1  0  0  0  0
 15 27  1  0  0  0  0
 15 31  1  0  0  0  0
 16 28  1  0  0  0  0
 16 29  1  0  0  0  0
 16 30  1  0  0  0  0
 17 19  1  0  0  0  0
 17 32  1  0  0  0  0
 18 21  1  0  0  0  0
 18 33  1  0  0  0  0
 19 21  2  0  0  0  0
 19 34  1  0  0  0  0
 20 35  1  0  0  0  0
 21 36  1  0  0  0  0
M  END
>  <PUBCHEM_COMPOUND_CID>
5319962

>  <PUBCHEM_COMPOUND_CANONICALIZED>
1

>  <PUBCHEM_CACTVS_COMPLEXITY>
458

>  <PUBCHEM_CACTVS_HBOND_ACCEPTOR>
2

>  <PUBCHEM_CACTVS_HBOND_DONOR>
1

>  <PUBCHEM_CACTVS_ROTATABLE_BOND>
1

>  <PUBCHEM_CACTVS_SUBSKEYS>
AAADccB6MAAAAAAAAAAAAAAAAAAAAWAAAAAwYIAAAAAAAFiB/AAAHgAQAAAADEyhngIyxvLJlACoAyxyxACCiCAlIiAImSE0bNgMJvbEtZuGOWjm8BnI6YeY2fOeqAACAgAKAABQAAQEABQAAAAAAAAAAA==

>  <PUBCHEM_IUPAC_OPENEYE_NAME>
3,3-dimethyl-11H-pyrano[3,2-a]carbazole-5-carbaldehyde

>  <PUBCHEM_IUPAC_CAS_NAME>
3,3-dimethyl-11H-pyrano[3,2-a]carbazole-5-carboxaldehyde

>  <PUBCHEM_IUPAC_NAME>
3,3-dimethyl-11H-pyrano[3,2-a]carbazole-5-carbaldehyde

>  <PUBCHEM_IUPAC_SYSTEMATIC_NAME>
3,3-dimethyl-11H-pyrano[3,2-a]carbazole-5-carbaldehyde

>  <PUBCHEM_IUPAC_TRADITIONAL_NAME>
3,3-dimethyl-11H-pyrano[3,2-a]carbazole-5-carbaldehyde

>  <PUBCHEM_IUPAC_INCHI>
InChI=1S/C18H15NO2/c1-18(2)8-7-13-16-14(9-11(10-20)17(13)21-18)12-5-3-4-6-15(12)19-16/h3-10,19H,1-2H3

>  <PUBCHEM_IUPAC_INCHIKEY>
UBTAPPWQYRWQOH-UHFFFAOYSA-N

>  <PUBCHEM_XLOGP3_AA>
3.8

>  <PUBCHEM_EXACT_MASS>
277.11

>  <PUBCHEM_MOLECULAR_FORMULA>
C18H15NO2

>  <PUBCHEM_MOLECULAR_WEIGHT>
277.323

>  <PUBCHEM_OPENEYE_CAN_SMILES>
CC1(C=CC2=C3C(=CC(=C2O1)C=O)C4=CC=CC=C4N3)C

>  <PUBCHEM_OPENEYE_ISO_SMILES>
CC1(C=CC2=C3C(=CC(=C2O1)C=O)C4=CC=CC=C4N3)C

>  <PUBCHEM_CACTVS_TPSA>
42.1

>  <PUBCHEM_MONOISOTOPIC_WEIGHT>
277.11

>  <PUBCHEM_TOTAL_CHARGE>
0

>  <PUBCHEM_HEAVY_ATOM_COUNT>
21

>  <PUBCHEM_ATOM_DEF_STEREO_COUNT>
0

>  <PUBCHEM_ATOM_UDEF_STEREO_COUNT>
0

>  <PUBCHEM_BOND_DEF_STEREO_COUNT>
0

>  <PUBCHEM_BOND_UDEF_STEREO_COUNT>
0

>  <PUBCHEM_ISOTOPIC_ATOM_COUNT>
0

>  <PUBCHEM_COMPONENT_COUNT>
1

>  <PUBCHEM_CACTVS_TAUTO_COUNT>
6

>  <PUBCHEM_COORDINATE_TYPE>
1
5
255

>  <PUBCHEM_BONDANNOTATIONS>
11  18  8
13  14  8
17  19  8
18  21  8
19  21  8
3  11  8
3  5  8
5  6  8
5  7  8
6  8  8
7  14  8
7  9  8
8  13  8
9  11  8
9  17  8

$$$$
