5320237
 OpenBabel06101807152D

 75 75  0  0  0  0  0  0  0  0999 V2000
    6.0010   -3.5950    0.0000 O   0  0  0  0  0  0  0  0  0  0  0  0
    4.2690   -3.5950    0.0000 O   0  0  0  0  0  0  0  0  0  0  0  0
    2.5369   -8.5950    0.0000 O   0  0  0  0  0  0  0  0  0  0  0  0
    4.2690   -9.5950    0.0000 O   0  0  0  0  0  0  0  0  0  0  0  0
    9.4651    3.4050    0.0000 C   0  0  0  0  0  0  0  0  0  0  0  0
   10.3312    3.9050    0.0000 C   0  0  0  0  0  0  0  0  0  0  0  0
    9.4651    2.4050    0.0000 C   0  0  0  0  0  0  0  0  0  0  0  0
   10.3312    4.9050    0.0000 C   0  0  0  0  0  0  0  0  0  0  0  0
    8.5991    1.9050    0.0000 C   0  0  0  0  0  0  0  0  0  0  0  0
   11.1972    5.4050    0.0000 C   0  0  0  0  0  0  0  0  0  0  0  0
    8.5991    0.9050    0.0000 C   0  0  0  0  0  0  0  0  0  0  0  0
   11.1972    6.4050    0.0000 C   0  0  0  0  0  0  0  0  0  0  0  0
    7.7331    0.4050    0.0000 C   0  0  0  0  0  0  0  0  0  0  0  0
   12.0632    6.9050    0.0000 C   0  0  0  0  0  0  0  0  0  0  0  0
    7.7331   -0.5950    0.0000 C   0  0  0  0  0  0  0  0  0  0  0  0
   12.0632    7.9050    0.0000 C   0  0  0  0  0  0  0  0  0  0  0  0
    6.8671   -1.0950    0.0000 C   0  0  0  0  0  0  0  0  0  0  0  0
   12.9292    8.4050    0.0000 C   0  0  0  0  0  0  0  0  0  0  0  0
    6.8671   -2.0950    0.0000 C   0  0  0  0  0  0  0  0  0  0  0  0
   12.9292    9.4050    0.0000 C   0  0  0  0  0  0  0  0  0  0  0  0
    6.0010   -2.5950    0.0000 C   0  0  0  0  0  0  0  0  0  0  0  0
   13.7953    9.9050    0.0000 C   0  0  0  0  0  0  0  0  0  0  0  0
    5.1350   -4.0950    0.0000 C   0  0  0  0  0  0  0  0  0  0  0  0
    5.1350   -5.0950    0.0000 C   0  0  0  0  0  0  0  0  0  0  0  0
    4.2690   -5.5950    0.0000 C   0  0  0  0  0  0  0  0  0  0  0  0
    4.2690   -6.5950    0.0000 C   0  0  0  0  0  0  0  0  0  0  0  0
    3.4030   -7.0950    0.0000 C   0  0  0  0  0  0  0  0  0  0  0  0
    5.1350   -7.0950    0.0000 C   0  0  0  0  0  0  0  0  0  0  0  0
    3.4030   -8.0950    0.0000 C   0  0  0  0  0  0  0  0  0  0  0  0
    5.1350   -8.0950    0.0000 C   0  0  0  0  0  0  0  0  0  0  0  0
    4.2690   -8.5950    0.0000 C   0  0  0  0  0  0  0  0  0  0  0  0
    9.2531    3.9876    0.0000 H   0  0  0  0  0  0  0  0  0  0  0  0
    8.8546    3.2973    0.0000 H   0  0  0  0  0  0  0  0  0  0  0  0
   10.5432    3.3224    0.0000 H   0  0  0  0  0  0  0  0  0  0  0  0
   10.9417    4.0127    0.0000 H   0  0  0  0  0  0  0  0  0  0  0  0
    9.6772    1.8224    0.0000 H   0  0  0  0  0  0  0  0  0  0  0  0
   10.0757    2.5127    0.0000 H   0  0  0  0  0  0  0  0  0  0  0  0
   10.1191    5.4876    0.0000 H   0  0  0  0  0  0  0  0  0  0  0  0
    9.7206    4.7973    0.0000 H   0  0  0  0  0  0  0  0  0  0  0  0
    8.3871    2.4876    0.0000 H   0  0  0  0  0  0  0  0  0  0  0  0
    7.9885    1.7973    0.0000 H   0  0  0  0  0  0  0  0  0  0  0  0
   11.4092    4.8224    0.0000 H   0  0  0  0  0  0  0  0  0  0  0  0
   11.8078    5.5127    0.0000 H   0  0  0  0  0  0  0  0  0  0  0  0
    8.8112    0.3224    0.0000 H   0  0  0  0  0  0  0  0  0  0  0  0
    9.2097    1.0127    0.0000 H   0  0  0  0  0  0  0  0  0  0  0  0
   10.9851    6.9876    0.0000 H   0  0  0  0  0  0  0  0  0  0  0  0
   10.5866    6.2973    0.0000 H   0  0  0  0  0  0  0  0  0  0  0  0
    7.5210    0.9876    0.0000 H   0  0  0  0  0  0  0  0  0  0  0  0
    7.1225    0.2973    0.0000 H   0  0  0  0  0  0  0  0  0  0  0  0
   12.2753    6.3224    0.0000 H   0  0  0  0  0  0  0  0  0  0  0  0
   12.6738    7.0127    0.0000 H   0  0  0  0  0  0  0  0  0  0  0  0
    7.9451   -1.1776    0.0000 H   0  0  0  0  0  0  0  0  0  0  0  0
    8.3437   -0.4873    0.0000 H   0  0  0  0  0  0  0  0  0  0  0  0
   11.8512    8.4876    0.0000 H   0  0  0  0  0  0  0  0  0  0  0  0
   11.4526    7.7973    0.0000 H   0  0  0  0  0  0  0  0  0  0  0  0
    6.6550   -0.5124    0.0000 H   0  0  0  0  0  0  0  0  0  0  0  0
    6.2565   -1.2027    0.0000 H   0  0  0  0  0  0  0  0  0  0  0  0
   13.1413    7.8224    0.0000 H   0  0  0  0  0  0  0  0  0  0  0  0
   13.5398    8.5127    0.0000 H   0  0  0  0  0  0  0  0  0  0  0  0
    7.0791   -2.6776    0.0000 H   0  0  0  0  0  0  0  0  0  0  0  0
    7.4776   -1.9873    0.0000 H   0  0  0  0  0  0  0  0  0  0  0  0
   12.7172    9.9876    0.0000 H   0  0  0  0  0  0  0  0  0  0  0  0
   12.3187    9.2973    0.0000 H   0  0  0  0  0  0  0  0  0  0  0  0
    5.7890   -2.0124    0.0000 H   0  0  0  0  0  0  0  0  0  0  0  0
    5.3905   -2.7027    0.0000 H   0  0  0  0  0  0  0  0  0  0  0  0
   14.1053    9.3681    0.0000 H   0  0  0  0  0  0  0  0  0  0  0  0
   14.3322   10.2150    0.0000 H   0  0  0  0  0  0  0  0  0  0  0  0
   13.4853   10.4419    0.0000 H   0  0  0  0  0  0  0  0  0  0  0  0
    5.6720   -5.4050    0.0000 H   0  0  0  0  0  0  0  0  0  0  0  0
    3.7320   -5.2850    0.0000 H   0  0  0  0  0  0  0  0  0  0  0  0
    2.8660   -6.7850    0.0000 H   0  0  0  0  0  0  0  0  0  0  0  0
    5.6720   -6.7850    0.0000 H   0  0  0  0  0  0  0  0  0  0  0  0
    5.6720   -8.4050    0.0000 H   0  0  0  0  0  0  0  0  0  0  0  0
    2.0000   -8.2850    0.0000 H   0  0  0  0  0  0  0  0  0  0  0  0
    4.8059   -9.9050    0.0000 H   0  0  0  0  0  0  0  0  0  0  0  0
  1 21  1  0  0  0  0
  1 23  1  0  0  0  0
  2 23  2  0  0  0  0
  3 29  1  0  0  0  0
  3 74  1  0  0  0  0
  4 31  1  0  0  0  0
  4 75  1  0  0  0  0
  5  6  1  0  0  0  0
  5  7  1  0  0  0  0
  5 32  1  0  0  0  0
  5 33  1  0  0  0  0
  6  8  1  0  0  0  0
  6 34  1  0  0  0  0
  6 35  1  0  0  0  0
  7  9  1  0  0  0  0
  7 36  1  0  0  0  0
  7 37  1  0  0  0  0
  8 10  1  0  0  0  0
  8 38  1  0  0  0  0
  8 39  1  0  0  0  0
  9 11  1  0  0  0  0
  9 40  1  0  0  0  0
  9 41  1  0  0  0  0
 10 12  1  0  0  0  0
 10 42  1  0  0  0  0
 10 43  1  0  0  0  0
 11 13  1  0  0  0  0
 11 44  1  0  0  0  0
 11 45  1  0  0  0  0
 12 14  1  0  0  0  0
 12 46  1  0  0  0  0
 12 47  1  0  0  0  0
 13 15  1  0  0  0  0
 13 48  1  0  0  0  0
 13 49  1  0  0  0  0
 14 16  1  0  0  0  0
 14 50  1  0  0  0  0
 14 51  1  0  0  0  0
 15 17  1  0  0  0  0
 15 52  1  0  0  0  0
 15 53  1  0  0  0  0
 16 18  1  0  0  0  0
 16 54  1  0  0  0  0
 16 55  1  0  0  0  0
 17 19  1  0  0  0  0
 17 56  1  0  0  0  0
 17 57  1  0  0  0  0
 18 20  1  0  0  0  0
 18 58  1  0  0  0  0
 18 59  1  0  0  0  0
 19 21  1  0  0  0  0
 19 60  1  0  0  0  0
 19 61  1  0  0  0  0
 20 22  1  0  0  0  0
 20 62  1  0  0  0  0
 20 63  1  0  0  0  0
 21 64  1  0  0  0  0
 21 65  1  0  0  0  0
 22 66  1  0  0  0  0
 22 67  1  0  0  0  0
 22 68  1  0  0  0  0
 23 24  1  0  0  0  0
 24 25  2  0  0  0  0
 24 69  1  0  0  0  0
 25 26  1  0  0  0  0
 25 70  1  0  0  0  0
 26 27  2  0  0  0  0
 26 28  1  0  0  0  0
 27 29  1  0  0  0  0
 27 71  1  0  0  0  0
 28 30  2  0  0  0  0
 28 72  1  0  0  0  0
 29 31  2  0  0  0  0
 30 31  1  0  0  0  0
 30 73  1  0  0  0  0
M  END
>  <PUBCHEM_COMPOUND_CID>
5320237

>  <PUBCHEM_COMPOUND_CANONICALIZED>
1

>  <PUBCHEM_CACTVS_COMPLEXITY>
449

>  <PUBCHEM_CACTVS_HBOND_ACCEPTOR>
4

>  <PUBCHEM_CACTVS_HBOND_DONOR>
2

>  <PUBCHEM_CACTVS_ROTATABLE_BOND>
20

>  <PUBCHEM_CACTVS_SUBSKEYS>
AAADcfB4OAAAAAAAAAAAAAAAAAAAAAAAAAAwAAAAAAAAAAABAAAAGgAACAAADASgmAIyDoAABgCIAiDSCAACAAAgIAAIiAAGiMgJJiKCMRKCcAEkwBEJuYeAwLAOIAABAAAAQABAAAIAAACAAAAAAAAAAA==

>  <PUBCHEM_IUPAC_OPENEYE_NAME>
octadecyl (E)-3-(3,4-dihydroxyphenyl)prop-2-enoate

>  <PUBCHEM_IUPAC_CAS_NAME>
(E)-3-(3,4-dihydroxyphenyl)-2-propenoic acid octadecyl ester

>  <PUBCHEM_IUPAC_NAME>
octadecyl (E)-3-(3,4-dihydroxyphenyl)prop-2-enoate

>  <PUBCHEM_IUPAC_SYSTEMATIC_NAME>
octadecyl (E)-3-[3,4-bis(oxidanyl)phenyl]prop-2-enoate

>  <PUBCHEM_IUPAC_TRADITIONAL_NAME>
(E)-3-(3,4-dihydroxyphenyl)acrylic acid stearyl ester

>  <PUBCHEM_IUPAC_INCHI>
InChI=1S/C27H44O4/c1-2-3-4-5-6-7-8-9-10-11-12-13-14-15-16-17-22-31-27(30)21-19-24-18-20-25(28)26(29)23-24/h18-21,23,28-29H,2-17,22H2,1H3/b21-19+

>  <PUBCHEM_IUPAC_INCHIKEY>
QYVZEPLDLPYECM-XUTLUUPISA-N

>  <PUBCHEM_XLOGP3>
11.1

>  <PUBCHEM_EXACT_MASS>
432.324

>  <PUBCHEM_MOLECULAR_FORMULA>
C27H44O4

>  <PUBCHEM_MOLECULAR_WEIGHT>
432.645

>  <PUBCHEM_OPENEYE_CAN_SMILES>
CCCCCCCCCCCCCCCCCCOC(=O)C=CC1=CC(=C(C=C1)O)O

>  <PUBCHEM_OPENEYE_ISO_SMILES>
CCCCCCCCCCCCCCCCCCOC(=O)/C=C/C1=CC(=C(C=C1)O)O

>  <PUBCHEM_CACTVS_TPSA>
66.8

>  <PUBCHEM_MONOISOTOPIC_WEIGHT>
432.324

>  <PUBCHEM_TOTAL_CHARGE>
0

>  <PUBCHEM_HEAVY_ATOM_COUNT>
31

>  <PUBCHEM_ATOM_DEF_STEREO_COUNT>
0

>  <PUBCHEM_ATOM_UDEF_STEREO_COUNT>
0

>  <PUBCHEM_BOND_DEF_STEREO_COUNT>
1

>  <PUBCHEM_BOND_UDEF_STEREO_COUNT>
0

>  <PUBCHEM_ISOTOPIC_ATOM_COUNT>
0

>  <PUBCHEM_COMPONENT_COUNT>
1

>  <PUBCHEM_CACTVS_TAUTO_COUNT>
16

>  <PUBCHEM_COORDINATE_TYPE>
1
5
255

>  <PUBCHEM_BONDANNOTATIONS>
26  27  8
26  28  8
27  29  8
28  30  8
29  31  8
30  31  8

$$$$
