5320496
 OpenBabel06101807152D

 37 39  0  0  0  0  0  0  0  0999 V2000
    6.3981   -0.2704    0.0000 O   0  0  0  0  0  0  0  0  0  0  0  0
    2.8680   -0.2945    0.0000 O   0  0  0  0  0  0  0  0  0  0  0  0
    4.6497    2.7642    0.0000 O   0  0  0  0  0  0  0  0  0  0  0  0
    6.3981    2.7296    0.0000 O   0  0  0  0  0  0  0  0  0  0  0  0
   10.7282   -1.7704    0.0000 O   0  0  0  0  0  0  0  0  0  0  0  0
    8.9962   -2.7704    0.0000 O   0  0  0  0  0  0  0  0  0  0  0  0
    5.5320    1.2296    0.0000 C   0  0  0  0  0  0  0  0  0  0  0  0
    5.5320    0.2296    0.0000 C   0  0  0  0  0  0  0  0  0  0  0  0
    7.2641    0.2296    0.0000 C   0  0  0  0  0  0  0  0  0  0  0  0
    8.1301   -0.2704    0.0000 C   0  0  0  0  0  0  0  0  0  0  0  0
    6.3981    1.7296    0.0000 C   0  0  0  0  0  0  0  0  0  0  0  0
    7.2641    1.2296    0.0000 C   0  0  0  0  0  0  0  0  0  0  0  0
    4.6381    1.7643    0.0000 C   0  0  0  0  0  0  0  0  0  0  0  0
    4.6381   -0.3051    0.0000 C   0  0  0  0  0  0  0  0  0  0  0  0
    3.7320    0.2088    0.0000 C   0  0  0  0  0  0  0  0  0  0  0  0
    3.7320    1.2504    0.0000 C   0  0  0  0  0  0  0  0  0  0  0  0
    8.1301   -1.2704    0.0000 C   0  0  0  0  0  0  0  0  0  0  0  0
    8.9962    0.2296    0.0000 C   0  0  0  0  0  0  0  0  0  0  0  0
    8.9962   -1.7704    0.0000 C   0  0  0  0  0  0  0  0  0  0  0  0
    9.8622   -1.2704    0.0000 C   0  0  0  0  0  0  0  0  0  0  0  0
    9.8622   -0.2704    0.0000 C   0  0  0  0  0  0  0  0  0  0  0  0
    2.0000    0.2021    0.0000 C   0  0  0  0  0  0  0  0  0  0  0  0
   11.5942   -1.2704    0.0000 C   0  0  0  0  0  0  0  0  0  0  0  0
    7.8010    1.5396    0.0000 H   0  0  0  0  0  0  0  0  0  0  0  0
    4.6453   -0.9250    0.0000 H   0  0  0  0  0  0  0  0  0  0  0  0
    3.1963    1.5625    0.0000 H   0  0  0  0  0  0  0  0  0  0  0  0
    7.5932   -1.5804    0.0000 H   0  0  0  0  0  0  0  0  0  0  0  0
    8.9962    0.8496    0.0000 H   0  0  0  0  0  0  0  0  0  0  0  0
   10.3991    0.0396    0.0000 H   0  0  0  0  0  0  0  0  0  0  0  0
    4.1164    3.0804    0.0000 H   0  0  0  0  0  0  0  0  0  0  0  0
    8.4592   -3.0804    0.0000 H   0  0  0  0  0  0  0  0  0  0  0  0
    2.3079    0.7402    0.0000 H   0  0  0  0  0  0  0  0  0  0  0  0
    1.4619    0.5100    0.0000 H   0  0  0  0  0  0  0  0  0  0  0  0
    1.6921   -0.3360    0.0000 H   0  0  0  0  0  0  0  0  0  0  0  0
   11.9042   -1.8073    0.0000 H   0  0  0  0  0  0  0  0  0  0  0  0
   12.1312   -0.9604    0.0000 H   0  0  0  0  0  0  0  0  0  0  0  0
   11.2842   -0.7335    0.0000 H   0  0  0  0  0  0  0  0  0  0  0  0
  1  8  1  0  0  0  0
  1  9  1  0  0  0  0
  2 15  1  0  0  0  0
  2 22  1  0  0  0  0
  3 13  1  0  0  0  0
  3 30  1  0  0  0  0
  4 11  2  0  0  0  0
  5 20  1  0  0  0  0
  5 23  1  0  0  0  0
  6 19  1  0  0  0  0
  6 31  1  0  0  0  0
  7  8  1  0  0  0  0
  7 11  1  0  0  0  0
  7 13  2  0  0  0  0
  8 14  2  0  0  0  0
  9 10  1  0  0  0  0
  9 12  2  0  0  0  0
 10 17  2  0  0  0  0
 10 18  1  0  0  0  0
 11 12  1  0  0  0  0
 12 24  1  0  0  0  0
 13 16  1  0  0  0  0
 14 15  1  0  0  0  0
 14 25  1  0  0  0  0
 15 16  2  0  0  0  0
 16 26  1  0  0  0  0
 17 19  1  0  0  0  0
 17 27  1  0  0  0  0
 18 21  2  0  0  0  0
 18 28  1  0  0  0  0
 19 20  2  0  0  0  0
 20 21  1  0  0  0  0
 21 29  1  0  0  0  0
 22 32  1  0  0  0  0
 22 33  1  0  0  0  0
 22 34  1  0  0  0  0
 23 35  1  0  0  0  0
 23 36  1  0  0  0  0
 23 37  1  0  0  0  0
M  END
>  <PUBCHEM_COMPOUND_CID>
5320496

>  <PUBCHEM_COMPOUND_CANONICALIZED>
1

>  <PUBCHEM_CACTVS_COMPLEXITY>
476

>  <PUBCHEM_CACTVS_HBOND_ACCEPTOR>
6

>  <PUBCHEM_CACTVS_HBOND_DONOR>
2

>  <PUBCHEM_CACTVS_ROTATABLE_BOND>
3

>  <PUBCHEM_CACTVS_SUBSKEYS>
AAADccB4OAAAAAAAAAAAAAAAAAAAAAAAAAAwYIAAAAAAAACBQAAAGgAACAAADASAmAIyBoAABgCIAqBSAAACCAAkIAAIiAEGiMgNJzaGNRqCeWOl4BULuQfI7LzOIAABCAAIQABAAAIQABCAAAAAAAAAAA==

>  <PUBCHEM_IUPAC_OPENEYE_NAME>
5-hydroxy-2-(3-hydroxy-4-methoxy-phenyl)-7-methoxy-chromen-4-one

>  <PUBCHEM_IUPAC_CAS_NAME>
5-hydroxy-2-(3-hydroxy-4-methoxyphenyl)-7-methoxy-1-benzopyran-4-one

>  <PUBCHEM_IUPAC_NAME>
5-hydroxy-2-(3-hydroxy-4-methoxyphenyl)-7-methoxychromen-4-one

>  <PUBCHEM_IUPAC_SYSTEMATIC_NAME>
7-methoxy-2-(4-methoxy-3-oxidanyl-phenyl)-5-oxidanyl-chromen-4-one

>  <PUBCHEM_IUPAC_TRADITIONAL_NAME>
5-hydroxy-2-(3-hydroxy-4-methoxy-phenyl)-7-methoxy-chromone

>  <PUBCHEM_IUPAC_INCHI>
InChI=1S/C17H14O6/c1-21-10-6-12(19)17-13(20)8-15(23-16(17)7-10)9-3-4-14(22-2)11(18)5-9/h3-8,18-19H,1-2H3

>  <PUBCHEM_IUPAC_INCHIKEY>
UDBHJDTXPDRDNS-UHFFFAOYSA-N

>  <PUBCHEM_XLOGP3>
2

>  <PUBCHEM_EXACT_MASS>
314.079

>  <PUBCHEM_MOLECULAR_FORMULA>
C17H14O6

>  <PUBCHEM_MOLECULAR_WEIGHT>
314.293

>  <PUBCHEM_OPENEYE_CAN_SMILES>
COC1=C(C=C(C=C1)C2=CC(=O)C3=C(C=C(C=C3O2)OC)O)O

>  <PUBCHEM_OPENEYE_ISO_SMILES>
COC1=C(C=C(C=C1)C2=CC(=O)C3=C(C=C(C=C3O2)OC)O)O

>  <PUBCHEM_CACTVS_TPSA>
85.2

>  <PUBCHEM_MONOISOTOPIC_WEIGHT>
314.079

>  <PUBCHEM_TOTAL_CHARGE>
0

>  <PUBCHEM_HEAVY_ATOM_COUNT>
23

>  <PUBCHEM_ATOM_DEF_STEREO_COUNT>
0

>  <PUBCHEM_ATOM_UDEF_STEREO_COUNT>
0

>  <PUBCHEM_BOND_DEF_STEREO_COUNT>
0

>  <PUBCHEM_BOND_UDEF_STEREO_COUNT>
0

>  <PUBCHEM_ISOTOPIC_ATOM_COUNT>
0

>  <PUBCHEM_COMPONENT_COUNT>
1

>  <PUBCHEM_CACTVS_TAUTO_COUNT>
15

>  <PUBCHEM_COORDINATE_TYPE>
1
5
255

>  <PUBCHEM_BONDANNOTATIONS>
1  8  8
1  9  8
10  17  8
10  18  8
11  12  8
13  16  8
14  15  8
15  16  8
17  19  8
18  21  8
19  20  8
20  21  8
7  11  8
7  13  8
7  8  8
8  14  8
9  12  8

$$$$
