5320377
 OpenBabel06101807152D

 26 25  0  0  0  0  0  0  0  0999 V2000
    3.7320   -0.3170    0.0000 C   0  0  0  0  0  0  0  0  0  0  0  0
    3.2320    0.5490    0.0000 C   0  0  0  0  0  0  0  0  0  0  0  0
    4.2320   -1.1830    0.0000 C   0  0  0  0  0  0  0  0  0  0  0  0
    4.5981    0.1830    0.0000 C   0  0  0  0  0  0  0  0  0  0  0  0
    2.8660   -0.8170    0.0000 C   0  0  0  0  0  0  0  0  0  0  0  0
    5.4641   -0.3170    0.0000 C   0  0  0  0  0  0  0  0  0  0  0  0
    6.3301    0.1830    0.0000 C   0  0  0  0  0  0  0  0  0  0  0  0
    2.0000   -0.3170    0.0000 C   0  0  0  0  0  0  0  0  0  0  0  0
    7.1962   -0.3170    0.0000 C   0  0  0  0  0  0  0  0  0  0  0  0
    6.3301    1.1830    0.0000 C   0  0  0  0  0  0  0  0  0  0  0  0
    3.6951   -1.4930    0.0000 H   0  0  0  0  0  0  0  0  0  0  0  0
    4.5420   -1.7200    0.0000 H   0  0  0  0  0  0  0  0  0  0  0  0
    4.7690   -0.8730    0.0000 H   0  0  0  0  0  0  0  0  0  0  0  0
    3.7690    0.8590    0.0000 H   0  0  0  0  0  0  0  0  0  0  0  0
    2.9220    1.0860    0.0000 H   0  0  0  0  0  0  0  0  0  0  0  0
    2.6951    0.2390    0.0000 H   0  0  0  0  0  0  0  0  0  0  0  0
    4.5981    0.8030    0.0000 H   0  0  0  0  0  0  0  0  0  0  0  0
    2.8660   -1.4370    0.0000 H   0  0  0  0  0  0  0  0  0  0  0  0
    5.4641   -0.9370    0.0000 H   0  0  0  0  0  0  0  0  0  0  0  0
    2.0000    0.3030    0.0000 H   0  0  0  0  0  0  0  0  0  0  0  0
    1.4631   -0.6270    0.0000 H   0  0  0  0  0  0  0  0  0  0  0  0
    6.8862   -0.8539    0.0000 H   0  0  0  0  0  0  0  0  0  0  0  0
    7.7331   -0.6270    0.0000 H   0  0  0  0  0  0  0  0  0  0  0  0
    7.5062    0.2199    0.0000 H   0  0  0  0  0  0  0  0  0  0  0  0
    6.8671    1.4930    0.0000 H   0  0  0  0  0  0  0  0  0  0  0  0
    5.7932    1.4930    0.0000 H   0  0  0  0  0  0  0  0  0  0  0  0
  1  2  1  0  0  0  0
  1  3  1  0  0  0  0
  1  4  1  0  0  0  0
  1  5  1  0  0  0  0
  2 14  1  0  0  0  0
  2 15  1  0  0  0  0
  2 16  1  0  0  0  0
  3 11  1  0  0  0  0
  3 12  1  0  0  0  0
  3 13  1  0  0  0  0
  4  6  2  0  0  0  0
  4 17  1  0  0  0  0
  5  8  2  0  0  0  0
  5 18  1  0  0  0  0
  6  7  1  0  0  0  0
  6 19  1  0  0  0  0
  7  9  1  0  0  0  0
  7 10  2  0  0  0  0
  8 20  1  0  0  0  0
  8 21  1  0  0  0  0
  9 22  1  0  0  0  0
  9 23  1  0  0  0  0
  9 24  1  0  0  0  0
 10 25  1  0  0  0  0
 10 26  1  0  0  0  0
M  END
>  <PUBCHEM_COMPOUND_CID>
5320377

>  <PUBCHEM_COMPOUND_CANONICALIZED>
1

>  <PUBCHEM_CACTVS_COMPLEXITY>
159

>  <PUBCHEM_CACTVS_HBOND_ACCEPTOR>
0

>  <PUBCHEM_CACTVS_HBOND_DONOR>
0

>  <PUBCHEM_CACTVS_ROTATABLE_BOND>
3

>  <PUBCHEM_CACTVS_SUBSKEYS>
AAADceBwAAAAAAAAAAAAAAAAAAAAAAAAAAAAAAAAAAAAAAAAAAAAGAAAAAAADgCAAAACAAAAAACAAiBCAAAAAAAgAAAICAAAAAgIAAAAAQAAAAAAAAAIgAIAAAAAAAAAAAAAAAAAAAAAAAAAAAAAAAAAAA==

>  <PUBCHEM_IUPAC_OPENEYE_NAME>
(3E)-2,5,5-trimethylhepta-1,3,6-triene

>  <PUBCHEM_IUPAC_CAS_NAME>
(3E)-2,5,5-trimethylhepta-1,3,6-triene

>  <PUBCHEM_IUPAC_NAME>
(3E)-2,5,5-trimethylhepta-1,3,6-triene

>  <PUBCHEM_IUPAC_SYSTEMATIC_NAME>
(3E)-2,5,5-trimethylhepta-1,3,6-triene

>  <PUBCHEM_IUPAC_TRADITIONAL_NAME>
(3E)-2,5,5-trimethylhepta-1,3,6-triene

>  <PUBCHEM_IUPAC_INCHI>
InChI=1S/C10H16/c1-6-10(4,5)8-7-9(2)3/h6-8H,1-2H2,3-5H3/b8-7+

>  <PUBCHEM_IUPAC_INCHIKEY>
BYLJEQIUXOYKOB-BQYQJAHWSA-N

>  <PUBCHEM_XLOGP3_AA>
4.3

>  <PUBCHEM_EXACT_MASS>
136.125

>  <PUBCHEM_MOLECULAR_FORMULA>
C10H16

>  <PUBCHEM_MOLECULAR_WEIGHT>
136.238

>  <PUBCHEM_OPENEYE_CAN_SMILES>
CC(=C)C=CC(C)(C)C=C

>  <PUBCHEM_OPENEYE_ISO_SMILES>
CC(=C)/C=C/C(C)(C)C=C

>  <PUBCHEM_CACTVS_TPSA>
0

>  <PUBCHEM_MONOISOTOPIC_WEIGHT>
136.125

>  <PUBCHEM_TOTAL_CHARGE>
0

>  <PUBCHEM_HEAVY_ATOM_COUNT>
10

>  <PUBCHEM_ATOM_DEF_STEREO_COUNT>
0

>  <PUBCHEM_ATOM_UDEF_STEREO_COUNT>
0

>  <PUBCHEM_BOND_DEF_STEREO_COUNT>
1

>  <PUBCHEM_BOND_UDEF_STEREO_COUNT>
0

>  <PUBCHEM_ISOTOPIC_ATOM_COUNT>
0

>  <PUBCHEM_COMPONENT_COUNT>
1

>  <PUBCHEM_CACTVS_TAUTO_COUNT>
1

>  <PUBCHEM_COORDINATE_TYPE>
1
5
255

$$$$
