5320309
 OpenBabel06101807152D

 42 44  0  0  0  0  0  0  0  0999 V2000
    2.5836   -1.2161    0.0000 O   0  0  0  0  0  0  0  0  0  0  0  0
    2.5836   -2.8256    0.0000 O   0  0  0  0  0  0  0  0  0  0  0  0
    7.0321   -1.5240    0.0000 O   0  0  0  0  0  0  0  0  0  0  0  0
    5.2740    1.5484    0.0000 O   0  0  0  0  0  0  0  0  0  0  0  0
    6.1876    2.0276    0.0000 O   0  0  0  0  0  0  0  0  0  0  0  0
    4.3798    0.0206    0.0000 N   0  0  0  0  0  0  0  0  0  0  0  0
    6.1799    0.0276    0.0000 C   0  0  0  0  0  0  0  0  0  0  0  0
    7.0479    0.5242    0.0000 C   0  0  0  0  0  0  0  0  0  0  0  0
    5.2619   -1.5209    0.0000 C   0  0  0  0  0  0  0  0  0  0  0  0
    6.1719   -1.0140    0.0000 C   0  0  0  0  0  0  0  0  0  0  0  0
    4.3958   -1.0209    0.0000 C   0  0  0  0  0  0  0  0  0  0  0  0
    7.9197    2.0209    0.0000 C   0  0  0  0  0  0  0  0  0  0  0  0
    7.0517    1.5242    0.0000 C   0  0  0  0  0  0  0  0  0  0  0  0
    3.5298   -1.5209    0.0000 C   0  0  0  0  0  0  0  0  0  0  0  0
    5.2778    0.5484    0.0000 C   0  0  0  0  0  0  0  0  0  0  0  0
    3.5298   -2.5209    0.0000 C   0  0  0  0  0  0  0  0  0  0  0  0
    5.2619   -2.5209    0.0000 C   0  0  0  0  0  0  0  0  0  0  0  0
    4.3958   -3.0209    0.0000 C   0  0  0  0  0  0  0  0  0  0  0  0
    7.9235    3.0209    0.0000 C   0  0  0  0  0  0  0  0  0  0  0  0
    8.7838    1.5176    0.0000 C   0  0  0  0  0  0  0  0  0  0  0  0
    2.0000   -2.0209    0.0000 C   0  0  0  0  0  0  0  0  0  0  0  0
    7.9038   -1.0341    0.0000 C   0  0  0  0  0  0  0  0  0  0  0  0
    4.4060    2.0450    0.0000 C   0  0  0  0  0  0  0  0  0  0  0  0
    7.2577   -0.0592    0.0000 H   0  0  0  0  0  0  0  0  0  0  0  0
    7.6588    0.6295    0.0000 H   0  0  0  0  0  0  0  0  0  0  0  0
    7.9173    1.4009    0.0000 H   0  0  0  0  0  0  0  0  0  0  0  0
    5.7988   -2.8309    0.0000 H   0  0  0  0  0  0  0  0  0  0  0  0
    4.3958   -3.6409    0.0000 H   0  0  0  0  0  0  0  0  0  0  0  0
    8.4717    0.9818    0.0000 H   0  0  0  0  0  0  0  0  0  0  0  0
    8.5435    3.0185    0.0000 H   0  0  0  0  0  0  0  0  0  0  0  0
    7.9259    3.6409    0.0000 H   0  0  0  0  0  0  0  0  0  0  0  0
    7.3035    3.0233    0.0000 H   0  0  0  0  0  0  0  0  0  0  0  0
    9.3195    1.2055    0.0000 H   0  0  0  0  0  0  0  0  0  0  0  0
    9.0958    2.0533    0.0000 H   0  0  0  0  0  0  0  0  0  0  0  0
    1.5391   -1.6062    0.0000 H   0  0  0  0  0  0  0  0  0  0  0  0
    1.5391   -2.4356    0.0000 H   0  0  0  0  0  0  0  0  0  0  0  0
    8.2076   -1.5745    0.0000 H   0  0  0  0  0  0  0  0  0  0  0  0
    8.4443   -0.7303    0.0000 H   0  0  0  0  0  0  0  0  0  0  0  0
    7.6000   -0.4936    0.0000 H   0  0  0  0  0  0  0  0  0  0  0  0
    4.7140    2.5832    0.0000 H   0  0  0  0  0  0  0  0  0  0  0  0
    3.8679    2.3530    0.0000 H   0  0  0  0  0  0  0  0  0  0  0  0
    4.0981    1.5069    0.0000 H   0  0  0  0  0  0  0  0  0  0  0  0
  1 14  1  0  0  0  0
  1 21  1  0  0  0  0
  2 16  1  0  0  0  0
  2 21  1  0  0  0  0
  3 10  1  0  0  0  0
  3 22  1  0  0  0  0
  4 15  1  0  0  0  0
  4 23  1  0  0  0  0
  5 13  2  0  0  0  0
  6 11  1  0  0  0  0
  6 15  2  0  0  0  0
  7  8  1  0  0  0  0
  7 10  2  0  0  0  0
  7 15  1  0  0  0  0
  8 13  1  0  0  0  0
  8 24  1  0  0  0  0
  8 25  1  0  0  0  0
  9 10  1  0  0  0  0
  9 11  2  0  0  0  0
  9 17  1  0  0  0  0
 11 14  1  0  0  0  0
 12 13  1  0  0  0  0
 12 19  1  0  0  0  0
 12 20  1  0  0  0  0
 12 26  1  0  0  0  0
 14 16  2  0  0  0  0
 16 18  1  0  0  0  0
 17 18  2  0  0  0  0
 17 27  1  0  0  0  0
 18 28  1  0  0  0  0
 19 30  1  0  0  0  0
 19 31  1  0  0  0  0
 19 32  1  0  0  0  0
 20 29  1  0  0  0  0
 20 33  1  0  0  0  0
 20 34  1  0  0  0  0
 21 35  1  0  0  0  0
 21 36  1  0  0  0  0
 22 37  1  0  0  0  0
 22 38  1  0  0  0  0
 22 39  1  0  0  0  0
 23 40  1  0  0  0  0
 23 41  1  0  0  0  0
 23 42  1  0  0  0  0
M  END
>  <PUBCHEM_COMPOUND_CID>
5320309

>  <PUBCHEM_COMPOUND_CANONICALIZED>
1

>  <PUBCHEM_CACTVS_COMPLEXITY>
429

>  <PUBCHEM_CACTVS_HBOND_ACCEPTOR>
6

>  <PUBCHEM_CACTVS_HBOND_DONOR>
0

>  <PUBCHEM_CACTVS_ROTATABLE_BOND>
5

>  <PUBCHEM_CACTVS_SUBSKEYS>
AAADceB6OAAAAAAAAAAAAAAAAAAAASAAAAA8QAAAAAAAAEix8AAAHgAAAAAADQyBngMyzvIIFACoA6RyRASCiCAhYCAImCEnzJgfJ/LEtJulMCpnwB3e6Afe+P+OIAABAgACUABAAAIEAASgAAAAAAAAAA==

>  <PUBCHEM_IUPAC_OPENEYE_NAME>
1-(6,8-dimethoxy-[1,3]dioxolo[4,5-h]quinolin-7-yl)-3-methyl-butan-2-one

>  <PUBCHEM_IUPAC_CAS_NAME>
1-(6,8-dimethoxy-[1,3]dioxolo[4,5-h]quinolin-7-yl)-3-methyl-2-butanone

>  <PUBCHEM_IUPAC_NAME>
1-(6,8-dimethoxy-[1,3]dioxolo[4,5-h]quinolin-7-yl)-3-methylbutan-2-one

>  <PUBCHEM_IUPAC_SYSTEMATIC_NAME>
1-(6,8-dimethoxy-[1,3]dioxolo[4,5-h]quinolin-7-yl)-3-methyl-butan-2-one

>  <PUBCHEM_IUPAC_TRADITIONAL_NAME>
1-(6,8-dimethoxy-[1,3]dioxolo[4,5-h]quinolin-7-yl)-3-methyl-butan-2-one

>  <PUBCHEM_IUPAC_INCHI>
InChI=1S/C17H19NO5/c1-9(2)12(19)7-11-15(20-3)10-5-6-13-16(23-8-22-13)14(10)18-17(11)21-4/h5-6,9H,7-8H2,1-4H3

>  <PUBCHEM_IUPAC_INCHIKEY>
JNSVENVWIBKRQR-UHFFFAOYSA-N

>  <PUBCHEM_XLOGP3_AA>
2.9

>  <PUBCHEM_EXACT_MASS>
317.126

>  <PUBCHEM_MOLECULAR_FORMULA>
C17H19NO5

>  <PUBCHEM_MOLECULAR_WEIGHT>
317.341

>  <PUBCHEM_OPENEYE_CAN_SMILES>
CC(C)C(=O)CC1=C(C2=C(C3=C(C=C2)OCO3)N=C1OC)OC

>  <PUBCHEM_OPENEYE_ISO_SMILES>
CC(C)C(=O)CC1=C(C2=C(C3=C(C=C2)OCO3)N=C1OC)OC

>  <PUBCHEM_CACTVS_TPSA>
66.9

>  <PUBCHEM_MONOISOTOPIC_WEIGHT>
317.126

>  <PUBCHEM_TOTAL_CHARGE>
0

>  <PUBCHEM_HEAVY_ATOM_COUNT>
23

>  <PUBCHEM_ATOM_DEF_STEREO_COUNT>
0

>  <PUBCHEM_ATOM_UDEF_STEREO_COUNT>
0

>  <PUBCHEM_BOND_DEF_STEREO_COUNT>
0

>  <PUBCHEM_BOND_UDEF_STEREO_COUNT>
0

>  <PUBCHEM_ISOTOPIC_ATOM_COUNT>
0

>  <PUBCHEM_COMPONENT_COUNT>
1

>  <PUBCHEM_CACTVS_TAUTO_COUNT>
3

>  <PUBCHEM_COORDINATE_TYPE>
1
5
255

>  <PUBCHEM_BONDANNOTATIONS>
11  14  8
14  16  8
16  18  8
17  18  8
6  11  8
6  15  8
7  10  8
7  15  8
9  10  8
9  11  8
9  17  8

$$$$
