5320710
 OpenBabel06101807152D

 39 40  0  0  1  0  0  0  0  0999 V2000
    7.1260    1.1486    0.0000 O   0  0  0  0  0  0  0  0  0  0  0  0
    2.1861   -0.2671    0.0000 O   0  0  0  0  0  0  0  0  0  0  0  0
    5.3742    0.2488    0.0000 C   0  0  3  0  0  0  0  0  0  0  0  0
    6.3189    0.5582    0.0000 C   0  0  3  0  0  0  0  0  0  0  0  0
    5.3792   -0.7512    0.0000 C   0  0  3  0  0  0  0  0  0  0  0  0
    6.9065   -0.2436    0.0000 C   0  0  0  0  0  0  0  0  0  0  0  0
    6.3269   -1.0512    0.0000 C   0  0  0  0  0  0  0  0  0  0  0  0
    4.5893    0.8684    0.0000 C   0  0  0  0  0  0  0  0  0  0  0  0
    4.6005   -1.3786    0.0000 C   0  0  0  0  0  0  0  0  0  0  0  0
    6.0068    1.5083    0.0000 C   0  0  0  0  0  0  0  0  0  0  0  0
    3.6155    0.6410    0.0000 C   0  0  0  0  0  0  0  0  0  0  0  0
    3.6244   -1.1609    0.0000 C   0  0  0  0  0  0  0  0  0  0  0  0
    4.8278   -2.3524    0.0000 C   0  0  0  0  0  0  0  0  0  0  0  0
    3.1861   -0.2621    0.0000 C   0  0  0  0  0  0  0  0  0  0  0  0
    2.9881    1.4197    0.0000 C   0  0  0  0  0  0  0  0  0  0  0  0
    3.3488    2.3524    0.0000 C   0  0  0  0  0  0  0  0  0  0  0  0
    2.0000    1.2657    0.0000 C   0  0  0  0  0  0  0  0  0  0  0  0
    5.5229    1.0857    0.0000 H   0  0  0  0  0  0  0  0  0  0  0  0
    5.5362   -1.5866    0.0000 H   0  0  0  0  0  0  0  0  0  0  0  0
    7.3694   -0.6560    0.0000 H   0  0  0  0  0  0  0  0  0  0  0  0
    7.3653    0.1734    0.0000 H   0  0  0  0  0  0  0  0  0  0  0  0
    6.0787   -1.6194    0.0000 H   0  0  0  0  0  0  0  0  0  0  0  0
    6.8658   -1.3578    0.0000 H   0  0  0  0  0  0  0  0  0  0  0  0
    5.0721    1.2574    0.0000 H   0  0  0  0  0  0  0  0  0  0  0  0
    4.3175    1.4256    0.0000 H   0  0  0  0  0  0  0  0  0  0  0  0
    6.5958    1.7018    0.0000 H   0  0  0  0  0  0  0  0  0  0  0  0
    5.8133    2.0973    0.0000 H   0  0  0  0  0  0  0  0  0  0  0  0
    5.4177    1.3148    0.0000 H   0  0  0  0  0  0  0  0  0  0  0  0
    7.6932    0.8983    0.0000 H   0  0  0  0  0  0  0  0  0  0  0  0
    3.2403   -1.6476    0.0000 H   0  0  0  0  0  0  0  0  0  0  0  0
    4.2241   -2.4934    0.0000 H   0  0  0  0  0  0  0  0  0  0  0  0
    4.9688   -2.9562    0.0000 H   0  0  0  0  0  0  0  0  0  0  0  0
    5.4316   -2.2114    0.0000 H   0  0  0  0  0  0  0  0  0  0  0  0
    3.9270    2.1288    0.0000 H   0  0  0  0  0  0  0  0  0  0  0  0
    3.5724    2.9306    0.0000 H   0  0  0  0  0  0  0  0  0  0  0  0
    2.7705    2.5760    0.0000 H   0  0  0  0  0  0  0  0  0  0  0  0
    1.9045    1.8783    0.0000 H   0  0  0  0  0  0  0  0  0  0  0  0
    1.3874    1.1703    0.0000 H   0  0  0  0  0  0  0  0  0  0  0  0
    2.0955    0.6531    0.0000 H   0  0  0  0  0  0  0  0  0  0  0  0
  1  4  1  0  0  0  0
  1 29  1  0  0  0  0
  2 14  2  0  0  0  0
  3  4  1  0  0  0  0
  3  5  1  0  0  0  0
  3  8  1  0  0  0  0
  3 18  1  0  0  0  0
  4  6  1  0  0  0  0
  4 10  1  0  0  0  0
  5  7  1  0  0  0  0
  5  9  1  0  0  0  0
  5 19  1  0  0  0  0
  6  7  1  0  0  0  0
  6 20  1  0  0  0  0
  6 21  1  0  0  0  0
  7 22  1  0  0  0  0
  7 23  1  0  0  0  0
  8 11  1  0  0  0  0
  8 24  1  0  0  0  0
  8 25  1  0  0  0  0
  9 12  2  0  0  0  0
  9 13  1  0  0  0  0
 10 26  1  0  0  0  0
 10 27  1  0  0  0  0
 10 28  1  0  0  0  0
 11 14  1  0  0  0  0
 11 15  2  0  0  0  0
 12 14  1  0  0  0  0
 12 30  1  0  0  0  0
 13 31  1  0  0  0  0
 13 32  1  0  0  0  0
 13 33  1  0  0  0  0
 15 16  1  0  0  0  0
 15 17  1  0  0  0  0
 16 34  1  0  0  0  0
 16 35  1  0  0  0  0
 16 36  1  0  0  0  0
 17 37  1  0  0  0  0
 17 38  1  0  0  0  0
 17 39  1  0  0  0  0
M  END
>  <PUBCHEM_COMPOUND_CID>
5320710

>  <PUBCHEM_COMPOUND_CANONICALIZED>
1

>  <PUBCHEM_CACTVS_COMPLEXITY>
413

>  <PUBCHEM_CACTVS_HBOND_ACCEPTOR>
2

>  <PUBCHEM_CACTVS_HBOND_DONOR>
1

>  <PUBCHEM_CACTVS_ROTATABLE_BOND>
0

>  <PUBCHEM_CACTVS_SUBSKEYS>
AAADceBwMAAAAAAAAAAAAAAAAAAAAYAAAAAAAAAABAAAAACAAAAAGgAACAAADUSAgAACAAAAAgCIAqBSAAAAAAAgAAAACAEAAEgAABIAAQAAQAAEgAAIAQOIzODOgAAAAAAAAAAAAAAAAAAAAYAADAAAAA==

>  <PUBCHEM_IUPAC_OPENEYE_NAME>
3-hydroxy-5-isopropylidene-3,8-dimethyl-2,3a,4,8a-tetrahydro-1H-azulen-6-one

>  <PUBCHEM_IUPAC_CAS_NAME>
3-hydroxy-3,8-dimethyl-5-propan-2-ylidene-2,3a,4,8a-tetrahydro-1H-azulen-6-one

>  <PUBCHEM_IUPAC_NAME>
3-hydroxy-3,8-dimethyl-5-propan-2-ylidene-2,3a,4,8a-tetrahydro-1H-azulen-6-one

>  <PUBCHEM_IUPAC_SYSTEMATIC_NAME>
3,8-dimethyl-3-oxidanyl-5-propan-2-ylidene-2,3a,4,8a-tetrahydro-1H-azulen-6-one

>  <PUBCHEM_IUPAC_TRADITIONAL_NAME>
3-hydroxy-5-isopropylidene-3,8-dimethyl-2,3a,4,8a-tetrahydro-1H-azulen-6-one

>  <PUBCHEM_IUPAC_INCHI>
InChI=1S/C15H22O2/c1-9(2)12-8-13-11(5-6-15(13,4)17)10(3)7-14(12)16/h7,11,13,17H,5-6,8H2,1-4H3

>  <PUBCHEM_IUPAC_INCHIKEY>
RHBOHEXDGUVIIY-UHFFFAOYSA-N

>  <PUBCHEM_XLOGP3_AA>
2.3

>  <PUBCHEM_EXACT_MASS>
234.162

>  <PUBCHEM_MOLECULAR_FORMULA>
C15H22O2

>  <PUBCHEM_MOLECULAR_WEIGHT>
234.339

>  <PUBCHEM_OPENEYE_CAN_SMILES>
CC1=CC(=O)C(=C(C)C)CC2C1CCC2(C)O

>  <PUBCHEM_OPENEYE_ISO_SMILES>
CC1=CC(=O)C(=C(C)C)CC2C1CCC2(C)O

>  <PUBCHEM_CACTVS_TPSA>
37.3

>  <PUBCHEM_MONOISOTOPIC_WEIGHT>
234.162

>  <PUBCHEM_TOTAL_CHARGE>
0

>  <PUBCHEM_HEAVY_ATOM_COUNT>
17

>  <PUBCHEM_ATOM_DEF_STEREO_COUNT>
0

>  <PUBCHEM_ATOM_UDEF_STEREO_COUNT>
3

>  <PUBCHEM_BOND_DEF_STEREO_COUNT>
0

>  <PUBCHEM_BOND_UDEF_STEREO_COUNT>
0

>  <PUBCHEM_ISOTOPIC_ATOM_COUNT>
0

>  <PUBCHEM_COMPONENT_COUNT>
1

>  <PUBCHEM_CACTVS_TAUTO_COUNT>
13

>  <PUBCHEM_COORDINATE_TYPE>
1
5
255

>  <PUBCHEM_BONDANNOTATIONS>
3  18  3
4  10  3
5  19  3

$$$$
