5320206
 OpenBabel06101807152D

 43 45  0  0  0  0  0  0  0  0999 V2000
    3.9061    1.0000    0.0000 O   0  0  0  0  0  0  0  0  0  0  0  0
    7.4420    0.9722    0.0000 O   0  0  0  0  0  0  0  0  0  0  0  0
    5.6660   -2.0346    0.0000 O   0  0  0  0  0  0  0  0  0  0  0  0
    8.3180    2.5105    0.0000 O   0  0  0  0  0  0  0  0  0  0  0  0
    7.3981   -1.0346    0.0000 C   0  0  0  0  0  0  0  0  0  0  0  0
    6.5320   -0.5346    0.0000 C   0  0  0  0  0  0  0  0  0  0  0  0
    3.0000    0.4862    0.0000 C   0  0  0  0  0  0  0  0  0  0  0  0
    4.8000   -0.5346    0.0000 C   0  0  0  0  0  0  0  0  0  0  0  0
    4.8000    0.4654    0.0000 C   0  0  0  0  0  0  0  0  0  0  0  0
    6.5320    0.4654    0.0000 C   0  0  0  0  0  0  0  0  0  0  0  0
    5.6660   -1.0346    0.0000 C   0  0  0  0  0  0  0  0  0  0  0  0
    5.6660    0.9654    0.0000 C   0  0  0  0  0  0  0  0  0  0  0  0
    6.8981   -1.9007    0.0000 C   0  0  0  0  0  0  0  0  0  0  0  0
    7.8981   -0.1686    0.0000 C   0  0  0  0  0  0  0  0  0  0  0  0
    3.0000   -0.5554    0.0000 C   0  0  0  0  0  0  0  0  0  0  0  0
    3.9061   -1.0693    0.0000 C   0  0  0  0  0  0  0  0  0  0  0  0
    8.2641   -1.5346    0.0000 C   0  0  0  0  0  0  0  0  0  0  0  0
    2.0000    0.4900    0.0000 C   0  0  0  0  0  0  0  0  0  0  0  0
    2.5033    1.3541    0.0000 C   0  0  0  0  0  0  0  0  0  0  0  0
    5.6500    2.0069    0.0000 C   0  0  0  0  0  0  0  0  0  0  0  0
    6.5480    2.5346    0.0000 C   0  0  0  0  0  0  0  0  0  0  0  0
    7.4501    2.0138    0.0000 C   0  0  0  0  0  0  0  0  0  0  0  0
    8.2641   -2.5346    0.0000 C   0  0  0  0  0  0  0  0  0  0  0  0
    8.4350   -0.4786    0.0000 H   0  0  0  0  0  0  0  0  0  0  0  0
    8.2081    0.3683    0.0000 H   0  0  0  0  0  0  0  0  0  0  0  0
    7.3611    0.1414    0.0000 H   0  0  0  0  0  0  0  0  0  0  0  0
    6.3611   -1.5907    0.0000 H   0  0  0  0  0  0  0  0  0  0  0  0
    6.5881   -2.4376    0.0000 H   0  0  0  0  0  0  0  0  0  0  0  0
    7.4350   -2.2107    0.0000 H   0  0  0  0  0  0  0  0  0  0  0  0
    2.4643   -0.8675    0.0000 H   0  0  0  0  0  0  0  0  0  0  0  0
    3.9132   -1.6892    0.0000 H   0  0  0  0  0  0  0  0  0  0  0  0
    8.8010   -1.2246    0.0000 H   0  0  0  0  0  0  0  0  0  0  0  0
    2.0024    1.1100    0.0000 H   0  0  0  0  0  0  0  0  0  0  0  0
    3.0415    1.6621    0.0000 H   0  0  0  0  0  0  0  0  0  0  0  0
    2.1954    1.8923    0.0000 H   0  0  0  0  0  0  0  0  0  0  0  0
    1.9652    1.0462    0.0000 H   0  0  0  0  0  0  0  0  0  0  0  0
    1.3800    0.4924    0.0000 H   0  0  0  0  0  0  0  0  0  0  0  0
    1.9976   -0.1300    0.0000 H   0  0  0  0  0  0  0  0  0  0  0  0
    5.1095    2.3106    0.0000 H   0  0  0  0  0  0  0  0  0  0  0  0
    6.5456    3.1546    0.0000 H   0  0  0  0  0  0  0  0  0  0  0  0
    5.1291   -2.3446    0.0000 H   0  0  0  0  0  0  0  0  0  0  0  0
    7.7272   -2.8446    0.0000 H   0  0  0  0  0  0  0  0  0  0  0  0
    8.8010   -2.8446    0.0000 H   0  0  0  0  0  0  0  0  0  0  0  0
  1  7  1  0  0  0  0
  1  9  1  0  0  0  0
  2 10  1  0  0  0  0
  2 22  1  0  0  0  0
  3 11  1  0  0  0  0
  3 41  1  0  0  0  0
  4 22  2  0  0  0  0
  5  6  1  0  0  0  0
  5 13  1  0  0  0  0
  5 14  1  0  0  0  0
  5 17  1  0  0  0  0
  6 10  1  0  0  0  0
  6 11  2  0  0  0  0
  7 15  1  0  0  0  0
  7 18  1  0  0  0  0
  7 19  1  0  0  0  0
  8  9  2  0  0  0  0
  8 11  1  0  0  0  0
  8 16  1  0  0  0  0
  9 12  1  0  0  0  0
 10 12  2  0  0  0  0
 12 20  1  0  0  0  0
 13 27  1  0  0  0  0
 13 28  1  0  0  0  0
 13 29  1  0  0  0  0
 14 24  1  0  0  0  0
 14 25  1  0  0  0  0
 14 26  1  0  0  0  0
 15 16  2  0  0  0  0
 15 30  1  0  0  0  0
 16 31  1  0  0  0  0
 17 23  2  0  0  0  0
 17 32  1  0  0  0  0
 18 33  1  0  0  0  0
 18 37  1  0  0  0  0
 18 38  1  0  0  0  0
 19 34  1  0  0  0  0
 19 35  1  0  0  0  0
 19 36  1  0  0  0  0
 20 21  2  0  0  0  0
 20 39  1  0  0  0  0
 21 22  1  0  0  0  0
 21 40  1  0  0  0  0
 23 42  1  0  0  0  0
 23 43  1  0  0  0  0
M  END
>  <PUBCHEM_COMPOUND_CID>
5320206

>  <PUBCHEM_COMPOUND_CANONICALIZED>
1

>  <PUBCHEM_CACTVS_COMPLEXITY>
572

>  <PUBCHEM_CACTVS_HBOND_ACCEPTOR>
4

>  <PUBCHEM_CACTVS_HBOND_DONOR>
1

>  <PUBCHEM_CACTVS_ROTATABLE_BOND>
2

>  <PUBCHEM_CACTVS_SUBSKEYS>
AAADceB4OAAAAAAAAAAAAAAAAAAAAAAAAAAwQIAAAAAAAACBAAAAGgAACAAADkSAmAACDoAABgCIAiDSCAACCAAgIAAIiAAECMgMJyKGMBqCeiClwBUIuYeA4PwPoAACCAAIAABAAAQQABAAAAAAAAAAAA==

>  <PUBCHEM_IUPAC_OPENEYE_NAME>
6-(1,1-dimethylallyl)-5-hydroxy-2,2-dimethyl-pyrano[2,3-h]chromen-8-one

>  <PUBCHEM_IUPAC_CAS_NAME>
5-hydroxy-2,2-dimethyl-6-(2-methylbut-3-en-2-yl)-8-pyrano[2,3-h][1]benzopyranone

>  <PUBCHEM_IUPAC_NAME>
5-hydroxy-2,2-dimethyl-6-(2-methylbut-3-en-2-yl)pyrano[2,3-h]chromen-8-one

>  <PUBCHEM_IUPAC_SYSTEMATIC_NAME>
2,2-dimethyl-6-(2-methylbut-3-en-2-yl)-5-oxidanyl-pyrano[2,3-h]chromen-8-one

>  <PUBCHEM_IUPAC_TRADITIONAL_NAME>
6-(1,1-dimethylallyl)-5-hydroxy-2,2-dimethyl-pyrano[2,3-h]chromen-8-one

>  <PUBCHEM_IUPAC_INCHI>
InChI=1S/C19H20O4/c1-6-18(2,3)14-15(21)11-9-10-19(4,5)23-16(11)12-7-8-13(20)22-17(12)14/h6-10,21H,1H2,2-5H3

>  <PUBCHEM_IUPAC_INCHIKEY>
FREXEHTVBRSRGJ-UHFFFAOYSA-N

>  <PUBCHEM_XLOGP3_AA>
4.4

>  <PUBCHEM_EXACT_MASS>
312.136

>  <PUBCHEM_MOLECULAR_FORMULA>
C19H20O4

>  <PUBCHEM_MOLECULAR_WEIGHT>
312.365

>  <PUBCHEM_OPENEYE_CAN_SMILES>
CC1(C=CC2=C(O1)C3=C(C(=C2O)C(C)(C)C=C)OC(=O)C=C3)C

>  <PUBCHEM_OPENEYE_ISO_SMILES>
CC1(C=CC2=C(O1)C3=C(C(=C2O)C(C)(C)C=C)OC(=O)C=C3)C

>  <PUBCHEM_CACTVS_TPSA>
55.8

>  <PUBCHEM_MONOISOTOPIC_WEIGHT>
312.136

>  <PUBCHEM_TOTAL_CHARGE>
0

>  <PUBCHEM_HEAVY_ATOM_COUNT>
23

>  <PUBCHEM_ATOM_DEF_STEREO_COUNT>
0

>  <PUBCHEM_ATOM_UDEF_STEREO_COUNT>
0

>  <PUBCHEM_BOND_DEF_STEREO_COUNT>
0

>  <PUBCHEM_BOND_UDEF_STEREO_COUNT>
0

>  <PUBCHEM_ISOTOPIC_ATOM_COUNT>
0

>  <PUBCHEM_COMPONENT_COUNT>
1

>  <PUBCHEM_CACTVS_TAUTO_COUNT>
5

>  <PUBCHEM_COORDINATE_TYPE>
1
5
255

>  <PUBCHEM_BONDANNOTATIONS>
10  12  8
12  20  8
2  10  8
2  22  8
20  21  8
21  22  8
6  10  8
6  11  8
8  11  8
8  9  8
9  12  8

$$$$
