5320290
 OpenBabel06101807152D

 36 38  0  0  0  0  0  0  0  0999 V2000
    6.0682   -1.2602    0.0000 O   0  0  0  0  0  0  0  0  0  0  0  0
    7.8167    1.7744    0.0000 O   0  0  0  0  0  0  0  0  0  0  0  0
    9.5984    0.7639    0.0000 O   0  0  0  0  0  0  0  0  0  0  0  0
    9.5984   -1.2844    0.0000 O   0  0  0  0  0  0  0  0  0  0  0  0
    6.0682    1.7398    0.0000 O   0  0  0  0  0  0  0  0  0  0  0  0
    2.5381    0.7639    0.0000 O   0  0  0  0  0  0  0  0  0  0  0  0
    6.9343    0.2398    0.0000 C   0  0  0  0  0  0  0  0  0  0  0  0
    6.9343   -0.7602    0.0000 C   0  0  0  0  0  0  0  0  0  0  0  0
    5.2022    0.2398    0.0000 C   0  0  0  0  0  0  0  0  0  0  0  0
    7.8282    0.7744    0.0000 C   0  0  0  0  0  0  0  0  0  0  0  0
    6.0682    0.7398    0.0000 C   0  0  0  0  0  0  0  0  0  0  0  0
    5.2022   -0.7602    0.0000 C   0  0  0  0  0  0  0  0  0  0  0  0
    8.7343    0.2606    0.0000 C   0  0  0  0  0  0  0  0  0  0  0  0
    7.8282   -1.2949    0.0000 C   0  0  0  0  0  0  0  0  0  0  0  0
    8.7343   -0.7810    0.0000 C   0  0  0  0  0  0  0  0  0  0  0  0
    4.3083    0.7744    0.0000 C   0  0  0  0  0  0  0  0  0  0  0  0
    4.3083   -1.2949    0.0000 C   0  0  0  0  0  0  0  0  0  0  0  0
    3.4022    0.2606    0.0000 C   0  0  0  0  0  0  0  0  0  0  0  0
    3.4022   -0.7810    0.0000 C   0  0  0  0  0  0  0  0  0  0  0  0
    8.6768    2.2844    0.0000 C   0  0  0  0  0  0  0  0  0  0  0  0
   10.4663    0.2673    0.0000 C   0  0  0  0  0  0  0  0  0  0  0  0
    9.5945   -2.2844    0.0000 C   0  0  0  0  0  0  0  0  0  0  0  0
    7.8210   -1.9148    0.0000 H   0  0  0  0  0  0  0  0  0  0  0  0
    4.3154    1.3944    0.0000 H   0  0  0  0  0  0  0  0  0  0  0  0
    4.3154   -1.9148    0.0000 H   0  0  0  0  0  0  0  0  0  0  0  0
    2.8665   -1.0931    0.0000 H   0  0  0  0  0  0  0  0  0  0  0  0
    8.9930    1.7510    0.0000 H   0  0  0  0  0  0  0  0  0  0  0  0
    9.2102    2.6006    0.0000 H   0  0  0  0  0  0  0  0  0  0  0  0
    8.3606    2.8177    0.0000 H   0  0  0  0  0  0  0  0  0  0  0  0
   10.1584   -0.2709    0.0000 H   0  0  0  0  0  0  0  0  0  0  0  0
   11.0045   -0.0407    0.0000 H   0  0  0  0  0  0  0  0  0  0  0  0
   10.7743    0.8054    0.0000 H   0  0  0  0  0  0  0  0  0  0  0  0
    8.9745   -2.2820    0.0000 H   0  0  0  0  0  0  0  0  0  0  0  0
    9.5921   -2.9044    0.0000 H   0  0  0  0  0  0  0  0  0  0  0  0
   10.2145   -2.2868    0.0000 H   0  0  0  0  0  0  0  0  0  0  0  0
    2.0000    0.4560    0.0000 H   0  0  0  0  0  0  0  0  0  0  0  0
  1  8  1  0  0  0  0
  1 12  1  0  0  0  0
  2 10  1  0  0  0  0
  2 20  1  0  0  0  0
  3 13  1  0  0  0  0
  3 21  1  0  0  0  0
  4 15  1  0  0  0  0
  4 22  1  0  0  0  0
  5 11  2  0  0  0  0
  6 18  1  0  0  0  0
  6 36  1  0  0  0  0
  7  8  1  0  0  0  0
  7 10  2  0  0  0  0
  7 11  1  0  0  0  0
  8 14  2  0  0  0  0
  9 11  1  0  0  0  0
  9 12  2  0  0  0  0
  9 16  1  0  0  0  0
 10 13  1  0  0  0  0
 12 17  1  0  0  0  0
 13 15  2  0  0  0  0
 14 15  1  0  0  0  0
 14 23  1  0  0  0  0
 16 18  2  0  0  0  0
 16 24  1  0  0  0  0
 17 19  2  0  0  0  0
 17 25  1  0  0  0  0
 18 19  1  0  0  0  0
 19 26  1  0  0  0  0
 20 27  1  0  0  0  0
 20 28  1  0  0  0  0
 20 29  1  0  0  0  0
 21 30  1  0  0  0  0
 21 31  1  0  0  0  0
 21 32  1  0  0  0  0
 22 33  1  0  0  0  0
 22 34  1  0  0  0  0
 22 35  1  0  0  0  0
M  END
>  <PUBCHEM_COMPOUND_CID>
5320290

>  <PUBCHEM_COMPOUND_CANONICALIZED>
1

>  <PUBCHEM_CACTVS_COMPLEXITY>
413

>  <PUBCHEM_CACTVS_HBOND_ACCEPTOR>
6

>  <PUBCHEM_CACTVS_HBOND_DONOR>
1

>  <PUBCHEM_CACTVS_ROTATABLE_BOND>
3

>  <PUBCHEM_CACTVS_SUBSKEYS>
AAADccB4OAAAAAAAAAAAAAAAAAAAAAAAAAA0YIAAAAAAAACRQAAAGgAACAAADASAmAIyBoAABgCIAqBSAAACCAAkIAAIiAEGiMgNJzaGNRqCeWKl4BUKuYfK7PzOIQABCAAIQABCAAIQABCAAAAAAAAAAA==

>  <PUBCHEM_IUPAC_OPENEYE_NAME>
7-hydroxy-1,2,3-trimethoxy-xanthen-9-one

>  <PUBCHEM_IUPAC_CAS_NAME>
7-hydroxy-1,2,3-trimethoxy-9-xanthenone

>  <PUBCHEM_IUPAC_NAME>
7-hydroxy-1,2,3-trimethoxyxanthen-9-one

>  <PUBCHEM_IUPAC_SYSTEMATIC_NAME>
1,2,3-trimethoxy-7-oxidanyl-xanthen-9-one

>  <PUBCHEM_IUPAC_TRADITIONAL_NAME>
7-hydroxy-1,2,3-trimethoxy-xanthone

>  <PUBCHEM_IUPAC_INCHI>
InChI=1S/C16H14O6/c1-19-12-7-11-13(16(21-3)15(12)20-2)14(18)9-6-8(17)4-5-10(9)22-11/h4-7,17H,1-3H3

>  <PUBCHEM_IUPAC_INCHIKEY>
PLTRADDVONOEAX-UHFFFAOYSA-N

>  <PUBCHEM_XLOGP3_AA>
2.5

>  <PUBCHEM_EXACT_MASS>
302.079

>  <PUBCHEM_MOLECULAR_FORMULA>
C16H14O6

>  <PUBCHEM_MOLECULAR_WEIGHT>
302.282

>  <PUBCHEM_OPENEYE_CAN_SMILES>
COC1=C(C(=C2C(=C1)OC3=C(C2=O)C=C(C=C3)O)OC)OC

>  <PUBCHEM_OPENEYE_ISO_SMILES>
COC1=C(C(=C2C(=C1)OC3=C(C2=O)C=C(C=C3)O)OC)OC

>  <PUBCHEM_CACTVS_TPSA>
74.2

>  <PUBCHEM_MONOISOTOPIC_WEIGHT>
302.079

>  <PUBCHEM_TOTAL_CHARGE>
0

>  <PUBCHEM_HEAVY_ATOM_COUNT>
22

>  <PUBCHEM_ATOM_DEF_STEREO_COUNT>
0

>  <PUBCHEM_ATOM_UDEF_STEREO_COUNT>
0

>  <PUBCHEM_BOND_DEF_STEREO_COUNT>
0

>  <PUBCHEM_BOND_UDEF_STEREO_COUNT>
0

>  <PUBCHEM_ISOTOPIC_ATOM_COUNT>
0

>  <PUBCHEM_COMPONENT_COUNT>
1

>  <PUBCHEM_CACTVS_TAUTO_COUNT>
3

>  <PUBCHEM_COORDINATE_TYPE>
1
5
255

>  <PUBCHEM_BONDANNOTATIONS>
1  12  8
1  8  8
10  13  8
12  17  8
13  15  8
14  15  8
16  18  8
17  19  8
18  19  8
7  10  8
7  11  8
7  8  8
8  14  8
9  11  8
9  12  8
9  16  8

$$$$
