5320505
 OpenBabel06101807152D

 52 53  0  0  1  0  0  0  0  0999 V2000
    8.6651   -0.5242    0.0000 O   0  0  0  0  0  0  0  0  0  0  0  0
    2.5369   -1.0000    0.0000 O   0  0  0  0  0  0  0  0  0  0  0  0
    3.4030    1.5000    0.0000 O   0  0  0  0  0  0  0  0  0  0  0  0
    9.5369    0.9725    0.0000 O   0  0  0  0  0  0  0  0  0  0  0  0
    6.0010    0.0000    0.0000 C   0  0  2  0  0  0  0  0  0  0  0  0
    6.8950   -0.5347    0.0000 C   0  0  2  0  0  0  0  0  0  0  0  0
    7.8010   -0.0208    0.0000 C   0  0  3  0  0  0  0  0  0  0  0  0
    6.0010    1.0000    0.0000 C   0  0  0  0  0  0  0  0  0  0  0  0
    7.8010    1.0208    0.0000 C   0  0  0  0  0  0  0  0  0  0  0  0
    6.8950    1.5346    0.0000 C   0  0  0  0  0  0  0  0  0  0  0  0
    5.1350   -0.5000    0.0000 C   0  0  0  0  0  0  0  0  0  0  0  0
    6.0010   -1.0000    0.0000 C   0  0  0  0  0  0  0  0  0  0  0  0
    6.8834   -1.5346    0.0000 C   0  0  0  0  0  0  0  0  0  0  0  0
    4.2690    0.0000    0.0000 C   0  0  0  0  0  0  0  0  0  0  0  0
    5.1350    1.5000    0.0000 C   0  0  0  0  0  0  0  0  0  0  0  0
    4.2690    1.0000    0.0000 C   0  0  0  0  0  0  0  0  0  0  0  0
    3.4030   -0.5000    0.0000 C   0  0  0  0  0  0  0  0  0  0  0  0
    3.9030   -1.3661    0.0000 C   0  0  0  0  0  0  0  0  0  0  0  0
    2.9030    0.3660    0.0000 C   0  0  0  0  0  0  0  0  0  0  0  0
    9.5331   -0.0275    0.0000 C   0  0  0  0  0  0  0  0  0  0  0  0
   10.3972   -0.5309    0.0000 C   0  0  0  0  0  0  0  0  0  0  0  0
   10.3933   -1.5308    0.0000 C   0  0  0  0  0  0  0  0  0  0  0  0
   11.2651   -0.0342    0.0000 C   0  0  0  0  0  0  0  0  0  0  0  0
   11.2690    0.9658    0.0000 C   0  0  0  0  0  0  0  0  0  0  0  0
    7.4289   -0.8499    0.0000 H   0  0  0  0  0  0  0  0  0  0  0  0
    7.7961   -0.8708    0.0000 H   0  0  0  0  0  0  0  0  0  0  0  0
    8.4119    0.9147    0.0000 H   0  0  0  0  0  0  0  0  0  0  0  0
    8.0101    1.6045    0.0000 H   0  0  0  0  0  0  0  0  0  0  0  0
    7.2886    2.0136    0.0000 H   0  0  0  0  0  0  0  0  0  0  0  0
    6.4904    2.0044    0.0000 H   0  0  0  0  0  0  0  0  0  0  0  0
    5.1350   -1.1200    0.0000 H   0  0  0  0  0  0  0  0  0  0  0  0
    5.3810   -1.0000    0.0000 H   0  0  0  0  0  0  0  0  0  0  0  0
    6.0010   -1.6200    0.0000 H   0  0  0  0  0  0  0  0  0  0  0  0
    6.6210   -1.0000    0.0000 H   0  0  0  0  0  0  0  0  0  0  0  0
    6.2635   -1.5275    0.0000 H   0  0  0  0  0  0  0  0  0  0  0  0
    6.8762   -2.1546    0.0000 H   0  0  0  0  0  0  0  0  0  0  0  0
    7.5034   -1.5418    0.0000 H   0  0  0  0  0  0  0  0  0  0  0  0
    5.1350    2.1200    0.0000 H   0  0  0  0  0  0  0  0  0  0  0  0
    3.3660   -1.6761    0.0000 H   0  0  0  0  0  0  0  0  0  0  0  0
    4.2130   -1.9030    0.0000 H   0  0  0  0  0  0  0  0  0  0  0  0
    4.4399   -1.0561    0.0000 H   0  0  0  0  0  0  0  0  0  0  0  0
    3.4399    0.6760    0.0000 H   0  0  0  0  0  0  0  0  0  0  0  0
    2.5930    0.9029    0.0000 H   0  0  0  0  0  0  0  0  0  0  0  0
    2.3660    0.0560    0.0000 H   0  0  0  0  0  0  0  0  0  0  0  0
    2.0000   -0.6900    0.0000 H   0  0  0  0  0  0  0  0  0  0  0  0
    9.7733   -1.5285    0.0000 H   0  0  0  0  0  0  0  0  0  0  0  0
   10.3909   -2.1508    0.0000 H   0  0  0  0  0  0  0  0  0  0  0  0
   11.0133   -1.5332    0.0000 H   0  0  0  0  0  0  0  0  0  0  0  0
   11.8009   -0.3463    0.0000 H   0  0  0  0  0  0  0  0  0  0  0  0
   11.8890    0.9634    0.0000 H   0  0  0  0  0  0  0  0  0  0  0  0
   11.2714    1.5858    0.0000 H   0  0  0  0  0  0  0  0  0  0  0  0
   10.6490    0.9682    0.0000 H   0  0  0  0  0  0  0  0  0  0  0  0
  1  7  1  0  0  0  0
  1 20  1  0  0  0  0
  2 17  1  0  0  0  0
  2 45  1  0  0  0  0
  3 16  2  0  0  0  0
  4 20  2  0  0  0  0
  5  6  1  1  0  0  0
  5  8  1  0  0  0  0
  5 11  1  0  0  0  0
  5 12  1  0  0  0  0
  6  7  1  6  0  0  0
  6 13  1  0  0  0  0
  6 25  1  0  0  0  0
  7  9  1  0  0  0  0
  7 26  1  0  0  0  0
  8 10  1  0  0  0  0
  8 15  2  0  0  0  0
  9 10  1  0  0  0  0
  9 27  1  0  0  0  0
  9 28  1  0  0  0  0
 10 29  1  0  0  0  0
 10 30  1  0  0  0  0
 11 14  2  0  0  0  0
 11 31  1  0  0  0  0
 12 32  1  0  0  0  0
 12 33  1  0  0  0  0
 12 34  1  0  0  0  0
 13 35  1  0  0  0  0
 13 36  1  0  0  0  0
 13 37  1  0  0  0  0
 14 16  1  0  0  0  0
 14 17  1  0  0  0  0
 15 16  1  0  0  0  0
 15 38  1  0  0  0  0
 17 18  1  0  0  0  0
 17 19  1  0  0  0  0
 18 39  1  0  0  0  0
 18 40  1  0  0  0  0
 18 41  1  0  0  0  0
 19 42  1  0  0  0  0
 19 43  1  0  0  0  0
 19 44  1  0  0  0  0
 20 21  1  0  0  0  0
 21 22  1  0  0  0  0
 21 23  2  0  0  0  0
 22 46  1  0  0  0  0
 22 47  1  0  0  0  0
 22 48  1  0  0  0  0
 23 24  1  0  0  0  0
 23 49  1  0  0  0  0
 24 50  1  0  0  0  0
 24 51  1  0  0  0  0
 24 52  1  0  0  0  0
M  END
>  <PUBCHEM_COMPOUND_CID>
5320505

>  <PUBCHEM_COMPOUND_CANONICALIZED>
1

>  <PUBCHEM_CACTVS_COMPLEXITY>
651

>  <PUBCHEM_CACTVS_HBOND_ACCEPTOR>
4

>  <PUBCHEM_CACTVS_HBOND_DONOR>
1

>  <PUBCHEM_CACTVS_ROTATABLE_BOND>
4

>  <PUBCHEM_CACTVS_SUBSKEYS>
AAADceB4OAAAAAAAAAAAAAAAAAAAAAAAAAAwQAAAAAAAAACAAAAAGgAACAAAD1SggAICCAAABgCIAqDSCAAAAAAgAAAACAEAAEgABBYAIQACUAAEoAAIMYOAwPAPgAAAAAAAAAAAAAIAADAAAAAAAAAAAA==

>  <PUBCHEM_IUPAC_OPENEYE_NAME>
[(1R,8aR)-7-(1-hydroxy-1-methyl-ethyl)-1,8a-dimethyl-6-oxo-1,2,3,4-tetrahydronaphthalen-2-yl] (Z)-2-methylbut-2-enoate

>  <PUBCHEM_IUPAC_CAS_NAME>
(Z)-2-methyl-2-butenoic acid [(1R,8aR)-7-(2-hydroxypropan-2-yl)-1,8a-dimethyl-6-oxo-1,2,3,4-tetrahydronaphthalen-2-yl] ester

>  <PUBCHEM_IUPAC_NAME>
[(1R,8aR)-7-(2-hydroxypropan-2-yl)-1,8a-dimethyl-6-oxo-1,2,3,4-tetrahydronaphthalen-2-yl] (Z)-2-methylbut-2-enoate

>  <PUBCHEM_IUPAC_SYSTEMATIC_NAME>
[(1R,8aR)-1,8a-dimethyl-6-oxidanylidene-7-(2-oxidanylpropan-2-yl)-1,2,3,4-tetrahydronaphthalen-2-yl] (Z)-2-methylbut-2-enoate

>  <PUBCHEM_IUPAC_TRADITIONAL_NAME>
(Z)-2-methylbut-2-enoic acid [(1R,8aR)-7-(1-hydroxy-1-methyl-ethyl)-6-keto-1,8a-dimethyl-1,2,3,4-tetrahydronaphthalen-2-yl] ester

>  <PUBCHEM_IUPAC_INCHI>
InChI=1S/C20H28O4/c1-7-12(2)18(22)24-17-9-8-14-10-16(21)15(19(4,5)23)11-20(14,6)13(17)3/h7,10-11,13,17,23H,8-9H2,1-6H3/b12-7-/t13-,17?,20+/m0/s1

>  <PUBCHEM_IUPAC_INCHIKEY>
ITHGBLBTVGSKLJ-RGZXBJDZSA-N

>  <PUBCHEM_XLOGP3_AA>
3.6

>  <PUBCHEM_EXACT_MASS>
332.199

>  <PUBCHEM_MOLECULAR_FORMULA>
C20H28O4

>  <PUBCHEM_MOLECULAR_WEIGHT>
332.44

>  <PUBCHEM_OPENEYE_CAN_SMILES>
CC=C(C)C(=O)OC1CCC2=CC(=O)C(=CC2(C1C)C)C(C)(C)O

>  <PUBCHEM_OPENEYE_ISO_SMILES>
C/C=C(/C)\C(=O)OC1CCC2=CC(=O)C(=C[C@@]2([C@H]1C)C)C(C)(C)O

>  <PUBCHEM_CACTVS_TPSA>
63.6

>  <PUBCHEM_MONOISOTOPIC_WEIGHT>
332.199

>  <PUBCHEM_TOTAL_CHARGE>
0

>  <PUBCHEM_HEAVY_ATOM_COUNT>
24

>  <PUBCHEM_ATOM_DEF_STEREO_COUNT>
2

>  <PUBCHEM_ATOM_UDEF_STEREO_COUNT>
1

>  <PUBCHEM_BOND_DEF_STEREO_COUNT>
1

>  <PUBCHEM_BOND_UDEF_STEREO_COUNT>
0

>  <PUBCHEM_ISOTOPIC_ATOM_COUNT>
0

>  <PUBCHEM_COMPONENT_COUNT>
1

>  <PUBCHEM_CACTVS_TAUTO_COUNT>
3

>  <PUBCHEM_COORDINATE_TYPE>
1
5
255

>  <PUBCHEM_BONDANNOTATIONS>
5  12  6
6  13  6
7  26  3

$$$$
