5320443
 OpenBabel06101807152D

 27 28  0  0  0  0  0  0  0  0999 V2000
    8.9962    1.1377    0.0000 O   0  0  0  0  0  0  0  0  0  0  0  0
    4.6660   -1.3623    0.0000 O   0  0  0  0  0  0  0  0  0  0  0  0
    4.6660    1.6377    0.0000 N   0  0  0  0  0  0  0  0  0  0  0  0
    5.5321    0.1377    0.0000 N   0  0  0  0  0  0  0  0  0  0  0  0
    6.3981    1.6377    0.0000 C   0  0  0  0  0  0  0  0  0  0  0  0
    7.2641    1.1377    0.0000 C   0  0  0  0  0  0  0  0  0  0  0  0
    5.5321    1.1377    0.0000 C   0  0  0  0  0  0  0  0  0  0  0  0
    3.8000    0.1377    0.0000 C   0  0  0  0  0  0  0  0  0  0  0  0
    3.8000    1.1377    0.0000 C   0  0  0  0  0  0  0  0  0  0  0  0
    8.1301    1.6377    0.0000 C   0  0  0  0  0  0  0  0  0  0  0  0
    4.6660   -0.3623    0.0000 C   0  0  0  0  0  0  0  0  0  0  0  0
    2.9061   -0.3970    0.0000 C   0  0  0  0  0  0  0  0  0  0  0  0
    2.9061    1.6723    0.0000 C   0  0  0  0  0  0  0  0  0  0  0  0
    2.0000    0.1169    0.0000 C   0  0  0  0  0  0  0  0  0  0  0  0
    2.0000    1.1585    0.0000 C   0  0  0  0  0  0  0  0  0  0  0  0
    6.7966    2.1126    0.0000 H   0  0  0  0  0  0  0  0  0  0  0  0
    5.9996    2.1126    0.0000 H   0  0  0  0  0  0  0  0  0  0  0  0
    6.8656    0.6627    0.0000 H   0  0  0  0  0  0  0  0  0  0  0  0
    7.6626    0.6627    0.0000 H   0  0  0  0  0  0  0  0  0  0  0  0
    8.5287    2.1126    0.0000 H   0  0  0  0  0  0  0  0  0  0  0  0
    7.7316    2.1126    0.0000 H   0  0  0  0  0  0  0  0  0  0  0  0
    2.9132   -1.0170    0.0000 H   0  0  0  0  0  0  0  0  0  0  0  0
    2.9132    2.2923    0.0000 H   0  0  0  0  0  0  0  0  0  0  0  0
    1.4643   -0.1952    0.0000 H   0  0  0  0  0  0  0  0  0  0  0  0
    1.4643    1.4706    0.0000 H   0  0  0  0  0  0  0  0  0  0  0  0
    9.5331    1.4477    0.0000 H   0  0  0  0  0  0  0  0  0  0  0  0
    5.2030   -1.6723    0.0000 H   0  0  0  0  0  0  0  0  0  0  0  0
  1 10  1  0  0  0  0
  1 26  1  0  0  0  0
  2 11  1  0  0  0  0
  2 27  1  0  0  0  0
  3  7  2  0  0  0  0
  3  9  1  0  0  0  0
  4  7  1  0  0  0  0
  4 11  2  0  0  0  0
  5  6  1  0  0  0  0
  5  7  1  0  0  0  0
  5 16  1  0  0  0  0
  5 17  1  0  0  0  0
  6 10  1  0  0  0  0
  6 18  1  0  0  0  0
  6 19  1  0  0  0  0
  8  9  1  0  0  0  0
  8 11  1  0  0  0  0
  8 12  2  0  0  0  0
  9 13  2  0  0  0  0
 10 20  1  0  0  0  0
 10 21  1  0  0  0  0
 12 14  1  0  0  0  0
 12 22  1  0  0  0  0
 13 15  1  0  0  0  0
 13 23  1  0  0  0  0
 14 15  2  0  0  0  0
 14 24  1  0  0  0  0
 15 25  1  0  0  0  0
M  END
>  <PUBCHEM_COMPOUND_CID>
5320443

>  <PUBCHEM_COMPOUND_CANONICALIZED>
1

>  <PUBCHEM_CACTVS_COMPLEXITY>
201

>  <PUBCHEM_CACTVS_HBOND_ACCEPTOR>
4

>  <PUBCHEM_CACTVS_HBOND_DONOR>
2

>  <PUBCHEM_CACTVS_ROTATABLE_BOND>
3

>  <PUBCHEM_CACTVS_SUBSKEYS>
AAADccBzMAAAAAAAAAAAAAAAAAAAAAAAAAA8QAAAAAAAAACx8AAAHgAACAAADAihnwIx1PYIEgCgAyZiZACCgCkhIqAJmCA0bJyIPqLC2dOEdAhuwBvI2CewwCAOAAAAAAACAAAAAAAAAAQAAAAAAAAAAA==

>  <PUBCHEM_IUPAC_OPENEYE_NAME>
2-(3-hydroxypropyl)quinazolin-4-ol

>  <PUBCHEM_IUPAC_CAS_NAME>
2-(3-hydroxypropyl)-4-quinazolinol

>  <PUBCHEM_IUPAC_NAME>
2-(3-hydroxypropyl)quinazolin-4-ol

>  <PUBCHEM_IUPAC_SYSTEMATIC_NAME>
2-(3-oxidanylpropyl)quinazolin-4-ol

>  <PUBCHEM_IUPAC_TRADITIONAL_NAME>
2-(3-hydroxypropyl)quinazolin-4-ol

>  <PUBCHEM_IUPAC_INCHI>
InChI=1S/C11H12N2O2/c14-7-3-6-10-12-9-5-2-1-4-8(9)11(15)13-10/h1-2,4-5,14H,3,6-7H2,(H,12,13,15)

>  <PUBCHEM_IUPAC_INCHIKEY>
PVVTWNMXEHROIA-UHFFFAOYSA-N

>  <PUBCHEM_XLOGP3_AA>
1.5

>  <PUBCHEM_EXACT_MASS>
204.09

>  <PUBCHEM_MOLECULAR_FORMULA>
C11H12N2O2

>  <PUBCHEM_MOLECULAR_WEIGHT>
204.229

>  <PUBCHEM_OPENEYE_CAN_SMILES>
C1=CC=C2C(=C1)C(=NC(=N2)CCCO)O

>  <PUBCHEM_OPENEYE_ISO_SMILES>
C1=CC=C2C(=C1)C(=NC(=N2)CCCO)O

>  <PUBCHEM_CACTVS_TPSA>
66.2

>  <PUBCHEM_MONOISOTOPIC_WEIGHT>
204.09

>  <PUBCHEM_TOTAL_CHARGE>
0

>  <PUBCHEM_HEAVY_ATOM_COUNT>
15

>  <PUBCHEM_ATOM_DEF_STEREO_COUNT>
0

>  <PUBCHEM_ATOM_UDEF_STEREO_COUNT>
0

>  <PUBCHEM_BOND_DEF_STEREO_COUNT>
0

>  <PUBCHEM_BOND_UDEF_STEREO_COUNT>
0

>  <PUBCHEM_ISOTOPIC_ATOM_COUNT>
0

>  <PUBCHEM_COMPONENT_COUNT>
1

>  <PUBCHEM_CACTVS_TAUTO_COUNT>
6

>  <PUBCHEM_COORDINATE_TYPE>
1
5
255

>  <PUBCHEM_BONDANNOTATIONS>
12  14  8
13  15  8
14  15  8
3  7  8
3  9  8
4  11  8
4  7  8
8  11  8
8  12  8
8  9  8
9  13  8

$$$$
