5320800
 OpenBabel06101807152D

 97103  0  0  1  0  0  0  0  0999 V2000
    6.9357   -1.2764    0.0000 O   0  0  0  0  0  0  0  0  0  0  0  0
    8.2960    1.4872    0.0000 O   0  0  0  0  0  0  0  0  0  0  0  0
    7.5038   -1.1707    0.0000 O   0  0  0  0  0  0  0  0  0  0  0  0
    9.4704   -0.4418    0.0000 O   0  0  0  0  0  0  0  0  0  0  0  0
    8.4445   -2.1161    0.0000 O   0  0  0  0  0  0  0  0  0  0  0  0
    4.6912    0.5212    0.0000 O   0  0  0  0  0  0  0  0  0  0  0  0
    8.9032    2.9531    0.0000 O   0  0  0  0  0  0  0  0  0  0  0  0
    7.0038   -3.0367    0.0000 O   0  0  0  0  0  0  0  0  0  0  0  0
    9.3799   -2.1715    0.0000 O   0  0  0  0  0  0  0  0  0  0  0  0
    7.6280   -3.8669    0.0000 O   0  0  0  0  0  0  0  0  0  0  0  0
    3.4323    1.4872    0.0000 O   0  0  0  0  0  0  0  0  0  0  0  0
    5.1680    4.8330    0.0000 O   0  0  0  0  0  0  0  0  0  0  0  0
    5.7272    4.9828    0.0000 O   0  0  0  0  0  0  0  0  0  0  0  0
    8.5259    5.5979    0.0000 O   0  0  0  0  0  0  0  0  0  0  0  0
    6.5474    6.1280    0.0000 O   0  0  0  0  0  0  0  0  0  0  0  0
    3.8851    5.4146    0.0000 O   0  0  0  0  0  0  0  0  0  0  0  0
    2.4367    3.9663    0.0000 O   0  0  0  0  0  0  0  0  0  0  0  0
    5.2717   -5.0367    0.0000 O   0  0  0  0  0  0  0  0  0  0  0  0
    3.5396   -2.0367    0.0000 O   0  0  0  0  0  0  0  0  0  0  0  0
   13.0109    0.2401    0.0000 O   0  0  0  0  0  0  0  0  0  0  0  0
   12.8298   -3.2193    0.0000 O   0  0  0  0  0  0  0  0  0  0  0  0
    3.5396   -4.0366    0.0000 O   0  0  0  0  0  0  0  0  0  0  0  0
   11.6823   -3.7024    0.0000 O   0  0  0  0  0  0  0  0  0  0  0  0
    9.4557   -6.3560    0.0000 O   0  0  0  0  0  0  0  0  0  0  0  0
   13.9190   -1.5419    0.0000 O   0  0  0  0  0  0  0  0  0  0  0  0
   11.3350   -5.6720    0.0000 O   0  0  0  0  0  0  0  0  0  0  0  0
    8.0372    0.5212    0.0000 C   0  0  1  0  0  0  0  0  0  0  0  0
    7.3301   -0.1859    0.0000 C   0  0  1  0  0  0  0  0  0  0  0  0
    8.4718   -0.3896    0.0000 C   0  0  2  0  0  0  0  0  0  0  0  0
    6.3642   -0.4447    0.0000 C   0  0  1  0  0  0  0  0  0  0  0  0
    7.9445   -1.2500    0.0000 C   0  0  1  0  0  0  0  0  0  0  0  0
    5.3982   -0.1859    0.0000 C   0  0  0  0  0  0  0  0  0  0  0  0
    8.0372    2.4531    0.0000 C   0  0  0  0  0  0  0  0  0  0  0  0
    7.0038   -2.0367    0.0000 C   0  0  0  0  0  0  0  0  0  0  0  0
    9.9244   -1.3328    0.0000 C   0  0  0  0  0  0  0  0  0  0  0  0
    7.3301    3.1602    0.0000 C   0  0  0  0  0  0  0  0  0  0  0  0
    8.2709   -3.1009    0.0000 C   0  0  0  0  0  0  0  0  0  0  0  0
    4.4323    1.4872    0.0000 C   0  0  0  0  0  0  0  0  0  0  0  0
    6.3642    3.4190    0.0000 C   0  0  0  0  0  0  0  0  0  0  0  0
    4.6912    2.4531    0.0000 C   0  0  0  0  0  0  0  0  0  0  0  0
    6.1377   -2.5366    0.0000 C   0  0  0  0  0  0  0  0  0  0  0  0
    5.3982    3.1602    0.0000 C   0  0  0  0  0  0  0  0  0  0  0  0
   10.9231   -1.3851    0.0000 C   0  0  0  0  0  0  0  0  0  0  0  0
    9.0370   -3.7436    0.0000 C   0  0  0  0  0  0  0  0  0  0  0  0
    8.0779    3.8853    0.0000 C   0  0  0  0  0  0  0  0  0  0  0  0
    6.0791    4.4209    0.0000 C   0  0  0  0  0  0  0  0  0  0  0  0
    5.1442    4.1704    0.0000 C   0  0  0  0  0  0  0  0  0  0  0  0
    3.6810    2.7072    0.0000 C   0  0  0  0  0  0  0  0  0  0  0  0
    7.8161    4.8935    0.0000 C   0  0  0  0  0  0  0  0  0  0  0  0
    5.2716   -2.0366    0.0000 C   0  0  0  0  0  0  0  0  0  0  0  0
    6.1377   -3.5367    0.0000 C   0  0  0  0  0  0  0  0  0  0  0  0
    6.8100    5.1631    0.0000 C   0  0  0  0  0  0  0  0  0  0  0  0
   11.3771   -2.2760    0.0000 C   0  0  0  0  0  0  0  0  0  0  0  0
   11.4677   -0.5464    0.0000 C   0  0  0  0  0  0  0  0  0  0  0  0
    8.8633   -4.7284    0.0000 C   0  0  0  0  0  0  0  0  0  0  0  0
    9.9766   -3.4016    0.0000 C   0  0  0  0  0  0  0  0  0  0  0  0
    4.1402    4.4477    0.0000 C   0  0  0  0  0  0  0  0  0  0  0  0
    3.4036    3.7112    0.0000 C   0  0  0  0  0  0  0  0  0  0  0  0
    5.2717   -4.0367    0.0000 C   0  0  0  0  0  0  0  0  0  0  0  0
    4.4056   -2.5366    0.0000 C   0  0  0  0  0  0  0  0  0  0  0  0
   12.4663   -0.5986    0.0000 C   0  0  0  0  0  0  0  0  0  0  0  0
   12.3758   -2.3283    0.0000 C   0  0  0  0  0  0  0  0  0  0  0  0
    4.4056   -3.5366    0.0000 C   0  0  0  0  0  0  0  0  0  0  0  0
   10.7426   -4.0444    0.0000 C   0  0  0  0  0  0  0  0  0  0  0  0
    9.6294   -5.3712    0.0000 C   0  0  0  0  0  0  0  0  0  0  0  0
   12.9203   -1.4896    0.0000 C   0  0  0  0  0  0  0  0  0  0  0  0
   10.5690   -5.0292    0.0000 C   0  0  0  0  0  0  0  0  0  0  0  0
    7.3011    0.9462    0.0000 H   0  0  0  0  0  0  0  0  0  0  0  0
    7.9214   -0.3723    0.0000 H   0  0  0  0  0  0  0  0  0  0  0  0
    8.8162    0.1260    0.0000 H   0  0  0  0  0  0  0  0  0  0  0  0
    5.8736   -1.1388    0.0000 H   0  0  0  0  0  0  0  0  0  0  0  0
    7.6416   -1.7910    0.0000 H   0  0  0  0  0  0  0  0  0  0  0  0
    4.8363   -0.4479    0.0000 H   0  0  0  0  0  0  0  0  0  0  0  0
    5.7082    0.3511    0.0000 H   0  0  0  0  0  0  0  0  0  0  0  0
    8.6749    3.7179    0.0000 H   0  0  0  0  0  0  0  0  0  0  0  0
    3.2477    2.2637    0.0000 H   0  0  0  0  0  0  0  0  0  0  0  0
    5.2716   -1.4166    0.0000 H   0  0  0  0  0  0  0  0  0  0  0  0
    6.6747   -3.8467    0.0000 H   0  0  0  0  0  0  0  0  0  0  0  0
   11.0395   -2.7960    0.0000 H   0  0  0  0  0  0  0  0  0  0  0  0
   11.1861    0.0060    0.0000 H   0  0  0  0  0  0  0  0  0  0  0  0
    8.2807   -4.9405    0.0000 H   0  0  0  0  0  0  0  0  0  0  0  0
   10.0843   -2.7910    0.0000 H   0  0  0  0  0  0  0  0  0  0  0  0
    4.8995    5.3918    0.0000 H   0  0  0  0  0  0  0  0  0  0  0  0
    5.6803    5.6011    0.0000 H   0  0  0  0  0  0  0  0  0  0  0  0
    9.1242    5.4351    0.0000 H   0  0  0  0  0  0  0  0  0  0  0  0
    6.9841    6.5681    0.0000 H   0  0  0  0  0  0  0  0  0  0  0  0
    3.2868    5.5774    0.0000 H   0  0  0  0  0  0  0  0  0  0  0  0
    2.0000    3.5262    0.0000 H   0  0  0  0  0  0  0  0  0  0  0  0
    5.8087   -5.3467    0.0000 H   0  0  0  0  0  0  0  0  0  0  0  0
    3.0027   -2.3467    0.0000 H   0  0  0  0  0  0  0  0  0  0  0  0
   12.7294    0.7925    0.0000 H   0  0  0  0  0  0  0  0  0  0  0  0
   13.4490   -3.2517    0.0000 H   0  0  0  0  0  0  0  0  0  0  0  0
    3.5396   -4.6566    0.0000 H   0  0  0  0  0  0  0  0  0  0  0  0
   12.1573   -4.1009    0.0000 H   0  0  0  0  0  0  0  0  0  0  0  0
    8.8731   -6.5681    0.0000 H   0  0  0  0  0  0  0  0  0  0  0  0
   14.2566   -1.0219    0.0000 H   0  0  0  0  0  0  0  0  0  0  0  0
   11.2274   -6.2826    0.0000 H   0  0  0  0  0  0  0  0  0  0  0  0
  1 30  1  0  0  0  0
  1 31  1  0  0  0  0
  2 27  1  0  0  0  0
  2 33  1  0  0  0  0
  3 34  1  0  0  0  0
  4 35  1  0  0  0  0
  5 37  1  0  0  0  0
  6 32  1  0  0  0  0
  6 38  1  0  0  0  0
  7 33  2  0  0  0  0
  8 34  2  0  0  0  0
  9 35  2  0  0  0  0
 10 37  2  0  0  0  0
 11 38  2  0  0  0  0
 12 46  1  0  0  0  0
 12 83  1  0  0  0  0
 13 47  1  0  0  0  0
 13 84  1  0  0  0  0
 14 49  1  0  0  0  0
 14 85  1  0  0  0  0
 15 52  1  0  0  0  0
 15 86  1  0  0  0  0
 16 57  1  0  0  0  0
 16 87  1  0  0  0  0
 17 58  1  0  0  0  0
 17 88  1  0  0  0  0
 18 59  1  0  0  0  0
 18 89  1  0  0  0  0
 19 60  1  0  0  0  0
 19 90  1  0  0  0  0
 20 61  1  0  0  0  0
 20 91  1  0  0  0  0
 21 62  1  0  0  0  0
 21 92  1  0  0  0  0
 22 63  1  0  0  0  0
 22 93  1  0  0  0  0
 23 64  1  0  0  0  0
 23 94  1  0  0  0  0
 24 65  1  0  0  0  0
 24 95  1  0  0  0  0
 25 66  1  0  0  0  0
 25 96  1  0  0  0  0
 26 67  1  0  0  0  0
 26 97  1  0  0  0  0
 27 28  1  6  0  0  0
 27 68  1  0  0  0  0
 28  3  1  0  0  0  0
 28 30  1  1  0  0  0
 28 69  1  0  0  0  0
 29  4  1  0  0  0  0
 29 27  1  1  0  0  0
 29 70  1  0  0  0  0
 30 32  1  0  0  0  0
 30 71  1  1  0  0  0
 31  5  1  0  0  0  0
 31 29  1  1  0  0  0
 31 72  1  0  0  0  0
 32 73  1  0  0  0  0
 32 74  1  0  0  0  0
 33 36  1  0  0  0  0
 34 41  1  0  0  0  0
 35 43  1  0  0  0  0
 36 39  1  0  0  0  0
 36 45  2  0  0  0  0
 37 44  1  0  0  0  0
 38 40  1  0  0  0  0
 39 42  1  0  0  0  0
 39 46  2  0  0  0  0
 40 42  1  0  0  0  0
 40 48  2  0  0  0  0
 41 50  2  0  0  0  0
 41 51  1  0  0  0  0
 42 47  2  0  0  0  0
 43 53  2  0  0  0  0
 43 54  1  0  0  0  0
 44 55  2  0  0  0  0
 44 56  1  0  0  0  0
 45 49  1  0  0  0  0
 45 75  1  0  0  0  0
 46 52  1  0  0  0  0
 47 57  1  0  0  0  0
 48 58  1  0  0  0  0
 48 76  1  0  0  0  0
 49 52  2  0  0  0  0
 50 60  1  0  0  0  0
 50 77  1  0  0  0  0
 51 59  2  0  0  0  0
 51 78  1  0  0  0  0
 53 62  1  0  0  0  0
 53 79  1  0  0  0  0
 54 61  2  0  0  0  0
 54 80  1  0  0  0  0
 55 65  1  0  0  0  0
 55 81  1  0  0  0  0
 56 64  2  0  0  0  0
 56 82  1  0  0  0  0
 57 58  2  0  0  0  0
 59 63  1  0  0  0  0
 60 63  2  0  0  0  0
 61 66  1  0  0  0  0
 62 66  2  0  0  0  0
 64 67  1  0  0  0  0
 65 67  2  0  0  0  0
M  END
>  <PUBCHEM_COMPOUND_CID>
5320800

>  <PUBCHEM_COMPOUND_CANONICALIZED>
1

>  <PUBCHEM_CACTVS_COMPLEXITY>
1770

>  <PUBCHEM_CACTVS_HBOND_ACCEPTOR>
26

>  <PUBCHEM_CACTVS_HBOND_DONOR>
15

>  <PUBCHEM_CACTVS_ROTATABLE_BOND>
9

>  <PUBCHEM_CACTVS_SUBSKEYS>
AAADceB8PgAAAAAAAAAAAAAAAAAAAAAAAAA0YMGDAAAAAAABVAAAGgAACAAADBSwmAMwDoAABgCIAiDSCAACAAAkIAAAiAEGiMgZJzKCNRqicQElwBUPuYfK7PzOoAABCAAYQABAAAIQADCAAAAAAAAAAA==

>  <PUBCHEM_IUPAC_INCHI>
InChI=1S/C41H30O26/c42-15-1-10(2-16(43)26(15)50)36(57)64-33-23-9-62-39(60)13-7-21(48)29(53)31(55)24(13)25-14(8-22(49)30(54)32(25)56)40(61)65-34(33)35(66-37(58)11-3-17(44)27(51)18(45)4-11)41(63-23)67-38(59)12-5-19(46)28(52)20(47)6-12/h1-8,23,33-35,41-56H,9H2/t23-,33-,34+,35-,41+/m1/s1

>  <PUBCHEM_IUPAC_INCHIKEY>
DPBVYZVSXAZMAY-UUUCSUBKSA-N

>  <PUBCHEM_XLOGP3_AA>
2.4

>  <PUBCHEM_EXACT_MASS>
938.103

>  <PUBCHEM_MOLECULAR_FORMULA>
C41H30O26

>  <PUBCHEM_MOLECULAR_WEIGHT>
938.665

>  <PUBCHEM_OPENEYE_CAN_SMILES>
C1C2C(C(C(C(O2)OC(=O)C3=CC(=C(C(=C3)O)O)O)OC(=O)C4=CC(=C(C(=C4)O)O)O)OC(=O)C5=CC(=C(C(=C5C6=C(C(=C(C=C6C(=O)O1)O)O)O)O)O)O)OC(=O)C7=CC(=C(C(=C7)O)O)O

>  <PUBCHEM_OPENEYE_ISO_SMILES>
C1[C@@H]2[C@H]([C@@H]([C@H]([C@@H](O2)OC(=O)C3=CC(=C(C(=C3)O)O)O)OC(=O)C4=CC(=C(C(=C4)O)O)O)OC(=O)C5=CC(=C(C(=C5C6=C(C(=C(C=C6C(=O)O1)O)O)O)O)O)O)OC(=O)C7=CC(=C(C(=C7)O)O)O

>  <PUBCHEM_CACTVS_TPSA>
444

>  <PUBCHEM_MONOISOTOPIC_WEIGHT>
938.103

>  <PUBCHEM_TOTAL_CHARGE>
0

>  <PUBCHEM_HEAVY_ATOM_COUNT>
67

>  <PUBCHEM_ATOM_DEF_STEREO_COUNT>
5

>  <PUBCHEM_ATOM_UDEF_STEREO_COUNT>
0

>  <PUBCHEM_BOND_DEF_STEREO_COUNT>
0

>  <PUBCHEM_BOND_UDEF_STEREO_COUNT>
0

>  <PUBCHEM_ISOTOPIC_ATOM_COUNT>
0

>  <PUBCHEM_COMPONENT_COUNT>
1

>  <PUBCHEM_CACTVS_TAUTO_COUNT>
998

>  <PUBCHEM_COORDINATE_TYPE>
1
5
255

>  <PUBCHEM_BONDANNOTATIONS>
27  68  5
28  3  6
30  71  5
36  39  8
36  45  8
39  46  8
29  4  5
40  42  8
40  48  8
41  50  8
41  51  8
42  47  8
43  53  8
43  54  8
44  55  8
44  56  8
45  49  8
46  52  8
47  57  8
48  58  8
49  52  8
31  5  6
50  60  8
51  59  8
53  62  8
54  61  8
55  65  8
56  64  8
57  58  8
59  63  8
60  63  8
61  66  8
62  66  8
64  67  8
65  67  8

$$$$
