5320836
 OpenBabel06101807152D

 74 78  0  0  1  0  0  0  0  0999 V2000
    6.9245   -1.6383    0.0000 O   0  0  0  0  0  0  0  0  0  0  0  0
    5.1370    2.3485    0.0000 O   0  0  0  0  0  0  0  0  0  0  0  0
    8.6565   -1.6383    0.0000 O   0  0  0  0  0  0  0  0  0  0  0  0
    6.0203    0.8586    0.0000 O   0  0  0  0  0  0  0  0  0  0  0  0
    6.9245   -4.6383    0.0000 O   0  0  0  0  0  0  0  0  0  0  0  0
    5.1924   -3.6383    0.0000 O   0  0  0  0  0  0  0  0  0  0  0  0
    2.5564    0.8185    0.0000 O   0  0  0  0  0  0  0  0  0  0  0  0
    2.5333    2.8184    0.0000 O   0  0  0  0  0  0  0  0  0  0  0  0
    8.6565   -3.6383    0.0000 O   0  0  0  0  0  0  0  0  0  0  0  0
    4.2999   -0.1614    0.0000 O   0  0  0  0  0  0  0  0  0  0  0  0
    4.3264   -2.1383    0.0000 O   0  0  0  0  0  0  0  0  0  0  0  0
    3.3819    4.3283    0.0000 O   0  0  0  0  0  0  0  0  0  0  0  0
    9.5226    0.8617    0.0000 O   0  0  0  0  0  0  0  0  0  0  0  0
    6.9245   -0.6383    0.0000 O   0  0  0  0  0  0  0  0  0  0  0  0
    7.7784    3.9310    0.0000 O   0  0  0  0  0  0  0  0  0  0  0  0
   12.9867   -0.1383    0.0000 O   0  0  0  0  0  0  0  0  0  0  0  0
   12.9867   -2.1383    0.0000 O   0  0  0  0  0  0  0  0  0  0  0  0
    6.9245   -3.6383    0.0000 C   0  0  1  0  0  0  0  0  0  0  0  0
    6.0584   -3.1383    0.0000 C   0  0  1  0  0  0  0  0  0  0  0  0
    3.4166    1.3285    0.0000 C   0  0  1  0  0  0  0  0  0  0  0  0
    3.4051    2.3284    0.0000 C   0  0  1  0  0  0  0  0  0  0  0  0
    7.7905   -3.1383    0.0000 C   0  0  2  0  0  0  0  0  0  0  0  0
    4.2884    0.8386    0.0000 C   0  0  2  0  0  0  0  0  0  0  0  0
    6.0584   -2.1383    0.0000 C   0  0  1  0  0  0  0  0  0  0  0  0
    4.2652    2.8384    0.0000 C   0  0  1  0  0  0  0  0  0  0  0  0
    7.7905   -2.1383    0.0000 C   0  0  1  0  0  0  0  0  0  0  0  0
    5.1486    1.3485    0.0000 C   0  0  1  0  0  0  0  0  0  0  0  0
    5.1924   -1.6383    0.0000 C   0  0  0  0  0  0  0  0  0  0  0  0
    4.2537    3.8384    0.0000 C   0  0  0  0  0  0  0  0  0  0  0  0
    6.8805    1.3686    0.0000 C   0  0  0  0  0  0  0  0  0  0  0  0
    8.6565   -0.6383    0.0000 C   0  0  0  0  0  0  0  0  0  0  0  0
    7.7905    0.8617    0.0000 C   0  0  0  0  0  0  0  0  0  0  0  0
    7.7905   -0.1383    0.0000 C   0  0  0  0  0  0  0  0  0  0  0  0
    9.5226   -0.1383    0.0000 C   0  0  0  0  0  0  0  0  0  0  0  0
    8.6565    1.3617    0.0000 C   0  0  0  0  0  0  0  0  0  0  0  0
    6.8725    2.4102    0.0000 C   0  0  0  0  0  0  0  0  0  0  0  0
    8.6726    2.4032    0.0000 C   0  0  0  0  0  0  0  0  0  0  0  0
    7.7746    2.9310    0.0000 C   0  0  0  0  0  0  0  0  0  0  0  0
   10.3886   -0.6383    0.0000 C   0  0  0  0  0  0  0  0  0  0  0  0
   11.2546   -0.1383    0.0000 C   0  0  0  0  0  0  0  0  0  0  0  0
   10.3886   -1.6383    0.0000 C   0  0  0  0  0  0  0  0  0  0  0  0
   12.1206   -0.6383    0.0000 C   0  0  0  0  0  0  0  0  0  0  0  0
   11.2546   -2.1383    0.0000 C   0  0  0  0  0  0  0  0  0  0  0  0
   12.1206   -1.6383    0.0000 C   0  0  0  0  0  0  0  0  0  0  0  0
    7.4614   -3.9483    0.0000 H   0  0  0  0  0  0  0  0  0  0  0  0
    5.5215   -2.8283    0.0000 H   0  0  0  0  0  0  0  0  0  0  0  0
    3.4238    0.7086    0.0000 H   0  0  0  0  0  0  0  0  0  0  0  0
    2.8718    2.0123    0.0000 H   0  0  0  0  0  0  0  0  0  0  0  0
    8.3274   -2.8283    0.0000 H   0  0  0  0  0  0  0  0  0  0  0  0
    4.8289    0.5348    0.0000 H   0  0  0  0  0  0  0  0  0  0  0  0
    6.0584   -1.5183    0.0000 H   0  0  0  0  0  0  0  0  0  0  0  0
    4.7986    3.1546    0.0000 H   0  0  0  0  0  0  0  0  0  0  0  0
    7.7905   -1.5183    0.0000 H   0  0  0  0  0  0  0  0  0  0  0  0
    5.6819    1.6647    0.0000 H   0  0  0  0  0  0  0  0  0  0  0  0
    5.5910   -1.1633    0.0000 H   0  0  0  0  0  0  0  0  0  0  0  0
    4.7939   -1.1633    0.0000 H   0  0  0  0  0  0  0  0  0  0  0  0
    4.8655    3.7378    0.0000 H   0  0  0  0  0  0  0  0  0  0  0  0
    4.4590    4.4234    0.0000 H   0  0  0  0  0  0  0  0  0  0  0  0
    6.3875   -4.9483    0.0000 H   0  0  0  0  0  0  0  0  0  0  0  0
    5.1924   -4.2583    0.0000 H   0  0  0  0  0  0  0  0  0  0  0  0
    2.0160    1.1223    0.0000 H   0  0  0  0  0  0  0  0  0  0  0  0
    2.0000    2.5022    0.0000 H   0  0  0  0  0  0  0  0  0  0  0  0
    8.6565   -4.2583    0.0000 H   0  0  0  0  0  0  0  0  0  0  0  0
    3.7666   -0.4776    0.0000 H   0  0  0  0  0  0  0  0  0  0  0  0
    3.7895   -1.8283    0.0000 H   0  0  0  0  0  0  0  0  0  0  0  0
    3.3748    4.9483    0.0000 H   0  0  0  0  0  0  0  0  0  0  0  0
    6.3343    2.7181    0.0000 H   0  0  0  0  0  0  0  0  0  0  0  0
    9.2131    2.7070    0.0000 H   0  0  0  0  0  0  0  0  0  0  0  0
   11.2546    0.4817    0.0000 H   0  0  0  0  0  0  0  0  0  0  0  0
    9.8516   -1.9483    0.0000 H   0  0  0  0  0  0  0  0  0  0  0  0
    8.3165    4.2389    0.0000 H   0  0  0  0  0  0  0  0  0  0  0  0
   11.2546   -2.7583    0.0000 H   0  0  0  0  0  0  0  0  0  0  0  0
   12.9867    0.4817    0.0000 H   0  0  0  0  0  0  0  0  0  0  0  0
   12.9867   -2.7583    0.0000 H   0  0  0  0  0  0  0  0  0  0  0  0
  1 24  1  0  0  0  0
  1 26  1  0  0  0  0
  2 25  1  0  0  0  0
  2 27  1  0  0  0  0
  3 31  1  0  0  0  0
  4 30  1  0  0  0  0
  5 59  1  0  0  0  0
  6 60  1  0  0  0  0
  7 61  1  0  0  0  0
  8 62  1  0  0  0  0
  9 63  1  0  0  0  0
 10 64  1  0  0  0  0
 11 28  1  0  0  0  0
 11 65  1  0  0  0  0
 12 29  1  0  0  0  0
 12 66  1  0  0  0  0
 13 34  1  0  0  0  0
 13 35  1  0  0  0  0
 14 33  2  0  0  0  0
 15 38  1  0  0  0  0
 15 71  1  0  0  0  0
 16 42  1  0  0  0  0
 16 73  1  0  0  0  0
 17 44  1  0  0  0  0
 17 74  1  0  0  0  0
 18  5  1  0  0  0  0
 18 19  1  6  0  0  0
 18 45  1  0  0  0  0
 19  6  1  0  0  0  0
 19 24  1  6  0  0  0
 19 46  1  0  0  0  0
 20  7  1  0  0  0  0
 20 21  1  6  0  0  0
 20 47  1  0  0  0  0
 21  8  1  0  0  0  0
 21 25  1  1  0  0  0
 21 48  1  0  0  0  0
 22  9  1  0  0  0  0
 22 18  1  1  0  0  0
 22 49  1  0  0  0  0
 23 10  1  0  0  0  0
 23 20  1  1  0  0  0
 23 50  1  0  0  0  0
 24 28  1  0  0  0  0
 24 51  1  6  0  0  0
 25 29  1  0  0  0  0
 25 52  1  6  0  0  0
 26  3  1  0  0  0  0
 26 22  1  6  0  0  0
 26 53  1  0  0  0  0
 27  4  1  0  0  0  0
 27 23  1  6  0  0  0
 27 54  1  0  0  0  0
 28 55  1  0  0  0  0
 28 56  1  0  0  0  0
 29 57  1  0  0  0  0
 29 58  1  0  0  0  0
 30 32  1  0  0  0  0
 30 36  2  0  0  0  0
 31 33  1  0  0  0  0
 31 34  2  0  0  0  0
 32 33  1  0  0  0  0
 32 35  2  0  0  0  0
 34 39  1  0  0  0  0
 35 37  1  0  0  0  0
 36 38  1  0  0  0  0
 36 67  1  0  0  0  0
 37 38  2  0  0  0  0
 37 68  1  0  0  0  0
 39 40  2  0  0  0  0
 39 41  1  0  0  0  0
 40 42  1  0  0  0  0
 40 69  1  0  0  0  0
 41 43  2  0  0  0  0
 41 70  1  0  0  0  0
 42 44  2  0  0  0  0
 43 44  1  0  0  0  0
 43 72  1  0  0  0  0
M  END
>  <PUBCHEM_COMPOUND_CID>
5320836

>  <PUBCHEM_COMPOUND_CANONICALIZED>
1

>  <PUBCHEM_CACTVS_COMPLEXITY>
1040

>  <PUBCHEM_CACTVS_HBOND_ACCEPTOR>
17

>  <PUBCHEM_CACTVS_HBOND_DONOR>
11

>  <PUBCHEM_CACTVS_ROTATABLE_BOND>
7

>  <PUBCHEM_CACTVS_SUBSKEYS>
AAADceB4PgAAAAAAAAAAAAAAAAAAAAAAAAA0aIECAAAAAACBQAAAGgAACAAADBSwmAMwDoAABgCIAqBSAAICCAAkIAAIiAFGiMgdNzaGNR6ieWGl4BUPuQfI7LzOIAABCAAIQABAAAIQABCAAAAAAAAAAA==

>  <PUBCHEM_IUPAC_OPENEYE_NAME>
2-(3,4-dihydroxyphenyl)-7-hydroxy-3,5-bis[[(2S,3R,4S,5S,6R)-3,4,5-trihydroxy-6-(hydroxymethyl)tetrahydropyran-2-yl]oxy]chromen-4-one

>  <PUBCHEM_IUPAC_CAS_NAME>
2-(3,4-dihydroxyphenyl)-7-hydroxy-3,5-bis[[(2S,3R,4S,5S,6R)-3,4,5-trihydroxy-6-(hydroxymethyl)-2-oxanyl]oxy]-1-benzopyran-4-one

>  <PUBCHEM_IUPAC_NAME>
2-(3,4-dihydroxyphenyl)-7-hydroxy-3,5-bis[[(2S,3R,4S,5S,6R)-3,4,5-trihydroxy-6-(hydroxymethyl)oxan-2-yl]oxy]chromen-4-one

>  <PUBCHEM_IUPAC_SYSTEMATIC_NAME>
2-[3,4-bis(oxidanyl)phenyl]-3,5-bis[[(2S,3R,4S,5S,6R)-6-(hydroxymethyl)-3,4,5-tris(oxidanyl)oxan-2-yl]oxy]-7-oxidanyl-chromen-4-one

>  <PUBCHEM_IUPAC_TRADITIONAL_NAME>
2-(3,4-dihydroxyphenyl)-7-hydroxy-3,5-bis[[(2S,3R,4S,5S,6R)-3,4,5-trihydroxy-6-methylol-tetrahydropyran-2-yl]oxy]chromone

>  <PUBCHEM_IUPAC_INCHI>
InChI=1S/C27H30O17/c28-6-14-17(33)20(36)22(38)26(42-14)41-13-5-9(30)4-12-16(13)19(35)25(24(40-12)8-1-2-10(31)11(32)3-8)44-27-23(39)21(37)18(34)15(7-29)43-27/h1-5,14-15,17-18,20-23,26-34,36-39H,6-7H2/t14-,15-,17-,18-,20+,21+,22-,23-,26-,27+/m1/s1

>  <PUBCHEM_IUPAC_INCHIKEY>
YOXWSUCVDVXAMX-DEFKTLOSSA-N

>  <PUBCHEM_XLOGP3_AA>
-2

>  <PUBCHEM_EXACT_MASS>
626.148

>  <PUBCHEM_MOLECULAR_FORMULA>
C27H30O17

>  <PUBCHEM_MOLECULAR_WEIGHT>
626.52

>  <PUBCHEM_OPENEYE_CAN_SMILES>
C1=CC(=C(C=C1C2=C(C(=O)C3=C(C=C(C=C3O2)O)OC4C(C(C(C(O4)CO)O)O)O)OC5C(C(C(C(O5)CO)O)O)O)O)O

>  <PUBCHEM_OPENEYE_ISO_SMILES>
C1=CC(=C(C=C1C2=C(C(=O)C3=C(C=C(C=C3O2)O)O[C@H]4[C@@H]([C@H]([C@@H]([C@H](O4)CO)O)O)O)O[C@H]5[C@@H]([C@H]([C@@H]([C@H](O5)CO)O)O)O)O)O

>  <PUBCHEM_CACTVS_TPSA>
286

>  <PUBCHEM_MONOISOTOPIC_WEIGHT>
626.148

>  <PUBCHEM_TOTAL_CHARGE>
0

>  <PUBCHEM_HEAVY_ATOM_COUNT>
44

>  <PUBCHEM_ATOM_DEF_STEREO_COUNT>
10

>  <PUBCHEM_ATOM_UDEF_STEREO_COUNT>
0

>  <PUBCHEM_BOND_DEF_STEREO_COUNT>
0

>  <PUBCHEM_BOND_UDEF_STEREO_COUNT>
0

>  <PUBCHEM_ISOTOPIC_ATOM_COUNT>
0

>  <PUBCHEM_COMPONENT_COUNT>
1

>  <PUBCHEM_CACTVS_TAUTO_COUNT>
68

>  <PUBCHEM_COORDINATE_TYPE>
1
5
255

>  <PUBCHEM_BONDANNOTATIONS>
23  10  6
13  34  8
13  35  8
24  28  5
25  29  5
26  3  5
30  32  8
30  36  8
31  33  8
31  34  8
32  33  8
32  35  8
35  37  8
36  38  8
37  38  8
39  40  8
39  41  8
27  4  5
40  42  8
41  43  8
42  44  8
43  44  8
18  5  5
19  6  6
20  7  5
21  8  6
22  9  6

$$$$
