5321205
 OpenBabel06101807152D

 34 36  0  0  0  0  0  0  0  0999 V2000
    6.0290   -0.6193    0.0000 O   0  0  0  0  0  0  0  0  0  0  0  0
    4.2690   -1.5846    0.0000 O   0  0  0  0  0  0  0  0  0  0  0  0
    4.2690    2.4154    0.0000 O   0  0  0  0  0  0  0  0  0  0  0  0
    2.5369   -0.5846    0.0000 O   0  0  0  0  0  0  0  0  0  0  0  0
    6.0174    2.4500    0.0000 O   0  0  0  0  0  0  0  0  0  0  0  0
    6.9273   -2.1054    0.0000 O   0  0  0  0  0  0  0  0  0  0  0  0
    5.1350    0.9154    0.0000 C   0  0  0  0  0  0  0  0  0  0  0  0
    5.1350   -0.0846    0.0000 C   0  0  0  0  0  0  0  0  0  0  0  0
    6.9350   -0.1054    0.0000 C   0  0  0  0  0  0  0  0  0  0  0  0
    4.2690   -0.5846    0.0000 C   0  0  0  0  0  0  0  0  0  0  0  0
    6.0290    1.4501    0.0000 C   0  0  0  0  0  0  0  0  0  0  0  0
    4.2690    1.4154    0.0000 C   0  0  0  0  0  0  0  0  0  0  0  0
    7.7991   -0.6088    0.0000 C   0  0  0  0  0  0  0  0  0  0  0  0
    6.9350    0.9362    0.0000 C   0  0  0  0  0  0  0  0  0  0  0  0
    3.4030   -0.0846    0.0000 C   0  0  0  0  0  0  0  0  0  0  0  0
    3.4030    0.9154    0.0000 C   0  0  0  0  0  0  0  0  0  0  0  0
    7.7953   -1.6087    0.0000 C   0  0  0  0  0  0  0  0  0  0  0  0
    8.6671   -0.1121    0.0000 C   0  0  0  0  0  0  0  0  0  0  0  0
    8.6594   -2.1121    0.0000 C   0  0  0  0  0  0  0  0  0  0  0  0
    9.5312   -0.6154    0.0000 C   0  0  0  0  0  0  0  0  0  0  0  0
    9.5273   -1.6154    0.0000 C   0  0  0  0  0  0  0  0  0  0  0  0
    3.4030   -2.0846    0.0000 C   0  0  0  0  0  0  0  0  0  0  0  0
    7.4708    1.2483    0.0000 H   0  0  0  0  0  0  0  0  0  0  0  0
    2.8660    1.2254    0.0000 H   0  0  0  0  0  0  0  0  0  0  0  0
    8.6694    0.5079    0.0000 H   0  0  0  0  0  0  0  0  0  0  0  0
    8.6570   -2.7321    0.0000 H   0  0  0  0  0  0  0  0  0  0  0  0
   10.0693   -0.3075    0.0000 H   0  0  0  0  0  0  0  0  0  0  0  0
   10.0630   -1.9275    0.0000 H   0  0  0  0  0  0  0  0  0  0  0  0
    3.7320    2.7254    0.0000 H   0  0  0  0  0  0  0  0  0  0  0  0
    2.0000   -0.2746    0.0000 H   0  0  0  0  0  0  0  0  0  0  0  0
    3.0930   -1.5477    0.0000 H   0  0  0  0  0  0  0  0  0  0  0  0
    2.8660   -2.3946    0.0000 H   0  0  0  0  0  0  0  0  0  0  0  0
    3.7130   -2.6215    0.0000 H   0  0  0  0  0  0  0  0  0  0  0  0
    6.9249   -2.7254    0.0000 H   0  0  0  0  0  0  0  0  0  0  0  0
  1  8  1  0  0  0  0
  1  9  1  0  0  0  0
  2 10  1  0  0  0  0
  2 22  1  0  0  0  0
  3 12  1  0  0  0  0
  3 29  1  0  0  0  0
  4 15  1  0  0  0  0
  4 30  1  0  0  0  0
  5 11  2  0  0  0  0
  6 17  1  0  0  0  0
  6 34  1  0  0  0  0
  7  8  2  0  0  0  0
  7 11  1  0  0  0  0
  7 12  1  0  0  0  0
  8 10  1  0  0  0  0
  9 13  1  0  0  0  0
  9 14  2  0  0  0  0
 10 15  2  0  0  0  0
 11 14  1  0  0  0  0
 12 16  2  0  0  0  0
 13 17  1  0  0  0  0
 13 18  2  0  0  0  0
 14 23  1  0  0  0  0
 15 16  1  0  0  0  0
 16 24  1  0  0  0  0
 17 19  2  0  0  0  0
 18 20  1  0  0  0  0
 18 25  1  0  0  0  0
 19 21  1  0  0  0  0
 19 26  1  0  0  0  0
 20 21  2  0  0  0  0
 20 27  1  0  0  0  0
 21 28  1  0  0  0  0
 22 31  1  0  0  0  0
 22 32  1  0  0  0  0
 22 33  1  0  0  0  0
M  END
>  <PUBCHEM_COMPOUND_CID>
5321205

>  <PUBCHEM_COMPOUND_CANONICALIZED>
1

>  <PUBCHEM_CACTVS_COMPLEXITY>
462

>  <PUBCHEM_CACTVS_HBOND_ACCEPTOR>
6

>  <PUBCHEM_CACTVS_HBOND_DONOR>
3

>  <PUBCHEM_CACTVS_ROTATABLE_BOND>
2

>  <PUBCHEM_CACTVS_SUBSKEYS>
AAADccB4OAAAAAAAAAAAAAAAAAAAAAAAAAAwYIAAAAAAAACBQAAAGgAACAAADASAmAIyBoAABgCIAqBSAAACCAAkIAAIiAEGiMgNJzaGNRqCeWOl4BULuQfK7LzOIQABCAAIQABCAAIQABCAAAAAAAAAAA==

>  <PUBCHEM_IUPAC_OPENEYE_NAME>
5,7-dihydroxy-2-(2-hydroxyphenyl)-8-methoxy-chromen-4-one

>  <PUBCHEM_IUPAC_CAS_NAME>
5,7-dihydroxy-2-(2-hydroxyphenyl)-8-methoxy-1-benzopyran-4-one

>  <PUBCHEM_IUPAC_NAME>
5,7-dihydroxy-2-(2-hydroxyphenyl)-8-methoxychromen-4-one

>  <PUBCHEM_IUPAC_SYSTEMATIC_NAME>
2-(2-hydroxyphenyl)-8-methoxy-5,7-bis(oxidanyl)chromen-4-one

>  <PUBCHEM_IUPAC_TRADITIONAL_NAME>
5,7-dihydroxy-2-(2-hydroxyphenyl)-8-methoxy-chromone

>  <PUBCHEM_IUPAC_INCHI>
InChI=1S/C16H12O6/c1-21-15-12(20)6-10(18)14-11(19)7-13(22-16(14)15)8-4-2-3-5-9(8)17/h2-7,17-18,20H,1H3

>  <PUBCHEM_IUPAC_INCHIKEY>
XCBMYKIKEHGYAR-UHFFFAOYSA-N

>  <PUBCHEM_XLOGP3_AA>
2.6

>  <PUBCHEM_EXACT_MASS>
300.063

>  <PUBCHEM_MOLECULAR_FORMULA>
C16H12O6

>  <PUBCHEM_MOLECULAR_WEIGHT>
300.266

>  <PUBCHEM_OPENEYE_CAN_SMILES>
COC1=C(C=C(C2=C1OC(=CC2=O)C3=CC=CC=C3O)O)O

>  <PUBCHEM_OPENEYE_ISO_SMILES>
COC1=C(C=C(C2=C1OC(=CC2=O)C3=CC=CC=C3O)O)O

>  <PUBCHEM_CACTVS_TPSA>
96.2

>  <PUBCHEM_MONOISOTOPIC_WEIGHT>
300.063

>  <PUBCHEM_TOTAL_CHARGE>
0

>  <PUBCHEM_HEAVY_ATOM_COUNT>
22

>  <PUBCHEM_ATOM_DEF_STEREO_COUNT>
0

>  <PUBCHEM_ATOM_UDEF_STEREO_COUNT>
0

>  <PUBCHEM_BOND_DEF_STEREO_COUNT>
0

>  <PUBCHEM_BOND_UDEF_STEREO_COUNT>
0

>  <PUBCHEM_ISOTOPIC_ATOM_COUNT>
0

>  <PUBCHEM_COMPONENT_COUNT>
1

>  <PUBCHEM_CACTVS_TAUTO_COUNT>
69

>  <PUBCHEM_COORDINATE_TYPE>
1
5
255

>  <PUBCHEM_BONDANNOTATIONS>
1  8  8
1  9  8
10  15  8
11  14  8
12  16  8
13  17  8
13  18  8
15  16  8
17  19  8
18  20  8
19  21  8
20  21  8
7  11  8
7  12  8
7  8  8
8  10  8
9  14  8

$$$$
