5321165
 OpenBabel06101807152D

 49 50  0  0  0  0  0  0  0  0999 V2000
    2.5369    0.7327    0.0000 O   0  0  0  0  0  0  0  0  0  0  0  0
    9.4651   -0.2673    0.0000 O   0  0  0  0  0  0  0  0  0  0  0  0
   12.9572   -0.3020    0.0000 O   0  0  0  0  0  0  0  0  0  0  0  0
   11.1972   -1.2673    0.0000 O   0  0  0  0  0  0  0  0  0  0  0  0
   14.7273   -0.2915    0.0000 O   0  0  0  0  0  0  0  0  0  0  0  0
    3.4030    0.2327    0.0000 C   0  0  0  0  0  0  0  0  0  0  0  0
    4.2690   -0.2673    0.0000 C   0  0  0  0  0  0  0  0  0  0  0  0
    6.0010   -0.2673    0.0000 C   0  0  0  0  0  0  0  0  0  0  0  0
    6.8671    0.2327    0.0000 C   0  0  0  0  0  0  0  0  0  0  0  0
    2.9030   -0.6334    0.0000 C   0  0  0  0  0  0  0  0  0  0  0  0
    3.9030    1.0987    0.0000 C   0  0  0  0  0  0  0  0  0  0  0  0
    5.1350    0.2327    0.0000 C   0  0  0  0  0  0  0  0  0  0  0  0
    7.7331   -0.2673    0.0000 C   0  0  0  0  0  0  0  0  0  0  0  0
   10.3312    0.2327    0.0000 C   0  0  0  0  0  0  0  0  0  0  0  0
    8.5991    0.2327    0.0000 C   0  0  0  0  0  0  0  0  0  0  0  0
   12.0632    0.2327    0.0000 C   0  0  0  0  0  0  0  0  0  0  0  0
   12.0632    1.2327    0.0000 C   0  0  0  0  0  0  0  0  0  0  0  0
   11.1972   -0.2673    0.0000 C   0  0  0  0  0  0  0  0  0  0  0  0
    6.8671    1.2327    0.0000 C   0  0  0  0  0  0  0  0  0  0  0  0
   10.3312    1.2327    0.0000 C   0  0  0  0  0  0  0  0  0  0  0  0
   11.1972    1.7327    0.0000 C   0  0  0  0  0  0  0  0  0  0  0  0
   12.9572    1.7673    0.0000 C   0  0  0  0  0  0  0  0  0  0  0  0
   13.8632    1.2535    0.0000 C   0  0  0  0  0  0  0  0  0  0  0  0
   13.8632    0.2119    0.0000 C   0  0  0  0  0  0  0  0  0  0  0  0
   10.3312   -1.7673    0.0000 C   0  0  0  0  0  0  0  0  0  0  0  0
    4.2690   -0.8873    0.0000 H   0  0  0  0  0  0  0  0  0  0  0  0
    5.6025   -0.7423    0.0000 H   0  0  0  0  0  0  0  0  0  0  0  0
    6.3996   -0.7423    0.0000 H   0  0  0  0  0  0  0  0  0  0  0  0
    2.3660   -0.3234    0.0000 H   0  0  0  0  0  0  0  0  0  0  0  0
    2.5930   -1.1703    0.0000 H   0  0  0  0  0  0  0  0  0  0  0  0
    3.4399   -0.9434    0.0000 H   0  0  0  0  0  0  0  0  0  0  0  0
    4.4399    0.7887    0.0000 H   0  0  0  0  0  0  0  0  0  0  0  0
    4.2130    1.6356    0.0000 H   0  0  0  0  0  0  0  0  0  0  0  0
    3.3660    1.4087    0.0000 H   0  0  0  0  0  0  0  0  0  0  0  0
    5.1350    0.8527    0.0000 H   0  0  0  0  0  0  0  0  0  0  0  0
    7.7331   -0.8873    0.0000 H   0  0  0  0  0  0  0  0  0  0  0  0
    8.9976    0.7076    0.0000 H   0  0  0  0  0  0  0  0  0  0  0  0
    8.2006    0.7076    0.0000 H   0  0  0  0  0  0  0  0  0  0  0  0
    7.4871    1.2327    0.0000 H   0  0  0  0  0  0  0  0  0  0  0  0
    6.8671    1.8527    0.0000 H   0  0  0  0  0  0  0  0  0  0  0  0
    6.2471    1.2327    0.0000 H   0  0  0  0  0  0  0  0  0  0  0  0
    9.7942    1.5427    0.0000 H   0  0  0  0  0  0  0  0  0  0  0  0
   11.1972    2.3527    0.0000 H   0  0  0  0  0  0  0  0  0  0  0  0
    2.0000    0.4227    0.0000 H   0  0  0  0  0  0  0  0  0  0  0  0
   12.9500    2.3873    0.0000 H   0  0  0  0  0  0  0  0  0  0  0  0
   14.3990    1.5656    0.0000 H   0  0  0  0  0  0  0  0  0  0  0  0
   10.0212   -1.2304    0.0000 H   0  0  0  0  0  0  0  0  0  0  0  0
    9.7942   -2.0773    0.0000 H   0  0  0  0  0  0  0  0  0  0  0  0
   10.6412   -2.3043    0.0000 H   0  0  0  0  0  0  0  0  0  0  0  0
  1  6  1  0  0  0  0
  1 44  1  0  0  0  0
  2 14  1  0  0  0  0
  2 15  1  0  0  0  0
  3 16  1  0  0  0  0
  3 24  1  0  0  0  0
  4 18  1  0  0  0  0
  4 25  1  0  0  0  0
  5 24  2  0  0  0  0
  6  7  1  0  0  0  0
  6 10  1  0  0  0  0
  6 11  1  0  0  0  0
  7 12  2  0  0  0  0
  7 26  1  0  0  0  0
  8  9  1  0  0  0  0
  8 12  1  0  0  0  0
  8 27  1  0  0  0  0
  8 28  1  0  0  0  0
  9 13  2  0  0  0  0
  9 19  1  0  0  0  0
 10 29  1  0  0  0  0
 10 30  1  0  0  0  0
 10 31  1  0  0  0  0
 11 32  1  0  0  0  0
 11 33  1  0  0  0  0
 11 34  1  0  0  0  0
 12 35  1  0  0  0  0
 13 15  1  0  0  0  0
 13 36  1  0  0  0  0
 14 18  2  0  0  0  0
 14 20  1  0  0  0  0
 15 37  1  0  0  0  0
 15 38  1  0  0  0  0
 16 17  2  0  0  0  0
 16 18  1  0  0  0  0
 17 21  1  0  0  0  0
 17 22  1  0  0  0  0
 19 39  1  0  0  0  0
 19 40  1  0  0  0  0
 19 41  1  0  0  0  0
 20 21  2  0  0  0  0
 20 42  1  0  0  0  0
 21 43  1  0  0  0  0
 22 23  2  0  0  0  0
 22 45  1  0  0  0  0
 23 24  1  0  0  0  0
 23 46  1  0  0  0  0
 25 47  1  0  0  0  0
 25 48  1  0  0  0  0
 25 49  1  0  0  0  0
M  END
>  <PUBCHEM_COMPOUND_CID>
5321165

>  <PUBCHEM_COMPOUND_CANONICALIZED>
1

>  <PUBCHEM_CACTVS_COMPLEXITY>
546

>  <PUBCHEM_CACTVS_HBOND_ACCEPTOR>
5

>  <PUBCHEM_CACTVS_HBOND_DONOR>
1

>  <PUBCHEM_CACTVS_ROTATABLE_BOND>
7

>  <PUBCHEM_CACTVS_SUBSKEYS>
AAADceB4OAAAAAAAAAAAAAAAAAAAAAAAAAAwQAAAAAAAAACBAAAAGgAACAAADESgmAIyDoAABgCIAiDSCAACCAAgIAAIiAAGiMgNJyKEMRqCOiKlwBUKuYeA4DwOIAABCAAIQABAAAIQABCAAAAAAAAAAA==

>  <PUBCHEM_IUPAC_OPENEYE_NAME>
7-[(2E,5E)-7-hydroxy-3,7-dimethyl-octa-2,5-dienoxy]-8-methoxy-chromen-2-one

>  <PUBCHEM_IUPAC_CAS_NAME>
7-[(2E,5E)-7-hydroxy-3,7-dimethylocta-2,5-dienoxy]-8-methoxy-1-benzopyran-2-one

>  <PUBCHEM_IUPAC_NAME>
7-[(2E,5E)-7-hydroxy-3,7-dimethylocta-2,5-dienoxy]-8-methoxychromen-2-one

>  <PUBCHEM_IUPAC_SYSTEMATIC_NAME>
7-[(2E,5E)-3,7-dimethyl-7-oxidanyl-octa-2,5-dienoxy]-8-methoxy-chromen-2-one

>  <PUBCHEM_IUPAC_TRADITIONAL_NAME>
7-[(2E,5E)-7-hydroxy-3,7-dimethyl-octa-2,5-dienoxy]-8-methoxy-coumarin

>  <PUBCHEM_IUPAC_INCHI>
InChI=1S/C20H24O5/c1-14(6-5-12-20(2,3)22)11-13-24-16-9-7-15-8-10-17(21)25-18(15)19(16)23-4/h5,7-12,22H,6,13H2,1-4H3/b12-5+,14-11+

>  <PUBCHEM_IUPAC_INCHIKEY>
HAXANHARRBCLKV-IVLLVJITSA-N

>  <PUBCHEM_XLOGP3_AA>
3.6

>  <PUBCHEM_EXACT_MASS>
344.162

>  <PUBCHEM_MOLECULAR_FORMULA>
C20H24O5

>  <PUBCHEM_MOLECULAR_WEIGHT>
344.407

>  <PUBCHEM_OPENEYE_CAN_SMILES>
CC(=CCOC1=C(C2=C(C=C1)C=CC(=O)O2)OC)CC=CC(C)(C)O

>  <PUBCHEM_OPENEYE_ISO_SMILES>
C/C(=C\COC1=C(C2=C(C=C1)C=CC(=O)O2)OC)/C/C=C/C(C)(C)O

>  <PUBCHEM_CACTVS_TPSA>
65

>  <PUBCHEM_MONOISOTOPIC_WEIGHT>
344.162

>  <PUBCHEM_TOTAL_CHARGE>
0

>  <PUBCHEM_HEAVY_ATOM_COUNT>
25

>  <PUBCHEM_ATOM_DEF_STEREO_COUNT>
0

>  <PUBCHEM_ATOM_UDEF_STEREO_COUNT>
0

>  <PUBCHEM_BOND_DEF_STEREO_COUNT>
2

>  <PUBCHEM_BOND_UDEF_STEREO_COUNT>
0

>  <PUBCHEM_ISOTOPIC_ATOM_COUNT>
0

>  <PUBCHEM_COMPONENT_COUNT>
1

>  <PUBCHEM_CACTVS_TAUTO_COUNT>
1

>  <PUBCHEM_COORDINATE_TYPE>
1
5
255

>  <PUBCHEM_BONDANNOTATIONS>
14  18  8
14  20  8
16  17  8
16  18  8
17  21  8
17  22  8
20  21  8
22  23  8
23  24  8
3  16  8
3  24  8

$$$$
