5321164
 OpenBabel06101807152D

 52 55  0  0  1  0  0  0  0  0999 V2000
    5.1350   -1.2485    0.0000 O   0  0  0  0  0  0  0  0  0  0  0  0
    6.8671   -1.2485    0.0000 O   0  0  0  0  0  0  0  0  0  0  0  0
    5.1350   -4.2485    0.0000 O   0  0  0  0  0  0  0  0  0  0  0  0
    3.4030   -3.2485    0.0000 O   0  0  0  0  0  0  0  0  0  0  0  0
    6.8671   -3.2485    0.0000 O   0  0  0  0  0  0  0  0  0  0  0  0
    2.5369   -1.7485    0.0000 O   0  0  0  0  0  0  0  0  0  0  0  0
    8.4701    1.9186    0.0000 O   0  0  0  0  0  0  0  0  0  0  0  0
    5.1350    1.7515    0.0000 O   0  0  0  0  0  0  0  0  0  0  0  0
    6.4084    3.4677    0.0000 O   0  0  0  0  0  0  0  0  0  0  0  0
   11.5650    1.9604    0.0000 O   0  0  0  0  0  0  0  0  0  0  0  0
   12.5650    3.6924    0.0000 O   0  0  0  0  0  0  0  0  0  0  0  0
    5.1350   -3.2485    0.0000 C   0  0  1  0  0  0  0  0  0  0  0  0
    4.2690   -2.7485    0.0000 C   0  0  1  0  0  0  0  0  0  0  0  0
    6.0010   -2.7485    0.0000 C   0  0  2  0  0  0  0  0  0  0  0  0
    4.2690   -1.7485    0.0000 C   0  0  1  0  0  0  0  0  0  0  0  0
    6.0010   -1.7485    0.0000 C   0  0  1  0  0  0  0  0  0  0  0  0
    3.4030   -1.2485    0.0000 C   0  0  0  0  0  0  0  0  0  0  0  0
    6.8671   -0.2485    0.0000 C   0  0  0  0  0  0  0  0  0  0  0  0
    7.7331    0.2515    0.0000 C   0  0  0  0  0  0  0  0  0  0  0  0
    6.0010    0.2515    0.0000 C   0  0  0  0  0  0  0  0  0  0  0  0
    7.7331    1.2515    0.0000 C   0  0  0  0  0  0  0  0  0  0  0  0
    6.8671    1.7515    0.0000 C   0  0  0  0  0  0  0  0  0  0  0  0
    6.0010    1.2515    0.0000 C   0  0  0  0  0  0  0  0  0  0  0  0
    7.0763    2.7234    0.0000 C   0  0  0  0  0  0  0  0  0  0  0  0
    8.0650    2.8264    0.0000 C   0  0  0  0  0  0  0  0  0  0  0  0
    8.5650    3.6924    0.0000 C   0  0  0  0  0  0  0  0  0  0  0  0
    9.5650    3.6924    0.0000 C   0  0  0  0  0  0  0  0  0  0  0  0
   10.0650    2.8264    0.0000 C   0  0  0  0  0  0  0  0  0  0  0  0
   10.0650    4.5585    0.0000 C   0  0  0  0  0  0  0  0  0  0  0  0
   11.0650    2.8264    0.0000 C   0  0  0  0  0  0  0  0  0  0  0  0
   11.0650    4.5585    0.0000 C   0  0  0  0  0  0  0  0  0  0  0  0
   11.5650    3.6924    0.0000 C   0  0  0  0  0  0  0  0  0  0  0  0
    5.6720   -3.5585    0.0000 H   0  0  0  0  0  0  0  0  0  0  0  0
    4.2690   -3.3685    0.0000 H   0  0  0  0  0  0  0  0  0  0  0  0
    6.5380   -2.4385    0.0000 H   0  0  0  0  0  0  0  0  0  0  0  0
    4.2690   -1.1285    0.0000 H   0  0  0  0  0  0  0  0  0  0  0  0
    6.0010   -1.1285    0.0000 H   0  0  0  0  0  0  0  0  0  0  0  0
    3.8015   -0.7735    0.0000 H   0  0  0  0  0  0  0  0  0  0  0  0
    3.0044   -0.7735    0.0000 H   0  0  0  0  0  0  0  0  0  0  0  0
    4.5981   -4.5585    0.0000 H   0  0  0  0  0  0  0  0  0  0  0  0
    3.4030   -3.8685    0.0000 H   0  0  0  0  0  0  0  0  0  0  0  0
    6.8671   -3.8685    0.0000 H   0  0  0  0  0  0  0  0  0  0  0  0
    2.0000   -1.4385    0.0000 H   0  0  0  0  0  0  0  0  0  0  0  0
    8.2700   -0.0585    0.0000 H   0  0  0  0  0  0  0  0  0  0  0  0
    5.4641   -0.0585    0.0000 H   0  0  0  0  0  0  0  0  0  0  0  0
    8.2550    4.2294    0.0000 H   0  0  0  0  0  0  0  0  0  0  0  0
    4.5981    1.4415    0.0000 H   0  0  0  0  0  0  0  0  0  0  0  0
    9.7550    2.2895    0.0000 H   0  0  0  0  0  0  0  0  0  0  0  0
    9.7550    5.0954    0.0000 H   0  0  0  0  0  0  0  0  0  0  0  0
   11.3750    5.0954    0.0000 H   0  0  0  0  0  0  0  0  0  0  0  0
   12.1850    1.9604    0.0000 H   0  0  0  0  0  0  0  0  0  0  0  0
   12.8750    4.2294    0.0000 H   0  0  0  0  0  0  0  0  0  0  0  0
  1 15  1  0  0  0  0
  1 16  1  0  0  0  0
  2 18  1  0  0  0  0
  3 40  1  0  0  0  0
  4 41  1  0  0  0  0
  5 42  1  0  0  0  0
  6 17  1  0  0  0  0
  6 43  1  0  0  0  0
  7 21  1  0  0  0  0
  7 25  1  0  0  0  0
  8 23  1  0  0  0  0
  8 47  1  0  0  0  0
  9 24  2  0  0  0  0
 10 30  1  0  0  0  0
 10 51  1  0  0  0  0
 11 32  1  0  0  0  0
 11 52  1  0  0  0  0
 12  3  1  0  0  0  0
 12 13  1  6  0  0  0
 12 33  1  0  0  0  0
 13  4  1  0  0  0  0
 13 15  1  1  0  0  0
 13 34  1  0  0  0  0
 14  5  1  0  0  0  0
 14 12  1  1  0  0  0
 14 35  1  0  0  0  0
 15 17  1  0  0  0  0
 15 36  1  6  0  0  0
 16  2  1  0  0  0  0
 16 14  1  6  0  0  0
 16 37  1  0  0  0  0
 17 38  1  0  0  0  0
 17 39  1  0  0  0  0
 18 19  1  0  0  0  0
 18 20  2  0  0  0  0
 19 21  2  0  0  0  0
 19 44  1  0  0  0  0
 20 23  1  0  0  0  0
 20 45  1  0  0  0  0
 21 22  1  0  0  0  0
 22 23  2  0  0  0  0
 22 24  1  0  0  0  0
 24 25  1  0  0  0  0
 25 26  2  0  0  0  0
 26 27  1  0  0  0  0
 26 46  1  0  0  0  0
 27 28  2  0  0  0  0
 27 29  1  0  0  0  0
 28 30  1  0  0  0  0
 28 48  1  0  0  0  0
 29 31  2  0  0  0  0
 29 49  1  0  0  0  0
 30 32  2  0  0  0  0
 31 32  1  0  0  0  0
 31 50  1  0  0  0  0
M  END
>  <PUBCHEM_COMPOUND_CID>
5321164

>  <PUBCHEM_COMPOUND_CANONICALIZED>
1

>  <PUBCHEM_CACTVS_COMPLEXITY>
714

>  <PUBCHEM_CACTVS_HBOND_ACCEPTOR>
11

>  <PUBCHEM_CACTVS_HBOND_DONOR>
7

>  <PUBCHEM_CACTVS_ROTATABLE_BOND>
4

>  <PUBCHEM_CACTVS_SUBSKEYS>
AAADceB4PAAAAAAAAAAAAAAAAAAAASAAAAA0YIAAAAAAAEgBQAAAGgAACAAADBSwmAMwDoAABgCIAqBSAAICCAAkIAAIiAFGiMgdNzaGNR6ieWGl4BUPuYfI7LzOIAABCAAIQABAAAIQABCAAAAAAAAAAA==

>  <PUBCHEM_IUPAC_OPENEYE_NAME>
(2Z)-2-[(3,4-dihydroxyphenyl)methylene]-4-hydroxy-6-[(2S,3R,4S,5S,6R)-3,4,5-trihydroxy-6-(hydroxymethyl)tetrahydropyran-2-yl]oxy-benzofuran-3-one

>  <PUBCHEM_IUPAC_CAS_NAME>
(2Z)-2-[(3,4-dihydroxyphenyl)methylidene]-4-hydroxy-6-[[(2S,3R,4S,5S,6R)-3,4,5-trihydroxy-6-(hydroxymethyl)-2-oxanyl]oxy]-3-benzofuranone

>  <PUBCHEM_IUPAC_NAME>
(2Z)-2-[(3,4-dihydroxyphenyl)methylidene]-4-hydroxy-6-[(2S,3R,4S,5S,6R)-3,4,5-trihydroxy-6-(hydroxymethyl)oxan-2-yl]oxy-1-benzofuran-3-one

>  <PUBCHEM_IUPAC_SYSTEMATIC_NAME>
(2Z)-2-[[3,4-bis(oxidanyl)phenyl]methylidene]-6-[(2S,3R,4S,5S,6R)-6-(hydroxymethyl)-3,4,5-tris(oxidanyl)oxan-2-yl]oxy-4-oxidanyl-1-benzofuran-3-one

>  <PUBCHEM_IUPAC_TRADITIONAL_NAME>
(2Z)-2-(3,4-dihydroxybenzylidene)-4-hydroxy-6-[(2S,3R,4S,5S,6R)-3,4,5-trihydroxy-6-methylol-tetrahydropyran-2-yl]oxy-coumaran-3-one

>  <PUBCHEM_IUPAC_INCHI>
InChI=1S/C21H20O11/c22-7-15-18(27)19(28)20(29)21(32-15)30-9-5-12(25)16-13(6-9)31-14(17(16)26)4-8-1-2-10(23)11(24)3-8/h1-6,15,18-25,27-29H,7H2/b14-4-/t15-,18-,19+,20-,21-/m1/s1

>  <PUBCHEM_IUPAC_INCHIKEY>
AMJCTDBATIKENQ-YRDFTBLNSA-N

>  <PUBCHEM_XLOGP3_AA>
0.9

>  <PUBCHEM_EXACT_MASS>
448.101

>  <PUBCHEM_MOLECULAR_FORMULA>
C21H20O11

>  <PUBCHEM_MOLECULAR_WEIGHT>
448.38

>  <PUBCHEM_OPENEYE_CAN_SMILES>
C1=CC(=C(C=C1C=C2C(=O)C3=C(C=C(C=C3O2)OC4C(C(C(C(O4)CO)O)O)O)O)O)O

>  <PUBCHEM_OPENEYE_ISO_SMILES>
C1=CC(=C(C=C1/C=C\2/C(=O)C3=C(C=C(C=C3O2)O[C@H]4[C@@H]([C@H]([C@@H]([C@H](O4)CO)O)O)O)O)O)O

>  <PUBCHEM_CACTVS_TPSA>
186

>  <PUBCHEM_MONOISOTOPIC_WEIGHT>
448.101

>  <PUBCHEM_TOTAL_CHARGE>
0

>  <PUBCHEM_HEAVY_ATOM_COUNT>
32

>  <PUBCHEM_ATOM_DEF_STEREO_COUNT>
5

>  <PUBCHEM_ATOM_UDEF_STEREO_COUNT>
0

>  <PUBCHEM_BOND_DEF_STEREO_COUNT>
1

>  <PUBCHEM_BOND_UDEF_STEREO_COUNT>
0

>  <PUBCHEM_ISOTOPIC_ATOM_COUNT>
0

>  <PUBCHEM_COMPONENT_COUNT>
1

>  <PUBCHEM_CACTVS_TAUTO_COUNT>
77

>  <PUBCHEM_COORDINATE_TYPE>
1
5
255

>  <PUBCHEM_BONDANNOTATIONS>
15  17  5
18  19  8
18  20  8
19  21  8
16  2  5
20  23  8
21  22  8
22  23  8
27  28  8
27  29  8
28  30  8
29  31  8
12  3  5
30  32  8
31  32  8
13  4  6
14  5  6

$$$$
