5321000
 OpenBabel06101807152D

 57 60  0  0  1  0  0  0  0  0999 V2000
    6.4874    1.0222    0.0000 O   0  0  0  0  0  0  0  0  0  0  0  0
    2.6049    0.1444    0.0000 O   0  0  0  0  0  0  0  0  0  0  0  0
    9.8814   -0.6980    0.0000 O   0  0  0  0  0  0  0  0  0  0  0  0
    7.8654    1.5237    0.0000 O   0  0  0  0  0  0  0  0  0  0  0  0
    8.5987   -1.8619    0.0000 O   0  0  0  0  0  0  0  0  0  0  0  0
    5.2273   -0.7954    0.0000 N   0  0  3  0  0  0  0  0  0  0  0  0
    5.2273    2.2823    0.0000 N   0  0  0  0  0  0  0  0  0  0  0  0
    5.5364    0.1556    0.0000 C   0  0  3  0  0  0  0  0  0  0  0  0
    4.7273    0.7434    0.0000 C   0  0  3  0  0  0  0  0  0  0  0  0
    6.5518    0.3879    0.0000 C   0  0  0  0  0  0  0  0  0  0  0  0
    3.9183    0.1556    0.0000 C   0  0  0  0  0  0  0  0  0  0  0  0
    7.2547   -0.3808    0.0000 C   0  0  1  0  0  0  0  0  0  0  0  0
    6.9328   -1.3714    0.0000 C   0  0  2  0  0  0  0  0  0  0  0  0
    4.2273   -0.7954    0.0000 C   0  0  0  0  0  0  0  0  0  0  0  0
    5.9123   -1.5801    0.0000 C   0  0  0  0  0  0  0  0  0  0  0  0
    3.9183    1.3312    0.0000 C   0  0  0  0  0  0  0  0  0  0  0  0
    5.5364    1.3312    0.0000 C   0  0  0  0  0  0  0  0  0  0  0  0
    7.5991   -2.1172    0.0000 C   0  0  0  0  0  0  0  0  0  0  0  0
    4.2273    2.2823    0.0000 C   0  0  0  0  0  0  0  0  0  0  0  0
    8.2320   -0.1691    0.0000 C   0  0  0  0  0  0  0  0  0  0  0  0
    2.9029    1.0990    0.0000 C   0  0  0  0  0  0  0  0  0  0  0  0
    7.2864   -3.0670    0.0000 C   0  0  0  0  0  0  0  0  0  0  0  0
    3.5424    3.0670    0.0000 C   0  0  0  0  0  0  0  0  0  0  0  0
    2.2000    1.8677    0.0000 C   0  0  0  0  0  0  0  0  0  0  0  0
    8.9040   -0.9097    0.0000 C   0  0  0  0  0  0  0  0  0  0  0  0
    8.5374    0.7831    0.0000 C   0  0  0  0  0  0  0  0  0  0  0  0
    2.5219    2.8583    0.0000 C   0  0  0  0  0  0  0  0  0  0  0  0
   10.5534   -1.4386    0.0000 C   0  0  0  0  0  0  0  0  0  0  0  0
    8.1708    2.4759    0.0000 C   0  0  0  0  0  0  0  0  0  0  0  0
    5.7067    0.9884    0.0000 H   0  0  0  0  0  0  0  0  0  0  0  0
    7.0742    0.7218    0.0000 H   0  0  0  0  0  0  0  0  0  0  0  0
    6.3122    0.9597    0.0000 H   0  0  0  0  0  0  0  0  0  0  0  0
    3.6083    0.6926    0.0000 H   0  0  0  0  0  0  0  0  0  0  0  0
    3.3519   -0.0965    0.0000 H   0  0  0  0  0  0  0  0  0  0  0  0
    7.6704   -0.8407    0.0000 H   0  0  0  0  0  0  0  0  0  0  0  0
    7.5395   -1.2437    0.0000 H   0  0  0  0  0  0  0  0  0  0  0  0
    3.6209   -0.9243    0.0000 H   0  0  0  0  0  0  0  0  0  0  0  0
    4.2922   -1.4120    0.0000 H   0  0  0  0  0  0  0  0  0  0  0  0
    5.3824   -1.9019    0.0000 H   0  0  0  0  0  0  0  0  0  0  0  0
    6.1386   -2.1574    0.0000 H   0  0  0  0  0  0  0  0  0  0  0  0
    8.1454   -2.4103    0.0000 H   0  0  0  0  0  0  0  0  0  0  0  0
    7.9827   -1.6301    0.0000 H   0  0  0  0  0  0  0  0  0  0  0  0
    5.5918    2.7839    0.0000 H   0  0  0  0  0  0  0  0  0  0  0  0
    6.6975   -2.8732    0.0000 H   0  0  0  0  0  0  0  0  0  0  0  0
    7.0925   -3.6559    0.0000 H   0  0  0  0  0  0  0  0  0  0  0  0
    7.8753   -3.2609    0.0000 H   0  0  0  0  0  0  0  0  0  0  0  0
    3.7408    3.6544    0.0000 H   0  0  0  0  0  0  0  0  0  0  0  0
    1.5940    1.7364    0.0000 H   0  0  0  0  0  0  0  0  0  0  0  0
    9.1433    0.9144    0.0000 H   0  0  0  0  0  0  0  0  0  0  0  0
    2.1088    3.3206    0.0000 H   0  0  0  0  0  0  0  0  0  0  0  0
    2.0000    0.0085    0.0000 H   0  0  0  0  0  0  0  0  0  0  0  0
   10.0942   -1.8552    0.0000 H   0  0  0  0  0  0  0  0  0  0  0  0
   10.9700   -1.8977    0.0000 H   0  0  0  0  0  0  0  0  0  0  0  0
   11.0125   -1.0219    0.0000 H   0  0  0  0  0  0  0  0  0  0  0  0
    8.7611    2.2866    0.0000 H   0  0  0  0  0  0  0  0  0  0  0  0
    8.3601    3.0663    0.0000 H   0  0  0  0  0  0  0  0  0  0  0  0
    7.5804    2.6652    0.0000 H   0  0  0  0  0  0  0  0  0  0  0  0
  1 17  2  0  0  0  0
  2 21  1  0  0  0  0
  2 51  1  0  0  0  0
  3 25  1  0  0  0  0
  3 28  1  0  0  0  0
  4 26  1  0  0  0  0
  4 29  1  0  0  0  0
  5 25  2  0  0  0  0
  6  8  1  0  0  0  0
  6 14  1  0  0  0  0
  6 15  1  0  0  0  0
  7 17  1  0  0  0  0
  7 19  1  0  0  0  0
  7 43  1  0  0  0  0
  8  9  1  0  0  0  0
  8 10  1  0  0  0  0
  8 30  1  0  0  0  0
  9 11  1  0  0  0  0
  9 16  1  0  0  0  0
  9 17  1  0  0  0  0
 10 12  1  0  0  0  0
 10 31  1  0  0  0  0
 10 32  1  0  0  0  0
 11 14  1  0  0  0  0
 11 33  1  0  0  0  0
 11 34  1  0  0  0  0
 12 13  1  6  0  0  0
 12 20  1  0  0  0  0
 12 35  1  0  0  0  0
 13 15  1  0  0  0  0
 13 18  1  0  0  0  0
 13 36  1  6  0  0  0
 14 37  1  0  0  0  0
 14 38  1  0  0  0  0
 15 39  1  0  0  0  0
 15 40  1  0  0  0  0
 16 19  2  0  0  0  0
 16 21  1  0  0  0  0
 18 22  1  0  0  0  0
 18 41  1  0  0  0  0
 18 42  1  0  0  0  0
 19 23  1  0  0  0  0
 20 25  1  0  0  0  0
 20 26  2  0  0  0  0
 21 24  2  0  0  0  0
 22 44  1  0  0  0  0
 22 45  1  0  0  0  0
 22 46  1  0  0  0  0
 23 27  2  0  0  0  0
 23 47  1  0  0  0  0
 24 27  1  0  0  0  0
 24 48  1  0  0  0  0
 26 49  1  0  0  0  0
 27 50  1  0  0  0  0
 28 52  1  0  0  0  0
 28 53  1  0  0  0  0
 28 54  1  0  0  0  0
 29 55  1  0  0  0  0
 29 56  1  0  0  0  0
 29 57  1  0  0  0  0
M  END
>  <PUBCHEM_COMPOUND_CID>
5321000

>  <PUBCHEM_COMPOUND_CANONICALIZED>
1

>  <PUBCHEM_CACTVS_COMPLEXITY>
695

>  <PUBCHEM_CACTVS_HBOND_ACCEPTOR>
6

>  <PUBCHEM_CACTVS_HBOND_DONOR>
2

>  <PUBCHEM_CACTVS_ROTATABLE_BOND>
5

>  <PUBCHEM_CACTVS_SUBSKEYS>
AAADceB7OAAAAAAAAAAAAAAAAAAAAWLAAAA8QAAAAAAAAFgBAAAAHgAQCAAADyzhmAYyzoPABgCIAiXSWACCCAAhIgAIiAEObMgIJjrC9ZOEcAhm1BnI+Ie+2eOfgAAAAgAKAAAAAAAEABQAAAAAAAAAAA==

>  <PUBCHEM_IUPAC_OPENEYE_NAME>
methyl (E)-2-[(6R,7S)-6-ethyl-4'-hydroxy-2'-oxo-spiro[3,5,6,7,8,8a-hexahydro-2H-indolizine-1,3'-indoline]-7-yl]-3-methoxy-prop-2-enoate

>  <PUBCHEM_IUPAC_CAS_NAME>
(E)-2-[(6'R,7'S)-6'-ethyl-4-hydroxy-2-oxo-7'-spiro[1H-indole-3,1'-3,5,6,7,8,8a-hexahydro-2H-indolizine]yl]-3-methoxy-2-propenoic acid methyl ester

>  <PUBCHEM_IUPAC_NAME>
methyl (E)-2-[(6'R,7'S)-6'-ethyl-4-hydroxy-2-oxospiro[1H-indole-3,1'-3,5,6,7,8,8a-hexahydro-2H-indolizine]-7'-yl]-3-methoxyprop-2-enoate

>  <PUBCHEM_IUPAC_SYSTEMATIC_NAME>
methyl (E)-2-[(6'R,7'S)-6'-ethyl-4-oxidanyl-2-oxidanylidene-spiro[1H-indole-3,1'-3,5,6,7,8,8a-hexahydro-2H-indolizine]-7'-yl]-3-methoxy-prop-2-enoate

>  <PUBCHEM_IUPAC_TRADITIONAL_NAME>
(E)-2-[(6'R,7'S)-6'-ethyl-4-hydroxy-2-keto-spiro[indoline-3,1'-indolizidine]-7'-yl]-3-methoxy-acrylic acid methyl ester

>  <PUBCHEM_IUPAC_INCHI>
InChI=1S/C22H28N2O5/c1-4-13-11-24-9-8-22(19-16(23-21(22)27)6-5-7-17(19)25)18(24)10-14(13)15(12-28-2)20(26)29-3/h5-7,12-14,18,25H,4,8-11H2,1-3H3,(H,23,27)/b15-12+/t13-,14-,18?,22?/m0/s1

>  <PUBCHEM_IUPAC_INCHIKEY>
IXWWTVSMMIIIFZ-LWWKTLCYSA-N

>  <PUBCHEM_XLOGP3_AA>
2

>  <PUBCHEM_EXACT_MASS>
400.2

>  <PUBCHEM_MOLECULAR_FORMULA>
C22H28N2O5

>  <PUBCHEM_MOLECULAR_WEIGHT>
400.475

>  <PUBCHEM_OPENEYE_CAN_SMILES>
CCC1CN2CCC3(C2CC1C(=COC)C(=O)OC)C4=C(C=CC=C4O)NC3=O

>  <PUBCHEM_OPENEYE_ISO_SMILES>
CC[C@H]1CN2CCC3(C2C[C@@H]1/C(=C\OC)/C(=O)OC)C4=C(C=CC=C4O)NC3=O

>  <PUBCHEM_CACTVS_TPSA>
88.1

>  <PUBCHEM_MONOISOTOPIC_WEIGHT>
400.2

>  <PUBCHEM_TOTAL_CHARGE>
0

>  <PUBCHEM_HEAVY_ATOM_COUNT>
29

>  <PUBCHEM_ATOM_DEF_STEREO_COUNT>
2

>  <PUBCHEM_ATOM_UDEF_STEREO_COUNT>
2

>  <PUBCHEM_BOND_DEF_STEREO_COUNT>
1

>  <PUBCHEM_BOND_UDEF_STEREO_COUNT>
0

>  <PUBCHEM_ISOTOPIC_ATOM_COUNT>
0

>  <PUBCHEM_COMPONENT_COUNT>
1

>  <PUBCHEM_CACTVS_TAUTO_COUNT>
13

>  <PUBCHEM_COORDINATE_TYPE>
1
5
255

>  <PUBCHEM_BONDANNOTATIONS>
12  20  6
13  18  5
16  19  8
16  21  8
19  23  8
21  24  8
23  27  8
24  27  8
8  30  3
9  17  3

$$$$
