5322059
 OpenBabel06101807152D

 38 40  0  0  0  0  0  0  0  0999 V2000
    6.3981   -0.6154    0.0000 O   0  0  0  0  0  0  0  0  0  0  0  0
    4.6497   -1.6500    0.0000 O   0  0  0  0  0  0  0  0  0  0  0  0
    2.8680   -0.6395    0.0000 O   0  0  0  0  0  0  0  0  0  0  0  0
    4.6497    2.4192    0.0000 O   0  0  0  0  0  0  0  0  0  0  0  0
    6.3981    2.3846    0.0000 O   0  0  0  0  0  0  0  0  0  0  0  0
    7.2641   -2.1154    0.0000 O   0  0  0  0  0  0  0  0  0  0  0  0
    8.9962    0.8846    0.0000 O   0  0  0  0  0  0  0  0  0  0  0  0
    5.5320    0.8846    0.0000 C   0  0  0  0  0  0  0  0  0  0  0  0
    5.5320   -0.1154    0.0000 C   0  0  0  0  0  0  0  0  0  0  0  0
    7.2641   -0.1154    0.0000 C   0  0  0  0  0  0  0  0  0  0  0  0
    4.6381   -0.6501    0.0000 C   0  0  0  0  0  0  0  0  0  0  0  0
    6.3981    1.3846    0.0000 C   0  0  0  0  0  0  0  0  0  0  0  0
    4.6381    1.4193    0.0000 C   0  0  0  0  0  0  0  0  0  0  0  0
    8.1301   -0.6154    0.0000 C   0  0  0  0  0  0  0  0  0  0  0  0
    7.2641    0.8846    0.0000 C   0  0  0  0  0  0  0  0  0  0  0  0
    3.7320   -0.1362    0.0000 C   0  0  0  0  0  0  0  0  0  0  0  0
    3.7320    0.9054    0.0000 C   0  0  0  0  0  0  0  0  0  0  0  0
    8.1301   -1.6154    0.0000 C   0  0  0  0  0  0  0  0  0  0  0  0
    8.9962   -0.1154    0.0000 C   0  0  0  0  0  0  0  0  0  0  0  0
    8.9962   -2.1154    0.0000 C   0  0  0  0  0  0  0  0  0  0  0  0
    9.8622   -0.6154    0.0000 C   0  0  0  0  0  0  0  0  0  0  0  0
    9.8622   -1.6154    0.0000 C   0  0  0  0  0  0  0  0  0  0  0  0
    3.7895   -2.1600    0.0000 C   0  0  0  0  0  0  0  0  0  0  0  0
    2.0000   -0.1429    0.0000 C   0  0  0  0  0  0  0  0  0  0  0  0
    7.8010    1.1946    0.0000 H   0  0  0  0  0  0  0  0  0  0  0  0
    3.1963    1.2175    0.0000 H   0  0  0  0  0  0  0  0  0  0  0  0
    8.9962   -2.7354    0.0000 H   0  0  0  0  0  0  0  0  0  0  0  0
   10.3991   -0.3054    0.0000 H   0  0  0  0  0  0  0  0  0  0  0  0
   10.3991   -1.9254    0.0000 H   0  0  0  0  0  0  0  0  0  0  0  0
    4.1164    2.7354    0.0000 H   0  0  0  0  0  0  0  0  0  0  0  0
    3.4733   -1.6266    0.0000 H   0  0  0  0  0  0  0  0  0  0  0  0
    3.2562   -2.4762    0.0000 H   0  0  0  0  0  0  0  0  0  0  0  0
    4.1057   -2.6933    0.0000 H   0  0  0  0  0  0  0  0  0  0  0  0
    2.3079    0.3952    0.0000 H   0  0  0  0  0  0  0  0  0  0  0  0
    1.4619    0.1650    0.0000 H   0  0  0  0  0  0  0  0  0  0  0  0
    1.6921   -0.6810    0.0000 H   0  0  0  0  0  0  0  0  0  0  0  0
    7.2641   -2.7354    0.0000 H   0  0  0  0  0  0  0  0  0  0  0  0
    9.5331    1.1946    0.0000 H   0  0  0  0  0  0  0  0  0  0  0  0
  1  9  1  0  0  0  0
  1 10  1  0  0  0  0
  2 11  1  0  0  0  0
  2 23  1  0  0  0  0
  3 16  1  0  0  0  0
  3 24  1  0  0  0  0
  4 13  1  0  0  0  0
  4 30  1  0  0  0  0
  5 12  2  0  0  0  0
  6 18  1  0  0  0  0
  6 37  1  0  0  0  0
  7 19  1  0  0  0  0
  7 38  1  0  0  0  0
  8  9  2  0  0  0  0
  8 12  1  0  0  0  0
  8 13  1  0  0  0  0
  9 11  1  0  0  0  0
 10 14  1  0  0  0  0
 10 15  2  0  0  0  0
 11 16  2  0  0  0  0
 12 15  1  0  0  0  0
 13 17  2  0  0  0  0
 14 18  2  0  0  0  0
 14 19  1  0  0  0  0
 15 25  1  0  0  0  0
 16 17  1  0  0  0  0
 17 26  1  0  0  0  0
 18 20  1  0  0  0  0
 19 21  2  0  0  0  0
 20 22  2  0  0  0  0
 20 27  1  0  0  0  0
 21 22  1  0  0  0  0
 21 28  1  0  0  0  0
 22 29  1  0  0  0  0
 23 31  1  0  0  0  0
 23 32  1  0  0  0  0
 23 33  1  0  0  0  0
 24 34  1  0  0  0  0
 24 35  1  0  0  0  0
 24 36  1  0  0  0  0
M  END
>  <PUBCHEM_COMPOUND_CID>
5322059

>  <PUBCHEM_COMPOUND_CANONICALIZED>
1

>  <PUBCHEM_CACTVS_COMPLEXITY>
495

>  <PUBCHEM_CACTVS_HBOND_ACCEPTOR>
7

>  <PUBCHEM_CACTVS_HBOND_DONOR>
3

>  <PUBCHEM_CACTVS_ROTATABLE_BOND>
3

>  <PUBCHEM_CACTVS_SUBSKEYS>
AAADccB4OAAAAAAAAAAAAAAAAAAAAAAAAAAwYIAAAAAAAACBQAAAGgAACAAADASAmAIyBoAABgCIAqBSAAACCAAkIAAIiAEGiMgNJzaGNRqCeWKl4BUKuQfK7LzOIQABCAAIQABCAAIQABCAAAAAAAAAAA==

>  <PUBCHEM_IUPAC_OPENEYE_NAME>
2-(2,6-dihydroxyphenyl)-5-hydroxy-7,8-dimethoxy-chromen-4-one

>  <PUBCHEM_IUPAC_CAS_NAME>
2-(2,6-dihydroxyphenyl)-5-hydroxy-7,8-dimethoxy-1-benzopyran-4-one

>  <PUBCHEM_IUPAC_NAME>
2-(2,6-dihydroxyphenyl)-5-hydroxy-7,8-dimethoxychromen-4-one

>  <PUBCHEM_IUPAC_SYSTEMATIC_NAME>
2-[2,6-bis(oxidanyl)phenyl]-7,8-dimethoxy-5-oxidanyl-chromen-4-one

>  <PUBCHEM_IUPAC_TRADITIONAL_NAME>
2-(2,6-dihydroxyphenyl)-5-hydroxy-7,8-dimethoxy-chromone

>  <PUBCHEM_IUPAC_INCHI>
InChI=1S/C17H14O7/c1-22-13-7-11(21)15-10(20)6-12(24-17(15)16(13)23-2)14-8(18)4-3-5-9(14)19/h3-7,18-19,21H,1-2H3

>  <PUBCHEM_IUPAC_INCHIKEY>
GWRFNPJGKCUUSJ-UHFFFAOYSA-N

>  <PUBCHEM_XLOGP3_AA>
2.6

>  <PUBCHEM_EXACT_MASS>
330.074

>  <PUBCHEM_MOLECULAR_FORMULA>
C17H14O7

>  <PUBCHEM_MOLECULAR_WEIGHT>
330.292

>  <PUBCHEM_OPENEYE_CAN_SMILES>
COC1=C(C2=C(C(=C1)O)C(=O)C=C(O2)C3=C(C=CC=C3O)O)OC

>  <PUBCHEM_OPENEYE_ISO_SMILES>
COC1=C(C2=C(C(=C1)O)C(=O)C=C(O2)C3=C(C=CC=C3O)O)OC

>  <PUBCHEM_CACTVS_TPSA>
105

>  <PUBCHEM_MONOISOTOPIC_WEIGHT>
330.074

>  <PUBCHEM_TOTAL_CHARGE>
0

>  <PUBCHEM_HEAVY_ATOM_COUNT>
24

>  <PUBCHEM_ATOM_DEF_STEREO_COUNT>
0

>  <PUBCHEM_ATOM_UDEF_STEREO_COUNT>
0

>  <PUBCHEM_BOND_DEF_STEREO_COUNT>
0

>  <PUBCHEM_BOND_UDEF_STEREO_COUNT>
0

>  <PUBCHEM_ISOTOPIC_ATOM_COUNT>
0

>  <PUBCHEM_COMPONENT_COUNT>
1

>  <PUBCHEM_CACTVS_TAUTO_COUNT>
34

>  <PUBCHEM_COORDINATE_TYPE>
1
5
255

>  <PUBCHEM_BONDANNOTATIONS>
1  10  8
1  9  8
10  15  8
11  16  8
12  15  8
13  17  8
14  18  8
14  19  8
16  17  8
18  20  8
19  21  8
20  22  8
21  22  8
8  12  8
8  13  8
8  9  8
9  11  8

$$$$
