5323537
 OpenBabel06101807152D

 77 81  0  0  1  0  0  0  0  0999 V2000
    5.1459   -3.1913    0.0000 O   0  0  0  0  0  0  0  0  0  0  0  0
    5.1396    3.8813    0.0000 O   0  0  0  0  0  0  0  0  0  0  0  0
    6.8779   -3.1913    0.0000 O   0  0  0  0  0  0  0  0  0  0  0  0
    5.9998    2.3780    0.0000 O   0  0  0  0  0  0  0  0  0  0  0  0
    5.1459   -6.1913    0.0000 O   0  0  0  0  0  0  0  0  0  0  0  0
    3.4138   -5.1913    0.0000 O   0  0  0  0  0  0  0  0  0  0  0  0
    2.5357    2.3913    0.0000 O   0  0  0  0  0  0  0  0  0  0  0  0
    2.5434    4.3913    0.0000 O   0  0  0  0  0  0  0  0  0  0  0  0
    6.8779   -5.1913    0.0000 O   0  0  0  0  0  0  0  0  0  0  0  0
    4.2639    1.3847    0.0000 O   0  0  0  0  0  0  0  0  0  0  0  0
    2.5478   -3.6913    0.0000 O   0  0  0  0  0  0  0  0  0  0  0  0
    5.1473    5.8813    0.0000 O   0  0  0  0  0  0  0  0  0  0  0  0
    7.7440   -0.6913    0.0000 O   0  0  0  0  0  0  0  0  0  0  0  0
    5.1459   -2.1913    0.0000 O   0  0  0  0  0  0  0  0  0  0  0  0
    4.2417   -0.6944    0.0000 O   0  0  0  0  0  0  0  0  0  0  0  0
   11.2081   -1.6913    0.0000 O   0  0  0  0  0  0  0  0  0  0  0  0
   11.2081   -3.6913    0.0000 O   0  0  0  0  0  0  0  0  0  0  0  0
    5.1459   -5.1913    0.0000 C   0  0  1  0  0  0  0  0  0  0  0  0
    4.2799   -4.6913    0.0000 C   0  0  1  0  0  0  0  0  0  0  0  0
    3.4037    2.8880    0.0000 C   0  0  1  0  0  0  0  0  0  0  0  0
    3.4075    3.8880    0.0000 C   0  0  1  0  0  0  0  0  0  0  0  0
    6.0119   -4.6913    0.0000 C   0  0  2  0  0  0  0  0  0  0  0  0
    4.2799   -3.6913    0.0000 C   0  0  1  0  0  0  0  0  0  0  0  0
    4.2678    2.3846    0.0000 C   0  0  2  0  0  0  0  0  0  0  0  0
    4.2755    4.3846    0.0000 C   0  0  1  0  0  0  0  0  0  0  0  0
    6.0119   -3.6913    0.0000 C   0  0  1  0  0  0  0  0  0  0  0  0
    5.1357    2.8813    0.0000 C   0  0  1  0  0  0  0  0  0  0  0  0
    3.4138   -3.1913    0.0000 C   0  0  0  0  0  0  0  0  0  0  0  0
    4.2793    5.3846    0.0000 C   0  0  0  0  0  0  0  0  0  0  0  0
    6.8779   -2.1913    0.0000 C   0  0  0  0  0  0  0  0  0  0  0  0
    5.9960    1.3780    0.0000 C   0  0  0  0  0  0  0  0  0  0  0  0
    6.0119   -0.6913    0.0000 C   0  0  0  0  0  0  0  0  0  0  0  0
    6.0119   -1.6913    0.0000 C   0  0  0  0  0  0  0  0  0  0  0  0
    7.7440   -1.6913    0.0000 C   0  0  0  0  0  0  0  0  0  0  0  0
    6.8779   -0.1913    0.0000 C   0  0  0  0  0  0  0  0  0  0  0  0
    6.8940    0.8502    0.0000 C   0  0  0  0  0  0  0  0  0  0  0  0
    5.0939    0.8572    0.0000 C   0  0  0  0  0  0  0  0  0  0  0  0
    5.1019   -0.1844    0.0000 C   0  0  0  0  0  0  0  0  0  0  0  0
    8.6100   -2.1913    0.0000 C   0  0  0  0  0  0  0  0  0  0  0  0
    9.4760   -1.6913    0.0000 C   0  0  0  0  0  0  0  0  0  0  0  0
    8.6100   -3.1913    0.0000 C   0  0  0  0  0  0  0  0  0  0  0  0
   10.3420   -2.1913    0.0000 C   0  0  0  0  0  0  0  0  0  0  0  0
    9.4760   -3.6913    0.0000 C   0  0  0  0  0  0  0  0  0  0  0  0
   10.3420   -3.1913    0.0000 C   0  0  0  0  0  0  0  0  0  0  0  0
   11.2081   -0.6913    0.0000 C   0  0  0  0  0  0  0  0  0  0  0  0
    5.6828   -5.5013    0.0000 H   0  0  0  0  0  0  0  0  0  0  0  0
    3.7429   -4.3813    0.0000 H   0  0  0  0  0  0  0  0  0  0  0  0
    3.4013    2.2680    0.0000 H   0  0  0  0  0  0  0  0  0  0  0  0
    2.8694    3.5800    0.0000 H   0  0  0  0  0  0  0  0  0  0  0  0
    6.5488   -4.3813    0.0000 H   0  0  0  0  0  0  0  0  0  0  0  0
    4.2799   -3.0713    0.0000 H   0  0  0  0  0  0  0  0  0  0  0  0
    4.8035    2.0726    0.0000 H   0  0  0  0  0  0  0  0  0  0  0  0
    4.8136    4.6926    0.0000 H   0  0  0  0  0  0  0  0  0  0  0  0
    6.0119   -3.0713    0.0000 H   0  0  0  0  0  0  0  0  0  0  0  0
    5.6738    3.1892    0.0000 H   0  0  0  0  0  0  0  0  0  0  0  0
    3.8124   -2.7163    0.0000 H   0  0  0  0  0  0  0  0  0  0  0  0
    3.0153   -2.7163    0.0000 H   0  0  0  0  0  0  0  0  0  0  0  0
    4.0695    5.9680    0.0000 H   0  0  0  0  0  0  0  0  0  0  0  0
    3.6684    5.2793    0.0000 H   0  0  0  0  0  0  0  0  0  0  0  0
    4.6090   -6.5013    0.0000 H   0  0  0  0  0  0  0  0  0  0  0  0
    3.4138   -5.8113    0.0000 H   0  0  0  0  0  0  0  0  0  0  0  0
    2.0000    2.7034    0.0000 H   0  0  0  0  0  0  0  0  0  0  0  0
    2.5458    5.0113    0.0000 H   0  0  0  0  0  0  0  0  0  0  0  0
    6.8779   -5.8113    0.0000 H   0  0  0  0  0  0  0  0  0  0  0  0
    3.7258    1.0767    0.0000 H   0  0  0  0  0  0  0  0  0  0  0  0
    7.4345    1.1540    0.0000 H   0  0  0  0  0  0  0  0  0  0  0  0
    2.0109   -3.3813    0.0000 H   0  0  0  0  0  0  0  0  0  0  0  0
    5.1497    6.5013    0.0000 H   0  0  0  0  0  0  0  0  0  0  0  0
    4.5558    1.1651    0.0000 H   0  0  0  0  0  0  0  0  0  0  0  0
    9.4760   -1.0713    0.0000 H   0  0  0  0  0  0  0  0  0  0  0  0
    8.0730   -3.5013    0.0000 H   0  0  0  0  0  0  0  0  0  0  0  0
    3.7012   -0.3906    0.0000 H   0  0  0  0  0  0  0  0  0  0  0  0
    9.4760   -4.3113    0.0000 H   0  0  0  0  0  0  0  0  0  0  0  0
   11.2081   -4.3113    0.0000 H   0  0  0  0  0  0  0  0  0  0  0  0
   11.8281   -0.6913    0.0000 H   0  0  0  0  0  0  0  0  0  0  0  0
   11.2081   -0.0713    0.0000 H   0  0  0  0  0  0  0  0  0  0  0  0
   10.5881   -0.6913    0.0000 H   0  0  0  0  0  0  0  0  0  0  0  0
  1 23  1  0  0  0  0
  1 26  1  0  0  0  0
  2 25  1  0  0  0  0
  2 27  1  0  0  0  0
  3 30  1  0  0  0  0
  4 31  1  0  0  0  0
  5 60  1  0  0  0  0
  6 61  1  0  0  0  0
  7 62  1  0  0  0  0
  8 63  1  0  0  0  0
  9 64  1  0  0  0  0
 10 65  1  0  0  0  0
 11 28  1  0  0  0  0
 11 67  1  0  0  0  0
 12 29  1  0  0  0  0
 12 68  1  0  0  0  0
 13 34  1  0  0  0  0
 13 35  1  0  0  0  0
 14 33  2  0  0  0  0
 15 38  1  0  0  0  0
 15 72  1  0  0  0  0
 16 42  1  0  0  0  0
 16 45  1  0  0  0  0
 17 44  1  0  0  0  0
 17 74  1  0  0  0  0
 18  5  1  0  0  0  0
 18 19  1  6  0  0  0
 18 46  1  0  0  0  0
 19  6  1  0  0  0  0
 19 23  1  6  0  0  0
 19 47  1  0  0  0  0
 20  7  1  0  0  0  0
 20 21  1  6  0  0  0
 20 48  1  0  0  0  0
 21  8  1  0  0  0  0
 21 25  1  1  0  0  0
 21 49  1  0  0  0  0
 22  9  1  0  0  0  0
 22 18  1  1  0  0  0
 22 50  1  0  0  0  0
 23 28  1  0  0  0  0
 23 51  1  6  0  0  0
 24 10  1  0  0  0  0
 24 20  1  1  0  0  0
 24 52  1  0  0  0  0
 25 29  1  0  0  0  0
 25 53  1  6  0  0  0
 26  3  1  0  0  0  0
 26 22  1  6  0  0  0
 26 54  1  0  0  0  0
 27  4  1  0  0  0  0
 27 24  1  6  0  0  0
 27 55  1  0  0  0  0
 28 56  1  0  0  0  0
 28 57  1  0  0  0  0
 29 58  1  0  0  0  0
 29 59  1  0  0  0  0
 30 33  1  0  0  0  0
 30 34  2  0  0  0  0
 31 36  1  0  0  0  0
 31 37  2  0  0  0  0
 32 33  1  0  0  0  0
 32 35  1  0  0  0  0
 32 38  2  0  0  0  0
 34 39  1  0  0  0  0
 35 36  2  0  0  0  0
 36 66  1  0  0  0  0
 37 38  1  0  0  0  0
 37 69  1  0  0  0  0
 39 40  2  0  0  0  0
 39 41  1  0  0  0  0
 40 42  1  0  0  0  0
 40 70  1  0  0  0  0
 41 43  2  0  0  0  0
 41 71  1  0  0  0  0
 42 44  2  0  0  0  0
 43 44  1  0  0  0  0
 43 73  1  0  0  0  0
 45 75  1  0  0  0  0
 45 76  1  0  0  0  0
 45 77  1  0  0  0  0
M  END
>  <PUBCHEM_COMPOUND_CID>
5323537

>  <PUBCHEM_COMPOUND_CANONICALIZED>
1

>  <PUBCHEM_CACTVS_COMPLEXITY>
1060

>  <PUBCHEM_CACTVS_HBOND_ACCEPTOR>
17

>  <PUBCHEM_CACTVS_HBOND_DONOR>
10

>  <PUBCHEM_CACTVS_ROTATABLE_BOND>
8

>  <PUBCHEM_CACTVS_SUBSKEYS>
AAADcfB4PgAAAAAAAAAAAAAAAAAAAAAAAAA0aIECAAAAAACBQAAAGgAACAAADBSwmAMyDoAABgCIAqBSAAICCAAkIAAIiAFGiMgdNzaGNR6ieWOl4BUPuQfI7LzOIAABCAAIQABAAAIQABCAAAAAAAAAAA==

>  <PUBCHEM_IUPAC_OPENEYE_NAME>
5-hydroxy-2-(4-hydroxy-3-methoxy-phenyl)-3,7-bis[[(2S,3R,4S,5S,6R)-3,4,5-trihydroxy-6-(hydroxymethyl)tetrahydropyran-2-yl]oxy]chromen-4-one

>  <PUBCHEM_IUPAC_CAS_NAME>
5-hydroxy-2-(4-hydroxy-3-methoxyphenyl)-3,7-bis[[(2S,3R,4S,5S,6R)-3,4,5-trihydroxy-6-(hydroxymethyl)-2-oxanyl]oxy]-1-benzopyran-4-one

>  <PUBCHEM_IUPAC_NAME>
5-hydroxy-2-(4-hydroxy-3-methoxyphenyl)-3,7-bis[[(2S,3R,4S,5S,6R)-3,4,5-trihydroxy-6-(hydroxymethyl)oxan-2-yl]oxy]chromen-4-one

>  <PUBCHEM_IUPAC_SYSTEMATIC_NAME>
3,7-bis[[(2S,3R,4S,5S,6R)-6-(hydroxymethyl)-3,4,5-tris(oxidanyl)oxan-2-yl]oxy]-2-(3-methoxy-4-oxidanyl-phenyl)-5-oxidanyl-chromen-4-one

>  <PUBCHEM_IUPAC_TRADITIONAL_NAME>
5-hydroxy-2-(4-hydroxy-3-methoxy-phenyl)-3,7-bis[[(2S,3R,4S,5S,6R)-3,4,5-trihydroxy-6-methylol-tetrahydropyran-2-yl]oxy]chromone

>  <PUBCHEM_IUPAC_INCHI>
InChI=1S/C28H32O17/c1-40-13-4-9(2-3-11(13)31)25-26(45-28-24(39)22(37)19(34)16(8-30)44-28)20(35)17-12(32)5-10(6-14(17)42-25)41-27-23(38)21(36)18(33)15(7-29)43-27/h2-6,15-16,18-19,21-24,27-34,36-39H,7-8H2,1H3/t15-,16-,18-,19-,21+,22+,23-,24-,27-,28+/m1/s1

>  <PUBCHEM_IUPAC_INCHIKEY>
ZYYJHXKSQKLEBL-QDYVESOYSA-N

>  <PUBCHEM_XLOGP3_AA>
-1.1

>  <PUBCHEM_EXACT_MASS>
640.164

>  <PUBCHEM_MOLECULAR_FORMULA>
C28H32O17

>  <PUBCHEM_MOLECULAR_WEIGHT>
640.547

>  <PUBCHEM_OPENEYE_CAN_SMILES>
COC1=C(C=CC(=C1)C2=C(C(=O)C3=C(C=C(C=C3O2)OC4C(C(C(C(O4)CO)O)O)O)O)OC5C(C(C(C(O5)CO)O)O)O)O

>  <PUBCHEM_OPENEYE_ISO_SMILES>
COC1=C(C=CC(=C1)C2=C(C(=O)C3=C(C=C(C=C3O2)O[C@H]4[C@@H]([C@H]([C@@H]([C@H](O4)CO)O)O)O)O)O[C@H]5[C@@H]([C@H]([C@@H]([C@H](O5)CO)O)O)O)O

>  <PUBCHEM_CACTVS_TPSA>
275

>  <PUBCHEM_MONOISOTOPIC_WEIGHT>
640.164

>  <PUBCHEM_TOTAL_CHARGE>
0

>  <PUBCHEM_HEAVY_ATOM_COUNT>
45

>  <PUBCHEM_ATOM_DEF_STEREO_COUNT>
10

>  <PUBCHEM_ATOM_UDEF_STEREO_COUNT>
0

>  <PUBCHEM_BOND_DEF_STEREO_COUNT>
0

>  <PUBCHEM_BOND_UDEF_STEREO_COUNT>
0

>  <PUBCHEM_ISOTOPIC_ATOM_COUNT>
0

>  <PUBCHEM_COMPONENT_COUNT>
1

>  <PUBCHEM_CACTVS_TAUTO_COUNT>
29

>  <PUBCHEM_COORDINATE_TYPE>
1
5
255

>  <PUBCHEM_BONDANNOTATIONS>
24  10  6
13  34  8
13  35  8
23  28  5
25  29  5
26  3  5
30  33  8
30  34  8
31  36  8
31  37  8
32  33  8
32  35  8
32  38  8
35  36  8
37  38  8
39  40  8
39  41  8
27  4  5
40  42  8
41  43  8
42  44  8
43  44  8
18  5  5
19  6  6
20  7  5
21  8  6
22  9  6

$$$$
