5324349
 OpenBabel06101807152D

 29 32  0  0  0  0  0  0  0  0999 V2000
    5.9065    2.1331    0.0000 O   0  0  0  0  0  0  0  0  0  0  0  0
    7.6904    1.7588    0.0000 O   0  0  0  0  0  0  0  0  0  0  0  0
    6.7634   -1.0944    0.0000 O   0  0  0  0  0  0  0  0  0  0  0  0
    8.4155   -1.6676    0.0000 O   0  0  0  0  0  0  0  0  0  0  0  0
    2.4170    1.2288    0.0000 O   0  0  0  0  0  0  0  0  0  0  0  0
   11.0552    0.6909    0.0000 O   0  0  0  0  0  0  0  0  0  0  0  0
    6.4033    0.5998    0.0000 C   0  0  0  0  0  0  0  0  0  0  0  0
    5.4092    0.6024    0.0000 C   0  0  0  0  0  0  0  0  0  0  0  0
    6.7123    1.5509    0.0000 C   0  0  0  0  0  0  0  0  0  0  0  0
    8.0505    0.0646    0.0000 C   0  0  0  0  0  0  0  0  0  0  0  0
    5.1028    1.5481    0.0000 C   0  0  0  0  0  0  0  0  0  0  0  0
    7.0724   -0.1433    0.0000 C   0  0  0  0  0  0  0  0  0  0  0  0
    8.3596    1.0156    0.0000 C   0  0  0  0  0  0  0  0  0  0  0  0
    4.7276   -0.1771    0.0000 C   0  0  0  0  0  0  0  0  0  0  0  0
    8.7355   -0.7202    0.0000 C   0  0  0  0  0  0  0  0  0  0  0  0
    4.0936    1.7798    0.0000 C   0  0  0  0  0  0  0  0  0  0  0  0
    9.3750    1.2479    0.0000 C   0  0  0  0  0  0  0  0  0  0  0  0
    3.7133    0.0312    0.0000 C   0  0  0  0  0  0  0  0  0  0  0  0
    3.3942    1.0163    0.0000 C   0  0  0  0  0  0  0  0  0  0  0  0
    9.7560   -0.5114    0.0000 C   0  0  0  0  0  0  0  0  0  0  0  0
   10.0779    0.4792    0.0000 C   0  0  0  0  0  0  0  0  0  0  0  0
    4.9255   -0.7647    0.0000 H   0  0  0  0  0  0  0  0  0  0  0  0
    3.9094    2.3718    0.0000 H   0  0  0  0  0  0  0  0  0  0  0  0
    9.5597    1.8397    0.0000 H   0  0  0  0  0  0  0  0  0  0  0  0
    3.2998   -0.4307    0.0000 H   0  0  0  0  0  0  0  0  0  0  0  0
   10.1691   -0.9738    0.0000 H   0  0  0  0  0  0  0  0  0  0  0  0
    8.8250   -2.1331    0.0000 H   0  0  0  0  0  0  0  0  0  0  0  0
    2.0000    0.7700    0.0000 H   0  0  0  0  0  0  0  0  0  0  0  0
   11.4719    0.2317    0.0000 H   0  0  0  0  0  0  0  0  0  0  0  0
  1  9  1  0  0  0  0
  1 11  1  0  0  0  0
  2  9  1  0  0  0  0
  2 13  1  0  0  0  0
  3 12  2  0  0  0  0
  4 15  1  0  0  0  0
  4 27  1  0  0  0  0
  5 19  1  0  0  0  0
  5 28  1  0  0  0  0
  6 21  1  0  0  0  0
  6 29  1  0  0  0  0
  7  8  1  0  0  0  0
  7  9  2  0  0  0  0
  7 12  1  0  0  0  0
  8 11  2  0  0  0  0
  8 14  1  0  0  0  0
 10 12  1  0  0  0  0
 10 13  1  0  0  0  0
 10 15  2  0  0  0  0
 11 16  1  0  0  0  0
 13 17  2  0  0  0  0
 14 18  2  0  0  0  0
 14 22  1  0  0  0  0
 15 20  1  0  0  0  0
 16 19  2  0  0  0  0
 16 23  1  0  0  0  0
 17 21  1  0  0  0  0
 17 24  1  0  0  0  0
 18 19  1  0  0  0  0
 18 25  1  0  0  0  0
 20 21  2  0  0  0  0
 20 26  1  0  0  0  0
M  END
>  <PUBCHEM_COMPOUND_CID>
5324349

>  <PUBCHEM_COMPOUND_CANONICALIZED>
1

>  <PUBCHEM_CACTVS_COMPLEXITY>
440

>  <PUBCHEM_CACTVS_HBOND_ACCEPTOR>
6

>  <PUBCHEM_CACTVS_HBOND_DONOR>
3

>  <PUBCHEM_CACTVS_ROTATABLE_BOND>
0

>  <PUBCHEM_CACTVS_SUBSKEYS>
AAADccBwOAAAAAAAAAAAAAAAAAAAASAAAAA0YIAAAAAAAEiR9AAAGgAACAAADASAmAAwDsAABkCIAqDSCAACCAAkIAAIiAEGCMgcJzaONRqie2Cl4BUMuYfL7PzOoAAACAAIAABAAAAQABAAAAAAAAAAAA==

>  <PUBCHEM_IUPAC_OPENEYE_NAME>
1,3,8-trihydroxybenzofuro[2,3-b]chromen-11-one

>  <PUBCHEM_IUPAC_CAS_NAME>
1,3,8-trihydroxy-11-benzofuro[2,3-b][1]benzopyranone

>  <PUBCHEM_IUPAC_NAME>
1,3,8-trihydroxy-[1]benzofuro[2,3-b]chromen-11-one

>  <PUBCHEM_IUPAC_SYSTEMATIC_NAME>
1,3,8-tris(oxidanyl)-[1]benzofuro[2,3-b]chromen-11-one

>  <PUBCHEM_IUPAC_TRADITIONAL_NAME>
1,3,8-trihydroxybenzofuro[2,3-b]chromen-11-one

>  <PUBCHEM_IUPAC_INCHI>
InChI=1S/C15H8O6/c16-6-1-2-8-10(4-6)20-15-12(8)14(19)13-9(18)3-7(17)5-11(13)21-15/h1-5,16-18H

>  <PUBCHEM_IUPAC_INCHIKEY>
BBBAWACESCACAP-UHFFFAOYSA-N

>  <PUBCHEM_XLOGP3_AA>
3.2

>  <PUBCHEM_EXACT_MASS>
284.032

>  <PUBCHEM_MOLECULAR_FORMULA>
C15H8O6

>  <PUBCHEM_MOLECULAR_WEIGHT>
284.223

>  <PUBCHEM_OPENEYE_CAN_SMILES>
C1=CC2=C(C=C1O)OC3=C2C(=O)C4=C(C=C(C=C4O3)O)O

>  <PUBCHEM_OPENEYE_ISO_SMILES>
C1=CC2=C(C=C1O)OC3=C2C(=O)C4=C(C=C(C=C4O3)O)O

>  <PUBCHEM_CACTVS_TPSA>
100

>  <PUBCHEM_MONOISOTOPIC_WEIGHT>
284.032

>  <PUBCHEM_TOTAL_CHARGE>
0

>  <PUBCHEM_HEAVY_ATOM_COUNT>
21

>  <PUBCHEM_ATOM_DEF_STEREO_COUNT>
0

>  <PUBCHEM_ATOM_UDEF_STEREO_COUNT>
0

>  <PUBCHEM_BOND_DEF_STEREO_COUNT>
0

>  <PUBCHEM_BOND_UDEF_STEREO_COUNT>
0

>  <PUBCHEM_ISOTOPIC_ATOM_COUNT>
0

>  <PUBCHEM_COMPONENT_COUNT>
1

>  <PUBCHEM_CACTVS_TAUTO_COUNT>
36

>  <PUBCHEM_COORDINATE_TYPE>
1
5
255

>  <PUBCHEM_BONDANNOTATIONS>
1  11  8
1  9  8
10  12  8
10  13  8
10  15  8
11  16  8
13  17  8
14  18  8
15  20  8
16  19  8
17  21  8
18  19  8
2  13  8
2  9  8
20  21  8
7  12  8
7  8  8
7  9  8
8  11  8
8  14  8

$$$$
