53465568
 OpenBabel06101807152D

 28 30  0  0  0  0  0  0  0  0999 V2000
    2.9757    1.9147    0.0000 O   0  0  0  0  0  0  0  0  0  0  0  0
    8.9488   -1.3408    0.0000 O   0  0  0  0  0  0  0  0  0  0  0  0
    5.0981    1.3156    0.0000 N   0  0  0  0  0  0  0  0  0  0  0  0
    4.5981   -0.2232    0.0000 C   0  0  0  0  0  0  0  0  0  0  0  0
    5.5981   -0.2232    0.0000 C   0  0  0  0  0  0  0  0  0  0  0  0
    4.2891    0.7278    0.0000 C   0  0  0  0  0  0  0  0  0  0  0  0
    5.9071    0.7278    0.0000 C   0  0  0  0  0  0  0  0  0  0  0  0
    3.2737    0.9601    0.0000 C   0  0  0  0  0  0  0  0  0  0  0  0
    6.2831   -1.0079    0.0000 C   0  0  0  0  0  0  0  0  0  0  0  0
    3.9131   -1.0079    0.0000 C   0  0  0  0  0  0  0  0  0  0  0  0
    6.9225    0.9601    0.0000 C   0  0  0  0  0  0  0  0  0  0  0  0
    7.3036   -0.7992    0.0000 C   0  0  0  0  0  0  0  0  0  0  0  0
    2.5707    0.1914    0.0000 C   0  0  0  0  0  0  0  0  0  0  0  0
    7.6255    0.1914    0.0000 C   0  0  0  0  0  0  0  0  0  0  0  0
    2.8926   -0.7992    0.0000 C   0  0  0  0  0  0  0  0  0  0  0  0
    7.9698   -1.5450    0.0000 C   0  0  0  0  0  0  0  0  0  0  0  0
    2.0000    2.1339    0.0000 C   0  0  0  0  0  0  0  0  0  0  0  0
    5.0981    1.9356    0.0000 H   0  0  0  0  0  0  0  0  0  0  0  0
    6.0847   -1.5954    0.0000 H   0  0  0  0  0  0  0  0  0  0  0  0
    4.1115   -1.5954    0.0000 H   0  0  0  0  0  0  0  0  0  0  0  0
    7.1073    1.5519    0.0000 H   0  0  0  0  0  0  0  0  0  0  0  0
    1.9648    0.3227    0.0000 H   0  0  0  0  0  0  0  0  0  0  0  0
    8.2314    0.3227    0.0000 H   0  0  0  0  0  0  0  0  0  0  0  0
    2.4795   -1.2616    0.0000 H   0  0  0  0  0  0  0  0  0  0  0  0
    7.7760   -2.1339    0.0000 H   0  0  0  0  0  0  0  0  0  0  0  0
    2.1359    2.7388    0.0000 H   0  0  0  0  0  0  0  0  0  0  0  0
    1.3951    2.2698    0.0000 H   0  0  0  0  0  0  0  0  0  0  0  0
    1.8641    1.5290    0.0000 H   0  0  0  0  0  0  0  0  0  0  0  0
  1  8  1  0  0  0  0
  1 17  1  0  0  0  0
  2 16  2  0  0  0  0
  3  6  1  0  0  0  0
  3  7  1  0  0  0  0
  3 18  1  0  0  0  0
  4  5  1  0  0  0  0
  4  6  2  0  0  0  0
  4 10  1  0  0  0  0
  5  7  2  0  0  0  0
  5  9  1  0  0  0  0
  6  8  1  0  0  0  0
  7 11  1  0  0  0  0
  8 13  2  0  0  0  0
  9 12  2  0  0  0  0
  9 19  1  0  0  0  0
 10 15  2  0  0  0  0
 10 20  1  0  0  0  0
 11 14  2  0  0  0  0
 11 21  1  0  0  0  0
 12 14  1  0  0  0  0
 12 16  1  0  0  0  0
 13 15  1  0  0  0  0
 13 22  1  0  0  0  0
 14 23  1  0  0  0  0
 15 24  1  0  0  0  0
 16 25  1  0  0  0  0
 17 26  1  0  0  0  0
 17 27  1  0  0  0  0
 17 28  1  0  0  0  0
M  END
>  <PUBCHEM_COMPOUND_CID>
53465568

>  <PUBCHEM_COMPOUND_CANONICALIZED>
1

>  <PUBCHEM_CACTVS_COMPLEXITY>
294

>  <PUBCHEM_CACTVS_HBOND_ACCEPTOR>
2

>  <PUBCHEM_CACTVS_HBOND_DONOR>
1

>  <PUBCHEM_CACTVS_ROTATABLE_BOND>
2

>  <PUBCHEM_CACTVS_SUBSKEYS>
AAADccByMAAAAAAAAAAAAAAAAAAAAWAAAAAwYAAAAAAAAFgB/AAAHgAQAAAADAyhngIyxvLJlACoAyxyxASCiCAlYiAImSE3bNgOJvLEtZuFMShk0BHY6YeY2fGeiAADAAACEAAQAAYAAAQgAAAAAAAAAA==

>  <PUBCHEM_IUPAC_OPENEYE_NAME>
8-methoxy-9H-carbazole-3-carbaldehyde

>  <PUBCHEM_IUPAC_CAS_NAME>
8-methoxy-9H-carbazole-3-carboxaldehyde

>  <PUBCHEM_IUPAC_NAME>
8-methoxy-9H-carbazole-3-carbaldehyde

>  <PUBCHEM_IUPAC_SYSTEMATIC_NAME>
8-methoxy-9H-carbazole-3-carbaldehyde

>  <PUBCHEM_IUPAC_TRADITIONAL_NAME>
8-methoxy-9H-carbazole-3-carbaldehyde

>  <PUBCHEM_IUPAC_INCHI>
InChI=1S/C14H11NO2/c1-17-13-4-2-3-10-11-7-9(8-16)5-6-12(11)15-14(10)13/h2-8,15H,1H3

>  <PUBCHEM_IUPAC_INCHIKEY>
KSTPFEFAPRYLOZ-UHFFFAOYSA-N

>  <PUBCHEM_XLOGP3_AA>
2.8

>  <PUBCHEM_EXACT_MASS>
225.079

>  <PUBCHEM_MOLECULAR_FORMULA>
C14H11NO2

>  <PUBCHEM_MOLECULAR_WEIGHT>
225.247

>  <PUBCHEM_OPENEYE_CAN_SMILES>
COC1=CC=CC2=C1NC3=C2C=C(C=C3)C=O

>  <PUBCHEM_OPENEYE_ISO_SMILES>
COC1=CC=CC2=C1NC3=C2C=C(C=C3)C=O

>  <PUBCHEM_CACTVS_TPSA>
42.1

>  <PUBCHEM_MONOISOTOPIC_WEIGHT>
225.079

>  <PUBCHEM_TOTAL_CHARGE>
0

>  <PUBCHEM_HEAVY_ATOM_COUNT>
17

>  <PUBCHEM_ATOM_DEF_STEREO_COUNT>
0

>  <PUBCHEM_ATOM_UDEF_STEREO_COUNT>
0

>  <PUBCHEM_BOND_DEF_STEREO_COUNT>
0

>  <PUBCHEM_BOND_UDEF_STEREO_COUNT>
0

>  <PUBCHEM_ISOTOPIC_ATOM_COUNT>
0

>  <PUBCHEM_COMPONENT_COUNT>
1

>  <PUBCHEM_CACTVS_TAUTO_COUNT>
5

>  <PUBCHEM_COORDINATE_TYPE>
1
5
255

>  <PUBCHEM_BONDANNOTATIONS>
10  15  8
11  14  8
12  14  8
13  15  8
3  6  8
3  7  8
4  10  8
4  5  8
4  6  8
5  7  8
5  9  8
6  8  8
7  11  8
8  13  8
9  12  8

$$$$
