53477780
 OpenBabel06101807152D

 51 52  0  0  1  0  0  0  0  0999 V2000
    6.8671   -0.5950    0.0000 O   0  0  0  0  0  0  0  0  0  0  0  0
    5.1350   -0.5950    0.0000 O   0  0  0  0  0  0  0  0  0  0  0  0
    6.0010    1.9050    0.0000 O   0  0  0  0  0  0  0  0  0  0  0  0
    3.4030   -2.5950    0.0000 O   0  0  0  0  0  0  0  0  0  0  0  0
    8.5991    0.4050    0.0000 O   0  0  0  0  0  0  0  0  0  0  0  0
    6.8671   -2.5950    0.0000 O   0  0  0  0  0  0  0  0  0  0  0  0
    5.1350   -3.5950    0.0000 O   0  0  0  0  0  0  0  0  0  0  0  0
    8.5991    2.4050    0.0000 O   0  0  0  0  0  0  0  0  0  0  0  0
    6.8671    3.4050    0.0000 O   0  0  0  0  0  0  0  0  0  0  0  0
    4.2690    0.9050    0.0000 O   0  0  0  0  0  0  0  0  0  0  0  0
    2.5369   -1.0950    0.0000 O   0  0  0  0  0  0  0  0  0  0  0  0
    6.8671    0.4050    0.0000 C   0  0  2  0  0  0  0  0  0  0  0  0
    6.0010   -1.0950    0.0000 C   0  0  2  0  0  0  0  0  0  0  0  0
    7.7331    0.9050    0.0000 C   0  0  1  0  0  0  0  0  0  0  0  0
    6.0010   -2.0950    0.0000 C   0  0  1  0  0  0  0  0  0  0  0  0
    6.0010    0.9050    0.0000 C   0  0  1  0  0  0  0  0  0  0  0  0
    5.1350   -2.5950    0.0000 C   0  0  2  0  0  0  0  0  0  0  0  0
    4.2690   -2.0950    0.0000 C   0  0  2  0  0  0  0  0  0  0  0  0
    4.2690   -1.0950    0.0000 C   0  0  1  0  0  0  0  0  0  0  0  0
    7.7331    1.9050    0.0000 C   0  0  2  0  0  0  0  0  0  0  0  0
    6.8671    2.4050    0.0000 C   0  0  1  0  0  0  0  0  0  0  0  0
    5.1350    0.4050    0.0000 C   0  0  0  0  0  0  0  0  0  0  0  0
    3.4030   -0.5950    0.0000 C   0  0  0  0  0  0  0  0  0  0  0  0
    3.4030   -3.5950    0.0000 C   0  0  0  0  0  0  0  0  0  0  0  0
    6.0010    3.9050    0.0000 C   0  0  0  0  0  0  0  0  0  0  0  0
    7.4040    0.0950    0.0000 H   0  0  0  0  0  0  0  0  0  0  0  0
    6.5380   -1.4050    0.0000 H   0  0  0  0  0  0  0  0  0  0  0  0
    8.2700    1.2150    0.0000 H   0  0  0  0  0  0  0  0  0  0  0  0
    6.0010   -2.7150    0.0000 H   0  0  0  0  0  0  0  0  0  0  0  0
    5.4641    1.2150    0.0000 H   0  0  0  0  0  0  0  0  0  0  0  0
    4.5981   -2.9050    0.0000 H   0  0  0  0  0  0  0  0  0  0  0  0
    3.7320   -1.7850    0.0000 H   0  0  0  0  0  0  0  0  0  0  0  0
    4.2690   -0.4750    0.0000 H   0  0  0  0  0  0  0  0  0  0  0  0
    7.7331    2.5250    0.0000 H   0  0  0  0  0  0  0  0  0  0  0  0
    6.3301    2.7150    0.0000 H   0  0  0  0  0  0  0  0  0  0  0  0
    4.7365   -0.0699    0.0000 H   0  0  0  0  0  0  0  0  0  0  0  0
    5.5335   -0.0699    0.0000 H   0  0  0  0  0  0  0  0  0  0  0  0
    3.8015   -0.1201    0.0000 H   0  0  0  0  0  0  0  0  0  0  0  0
    3.0044   -0.1201    0.0000 H   0  0  0  0  0  0  0  0  0  0  0  0
    9.1360    0.7150    0.0000 H   0  0  0  0  0  0  0  0  0  0  0  0
    6.8671   -3.2150    0.0000 H   0  0  0  0  0  0  0  0  0  0  0  0
    4.5981   -3.9050    0.0000 H   0  0  0  0  0  0  0  0  0  0  0  0
    8.5991    3.0250    0.0000 H   0  0  0  0  0  0  0  0  0  0  0  0
    2.7830   -3.5950    0.0000 H   0  0  0  0  0  0  0  0  0  0  0  0
    3.4030   -4.2150    0.0000 H   0  0  0  0  0  0  0  0  0  0  0  0
    4.0230   -3.5950    0.0000 H   0  0  0  0  0  0  0  0  0  0  0  0
    4.2690    1.5250    0.0000 H   0  0  0  0  0  0  0  0  0  0  0  0
    2.0000   -0.7850    0.0000 H   0  0  0  0  0  0  0  0  0  0  0  0
    6.3110    4.4419    0.0000 H   0  0  0  0  0  0  0  0  0  0  0  0
    5.4641    4.2150    0.0000 H   0  0  0  0  0  0  0  0  0  0  0  0
    5.6910    3.3681    0.0000 H   0  0  0  0  0  0  0  0  0  0  0  0
  2 13  1  0  0  0  0
  2 19  1  0  0  0  0
  3 16  1  0  0  0  0
  3 21  1  0  0  0  0
  4 24  1  0  0  0  0
  5 40  1  0  0  0  0
  6 41  1  0  0  0  0
  7 42  1  0  0  0  0
  8 43  1  0  0  0  0
  9 25  1  0  0  0  0
 10 22  1  0  0  0  0
 10 47  1  0  0  0  0
 11 23  1  0  0  0  0
 11 48  1  0  0  0  0
 12  1  1  0  0  0  0
 12 14  1  1  0  0  0
 12 26  1  0  0  0  0
 13  1  1  0  0  0  0
 13 15  1  1  0  0  0
 13 27  1  0  0  0  0
 14  5  1  0  0  0  0
 14 20  1  1  0  0  0
 14 28  1  0  0  0  0
 15  6  1  0  0  0  0
 15 17  1  6  0  0  0
 15 29  1  0  0  0  0
 16 12  1  6  0  0  0
 16 22  1  0  0  0  0
 16 30  1  0  0  0  0
 17  7  1  0  0  0  0
 17 18  1  1  0  0  0
 17 31  1  0  0  0  0
 18  4  1  0  0  0  0
 18 19  1  1  0  0  0
 18 32  1  0  0  0  0
 19 23  1  0  0  0  0
 19 33  1  6  0  0  0
 20  8  1  0  0  0  0
 20 21  1  6  0  0  0
 20 34  1  0  0  0  0
 21  9  1  0  0  0  0
 21 35  1  6  0  0  0
 22 36  1  0  0  0  0
 22 37  1  0  0  0  0
 23 38  1  0  0  0  0
 23 39  1  0  0  0  0
 24 44  1  0  0  0  0
 24 45  1  0  0  0  0
 24 46  1  0  0  0  0
 25 49  1  0  0  0  0
 25 50  1  0  0  0  0
 25 51  1  0  0  0  0
M  END
>  <PUBCHEM_COMPOUND_CID>
53477780

>  <PUBCHEM_COMPOUND_CANONICALIZED>
1

>  <PUBCHEM_CACTVS_COMPLEXITY>
410

>  <PUBCHEM_CACTVS_HBOND_ACCEPTOR>
11

>  <PUBCHEM_CACTVS_HBOND_DONOR>
6

>  <PUBCHEM_CACTVS_ROTATABLE_BOND>
6

>  <PUBCHEM_CACTVS_SUBSKEYS>
AAADceBwPAAAAAAAAAAAAAAAAAAAAAAAAAAkSAAAAAAAAAAAAAAAGgAACAAACBSwgAMCCAAABgAAAAAAAAAAAAAAAAAAAAAAAAAREAIAAAAiQAAFAAAHAAHAYAwAAAAAAAAAAAAAAAAAAAAAAAAAAAAAAA==

>  <PUBCHEM_IUPAC_OPENEYE_NAME>
(2S,3R,4R,5R,6R)-2-[(2R,3R,4R,5R,6R)-4,5-dihydroxy-2-(hydroxymethyl)-6-methoxy-tetrahydropyran-3-yl]oxy-6-(hydroxymethyl)-5-methoxy-tetrahydropyran-3,4-diol

>  <PUBCHEM_IUPAC_CAS_NAME>
(2S,3R,4R,5R,6R)-2-[[(2R,3R,4R,5R,6R)-4,5-dihydroxy-2-(hydroxymethyl)-6-methoxy-3-oxanyl]oxy]-6-(hydroxymethyl)-5-methoxyoxane-3,4-diol

>  <PUBCHEM_IUPAC_NAME>
(2S,3R,4R,5R,6R)-2-[(2R,3R,4R,5R,6R)-4,5-dihydroxy-2-(hydroxymethyl)-6-methoxyoxan-3-yl]oxy-6-(hydroxymethyl)-5-methoxyoxane-3,4-diol

>  <PUBCHEM_IUPAC_SYSTEMATIC_NAME>
(2S,3R,4R,5R,6R)-6-(hydroxymethyl)-2-[(2R,3R,4R,5R,6R)-2-(hydroxymethyl)-6-methoxy-4,5-bis(oxidanyl)oxan-3-yl]oxy-5-methoxy-oxane-3,4-diol

>  <PUBCHEM_IUPAC_TRADITIONAL_NAME>
(2S,3R,4R,5R,6R)-2-[(2R,3R,4R,5R,6R)-4,5-dihydroxy-6-methoxy-2-methylol-tetrahydropyran-3-yl]oxy-5-methoxy-6-methylol-tetrahydropyran-3,4-diol

>  <PUBCHEM_IUPAC_INCHI>
InChI=1S/C14H26O11/c1-21-11-5(3-15)24-14(10(20)7(11)17)25-12-6(4-16)23-13(22-2)9(19)8(12)18/h5-20H,3-4H2,1-2H3/t5-,6-,7-,8-,9-,10-,11+,12+,13-,14+/m1/s1

>  <PUBCHEM_IUPAC_INCHIKEY>
PTHCMJGKKRQCBF-ICIGWGHZSA-N

>  <PUBCHEM_XLOGP3_AA>
-4.2

>  <PUBCHEM_EXACT_MASS>
370.148

>  <PUBCHEM_MOLECULAR_FORMULA>
C14H26O11

>  <PUBCHEM_MOLECULAR_WEIGHT>
370.351

>  <PUBCHEM_OPENEYE_CAN_SMILES>
COC1C(OC(C(C1O)O)OC2C(OC(C(C2O)O)OC)CO)CO

>  <PUBCHEM_OPENEYE_ISO_SMILES>
CO[C@H]1[C@H](O[C@H]([C@@H]([C@H]1O)O)O[C@H]2[C@H](O[C@H]([C@@H]([C@H]2O)O)OC)CO)CO

>  <PUBCHEM_CACTVS_TPSA>
168

>  <PUBCHEM_MONOISOTOPIC_WEIGHT>
370.148

>  <PUBCHEM_TOTAL_CHARGE>
0

>  <PUBCHEM_HEAVY_ATOM_COUNT>
25

>  <PUBCHEM_ATOM_DEF_STEREO_COUNT>
10

>  <PUBCHEM_ATOM_UDEF_STEREO_COUNT>
0

>  <PUBCHEM_BOND_DEF_STEREO_COUNT>
0

>  <PUBCHEM_BOND_UDEF_STEREO_COUNT>
0

>  <PUBCHEM_ISOTOPIC_ATOM_COUNT>
0

>  <PUBCHEM_COMPONENT_COUNT>
1

>  <PUBCHEM_CACTVS_TAUTO_COUNT>
1

>  <PUBCHEM_COORDINATE_TYPE>
1
5
255

>  <PUBCHEM_BONDANNOTATIONS>
12  1  5
13  1  5
16  22  5
19  23  5
18  4  5
14  5  5
15  6  6
17  7  5
20  8  6
21  9  5

$$$$
