53477911
 OpenBabel06101807152D

 68 70  0  0  1  0  0  0  0  0999 V2000
    7.7331    0.4925    0.0000 O   0  0  0  0  0  0  0  0  0  0  0  0
    9.4651    0.4925    0.0000 O   0  0  0  0  0  0  0  0  0  0  0  0
    6.0010   -0.5075    0.0000 O   0  0  0  0  0  0  0  0  0  0  0  0
    5.1350   -2.0075    0.0000 O   0  0  0  0  0  0  0  0  0  0  0  0
    9.4651    3.2245    0.0000 O   0  0  0  0  0  0  0  0  0  0  0  0
    6.8671   -2.0075    0.0000 O   0  0  0  0  0  0  0  0  0  0  0  0
    7.7331   -2.5075    0.0000 O   0  0  0  0  0  0  0  0  0  0  0  0
    9.4651   -1.5075    0.0000 O   0  0  0  0  0  0  0  0  0  0  0  0
    8.5991    0.9925    0.0000 O   0  0  0  0  0  0  0  0  0  0  0  0
   10.9651    0.6265    0.0000 O   0  0  0  0  0  0  0  0  0  0  0  0
    4.2690    0.4925    0.0000 O   0  0  0  0  0  0  0  0  0  0  0  0
   11.9651    2.3585    0.0000 O   0  0  0  0  0  0  0  0  0  0  0  0
    2.5369   -0.5075    0.0000 O   0  0  0  0  0  0  0  0  0  0  0  0
    2.5369   -2.5075    0.0000 O   0  0  0  0  0  0  0  0  0  0  0  0
    6.0010    1.4925    0.0000 O   0  0  0  0  0  0  0  0  0  0  0  0
   10.9651    4.0906    0.0000 O   0  0  0  0  0  0  0  0  0  0  0  0
    7.4651    3.2245    0.0000 O   0  0  0  0  0  0  0  0  0  0  0  0
    3.4030   -4.0075    0.0000 O   0  0  0  0  0  0  0  0  0  0  0  0
    6.8671   -1.0075    0.0000 C   0  0  2  0  0  0  0  0  0  0  0  0
    7.7331   -1.5075    0.0000 C   0  0  2  0  0  0  0  0  0  0  0  0
    6.8671   -0.0075    0.0000 C   0  0  2  0  0  0  0  0  0  0  0  0
    8.5991   -1.0075    0.0000 C   0  0  1  0  0  0  0  0  0  0  0  0
    8.5991   -0.0075    0.0000 C   0  0  2  0  0  0  0  0  0  0  0  0
    9.4651    1.4925    0.0000 C   0  0  2  0  0  0  0  0  0  0  0  0
   10.4651    1.4925    0.0000 C   0  0  2  0  0  0  0  0  0  0  0  0
    8.9651    2.3585    0.0000 C   0  0  2  0  0  0  0  0  0  0  0  0
    5.1350   -1.0075    0.0000 C   0  0  1  0  0  0  0  0  0  0  0  0
    4.2690   -0.5075    0.0000 C   0  0  2  0  0  0  0  0  0  0  0  0
   10.9651    2.3585    0.0000 C   0  0  1  0  0  0  0  0  0  0  0  0
    3.4030   -1.0075    0.0000 C   0  0  1  0  0  0  0  0  0  0  0  0
    3.4030   -2.0075    0.0000 C   0  0  2  0  0  0  0  0  0  0  0  0
    4.2690   -2.5075    0.0000 C   0  0  2  0  0  0  0  0  0  0  0  0
    6.0010    0.4925    0.0000 C   0  0  0  0  0  0  0  0  0  0  0  0
   10.4651    3.2245    0.0000 C   0  0  2  0  0  0  0  0  0  0  0  0
    7.9651    2.3585    0.0000 C   0  0  0  0  0  0  0  0  0  0  0  0
    4.2690   -3.5075    0.0000 C   0  0  0  0  0  0  0  0  0  0  0  0
    8.2700   -1.8175    0.0000 H   0  0  0  0  0  0  0  0  0  0  0  0
    6.8671    0.6125    0.0000 H   0  0  0  0  0  0  0  0  0  0  0  0
    9.1360   -0.6975    0.0000 H   0  0  0  0  0  0  0  0  0  0  0  0
    8.5991    0.6125    0.0000 H   0  0  0  0  0  0  0  0  0  0  0  0
   11.0851    1.4925    0.0000 H   0  0  0  0  0  0  0  0  0  0  0  0
    8.6551    2.8955    0.0000 H   0  0  0  0  0  0  0  0  0  0  0  0
    5.1350   -0.3875    0.0000 H   0  0  0  0  0  0  0  0  0  0  0  0
    3.7320   -0.1975    0.0000 H   0  0  0  0  0  0  0  0  0  0  0  0
   11.2751    2.8955    0.0000 H   0  0  0  0  0  0  0  0  0  0  0  0
    3.9650   -0.3875    0.0000 H   0  0  0  0  0  0  0  0  0  0  0  0
    3.4030   -2.6275    0.0000 H   0  0  0  0  0  0  0  0  0  0  0  0
    4.8059   -2.8175    0.0000 H   0  0  0  0  0  0  0  0  0  0  0  0
    5.3905    0.6002    0.0000 H   0  0  0  0  0  0  0  0  0  0  0  0
    5.7890   -0.0901    0.0000 H   0  0  0  0  0  0  0  0  0  0  0  0
   10.1551    3.7615    0.0000 H   0  0  0  0  0  0  0  0  0  0  0  0
    7.3825    2.1465    0.0000 H   0  0  0  0  0  0  0  0  0  0  0  0
    8.0728    1.7479    0.0000 H   0  0  0  0  0  0  0  0  0  0  0  0
    6.3301   -2.3175    0.0000 H   0  0  0  0  0  0  0  0  0  0  0  0
    8.2700   -2.8175    0.0000 H   0  0  0  0  0  0  0  0  0  0  0  0
   10.0021   -1.1975    0.0000 H   0  0  0  0  0  0  0  0  0  0  0  0
    8.0622    1.3025    0.0000 H   0  0  0  0  0  0  0  0  0  0  0  0
    4.4810   -4.0901    0.0000 H   0  0  0  0  0  0  0  0  0  0  0  0
    4.8796   -3.3998    0.0000 H   0  0  0  0  0  0  0  0  0  0  0  0
   11.5851    0.6265    0.0000 H   0  0  0  0  0  0  0  0  0  0  0  0
    3.7320    0.8025    0.0000 H   0  0  0  0  0  0  0  0  0  0  0  0
   12.2751    2.8955    0.0000 H   0  0  0  0  0  0  0  0  0  0  0  0
    2.0000   -0.8175    0.0000 H   0  0  0  0  0  0  0  0  0  0  0  0
    2.0000   -2.1975    0.0000 H   0  0  0  0  0  0  0  0  0  0  0  0
    5.4641    1.8025    0.0000 H   0  0  0  0  0  0  0  0  0  0  0  0
   10.6551    4.6275    0.0000 H   0  0  0  0  0  0  0  0  0  0  0  0
    6.8451    3.2245    0.0000 H   0  0  0  0  0  0  0  0  0  0  0  0
    3.4030   -4.6275    0.0000 H   0  0  0  0  0  0  0  0  0  0  0  0
  1 21  1  0  0  0  0
  1 23  1  0  0  0  0
  2 24  1  0  0  0  0
  3 19  1  0  0  0  0
  4 27  1  0  0  0  0
  4 32  1  0  0  0  0
  5 26  1  0  0  0  0
  5 34  1  0  0  0  0
  6 54  1  0  0  0  0
  7 55  1  0  0  0  0
  8 56  1  0  0  0  0
  9 57  1  0  0  0  0
 10 60  1  0  0  0  0
 11 61  1  0  0  0  0
 12 62  1  0  0  0  0
 13 63  1  0  0  0  0
 14 64  1  0  0  0  0
 15 33  1  0  0  0  0
 15 65  1  0  0  0  0
 16 66  1  0  0  0  0
 17 35  1  0  0  0  0
 17 67  1  0  0  0  0
 18 36  1  0  0  0  0
 18 68  1  0  0  0  0
 19  6  1  0  0  0  0
 19 20  1  1  0  0  0
 20  7  1  0  0  0  0
 20 22  1  6  0  0  0
 20 37  1  0  0  0  0
 21 19  1  1  0  0  0
 21 33  1  0  0  0  0
 21 38  1  0  0  0  0
 22  8  1  0  0  0  0
 22 23  1  1  0  0  0
 22 39  1  0  0  0  0
 23  2  1  0  0  0  0
 23 40  1  1  0  0  0
 24  9  1  0  0  0  0
 24 25  1  6  0  0  0
 25 10  1  0  0  0  0
 25 29  1  6  0  0  0
 25 41  1  0  0  0  0
 26 24  1  1  0  0  0
 26 35  1  0  0  0  0
 26 42  1  0  0  0  0
 27  3  1  0  0  0  0
 27 28  1  1  0  0  0
 27 43  1  0  0  0  0
 28 11  1  0  0  0  0
 28 30  1  6  0  0  0
 28 44  1  0  0  0  0
 29 12  1  0  0  0  0
 29 34  1  1  0  0  0
 29 45  1  0  0  0  0
 30 13  1  0  0  0  0
 30 31  1  6  0  0  0
 30 46  1  0  0  0  0
 31 14  1  0  0  0  0
 31 32  1  6  0  0  0
 31 47  1  0  0  0  0
 32 36  1  0  0  0  0
 32 48  1  6  0  0  0
 33 49  1  0  0  0  0
 33 50  1  0  0  0  0
 34 16  1  0  0  0  0
 34 51  1  1  0  0  0
 35 52  1  0  0  0  0
 35 53  1  0  0  0  0
 36 58  1  0  0  0  0
 36 59  1  0  0  0  0
M  END
>  <PUBCHEM_COMPOUND_CID>
53477911

>  <PUBCHEM_COMPOUND_CANONICALIZED>
1

>  <PUBCHEM_CACTVS_COMPLEXITY>
730

>  <PUBCHEM_CACTVS_HBOND_ACCEPTOR>
18

>  <PUBCHEM_CACTVS_HBOND_DONOR>
13

>  <PUBCHEM_CACTVS_ROTATABLE_BOND>
7

>  <PUBCHEM_CACTVS_SUBSKEYS>
AAADcfB4PgAAAAAAAAAAAAAAAAAAAAAAAAAkSJAAAAAAAAAAAAAAGgAACAAACBSwgAMACAAABgAAAAAAAAAAAAAAAAAAAAAAAAAREAIAAAAiQAAFAAAHAAHAYAwAAAAAAAAAAAAAAAAAAAAAAAAAAAAAAA==

>  <PUBCHEM_IUPAC_OPENEYE_NAME>
(2S,3S,4S,5R,6S)-6-(hydroxymethyl)-5-[(2R,3S,4S,5R,6S)-3,4,5-trihydroxy-6-(hydroxymethyl)-5-[(2R,3S,4R,5R,6S)-3,4,5-trihydroxy-6-(hydroxymethyl)tetrahydropyran-2-yl]oxy-tetrahydropyran-2-yl]oxy-tetrahydropyran-2,3,4,5-tetrol

>  <PUBCHEM_IUPAC_CAS_NAME>
(2S,3S,4S,5R,6S)-6-(hydroxymethyl)-5-[[(2R,3S,4S,5R,6S)-3,4,5-trihydroxy-6-(hydroxymethyl)-5-[[(2R,3S,4R,5R,6S)-3,4,5-trihydroxy-6-(hydroxymethyl)-2-oxanyl]oxy]-2-oxanyl]oxy]oxane-2,3,4,5-tetrol

>  <PUBCHEM_IUPAC_NAME>
(2S,3S,4S,5R,6S)-6-(hydroxymethyl)-5-[(2R,3S,4S,5R,6S)-3,4,5-trihydroxy-6-(hydroxymethyl)-5-[(2R,3S,4R,5R,6S)-3,4,5-trihydroxy-6-(hydroxymethyl)oxan-2-yl]oxyoxan-2-yl]oxyoxane-2,3,4,5-tetrol

>  <PUBCHEM_IUPAC_SYSTEMATIC_NAME>
(2S,3S,4S,5R,6S)-6-(hydroxymethyl)-5-[(2R,3S,4S,5R,6S)-6-(hydroxymethyl)-5-[(2R,3S,4R,5R,6S)-6-(hydroxymethyl)-3,4,5-tris(oxidanyl)oxan-2-yl]oxy-3,4,5-tris(oxidanyl)oxan-2-yl]oxy-oxane-2,3,4,5-tetrol

>  <PUBCHEM_IUPAC_TRADITIONAL_NAME>
(2S,3S,4S,5R,6S)-6-methylol-5-[(2R,3S,4S,5R,6S)-3,4,5-trihydroxy-6-methylol-5-[(2R,3S,4R,5R,6S)-3,4,5-trihydroxy-6-methylol-tetrahydropyran-2-yl]oxy-tetrahydropyran-2-yl]oxy-tetrahydropyran-2,3,4,5-tetrol

>  <PUBCHEM_IUPAC_INCHI>
InChI=1S/C18H32O18/c19-1-4-7(22)8(23)9(24)15(32-4)35-18(31)6(3-21)34-16(11(26)13(18)28)36-17(30)5(2-20)33-14(29)10(25)12(17)27/h4-16,19-31H,1-3H2/t4-,5-,6-,7-,8+,9-,10-,11-,12-,13-,14-,15+,16+,17-,18-/m0/s1

>  <PUBCHEM_IUPAC_INCHIKEY>
LRQOQMWIEDQCHM-XCJASTIHSA-N

>  <PUBCHEM_XLOGP3_AA>
-7.3

>  <PUBCHEM_EXACT_MASS>
536.159

>  <PUBCHEM_MOLECULAR_FORMULA>
C18H32O18

>  <PUBCHEM_MOLECULAR_WEIGHT>
536.436

>  <PUBCHEM_OPENEYE_CAN_SMILES>
C(C1C(C(C(C(O1)OC2(C(OC(C(C2O)O)OC3(C(OC(C(C3O)O)O)CO)O)CO)O)O)O)O)O

>  <PUBCHEM_OPENEYE_ISO_SMILES>
C([C@H]1[C@@H]([C@H]([C@@H]([C@H](O1)O[C@]2([C@@H](O[C@@H]([C@H]([C@@H]2O)O)O[C@]3([C@@H](O[C@@H]([C@H]([C@@H]3O)O)O)CO)O)CO)O)O)O)O)O

>  <PUBCHEM_CACTVS_TPSA>
309

>  <PUBCHEM_MONOISOTOPIC_WEIGHT>
536.159

>  <PUBCHEM_TOTAL_CHARGE>
0

>  <PUBCHEM_HEAVY_ATOM_COUNT>
36

>  <PUBCHEM_ATOM_DEF_STEREO_COUNT>
15

>  <PUBCHEM_ATOM_UDEF_STEREO_COUNT>
0

>  <PUBCHEM_BOND_DEF_STEREO_COUNT>
0

>  <PUBCHEM_BOND_UDEF_STEREO_COUNT>
0

>  <PUBCHEM_ISOTOPIC_ATOM_COUNT>
0

>  <PUBCHEM_COMPONENT_COUNT>
1

>  <PUBCHEM_CACTVS_TAUTO_COUNT>
1

>  <PUBCHEM_COORDINATE_TYPE>
1
5
255

>  <PUBCHEM_BONDANNOTATIONS>
25  10  6
28  11  6
29  12  5
30  13  5
31  14  6
34  16  6
23  2  6
21  33  6
26  35  6
27  3  5
32  36  5
19  6  6
20  7  6
22  8  5
24  9  6

$$$$
