53480880
 OpenBabel06101807152D

126125  0  0  1  0  0  0  0  0999 V2000
    6.0010   -1.0000    0.0000 P   0  0  3  0  0  0  0  0  0  0  0  0
    9.4651    1.0000    0.0000 O   0  0  0  0  0  0  0  0  0  0  0  0
    9.4651   -1.0000    0.0000 O   0  0  0  0  0  0  0  0  0  0  0  0
    6.8671   -0.5000    0.0000 O   0  0  0  0  0  0  0  0  0  0  0  0
   10.3312    0.5000    0.0000 O   0  0  0  0  0  0  0  0  0  0  0  0
    5.1350   -1.5000    0.0000 O   0  0  0  0  0  0  0  0  0  0  0  0
    5.5010   -0.1340    0.0000 O   0  0  0  0  0  0  0  0  0  0  0  0
    6.5010   -1.8660    0.0000 O   0  0  0  0  0  0  0  0  0  0  0  0
    2.5369   -1.0000    0.0000 N   0  0  0  0  0  0  0  0  0  0  0  0
   12.9292    5.0000    0.0000 C   0  0  0  0  0  0  0  0  0  0  0  0
   12.9292    4.0000    0.0000 C   0  0  0  0  0  0  0  0  0  0  0  0
   13.7953    5.5000    0.0000 C   0  0  0  0  0  0  0  0  0  0  0  0
   12.0632    3.5000    0.0000 C   0  0  0  0  0  0  0  0  0  0  0  0
   13.7953    6.5000    0.0000 C   0  0  0  0  0  0  0  0  0  0  0  0
   12.0632    2.5000    0.0000 C   0  0  0  0  0  0  0  0  0  0  0  0
   14.6613    7.0000    0.0000 C   0  0  0  0  0  0  0  0  0  0  0  0
   11.1972    2.0000    0.0000 C   0  0  0  0  0  0  0  0  0  0  0  0
   17.2594    8.5000    0.0000 C   0  0  0  0  0  0  0  0  0  0  0  0
   14.6613    8.0000    0.0000 C   0  0  0  0  0  0  0  0  0  0  0  0
   16.3933    8.0000    0.0000 C   0  0  0  0  0  0  0  0  0  0  0  0
   18.1254    8.0000    0.0000 C   0  0  0  0  0  0  0  0  0  0  0  0
   15.5273    8.5000    0.0000 C   0  0  0  0  0  0  0  0  0  0  0  0
   18.9914    8.5000    0.0000 C   0  0  0  0  0  0  0  0  0  0  0  0
   10.3312    2.5000    0.0000 C   0  0  0  0  0  0  0  0  0  0  0  0
   19.8574    8.0000    0.0000 C   0  0  0  0  0  0  0  0  0  0  0  0
    9.4651    2.0000    0.0000 C   0  0  0  0  0  0  0  0  0  0  0  0
   20.7235    8.5000    0.0000 C   0  0  0  0  0  0  0  0  0  0  0  0
    8.5991   -0.5000    0.0000 C   0  0  2  0  0  0  0  0  0  0  0  0
    8.5991    0.5000    0.0000 C   0  0  0  0  0  0  0  0  0  0  0  0
    7.7331   -1.0000    0.0000 C   0  0  0  0  0  0  0  0  0  0  0  0
   11.1972   -1.0000    0.0000 C   0  0  0  0  0  0  0  0  0  0  0  0
   12.0632   -0.5000    0.0000 C   0  0  0  0  0  0  0  0  0  0  0  0
   10.3312   -0.5000    0.0000 C   0  0  0  0  0  0  0  0  0  0  0  0
   12.9292   -1.0000    0.0000 C   0  0  0  0  0  0  0  0  0  0  0  0
   13.7953   -0.5000    0.0000 C   0  0  0  0  0  0  0  0  0  0  0  0
   14.6613   -1.0000    0.0000 C   0  0  0  0  0  0  0  0  0  0  0  0
   14.6613   -2.0000    0.0000 C   0  0  0  0  0  0  0  0  0  0  0  0
    4.2690   -1.0000    0.0000 C   0  0  0  0  0  0  0  0  0  0  0  0
   15.5273   -2.5000    0.0000 C   0  0  0  0  0  0  0  0  0  0  0  0
    3.4030   -1.5000    0.0000 C   0  0  0  0  0  0  0  0  0  0  0  0
   15.5273   -3.5000    0.0000 C   0  0  0  0  0  0  0  0  0  0  0  0
   14.6613   -4.0000    0.0000 C   0  0  0  0  0  0  0  0  0  0  0  0
   14.6613   -5.0000    0.0000 C   0  0  0  0  0  0  0  0  0  0  0  0
   13.7953   -5.5000    0.0000 C   0  0  0  0  0  0  0  0  0  0  0  0
   12.9292   -5.0000    0.0000 C   0  0  0  0  0  0  0  0  0  0  0  0
   12.0632   -5.5000    0.0000 C   0  0  0  0  0  0  0  0  0  0  0  0
   12.0632   -6.5000    0.0000 C   0  0  0  0  0  0  0  0  0  0  0  0
   12.9292   -7.0000    0.0000 C   0  0  0  0  0  0  0  0  0  0  0  0
   12.9292   -8.0000    0.0000 C   0  0  0  0  0  0  0  0  0  0  0  0
   13.7953   -8.5000    0.0000 C   0  0  0  0  0  0  0  0  0  0  0  0
   14.6613   -8.0000    0.0000 C   0  0  0  0  0  0  0  0  0  0  0  0
   15.5273   -8.5000    0.0000 C   0  0  0  0  0  0  0  0  0  0  0  0
   12.7172    5.5826    0.0000 H   0  0  0  0  0  0  0  0  0  0  0  0
   12.3187    4.8923    0.0000 H   0  0  0  0  0  0  0  0  0  0  0  0
   13.1413    3.4174    0.0000 H   0  0  0  0  0  0  0  0  0  0  0  0
   13.5398    4.1077    0.0000 H   0  0  0  0  0  0  0  0  0  0  0  0
   14.0073    4.9174    0.0000 H   0  0  0  0  0  0  0  0  0  0  0  0
   14.4058    5.6077    0.0000 H   0  0  0  0  0  0  0  0  0  0  0  0
   11.8512    4.0826    0.0000 H   0  0  0  0  0  0  0  0  0  0  0  0
   11.4526    3.3923    0.0000 H   0  0  0  0  0  0  0  0  0  0  0  0
   13.5832    7.0826    0.0000 H   0  0  0  0  0  0  0  0  0  0  0  0
   13.1847    6.3923    0.0000 H   0  0  0  0  0  0  0  0  0  0  0  0
   12.2753    1.9174    0.0000 H   0  0  0  0  0  0  0  0  0  0  0  0
   12.6738    2.6077    0.0000 H   0  0  0  0  0  0  0  0  0  0  0  0
   14.8733    6.4174    0.0000 H   0  0  0  0  0  0  0  0  0  0  0  0
   15.2719    7.1077    0.0000 H   0  0  0  0  0  0  0  0  0  0  0  0
   10.7987    1.5250    0.0000 H   0  0  0  0  0  0  0  0  0  0  0  0
   11.5957    1.5250    0.0000 H   0  0  0  0  0  0  0  0  0  0  0  0
   17.6579    8.9750    0.0000 H   0  0  0  0  0  0  0  0  0  0  0  0
   16.8608    8.9750    0.0000 H   0  0  0  0  0  0  0  0  0  0  0  0
   14.1244    8.3100    0.0000 H   0  0  0  0  0  0  0  0  0  0  0  0
   17.7269    7.5250    0.0000 H   0  0  0  0  0  0  0  0  0  0  0  0
   18.5239    7.5250    0.0000 H   0  0  0  0  0  0  0  0  0  0  0  0
   15.9948    7.5250    0.0000 H   0  0  0  0  0  0  0  0  0  0  0  0
   16.7919    7.5250    0.0000 H   0  0  0  0  0  0  0  0  0  0  0  0
   15.5273    9.1200    0.0000 H   0  0  0  0  0  0  0  0  0  0  0  0
   19.3899    8.9750    0.0000 H   0  0  0  0  0  0  0  0  0  0  0  0
   18.5929    8.9750    0.0000 H   0  0  0  0  0  0  0  0  0  0  0  0
   10.3312    3.1200    0.0000 H   0  0  0  0  0  0  0  0  0  0  0  0
   19.4589    7.5250    0.0000 H   0  0  0  0  0  0  0  0  0  0  0  0
   20.2560    7.5250    0.0000 H   0  0  0  0  0  0  0  0  0  0  0  0
    8.9282    2.3100    0.0000 H   0  0  0  0  0  0  0  0  0  0  0  0
   21.0335    7.9631    0.0000 H   0  0  0  0  0  0  0  0  0  0  0  0
   21.2604    8.8100    0.0000 H   0  0  0  0  0  0  0  0  0  0  0  0
   20.4135    9.0369    0.0000 H   0  0  0  0  0  0  0  0  0  0  0  0
    8.5991   -1.1200    0.0000 H   0  0  0  0  0  0  0  0  0  0  0  0
    8.3871    1.0826    0.0000 H   0  0  0  0  0  0  0  0  0  0  0  0
    7.9885    0.3923    0.0000 H   0  0  0  0  0  0  0  0  0  0  0  0
    7.3346   -1.4750    0.0000 H   0  0  0  0  0  0  0  0  0  0  0  0
    8.1316   -1.4750    0.0000 H   0  0  0  0  0  0  0  0  0  0  0  0
   10.7987   -1.4750    0.0000 H   0  0  0  0  0  0  0  0  0  0  0  0
   11.5957   -1.4750    0.0000 H   0  0  0  0  0  0  0  0  0  0  0  0
   12.4617   -0.0251    0.0000 H   0  0  0  0  0  0  0  0  0  0  0  0
   11.6647   -0.0251    0.0000 H   0  0  0  0  0  0  0  0  0  0  0  0
   12.5307   -1.4750    0.0000 H   0  0  0  0  0  0  0  0  0  0  0  0
   13.3278   -1.4750    0.0000 H   0  0  0  0  0  0  0  0  0  0  0  0
   13.7953    0.1200    0.0000 H   0  0  0  0  0  0  0  0  0  0  0  0
   15.1982   -0.6900    0.0000 H   0  0  0  0  0  0  0  0  0  0  0  0
   14.0507   -1.8923    0.0000 H   0  0  0  0  0  0  0  0  0  0  0  0
   14.4492   -2.5826    0.0000 H   0  0  0  0  0  0  0  0  0  0  0  0
    4.6675   -0.5251    0.0000 H   0  0  0  0  0  0  0  0  0  0  0  0
    3.8705   -0.5251    0.0000 H   0  0  0  0  0  0  0  0  0  0  0  0
    5.8110    0.4030    0.0000 H   0  0  0  0  0  0  0  0  0  0  0  0
   16.0643   -2.1900    0.0000 H   0  0  0  0  0  0  0  0  0  0  0  0
    3.0044   -1.9750    0.0000 H   0  0  0  0  0  0  0  0  0  0  0  0
    3.8015   -1.9750    0.0000 H   0  0  0  0  0  0  0  0  0  0  0  0
   16.0643   -3.8100    0.0000 H   0  0  0  0  0  0  0  0  0  0  0  0
   14.4492   -3.4174    0.0000 H   0  0  0  0  0  0  0  0  0  0  0  0
   14.0507   -4.1077    0.0000 H   0  0  0  0  0  0  0  0  0  0  0  0
    2.0000   -1.3100    0.0000 H   0  0  0  0  0  0  0  0  0  0  0  0
    2.5369   -0.3800    0.0000 H   0  0  0  0  0  0  0  0  0  0  0  0
   15.1982   -5.3100    0.0000 H   0  0  0  0  0  0  0  0  0  0  0  0
   13.7953   -6.1200    0.0000 H   0  0  0  0  0  0  0  0  0  0  0  0
   13.3278   -4.5250    0.0000 H   0  0  0  0  0  0  0  0  0  0  0  0
   12.5307   -4.5250    0.0000 H   0  0  0  0  0  0  0  0  0  0  0  0
   11.5263   -5.1900    0.0000 H   0  0  0  0  0  0  0  0  0  0  0  0
   11.5263   -6.8100    0.0000 H   0  0  0  0  0  0  0  0  0  0  0  0
   13.5398   -7.1077    0.0000 H   0  0  0  0  0  0  0  0  0  0  0  0
   13.1413   -6.4174    0.0000 H   0  0  0  0  0  0  0  0  0  0  0  0
   12.3923   -8.3100    0.0000 H   0  0  0  0  0  0  0  0  0  0  0  0
   13.7953   -9.1200    0.0000 H   0  0  0  0  0  0  0  0  0  0  0  0
   15.0598   -7.5250    0.0000 H   0  0  0  0  0  0  0  0  0  0  0  0
   14.2628   -7.5250    0.0000 H   0  0  0  0  0  0  0  0  0  0  0  0
   15.2173   -9.0369    0.0000 H   0  0  0  0  0  0  0  0  0  0  0  0
   16.0643   -8.8100    0.0000 H   0  0  0  0  0  0  0  0  0  0  0  0
   15.8373   -7.9631    0.0000 H   0  0  0  0  0  0  0  0  0  0  0  0
  1  4  1  0  0  0  0
  1  6  1  0  0  0  0
  1  7  1  0  0  0  0
  1  8  2  0  0  0  0
  2 26  1  0  0  0  0
  2 29  1  0  0  0  0
  3 33  1  0  0  0  0
  4 30  1  0  0  0  0
  5 33  2  0  0  0  0
  6 38  1  0  0  0  0
  7103  1  0  0  0  0
  9 40  1  0  0  0  0
  9110  1  0  0  0  0
  9111  1  0  0  0  0
 10 11  1  0  0  0  0
 10 12  1  0  0  0  0
 10 53  1  0  0  0  0
 10 54  1  0  0  0  0
 11 13  1  0  0  0  0
 11 55  1  0  0  0  0
 11 56  1  0  0  0  0
 12 14  1  0  0  0  0
 12 57  1  0  0  0  0
 12 58  1  0  0  0  0
 13 15  1  0  0  0  0
 13 59  1  0  0  0  0
 13 60  1  0  0  0  0
 14 16  1  0  0  0  0
 14 61  1  0  0  0  0
 14 62  1  0  0  0  0
 15 17  1  0  0  0  0
 15 63  1  0  0  0  0
 15 64  1  0  0  0  0
 16 19  1  0  0  0  0
 16 65  1  0  0  0  0
 16 66  1  0  0  0  0
 17 24  1  0  0  0  0
 17 67  1  0  0  0  0
 17 68  1  0  0  0  0
 18 20  1  0  0  0  0
 18 21  1  0  0  0  0
 18 69  1  0  0  0  0
 18 70  1  0  0  0  0
 19 22  2  0  0  0  0
 19 71  1  0  0  0  0
 20 22  1  0  0  0  0
 20 74  1  0  0  0  0
 20 75  1  0  0  0  0
 21 23  1  0  0  0  0
 21 72  1  0  0  0  0
 21 73  1  0  0  0  0
 22 76  1  0  0  0  0
 23 25  1  0  0  0  0
 23 77  1  0  0  0  0
 23 78  1  0  0  0  0
 24 26  2  0  0  0  0
 24 79  1  0  0  0  0
 25 27  1  0  0  0  0
 25 80  1  0  0  0  0
 25 81  1  0  0  0  0
 26 82  1  0  0  0  0
 27 83  1  0  0  0  0
 27 84  1  0  0  0  0
 27 85  1  0  0  0  0
 28  3  1  0  0  0  0
 28 29  1  0  0  0  0
 28 30  1  0  0  0  0
 28 86  1  6  0  0  0
 29 87  1  0  0  0  0
 29 88  1  0  0  0  0
 30 89  1  0  0  0  0
 30 90  1  0  0  0  0
 31 32  1  0  0  0  0
 31 33  1  0  0  0  0
 31 91  1  0  0  0  0
 31 92  1  0  0  0  0
 32 34  1  0  0  0  0
 32 93  1  0  0  0  0
 32 94  1  0  0  0  0
 34 35  1  0  0  0  0
 34 95  1  0  0  0  0
 34 96  1  0  0  0  0
 35 36  2  0  0  0  0
 35 97  1  0  0  0  0
 36 37  1  0  0  0  0
 36 98  1  0  0  0  0
 37 39  1  0  0  0  0
 37 99  1  0  0  0  0
 37100  1  0  0  0  0
 38 40  1  0  0  0  0
 38101  1  0  0  0  0
 38102  1  0  0  0  0
 39 41  2  0  0  0  0
 39104  1  0  0  0  0
 40105  1  0  0  0  0
 40106  1  0  0  0  0
 41 42  1  0  0  0  0
 41107  1  0  0  0  0
 42 43  1  0  0  0  0
 42108  1  0  0  0  0
 42109  1  0  0  0  0
 43 44  2  0  0  0  0
 43112  1  0  0  0  0
 44 45  1  0  0  0  0
 44113  1  0  0  0  0
 45 46  1  0  0  0  0
 45114  1  0  0  0  0
 45115  1  0  0  0  0
 46 47  2  0  0  0  0
 46116  1  0  0  0  0
 47 48  1  0  0  0  0
 47117  1  0  0  0  0
 48 49  1  0  0  0  0
 48118  1  0  0  0  0
 48119  1  0  0  0  0
 49 50  2  0  0  0  0
 49120  1  0  0  0  0
 50 51  1  0  0  0  0
 50121  1  0  0  0  0
 51 52  1  0  0  0  0
 51122  1  0  0  0  0
 51123  1  0  0  0  0
 52124  1  0  0  0  0
 52125  1  0  0  0  0
 52126  1  0  0  0  0
M  END
>  <PUBCHEM_COMPOUND_CID>
53480880

>  <PUBCHEM_COMPOUND_CANONICALIZED>
1

>  <PUBCHEM_CACTVS_COMPLEXITY>
1060

>  <PUBCHEM_CACTVS_HBOND_ACCEPTOR>
8

>  <PUBCHEM_CACTVS_HBOND_DONOR>
2

>  <PUBCHEM_CACTVS_ROTATABLE_BOND>
38

>  <PUBCHEM_CACTVS_SUBSKEYS>
AAADcfB+OAIAAAAAAAAAAAAAAAAAAAAAAAAAAAAAAAAAAAAAAAAAHgAQCCAACBThgAYCCABABRCIQCDSCIAACAAgIAAICIEAAAgDABIAAQACAAAFkAAKAAOIgIAAAAAAAAAAAAAAAAAAAAAAAAAAAAAAAA==

>  <PUBCHEM_IUPAC_OPENEYE_NAME>
[(1R)-1-[[2-aminoethoxy(hydroxy)phosphoryl]oxymethyl]-2-[(1Z,11Z)-octadeca-1,11-dienoxy]ethyl] (5Z,8Z,11Z,14Z,17Z)-icosa-5,8,11,14,17-pentaenoate

>  <PUBCHEM_IUPAC_CAS_NAME>
(5Z,8Z,11Z,14Z,17Z)-eicosa-5,8,11,14,17-pentaenoic acid [(2R)-1-[2-aminoethoxy(hydroxy)phosphoryl]oxy-3-[(1Z,11Z)-octadeca-1,11-dienoxy]propan-2-yl] ester

>  <PUBCHEM_IUPAC_NAME>
[(2R)-1-[2-aminoethoxy(hydroxy)phosphoryl]oxy-3-[(1Z,11Z)-octadeca-1,11-dienoxy]propan-2-yl] (5Z,8Z,11Z,14Z,17Z)-icosa-5,8,11,14,17-pentaenoate

>  <PUBCHEM_IUPAC_SYSTEMATIC_NAME>
[(2R)-1-[2-azanylethoxy(oxidanyl)phosphoryl]oxy-3-[(1Z,11Z)-octadeca-1,11-dienoxy]propan-2-yl] (5Z,8Z,11Z,14Z,17Z)-icosa-5,8,11,14,17-pentaenoate

>  <PUBCHEM_IUPAC_TRADITIONAL_NAME>
(5Z,8Z,11Z,14Z,17Z)-eicosa-5,8,11,14,17-pentaenoic acid [(1R)-1-[[2-aminoethoxy(hydroxy)phosphoryl]oxymethyl]-2-[(1Z,11Z)-octadeca-1,11-dienoxy]ethyl] ester

>  <PUBCHEM_IUPAC_INCHI>
InChI=1S/C43H74NO7P/c1-3-5-7-9-11-13-15-17-19-21-22-24-26-28-30-32-34-36-43(45)51-42(41-50-52(46,47)49-39-37-44)40-48-38-35-33-31-29-27-25-23-20-18-16-14-12-10-8-6-4-2/h5,7,11,13-14,16-17,19,22,24,28,30,35,38,42H,3-4,6,8-10,12,15,18,20-21,23,25-27,29,31-34,36-37,39-41,44H2,1-2H3,(H,46,47)/b7-5-,13-11-,16-14-,19-17-,24-22-,30-28-,38-35-/t42-/m1/s1

>  <PUBCHEM_IUPAC_INCHIKEY>
RDLRIZLZWSNORN-FSOAWXQVSA-N

>  <PUBCHEM_XLOGP3_AA>
9.4

>  <PUBCHEM_EXACT_MASS>
747.52

>  <PUBCHEM_MOLECULAR_FORMULA>
C43H74NO7P

>  <PUBCHEM_MOLECULAR_WEIGHT>
748.039

>  <PUBCHEM_OPENEYE_CAN_SMILES>
CCCCCCC=CCCCCCCCCC=COCC(COP(=O)(O)OCCN)OC(=O)CCCC=CCC=CCC=CCC=CCC=CCC

>  <PUBCHEM_OPENEYE_ISO_SMILES>
CCCCCC/C=C\CCCCCCCC/C=C\OC[C@H](COP(=O)(O)OCCN)OC(=O)CCC/C=C\C/C=C\C/C=C\C/C=C\C/C=C\CC

>  <PUBCHEM_CACTVS_TPSA>
117

>  <PUBCHEM_MONOISOTOPIC_WEIGHT>
747.52

>  <PUBCHEM_TOTAL_CHARGE>
0

>  <PUBCHEM_HEAVY_ATOM_COUNT>
52

>  <PUBCHEM_ATOM_DEF_STEREO_COUNT>
1

>  <PUBCHEM_ATOM_UDEF_STEREO_COUNT>
0

>  <PUBCHEM_BOND_DEF_STEREO_COUNT>
7

>  <PUBCHEM_BOND_UDEF_STEREO_COUNT>
0

>  <PUBCHEM_ISOTOPIC_ATOM_COUNT>
0

>  <PUBCHEM_COMPONENT_COUNT>
1

>  <PUBCHEM_CACTVS_TAUTO_COUNT>
1

>  <PUBCHEM_COORDINATE_TYPE>
1
5
255

>  <PUBCHEM_BONDANNOTATIONS>
28  3  5

$$$$
