5351745
 OpenBabel06101807152D

 49 52  0  0  0  0  0  0  0  0999 V2000
    6.4128    5.2600    0.0000 I   0  5  0  0  0  0  0  0  0  0  0  0
    3.8863    3.8975    0.0000 O   0  0  0  0  0  0  0  0  0  0  0  0
    2.1543    2.8975    0.0000 N   0  3  3  0  0  0  0  0  0  0  0  0
    2.9904    1.4492    0.0000 N   0  0  3  0  0  0  0  0  0  0  0  0
    1.3180    1.4492    0.0000 N   0  0  3  0  0  0  0  0  0  0  0  0
    1.4632    1.0141    0.0000 N   0  0  3  0  0  0  0  0  0  0  0  0
    2.9904    2.4147    0.0000 C   0  0  0  0  0  0  0  0  0  0  0  0
    1.3180    2.4147    0.0000 C   0  0  0  0  0  0  0  0  0  0  0  0
    1.4632    2.0594    0.0000 C   0  0  0  0  0  0  0  0  0  0  0  0
    2.3688    0.5373    0.0000 C   0  0  0  0  0  0  0  0  0  0  0  0
    2.1543    1.1464    0.0000 C   0  0  0  0  0  0  0  0  0  0  0  0
    0.4812    0.9664    0.0000 C   0  0  0  0  0  0  0  0  0  0  0  0
    2.1542    3.8975    0.0000 C   0  0  0  0  0  0  0  0  0  0  0  0
    3.0203    4.3975    0.0000 C   0  0  0  0  0  0  0  0  0  0  0  0
    3.0203    5.3975    0.0000 C   0  0  0  0  0  0  0  0  0  0  0  0
    3.8863    5.8975    0.0000 C   0  0  0  0  0  0  0  0  0  0  0  0
    2.1542    5.8975    0.0000 C   0  0  0  0  0  0  0  0  0  0  0  0
    3.8863    6.8975    0.0000 C   0  0  0  0  0  0  0  0  0  0  0  0
    2.1542    6.8975    0.0000 C   0  0  0  0  0  0  0  0  0  0  0  0
    3.0203    7.3975    0.0000 C   0  0  0  0  0  0  0  0  0  0  0  0
    3.0202    8.3975    0.0000 C   0  0  0  0  0  0  0  0  0  0  0  0
    3.8863    8.8975    0.0000 C   0  0  0  0  0  0  0  0  0  0  0  0
    2.1542    8.8975    0.0000 C   0  0  0  0  0  0  0  0  0  0  0  0
    3.8863    9.8975    0.0000 C   0  0  0  0  0  0  0  0  0  0  0  0
    2.1542    9.8975    0.0000 C   0  0  0  0  0  0  0  0  0  0  0  0
    3.0202   10.3975    0.0000 C   0  0  0  0  0  0  0  0  0  0  0  0
    3.6010    2.3070    0.0000 H   0  0  0  0  0  0  0  0  0  0  0  0
    3.2025    2.9973    0.0000 H   0  0  0  0  0  0  0  0  0  0  0  0
    1.1060    2.9973    0.0000 H   0  0  0  0  0  0  0  0  0  0  0  0
    0.7075    2.3070    0.0000 H   0  0  0  0  0  0  0  0  0  0  0  0
    1.1195    2.5754    0.0000 H   0  0  0  0  0  0  0  0  0  0  0  0
    0.8697    1.8798    0.0000 H   0  0  0  0  0  0  0  0  0  0  0  0
    1.7843    0.6489    0.0000 H   0  0  0  0  0  0  0  0  0  0  0  0
    2.5242    0.6489    0.0000 H   0  0  0  0  0  0  0  0  0  0  0  0
    2.0594    0.0000    0.0000 H   0  0  0  0  0  0  0  0  0  0  0  0
    2.8940    0.2077    0.0000 H   0  0  0  0  0  0  0  0  0  0  0  0
    0.0000    1.3573    0.0000 H   0  0  0  0  0  0  0  0  0  0  0  0
    0.2881    0.3773    0.0000 H   0  0  0  0  0  0  0  0  0  0  0  0
    1.9422    4.4801    0.0000 H   0  0  0  0  0  0  0  0  0  0  0  0
    1.5437    3.7898    0.0000 H   0  0  0  0  0  0  0  0  0  0  0  0
    4.4232    5.5875    0.0000 H   0  0  0  0  0  0  0  0  0  0  0  0
    1.6173    5.5875    0.0000 H   0  0  0  0  0  0  0  0  0  0  0  0
    4.4232    7.2075    0.0000 H   0  0  0  0  0  0  0  0  0  0  0  0
    1.6173    7.2075    0.0000 H   0  0  0  0  0  0  0  0  0  0  0  0
    4.4232    8.5875    0.0000 H   0  0  0  0  0  0  0  0  0  0  0  0
    1.6173    8.5875    0.0000 H   0  0  0  0  0  0  0  0  0  0  0  0
    4.4232   10.2075    0.0000 H   0  0  0  0  0  0  0  0  0  0  0  0
    1.6173   10.2075    0.0000 H   0  0  0  0  0  0  0  0  0  0  0  0
    3.0202   11.0175    0.0000 H   0  0  0  0  0  0  0  0  0  0  0  0
  2 14  2  0  0  0  0
  3  7  1  0  0  0  0
  3  8  1  0  0  0  0
  3  9  1  0  0  0  0
  3 13  1  0  0  0  0
  4  7  1  0  0  0  0
  4 10  1  0  0  0  0
  4 11  1  0  0  0  0
  5  8  1  0  0  0  0
  5 11  1  0  0  0  0
  5 12  1  0  0  0  0
  6  9  1  0  0  0  0
  6 10  1  0  0  0  0
  6 12  1  0  0  0  0
  7 27  1  0  0  0  0
  7 28  1  0  0  0  0
  8 29  1  0  0  0  0
  8 30  1  0  0  0  0
  9 31  1  0  0  0  0
  9 32  1  0  0  0  0
 10 35  1  0  0  0  0
 10 36  1  0  0  0  0
 11 33  1  0  0  0  0
 11 34  1  0  0  0  0
 12 37  1  0  0  0  0
 12 38  1  0  0  0  0
 13 14  1  0  0  0  0
 13 39  1  0  0  0  0
 13 40  1  0  0  0  0
 14 15  1  0  0  0  0
 15 16  2  0  0  0  0
 15 17  1  0  0  0  0
 16 18  1  0  0  0  0
 16 41  1  0  0  0  0
 17 19  2  0  0  0  0
 17 42  1  0  0  0  0
 18 20  2  0  0  0  0
 18 43  1  0  0  0  0
 19 20  1  0  0  0  0
 19 44  1  0  0  0  0
 20 21  1  0  0  0  0
 21 22  2  0  0  0  0
 21 23  1  0  0  0  0
 22 24  1  0  0  0  0
 22 45  1  0  0  0  0
 23 25  2  0  0  0  0
 23 46  1  0  0  0  0
 24 26  2  0  0  0  0
 24 47  1  0  0  0  0
 25 26  1  0  0  0  0
 25 48  1  0  0  0  0
 26 49  1  0  0  0  0
M  CHG  2   1  -1   3   1
M  END
>  <PUBCHEM_COMPOUND_CID>
5351745

>  <PUBCHEM_COMPOUND_CANONICALIZED>
1

>  <PUBCHEM_CACTVS_COMPLEXITY>
467

>  <PUBCHEM_CACTVS_HBOND_ACCEPTOR>
5

>  <PUBCHEM_CACTVS_HBOND_DONOR>
0

>  <PUBCHEM_CACTVS_ROTATABLE_BOND>
4

>  <PUBCHEM_CACTVS_SUBSKEYS>
AAADceB7oAAAAgAAAAAAAAAAAAAAAAAAAAA8eLFiAAAAAAABQAAAHgAAAAAADATBmAQxAIMAAACIAqBSAAACAAAkAAAIiAGIAMiIIDKAlTGEIQAogAIIiYcYiMCOwAAAAAAAAACAAAAAAAAAAAAAAAAAAA==

>  <PUBCHEM_IUPAC_INCHI>
InChI=1S/C20H23N4O.HI/c25-20(10-24-14-21-11-22(15-24)13-23(12-21)16-24)19-8-6-18(7-9-19)17-4-2-1-3-5-17;/h1-9H,10-16H2;1H/q+1;/p-1

>  <PUBCHEM_IUPAC_INCHIKEY>
CRAOGNOTDDTUBO-UHFFFAOYSA-M

>  <PUBCHEM_EXACT_MASS>
462.092

>  <PUBCHEM_MOLECULAR_FORMULA>
C20H23IN4O

>  <PUBCHEM_MOLECULAR_WEIGHT>
462.335

>  <PUBCHEM_OPENEYE_CAN_SMILES>
C1N2CN3CN1C[N+](C2)(C3)CC(=O)C4=CC=C(C=C4)C5=CC=CC=C5.[I-]

>  <PUBCHEM_OPENEYE_ISO_SMILES>
C1N2CN3CN1C[N+](C2)(C3)CC(=O)C4=CC=C(C=C4)C5=CC=CC=C5.[I-]

>  <PUBCHEM_CACTVS_TPSA>
26.8

>  <PUBCHEM_MONOISOTOPIC_WEIGHT>
462.092

>  <PUBCHEM_TOTAL_CHARGE>
0

>  <PUBCHEM_HEAVY_ATOM_COUNT>
26

>  <PUBCHEM_ATOM_DEF_STEREO_COUNT>
0

>  <PUBCHEM_ATOM_UDEF_STEREO_COUNT>
0

>  <PUBCHEM_BOND_DEF_STEREO_COUNT>
0

>  <PUBCHEM_BOND_UDEF_STEREO_COUNT>
0

>  <PUBCHEM_ISOTOPIC_ATOM_COUNT>
0

>  <PUBCHEM_COMPONENT_COUNT>
2

>  <PUBCHEM_CACTVS_TAUTO_COUNT>
2

>  <PUBCHEM_COORDINATE_TYPE>
1
5
255

>  <PUBCHEM_BONDANNOTATIONS>
15  16  8
15  17  8
16  18  8
17  19  8
18  20  8
19  20  8
21  22  8
21  23  8
22  24  8
23  25  8
24  26  8
25  26  8

$$$$
