535169
 OpenBabel06101807152D

 24 24  0  0  0  0  0  0  0  0999 V2000
    2.8090   -1.9830    0.0000 O   0  0  0  0  0  0  0  0  0  0  0  0
    5.0724    1.9830    0.0000 O   0  0  0  0  0  0  0  0  0  0  0  0
    3.8968    0.3649    0.0000 C   0  0  0  0  0  0  0  0  0  0  0  0
    4.8913    0.2604    0.0000 C   0  0  0  0  0  0  0  0  0  0  0  0
    3.3090   -0.4441    0.0000 C   0  0  0  0  0  0  0  0  0  0  0  0
    5.4791    1.0694    0.0000 C   0  0  0  0  0  0  0  0  0  0  0  0
    2.3090   -0.4441    0.0000 C   0  0  0  0  0  0  0  0  0  0  0  0
    3.6180   -1.3952    0.0000 C   0  0  0  0  0  0  0  0  0  0  0  0
    6.4736    0.9649    0.0000 C   0  0  0  0  0  0  0  0  0  0  0  0
    2.0000   -1.3952    0.0000 C   0  0  0  0  0  0  0  0  0  0  0  0
    7.0614    1.7739    0.0000 C   0  0  0  0  0  0  0  0  0  0  0  0
    6.8804    0.0513    0.0000 C   0  0  0  0  0  0  0  0  0  0  0  0
    4.0677    0.9609    0.0000 H   0  0  0  0  0  0  0  0  0  0  0  0
    3.3396    0.6367    0.0000 H   0  0  0  0  0  0  0  0  0  0  0  0
    4.7204   -0.3356    0.0000 H   0  0  0  0  0  0  0  0  0  0  0  0
    5.4486   -0.0114    0.0000 H   0  0  0  0  0  0  0  0  0  0  0  0
    1.9446    0.0575    0.0000 H   0  0  0  0  0  0  0  0  0  0  0  0
    4.2077   -1.5868    0.0000 H   0  0  0  0  0  0  0  0  0  0  0  0
    1.4103   -1.5868    0.0000 H   0  0  0  0  0  0  0  0  0  0  0  0
    7.5630    1.4095    0.0000 H   0  0  0  0  0  0  0  0  0  0  0  0
    7.4258    2.2755    0.0000 H   0  0  0  0  0  0  0  0  0  0  0  0
    6.5598    2.1383    0.0000 H   0  0  0  0  0  0  0  0  0  0  0  0
    6.5159   -0.4503    0.0000 H   0  0  0  0  0  0  0  0  0  0  0  0
    7.4970   -0.0135    0.0000 H   0  0  0  0  0  0  0  0  0  0  0  0
  1  8  1  0  0  0  0
  1 10  1  0  0  0  0
  2  6  2  0  0  0  0
  3  4  1  0  0  0  0
  3  5  1  0  0  0  0
  3 13  1  0  0  0  0
  3 14  1  0  0  0  0
  4  6  1  0  0  0  0
  4 15  1  0  0  0  0
  4 16  1  0  0  0  0
  5  7  1  0  0  0  0
  5  8  2  0  0  0  0
  6  9  1  0  0  0  0
  7 10  2  0  0  0  0
  7 17  1  0  0  0  0
  8 18  1  0  0  0  0
  9 11  1  0  0  0  0
  9 12  2  0  0  0  0
 10 19  1  0  0  0  0
 11 20  1  0  0  0  0
 11 21  1  0  0  0  0
 11 22  1  0  0  0  0
 12 23  1  0  0  0  0
 12 24  1  0  0  0  0
M  END
>  <PUBCHEM_COMPOUND_CID>
535169

>  <PUBCHEM_COMPOUND_CANONICALIZED>
1

>  <PUBCHEM_CACTVS_COMPLEXITY>
184

>  <PUBCHEM_CACTVS_HBOND_ACCEPTOR>
2

>  <PUBCHEM_CACTVS_HBOND_DONOR>
0

>  <PUBCHEM_CACTVS_ROTATABLE_BOND>
4

>  <PUBCHEM_CACTVS_SUBSKEYS>
AAADccBwMAAAAAAAAAAAAAAAAAAAASAAAAAAAAAAAAAAAAABgAAAGgAAAAAADASgmAIyBIAABECIAqhSgAACCAAkIAAIiAEGCMgMJhIENQqCGSCkwBEIKYOIzuCuAAAAAAAAAAAAAAAAAAAAAAAAAAAAAA==

>  <PUBCHEM_IUPAC_OPENEYE_NAME>
5-(3-furyl)-2-methyl-pent-1-en-3-one

>  <PUBCHEM_IUPAC_CAS_NAME>
5-(3-furanyl)-2-methyl-1-penten-3-one

>  <PUBCHEM_IUPAC_NAME>
5-(furan-3-yl)-2-methylpent-1-en-3-one

>  <PUBCHEM_IUPAC_SYSTEMATIC_NAME>
5-(furan-3-yl)-2-methyl-pent-1-en-3-one

>  <PUBCHEM_IUPAC_TRADITIONAL_NAME>
5-(3-furyl)-2-methyl-pent-1-en-3-one

>  <PUBCHEM_IUPAC_INCHI>
InChI=1S/C10H12O2/c1-8(2)10(11)4-3-9-5-6-12-7-9/h5-7H,1,3-4H2,2H3

>  <PUBCHEM_IUPAC_INCHIKEY>
XUCQQLCBOJJVRF-UHFFFAOYSA-N

>  <PUBCHEM_XLOGP3_AA>
1.9

>  <PUBCHEM_EXACT_MASS>
164.084

>  <PUBCHEM_MOLECULAR_FORMULA>
C10H12O2

>  <PUBCHEM_MOLECULAR_WEIGHT>
164.204

>  <PUBCHEM_OPENEYE_CAN_SMILES>
CC(=C)C(=O)CCC1=COC=C1

>  <PUBCHEM_OPENEYE_ISO_SMILES>
CC(=C)C(=O)CCC1=COC=C1

>  <PUBCHEM_CACTVS_TPSA>
30.2

>  <PUBCHEM_MONOISOTOPIC_WEIGHT>
164.084

>  <PUBCHEM_TOTAL_CHARGE>
0

>  <PUBCHEM_HEAVY_ATOM_COUNT>
12

>  <PUBCHEM_ATOM_DEF_STEREO_COUNT>
0

>  <PUBCHEM_ATOM_UDEF_STEREO_COUNT>
0

>  <PUBCHEM_BOND_DEF_STEREO_COUNT>
0

>  <PUBCHEM_BOND_UDEF_STEREO_COUNT>
0

>  <PUBCHEM_ISOTOPIC_ATOM_COUNT>
0

>  <PUBCHEM_COMPONENT_COUNT>
1

>  <PUBCHEM_CACTVS_TAUTO_COUNT>
2

>  <PUBCHEM_COORDINATE_TYPE>
1
5
255

>  <PUBCHEM_BONDANNOTATIONS>
1  10  8
1  8  8
5  7  8
5  8  8
7  10  8

$$$$
