5352694
 OpenBabel06101807152D

 21 20  0  0  0  0  0  0  0  0999 V2000
    6.0010    0.0600    0.0000 S   0  0  0  0  0  0  0  0  0  0  0  0
    5.1350   -0.4400    0.0000 S   0  0  0  0  0  0  0  0  0  0  0  0
    4.2690    0.0600    0.0000 S   0  0  0  0  0  0  0  0  0  0  0  0
    7.7331    0.0600    0.0000 C   0  0  0  0  0  0  0  0  0  0  0  0
    6.8671   -0.4400    0.0000 C   0  0  0  0  0  0  0  0  0  0  0  0
    8.5991   -0.4400    0.0000 C   0  0  0  0  0  0  0  0  0  0  0  0
    2.5369    0.0600    0.0000 C   0  0  0  0  0  0  0  0  0  0  0  0
    2.5369    1.0600    0.0000 C   0  0  0  0  0  0  0  0  0  0  0  0
    3.4030   -0.4400    0.0000 C   0  0  0  0  0  0  0  0  0  0  0  0
    8.1316    0.5349    0.0000 H   0  0  0  0  0  0  0  0  0  0  0  0
    7.3346    0.5349    0.0000 H   0  0  0  0  0  0  0  0  0  0  0  0
    6.4685   -0.9149    0.0000 H   0  0  0  0  0  0  0  0  0  0  0  0
    7.2656   -0.9149    0.0000 H   0  0  0  0  0  0  0  0  0  0  0  0
    8.2891   -0.9769    0.0000 H   0  0  0  0  0  0  0  0  0  0  0  0
    9.1360   -0.7500    0.0000 H   0  0  0  0  0  0  0  0  0  0  0  0
    8.9091    0.0969    0.0000 H   0  0  0  0  0  0  0  0  0  0  0  0
    2.0000   -0.2500    0.0000 H   0  0  0  0  0  0  0  0  0  0  0  0
    3.1569    1.0600    0.0000 H   0  0  0  0  0  0  0  0  0  0  0  0
    2.5369    1.6800    0.0000 H   0  0  0  0  0  0  0  0  0  0  0  0
    1.9169    1.0600    0.0000 H   0  0  0  0  0  0  0  0  0  0  0  0
    3.4030   -1.0600    0.0000 H   0  0  0  0  0  0  0  0  0  0  0  0
  1  2  1  0  0  0  0
  1  5  1  0  0  0  0
  2  3  1  0  0  0  0
  3  9  1  0  0  0  0
  4  5  1  0  0  0  0
  4  6  1  0  0  0  0
  4 10  1  0  0  0  0
  4 11  1  0  0  0  0
  5 12  1  0  0  0  0
  5 13  1  0  0  0  0
  6 14  1  0  0  0  0
  6 15  1  0  0  0  0
  6 16  1  0  0  0  0
  7  8  1  0  0  0  0
  7  9  2  0  0  0  0
  7 17  1  0  0  0  0
  8 18  1  0  0  0  0
  8 19  1  0  0  0  0
  8 20  1  0  0  0  0
  9 21  1  0  0  0  0
M  END
>  <PUBCHEM_COMPOUND_CID>
5352694

>  <PUBCHEM_COMPOUND_CANONICALIZED>
1

>  <PUBCHEM_CACTVS_COMPLEXITY>
70.7

>  <PUBCHEM_CACTVS_HBOND_ACCEPTOR>
3

>  <PUBCHEM_CACTVS_HBOND_DONOR>
0

>  <PUBCHEM_CACTVS_ROTATABLE_BOND>
5

>  <PUBCHEM_CACTVS_SUBSKEYS>
AAADccBgAABgAAAAAAAAAAAAAAAAAAAAAAAAAAAAAAAAAAAAAAAAGAQAAAAACACEQACCAAAAAACAACBCAAAAAAAAAAAIAAAAAAAAAAAAAQAAAAAAAAAAAAAAAAAAAAAAAAAAAAAAAAAAAAAAAAAAAAAAAA==

>  <PUBCHEM_IUPAC_OPENEYE_NAME>
1-[[(Z)-prop-1-enyl]trisulfanyl]propane

>  <PUBCHEM_IUPAC_CAS_NAME>
1-[[(Z)-prop-1-enyl]trisulfanyl]propane

>  <PUBCHEM_IUPAC_NAME>
1-[[(Z)-prop-1-enyl]trisulfanyl]propane

>  <PUBCHEM_IUPAC_SYSTEMATIC_NAME>
1-[[(Z)-prop-1-enyl]trisulfanyl]propane

>  <PUBCHEM_IUPAC_TRADITIONAL_NAME>
1-[[(Z)-prop-1-enyl]trisulfanyl]propane

>  <PUBCHEM_IUPAC_INCHI>
InChI=1S/C6H12S3/c1-3-5-7-9-8-6-4-2/h3,5H,4,6H2,1-2H3/b5-3-

>  <PUBCHEM_IUPAC_INCHIKEY>
CKVNYTRYOFXVGM-HYXAFXHYSA-N

>  <PUBCHEM_XLOGP3_AA>
3

>  <PUBCHEM_EXACT_MASS>
180.01

>  <PUBCHEM_MOLECULAR_FORMULA>
C6H12S3

>  <PUBCHEM_MOLECULAR_WEIGHT>
180.342

>  <PUBCHEM_OPENEYE_CAN_SMILES>
CCCSSSC=CC

>  <PUBCHEM_OPENEYE_ISO_SMILES>
CCCSSS/C=C\C

>  <PUBCHEM_CACTVS_TPSA>
75.9

>  <PUBCHEM_MONOISOTOPIC_WEIGHT>
180.01

>  <PUBCHEM_TOTAL_CHARGE>
0

>  <PUBCHEM_HEAVY_ATOM_COUNT>
9

>  <PUBCHEM_ATOM_DEF_STEREO_COUNT>
0

>  <PUBCHEM_ATOM_UDEF_STEREO_COUNT>
0

>  <PUBCHEM_BOND_DEF_STEREO_COUNT>
1

>  <PUBCHEM_BOND_UDEF_STEREO_COUNT>
0

>  <PUBCHEM_ISOTOPIC_ATOM_COUNT>
0

>  <PUBCHEM_COMPONENT_COUNT>
1

>  <PUBCHEM_CACTVS_TAUTO_COUNT>
1

>  <PUBCHEM_COORDINATE_TYPE>
1
5
255

$$$$
