535224
 OpenBabel06101807152D

 30 31  0  0  1  0  0  0  0  0999 V2000
    7.0278   -2.1590    0.0000 O   0  0  0  0  0  0  0  0  0  0  0  0
    2.5079   -0.0138    0.0000 O   0  0  0  0  0  0  0  0  0  0  0  0
    5.1289   -0.7841    0.0000 C   0  0  3  0  0  0  0  0  0  0  0  0
    4.6511    1.1644    0.0000 C   0  0  0  0  0  0  0  0  0  0  0  0
    5.3877    0.1818    0.0000 C   0  0  3  0  0  0  0  0  0  0  0  0
    6.5278   -1.2929    0.0000 C   0  0  3  0  0  0  0  0  0  0  0  0
    3.7562   -1.3761    0.0000 C   0  0  0  0  0  0  0  0  0  0  0  0
    3.4142   -0.4364    0.0000 C   0  0  3  0  0  0  0  0  0  0  0  0
    6.7867   -0.3270    0.0000 C   0  0  0  0  0  0  0  0  0  0  0  0
    4.8701   -1.7500    0.0000 C   0  0  0  0  0  0  0  0  0  0  0  0
    4.7556    2.1590    0.0000 C   0  0  0  0  0  0  0  0  0  0  0  0
    3.7376    1.5712    0.0000 C   0  0  0  0  0  0  0  0  0  0  0  0
    5.3685   -0.6680    0.0000 H   0  0  0  0  0  0  0  0  0  0  0  0
    5.9816   -1.9441    0.0000 H   0  0  0  0  0  0  0  0  0  0  0  0
    3.1778   -1.5994    0.0000 H   0  0  0  0  0  0  0  0  0  0  0  0
    3.9907   -1.9501    0.0000 H   0  0  0  0  0  0  0  0  0  0  0  0
    3.4706    0.4117    0.0000 H   0  0  0  0  0  0  0  0  0  0  0  0
    7.3806   -0.5048    0.0000 H   0  0  0  0  0  0  0  0  0  0  0  0
    6.9816    0.2616    0.0000 H   0  0  0  0  0  0  0  0  0  0  0  0
    4.2712   -1.5896    0.0000 H   0  0  0  0  0  0  0  0  0  0  0  0
    4.7096   -2.3489    0.0000 H   0  0  0  0  0  0  0  0  0  0  0  0
    5.4690   -1.9105    0.0000 H   0  0  0  0  0  0  0  0  0  0  0  0
    3.9897    2.1376    0.0000 H   0  0  0  0  0  0  0  0  0  0  0  0
    3.1712    1.8233    0.0000 H   0  0  0  0  0  0  0  0  0  0  0  0
    3.4854    1.0048    0.0000 H   0  0  0  0  0  0  0  0  0  0  0  0
    5.3722    2.0942    0.0000 H   0  0  0  0  0  0  0  0  0  0  0  0
    4.8204    2.7756    0.0000 H   0  0  0  0  0  0  0  0  0  0  0  0
    4.1390    2.2238    0.0000 H   0  0  0  0  0  0  0  0  0  0  0  0
    7.6478   -2.1590    0.0000 H   0  0  0  0  0  0  0  0  0  0  0  0
    2.0000   -0.3694    0.0000 H   0  0  0  0  0  0  0  0  0  0  0  0
  1  6  1  0  0  0  0
  1 29  1  0  0  0  0
  2  8  1  0  0  0  0
  2 30  1  0  0  0  0
  3  4  1  0  0  0  0
  3  6  1  0  0  0  0
  3  7  1  0  0  0  0
  3 10  1  0  0  0  0
  4  5  1  0  0  0  0
  4 11  1  0  0  0  0
  4 12  1  0  0  0  0
  5  8  1  0  0  0  0
  5  9  1  0  0  0  0
  5 13  1  0  0  0  0
  6  9  1  0  0  0  0
  6 14  1  0  0  0  0
  7  8  1  0  0  0  0
  7 15  1  0  0  0  0
  7 16  1  0  0  0  0
  8 17  1  0  0  0  0
  9 18  1  0  0  0  0
  9 19  1  0  0  0  0
 10 20  1  0  0  0  0
 10 21  1  0  0  0  0
 10 22  1  0  0  0  0
 11 26  1  0  0  0  0
 11 27  1  0  0  0  0
 11 28  1  0  0  0  0
 12 23  1  0  0  0  0
 12 24  1  0  0  0  0
 12 25  1  0  0  0  0
M  END
>  <PUBCHEM_COMPOUND_CID>
535224

>  <PUBCHEM_COMPOUND_CANONICALIZED>
1

>  <PUBCHEM_CACTVS_COMPLEXITY>
212

>  <PUBCHEM_CACTVS_HBOND_ACCEPTOR>
2

>  <PUBCHEM_CACTVS_HBOND_DONOR>
2

>  <PUBCHEM_CACTVS_ROTATABLE_BOND>
0

>  <PUBCHEM_CACTVS_SUBSKEYS>
AAADceBwMAAAAAAAAAAAAAAAAAAAAYMAAAAwAAAAAAAAAAAAAAAAGgAACAAADxSggAICAAAAAgAAAAAAAAAAAAAAAAAAAAAAAAAAEAIAAAAAQAAEAAAAAAHA4PQPgAAAAAAAAACCAAIAABAAAYAADAAAAA==

>  <PUBCHEM_IUPAC_OPENEYE_NAME>
1,7,7-trimethylnorbornane-2,5-diol

>  <PUBCHEM_IUPAC_CAS_NAME>
4,7,7-trimethylbicyclo[2.2.1]heptane-2,5-diol

>  <PUBCHEM_IUPAC_NAME>
4,7,7-trimethylbicyclo[2.2.1]heptane-2,5-diol

>  <PUBCHEM_IUPAC_SYSTEMATIC_NAME>
4,7,7-trimethylbicyclo[2.2.1]heptane-2,5-diol

>  <PUBCHEM_IUPAC_TRADITIONAL_NAME>
1,7,7-trimethylnorbornane-2,5-diol

>  <PUBCHEM_IUPAC_INCHI>
InChI=1S/C10H18O2/c1-9(2)6-4-8(12)10(9,3)5-7(6)11/h6-8,11-12H,4-5H2,1-3H3

>  <PUBCHEM_IUPAC_INCHIKEY>
HLVIHBJQDKVEAL-UHFFFAOYSA-N

>  <PUBCHEM_XLOGP3_AA>
1.4

>  <PUBCHEM_EXACT_MASS>
170.131

>  <PUBCHEM_MOLECULAR_FORMULA>
C10H18O2

>  <PUBCHEM_MOLECULAR_WEIGHT>
170.252

>  <PUBCHEM_OPENEYE_CAN_SMILES>
CC1(C2CC(C1(CC2O)C)O)C

>  <PUBCHEM_OPENEYE_ISO_SMILES>
CC1(C2CC(C1(CC2O)C)O)C

>  <PUBCHEM_CACTVS_TPSA>
40.5

>  <PUBCHEM_MONOISOTOPIC_WEIGHT>
170.131

>  <PUBCHEM_TOTAL_CHARGE>
0

>  <PUBCHEM_HEAVY_ATOM_COUNT>
12

>  <PUBCHEM_ATOM_DEF_STEREO_COUNT>
0

>  <PUBCHEM_ATOM_UDEF_STEREO_COUNT>
4

>  <PUBCHEM_BOND_DEF_STEREO_COUNT>
0

>  <PUBCHEM_BOND_UDEF_STEREO_COUNT>
0

>  <PUBCHEM_ISOTOPIC_ATOM_COUNT>
0

>  <PUBCHEM_COMPONENT_COUNT>
1

>  <PUBCHEM_CACTVS_TAUTO_COUNT>
1

>  <PUBCHEM_COORDINATE_TYPE>
1
5
255

>  <PUBCHEM_BONDANNOTATIONS>
3  10  3
5  13  3
6  14  3
8  17  3

$$$$
