5352000
 OpenBabel06101807152D

 53 56  0  0  1  0  0  0  0  0999 V2000
    4.2690   -1.2857    0.0000 O   0  0  0  0  0  0  0  0  0  0  0  0
    6.0010   -1.2857    0.0000 O   0  0  0  0  0  0  0  0  0  0  0  0
    4.2690   -4.2857    0.0000 O   0  0  0  0  0  0  0  0  0  0  0  0
    2.5369   -3.2857    0.0000 O   0  0  0  0  0  0  0  0  0  0  0  0
    6.0010   -3.2857    0.0000 O   0  0  0  0  0  0  0  0  0  0  0  0
    6.8671    1.2143    0.0000 O   0  0  0  0  0  0  0  0  0  0  0  0
    4.2690   -0.2857    0.0000 O   0  0  0  0  0  0  0  0  0  0  0  0
    3.3648    1.2112    0.0000 O   0  0  0  0  0  0  0  0  0  0  0  0
    5.1229    4.2836    0.0000 O   0  0  0  0  0  0  0  0  0  0  0  0
    8.5991   -2.7857    0.0000 O   0  0  0  0  0  0  0  0  0  0  0  0
   10.3312    0.2143    0.0000 O   0  0  0  0  0  0  0  0  0  0  0  0
   10.3312   -1.7857    0.0000 O   0  0  0  0  0  0  0  0  0  0  0  0
    4.2690   -3.2857    0.0000 C   0  0  3  0  0  0  0  0  0  0  0  0
    3.4030   -2.7857    0.0000 C   0  0  3  0  0  0  0  0  0  0  0  0
    5.1350   -2.7857    0.0000 C   0  0  3  0  0  0  0  0  0  0  0  0
    3.4030   -1.7857    0.0000 C   0  0  3  0  0  0  0  0  0  0  0  0
    5.1350   -1.7857    0.0000 C   0  0  3  0  0  0  0  0  0  0  0  0
    2.5369   -1.2857    0.0000 C   0  0  0  0  0  0  0  0  0  0  0  0
    6.0010   -0.2857    0.0000 C   0  0  0  0  0  0  0  0  0  0  0  0
    6.8671    0.2143    0.0000 C   0  0  0  0  0  0  0  0  0  0  0  0
    5.1350    0.2143    0.0000 C   0  0  0  0  0  0  0  0  0  0  0  0
    5.1350    1.2143    0.0000 C   0  0  0  0  0  0  0  0  0  0  0  0
    6.0010    1.7143    0.0000 C   0  0  0  0  0  0  0  0  0  0  0  0
    7.7331   -0.2857    0.0000 C   0  0  0  0  0  0  0  0  0  0  0  0
    4.2250    1.7212    0.0000 C   0  0  0  0  0  0  0  0  0  0  0  0
    6.0171    2.7558    0.0000 C   0  0  0  0  0  0  0  0  0  0  0  0
    8.5991    0.2143    0.0000 C   0  0  0  0  0  0  0  0  0  0  0  0
    7.7331   -1.2857    0.0000 C   0  0  0  0  0  0  0  0  0  0  0  0
    4.2170    2.7628    0.0000 C   0  0  0  0  0  0  0  0  0  0  0  0
    5.1191    3.2836    0.0000 C   0  0  0  0  0  0  0  0  0  0  0  0
    8.5991   -1.7857    0.0000 C   0  0  0  0  0  0  0  0  0  0  0  0
    9.4651   -0.2857    0.0000 C   0  0  0  0  0  0  0  0  0  0  0  0
    9.4651   -1.2857    0.0000 C   0  0  0  0  0  0  0  0  0  0  0  0
    4.8059   -3.5957    0.0000 H   0  0  0  0  0  0  0  0  0  0  0  0
    3.4030   -3.4057    0.0000 H   0  0  0  0  0  0  0  0  0  0  0  0
    5.6720   -2.4757    0.0000 H   0  0  0  0  0  0  0  0  0  0  0  0
    3.4030   -1.1657    0.0000 H   0  0  0  0  0  0  0  0  0  0  0  0
    5.1350   -1.1657    0.0000 H   0  0  0  0  0  0  0  0  0  0  0  0
    2.8469   -0.7487    0.0000 H   0  0  0  0  0  0  0  0  0  0  0  0
    2.0000   -0.9757    0.0000 H   0  0  0  0  0  0  0  0  0  0  0  0
    2.2269   -1.8226    0.0000 H   0  0  0  0  0  0  0  0  0  0  0  0
    3.7320   -4.5957    0.0000 H   0  0  0  0  0  0  0  0  0  0  0  0
    2.0000   -2.9757    0.0000 H   0  0  0  0  0  0  0  0  0  0  0  0
    6.0010   -3.9057    0.0000 H   0  0  0  0  0  0  0  0  0  0  0  0
    6.5576    3.0596    0.0000 H   0  0  0  0  0  0  0  0  0  0  0  0
    8.5991    0.8343    0.0000 H   0  0  0  0  0  0  0  0  0  0  0  0
    7.1962   -1.5957    0.0000 H   0  0  0  0  0  0  0  0  0  0  0  0
    3.6788    3.0707    0.0000 H   0  0  0  0  0  0  0  0  0  0  0  0
    2.8243    1.5150    0.0000 H   0  0  0  0  0  0  0  0  0  0  0  0
    4.5872    4.5957    0.0000 H   0  0  0  0  0  0  0  0  0  0  0  0
    8.0622   -3.0957    0.0000 H   0  0  0  0  0  0  0  0  0  0  0  0
   10.3312    0.8343    0.0000 H   0  0  0  0  0  0  0  0  0  0  0  0
   10.8681   -1.4757    0.0000 H   0  0  0  0  0  0  0  0  0  0  0  0
  1 16  1  0  0  0  0
  1 17  1  0  0  0  0
  2 17  1  0  0  0  0
  2 19  1  0  0  0  0
  3 13  1  0  0  0  0
  3 42  1  0  0  0  0
  4 14  1  0  0  0  0
  4 43  1  0  0  0  0
  5 15  1  0  0  0  0
  5 44  1  0  0  0  0
  6 20  1  0  0  0  0
  6 23  1  0  0  0  0
  7 21  2  0  0  0  0
  8 25  1  0  0  0  0
  8 49  1  0  0  0  0
  9 30  1  0  0  0  0
  9 50  1  0  0  0  0
 10 31  1  0  0  0  0
 10 51  1  0  0  0  0
 11 32  1  0  0  0  0
 11 52  1  0  0  0  0
 12 33  1  0  0  0  0
 12 53  1  0  0  0  0
 13 14  1  0  0  0  0
 13 15  1  0  0  0  0
 13 34  1  0  0  0  0
 14 16  1  0  0  0  0
 14 35  1  0  0  0  0
 15 17  1  0  0  0  0
 15 36  1  0  0  0  0
 16 18  1  0  0  0  0
 16 37  1  0  0  0  0
 17 38  1  0  0  0  0
 18 39  1  0  0  0  0
 18 40  1  0  0  0  0
 18 41  1  0  0  0  0
 19 20  2  0  0  0  0
 19 21  1  0  0  0  0
 20 24  1  0  0  0  0
 21 22  1  0  0  0  0
 22 23  1  0  0  0  0
 22 25  2  0  0  0  0
 23 26  2  0  0  0  0
 24 27  2  0  0  0  0
 24 28  1  0  0  0  0
 25 29  1  0  0  0  0
 26 30  1  0  0  0  0
 26 45  1  0  0  0  0
 27 32  1  0  0  0  0
 27 46  1  0  0  0  0
 28 31  2  0  0  0  0
 28 47  1  0  0  0  0
 29 30  2  0  0  0  0
 29 48  1  0  0  0  0
 31 33  1  0  0  0  0
 32 33  2  0  0  0  0
M  END
>  <PUBCHEM_COMPOUND_CID>
5352000

>  <PUBCHEM_COMPOUND_CANONICALIZED>
1

>  <PUBCHEM_CACTVS_COMPLEXITY>
760

>  <PUBCHEM_CACTVS_HBOND_ACCEPTOR>
12

>  <PUBCHEM_CACTVS_HBOND_DONOR>
8

>  <PUBCHEM_CACTVS_ROTATABLE_BOND>
3

>  <PUBCHEM_CACTVS_SUBSKEYS>
AAADceB4PAAAAAAAAAAAAAAAAAAAAAAAAAA0YIEAAAAAAACBQAAAGgAACAAADBSwmAMyDoAABgCIAqBSAAICCAAkIAAAiAFGiMgdNzaGNR6ieWGl4BUPuQfI7LzOIAABCAAIQABAAAIQABCAAAAAAAAAAA==

>  <PUBCHEM_IUPAC_OPENEYE_NAME>
5,7-dihydroxy-3-(3,4,5-trihydroxy-6-methyl-tetrahydropyran-2-yl)oxy-2-(3,4,5-trihydroxyphenyl)chromen-4-one

>  <PUBCHEM_IUPAC_CAS_NAME>
5,7-dihydroxy-3-[(3,4,5-trihydroxy-6-methyl-2-oxanyl)oxy]-2-(3,4,5-trihydroxyphenyl)-1-benzopyran-4-one

>  <PUBCHEM_IUPAC_NAME>
5,7-dihydroxy-3-(3,4,5-trihydroxy-6-methyloxan-2-yl)oxy-2-(3,4,5-trihydroxyphenyl)chromen-4-one

>  <PUBCHEM_IUPAC_SYSTEMATIC_NAME>
3-[6-methyl-3,4,5-tris(oxidanyl)oxan-2-yl]oxy-5,7-bis(oxidanyl)-2-[3,4,5-tris(oxidanyl)phenyl]chromen-4-one

>  <PUBCHEM_IUPAC_TRADITIONAL_NAME>
5,7-dihydroxy-3-(3,4,5-trihydroxy-6-methyl-tetrahydropyran-2-yl)oxy-2-(3,4,5-trihydroxyphenyl)chromone

>  <PUBCHEM_IUPAC_INCHI>
InChI=1S/C21H20O12/c1-6-14(26)17(29)18(30)21(31-6)33-20-16(28)13-9(23)4-8(22)5-12(13)32-19(20)7-2-10(24)15(27)11(25)3-7/h2-6,14,17-18,21-27,29-30H,1H3

>  <PUBCHEM_IUPAC_INCHIKEY>
DCYOADKBABEMIQ-UHFFFAOYSA-N

>  <PUBCHEM_XLOGP3_AA>
0.5

>  <PUBCHEM_EXACT_MASS>
464.095

>  <PUBCHEM_MOLECULAR_FORMULA>
C21H20O12

>  <PUBCHEM_MOLECULAR_WEIGHT>
464.379

>  <PUBCHEM_OPENEYE_CAN_SMILES>
CC1C(C(C(C(O1)OC2=C(OC3=CC(=CC(=C3C2=O)O)O)C4=CC(=C(C(=C4)O)O)O)O)O)O

>  <PUBCHEM_OPENEYE_ISO_SMILES>
CC1C(C(C(C(O1)OC2=C(OC3=CC(=CC(=C3C2=O)O)O)C4=CC(=C(C(=C4)O)O)O)O)O)O

>  <PUBCHEM_CACTVS_TPSA>
207

>  <PUBCHEM_MONOISOTOPIC_WEIGHT>
464.095

>  <PUBCHEM_TOTAL_CHARGE>
0

>  <PUBCHEM_HEAVY_ATOM_COUNT>
33

>  <PUBCHEM_ATOM_DEF_STEREO_COUNT>
0

>  <PUBCHEM_ATOM_UDEF_STEREO_COUNT>
5

>  <PUBCHEM_BOND_DEF_STEREO_COUNT>
0

>  <PUBCHEM_BOND_UDEF_STEREO_COUNT>
0

>  <PUBCHEM_ISOTOPIC_ATOM_COUNT>
0

>  <PUBCHEM_COMPONENT_COUNT>
1

>  <PUBCHEM_CACTVS_TAUTO_COUNT>
195

>  <PUBCHEM_COORDINATE_TYPE>
1
5
255

>  <PUBCHEM_BONDANNOTATIONS>
16  18  3
19  20  8
19  21  8
17  2  3
21  22  8
22  23  8
22  25  8
23  26  8
24  27  8
24  28  8
25  29  8
26  30  8
27  32  8
28  31  8
29  30  8
13  3  3
31  33  8
32  33  8
14  4  3
15  5  3
6  20  8
6  23  8

$$$$
