5352689
 OpenBabel06101807152D

 16 15  0  0  0  0  0  0  0  0999 V2000
    4.5981   -0.2500    0.0000 S   0  0  0  0  0  0  0  0  0  0  0  0
    7.1962    0.2500    0.0000 S   0  0  0  0  0  0  0  0  0  0  0  0
    5.4641    0.2500    0.0000 S   0  0  0  0  0  0  0  0  0  0  0  0
    6.3301   -0.2500    0.0000 S   0  0  0  0  0  0  0  0  0  0  0  0
    2.8660   -0.2500    0.0000 C   0  0  0  0  0  0  0  0  0  0  0  0
    2.0000    0.2500    0.0000 C   0  0  0  0  0  0  0  0  0  0  0  0
    3.7320    0.2500    0.0000 C   0  0  0  0  0  0  0  0  0  0  0  0
    8.0622   -0.2500    0.0000 C   0  0  0  0  0  0  0  0  0  0  0  0
    2.8660   -0.8700    0.0000 H   0  0  0  0  0  0  0  0  0  0  0  0
    2.3100    0.7869    0.0000 H   0  0  0  0  0  0  0  0  0  0  0  0
    1.4631    0.5600    0.0000 H   0  0  0  0  0  0  0  0  0  0  0  0
    1.6900   -0.2869    0.0000 H   0  0  0  0  0  0  0  0  0  0  0  0
    3.7320    0.8700    0.0000 H   0  0  0  0  0  0  0  0  0  0  0  0
    7.7522   -0.7869    0.0000 H   0  0  0  0  0  0  0  0  0  0  0  0
    8.5991   -0.5600    0.0000 H   0  0  0  0  0  0  0  0  0  0  0  0
    8.3722    0.2869    0.0000 H   0  0  0  0  0  0  0  0  0  0  0  0
  1  3  1  0  0  0  0
  1  7  1  0  0  0  0
  2  4  1  0  0  0  0
  2  8  1  0  0  0  0
  3  4  1  0  0  0  0
  5  6  1  0  0  0  0
  5  7  2  0  0  0  0
  5  9  1  0  0  0  0
  6 10  1  0  0  0  0
  6 11  1  0  0  0  0
  6 12  1  0  0  0  0
  7 13  1  0  0  0  0
  8 14  1  0  0  0  0
  8 15  1  0  0  0  0
  8 16  1  0  0  0  0
M  END
>  <PUBCHEM_COMPOUND_CID>
5352689

>  <PUBCHEM_COMPOUND_CANONICALIZED>
1

>  <PUBCHEM_CACTVS_COMPLEXITY>
61.1

>  <PUBCHEM_CACTVS_HBOND_ACCEPTOR>
4

>  <PUBCHEM_CACTVS_HBOND_DONOR>
0

>  <PUBCHEM_CACTVS_ROTATABLE_BOND>
4

>  <PUBCHEM_CACTVS_SUBSKEYS>
AAADccBgAABwAAAAAAAAAAAAAAAAAAAAAAAAAAAAAAAAAAAAAAAAGAQAAAAACACEQACCAAAAAACAACBCAAAAAAAAAAAIAAAAAAAAAAAAAQAAAAAAAAAAAAAAAAAAAAAAAAAAAAAAAAAAAAAAAAAAAAAAAA==

>  <PUBCHEM_IUPAC_OPENEYE_NAME>
(E)-1-(methyltetrasulfanyl)prop-1-ene

>  <PUBCHEM_IUPAC_CAS_NAME>
(E)-1-(methyltetrasulfanyl)-1-propene

>  <PUBCHEM_IUPAC_NAME>
(E)-1-(methyltetrasulfanyl)prop-1-ene

>  <PUBCHEM_IUPAC_SYSTEMATIC_NAME>
(E)-1-(methyltetrasulfanyl)prop-1-ene

>  <PUBCHEM_IUPAC_TRADITIONAL_NAME>
(E)-1-(methyltetrasulfanyl)prop-1-ene

>  <PUBCHEM_IUPAC_INCHI>
InChI=1S/C4H8S4/c1-3-4-6-8-7-5-2/h3-4H,1-2H3/b4-3+

>  <PUBCHEM_IUPAC_INCHIKEY>
JVAMVFJAZPOUHO-ONEGZZNKSA-N

>  <PUBCHEM_XLOGP3_AA>
2.5

>  <PUBCHEM_EXACT_MASS>
183.951

>  <PUBCHEM_MOLECULAR_FORMULA>
C4H8S4

>  <PUBCHEM_MOLECULAR_WEIGHT>
184.348

>  <PUBCHEM_OPENEYE_CAN_SMILES>
CC=CSSSSC

>  <PUBCHEM_OPENEYE_ISO_SMILES>
C/C=C/SSSSC

>  <PUBCHEM_CACTVS_TPSA>
101

>  <PUBCHEM_MONOISOTOPIC_WEIGHT>
183.951

>  <PUBCHEM_TOTAL_CHARGE>
0

>  <PUBCHEM_HEAVY_ATOM_COUNT>
8

>  <PUBCHEM_ATOM_DEF_STEREO_COUNT>
0

>  <PUBCHEM_ATOM_UDEF_STEREO_COUNT>
0

>  <PUBCHEM_BOND_DEF_STEREO_COUNT>
1

>  <PUBCHEM_BOND_UDEF_STEREO_COUNT>
0

>  <PUBCHEM_ISOTOPIC_ATOM_COUNT>
0

>  <PUBCHEM_COMPONENT_COUNT>
1

>  <PUBCHEM_CACTVS_TAUTO_COUNT>
1

>  <PUBCHEM_COORDINATE_TYPE>
1
5
255

$$$$
