5353737
 OpenBabel06101807152D

 53 55  0  0  0  0  0  0  0  0999 V2000
    5.5301   -0.1419    0.0000 O   0  0  0  0  0  0  0  0  0  0  0  0
    9.0602   -0.1661    0.0000 O   0  0  0  0  0  0  0  0  0  0  0  0
    7.2785    2.8927    0.0000 O   0  0  0  0  0  0  0  0  0  0  0  0
    5.5301    2.8581    0.0000 O   0  0  0  0  0  0  0  0  0  0  0  0
    2.0000    1.8822    0.0000 O   0  0  0  0  0  0  0  0  0  0  0  0
    2.0000   -0.1661    0.0000 O   0  0  0  0  0  0  0  0  0  0  0  0
    9.0602    1.8822    0.0000 C   0  0  0  0  0  0  0  0  0  0  0  0
    8.1962    1.3789    0.0000 C   0  0  0  0  0  0  0  0  0  0  0  0
    7.2901   -0.1766    0.0000 C   0  0  0  0  0  0  0  0  0  0  0  0
    8.1962    0.3372    0.0000 C   0  0  0  0  0  0  0  0  0  0  0  0
    7.2901    1.8927    0.0000 C   0  0  0  0  0  0  0  0  0  0  0  0
    6.3961    1.3581    0.0000 C   0  0  0  0  0  0  0  0  0  0  0  0
    6.3961    0.3581    0.0000 C   0  0  0  0  0  0  0  0  0  0  0  0
    9.5636    1.0181    0.0000 C   0  0  0  0  0  0  0  0  0  0  0  0
    8.5569    2.7463    0.0000 C   0  0  0  0  0  0  0  0  0  0  0  0
    9.9243    2.3856    0.0000 C   0  0  0  0  0  0  0  0  0  0  0  0
    7.2785   -1.1765    0.0000 C   0  0  0  0  0  0  0  0  0  0  0  0
    5.5301    1.8581    0.0000 C   0  0  0  0  0  0  0  0  0  0  0  0
    4.6641    1.3581    0.0000 C   0  0  0  0  0  0  0  0  0  0  0  0
    4.6641    0.3581    0.0000 C   0  0  0  0  0  0  0  0  0  0  0  0
    8.1387   -1.6865    0.0000 C   0  0  0  0  0  0  0  0  0  0  0  0
    3.7702    1.8927    0.0000 C   0  0  0  0  0  0  0  0  0  0  0  0
    3.7702   -0.1766    0.0000 C   0  0  0  0  0  0  0  0  0  0  0  0
   10.7923    1.8889    0.0000 C   0  0  0  0  0  0  0  0  0  0  0  0
    8.1272   -2.6864    0.0000 C   0  0  0  0  0  0  0  0  0  0  0  0
    2.8641    1.3789    0.0000 C   0  0  0  0  0  0  0  0  0  0  0  0
    2.8641    0.3372    0.0000 C   0  0  0  0  0  0  0  0  0  0  0  0
    8.9873   -3.1964    0.0000 C   0  0  0  0  0  0  0  0  0  0  0  0
    7.2554   -3.1764    0.0000 C   0  0  0  0  0  0  0  0  0  0  0  0
    9.0279    0.7061    0.0000 H   0  0  0  0  0  0  0  0  0  0  0  0
    9.8756    0.4824    0.0000 H   0  0  0  0  0  0  0  0  0  0  0  0
   10.0993    1.3302    0.0000 H   0  0  0  0  0  0  0  0  0  0  0  0
    9.0927    3.0584    0.0000 H   0  0  0  0  0  0  0  0  0  0  0  0
    8.2448    3.2820    0.0000 H   0  0  0  0  0  0  0  0  0  0  0  0
    8.0212    2.4342    0.0000 H   0  0  0  0  0  0  0  0  0  0  0  0
    9.9220    3.0055    0.0000 H   0  0  0  0  0  0  0  0  0  0  0  0
    6.6692   -1.0618    0.0000 H   0  0  0  0  0  0  0  0  0  0  0  0
    7.0598   -1.7566    0.0000 H   0  0  0  0  0  0  0  0  0  0  0  0
    8.6792   -1.3827    0.0000 H   0  0  0  0  0  0  0  0  0  0  0  0
    9.0579   -0.7861    0.0000 H   0  0  0  0  0  0  0  0  0  0  0  0
    6.7380    3.1964    0.0000 H   0  0  0  0  0  0  0  0  0  0  0  0
    3.7773    2.5127    0.0000 H   0  0  0  0  0  0  0  0  0  0  0  0
    3.7773   -0.7966    0.0000 H   0  0  0  0  0  0  0  0  0  0  0  0
   10.7947    1.2689    0.0000 H   0  0  0  0  0  0  0  0  0  0  0  0
   11.3280    2.2010    0.0000 H   0  0  0  0  0  0  0  0  0  0  0  0
    8.6712   -3.7297    0.0000 H   0  0  0  0  0  0  0  0  0  0  0  0
    9.5206   -3.5126    0.0000 H   0  0  0  0  0  0  0  0  0  0  0  0
    6.9516   -2.6359    0.0000 H   0  0  0  0  0  0  0  0  0  0  0  0
    6.7149   -3.4802    0.0000 H   0  0  0  0  0  0  0  0  0  0  0  0
    7.5592   -3.7169    0.0000 H   0  0  0  0  0  0  0  0  0  0  0  0
    9.3035   -2.6631    0.0000 H   0  0  0  0  0  0  0  0  0  0  0  0
    2.0024    2.5022    0.0000 H   0  0  0  0  0  0  0  0  0  0  0  0
    2.0024   -0.7861    0.0000 H   0  0  0  0  0  0  0  0  0  0  0  0
  1 13  1  0  0  0  0
  1 20  1  0  0  0  0
  2 10  1  0  0  0  0
  2 40  1  0  0  0  0
  3 11  1  0  0  0  0
  3 41  1  0  0  0  0
  4 18  2  0  0  0  0
  5 26  1  0  0  0  0
  5 52  1  0  0  0  0
  6 27  1  0  0  0  0
  6 53  1  0  0  0  0
  7  8  1  0  0  0  0
  7 14  1  0  0  0  0
  7 15  1  0  0  0  0
  7 16  1  0  0  0  0
  8 10  1  0  0  0  0
  8 11  2  0  0  0  0
  9 10  2  0  0  0  0
  9 13  1  0  0  0  0
  9 17  1  0  0  0  0
 11 12  1  0  0  0  0
 12 13  2  0  0  0  0
 12 18  1  0  0  0  0
 14 30  1  0  0  0  0
 14 31  1  0  0  0  0
 14 32  1  0  0  0  0
 15 33  1  0  0  0  0
 15 34  1  0  0  0  0
 15 35  1  0  0  0  0
 16 24  2  0  0  0  0
 16 36  1  0  0  0  0
 17 21  1  0  0  0  0
 17 37  1  0  0  0  0
 17 38  1  0  0  0  0
 18 19  1  0  0  0  0
 19 20  1  0  0  0  0
 19 22  2  0  0  0  0
 20 23  2  0  0  0  0
 21 25  2  0  0  0  0
 21 39  1  0  0  0  0
 22 26  1  0  0  0  0
 22 42  1  0  0  0  0
 23 27  1  0  0  0  0
 23 43  1  0  0  0  0
 24 44  1  0  0  0  0
 24 45  1  0  0  0  0
 25 28  1  0  0  0  0
 25 29  1  0  0  0  0
 26 27  2  0  0  0  0
 28 46  1  0  0  0  0
 28 47  1  0  0  0  0
 28 51  1  0  0  0  0
 29 48  1  0  0  0  0
 29 49  1  0  0  0  0
 29 50  1  0  0  0  0
M  END
>  <PUBCHEM_COMPOUND_CID>
5353737

>  <PUBCHEM_COMPOUND_CANONICALIZED>
1

>  <PUBCHEM_CACTVS_COMPLEXITY>
666

>  <PUBCHEM_CACTVS_HBOND_ACCEPTOR>
6

>  <PUBCHEM_CACTVS_HBOND_DONOR>
4

>  <PUBCHEM_CACTVS_ROTATABLE_BOND>
4

>  <PUBCHEM_CACTVS_SUBSKEYS>
AAADceB4OAAAAAAAAAAAAAAAAAAAAAAAAAA0YIAAAAAAAACRQAAAGgAACAAADgSAmAAyBoAABgCIAqBSAAACCAAkIAAIiAEGiMgNJzaGNRqCeWGl4BUJuYfK7PzPoQADCAAIQABCAAYQABCAAAAAAAAAAA==

>  <PUBCHEM_IUPAC_OPENEYE_NAME>
2-(1,1-dimethylallyl)-1,3,6,7-tetrahydroxy-4-(3-methylbut-2-enyl)xanthen-9-one

>  <PUBCHEM_IUPAC_CAS_NAME>
1,3,6,7-tetrahydroxy-2-(2-methylbut-3-en-2-yl)-4-(3-methylbut-2-enyl)-9-xanthenone

>  <PUBCHEM_IUPAC_NAME>
1,3,6,7-tetrahydroxy-2-(2-methylbut-3-en-2-yl)-4-(3-methylbut-2-enyl)xanthen-9-one

>  <PUBCHEM_IUPAC_SYSTEMATIC_NAME>
2-(2-methylbut-3-en-2-yl)-4-(3-methylbut-2-enyl)-1,3,6,7-tetrakis(oxidanyl)xanthen-9-one

>  <PUBCHEM_IUPAC_TRADITIONAL_NAME>
2-(1,1-dimethylallyl)-1,3,6,7-tetrahydroxy-4-(3-methylbut-2-enyl)xanthone

>  <PUBCHEM_IUPAC_INCHI>
InChI=1S/C23H24O6/c1-6-23(4,5)18-20(27)12(8-7-11(2)3)22-17(21(18)28)19(26)13-9-14(24)15(25)10-16(13)29-22/h6-7,9-10,24-25,27-28H,1,8H2,2-5H3

>  <PUBCHEM_IUPAC_INCHIKEY>
QFYDCUMYVXSZFJ-UHFFFAOYSA-N

>  <PUBCHEM_XLOGP3_AA>
6

>  <PUBCHEM_EXACT_MASS>
396.157

>  <PUBCHEM_MOLECULAR_FORMULA>
C23H24O6

>  <PUBCHEM_MOLECULAR_WEIGHT>
396.439

>  <PUBCHEM_OPENEYE_CAN_SMILES>
CC(=CCC1=C(C(=C(C2=C1OC3=CC(=C(C=C3C2=O)O)O)O)C(C)(C)C=C)O)C

>  <PUBCHEM_OPENEYE_ISO_SMILES>
CC(=CCC1=C(C(=C(C2=C1OC3=CC(=C(C=C3C2=O)O)O)O)C(C)(C)C=C)O)C

>  <PUBCHEM_CACTVS_TPSA>
107

>  <PUBCHEM_MONOISOTOPIC_WEIGHT>
396.157

>  <PUBCHEM_TOTAL_CHARGE>
0

>  <PUBCHEM_HEAVY_ATOM_COUNT>
29

>  <PUBCHEM_ATOM_DEF_STEREO_COUNT>
0

>  <PUBCHEM_ATOM_UDEF_STEREO_COUNT>
0

>  <PUBCHEM_BOND_DEF_STEREO_COUNT>
0

>  <PUBCHEM_BOND_UDEF_STEREO_COUNT>
0

>  <PUBCHEM_ISOTOPIC_ATOM_COUNT>
0

>  <PUBCHEM_COMPONENT_COUNT>
1

>  <PUBCHEM_CACTVS_TAUTO_COUNT>
114

>  <PUBCHEM_COORDINATE_TYPE>
1
5
255

>  <PUBCHEM_BONDANNOTATIONS>
1  13  8
1  20  8
11  12  8
12  13  8
12  18  8
18  19  8
19  20  8
19  22  8
20  23  8
22  26  8
23  27  8
26  27  8
8  10  8
8  11  8
9  10  8
9  13  8

$$$$
