5353283
 OpenBabel06101807152D

 55 54  0  0  1  0  0  0  0  0999 V2000
    6.3301   -0.9050    0.0000 O   0  0  0  0  0  0  0  0  0  0  0  0
   19.3205    0.5950    0.0000 O   0  0  0  0  0  0  0  0  0  0  0  0
   18.4545   -0.9050    0.0000 O   0  0  0  0  0  0  0  0  0  0  0  0
    4.5981    0.0950    0.0000 C   0  0  0  0  0  0  0  0  0  0  0  0
    5.4641    0.5950    0.0000 C   0  0  0  0  0  0  0  0  0  0  0  0
    3.7320    0.5950    0.0000 C   0  0  0  0  0  0  0  0  0  0  0  0
    6.3301    0.0950    0.0000 C   0  0  3  0  0  0  0  0  0  0  0  0
    2.8660    0.0950    0.0000 C   0  0  0  0  0  0  0  0  0  0  0  0
    2.0000    0.5950    0.0000 C   0  0  0  0  0  0  0  0  0  0  0  0
    7.1962    0.5950    0.0000 C   0  0  0  0  0  0  0  0  0  0  0  0
    8.0622    0.0950    0.0000 C   0  0  0  0  0  0  0  0  0  0  0  0
   16.7224    0.0950    0.0000 C   0  0  0  0  0  0  0  0  0  0  0  0
   15.8564    0.5950    0.0000 C   0  0  0  0  0  0  0  0  0  0  0  0
   17.5885    0.5950    0.0000 C   0  0  0  0  0  0  0  0  0  0  0  0
   14.9904    0.0950    0.0000 C   0  0  0  0  0  0  0  0  0  0  0  0
    8.9282    0.5950    0.0000 C   0  0  0  0  0  0  0  0  0  0  0  0
   13.2583    0.0950    0.0000 C   0  0  0  0  0  0  0  0  0  0  0  0
   14.1244    0.5950    0.0000 C   0  0  0  0  0  0  0  0  0  0  0  0
   10.6603    0.5950    0.0000 C   0  0  0  0  0  0  0  0  0  0  0  0
    9.7942    0.0950    0.0000 C   0  0  0  0  0  0  0  0  0  0  0  0
   12.3923    0.5950    0.0000 C   0  0  0  0  0  0  0  0  0  0  0  0
   11.5263    0.0950    0.0000 C   0  0  0  0  0  0  0  0  0  0  0  0
   18.4545    0.0950    0.0000 C   0  0  0  0  0  0  0  0  0  0  0  0
    4.1996   -0.3799    0.0000 H   0  0  0  0  0  0  0  0  0  0  0  0
    4.9966   -0.3799    0.0000 H   0  0  0  0  0  0  0  0  0  0  0  0
    5.8626    1.0700    0.0000 H   0  0  0  0  0  0  0  0  0  0  0  0
    5.0656    1.0700    0.0000 H   0  0  0  0  0  0  0  0  0  0  0  0
    4.1306    1.0700    0.0000 H   0  0  0  0  0  0  0  0  0  0  0  0
    3.3335    1.0700    0.0000 H   0  0  0  0  0  0  0  0  0  0  0  0
    7.0662   -0.3300    0.0000 H   0  0  0  0  0  0  0  0  0  0  0  0
    2.4675   -0.3799    0.0000 H   0  0  0  0  0  0  0  0  0  0  0  0
    3.2646   -0.3799    0.0000 H   0  0  0  0  0  0  0  0  0  0  0  0
    2.3100    1.1319    0.0000 H   0  0  0  0  0  0  0  0  0  0  0  0
    1.4631    0.9050    0.0000 H   0  0  0  0  0  0  0  0  0  0  0  0
    1.6900    0.0581    0.0000 H   0  0  0  0  0  0  0  0  0  0  0  0
    7.1962    1.2150    0.0000 H   0  0  0  0  0  0  0  0  0  0  0  0
    5.7932   -1.2150    0.0000 H   0  0  0  0  0  0  0  0  0  0  0  0
    8.0622   -0.5250    0.0000 H   0  0  0  0  0  0  0  0  0  0  0  0
   16.3239   -0.3799    0.0000 H   0  0  0  0  0  0  0  0  0  0  0  0
   17.1210   -0.3799    0.0000 H   0  0  0  0  0  0  0  0  0  0  0  0
   16.2549    1.0700    0.0000 H   0  0  0  0  0  0  0  0  0  0  0  0
   15.4579    1.0700    0.0000 H   0  0  0  0  0  0  0  0  0  0  0  0
   17.9870    1.0700    0.0000 H   0  0  0  0  0  0  0  0  0  0  0  0
   17.1899    1.0700    0.0000 H   0  0  0  0  0  0  0  0  0  0  0  0
   14.9904   -0.5250    0.0000 H   0  0  0  0  0  0  0  0  0  0  0  0
    8.9282    1.2150    0.0000 H   0  0  0  0  0  0  0  0  0  0  0  0
   12.8598   -0.3799    0.0000 H   0  0  0  0  0  0  0  0  0  0  0  0
   13.6569   -0.3799    0.0000 H   0  0  0  0  0  0  0  0  0  0  0  0
   14.1244    1.2150    0.0000 H   0  0  0  0  0  0  0  0  0  0  0  0
   11.0588    1.0700    0.0000 H   0  0  0  0  0  0  0  0  0  0  0  0
   10.2617    1.0700    0.0000 H   0  0  0  0  0  0  0  0  0  0  0  0
    9.7942   -0.5250    0.0000 H   0  0  0  0  0  0  0  0  0  0  0  0
   12.3923    1.2150    0.0000 H   0  0  0  0  0  0  0  0  0  0  0  0
   11.5263   -0.5250    0.0000 H   0  0  0  0  0  0  0  0  0  0  0  0
   19.8574    0.2850    0.0000 H   0  0  0  0  0  0  0  0  0  0  0  0
  1  7  1  0  0  0  0
  1 37  1  0  0  0  0
  2 23  1  0  0  0  0
  2 55  1  0  0  0  0
  3 23  2  0  0  0  0
  4  5  1  0  0  0  0
  4  6  1  0  0  0  0
  4 24  1  0  0  0  0
  4 25  1  0  0  0  0
  5  7  1  0  0  0  0
  5 26  1  0  0  0  0
  5 27  1  0  0  0  0
  6  8  1  0  0  0  0
  6 28  1  0  0  0  0
  6 29  1  0  0  0  0
  7 10  1  0  0  0  0
  7 30  1  0  0  0  0
  8  9  1  0  0  0  0
  8 31  1  0  0  0  0
  8 32  1  0  0  0  0
  9 33  1  0  0  0  0
  9 34  1  0  0  0  0
  9 35  1  0  0  0  0
 10 11  2  0  0  0  0
 10 36  1  0  0  0  0
 11 16  1  0  0  0  0
 11 38  1  0  0  0  0
 12 13  1  0  0  0  0
 12 14  1  0  0  0  0
 12 39  1  0  0  0  0
 12 40  1  0  0  0  0
 13 15  1  0  0  0  0
 13 41  1  0  0  0  0
 13 42  1  0  0  0  0
 14 23  1  0  0  0  0
 14 43  1  0  0  0  0
 14 44  1  0  0  0  0
 15 18  2  0  0  0  0
 15 45  1  0  0  0  0
 16 20  2  0  0  0  0
 16 46  1  0  0  0  0
 17 18  1  0  0  0  0
 17 21  1  0  0  0  0
 17 47  1  0  0  0  0
 17 48  1  0  0  0  0
 18 49  1  0  0  0  0
 19 20  1  0  0  0  0
 19 22  1  0  0  0  0
 19 50  1  0  0  0  0
 19 51  1  0  0  0  0
 20 52  1  0  0  0  0
 21 22  2  0  0  0  0
 21 53  1  0  0  0  0
 22 54  1  0  0  0  0
M  END
>  <PUBCHEM_COMPOUND_CID>
5353283

>  <PUBCHEM_COMPOUND_CANONICALIZED>
1

>  <PUBCHEM_CACTVS_COMPLEXITY>
392

>  <PUBCHEM_CACTVS_HBOND_ACCEPTOR>
3

>  <PUBCHEM_CACTVS_HBOND_DONOR>
2

>  <PUBCHEM_CACTVS_ROTATABLE_BOND>
14

>  <PUBCHEM_CACTVS_SUBSKEYS>
AAADcfB4MAAAAAAAAAAAAAAAAAAAAAAAAAAAAAAAAAAAAAAAAAAAGgAACAAACBSggAICCAAAAgCIACDSCAAAAAAgAAAICAEAAAgIFBIAAQAAUAAEgAAIkAOIwAAAAAAAAAAAAAAAAAAAAAAAAAAAAAAAAA==

>  <PUBCHEM_IUPAC_OPENEYE_NAME>
(5E,8E,11E,13E)-15-hydroxyicosa-5,8,11,13-tetraenoic acid

>  <PUBCHEM_IUPAC_CAS_NAME>
(5E,8E,11E,13E)-15-hydroxyeicosa-5,8,11,13-tetraenoic acid

>  <PUBCHEM_IUPAC_NAME>
(5E,8E,11E,13E)-15-hydroxyicosa-5,8,11,13-tetraenoic acid

>  <PUBCHEM_IUPAC_SYSTEMATIC_NAME>
(5E,8E,11E,13E)-15-oxidanylicosa-5,8,11,13-tetraenoic acid

>  <PUBCHEM_IUPAC_TRADITIONAL_NAME>
(5E,8E,11E,13E)-15-hydroxyeicosa-5,8,11,13-tetraenoic acid

>  <PUBCHEM_IUPAC_INCHI>
InChI=1S/C20H32O3/c1-2-3-13-16-19(21)17-14-11-9-7-5-4-6-8-10-12-15-18-20(22)23/h4-5,8-11,14,17,19,21H,2-3,6-7,12-13,15-16,18H2,1H3,(H,22,23)/b5-4+,10-8+,11-9+,17-14+

>  <PUBCHEM_IUPAC_INCHIKEY>
JSFATNQSLKRBCI-NLORQXDXSA-N

>  <PUBCHEM_XLOGP3_AA>
5.1

>  <PUBCHEM_EXACT_MASS>
320.235

>  <PUBCHEM_MOLECULAR_FORMULA>
C20H32O3

>  <PUBCHEM_MOLECULAR_WEIGHT>
320.473

>  <PUBCHEM_OPENEYE_CAN_SMILES>
CCCCCC(C=CC=CCC=CCC=CCCCC(=O)O)O

>  <PUBCHEM_OPENEYE_ISO_SMILES>
CCCCCC(/C=C/C=C/C/C=C/C/C=C/CCCC(=O)O)O

>  <PUBCHEM_CACTVS_TPSA>
57.5

>  <PUBCHEM_MONOISOTOPIC_WEIGHT>
320.235

>  <PUBCHEM_TOTAL_CHARGE>
0

>  <PUBCHEM_HEAVY_ATOM_COUNT>
23

>  <PUBCHEM_ATOM_DEF_STEREO_COUNT>
0

>  <PUBCHEM_ATOM_UDEF_STEREO_COUNT>
1

>  <PUBCHEM_BOND_DEF_STEREO_COUNT>
4

>  <PUBCHEM_BOND_UDEF_STEREO_COUNT>
0

>  <PUBCHEM_ISOTOPIC_ATOM_COUNT>
0

>  <PUBCHEM_COMPONENT_COUNT>
1

>  <PUBCHEM_CACTVS_TAUTO_COUNT>
1

>  <PUBCHEM_COORDINATE_TYPE>
1
5
255

>  <PUBCHEM_BONDANNOTATIONS>
7  30  3

$$$$
