5354391
 OpenBabel06101807152D

 30 33  0  0  0  0  0  0  0  0999 V2000
    4.9889    1.5747    0.0000 O   0  0  0  0  0  0  0  0  0  0  0  0
    6.5348    1.5747    0.0000 O   0  0  0  0  0  0  0  0  0  0  0  0
    4.6783   -0.9853    0.0000 N   0  0  0  0  0  0  0  0  0  0  0  0
    6.8455   -0.9853    0.0000 N   0  0  0  0  0  0  0  0  0  0  0  0
    6.2619   -0.1806    0.0000 C   0  0  0  0  0  0  0  0  0  0  0  0
    5.2619   -0.1806    0.0000 C   0  0  0  0  0  0  0  0  0  0  0  0
    7.7917    0.3194    0.0000 C   0  0  0  0  0  0  0  0  0  0  0  0
    3.7320    0.3194    0.0000 C   0  0  0  0  0  0  0  0  0  0  0  0
    7.7917   -0.6806    0.0000 C   0  0  0  0  0  0  0  0  0  0  0  0
    3.7320   -0.6806    0.0000 C   0  0  0  0  0  0  0  0  0  0  0  0
    6.8455    0.6241    0.0000 C   0  0  0  0  0  0  0  0  0  0  0  0
    4.6783    0.6241    0.0000 C   0  0  0  0  0  0  0  0  0  0  0  0
    8.6577    0.8194    0.0000 C   0  0  0  0  0  0  0  0  0  0  0  0
    2.8660    0.8194    0.0000 C   0  0  0  0  0  0  0  0  0  0  0  0
    8.6577   -1.1806    0.0000 C   0  0  0  0  0  0  0  0  0  0  0  0
    2.8660   -1.1806    0.0000 C   0  0  0  0  0  0  0  0  0  0  0  0
    2.0000    0.3194    0.0000 C   0  0  0  0  0  0  0  0  0  0  0  0
    9.5238    0.3194    0.0000 C   0  0  0  0  0  0  0  0  0  0  0  0
    2.0000   -0.6806    0.0000 C   0  0  0  0  0  0  0  0  0  0  0  0
    9.5238   -0.6806    0.0000 C   0  0  0  0  0  0  0  0  0  0  0  0
    6.6529   -1.5747    0.0000 H   0  0  0  0  0  0  0  0  0  0  0  0
    4.8709   -1.5747    0.0000 H   0  0  0  0  0  0  0  0  0  0  0  0
    8.6577    1.4394    0.0000 H   0  0  0  0  0  0  0  0  0  0  0  0
    2.8660    1.4394    0.0000 H   0  0  0  0  0  0  0  0  0  0  0  0
    8.6577   -1.8006    0.0000 H   0  0  0  0  0  0  0  0  0  0  0  0
    2.8660   -1.8006    0.0000 H   0  0  0  0  0  0  0  0  0  0  0  0
   10.0607    0.6294    0.0000 H   0  0  0  0  0  0  0  0  0  0  0  0
    1.4631    0.6294    0.0000 H   0  0  0  0  0  0  0  0  0  0  0  0
   10.0607   -0.9906    0.0000 H   0  0  0  0  0  0  0  0  0  0  0  0
    1.4631   -0.9906    0.0000 H   0  0  0  0  0  0  0  0  0  0  0  0
  1 12  2  0  0  0  0
  2 11  2  0  0  0  0
  3  6  1  0  0  0  0
  3 10  1  0  0  0  0
  3 22  1  0  0  0  0
  4  5  1  0  0  0  0
  4  9  1  0  0  0  0
  4 21  1  0  0  0  0
  5  6  2  0  0  0  0
  5 11  1  0  0  0  0
  6 12  1  0  0  0  0
  7  9  1  0  0  0  0
  7 11  1  0  0  0  0
  7 13  2  0  0  0  0
  8 10  1  0  0  0  0
  8 12  1  0  0  0  0
  8 14  2  0  0  0  0
  9 15  2  0  0  0  0
 10 16  2  0  0  0  0
 13 18  1  0  0  0  0
 13 23  1  0  0  0  0
 14 17  1  0  0  0  0
 14 24  1  0  0  0  0
 15 20  1  0  0  0  0
 15 25  1  0  0  0  0
 16 19  1  0  0  0  0
 16 26  1  0  0  0  0
 17 19  2  0  0  0  0
 17 28  1  0  0  0  0
 18 20  2  0  0  0  0
 18 27  1  0  0  0  0
 19 30  1  0  0  0  0
 20 29  1  0  0  0  0
M  END
>  <PUBCHEM_COMPOUND_CID>
5354391

>  <PUBCHEM_COMPOUND_CANONICALIZED>
1

>  <PUBCHEM_CACTVS_COMPLEXITY>
453

>  <PUBCHEM_CACTVS_HBOND_ACCEPTOR>
4

>  <PUBCHEM_CACTVS_HBOND_DONOR>
2

>  <PUBCHEM_CACTVS_ROTATABLE_BOND>
0

>  <PUBCHEM_CACTVS_SUBSKEYS>
AAADccB7MAAAAAAAAAAAAAAAAAAAAWLAAAAwYAAAAAAAAFgBQAAAHgAQAAAADAyBmAAwwILAAACIAqRSQACCAAAlAgAIiAGAZMgIIDrAlbGEIYhgkADIyccYiICOAAAAAAACAAAAAAAAAAQAAAAAAAAAAA==

>  <PUBCHEM_IUPAC_OPENEYE_NAME>
(2Z)-2-(3-oxoindolin-2-ylidene)indolin-3-one

>  <PUBCHEM_IUPAC_CAS_NAME>
(2Z)-2-(3-oxo-1H-indol-2-ylidene)-1H-indol-3-one

>  <PUBCHEM_IUPAC_NAME>
(2Z)-2-(3-oxo-1H-indol-2-ylidene)-1H-indol-3-one

>  <PUBCHEM_IUPAC_SYSTEMATIC_NAME>
(2Z)-2-(3-oxidanylidene-1H-indol-2-ylidene)-1H-indol-3-one

>  <PUBCHEM_IUPAC_TRADITIONAL_NAME>
(2Z)-2-(3-ketoindolin-2-ylidene)pseudoindoxyl

>  <PUBCHEM_IUPAC_INCHI>
InChI=1S/C16H10N2O2/c19-15-9-5-1-3-7-11(9)17-13(15)14-16(20)10-6-2-4-8-12(10)18-14/h1-8,17-18H/b14-13-

>  <PUBCHEM_IUPAC_INCHIKEY>
COHYTHOBJLSHDF-YPKPFQOOSA-N

>  <PUBCHEM_XLOGP3>
3.7

>  <PUBCHEM_EXACT_MASS>
262.074

>  <PUBCHEM_MOLECULAR_FORMULA>
C16H10N2O2

>  <PUBCHEM_MOLECULAR_WEIGHT>
262.268

>  <PUBCHEM_OPENEYE_CAN_SMILES>
C1=CC=C2C(=C1)C(=O)C(=C3C(=O)C4=CC=CC=C4N3)N2

>  <PUBCHEM_OPENEYE_ISO_SMILES>
C1=CC=C2C(=C1)C(=O)/C(=C/3\C(=O)C4=CC=CC=C4N3)/N2

>  <PUBCHEM_CACTVS_TPSA>
58.2

>  <PUBCHEM_MONOISOTOPIC_WEIGHT>
262.074

>  <PUBCHEM_TOTAL_CHARGE>
0

>  <PUBCHEM_HEAVY_ATOM_COUNT>
20

>  <PUBCHEM_ATOM_DEF_STEREO_COUNT>
0

>  <PUBCHEM_ATOM_UDEF_STEREO_COUNT>
0

>  <PUBCHEM_BOND_DEF_STEREO_COUNT>
1

>  <PUBCHEM_BOND_UDEF_STEREO_COUNT>
0

>  <PUBCHEM_ISOTOPIC_ATOM_COUNT>
0

>  <PUBCHEM_COMPONENT_COUNT>
1

>  <PUBCHEM_CACTVS_TAUTO_COUNT>
32

>  <PUBCHEM_COORDINATE_TYPE>
1
5
255

>  <PUBCHEM_BONDANNOTATIONS>
10  16  8
13  18  8
14  17  8
15  20  8
16  19  8
17  19  8
18  20  8
7  13  8
7  9  8
8  10  8
8  14  8
9  15  8

$$$$
