5355219
 OpenBabel06101807152D

 23 24  0  0  0  0  0  0  0  0999 V2000
    7.6138    0.8450    0.0000 O   0  0  0  0  0  0  0  0  0  0  0  0
    6.3246   -0.3117    0.0000 O   0  0  0  0  0  0  0  0  0  0  0  0
    4.6783   -1.3831    0.0000 N   0  0  0  0  0  0  0  0  0  0  0  0
    3.7320   -0.0784    0.0000 C   0  0  0  0  0  0  0  0  0  0  0  0
    3.7320   -1.0784    0.0000 C   0  0  0  0  0  0  0  0  0  0  0  0
    4.6783    0.2264    0.0000 C   0  0  0  0  0  0  0  0  0  0  0  0
    5.2619   -0.5784    0.0000 C   0  0  0  0  0  0  0  0  0  0  0  0
    2.8660    0.4216    0.0000 C   0  0  0  0  0  0  0  0  0  0  0  0
    2.8660   -1.5784    0.0000 C   0  0  0  0  0  0  0  0  0  0  0  0
    4.9889    1.1769    0.0000 C   0  0  0  0  0  0  0  0  0  0  0  0
    2.0000   -0.0784    0.0000 C   0  0  0  0  0  0  0  0  0  0  0  0
    2.0000   -1.0784    0.0000 C   0  0  0  0  0  0  0  0  0  0  0  0
    5.9674    1.3831    0.0000 C   0  0  0  0  0  0  0  0  0  0  0  0
    6.6353    0.6388    0.0000 C   0  0  0  0  0  0  0  0  0  0  0  0
    4.8709   -1.9724    0.0000 H   0  0  0  0  0  0  0  0  0  0  0  0
    5.8819   -0.5784    0.0000 H   0  0  0  0  0  0  0  0  0  0  0  0
    2.8660    1.0416    0.0000 H   0  0  0  0  0  0  0  0  0  0  0  0
    2.8660   -2.1984    0.0000 H   0  0  0  0  0  0  0  0  0  0  0  0
    4.5749    1.6384    0.0000 H   0  0  0  0  0  0  0  0  0  0  0  0
    1.4631    0.2316    0.0000 H   0  0  0  0  0  0  0  0  0  0  0  0
    1.4631   -1.3884    0.0000 H   0  0  0  0  0  0  0  0  0  0  0  0
    6.1600    1.9724    0.0000 H   0  0  0  0  0  0  0  0  0  0  0  0
    8.0279    0.3836    0.0000 H   0  0  0  0  0  0  0  0  0  0  0  0
  1 14  1  0  0  0  0
  1 23  1  0  0  0  0
  2 14  2  0  0  0  0
  3  5  1  0  0  0  0
  3  7  1  0  0  0  0
  3 15  1  0  0  0  0
  4  5  1  0  0  0  0
  4  6  1  0  0  0  0
  4  8  2  0  0  0  0
  5  9  2  0  0  0  0
  6  7  2  0  0  0  0
  6 10  1  0  0  0  0
  7 16  1  0  0  0  0
  8 11  1  0  0  0  0
  8 17  1  0  0  0  0
  9 12  1  0  0  0  0
  9 18  1  0  0  0  0
 10 13  2  0  0  0  0
 10 19  1  0  0  0  0
 11 12  2  0  0  0  0
 11 20  1  0  0  0  0
 12 21  1  0  0  0  0
 13 14  1  0  0  0  0
 13 22  1  0  0  0  0
M  END
>  <PUBCHEM_COMPOUND_CID>
5355219

>  <PUBCHEM_COMPOUND_CANONICALIZED>
1

>  <PUBCHEM_CACTVS_COMPLEXITY>
250

>  <PUBCHEM_CACTVS_HBOND_ACCEPTOR>
2

>  <PUBCHEM_CACTVS_HBOND_DONOR>
2

>  <PUBCHEM_CACTVS_ROTATABLE_BOND>
2

>  <PUBCHEM_CACTVS_SUBSKEYS>
AAADccByMAAAAAAAAAAAAAAAAAAAAWAAAAAwAAAAAAAAAFgB8AAAHgAQCAAADAjBngQ8yPLJkgCoAzT3TACCgCAxAiAI2aA4ZNgIJOLAkZGEMAhgkADI2YcQgMAOgAAAAAACAAAAAAAAAAQAAAAAAAAAAA==

>  <PUBCHEM_IUPAC_OPENEYE_NAME>
(Z)-3-(1H-indol-3-yl)prop-2-enoic acid

>  <PUBCHEM_IUPAC_CAS_NAME>
(Z)-3-(1H-indol-3-yl)-2-propenoic acid

>  <PUBCHEM_IUPAC_NAME>
(Z)-3-(1H-indol-3-yl)prop-2-enoic acid

>  <PUBCHEM_IUPAC_SYSTEMATIC_NAME>
(Z)-3-(1H-indol-3-yl)prop-2-enoic acid

>  <PUBCHEM_IUPAC_TRADITIONAL_NAME>
(Z)-3-(1H-indol-3-yl)acrylic acid

>  <PUBCHEM_IUPAC_INCHI>
InChI=1S/C11H9NO2/c13-11(14)6-5-8-7-12-10-4-2-1-3-9(8)10/h1-7,12H,(H,13,14)/b6-5-

>  <PUBCHEM_IUPAC_INCHIKEY>
PLVPPLCLBIEYEA-WAYWQWQTSA-N

>  <PUBCHEM_XLOGP3>
2.2

>  <PUBCHEM_EXACT_MASS>
187.063

>  <PUBCHEM_MOLECULAR_FORMULA>
C11H9NO2

>  <PUBCHEM_MOLECULAR_WEIGHT>
187.198

>  <PUBCHEM_OPENEYE_CAN_SMILES>
C1=CC=C2C(=C1)C(=CN2)C=CC(=O)O

>  <PUBCHEM_OPENEYE_ISO_SMILES>
C1=CC=C2C(=C1)C(=CN2)/C=C\C(=O)O

>  <PUBCHEM_CACTVS_TPSA>
53.1

>  <PUBCHEM_MONOISOTOPIC_WEIGHT>
187.063

>  <PUBCHEM_TOTAL_CHARGE>
0

>  <PUBCHEM_HEAVY_ATOM_COUNT>
14

>  <PUBCHEM_ATOM_DEF_STEREO_COUNT>
0

>  <PUBCHEM_ATOM_UDEF_STEREO_COUNT>
0

>  <PUBCHEM_BOND_DEF_STEREO_COUNT>
1

>  <PUBCHEM_BOND_UDEF_STEREO_COUNT>
0

>  <PUBCHEM_ISOTOPIC_ATOM_COUNT>
0

>  <PUBCHEM_COMPONENT_COUNT>
1

>  <PUBCHEM_CACTVS_TAUTO_COUNT>
9

>  <PUBCHEM_COORDINATE_TYPE>
1
5
255

>  <PUBCHEM_BONDANNOTATIONS>
11  12  8
3  5  8
3  7  8
4  5  8
4  6  8
4  8  8
5  9  8
6  7  8
8  11  8
9  12  8

$$$$
