5357345
 OpenBabel06101807152D

 38 39  0  0  0  0  0  0  0  0999 V2000
    2.5369   -2.8100    0.0000 O   0  0  0  0  0  0  0  0  0  0  0  0
    4.2690   -3.8100    0.0000 O   0  0  0  0  0  0  0  0  0  0  0  0
    2.5369   -0.8100    0.0000 O   0  0  0  0  0  0  0  0  0  0  0  0
    3.4030    0.6900    0.0000 O   0  0  0  0  0  0  0  0  0  0  0  0
    8.5991    3.6900    0.0000 O   0  0  0  0  0  0  0  0  0  0  0  0
    4.2690   -0.8100    0.0000 C   0  0  0  0  0  0  0  0  0  0  0  0
    3.4030   -1.3100    0.0000 C   0  0  0  0  0  0  0  0  0  0  0  0
    3.4030   -2.3100    0.0000 C   0  0  0  0  0  0  0  0  0  0  0  0
    4.2690   -2.8100    0.0000 C   0  0  0  0  0  0  0  0  0  0  0  0
    5.1350   -1.3100    0.0000 C   0  0  0  0  0  0  0  0  0  0  0  0
    5.1350   -2.3100    0.0000 C   0  0  0  0  0  0  0  0  0  0  0  0
    4.2690    0.1900    0.0000 C   0  0  0  0  0  0  0  0  0  0  0  0
    6.0010    2.1900    0.0000 C   0  0  0  0  0  0  0  0  0  0  0  0
    5.1350    0.6900    0.0000 C   0  0  0  0  0  0  0  0  0  0  0  0
    5.1350    1.6900    0.0000 C   0  0  0  0  0  0  0  0  0  0  0  0
    6.0010    3.1900    0.0000 C   0  0  0  0  0  0  0  0  0  0  0  0
    6.8671    1.6900    0.0000 C   0  0  0  0  0  0  0  0  0  0  0  0
    6.8671    3.6900    0.0000 C   0  0  0  0  0  0  0  0  0  0  0  0
    7.7331    2.1900    0.0000 C   0  0  0  0  0  0  0  0  0  0  0  0
    7.7331    3.1900    0.0000 C   0  0  0  0  0  0  0  0  0  0  0  0
    2.5369   -3.8100    0.0000 C   0  0  0  0  0  0  0  0  0  0  0  0
    5.1350   -4.3100    0.0000 C   0  0  0  0  0  0  0  0  0  0  0  0
    5.6720   -1.0000    0.0000 H   0  0  0  0  0  0  0  0  0  0  0  0
    5.6720   -2.6200    0.0000 H   0  0  0  0  0  0  0  0  0  0  0  0
    5.6720    0.3800    0.0000 H   0  0  0  0  0  0  0  0  0  0  0  0
    4.5981    2.0000    0.0000 H   0  0  0  0  0  0  0  0  0  0  0  0
    5.4641    3.5000    0.0000 H   0  0  0  0  0  0  0  0  0  0  0  0
    6.8671    1.0700    0.0000 H   0  0  0  0  0  0  0  0  0  0  0  0
    6.8671    4.3100    0.0000 H   0  0  0  0  0  0  0  0  0  0  0  0
    8.2700    1.8800    0.0000 H   0  0  0  0  0  0  0  0  0  0  0  0
    2.0000   -1.1200    0.0000 H   0  0  0  0  0  0  0  0  0  0  0  0
    1.9169   -3.8100    0.0000 H   0  0  0  0  0  0  0  0  0  0  0  0
    2.5369   -4.4300    0.0000 H   0  0  0  0  0  0  0  0  0  0  0  0
    3.1569   -3.8100    0.0000 H   0  0  0  0  0  0  0  0  0  0  0  0
    4.8250   -4.8469    0.0000 H   0  0  0  0  0  0  0  0  0  0  0  0
    5.6720   -4.6200    0.0000 H   0  0  0  0  0  0  0  0  0  0  0  0
    5.4450   -3.7731    0.0000 H   0  0  0  0  0  0  0  0  0  0  0  0
    8.5991    4.3100    0.0000 H   0  0  0  0  0  0  0  0  0  0  0  0
  1  8  1  0  0  0  0
  1 21  1  0  0  0  0
  2  9  1  0  0  0  0
  2 22  1  0  0  0  0
  3  7  1  0  0  0  0
  3 31  1  0  0  0  0
  4 12  2  0  0  0  0
  5 20  1  0  0  0  0
  5 38  1  0  0  0  0
  6  7  2  0  0  0  0
  6 10  1  0  0  0  0
  6 12  1  0  0  0  0
  7  8  1  0  0  0  0
  8  9  2  0  0  0  0
  9 11  1  0  0  0  0
 10 11  2  0  0  0  0
 10 23  1  0  0  0  0
 11 24  1  0  0  0  0
 12 14  1  0  0  0  0
 13 15  1  0  0  0  0
 13 16  2  0  0  0  0
 13 17  1  0  0  0  0
 14 15  2  0  0  0  0
 14 25  1  0  0  0  0
 15 26  1  0  0  0  0
 16 18  1  0  0  0  0
 16 27  1  0  0  0  0
 17 19  2  0  0  0  0
 17 28  1  0  0  0  0
 18 20  2  0  0  0  0
 18 29  1  0  0  0  0
 19 20  1  0  0  0  0
 19 30  1  0  0  0  0
 21 32  1  0  0  0  0
 21 33  1  0  0  0  0
 21 34  1  0  0  0  0
 22 35  1  0  0  0  0
 22 36  1  0  0  0  0
 22 37  1  0  0  0  0
M  END
>  <PUBCHEM_COMPOUND_CID>
5357345

>  <PUBCHEM_COMPOUND_CANONICALIZED>
1

>  <PUBCHEM_CACTVS_COMPLEXITY>
387

>  <PUBCHEM_CACTVS_HBOND_ACCEPTOR>
5

>  <PUBCHEM_CACTVS_HBOND_DONOR>
2

>  <PUBCHEM_CACTVS_ROTATABLE_BOND>
5

>  <PUBCHEM_CACTVS_SUBSKEYS>
AAADceB4OAAAAAAAAAAAAAAAAAAAAAAAAAAwYAAAAAAAAAABQAAAGgAACAAADASAmAIyBoAABgCIAqBSAAACCAAkIAAIiAEGiMgNJzaGNRqAcWMl4BULuYeK7LzOIAABCAAIQABAAAIQABCAAAAAAAAAAA==

>  <PUBCHEM_IUPAC_OPENEYE_NAME>
(E)-1-(2-hydroxy-3,4-dimethoxy-phenyl)-3-(4-hydroxyphenyl)prop-2-en-1-one

>  <PUBCHEM_IUPAC_CAS_NAME>
(E)-1-(2-hydroxy-3,4-dimethoxyphenyl)-3-(4-hydroxyphenyl)-2-propen-1-one

>  <PUBCHEM_IUPAC_NAME>
(E)-1-(2-hydroxy-3,4-dimethoxyphenyl)-3-(4-hydroxyphenyl)prop-2-en-1-one

>  <PUBCHEM_IUPAC_SYSTEMATIC_NAME>
(E)-1-(3,4-dimethoxy-2-oxidanyl-phenyl)-3-(4-hydroxyphenyl)prop-2-en-1-one

>  <PUBCHEM_IUPAC_TRADITIONAL_NAME>
(E)-1-(2-hydroxy-3,4-dimethoxy-phenyl)-3-(4-hydroxyphenyl)prop-2-en-1-one

>  <PUBCHEM_IUPAC_INCHI>
InChI=1S/C17H16O5/c1-21-15-10-8-13(16(20)17(15)22-2)14(19)9-5-11-3-6-12(18)7-4-11/h3-10,18,20H,1-2H3/b9-5+

>  <PUBCHEM_IUPAC_INCHIKEY>
RURQJVCNVGERHF-WEVVVXLNSA-N

>  <PUBCHEM_XLOGP3_AA>
3.5

>  <PUBCHEM_EXACT_MASS>
300.1

>  <PUBCHEM_MOLECULAR_FORMULA>
C17H16O5

>  <PUBCHEM_MOLECULAR_WEIGHT>
300.31

>  <PUBCHEM_OPENEYE_CAN_SMILES>
COC1=C(C(=C(C=C1)C(=O)C=CC2=CC=C(C=C2)O)O)OC

>  <PUBCHEM_OPENEYE_ISO_SMILES>
COC1=C(C(=C(C=C1)C(=O)/C=C/C2=CC=C(C=C2)O)O)OC

>  <PUBCHEM_CACTVS_TPSA>
76

>  <PUBCHEM_MONOISOTOPIC_WEIGHT>
300.1

>  <PUBCHEM_TOTAL_CHARGE>
0

>  <PUBCHEM_HEAVY_ATOM_COUNT>
22

>  <PUBCHEM_ATOM_DEF_STEREO_COUNT>
0

>  <PUBCHEM_ATOM_UDEF_STEREO_COUNT>
0

>  <PUBCHEM_BOND_DEF_STEREO_COUNT>
1

>  <PUBCHEM_BOND_UDEF_STEREO_COUNT>
0

>  <PUBCHEM_ISOTOPIC_ATOM_COUNT>
0

>  <PUBCHEM_COMPONENT_COUNT>
1

>  <PUBCHEM_CACTVS_TAUTO_COUNT>
24

>  <PUBCHEM_COORDINATE_TYPE>
1
5
255

>  <PUBCHEM_BONDANNOTATIONS>
10  11  8
13  16  8
13  17  8
16  18  8
17  19  8
18  20  8
19  20  8
6  10  8
6  7  8
7  8  8
8  9  8
9  11  8

$$$$
