5357488
 OpenBabel06101807152D

 37 38  0  0  0  0  0  0  0  0999 V2000
    4.2690   -4.0000    0.0000 O   0  0  0  0  0  0  0  0  0  0  0  0
    2.5369   -1.0000    0.0000 O   0  0  0  0  0  0  0  0  0  0  0  0
    8.5991    3.5000    0.0000 O   0  0  0  0  0  0  0  0  0  0  0  0
    3.4030    0.5000    0.0000 O   0  0  0  0  0  0  0  0  0  0  0  0
    4.2690   -1.0000    0.0000 C   0  0  0  0  0  0  0  0  0  0  0  0
    6.0010    2.0000    0.0000 C   0  0  0  0  0  0  0  0  0  0  0  0
    3.4030   -1.5000    0.0000 C   0  0  0  0  0  0  0  0  0  0  0  0
    5.1350   -1.5000    0.0000 C   0  0  0  0  0  0  0  0  0  0  0  0
    4.2690    0.0000    0.0000 C   0  0  0  0  0  0  0  0  0  0  0  0
    4.2690   -3.0000    0.0000 C   0  0  0  0  0  0  0  0  0  0  0  0
    3.4030   -2.5000    0.0000 C   0  0  0  0  0  0  0  0  0  0  0  0
    5.1350    1.5000    0.0000 C   0  0  0  0  0  0  0  0  0  0  0  0
    5.1350   -2.5000    0.0000 C   0  0  0  0  0  0  0  0  0  0  0  0
    5.1350    0.5000    0.0000 C   0  0  0  0  0  0  0  0  0  0  0  0
    6.8671    1.5000    0.0000 C   0  0  0  0  0  0  0  0  0  0  0  0
    6.0010    3.0000    0.0000 C   0  0  0  0  0  0  0  0  0  0  0  0
    7.7331    3.0000    0.0000 C   0  0  0  0  0  0  0  0  0  0  0  0
    7.7331    2.0000    0.0000 C   0  0  0  0  0  0  0  0  0  0  0  0
    6.8671    3.5000    0.0000 C   0  0  0  0  0  0  0  0  0  0  0  0
    5.1350   -4.5000    0.0000 C   0  0  0  0  0  0  0  0  0  0  0  0
    8.5991    4.5000    0.0000 C   0  0  0  0  0  0  0  0  0  0  0  0
    5.6720   -1.1900    0.0000 H   0  0  0  0  0  0  0  0  0  0  0  0
    2.8660   -2.8100    0.0000 H   0  0  0  0  0  0  0  0  0  0  0  0
    4.5981    1.8100    0.0000 H   0  0  0  0  0  0  0  0  0  0  0  0
    5.6720   -2.8100    0.0000 H   0  0  0  0  0  0  0  0  0  0  0  0
    5.6720    0.1900    0.0000 H   0  0  0  0  0  0  0  0  0  0  0  0
    6.8671    0.8800    0.0000 H   0  0  0  0  0  0  0  0  0  0  0  0
    5.4641    3.3100    0.0000 H   0  0  0  0  0  0  0  0  0  0  0  0
    8.2700    1.6900    0.0000 H   0  0  0  0  0  0  0  0  0  0  0  0
    6.8671    4.1200    0.0000 H   0  0  0  0  0  0  0  0  0  0  0  0
    2.0000   -1.3100    0.0000 H   0  0  0  0  0  0  0  0  0  0  0  0
    4.8250   -5.0369    0.0000 H   0  0  0  0  0  0  0  0  0  0  0  0
    5.6720   -4.8100    0.0000 H   0  0  0  0  0  0  0  0  0  0  0  0
    5.4450   -3.9631    0.0000 H   0  0  0  0  0  0  0  0  0  0  0  0
    9.2191    4.5000    0.0000 H   0  0  0  0  0  0  0  0  0  0  0  0
    8.5991    5.1200    0.0000 H   0  0  0  0  0  0  0  0  0  0  0  0
    7.9791    4.5000    0.0000 H   0  0  0  0  0  0  0  0  0  0  0  0
  1 10  1  0  0  0  0
  1 20  1  0  0  0  0
  2  7  1  0  0  0  0
  2 31  1  0  0  0  0
  3 17  1  0  0  0  0
  3 21  1  0  0  0  0
  4  9  2  0  0  0  0
  5  7  2  0  0  0  0
  5  8  1  0  0  0  0
  5  9  1  0  0  0  0
  6 12  1  0  0  0  0
  6 15  2  0  0  0  0
  6 16  1  0  0  0  0
  7 11  1  0  0  0  0
  8 13  2  0  0  0  0
  8 22  1  0  0  0  0
  9 14  1  0  0  0  0
 10 11  2  0  0  0  0
 10 13  1  0  0  0  0
 11 23  1  0  0  0  0
 12 14  2  0  0  0  0
 12 24  1  0  0  0  0
 13 25  1  0  0  0  0
 14 26  1  0  0  0  0
 15 18  1  0  0  0  0
 15 27  1  0  0  0  0
 16 19  2  0  0  0  0
 16 28  1  0  0  0  0
 17 18  2  0  0  0  0
 17 19  1  0  0  0  0
 18 29  1  0  0  0  0
 19 30  1  0  0  0  0
 20 32  1  0  0  0  0
 20 33  1  0  0  0  0
 20 34  1  0  0  0  0
 21 35  1  0  0  0  0
 21 36  1  0  0  0  0
 21 37  1  0  0  0  0
M  END
>  <PUBCHEM_COMPOUND_CID>
5357488

>  <PUBCHEM_COMPOUND_CANONICALIZED>
1

>  <PUBCHEM_CACTVS_COMPLEXITY>
358

>  <PUBCHEM_CACTVS_HBOND_ACCEPTOR>
4

>  <PUBCHEM_CACTVS_HBOND_DONOR>
1

>  <PUBCHEM_CACTVS_ROTATABLE_BOND>
5

>  <PUBCHEM_CACTVS_SUBSKEYS>
AAADceB4OAAAAAAAAAAAAAAAAAAAAAAAAAAwYAAAAAAAAAABQAAAGgAACAAADASAmAIyBoAABgCIAqBSAAACCAAkIAAIiAEGCMgMJzaGNRqAcWAl4BUIuYeI7KzOIAAACAAIAABAAAAQABAAAAAAAAAAAA==

>  <PUBCHEM_IUPAC_OPENEYE_NAME>
(E)-1-(2-hydroxy-4-methoxy-phenyl)-3-(4-methoxyphenyl)prop-2-en-1-one

>  <PUBCHEM_IUPAC_CAS_NAME>
(E)-1-(2-hydroxy-4-methoxyphenyl)-3-(4-methoxyphenyl)-2-propen-1-one

>  <PUBCHEM_IUPAC_NAME>
(E)-1-(2-hydroxy-4-methoxyphenyl)-3-(4-methoxyphenyl)prop-2-en-1-one

>  <PUBCHEM_IUPAC_SYSTEMATIC_NAME>
(E)-1-(4-methoxy-2-oxidanyl-phenyl)-3-(4-methoxyphenyl)prop-2-en-1-one

>  <PUBCHEM_IUPAC_TRADITIONAL_NAME>
(E)-1-(2-hydroxy-4-methoxy-phenyl)-3-(4-methoxyphenyl)prop-2-en-1-one

>  <PUBCHEM_IUPAC_INCHI>
InChI=1S/C17H16O4/c1-20-13-6-3-12(4-7-13)5-10-16(18)15-9-8-14(21-2)11-17(15)19/h3-11,19H,1-2H3/b10-5+

>  <PUBCHEM_IUPAC_INCHIKEY>
OAAPAFSEMHJNTF-BJMVGYQFSA-N

>  <PUBCHEM_XLOGP3>
4

>  <PUBCHEM_EXACT_MASS>
284.105

>  <PUBCHEM_MOLECULAR_FORMULA>
C17H16O4

>  <PUBCHEM_MOLECULAR_WEIGHT>
284.311

>  <PUBCHEM_OPENEYE_CAN_SMILES>
COC1=CC=C(C=C1)C=CC(=O)C2=C(C=C(C=C2)OC)O

>  <PUBCHEM_OPENEYE_ISO_SMILES>
COC1=CC=C(C=C1)/C=C/C(=O)C2=C(C=C(C=C2)OC)O

>  <PUBCHEM_CACTVS_TPSA>
55.8

>  <PUBCHEM_MONOISOTOPIC_WEIGHT>
284.105

>  <PUBCHEM_TOTAL_CHARGE>
0

>  <PUBCHEM_HEAVY_ATOM_COUNT>
21

>  <PUBCHEM_ATOM_DEF_STEREO_COUNT>
0

>  <PUBCHEM_ATOM_UDEF_STEREO_COUNT>
0

>  <PUBCHEM_BOND_DEF_STEREO_COUNT>
1

>  <PUBCHEM_BOND_UDEF_STEREO_COUNT>
0

>  <PUBCHEM_ISOTOPIC_ATOM_COUNT>
0

>  <PUBCHEM_COMPONENT_COUNT>
1

>  <PUBCHEM_CACTVS_TAUTO_COUNT>
5

>  <PUBCHEM_COORDINATE_TYPE>
1
5
255

>  <PUBCHEM_BONDANNOTATIONS>
10  11  8
10  13  8
15  18  8
16  19  8
17  18  8
17  19  8
5  7  8
5  8  8
6  15  8
6  16  8
7  11  8
8  13  8

$$$$
