5359405
 OpenBabel06101807152D

 30 33  0  0  0  0  0  0  0  0999 V2000
    6.7421   -0.3391    0.0000 O   0  0  0  0  0  0  0  0  0  0  0  0
    6.2619   -1.8085    0.0000 O   0  0  0  0  0  0  0  0  0  0  0  0
    4.4053    0.7515    0.0000 N   0  0  0  0  0  0  0  0  0  0  0  0
    4.6783   -2.6132    0.0000 N   0  0  0  0  0  0  0  0  0  0  0  0
    4.6783   -1.0038    0.0000 C   0  0  0  0  0  0  0  0  0  0  0  0
    4.9889   -0.0533    0.0000 C   0  0  0  0  0  0  0  0  0  0  0  0
    3.7320   -1.3085    0.0000 C   0  0  0  0  0  0  0  0  0  0  0  0
    3.7320   -2.3085    0.0000 C   0  0  0  0  0  0  0  0  0  0  0  0
    5.9394    1.2456    0.0000 C   0  0  0  0  0  0  0  0  0  0  0  0
    4.9889    1.5562    0.0000 C   0  0  0  0  0  0  0  0  0  0  0  0
    5.9352    0.2515    0.0000 C   0  0  0  0  0  0  0  0  0  0  0  0
    5.2619   -1.8085    0.0000 C   0  0  0  0  0  0  0  0  0  0  0  0
    2.8660   -0.8085    0.0000 C   0  0  0  0  0  0  0  0  0  0  0  0
    2.8660   -2.8085    0.0000 C   0  0  0  0  0  0  0  0  0  0  0  0
    6.6838    1.9134    0.0000 C   0  0  0  0  0  0  0  0  0  0  0  0
    4.7827    2.5347    0.0000 C   0  0  0  0  0  0  0  0  0  0  0  0
    2.0000   -1.3085    0.0000 C   0  0  0  0  0  0  0  0  0  0  0  0
    2.0000   -2.3085    0.0000 C   0  0  0  0  0  0  0  0  0  0  0  0
    6.4775    2.8919    0.0000 C   0  0  0  0  0  0  0  0  0  0  0  0
    5.5270    3.2026    0.0000 C   0  0  0  0  0  0  0  0  0  0  0  0
    3.7853    0.7515    0.0000 H   0  0  0  0  0  0  0  0  0  0  0  0
    4.8709   -3.2026    0.0000 H   0  0  0  0  0  0  0  0  0  0  0  0
    2.8660   -0.1885    0.0000 H   0  0  0  0  0  0  0  0  0  0  0  0
    2.8660   -3.4285    0.0000 H   0  0  0  0  0  0  0  0  0  0  0  0
    7.2731    1.7208    0.0000 H   0  0  0  0  0  0  0  0  0  0  0  0
    4.1934    2.7273    0.0000 H   0  0  0  0  0  0  0  0  0  0  0  0
    1.4631   -0.9985    0.0000 H   0  0  0  0  0  0  0  0  0  0  0  0
    1.4631   -2.6185    0.0000 H   0  0  0  0  0  0  0  0  0  0  0  0
    6.9390    3.3060    0.0000 H   0  0  0  0  0  0  0  0  0  0  0  0
    5.3992    3.8092    0.0000 H   0  0  0  0  0  0  0  0  0  0  0  0
  1 11  2  0  0  0  0
  2 12  2  0  0  0  0
  3  6  1  0  0  0  0
  3 10  1  0  0  0  0
  3 21  1  0  0  0  0
  4  8  1  0  0  0  0
  4 12  1  0  0  0  0
  4 22  1  0  0  0  0
  5  6  2  0  0  0  0
  5  7  1  0  0  0  0
  5 12  1  0  0  0  0
  6 11  1  0  0  0  0
  7  8  1  0  0  0  0
  7 13  2  0  0  0  0
  8 14  2  0  0  0  0
  9 10  1  0  0  0  0
  9 11  1  0  0  0  0
  9 15  2  0  0  0  0
 10 16  2  0  0  0  0
 13 17  1  0  0  0  0
 13 23  1  0  0  0  0
 14 18  1  0  0  0  0
 14 24  1  0  0  0  0
 15 19  1  0  0  0  0
 15 25  1  0  0  0  0
 16 20  1  0  0  0  0
 16 26  1  0  0  0  0
 17 18  2  0  0  0  0
 17 27  1  0  0  0  0
 18 28  1  0  0  0  0
 19 20  2  0  0  0  0
 19 29  1  0  0  0  0
 20 30  1  0  0  0  0
M  END
>  <PUBCHEM_COMPOUND_CID>
5359405

>  <PUBCHEM_COMPOUND_CANONICALIZED>
1

>  <PUBCHEM_CACTVS_COMPLEXITY>
497

>  <PUBCHEM_CACTVS_HBOND_ACCEPTOR>
3

>  <PUBCHEM_CACTVS_HBOND_DONOR>
2

>  <PUBCHEM_CACTVS_ROTATABLE_BOND>
0

>  <PUBCHEM_CACTVS_SUBSKEYS>
AAADccB7MAAAAAAAAAAAAAAAAAAAAWLAAAAwYAAAAAAAAFgBQAAAHgAQAAAADAyBmAAwwILAAACIAqVSUACCAAAlAgAIiAGAZMgIIDrAlbGEIYhglADIyccciICOAAAAAAACAAAAAAAAAAQAAAAAAAAAAA==

>  <PUBCHEM_IUPAC_OPENEYE_NAME>
(3E)-3-(3-oxoindolin-2-ylidene)indolin-2-one

>  <PUBCHEM_IUPAC_CAS_NAME>
(3E)-3-(3-oxo-1H-indol-2-ylidene)-1H-indol-2-one

>  <PUBCHEM_IUPAC_NAME>
(3E)-3-(3-oxo-1H-indol-2-ylidene)-1H-indol-2-one

>  <PUBCHEM_IUPAC_SYSTEMATIC_NAME>
(3E)-3-(3-oxidanylidene-1H-indol-2-ylidene)-1H-indol-2-one

>  <PUBCHEM_IUPAC_TRADITIONAL_NAME>
(3E)-3-(3-ketoindolin-2-ylidene)oxindole

>  <PUBCHEM_IUPAC_INCHI>
InChI=1S/C16H10N2O2/c19-15-10-6-2-4-8-12(10)17-14(15)13-9-5-1-3-7-11(9)18-16(13)20/h1-8,17H,(H,18,20)/b14-13+

>  <PUBCHEM_IUPAC_INCHIKEY>
CRDNMYFJWFXOCH-BUHFOSPRSA-N

>  <PUBCHEM_XLOGP3_AA>
2.3

>  <PUBCHEM_EXACT_MASS>
262.074

>  <PUBCHEM_MOLECULAR_FORMULA>
C16H10N2O2

>  <PUBCHEM_MOLECULAR_WEIGHT>
262.268

>  <PUBCHEM_OPENEYE_CAN_SMILES>
C1=CC=C2C(=C1)C(=C3C(=O)C4=CC=CC=C4N3)C(=O)N2

>  <PUBCHEM_OPENEYE_ISO_SMILES>
C1=CC=C2C(=C1)/C(=C\3/C(=O)C4=CC=CC=C4N3)/C(=O)N2

>  <PUBCHEM_CACTVS_TPSA>
58.2

>  <PUBCHEM_MONOISOTOPIC_WEIGHT>
262.074

>  <PUBCHEM_TOTAL_CHARGE>
0

>  <PUBCHEM_HEAVY_ATOM_COUNT>
20

>  <PUBCHEM_ATOM_DEF_STEREO_COUNT>
0

>  <PUBCHEM_ATOM_UDEF_STEREO_COUNT>
0

>  <PUBCHEM_BOND_DEF_STEREO_COUNT>
1

>  <PUBCHEM_BOND_UDEF_STEREO_COUNT>
0

>  <PUBCHEM_ISOTOPIC_ATOM_COUNT>
0

>  <PUBCHEM_COMPONENT_COUNT>
1

>  <PUBCHEM_CACTVS_TAUTO_COUNT>
44

>  <PUBCHEM_COORDINATE_TYPE>
1
5
255

>  <PUBCHEM_BONDANNOTATIONS>
10  16  8
13  17  8
14  18  8
15  19  8
16  20  8
17  18  8
19  20  8
7  13  8
7  8  8
8  14  8
9  10  8
9  15  8

$$$$
