5362588
 OpenBabel06101807152D

 23 22  0  0  1  0  0  0  0  0999 V2000
    4.5981   -1.2500    0.0000 O   0  0  0  0  0  0  0  0  0  0  0  0
    5.4641    0.2500    0.0000 C   0  0  3  0  0  0  0  0  0  0  0  0
    6.3301   -0.2500    0.0000 C   0  0  0  0  0  0  0  0  0  0  0  0
    5.4641    1.2500    0.0000 C   0  0  0  0  0  0  0  0  0  0  0  0
    4.5981   -0.2500    0.0000 C   0  0  0  0  0  0  0  0  0  0  0  0
    7.1962    0.2500    0.0000 C   0  0  0  0  0  0  0  0  0  0  0  0
    3.7320    0.2500    0.0000 C   0  0  0  0  0  0  0  0  0  0  0  0
    2.8660   -0.2500    0.0000 C   0  0  0  0  0  0  0  0  0  0  0  0
    2.0000    0.2500    0.0000 C   0  0  0  0  0  0  0  0  0  0  0  0
    6.2002    0.6750    0.0000 H   0  0  0  0  0  0  0  0  0  0  0  0
    5.9316   -0.7249    0.0000 H   0  0  0  0  0  0  0  0  0  0  0  0
    6.7287   -0.7249    0.0000 H   0  0  0  0  0  0  0  0  0  0  0  0
    6.0841    1.2500    0.0000 H   0  0  0  0  0  0  0  0  0  0  0  0
    5.4641    1.8700    0.0000 H   0  0  0  0  0  0  0  0  0  0  0  0
    4.8441    1.2500    0.0000 H   0  0  0  0  0  0  0  0  0  0  0  0
    7.5062   -0.2869    0.0000 H   0  0  0  0  0  0  0  0  0  0  0  0
    7.7331    0.5600    0.0000 H   0  0  0  0  0  0  0  0  0  0  0  0
    6.8862    0.7869    0.0000 H   0  0  0  0  0  0  0  0  0  0  0  0
    3.7320    0.8700    0.0000 H   0  0  0  0  0  0  0  0  0  0  0  0
    2.8660   -0.8700    0.0000 H   0  0  0  0  0  0  0  0  0  0  0  0
    2.3100    0.7869    0.0000 H   0  0  0  0  0  0  0  0  0  0  0  0
    1.4631    0.5600    0.0000 H   0  0  0  0  0  0  0  0  0  0  0  0
    1.6900   -0.2869    0.0000 H   0  0  0  0  0  0  0  0  0  0  0  0
  1  5  2  0  0  0  0
  2  3  1  0  0  0  0
  2  4  1  0  0  0  0
  2  5  1  0  0  0  0
  2 10  1  0  0  0  0
  3  6  1  0  0  0  0
  3 11  1  0  0  0  0
  3 12  1  0  0  0  0
  4 13  1  0  0  0  0
  4 14  1  0  0  0  0
  4 15  1  0  0  0  0
  5  7  1  0  0  0  0
  6 16  1  0  0  0  0
  6 17  1  0  0  0  0
  6 18  1  0  0  0  0
  7  8  2  0  0  0  0
  7 19  1  0  0  0  0
  8  9  1  0  0  0  0
  8 20  1  0  0  0  0
  9 21  1  0  0  0  0
  9 22  1  0  0  0  0
  9 23  1  0  0  0  0
M  END
>  <PUBCHEM_COMPOUND_CID>
5362588

>  <PUBCHEM_COMPOUND_CANONICALIZED>
1

>  <PUBCHEM_CACTVS_COMPLEXITY>
114

>  <PUBCHEM_CACTVS_HBOND_ACCEPTOR>
1

>  <PUBCHEM_CACTVS_HBOND_DONOR>
0

>  <PUBCHEM_CACTVS_ROTATABLE_BOND>
3

>  <PUBCHEM_CACTVS_SUBSKEYS>
AAADccBwIAAAAAAAAAAAAAAAAAAAAAAAAAAAAAAAAAAAAAAAAAAAGgAAAAAADQSAgAACAAAAAACIAKBSAAAAAAAgAAAICAEAAEgAABIAAQAAAAAAgAAIAYIAAAAKAAAAAAAAAAAAAAAAAAAAAAAAAAAAAA==

>  <PUBCHEM_IUPAC_OPENEYE_NAME>
(E)-5-methylhept-2-en-4-one

>  <PUBCHEM_IUPAC_CAS_NAME>
(E)-5-methyl-2-hepten-4-one

>  <PUBCHEM_IUPAC_NAME>
(E)-5-methylhept-2-en-4-one

>  <PUBCHEM_IUPAC_SYSTEMATIC_NAME>
(E)-5-methylhept-2-en-4-one

>  <PUBCHEM_IUPAC_TRADITIONAL_NAME>
(E)-5-methylhept-2-en-4-one

>  <PUBCHEM_IUPAC_INCHI>
InChI=1S/C8H14O/c1-4-6-8(9)7(3)5-2/h4,6-7H,5H2,1-3H3/b6-4+

>  <PUBCHEM_IUPAC_INCHIKEY>
ARJWAURHQDJJAC-GQCTYLIASA-N

>  <PUBCHEM_XLOGP3_AA>
2.2

>  <PUBCHEM_EXACT_MASS>
126.104

>  <PUBCHEM_MOLECULAR_FORMULA>
C8H14O

>  <PUBCHEM_MOLECULAR_WEIGHT>
126.199

>  <PUBCHEM_OPENEYE_CAN_SMILES>
CCC(C)C(=O)C=CC

>  <PUBCHEM_OPENEYE_ISO_SMILES>
CCC(C)C(=O)/C=C/C

>  <PUBCHEM_CACTVS_TPSA>
17.1

>  <PUBCHEM_MONOISOTOPIC_WEIGHT>
126.104

>  <PUBCHEM_TOTAL_CHARGE>
0

>  <PUBCHEM_HEAVY_ATOM_COUNT>
9

>  <PUBCHEM_ATOM_DEF_STEREO_COUNT>
0

>  <PUBCHEM_ATOM_UDEF_STEREO_COUNT>
1

>  <PUBCHEM_BOND_DEF_STEREO_COUNT>
1

>  <PUBCHEM_BOND_UDEF_STEREO_COUNT>
0

>  <PUBCHEM_ISOTOPIC_ATOM_COUNT>
0

>  <PUBCHEM_COMPONENT_COUNT>
1

>  <PUBCHEM_CACTVS_TAUTO_COUNT>
5

>  <PUBCHEM_COORDINATE_TYPE>
1
5
255

>  <PUBCHEM_BONDANNOTATIONS>
2  10  3

$$$$
