5362792
 OpenBabel06101807152D

 28 27  0  0  0  0  0  0  0  0999 V2000
    2.5369   -0.6900    0.0000 O   0  0  0  0  0  0  0  0  0  0  0  0
    5.1350   -0.1900    0.0000 C   0  0  0  0  0  0  0  0  0  0  0  0
    6.0010   -0.6900    0.0000 C   0  0  0  0  0  0  0  0  0  0  0  0
    4.2690   -0.6900    0.0000 C   0  0  0  0  0  0  0  0  0  0  0  0
    6.8671   -0.1900    0.0000 C   0  0  0  0  0  0  0  0  0  0  0  0
    3.4030   -0.1900    0.0000 C   0  0  0  0  0  0  0  0  0  0  0  0
    7.7331   -0.6900    0.0000 C   0  0  0  0  0  0  0  0  0  0  0  0
    8.5991   -0.1900    0.0000 C   0  0  0  0  0  0  0  0  0  0  0  0
    8.5991    0.8100    0.0000 C   0  0  0  0  0  0  0  0  0  0  0  0
    9.4651    1.3100    0.0000 C   0  0  0  0  0  0  0  0  0  0  0  0
    5.5335    0.2849    0.0000 H   0  0  0  0  0  0  0  0  0  0  0  0
    4.7365    0.2849    0.0000 H   0  0  0  0  0  0  0  0  0  0  0  0
    5.6025   -1.1650    0.0000 H   0  0  0  0  0  0  0  0  0  0  0  0
    6.3996   -1.1650    0.0000 H   0  0  0  0  0  0  0  0  0  0  0  0
    3.8705   -1.1650    0.0000 H   0  0  0  0  0  0  0  0  0  0  0  0
    4.6675   -1.1650    0.0000 H   0  0  0  0  0  0  0  0  0  0  0  0
    7.2656    0.2849    0.0000 H   0  0  0  0  0  0  0  0  0  0  0  0
    6.4685    0.2849    0.0000 H   0  0  0  0  0  0  0  0  0  0  0  0
    3.8015    0.2849    0.0000 H   0  0  0  0  0  0  0  0  0  0  0  0
    3.0044    0.2849    0.0000 H   0  0  0  0  0  0  0  0  0  0  0  0
    7.7331   -1.3100    0.0000 H   0  0  0  0  0  0  0  0  0  0  0  0
    9.1360   -0.5000    0.0000 H   0  0  0  0  0  0  0  0  0  0  0  0
    8.3871    1.3926    0.0000 H   0  0  0  0  0  0  0  0  0  0  0  0
    7.9885    0.7023    0.0000 H   0  0  0  0  0  0  0  0  0  0  0  0
    9.7751    0.7731    0.0000 H   0  0  0  0  0  0  0  0  0  0  0  0
   10.0021    1.6200    0.0000 H   0  0  0  0  0  0  0  0  0  0  0  0
    9.1551    1.8469    0.0000 H   0  0  0  0  0  0  0  0  0  0  0  0
    2.0000   -0.3800    0.0000 H   0  0  0  0  0  0  0  0  0  0  0  0
  1  6  1  0  0  0  0
  1 28  1  0  0  0  0
  2  3  1  0  0  0  0
  2  4  1  0  0  0  0
  2 11  1  0  0  0  0
  2 12  1  0  0  0  0
  3  5  1  0  0  0  0
  3 13  1  0  0  0  0
  3 14  1  0  0  0  0
  4  6  1  0  0  0  0
  4 15  1  0  0  0  0
  4 16  1  0  0  0  0
  5  7  1  0  0  0  0
  5 17  1  0  0  0  0
  5 18  1  0  0  0  0
  6 19  1  0  0  0  0
  6 20  1  0  0  0  0
  7  8  2  0  0  0  0
  7 21  1  0  0  0  0
  8  9  1  0  0  0  0
  8 22  1  0  0  0  0
  9 10  1  0  0  0  0
  9 23  1  0  0  0  0
  9 24  1  0  0  0  0
 10 25  1  0  0  0  0
 10 26  1  0  0  0  0
 10 27  1  0  0  0  0
M  END
>  <PUBCHEM_COMPOUND_CID>
5362792

>  <PUBCHEM_COMPOUND_CANONICALIZED>
1

>  <PUBCHEM_CACTVS_COMPLEXITY>
76.8

>  <PUBCHEM_CACTVS_HBOND_ACCEPTOR>
1

>  <PUBCHEM_CACTVS_HBOND_DONOR>
1

>  <PUBCHEM_CACTVS_ROTATABLE_BOND>
6

>  <PUBCHEM_CACTVS_SUBSKEYS>
AAADceBwIAAAAAAAAAAAAAAAAAAAAAAAAAAAAAAAAAAAAAAAAAAAGgAACAAACACggAICAAAAAgCAACBCAAAAAAAgAAAICAAAAAgAEAIAAQAAQAAEgAAIAAOAQAAAAAAAAAAAAAAAAAAAAAAAAAAAAAAAAA==

>  <PUBCHEM_IUPAC_OPENEYE_NAME>
(Z)-non-6-en-1-ol

>  <PUBCHEM_IUPAC_CAS_NAME>
(Z)-6-nonen-1-ol

>  <PUBCHEM_IUPAC_NAME>
(Z)-non-6-en-1-ol

>  <PUBCHEM_IUPAC_SYSTEMATIC_NAME>
(Z)-non-6-en-1-ol

>  <PUBCHEM_IUPAC_TRADITIONAL_NAME>
(Z)-non-6-en-1-ol

>  <PUBCHEM_IUPAC_INCHI>
InChI=1S/C9H18O/c1-2-3-4-5-6-7-8-9-10/h3-4,10H,2,5-9H2,1H3/b4-3-

>  <PUBCHEM_IUPAC_INCHIKEY>
XJHRZBIBSSVCEL-ARJAWSKDSA-N

>  <PUBCHEM_XLOGP3_AA>
2.6

>  <PUBCHEM_EXACT_MASS>
142.136

>  <PUBCHEM_MOLECULAR_FORMULA>
C9H18O

>  <PUBCHEM_MOLECULAR_WEIGHT>
142.242

>  <PUBCHEM_OPENEYE_CAN_SMILES>
CCC=CCCCCCO

>  <PUBCHEM_OPENEYE_ISO_SMILES>
CC/C=C\CCCCCO

>  <PUBCHEM_CACTVS_TPSA>
20.2

>  <PUBCHEM_MONOISOTOPIC_WEIGHT>
142.136

>  <PUBCHEM_TOTAL_CHARGE>
0

>  <PUBCHEM_HEAVY_ATOM_COUNT>
10

>  <PUBCHEM_ATOM_DEF_STEREO_COUNT>
0

>  <PUBCHEM_ATOM_UDEF_STEREO_COUNT>
0

>  <PUBCHEM_BOND_DEF_STEREO_COUNT>
1

>  <PUBCHEM_BOND_UDEF_STEREO_COUNT>
0

>  <PUBCHEM_ISOTOPIC_ATOM_COUNT>
0

>  <PUBCHEM_COMPONENT_COUNT>
1

>  <PUBCHEM_CACTVS_TAUTO_COUNT>
1

>  <PUBCHEM_COORDINATE_TYPE>
1
5
255

$$$$
