5363599
 OpenBabel06101807152D

 98 97  0  0  0  0  0  0  0  0999 V2000
   31.1158   -0.2500    0.0000 O   0  0  0  0  0  0  0  0  0  0  0  0
    2.5369    0.2500    0.0000 O   0  0  0  0  0  0  0  0  0  0  0  0
   26.7856    0.2500    0.0000 C   0  0  0  0  0  0  0  0  0  0  0  0
    6.8671   -0.2500    0.0000 C   0  0  0  0  0  0  0  0  0  0  0  0
   27.6517   -0.2500    0.0000 C   0  0  0  0  0  0  0  0  0  0  0  0
    6.0010    0.2500    0.0000 C   0  0  0  0  0  0  0  0  0  0  0  0
   25.9196   -0.2500    0.0000 C   0  0  0  0  0  0  0  0  0  0  0  0
    7.7331    0.2500    0.0000 C   0  0  0  0  0  0  0  0  0  0  0  0
   28.5177    0.2500    0.0000 C   0  0  0  0  0  0  0  0  0  0  0  0
    5.1350   -0.2500    0.0000 C   0  0  0  0  0  0  0  0  0  0  0  0
   29.3837   -0.2500    0.0000 C   0  0  0  0  0  0  0  0  0  0  0  0
    4.2690    0.2500    0.0000 C   0  0  0  0  0  0  0  0  0  0  0  0
   25.9196   -1.2500    0.0000 C   0  0  0  0  0  0  0  0  0  0  0  0
    7.7331    1.2500    0.0000 C   0  0  0  0  0  0  0  0  0  0  0  0
   25.0536    0.2500    0.0000 C   0  0  0  0  0  0  0  0  0  0  0  0
    8.5991   -0.2500    0.0000 C   0  0  0  0  0  0  0  0  0  0  0  0
   30.2497    0.2500    0.0000 C   0  0  0  0  0  0  0  0  0  0  0  0
    3.4030   -0.2500    0.0000 C   0  0  0  0  0  0  0  0  0  0  0  0
   29.3837   -1.2500    0.0000 C   0  0  0  0  0  0  0  0  0  0  0  0
    4.2690    1.2500    0.0000 C   0  0  0  0  0  0  0  0  0  0  0  0
   24.1876   -0.2500    0.0000 C   0  0  0  0  0  0  0  0  0  0  0  0
    9.4651    0.2500    0.0000 C   0  0  0  0  0  0  0  0  0  0  0  0
   23.3215    0.2500    0.0000 C   0  0  0  0  0  0  0  0  0  0  0  0
   10.3312   -0.2500    0.0000 C   0  0  0  0  0  0  0  0  0  0  0  0
   22.4555   -0.2500    0.0000 C   0  0  0  0  0  0  0  0  0  0  0  0
   11.1972    0.2500    0.0000 C   0  0  0  0  0  0  0  0  0  0  0  0
   22.4555   -1.2500    0.0000 C   0  0  0  0  0  0  0  0  0  0  0  0
   11.1972    1.2500    0.0000 C   0  0  0  0  0  0  0  0  0  0  0  0
   21.5895    0.2500    0.0000 C   0  0  0  0  0  0  0  0  0  0  0  0
   12.0632   -0.2500    0.0000 C   0  0  0  0  0  0  0  0  0  0  0  0
   20.7235   -0.2500    0.0000 C   0  0  0  0  0  0  0  0  0  0  0  0
   12.9292    0.2500    0.0000 C   0  0  0  0  0  0  0  0  0  0  0  0
   19.8574    0.2500    0.0000 C   0  0  0  0  0  0  0  0  0  0  0  0
   13.7953   -0.2500    0.0000 C   0  0  0  0  0  0  0  0  0  0  0  0
   18.9914   -0.2500    0.0000 C   0  0  0  0  0  0  0  0  0  0  0  0
   14.6613    0.2500    0.0000 C   0  0  0  0  0  0  0  0  0  0  0  0
   18.1254    0.2500    0.0000 C   0  0  0  0  0  0  0  0  0  0  0  0
   15.5273   -0.2500    0.0000 C   0  0  0  0  0  0  0  0  0  0  0  0
   18.9914   -1.2500    0.0000 C   0  0  0  0  0  0  0  0  0  0  0  0
   14.6613    1.2500    0.0000 C   0  0  0  0  0  0  0  0  0  0  0  0
   17.2594   -0.2500    0.0000 C   0  0  0  0  0  0  0  0  0  0  0  0
   16.3933    0.2500    0.0000 C   0  0  0  0  0  0  0  0  0  0  0  0
   27.1842    0.7249    0.0000 H   0  0  0  0  0  0  0  0  0  0  0  0
   26.3871    0.7249    0.0000 H   0  0  0  0  0  0  0  0  0  0  0  0
    6.4685   -0.7249    0.0000 H   0  0  0  0  0  0  0  0  0  0  0  0
    7.2656   -0.7249    0.0000 H   0  0  0  0  0  0  0  0  0  0  0  0
   27.2531   -0.7249    0.0000 H   0  0  0  0  0  0  0  0  0  0  0  0
   28.0502   -0.7249    0.0000 H   0  0  0  0  0  0  0  0  0  0  0  0
    6.3996    0.7249    0.0000 H   0  0  0  0  0  0  0  0  0  0  0  0
    5.6025    0.7249    0.0000 H   0  0  0  0  0  0  0  0  0  0  0  0
    5.1350   -0.8700    0.0000 H   0  0  0  0  0  0  0  0  0  0  0  0
   28.5177    0.8700    0.0000 H   0  0  0  0  0  0  0  0  0  0  0  0
    8.3531    1.2500    0.0000 H   0  0  0  0  0  0  0  0  0  0  0  0
    7.7331    1.8700    0.0000 H   0  0  0  0  0  0  0  0  0  0  0  0
    7.1131    1.2500    0.0000 H   0  0  0  0  0  0  0  0  0  0  0  0
   25.2996   -1.2500    0.0000 H   0  0  0  0  0  0  0  0  0  0  0  0
   25.9196   -1.8700    0.0000 H   0  0  0  0  0  0  0  0  0  0  0  0
   26.5396   -1.2500    0.0000 H   0  0  0  0  0  0  0  0  0  0  0  0
   25.0536    0.8700    0.0000 H   0  0  0  0  0  0  0  0  0  0  0  0
    8.5991   -0.8700    0.0000 H   0  0  0  0  0  0  0  0  0  0  0  0
   30.6483    0.7249    0.0000 H   0  0  0  0  0  0  0  0  0  0  0  0
   29.8512    0.7249    0.0000 H   0  0  0  0  0  0  0  0  0  0  0  0
    3.0044   -0.7249    0.0000 H   0  0  0  0  0  0  0  0  0  0  0  0
    3.8015   -0.7249    0.0000 H   0  0  0  0  0  0  0  0  0  0  0  0
   28.7637   -1.2500    0.0000 H   0  0  0  0  0  0  0  0  0  0  0  0
   29.3837   -1.8700    0.0000 H   0  0  0  0  0  0  0  0  0  0  0  0
   30.0037   -1.2500    0.0000 H   0  0  0  0  0  0  0  0  0  0  0  0
    4.8890    1.2500    0.0000 H   0  0  0  0  0  0  0  0  0  0  0  0
    4.2690    1.8700    0.0000 H   0  0  0  0  0  0  0  0  0  0  0  0
    3.6490    1.2500    0.0000 H   0  0  0  0  0  0  0  0  0  0  0  0
   24.1876   -0.8700    0.0000 H   0  0  0  0  0  0  0  0  0  0  0  0
    9.4651    0.8700    0.0000 H   0  0  0  0  0  0  0  0  0  0  0  0
   23.3215    0.8700    0.0000 H   0  0  0  0  0  0  0  0  0  0  0  0
   10.3312   -0.8700    0.0000 H   0  0  0  0  0  0  0  0  0  0  0  0
    2.0000   -0.0600    0.0000 H   0  0  0  0  0  0  0  0  0  0  0  0
   31.6527    0.0600    0.0000 H   0  0  0  0  0  0  0  0  0  0  0  0
   11.8172    1.2500    0.0000 H   0  0  0  0  0  0  0  0  0  0  0  0
   11.1972    1.8700    0.0000 H   0  0  0  0  0  0  0  0  0  0  0  0
   10.5772    1.2500    0.0000 H   0  0  0  0  0  0  0  0  0  0  0  0
   21.8355   -1.2500    0.0000 H   0  0  0  0  0  0  0  0  0  0  0  0
   22.4555   -1.8700    0.0000 H   0  0  0  0  0  0  0  0  0  0  0  0
   23.0755   -1.2500    0.0000 H   0  0  0  0  0  0  0  0  0  0  0  0
   21.5895    0.8700    0.0000 H   0  0  0  0  0  0  0  0  0  0  0  0
   12.0632   -0.8700    0.0000 H   0  0  0  0  0  0  0  0  0  0  0  0
   20.7235   -0.8700    0.0000 H   0  0  0  0  0  0  0  0  0  0  0  0
   12.9292    0.8700    0.0000 H   0  0  0  0  0  0  0  0  0  0  0  0
   19.8574    0.8700    0.0000 H   0  0  0  0  0  0  0  0  0  0  0  0
   13.7953   -0.8700    0.0000 H   0  0  0  0  0  0  0  0  0  0  0  0
   18.1254    0.8700    0.0000 H   0  0  0  0  0  0  0  0  0  0  0  0
   15.5273   -0.8700    0.0000 H   0  0  0  0  0  0  0  0  0  0  0  0
   18.3714   -1.2500    0.0000 H   0  0  0  0  0  0  0  0  0  0  0  0
   18.9914   -1.8700    0.0000 H   0  0  0  0  0  0  0  0  0  0  0  0
   19.6114   -1.2500    0.0000 H   0  0  0  0  0  0  0  0  0  0  0  0
   15.2813    1.2500    0.0000 H   0  0  0  0  0  0  0  0  0  0  0  0
   14.6613    1.8700    0.0000 H   0  0  0  0  0  0  0  0  0  0  0  0
   14.0413    1.2500    0.0000 H   0  0  0  0  0  0  0  0  0  0  0  0
   17.2594   -0.8700    0.0000 H   0  0  0  0  0  0  0  0  0  0  0  0
   16.3933    0.8700    0.0000 H   0  0  0  0  0  0  0  0  0  0  0  0
  1 17  1  0  0  0  0
  1 76  1  0  0  0  0
  2 18  1  0  0  0  0
  2 75  1  0  0  0  0
  3  5  1  0  0  0  0
  3  7  1  0  0  0  0
  3 43  1  0  0  0  0
  3 44  1  0  0  0  0
  4  6  1  0  0  0  0
  4  8  1  0  0  0  0
  4 45  1  0  0  0  0
  4 46  1  0  0  0  0
  5  9  1  0  0  0  0
  5 47  1  0  0  0  0
  5 48  1  0  0  0  0
  6 10  1  0  0  0  0
  6 49  1  0  0  0  0
  6 50  1  0  0  0  0
  7 13  1  0  0  0  0
  7 15  2  0  0  0  0
  8 14  1  0  0  0  0
  8 16  2  0  0  0  0
  9 11  2  0  0  0  0
  9 52  1  0  0  0  0
 10 12  2  0  0  0  0
 10 51  1  0  0  0  0
 11 17  1  0  0  0  0
 11 19  1  0  0  0  0
 12 18  1  0  0  0  0
 12 20  1  0  0  0  0
 13 56  1  0  0  0  0
 13 57  1  0  0  0  0
 13 58  1  0  0  0  0
 14 53  1  0  0  0  0
 14 54  1  0  0  0  0
 14 55  1  0  0  0  0
 15 21  1  0  0  0  0
 15 59  1  0  0  0  0
 16 22  1  0  0  0  0
 16 60  1  0  0  0  0
 17 61  1  0  0  0  0
 17 62  1  0  0  0  0
 18 63  1  0  0  0  0
 18 64  1  0  0  0  0
 19 65  1  0  0  0  0
 19 66  1  0  0  0  0
 19 67  1  0  0  0  0
 20 68  1  0  0  0  0
 20 69  1  0  0  0  0
 20 70  1  0  0  0  0
 21 23  2  0  0  0  0
 21 71  1  0  0  0  0
 22 24  2  0  0  0  0
 22 72  1  0  0  0  0
 23 25  1  0  0  0  0
 23 73  1  0  0  0  0
 24 26  1  0  0  0  0
 24 74  1  0  0  0  0
 25 27  1  0  0  0  0
 25 29  2  0  0  0  0
 26 28  1  0  0  0  0
 26 30  2  0  0  0  0
 27 80  1  0  0  0  0
 27 81  1  0  0  0  0
 27 82  1  0  0  0  0
 28 77  1  0  0  0  0
 28 78  1  0  0  0  0
 28 79  1  0  0  0  0
 29 31  1  0  0  0  0
 29 83  1  0  0  0  0
 30 32  1  0  0  0  0
 30 84  1  0  0  0  0
 31 33  2  0  0  0  0
 31 85  1  0  0  0  0
 32 34  2  0  0  0  0
 32 86  1  0  0  0  0
 33 35  1  0  0  0  0
 33 87  1  0  0  0  0
 34 36  1  0  0  0  0
 34 88  1  0  0  0  0
 35 37  2  0  0  0  0
 35 39  1  0  0  0  0
 36 38  2  0  0  0  0
 36 40  1  0  0  0  0
 37 41  1  0  0  0  0
 37 89  1  0  0  0  0
 38 42  1  0  0  0  0
 38 90  1  0  0  0  0
 39 91  1  0  0  0  0
 39 92  1  0  0  0  0
 39 93  1  0  0  0  0
 40 94  1  0  0  0  0
 40 95  1  0  0  0  0
 40 96  1  0  0  0  0
 41 42  2  0  0  0  0
 41 97  1  0  0  0  0
 42 98  1  0  0  0  0
M  END
>  <PUBCHEM_COMPOUND_CID>
5363599

>  <PUBCHEM_COMPOUND_CANONICALIZED>
1

>  <PUBCHEM_CACTVS_COMPLEXITY>
1100

>  <PUBCHEM_CACTVS_HBOND_ACCEPTOR>
2

>  <PUBCHEM_CACTVS_HBOND_DONOR>
2

>  <PUBCHEM_CACTVS_ROTATABLE_BOND>
18

>  <PUBCHEM_CACTVS_SUBSKEYS>
AAADcfB8MAAAAAAAAAAAAAAAAAAAAAAAAAAAAAAAAAAAAAAAAAAAGgAACAAADACggAICAAAAAgCAAiBCAAAAAAAgAAAICAAAAAgIFAIAAQAAUAAAgAAIkAIAAAAAAAAAAAAAAAAAAAAAAAAAAAAAAAAAAA==

>  <PUBCHEM_IUPAC_OPENEYE_NAME>
(2E,6E,8E,10E,12E,14E,16E,18E,20E,22E,24E,26E,30E)-2,6,10,14,19,23,27,31-octamethyldotriaconta-2,6,8,10,12,14,16,18,20,22,24,26,30-tridecaene-1,32-diol

>  <PUBCHEM_IUPAC_CAS_NAME>
(2E,6E,8E,10E,12E,14E,16E,18E,20E,22E,24E,26E,30E)-2,6,10,14,19,23,27,31-octamethyldotriaconta-2,6,8,10,12,14,16,18,20,22,24,26,30-tridecaene-1,32-diol

>  <PUBCHEM_IUPAC_NAME>
(2E,6E,8E,10E,12E,14E,16E,18E,20E,22E,24E,26E,30E)-2,6,10,14,19,23,27,31-octamethyldotriaconta-2,6,8,10,12,14,16,18,20,22,24,26,30-tridecaene-1,32-diol

>  <PUBCHEM_IUPAC_SYSTEMATIC_NAME>
(2E,6E,8E,10E,12E,14E,16E,18E,20E,22E,24E,26E,30E)-2,6,10,14,19,23,27,31-octamethyldotriaconta-2,6,8,10,12,14,16,18,20,22,24,26,30-tridecaene-1,32-diol

>  <PUBCHEM_IUPAC_TRADITIONAL_NAME>
(2E,6E,8E,10E,12E,14E,16E,18E,20E,22E,24E,26E,30E)-2,6,10,14,19,23,27,31-octamethyldotriaconta-2,6,8,10,12,14,16,18,20,22,24,26,30-tridecaene-1,32-diol

>  <PUBCHEM_IUPAC_INCHI>
InChI=1S/C40H56O2/c1-33(19-11-21-35(3)23-13-25-37(5)27-15-29-39(7)31-41)17-9-10-18-34(2)20-12-22-36(4)24-14-26-38(6)28-16-30-40(8)32-42/h9-14,17-26,29-30,41-42H,15-16,27-28,31-32H2,1-8H3/b10-9+,19-11+,20-12+,23-13+,24-14+,33-17+,34-18+,35-21+,36-22+,37-25+,38-26+,39-29+,40-30+

>  <PUBCHEM_IUPAC_INCHIKEY>
JEVVKJMRZMXFBT-CCHFXWJWSA-N

>  <PUBCHEM_XLOGP3_AA>
13.1

>  <PUBCHEM_EXACT_MASS>
568.428

>  <PUBCHEM_MOLECULAR_FORMULA>
C40H56O2

>  <PUBCHEM_MOLECULAR_WEIGHT>
568.886

>  <PUBCHEM_OPENEYE_CAN_SMILES>
CC(=CC=CC(=CC=CC(=CC=CC=C(C)C=CC=C(C)C=CC=C(C)CCC=C(C)CO)C)C)CCC=C(C)CO

>  <PUBCHEM_OPENEYE_ISO_SMILES>
C/C(=C\C=C\C(=C\C=C\C(=C\C=C\C=C(\C=C\C=C(\C=C\C=C(\CC/C=C(/CO)\C)/C)/C)/C)\C)\C)/CC/C=C(/CO)\C

>  <PUBCHEM_CACTVS_TPSA>
40.5

>  <PUBCHEM_MONOISOTOPIC_WEIGHT>
568.428

>  <PUBCHEM_TOTAL_CHARGE>
0

>  <PUBCHEM_HEAVY_ATOM_COUNT>
42

>  <PUBCHEM_ATOM_DEF_STEREO_COUNT>
0

>  <PUBCHEM_ATOM_UDEF_STEREO_COUNT>
0

>  <PUBCHEM_BOND_DEF_STEREO_COUNT>
13

>  <PUBCHEM_BOND_UDEF_STEREO_COUNT>
0

>  <PUBCHEM_ISOTOPIC_ATOM_COUNT>
0

>  <PUBCHEM_COMPONENT_COUNT>
1

>  <PUBCHEM_CACTVS_TAUTO_COUNT>
1

>  <PUBCHEM_COORDINATE_TYPE>
1
5
255

$$$$
