5364006
 OpenBabel06101807152D

 69 73  0  0  1  0  0  0  0  0999 V2000
    5.1350    0.5000    0.0000 O   0  0  0  0  0  0  0  0  0  0  0  0
    6.0010   -2.0000    0.0000 O   0  0  0  0  0  0  0  0  0  0  0  0
    4.2690   -2.0000    0.0000 O   0  0  0  0  0  0  0  0  0  0  0  0
    2.5369   -1.0000    0.0000 O   0  0  0  0  0  0  0  0  0  0  0  0
    2.5369    1.0000    0.0000 O   0  0  0  0  0  0  0  0  0  0  0  0
    6.8671   -3.5000    0.0000 O   0  0  0  0  0  0  0  0  0  0  0  0
    7.7331   -1.0000    0.0000 O   0  0  0  0  0  0  0  0  0  0  0  0
    9.4651   -2.0000    0.0000 O   0  0  0  0  0  0  0  0  0  0  0  0
    9.4651   -4.0000    0.0000 O   0  0  0  0  0  0  0  0  0  0  0  0
    6.0290    1.9653    0.0000 O   0  0  0  0  0  0  0  0  0  0  0  0
    7.7331   -5.0000    0.0000 O   0  0  0  0  0  0  0  0  0  0  0  0
    2.5369    2.0000    0.0000 O   0  0  0  0  0  0  0  0  0  0  0  0
    4.2690    5.0000    0.0000 O   0  0  0  0  0  0  0  0  0  0  0  0
    6.0174    5.0346    0.0000 O   0  0  0  0  0  0  0  0  0  0  0  0
   10.3914    0.4658    0.0000 O   0  0  0  0  0  0  0  0  0  0  0  0
    5.1350   -0.5000    0.0000 C   0  0  3  0  0  0  0  0  0  0  0  0
    4.2690   -1.0000    0.0000 C   0  0  3  0  0  0  0  0  0  0  0  0
    3.4030   -0.5000    0.0000 C   0  0  3  0  0  0  0  0  0  0  0  0
    3.4030    0.5000    0.0000 C   0  0  3  0  0  0  0  0  0  0  0  0
    4.2690    1.0000    0.0000 C   0  0  3  0  0  0  0  0  0  0  0  0
    6.0010   -1.0000    0.0000 C   0  0  0  0  0  0  0  0  0  0  0  0
    4.2690    2.0000    0.0000 C   0  0  0  0  0  0  0  0  0  0  0  0
    6.8671   -2.5000    0.0000 C   0  0  3  0  0  0  0  0  0  0  0  0
    7.7331   -2.0000    0.0000 C   0  0  3  0  0  0  0  0  0  0  0  0
    8.5991   -2.5000    0.0000 C   0  0  3  0  0  0  0  0  0  0  0  0
    8.5991   -3.5000    0.0000 C   0  0  3  0  0  0  0  0  0  0  0  0
    7.7331   -4.0000    0.0000 C   0  0  3  0  0  0  0  0  0  0  0  0
    5.1350    2.5000    0.0000 C   0  0  0  0  0  0  0  0  0  0  0  0
    3.4030    2.5000    0.0000 C   0  0  0  0  0  0  0  0  0  0  0  0
    5.1350    3.5000    0.0000 C   0  0  0  0  0  0  0  0  0  0  0  0
    3.4030    3.5000    0.0000 C   0  0  0  0  0  0  0  0  0  0  0  0
    4.2690    4.0000    0.0000 C   0  0  0  0  0  0  0  0  0  0  0  0
    6.0290    4.0347    0.0000 C   0  0  0  0  0  0  0  0  0  0  0  0
    6.9350    2.4792    0.0000 C   0  0  0  0  0  0  0  0  0  0  0  0
    6.9350    3.5208    0.0000 C   0  0  0  0  0  0  0  0  0  0  0  0
    7.7991    1.9758    0.0000 C   0  0  0  0  0  0  0  0  0  0  0  0
    7.7953    0.9759    0.0000 C   0  0  0  0  0  0  0  0  0  0  0  0
    8.6671    2.4725    0.0000 C   0  0  0  0  0  0  0  0  0  0  0  0
    8.6594    0.4725    0.0000 C   0  0  0  0  0  0  0  0  0  0  0  0
    9.5312    1.9692    0.0000 C   0  0  0  0  0  0  0  0  0  0  0  0
    9.5273    0.9692    0.0000 C   0  0  0  0  0  0  0  0  0  0  0  0
    5.6720   -0.1900    0.0000 H   0  0  0  0  0  0  0  0  0  0  0  0
    4.8059   -1.3100    0.0000 H   0  0  0  0  0  0  0  0  0  0  0  0
    3.4030   -1.1200    0.0000 H   0  0  0  0  0  0  0  0  0  0  0  0
    3.4030    1.1200    0.0000 H   0  0  0  0  0  0  0  0  0  0  0  0
    4.8059    1.3100    0.0000 H   0  0  0  0  0  0  0  0  0  0  0  0
    6.6116   -1.1077    0.0000 H   0  0  0  0  0  0  0  0  0  0  0  0
    6.2131   -0.4174    0.0000 H   0  0  0  0  0  0  0  0  0  0  0  0
    6.3301   -2.8100    0.0000 H   0  0  0  0  0  0  0  0  0  0  0  0
    8.2700   -1.6900    0.0000 H   0  0  0  0  0  0  0  0  0  0  0  0
    9.1360   -2.8100    0.0000 H   0  0  0  0  0  0  0  0  0  0  0  0
    8.5991   -4.1200    0.0000 H   0  0  0  0  0  0  0  0  0  0  0  0
    7.1962   -4.3100    0.0000 H   0  0  0  0  0  0  0  0  0  0  0  0
    3.7320   -2.3100    0.0000 H   0  0  0  0  0  0  0  0  0  0  0  0
    2.5369   -1.6200    0.0000 H   0  0  0  0  0  0  0  0  0  0  0  0
    2.0000    0.6900    0.0000 H   0  0  0  0  0  0  0  0  0  0  0  0
    2.8660    3.8100    0.0000 H   0  0  0  0  0  0  0  0  0  0  0  0
    8.2700   -0.6900    0.0000 H   0  0  0  0  0  0  0  0  0  0  0  0
   10.0021   -2.3100    0.0000 H   0  0  0  0  0  0  0  0  0  0  0  0
    9.4651   -4.6200    0.0000 H   0  0  0  0  0  0  0  0  0  0  0  0
    7.1962   -5.3100    0.0000 H   0  0  0  0  0  0  0  0  0  0  0  0
    2.0000    2.3100    0.0000 H   0  0  0  0  0  0  0  0  0  0  0  0
    7.4708    3.8329    0.0000 H   0  0  0  0  0  0  0  0  0  0  0  0
    3.7320    5.3100    0.0000 H   0  0  0  0  0  0  0  0  0  0  0  0
    7.2571    0.6679    0.0000 H   0  0  0  0  0  0  0  0  0  0  0  0
    8.6694    3.0925    0.0000 H   0  0  0  0  0  0  0  0  0  0  0  0
    8.6570   -0.1475    0.0000 H   0  0  0  0  0  0  0  0  0  0  0  0
   10.0693    2.2771    0.0000 H   0  0  0  0  0  0  0  0  0  0  0  0
   10.9295    0.7738    0.0000 H   0  0  0  0  0  0  0  0  0  0  0  0
  1 16  1  0  0  0  0
  1 20  1  0  0  0  0
  2 21  1  0  0  0  0
  2 23  1  0  0  0  0
  3 17  1  0  0  0  0
  3 54  1  0  0  0  0
  4 18  1  0  0  0  0
  4 55  1  0  0  0  0
  5 19  1  0  0  0  0
  5 56  1  0  0  0  0
  6 23  1  0  0  0  0
  6 27  1  0  0  0  0
  7 24  1  0  0  0  0
  7 58  1  0  0  0  0
  8 25  1  0  0  0  0
  8 59  1  0  0  0  0
  9 26  1  0  0  0  0
  9 60  1  0  0  0  0
 10 28  1  0  0  0  0
 10 34  1  0  0  0  0
 11 27  1  0  0  0  0
 11 61  1  0  0  0  0
 12 29  1  0  0  0  0
 12 62  1  0  0  0  0
 13 32  1  0  0  0  0
 13 64  1  0  0  0  0
 14 33  2  0  0  0  0
 15 41  1  0  0  0  0
 15 69  1  0  0  0  0
 16 17  1  0  0  0  0
 16 21  1  0  0  0  0
 16 42  1  0  0  0  0
 17 18  1  0  0  0  0
 17 43  1  0  0  0  0
 18 19  1  0  0  0  0
 18 44  1  0  0  0  0
 19 20  1  0  0  0  0
 19 45  1  0  0  0  0
 20 22  1  0  0  0  0
 20 46  1  0  0  0  0
 21 47  1  0  0  0  0
 21 48  1  0  0  0  0
 22 28  1  0  0  0  0
 22 29  2  0  0  0  0
 23 24  1  0  0  0  0
 23 49  1  0  0  0  0
 24 25  1  0  0  0  0
 24 50  1  0  0  0  0
 25 26  1  0  0  0  0
 25 51  1  0  0  0  0
 26 27  1  0  0  0  0
 26 52  1  0  0  0  0
 27 53  1  0  0  0  0
 28 30  2  0  0  0  0
 29 31  1  0  0  0  0
 30 32  1  0  0  0  0
 30 33  1  0  0  0  0
 31 32  2  0  0  0  0
 31 57  1  0  0  0  0
 33 35  1  0  0  0  0
 34 35  2  0  0  0  0
 34 36  1  0  0  0  0
 35 63  1  0  0  0  0
 36 37  2  0  0  0  0
 36 38  1  0  0  0  0
 37 39  1  0  0  0  0
 37 65  1  0  0  0  0
 38 40  2  0  0  0  0
 38 66  1  0  0  0  0
 39 41  2  0  0  0  0
 39 67  1  0  0  0  0
 40 41  1  0  0  0  0
 40 68  1  0  0  0  0
M  END
>  <PUBCHEM_COMPOUND_CID>
5364006

>  <PUBCHEM_COMPOUND_CANONICALIZED>
1

>  <PUBCHEM_CACTVS_COMPLEXITY>
955

>  <PUBCHEM_CACTVS_HBOND_ACCEPTOR>
15

>  <PUBCHEM_CACTVS_HBOND_DONOR>
10

>  <PUBCHEM_CACTVS_ROTATABLE_BOND>
5

>  <PUBCHEM_CACTVS_SUBSKEYS>
AAADceB4PAAAAAAAAAAAAAAAAAAAAAAAAAA0aIECAAAAAACBQAAAGgAACAAADBSwmAMwDoAABgCIAqBSAAACCAAkIAAIiAEGCMgdNzaGNRqieWCl4BUPuQfI7PzOIAACCAAIAABAAAQQABAAAAAAAAAAAA==

>  <PUBCHEM_IUPAC_OPENEYE_NAME>
5,7-dihydroxy-2-(4-hydroxyphenyl)-8-[3,4,5-trihydroxy-6-[(3,4,5,6-tetrahydroxytetrahydropyran-2-yl)oxymethyl]tetrahydropyran-2-yl]chromen-4-one

>  <PUBCHEM_IUPAC_CAS_NAME>
5,7-dihydroxy-2-(4-hydroxyphenyl)-8-[3,4,5-trihydroxy-6-[(3,4,5,6-tetrahydroxy-2-oxanyl)oxymethyl]-2-oxanyl]-1-benzopyran-4-one

>  <PUBCHEM_IUPAC_NAME>
5,7-dihydroxy-2-(4-hydroxyphenyl)-8-[3,4,5-trihydroxy-6-[(3,4,5,6-tetrahydroxyoxan-2-yl)oxymethyl]oxan-2-yl]chromen-4-one

>  <PUBCHEM_IUPAC_SYSTEMATIC_NAME>
2-(4-hydroxyphenyl)-5,7-bis(oxidanyl)-8-[3,4,5-tris(oxidanyl)-6-[[3,4,5,6-tetrakis(oxidanyl)oxan-2-yl]oxymethyl]oxan-2-yl]chromen-4-one

>  <PUBCHEM_IUPAC_TRADITIONAL_NAME>
5,7-dihydroxy-2-(4-hydroxyphenyl)-8-[3,4,5-trihydroxy-6-[(3,4,5,6-tetrahydroxytetrahydropyran-2-yl)oxymethyl]tetrahydropyran-2-yl]chromone

>  <PUBCHEM_IUPAC_INCHI>
InChI=1S/C26H28O15/c27-9-3-1-8(2-4-9)13-6-12(30)15-10(28)5-11(29)16(23(15)39-13)24-20(34)18(32)17(31)14(40-24)7-38-26-22(36)19(33)21(35)25(37)41-26/h1-6,14,17-22,24-29,31-37H,7H2

>  <PUBCHEM_IUPAC_INCHIKEY>
JPMTYZSEANLMKJ-UHFFFAOYSA-N

>  <PUBCHEM_XLOGP3_AA>
-2.4

>  <PUBCHEM_EXACT_MASS>
580.143

>  <PUBCHEM_MOLECULAR_FORMULA>
C26H28O15

>  <PUBCHEM_MOLECULAR_WEIGHT>
580.495

>  <PUBCHEM_OPENEYE_CAN_SMILES>
C1=CC(=CC=C1C2=CC(=O)C3=C(O2)C(=C(C=C3O)O)C4C(C(C(C(O4)COC5C(C(C(C(O5)O)O)O)O)O)O)O)O

>  <PUBCHEM_OPENEYE_ISO_SMILES>
C1=CC(=CC=C1C2=CC(=O)C3=C(O2)C(=C(C=C3O)O)C4C(C(C(C(O4)COC5C(C(C(C(O5)O)O)O)O)O)O)O)O

>  <PUBCHEM_CACTVS_TPSA>
256

>  <PUBCHEM_MONOISOTOPIC_WEIGHT>
580.143

>  <PUBCHEM_TOTAL_CHARGE>
0

>  <PUBCHEM_HEAVY_ATOM_COUNT>
41

>  <PUBCHEM_ATOM_DEF_STEREO_COUNT>
0

>  <PUBCHEM_ATOM_UDEF_STEREO_COUNT>
10

>  <PUBCHEM_BOND_DEF_STEREO_COUNT>
0

>  <PUBCHEM_BOND_UDEF_STEREO_COUNT>
0

>  <PUBCHEM_ISOTOPIC_ATOM_COUNT>
0

>  <PUBCHEM_COMPONENT_COUNT>
1

>  <PUBCHEM_CACTVS_TAUTO_COUNT>
57

>  <PUBCHEM_COORDINATE_TYPE>
1
5
255

>  <PUBCHEM_BONDANNOTATIONS>
10  28  8
10  34  8
27  11  3
16  21  3
23  2  3
20  22  3
22  28  8
22  29  8
28  30  8
29  31  8
17  3  3
30  32  8
30  33  8
31  32  8
33  35  8
34  35  8
36  37  8
36  38  8
37  39  8
38  40  8
39  41  8
18  4  3
40  41  8
19  5  3
24  7  3
25  8  3
26  9  3

$$$$
