5364631
 OpenBabel06101807152D

 28 27  0  0  0  0  0  0  0  0999 V2000
    8.0622   -1.6550    0.0000 O   0  0  0  0  0  0  0  0  0  0  0  0
    4.5981    1.3450    0.0000 C   0  0  0  0  0  0  0  0  0  0  0  0
    3.7320    0.8450    0.0000 C   0  0  0  0  0  0  0  0  0  0  0  0
    5.4641    0.8450    0.0000 C   0  0  0  0  0  0  0  0  0  0  0  0
    2.8660    1.3450    0.0000 C   0  0  0  0  0  0  0  0  0  0  0  0
    6.3301    1.3450    0.0000 C   0  0  0  0  0  0  0  0  0  0  0  0
    2.0000    0.8450    0.0000 C   0  0  0  0  0  0  0  0  0  0  0  0
    7.1962    0.8450    0.0000 C   0  0  0  0  0  0  0  0  0  0  0  0
    7.1962   -0.1550    0.0000 C   0  0  0  0  0  0  0  0  0  0  0  0
    8.0622   -0.6550    0.0000 C   0  0  0  0  0  0  0  0  0  0  0  0
    4.9966    1.8200    0.0000 H   0  0  0  0  0  0  0  0  0  0  0  0
    4.1996    1.8200    0.0000 H   0  0  0  0  0  0  0  0  0  0  0  0
    3.3335    0.3701    0.0000 H   0  0  0  0  0  0  0  0  0  0  0  0
    4.1306    0.3701    0.0000 H   0  0  0  0  0  0  0  0  0  0  0  0
    5.0656    0.3701    0.0000 H   0  0  0  0  0  0  0  0  0  0  0  0
    5.8626    0.3701    0.0000 H   0  0  0  0  0  0  0  0  0  0  0  0
    3.2646    1.8200    0.0000 H   0  0  0  0  0  0  0  0  0  0  0  0
    2.4675    1.8200    0.0000 H   0  0  0  0  0  0  0  0  0  0  0  0
    6.3301    1.9650    0.0000 H   0  0  0  0  0  0  0  0  0  0  0  0
    1.6900    1.3819    0.0000 H   0  0  0  0  0  0  0  0  0  0  0  0
    1.4631    0.5350    0.0000 H   0  0  0  0  0  0  0  0  0  0  0  0
    2.3100    0.3081    0.0000 H   0  0  0  0  0  0  0  0  0  0  0  0
    7.7331    1.1550    0.0000 H   0  0  0  0  0  0  0  0  0  0  0  0
    6.5856   -0.0473    0.0000 H   0  0  0  0  0  0  0  0  0  0  0  0
    6.9841   -0.7376    0.0000 H   0  0  0  0  0  0  0  0  0  0  0  0
    8.6728   -0.7627    0.0000 H   0  0  0  0  0  0  0  0  0  0  0  0
    8.2742   -0.0724    0.0000 H   0  0  0  0  0  0  0  0  0  0  0  0
    8.5991   -1.9650    0.0000 H   0  0  0  0  0  0  0  0  0  0  0  0
  1 10  1  0  0  0  0
  1 28  1  0  0  0  0
  2  3  1  0  0  0  0
  2  4  1  0  0  0  0
  2 11  1  0  0  0  0
  2 12  1  0  0  0  0
  3  5  1  0  0  0  0
  3 13  1  0  0  0  0
  3 14  1  0  0  0  0
  4  6  1  0  0  0  0
  4 15  1  0  0  0  0
  4 16  1  0  0  0  0
  5  7  1  0  0  0  0
  5 17  1  0  0  0  0
  5 18  1  0  0  0  0
  6  8  2  0  0  0  0
  6 19  1  0  0  0  0
  7 20  1  0  0  0  0
  7 21  1  0  0  0  0
  7 22  1  0  0  0  0
  8  9  1  0  0  0  0
  8 23  1  0  0  0  0
  9 10  1  0  0  0  0
  9 24  1  0  0  0  0
  9 25  1  0  0  0  0
 10 26  1  0  0  0  0
 10 27  1  0  0  0  0
M  END
>  <PUBCHEM_COMPOUND_CID>
5364631

>  <PUBCHEM_COMPOUND_CANONICALIZED>
1

>  <PUBCHEM_CACTVS_COMPLEXITY>
76.8

>  <PUBCHEM_CACTVS_HBOND_ACCEPTOR>
1

>  <PUBCHEM_CACTVS_HBOND_DONOR>
1

>  <PUBCHEM_CACTVS_ROTATABLE_BOND>
6

>  <PUBCHEM_CACTVS_SUBSKEYS>
AAADceBwIAAAAAAAAAAAAAAAAAAAAAAAAAAAAAAAAAAAAAAAAAAAGgAACAAACACggAICAAAAAgCAACBCAAAAAAAgAAAICAAAAAgAEAIAAQAAQAAAwAAIAAMAAAAAAAAAAAAAAAAAAAAAAAAAAAAAAAAAAA==

>  <PUBCHEM_IUPAC_OPENEYE_NAME>
(Z)-non-3-en-1-ol

>  <PUBCHEM_IUPAC_CAS_NAME>
(Z)-3-nonen-1-ol

>  <PUBCHEM_IUPAC_NAME>
(Z)-non-3-en-1-ol

>  <PUBCHEM_IUPAC_SYSTEMATIC_NAME>
(Z)-non-3-en-1-ol

>  <PUBCHEM_IUPAC_TRADITIONAL_NAME>
(Z)-non-3-en-1-ol

>  <PUBCHEM_IUPAC_INCHI>
InChI=1S/C9H18O/c1-2-3-4-5-6-7-8-9-10/h6-7,10H,2-5,8-9H2,1H3/b7-6-

>  <PUBCHEM_IUPAC_INCHIKEY>
IFTBJDZSLBRRMC-SREVYHEPSA-N

>  <PUBCHEM_XLOGP3_AA>
2.9

>  <PUBCHEM_EXACT_MASS>
142.136

>  <PUBCHEM_MOLECULAR_FORMULA>
C9H18O

>  <PUBCHEM_MOLECULAR_WEIGHT>
142.242

>  <PUBCHEM_OPENEYE_CAN_SMILES>
CCCCCC=CCCO

>  <PUBCHEM_OPENEYE_ISO_SMILES>
CCCCC/C=C\CCO

>  <PUBCHEM_CACTVS_TPSA>
20.2

>  <PUBCHEM_MONOISOTOPIC_WEIGHT>
142.136

>  <PUBCHEM_TOTAL_CHARGE>
0

>  <PUBCHEM_HEAVY_ATOM_COUNT>
10

>  <PUBCHEM_ATOM_DEF_STEREO_COUNT>
0

>  <PUBCHEM_ATOM_UDEF_STEREO_COUNT>
0

>  <PUBCHEM_BOND_DEF_STEREO_COUNT>
1

>  <PUBCHEM_BOND_UDEF_STEREO_COUNT>
0

>  <PUBCHEM_ISOTOPIC_ATOM_COUNT>
0

>  <PUBCHEM_COMPONENT_COUNT>
1

>  <PUBCHEM_CACTVS_TAUTO_COUNT>
1

>  <PUBCHEM_COORDINATE_TYPE>
1
5
255

$$$$
