5366084
 OpenBabel06101807152D

 16 15  0  0  0  0  0  0  0  0999 V2000
    3.7320   -1.5600    0.0000 O   0  0  0  0  0  0  0  0  0  0  0  0
    5.4641   -0.5600    0.0000 O   0  0  0  0  0  0  0  0  0  0  0  0
    2.0000    1.4400    0.0000 O   0  0  0  0  0  0  0  0  0  0  0  0
    4.5981    0.9400    0.0000 O   0  0  0  0  0  0  0  0  0  0  0  0
    3.7320    1.4400    0.0000 O   0  0  0  0  0  0  0  0  0  0  0  0
    3.7320   -0.5600    0.0000 C   0  0  0  0  0  0  0  0  0  0  0  0
    2.8660   -0.0600    0.0000 C   0  0  0  0  0  0  0  0  0  0  0  0
    4.5981   -0.0600    0.0000 C   0  0  0  0  0  0  0  0  0  0  0  0
    2.8660   -2.0600    0.0000 C   0  0  0  0  0  0  0  0  0  0  0  0
    2.8660    0.9400    0.0000 C   0  0  0  0  0  0  0  0  0  0  0  0
    2.3291   -0.3700    0.0000 H   0  0  0  0  0  0  0  0  0  0  0  0
    2.5560   -1.5231    0.0000 H   0  0  0  0  0  0  0  0  0  0  0  0
    2.3291   -2.3700    0.0000 H   0  0  0  0  0  0  0  0  0  0  0  0
    3.1760   -2.5969    0.0000 H   0  0  0  0  0  0  0  0  0  0  0  0
    6.0010   -0.2500    0.0000 H   0  0  0  0  0  0  0  0  0  0  0  0
    2.0000    2.0600    0.0000 H   0  0  0  0  0  0  0  0  0  0  0  0
  1  6  1  0  0  0  0
  1  9  1  0  0  0  0
  2  8  1  0  0  0  0
  2 15  1  0  0  0  0
  3 10  1  0  0  0  0
  3 16  1  0  0  0  0
  4  8  2  0  0  0  0
  5 10  2  0  0  0  0
  6  7  2  0  0  0  0
  6  8  1  0  0  0  0
  7 10  1  0  0  0  0
  7 11  1  0  0  0  0
  9 12  1  0  0  0  0
  9 13  1  0  0  0  0
  9 14  1  0  0  0  0
M  END
>  <PUBCHEM_COMPOUND_CID>
5366084

>  <PUBCHEM_COMPOUND_CANONICALIZED>
1

>  <PUBCHEM_CACTVS_COMPLEXITY>
181

>  <PUBCHEM_CACTVS_HBOND_ACCEPTOR>
5

>  <PUBCHEM_CACTVS_HBOND_DONOR>
2

>  <PUBCHEM_CACTVS_ROTATABLE_BOND>
3

>  <PUBCHEM_CACTVS_SUBSKEYS>
AAADcYBgOAAAAAAAAAAAAAAAAAAAAAAAAAAAAAAAAAAAAAAAAAAAGgAACAAACASAgAICCAAABgCIACDSCAIACAAAIAAACABAAEABBAAAAAQAEAAAAAADEYAAAAAAAAAAAAAAAAAAAAAAAAAAAAAAAAAAAA==

>  <PUBCHEM_IUPAC_OPENEYE_NAME>
(E)-2-methoxybut-2-enedioic acid

>  <PUBCHEM_IUPAC_CAS_NAME>
(E)-2-methoxy-2-butenedioic acid

>  <PUBCHEM_IUPAC_NAME>
(E)-2-methoxybut-2-enedioic acid

>  <PUBCHEM_IUPAC_SYSTEMATIC_NAME>
(E)-2-methoxybut-2-enedioic acid

>  <PUBCHEM_IUPAC_TRADITIONAL_NAME>
(E)-2-methoxybut-2-enedioic acid

>  <PUBCHEM_IUPAC_INCHI>
InChI=1S/C5H6O5/c1-10-3(5(8)9)2-4(6)7/h2H,1H3,(H,6,7)(H,8,9)/b3-2+

>  <PUBCHEM_IUPAC_INCHIKEY>
AHJCDQGRYVBQQZ-NSCUHMNNSA-N

>  <PUBCHEM_XLOGP3_AA>
-0.3

>  <PUBCHEM_EXACT_MASS>
146.022

>  <PUBCHEM_MOLECULAR_FORMULA>
C5H6O5

>  <PUBCHEM_MOLECULAR_WEIGHT>
146.098

>  <PUBCHEM_OPENEYE_CAN_SMILES>
COC(=CC(=O)O)C(=O)O

>  <PUBCHEM_OPENEYE_ISO_SMILES>
CO/C(=C/C(=O)O)/C(=O)O

>  <PUBCHEM_CACTVS_TPSA>
83.8

>  <PUBCHEM_MONOISOTOPIC_WEIGHT>
146.022

>  <PUBCHEM_TOTAL_CHARGE>
0

>  <PUBCHEM_HEAVY_ATOM_COUNT>
10

>  <PUBCHEM_ATOM_DEF_STEREO_COUNT>
0

>  <PUBCHEM_ATOM_UDEF_STEREO_COUNT>
0

>  <PUBCHEM_BOND_DEF_STEREO_COUNT>
1

>  <PUBCHEM_BOND_UDEF_STEREO_COUNT>
0

>  <PUBCHEM_ISOTOPIC_ATOM_COUNT>
0

>  <PUBCHEM_COMPONENT_COUNT>
1

>  <PUBCHEM_CACTVS_TAUTO_COUNT>
1

>  <PUBCHEM_COORDINATE_TYPE>
1
5
255

$$$$
