5373127
 OpenBabel06101807152D

 25 25  0  0  0  0  0  0  0  0999 V2000
    2.0000   -1.0094    0.0000 O   0  0  0  0  0  0  0  0  0  0  0  0
    4.2601   -2.2694    0.0000 C   0  0  0  0  0  0  0  0  0  0  0  0
    4.5691   -1.3184    0.0000 C   0  0  0  0  0  0  0  0  0  0  0  0
    3.2601   -2.2694    0.0000 C   0  0  0  0  0  0  0  0  0  0  0  0
    3.7601   -0.7306    0.0000 C   0  0  0  0  0  0  0  0  0  0  0  0
    2.9511   -1.3184    0.0000 C   0  0  0  0  0  0  0  0  0  0  0  0
    3.7601    0.2694    0.0000 C   0  0  0  0  0  0  0  0  0  0  0  0
    5.5202   -1.0094    0.0000 C   0  0  0  0  0  0  0  0  0  0  0  0
    4.6261    0.7694    0.0000 C   0  0  0  0  0  0  0  0  0  0  0  0
    4.6261    1.7694    0.0000 C   0  0  0  0  0  0  0  0  0  0  0  0
    3.7601    2.2694    0.0000 C   0  0  0  0  0  0  0  0  0  0  0  0
    4.1953   -2.8860    0.0000 H   0  0  0  0  0  0  0  0  0  0  0  0
    4.8665   -2.3983    0.0000 H   0  0  0  0  0  0  0  0  0  0  0  0
    2.6536   -2.3983    0.0000 H   0  0  0  0  0  0  0  0  0  0  0  0
    3.3249   -2.8860    0.0000 H   0  0  0  0  0  0  0  0  0  0  0  0
    3.5480    0.8520    0.0000 H   0  0  0  0  0  0  0  0  0  0  0  0
    3.1495    0.1618    0.0000 H   0  0  0  0  0  0  0  0  0  0  0  0
    5.7117   -1.5990    0.0000 H   0  0  0  0  0  0  0  0  0  0  0  0
    6.1098   -0.8178    0.0000 H   0  0  0  0  0  0  0  0  0  0  0  0
    5.3286   -0.4197    0.0000 H   0  0  0  0  0  0  0  0  0  0  0  0
    5.1630    0.4594    0.0000 H   0  0  0  0  0  0  0  0  0  0  0  0
    5.1630    2.0794    0.0000 H   0  0  0  0  0  0  0  0  0  0  0  0
    4.0701    2.8064    0.0000 H   0  0  0  0  0  0  0  0  0  0  0  0
    3.2231    2.5794    0.0000 H   0  0  0  0  0  0  0  0  0  0  0  0
    3.4501    1.7325    0.0000 H   0  0  0  0  0  0  0  0  0  0  0  0
  1  6  2  0  0  0  0
  2  3  1  0  0  0  0
  2  4  1  0  0  0  0
  2 12  1  0  0  0  0
  2 13  1  0  0  0  0
  3  5  2  0  0  0  0
  3  8  1  0  0  0  0
  4  6  1  0  0  0  0
  4 14  1  0  0  0  0
  4 15  1  0  0  0  0
  5  6  1  0  0  0  0
  5  7  1  0  0  0  0
  7  9  1  0  0  0  0
  7 16  1  0  0  0  0
  7 17  1  0  0  0  0
  8 18  1  0  0  0  0
  8 19  1  0  0  0  0
  8 20  1  0  0  0  0
  9 10  2  0  0  0  0
  9 21  1  0  0  0  0
 10 11  1  0  0  0  0
 10 22  1  0  0  0  0
 11 23  1  0  0  0  0
 11 24  1  0  0  0  0
 11 25  1  0  0  0  0
M  END
>  <PUBCHEM_COMPOUND_CID>
5373127

>  <PUBCHEM_COMPOUND_CANONICALIZED>
1

>  <PUBCHEM_CACTVS_COMPLEXITY>
221

>  <PUBCHEM_CACTVS_HBOND_ACCEPTOR>
1

>  <PUBCHEM_CACTVS_HBOND_DONOR>
0

>  <PUBCHEM_CACTVS_ROTATABLE_BOND>
2

>  <PUBCHEM_CACTVS_SUBSKEYS>
AAADccBwIAAAAAAAAAAAAAAAAAAAAQAAAAAAAAAAAAAAAAAAAAAAGgAAAAAADASAgAACAAAAAACIAqBSAAAAAAAgAAAICAEAAEgAABIAAQAAAAAAgAAIAQMIgIAAAAAAAAAAAAAAAAAAAAAAAAAAAAAAAA==

>  <PUBCHEM_IUPAC_OPENEYE_NAME>
2-[(Z)-but-2-enyl]-3-methyl-cyclopent-2-en-1-one

>  <PUBCHEM_IUPAC_CAS_NAME>
2-[(Z)-but-2-enyl]-3-methyl-1-cyclopent-2-enone

>  <PUBCHEM_IUPAC_NAME>
2-[(Z)-but-2-enyl]-3-methylcyclopent-2-en-1-one

>  <PUBCHEM_IUPAC_SYSTEMATIC_NAME>
2-[(Z)-but-2-enyl]-3-methyl-cyclopent-2-en-1-one

>  <PUBCHEM_IUPAC_TRADITIONAL_NAME>
2-[(Z)-but-2-enyl]-3-methyl-cyclopent-2-en-1-one

>  <PUBCHEM_IUPAC_INCHI>
InChI=1S/C10H14O/c1-3-4-5-9-8(2)6-7-10(9)11/h3-4H,5-7H2,1-2H3/b4-3-

>  <PUBCHEM_IUPAC_INCHIKEY>
IVLCENBZDYVJPA-ARJAWSKDSA-N

>  <PUBCHEM_XLOGP3_AA>
1.8

>  <PUBCHEM_EXACT_MASS>
150.104

>  <PUBCHEM_MOLECULAR_FORMULA>
C10H14O

>  <PUBCHEM_MOLECULAR_WEIGHT>
150.221

>  <PUBCHEM_OPENEYE_CAN_SMILES>
CC=CCC1=C(CCC1=O)C

>  <PUBCHEM_OPENEYE_ISO_SMILES>
C/C=C\CC1=C(CCC1=O)C

>  <PUBCHEM_CACTVS_TPSA>
17.1

>  <PUBCHEM_MONOISOTOPIC_WEIGHT>
150.104

>  <PUBCHEM_TOTAL_CHARGE>
0

>  <PUBCHEM_HEAVY_ATOM_COUNT>
11

>  <PUBCHEM_ATOM_DEF_STEREO_COUNT>
0

>  <PUBCHEM_ATOM_UDEF_STEREO_COUNT>
0

>  <PUBCHEM_BOND_DEF_STEREO_COUNT>
1

>  <PUBCHEM_BOND_UDEF_STEREO_COUNT>
0

>  <PUBCHEM_ISOTOPIC_ATOM_COUNT>
0

>  <PUBCHEM_COMPONENT_COUNT>
1

>  <PUBCHEM_CACTVS_TAUTO_COUNT>
10

>  <PUBCHEM_COORDINATE_TYPE>
1
5
255

$$$$
