5375200
 OpenBabel06101807152D

 39 39  0  0  1  0  0  0  0  0999 V2000
    3.3660   -0.5005    0.0000 O   0  0  0  0  0  0  0  0  0  0  0  0
    3.8660   -4.3665    0.0000 O   0  0  0  0  0  0  0  0  0  0  0  0
    3.8660    3.8296    0.0000 O   0  0  0  0  0  0  0  0  0  0  0  0
    5.3660    2.9636    0.0000 O   0  0  0  0  0  0  0  0  0  0  0  0
    3.0000   -1.8665    0.0000 C   0  0  0  0  0  0  0  0  0  0  0  0
    3.8660   -1.3665    0.0000 C   0  0  3  0  0  0  0  0  0  0  0  0
    3.0000   -2.8665    0.0000 C   0  0  0  0  0  0  0  0  0  0  0  0
    4.7320   -1.8665    0.0000 C   0  0  0  0  0  0  0  0  0  0  0  0
    2.0000   -1.8665    0.0000 C   0  0  0  0  0  0  0  0  0  0  0  0
    2.2340   -1.2238    0.0000 C   0  0  0  0  0  0  0  0  0  0  0  0
    3.8660   -3.3665    0.0000 C   0  0  0  0  0  0  0  0  0  0  0  0
    4.3660   -0.5005    0.0000 C   0  0  0  0  0  0  0  0  0  0  0  0
    4.7320   -2.8665    0.0000 C   0  0  0  0  0  0  0  0  0  0  0  0
    5.5981   -1.3665    0.0000 C   0  0  0  0  0  0  0  0  0  0  0  0
    3.8660    0.3655    0.0000 C   0  0  0  0  0  0  0  0  0  0  0  0
    4.3660    1.2315    0.0000 C   0  0  0  0  0  0  0  0  0  0  0  0
    5.3660    1.2315    0.0000 C   0  0  0  0  0  0  0  0  0  0  0  0
    3.8660    2.0976    0.0000 C   0  0  0  0  0  0  0  0  0  0  0  0
    4.3660    2.9636    0.0000 C   0  0  0  0  0  0  0  0  0  0  0  0
    2.3894   -2.7589    0.0000 H   0  0  0  0  0  0  0  0  0  0  0  0
    2.7880   -3.4492    0.0000 H   0  0  0  0  0  0  0  0  0  0  0  0
    2.0000   -1.2465    0.0000 H   0  0  0  0  0  0  0  0  0  0  0  0
    1.3800   -1.8665    0.0000 H   0  0  0  0  0  0  0  0  0  0  0  0
    2.0000   -2.4865    0.0000 H   0  0  0  0  0  0  0  0  0  0  0  0
    2.6325   -0.7488    0.0000 H   0  0  0  0  0  0  0  0  0  0  0  0
    1.7590   -0.8252    0.0000 H   0  0  0  0  0  0  0  0  0  0  0  0
    1.8354   -1.6987    0.0000 H   0  0  0  0  0  0  0  0  0  0  0  0
    4.9860   -0.5005    0.0000 H   0  0  0  0  0  0  0  0  0  0  0  0
    5.2690   -3.1765    0.0000 H   0  0  0  0  0  0  0  0  0  0  0  0
    2.7460   -0.5005    0.0000 H   0  0  0  0  0  0  0  0  0  0  0  0
    5.9081   -1.9035    0.0000 H   0  0  0  0  0  0  0  0  0  0  0  0
    6.1350   -1.0565    0.0000 H   0  0  0  0  0  0  0  0  0  0  0  0
    5.2881   -0.8296    0.0000 H   0  0  0  0  0  0  0  0  0  0  0  0
    3.2460    0.3655    0.0000 H   0  0  0  0  0  0  0  0  0  0  0  0
    5.3660    0.6115    0.0000 H   0  0  0  0  0  0  0  0  0  0  0  0
    5.9860    1.2315    0.0000 H   0  0  0  0  0  0  0  0  0  0  0  0
    5.3660    1.8515    0.0000 H   0  0  0  0  0  0  0  0  0  0  0  0
    3.2460    2.0976    0.0000 H   0  0  0  0  0  0  0  0  0  0  0  0
    4.1760    4.3665    0.0000 H   0  0  0  0  0  0  0  0  0  0  0  0
  1  6  1  0  0  0  0
  1 30  1  0  0  0  0
  2 11  2  0  0  0  0
  3 19  1  0  0  0  0
  3 39  1  0  0  0  0
  4 19  2  0  0  0  0
  5  6  1  0  0  0  0
  5  7  1  0  0  0  0
  5  9  1  0  0  0  0
  5 10  1  0  0  0  0
  6  8  1  0  0  0  0
  6 12  1  0  0  0  0
  7 11  1  0  0  0  0
  7 20  1  0  0  0  0
  7 21  1  0  0  0  0
  8 13  2  0  0  0  0
  8 14  1  0  0  0  0
  9 22  1  0  0  0  0
  9 23  1  0  0  0  0
  9 24  1  0  0  0  0
 10 25  1  0  0  0  0
 10 26  1  0  0  0  0
 10 27  1  0  0  0  0
 11 13  1  0  0  0  0
 12 15  2  0  0  0  0
 12 28  1  0  0  0  0
 13 29  1  0  0  0  0
 14 31  1  0  0  0  0
 14 32  1  0  0  0  0
 14 33  1  0  0  0  0
 15 16  1  0  0  0  0
 15 34  1  0  0  0  0
 16 17  1  0  0  0  0
 16 18  2  0  0  0  0
 17 35  1  0  0  0  0
 17 36  1  0  0  0  0
 17 37  1  0  0  0  0
 18 19  1  0  0  0  0
 18 38  1  0  0  0  0
M  END
>  <PUBCHEM_COMPOUND_CID>
5375200

>  <PUBCHEM_COMPOUND_CANONICALIZED>
1

>  <PUBCHEM_CACTVS_COMPLEXITY>
494

>  <PUBCHEM_CACTVS_HBOND_ACCEPTOR>
4

>  <PUBCHEM_CACTVS_HBOND_DONOR>
2

>  <PUBCHEM_CACTVS_ROTATABLE_BOND>
3

>  <PUBCHEM_CACTVS_SUBSKEYS>
AAADceBwOAAAAAAAAAAAAAAAAAAAAAAAAAAgAAAAAAAAAAAAAAAAGgAACAAADkSAgAACCAAAAgCIAqDSCAAAAAAgAAAICAEAAEgIBBIAAQAAUAAEgAAIkQOKiAAPgAAAAAAAAAAAAAAAAAAAAAAAAAAAAA==

>  <PUBCHEM_IUPAC_OPENEYE_NAME>
(2E,4E)-5-(1-hydroxy-2,6,6-trimethyl-4-oxo-cyclohex-2-en-1-yl)-3-methyl-penta-2,4-dienoic acid

>  <PUBCHEM_IUPAC_CAS_NAME>
(2E,4E)-5-(1-hydroxy-2,6,6-trimethyl-4-oxo-1-cyclohex-2-enyl)-3-methylpenta-2,4-dienoic acid

>  <PUBCHEM_IUPAC_NAME>
(2E,4E)-5-(1-hydroxy-2,6,6-trimethyl-4-oxocyclohex-2-en-1-yl)-3-methylpenta-2,4-dienoic acid

>  <PUBCHEM_IUPAC_SYSTEMATIC_NAME>
(2E,4E)-3-methyl-5-(2,6,6-trimethyl-1-oxidanyl-4-oxidanylidene-cyclohex-2-en-1-yl)penta-2,4-dienoic acid

>  <PUBCHEM_IUPAC_TRADITIONAL_NAME>
(2E,4E)-5-(1-hydroxy-4-keto-2,6,6-trimethyl-cyclohex-2-en-1-yl)-3-methyl-penta-2,4-dienoic acid

>  <PUBCHEM_IUPAC_INCHI>
InChI=1S/C15H20O4/c1-10(7-13(17)18)5-6-15(19)11(2)8-12(16)9-14(15,3)4/h5-8,19H,9H2,1-4H3,(H,17,18)/b6-5+,10-7+

>  <PUBCHEM_IUPAC_INCHIKEY>
JLIDBLDQVAYHNE-WEYXYWBQSA-N

>  <PUBCHEM_XLOGP3_AA>
1.6

>  <PUBCHEM_EXACT_MASS>
264.136

>  <PUBCHEM_MOLECULAR_FORMULA>
C15H20O4

>  <PUBCHEM_MOLECULAR_WEIGHT>
264.321

>  <PUBCHEM_OPENEYE_CAN_SMILES>
CC1=CC(=O)CC(C1(C=CC(=CC(=O)O)C)O)(C)C

>  <PUBCHEM_OPENEYE_ISO_SMILES>
CC1=CC(=O)CC(C1(/C=C/C(=C/C(=O)O)/C)O)(C)C

>  <PUBCHEM_CACTVS_TPSA>
74.6

>  <PUBCHEM_MONOISOTOPIC_WEIGHT>
264.136

>  <PUBCHEM_TOTAL_CHARGE>
0

>  <PUBCHEM_HEAVY_ATOM_COUNT>
19

>  <PUBCHEM_ATOM_DEF_STEREO_COUNT>
0

>  <PUBCHEM_ATOM_UDEF_STEREO_COUNT>
1

>  <PUBCHEM_BOND_DEF_STEREO_COUNT>
2

>  <PUBCHEM_BOND_UDEF_STEREO_COUNT>
0

>  <PUBCHEM_ISOTOPIC_ATOM_COUNT>
0

>  <PUBCHEM_COMPONENT_COUNT>
1

>  <PUBCHEM_CACTVS_TAUTO_COUNT>
5

>  <PUBCHEM_COORDINATE_TYPE>
1
5
255

>  <PUBCHEM_BONDANNOTATIONS>
6  1  3

$$$$
