5376586
 OpenBabel06101807152D

 33 35  0  0  0  0  0  0  0  0999 V2000
    8.1962    0.8608    0.0000 O   0  0  0  0  0  0  0  0  0  0  0  0
    8.1962   -1.1875    0.0000 O   0  0  0  0  0  0  0  0  0  0  0  0
    6.4144    1.8713    0.0000 O   0  0  0  0  0  0  0  0  0  0  0  0
    4.6660    1.8367    0.0000 O   0  0  0  0  0  0  0  0  0  0  0  0
    4.6660   -1.1633    0.0000 N   0  0  0  0  0  0  0  0  0  0  0  0
    5.5321    0.3367    0.0000 C   0  0  0  0  0  0  0  0  0  0  0  0
    5.5321   -0.6633    0.0000 C   0  0  0  0  0  0  0  0  0  0  0  0
    3.8000    0.3367    0.0000 C   0  0  0  0  0  0  0  0  0  0  0  0
    3.8000   -0.6633    0.0000 C   0  0  0  0  0  0  0  0  0  0  0  0
    4.6660    0.8367    0.0000 C   0  0  0  0  0  0  0  0  0  0  0  0
    6.4260    0.8713    0.0000 C   0  0  0  0  0  0  0  0  0  0  0  0
    6.4260   -1.1980    0.0000 C   0  0  0  0  0  0  0  0  0  0  0  0
    7.3321    0.3575    0.0000 C   0  0  0  0  0  0  0  0  0  0  0  0
    7.3321   -0.6841    0.0000 C   0  0  0  0  0  0  0  0  0  0  0  0
    2.9061    0.8713    0.0000 C   0  0  0  0  0  0  0  0  0  0  0  0
    2.9061   -1.1980    0.0000 C   0  0  0  0  0  0  0  0  0  0  0  0
    2.0000    0.3575    0.0000 C   0  0  0  0  0  0  0  0  0  0  0  0
    2.0000   -0.6841    0.0000 C   0  0  0  0  0  0  0  0  0  0  0  0
    9.0641    0.3642    0.0000 C   0  0  0  0  0  0  0  0  0  0  0  0
    8.1923   -2.1875    0.0000 C   0  0  0  0  0  0  0  0  0  0  0  0
    4.6660   -1.7833    0.0000 H   0  0  0  0  0  0  0  0  0  0  0  0
    6.4188   -1.8179    0.0000 H   0  0  0  0  0  0  0  0  0  0  0  0
    2.9132    1.4913    0.0000 H   0  0  0  0  0  0  0  0  0  0  0  0
    2.9132   -1.8179    0.0000 H   0  0  0  0  0  0  0  0  0  0  0  0
    1.4643    0.6696    0.0000 H   0  0  0  0  0  0  0  0  0  0  0  0
    1.4643   -0.9962    0.0000 H   0  0  0  0  0  0  0  0  0  0  0  0
    6.9478    2.1875    0.0000 H   0  0  0  0  0  0  0  0  0  0  0  0
    8.7562   -0.1740    0.0000 H   0  0  0  0  0  0  0  0  0  0  0  0
    9.6022    0.0562    0.0000 H   0  0  0  0  0  0  0  0  0  0  0  0
    9.3720    0.9023    0.0000 H   0  0  0  0  0  0  0  0  0  0  0  0
    7.5723   -2.1851    0.0000 H   0  0  0  0  0  0  0  0  0  0  0  0
    8.1899   -2.8075    0.0000 H   0  0  0  0  0  0  0  0  0  0  0  0
    8.8123   -2.1898    0.0000 H   0  0  0  0  0  0  0  0  0  0  0  0
  1 13  1  0  0  0  0
  1 19  1  0  0  0  0
  2 14  1  0  0  0  0
  2 20  1  0  0  0  0
  3 11  1  0  0  0  0
  3 27  1  0  0  0  0
  4 10  2  0  0  0  0
  5  7  1  0  0  0  0
  5  9  1  0  0  0  0
  5 21  1  0  0  0  0
  6  7  1  0  0  0  0
  6 10  1  0  0  0  0
  6 11  2  0  0  0  0
  7 12  2  0  0  0  0
  8  9  1  0  0  0  0
  8 10  1  0  0  0  0
  8 15  2  0  0  0  0
  9 16  2  0  0  0  0
 11 13  1  0  0  0  0
 12 14  1  0  0  0  0
 12 22  1  0  0  0  0
 13 14  2  0  0  0  0
 15 17  1  0  0  0  0
 15 23  1  0  0  0  0
 16 18  1  0  0  0  0
 16 24  1  0  0  0  0
 17 18  2  0  0  0  0
 17 25  1  0  0  0  0
 18 26  1  0  0  0  0
 19 28  1  0  0  0  0
 19 29  1  0  0  0  0
 19 30  1  0  0  0  0
 20 31  1  0  0  0  0
 20 32  1  0  0  0  0
 20 33  1  0  0  0  0
M  END
>  <PUBCHEM_COMPOUND_CID>
5376586

>  <PUBCHEM_COMPOUND_CANONICALIZED>
1

>  <PUBCHEM_CACTVS_COMPLEXITY>
375

>  <PUBCHEM_CACTVS_HBOND_ACCEPTOR>
5

>  <PUBCHEM_CACTVS_HBOND_DONOR>
2

>  <PUBCHEM_CACTVS_ROTATABLE_BOND>
2

>  <PUBCHEM_CACTVS_SUBSKEYS>
AAADccByOAAAAAAAAAAAAAAAAAAAAAAAAAA8YIAAAAAAAACxQAAAHgAQCAAADAyBmAIyxoLABgCIAqRSQACCCAAlIgAIiAEG7MgNJ37GtZuEcetn8B3L+ce6/P/OIEABCgAKQABAgAIUABSAAAAAAAAAAA==

>  <PUBCHEM_IUPAC_OPENEYE_NAME>
1-hydroxy-2,3-dimethoxy-10H-acridin-9-one

>  <PUBCHEM_IUPAC_CAS_NAME>
1-hydroxy-2,3-dimethoxy-10H-acridin-9-one

>  <PUBCHEM_IUPAC_NAME>
1-hydroxy-2,3-dimethoxy-10H-acridin-9-one

>  <PUBCHEM_IUPAC_SYSTEMATIC_NAME>
2,3-dimethoxy-1-oxidanyl-10H-acridin-9-one

>  <PUBCHEM_IUPAC_TRADITIONAL_NAME>
1-hydroxy-2,3-dimethoxy-10H-acridin-9-one

>  <PUBCHEM_IUPAC_INCHI>
InChI=1S/C15H13NO4/c1-19-11-7-10-12(14(18)15(11)20-2)13(17)8-5-3-4-6-9(8)16-10/h3-7,18H,1-2H3,(H,16,17)

>  <PUBCHEM_IUPAC_INCHIKEY>
CYPILPIHKOUTNO-UHFFFAOYSA-N

>  <PUBCHEM_XLOGP3_AA>
3.1

>  <PUBCHEM_EXACT_MASS>
271.084

>  <PUBCHEM_MOLECULAR_FORMULA>
C15H13NO4

>  <PUBCHEM_MOLECULAR_WEIGHT>
271.272

>  <PUBCHEM_OPENEYE_CAN_SMILES>
COC1=C(C(=C2C(=C1)NC3=CC=CC=C3C2=O)O)OC

>  <PUBCHEM_OPENEYE_ISO_SMILES>
COC1=C(C(=C2C(=C1)NC3=CC=CC=C3C2=O)O)OC

>  <PUBCHEM_CACTVS_TPSA>
67.8

>  <PUBCHEM_MONOISOTOPIC_WEIGHT>
271.084

>  <PUBCHEM_TOTAL_CHARGE>
0

>  <PUBCHEM_HEAVY_ATOM_COUNT>
20

>  <PUBCHEM_ATOM_DEF_STEREO_COUNT>
0

>  <PUBCHEM_ATOM_UDEF_STEREO_COUNT>
0

>  <PUBCHEM_BOND_DEF_STEREO_COUNT>
0

>  <PUBCHEM_BOND_UDEF_STEREO_COUNT>
0

>  <PUBCHEM_ISOTOPIC_ATOM_COUNT>
0

>  <PUBCHEM_COMPONENT_COUNT>
1

>  <PUBCHEM_CACTVS_TAUTO_COUNT>
29

>  <PUBCHEM_COORDINATE_TYPE>
1
5
255

>  <PUBCHEM_BONDANNOTATIONS>
11  13  8
12  14  8
13  14  8
15  17  8
16  18  8
17  18  8
5  7  8
5  9  8
6  10  8
6  11  8
6  7  8
7  12  8
8  10  8
8  15  8
8  9  8
9  16  8

$$$$
