5376350
 OpenBabel06101807152D

 98100  0  0  1  0  0  0  0  0999 V2000
    4.6783   -4.4518    0.0000 O   0  0  0  0  0  0  0  0  0  0  0  0
   21.2619    3.2811    0.0000 O   0  0  0  0  0  0  0  0  0  0  0  0
    3.7320   -4.1471    0.0000 C   0  0  3  0  0  0  0  0  0  0  0  0
    2.8660   -2.6471    0.0000 C   0  0  0  0  0  0  0  0  0  0  0  0
    3.7320   -3.1471    0.0000 C   0  0  0  0  0  0  0  0  0  0  0  0
    2.8660   -4.6471    0.0000 C   0  0  0  0  0  0  0  0  0  0  0  0
    2.0000   -3.1471    0.0000 C   0  0  0  0  0  0  0  0  0  0  0  0
    2.0000   -4.1471    0.0000 C   0  0  0  0  0  0  0  0  0  0  0  0
    4.6783   -2.8424    0.0000 C   0  0  0  0  0  0  0  0  0  0  0  0
    5.2619   -3.6471    0.0000 C   0  0  3  0  0  0  0  0  0  0  0  0
    3.7320   -5.1471    0.0000 C   0  0  0  0  0  0  0  0  0  0  0  0
    2.3660   -1.7811    0.0000 C   0  0  0  0  0  0  0  0  0  0  0  0
    3.3660   -1.7811    0.0000 C   0  0  0  0  0  0  0  0  0  0  0  0
    6.2619   -3.6471    0.0000 C   0  0  0  0  0  0  0  0  0  0  0  0
    6.7619   -4.5131    0.0000 C   0  0  0  0  0  0  0  0  0  0  0  0
   18.7619    4.1471    0.0000 C   0  0  0  0  0  0  0  0  0  0  0  0
    6.7619   -2.7811    0.0000 C   0  0  0  0  0  0  0  0  0  0  0  0
   19.7619    4.1471    0.0000 C   0  0  0  0  0  0  0  0  0  0  0  0
   20.2619    3.2811    0.0000 C   0  0  3  0  0  0  0  0  0  0  0  0
   18.2619    3.2811    0.0000 C   0  0  0  0  0  0  0  0  0  0  0  0
   19.7619    2.4151    0.0000 C   0  0  0  0  0  0  0  0  0  0  0  0
   18.7619    2.4151    0.0000 C   0  0  0  0  0  0  0  0  0  0  0  0
   18.7619    5.1471    0.0000 C   0  0  0  0  0  0  0  0  0  0  0  0
   17.8959    4.6471    0.0000 C   0  0  0  0  0  0  0  0  0  0  0  0
    7.7619   -2.7811    0.0000 C   0  0  0  0  0  0  0  0  0  0  0  0
   17.2619    3.2811    0.0000 C   0  0  0  0  0  0  0  0  0  0  0  0
   18.2619    1.5490    0.0000 C   0  0  0  0  0  0  0  0  0  0  0  0
    8.2619   -1.9151    0.0000 C   0  0  0  0  0  0  0  0  0  0  0  0
   16.7619    2.4151    0.0000 C   0  0  0  0  0  0  0  0  0  0  0  0
    9.2619   -1.9151    0.0000 C   0  0  0  0  0  0  0  0  0  0  0  0
   15.7619    2.4151    0.0000 C   0  0  0  0  0  0  0  0  0  0  0  0
    9.7619   -2.7811    0.0000 C   0  0  0  0  0  0  0  0  0  0  0  0
   15.2619    3.2811    0.0000 C   0  0  0  0  0  0  0  0  0  0  0  0
    9.7619   -1.0490    0.0000 C   0  0  0  0  0  0  0  0  0  0  0  0
   15.2619    1.5490    0.0000 C   0  0  0  0  0  0  0  0  0  0  0  0
   14.2619    1.5490    0.0000 C   0  0  0  0  0  0  0  0  0  0  0  0
   10.7619   -1.0490    0.0000 C   0  0  0  0  0  0  0  0  0  0  0  0
   13.7619    0.6830    0.0000 C   0  0  0  0  0  0  0  0  0  0  0  0
   11.2619   -0.1830    0.0000 C   0  0  0  0  0  0  0  0  0  0  0  0
   12.7619    0.6830    0.0000 C   0  0  0  0  0  0  0  0  0  0  0  0
   12.2619   -0.1830    0.0000 C   0  0  0  0  0  0  0  0  0  0  0  0
   12.2619    1.5490    0.0000 C   0  0  0  0  0  0  0  0  0  0  0  0
    2.4675   -5.1221    0.0000 H   0  0  0  0  0  0  0  0  0  0  0  0
    3.2646   -5.1221    0.0000 H   0  0  0  0  0  0  0  0  0  0  0  0
    1.7880   -2.5645    0.0000 H   0  0  0  0  0  0  0  0  0  0  0  0
    1.3894   -3.2548    0.0000 H   0  0  0  0  0  0  0  0  0  0  0  0
    1.3894   -4.0395    0.0000 H   0  0  0  0  0  0  0  0  0  0  0  0
    1.7880   -4.7297    0.0000 H   0  0  0  0  0  0  0  0  0  0  0  0
    4.8709   -2.2531    0.0000 H   0  0  0  0  0  0  0  0  0  0  0  0
    5.5436   -4.1994    0.0000 H   0  0  0  0  0  0  0  0  0  0  0  0
    3.1120   -5.1471    0.0000 H   0  0  0  0  0  0  0  0  0  0  0  0
    3.7320   -5.7671    0.0000 H   0  0  0  0  0  0  0  0  0  0  0  0
    4.3520   -5.1471    0.0000 H   0  0  0  0  0  0  0  0  0  0  0  0
    2.9030   -1.4711    0.0000 H   0  0  0  0  0  0  0  0  0  0  0  0
    2.0560   -1.2442    0.0000 H   0  0  0  0  0  0  0  0  0  0  0  0
    1.8291   -2.0911    0.0000 H   0  0  0  0  0  0  0  0  0  0  0  0
    3.9030   -2.0911    0.0000 H   0  0  0  0  0  0  0  0  0  0  0  0
    3.6760   -1.2442    0.0000 H   0  0  0  0  0  0  0  0  0  0  0  0
    2.8291   -1.4711    0.0000 H   0  0  0  0  0  0  0  0  0  0  0  0
    6.2249   -4.8231    0.0000 H   0  0  0  0  0  0  0  0  0  0  0  0
    7.0719   -5.0501    0.0000 H   0  0  0  0  0  0  0  0  0  0  0  0
    7.2988   -4.2031    0.0000 H   0  0  0  0  0  0  0  0  0  0  0  0
    6.4519   -2.2442    0.0000 H   0  0  0  0  0  0  0  0  0  0  0  0
   20.3445    4.3592    0.0000 H   0  0  0  0  0  0  0  0  0  0  0  0
   19.6542    4.7577    0.0000 H   0  0  0  0  0  0  0  0  0  0  0  0
   20.5719    2.7442    0.0000 H   0  0  0  0  0  0  0  0  0  0  0  0
   19.6542    1.8045    0.0000 H   0  0  0  0  0  0  0  0  0  0  0  0
   20.3445    2.2030    0.0000 H   0  0  0  0  0  0  0  0  0  0  0  0
   18.2059    5.1840    0.0000 H   0  0  0  0  0  0  0  0  0  0  0  0
   17.3589    4.9571    0.0000 H   0  0  0  0  0  0  0  0  0  0  0  0
   17.5859    4.1102    0.0000 H   0  0  0  0  0  0  0  0  0  0  0  0
   19.3819    5.1471    0.0000 H   0  0  0  0  0  0  0  0  0  0  0  0
   18.7619    5.7671    0.0000 H   0  0  0  0  0  0  0  0  0  0  0  0
   18.1419    5.1471    0.0000 H   0  0  0  0  0  0  0  0  0  0  0  0
    8.0719   -3.3180    0.0000 H   0  0  0  0  0  0  0  0  0  0  0  0
   16.9519    3.8180    0.0000 H   0  0  0  0  0  0  0  0  0  0  0  0
   17.7249    1.8590    0.0000 H   0  0  0  0  0  0  0  0  0  0  0  0
   17.9519    1.0121    0.0000 H   0  0  0  0  0  0  0  0  0  0  0  0
   18.7988    1.2390    0.0000 H   0  0  0  0  0  0  0  0  0  0  0  0
   21.5719    3.8180    0.0000 H   0  0  0  0  0  0  0  0  0  0  0  0
    7.9519   -1.3781    0.0000 H   0  0  0  0  0  0  0  0  0  0  0  0
   17.0719    1.8781    0.0000 H   0  0  0  0  0  0  0  0  0  0  0  0
    9.2249   -3.0911    0.0000 H   0  0  0  0  0  0  0  0  0  0  0  0
   10.0719   -3.3180    0.0000 H   0  0  0  0  0  0  0  0  0  0  0  0
   10.2988   -2.4711    0.0000 H   0  0  0  0  0  0  0  0  0  0  0  0
   15.7988    3.5911    0.0000 H   0  0  0  0  0  0  0  0  0  0  0  0
   14.9519    3.8180    0.0000 H   0  0  0  0  0  0  0  0  0  0  0  0
   14.7249    2.9711    0.0000 H   0  0  0  0  0  0  0  0  0  0  0  0
    9.4519   -0.5121    0.0000 H   0  0  0  0  0  0  0  0  0  0  0  0
   15.5719    1.0121    0.0000 H   0  0  0  0  0  0  0  0  0  0  0  0
   13.9519    2.0860    0.0000 H   0  0  0  0  0  0  0  0  0  0  0  0
   11.0719   -1.5860    0.0000 H   0  0  0  0  0  0  0  0  0  0  0  0
   14.0719    0.1461    0.0000 H   0  0  0  0  0  0  0  0  0  0  0  0
   10.9519    0.3539    0.0000 H   0  0  0  0  0  0  0  0  0  0  0  0
   12.5719   -0.7199    0.0000 H   0  0  0  0  0  0  0  0  0  0  0  0
   12.7988    1.8590    0.0000 H   0  0  0  0  0  0  0  0  0  0  0  0
   11.9519    2.0860    0.0000 H   0  0  0  0  0  0  0  0  0  0  0  0
   11.7249    1.2390    0.0000 H   0  0  0  0  0  0  0  0  0  0  0  0
  1  3  1  0  0  0  0
  1 10  1  0  0  0  0
  2 19  1  0  0  0  0
  2 80  1  0  0  0  0
  3  5  1  0  0  0  0
  3  6  1  0  0  0  0
  3 11  1  0  0  0  0
  4  5  1  0  0  0  0
  4  7  1  0  0  0  0
  4 12  1  0  0  0  0
  4 13  1  0  0  0  0
  5  9  2  0  0  0  0
  6  8  1  0  0  0  0
  6 43  1  0  0  0  0
  6 44  1  0  0  0  0
  7  8  1  0  0  0  0
  7 45  1  0  0  0  0
  7 46  1  0  0  0  0
  8 47  1  0  0  0  0
  8 48  1  0  0  0  0
  9 10  1  0  0  0  0
  9 49  1  0  0  0  0
 10 14  1  0  0  0  0
 10 50  1  0  0  0  0
 11 51  1  0  0  0  0
 11 52  1  0  0  0  0
 11 53  1  0  0  0  0
 12 54  1  0  0  0  0
 12 55  1  0  0  0  0
 12 56  1  0  0  0  0
 13 57  1  0  0  0  0
 13 58  1  0  0  0  0
 13 59  1  0  0  0  0
 14 15  1  0  0  0  0
 14 17  2  0  0  0  0
 15 60  1  0  0  0  0
 15 61  1  0  0  0  0
 15 62  1  0  0  0  0
 16 18  1  0  0  0  0
 16 20  1  0  0  0  0
 16 23  1  0  0  0  0
 16 24  1  0  0  0  0
 17 25  1  0  0  0  0
 17 63  1  0  0  0  0
 18 19  1  0  0  0  0
 18 64  1  0  0  0  0
 18 65  1  0  0  0  0
 19 21  1  0  0  0  0
 19 66  1  0  0  0  0
 20 22  2  0  0  0  0
 20 26  1  0  0  0  0
 21 22  1  0  0  0  0
 21 67  1  0  0  0  0
 21 68  1  0  0  0  0
 22 27  1  0  0  0  0
 23 72  1  0  0  0  0
 23 73  1  0  0  0  0
 23 74  1  0  0  0  0
 24 69  1  0  0  0  0
 24 70  1  0  0  0  0
 24 71  1  0  0  0  0
 25 28  2  0  0  0  0
 25 75  1  0  0  0  0
 26 29  2  0  0  0  0
 26 76  1  0  0  0  0
 27 77  1  0  0  0  0
 27 78  1  0  0  0  0
 27 79  1  0  0  0  0
 28 30  1  0  0  0  0
 28 81  1  0  0  0  0
 29 31  1  0  0  0  0
 29 82  1  0  0  0  0
 30 32  1  0  0  0  0
 30 34  2  0  0  0  0
 31 33  1  0  0  0  0
 31 35  2  0  0  0  0
 32 83  1  0  0  0  0
 32 84  1  0  0  0  0
 32 85  1  0  0  0  0
 33 86  1  0  0  0  0
 33 87  1  0  0  0  0
 33 88  1  0  0  0  0
 34 37  1  0  0  0  0
 34 89  1  0  0  0  0
 35 36  1  0  0  0  0
 35 90  1  0  0  0  0
 36 38  2  0  0  0  0
 36 91  1  0  0  0  0
 37 39  2  0  0  0  0
 37 92  1  0  0  0  0
 38 40  1  0  0  0  0
 38 93  1  0  0  0  0
 39 41  1  0  0  0  0
 39 94  1  0  0  0  0
 40 41  2  0  0  0  0
 40 42  1  0  0  0  0
 41 95  1  0  0  0  0
 42 96  1  0  0  0  0
 42 97  1  0  0  0  0
 42 98  1  0  0  0  0
M  END
>  <PUBCHEM_COMPOUND_CID>
5376350

>  <PUBCHEM_COMPOUND_CANONICALIZED>
1

>  <PUBCHEM_CACTVS_COMPLEXITY>
1290

>  <PUBCHEM_CACTVS_HBOND_ACCEPTOR>
2

>  <PUBCHEM_CACTVS_HBOND_DONOR>
1

>  <PUBCHEM_CACTVS_ROTATABLE_BOND>
9

>  <PUBCHEM_CACTVS_SUBSKEYS>
AAADcfB8MAAAAAAAAAAAAAAAAAAAAQAAAAAwQAAAAAAAAEAAAAAAGgAACAAADlSggAICAAAABgCAAiBCAAAAAAAgAAAICAAAAAgIFAIAIQACUAAEwAAIoAOAwNAPAAAAAAAAAAAAAAYAAAAAAAAAAAAAAA==

>  <PUBCHEM_IUPAC_OPENEYE_NAME>
4-[(1E,3E,5E,7E,9E,11E,13E,15E)-16-(4,4,7a-trimethyl-2,5,6,7-tetrahydrobenzofuran-2-yl)-3,7,12-trimethyl-heptadeca-1,3,5,7,9,11,13,15-octaenyl]-3,5,5-trimethyl-cyclohex-3-en-1-ol

>  <PUBCHEM_IUPAC_CAS_NAME>
4-[(1E,3E,5E,7E,9E,11E,13E,15E)-16-(4,4,7a-trimethyl-2,5,6,7-tetrahydrobenzofuran-2-yl)-3,7,12-trimethylheptadeca-1,3,5,7,9,11,13,15-octaenyl]-3,5,5-trimethyl-1-cyclohex-3-enol

>  <PUBCHEM_IUPAC_NAME>
4-[(1E,3E,5E,7E,9E,11E,13E,15E)-16-(4,4,7a-trimethyl-2,5,6,7-tetrahydro-1-benzofuran-2-yl)-3,7,12-trimethylheptadeca-1,3,5,7,9,11,13,15-octaenyl]-3,5,5-trimethylcyclohex-3-en-1-ol

>  <PUBCHEM_IUPAC_SYSTEMATIC_NAME>
4-[(1E,3E,5E,7E,9E,11E,13E,15E)-16-(4,4,7a-trimethyl-2,5,6,7-tetrahydro-1-benzofuran-2-yl)-3,7,12-trimethyl-heptadeca-1,3,5,7,9,11,13,15-octaenyl]-3,5,5-trimethyl-cyclohex-3-en-1-ol

>  <PUBCHEM_IUPAC_TRADITIONAL_NAME>
4-[(1E,3E,5E,7E,9E,11E,13E,15E)-16-(4,4,7a-trimethyl-2,5,6,7-tetrahydrobenzofuran-2-yl)-3,7,12-trimethyl-heptadeca-1,3,5,7,9,11,13,15-octaenyl]-3,5,5-trimethyl-cyclohex-3-en-1-ol

>  <PUBCHEM_IUPAC_INCHI>
InChI=1S/C40H56O2/c1-29(18-13-19-31(3)22-23-35-33(5)26-34(41)28-39(35,8)9)16-11-12-17-30(2)20-14-21-32(4)36-27-37-38(6,7)24-15-25-40(37,10)42-36/h11-14,16-23,27,34,36,41H,15,24-26,28H2,1-10H3/b12-11+,18-13+,20-14+,23-22+,29-16+,30-17+,31-19+,32-21+

>  <PUBCHEM_IUPAC_INCHIKEY>
WEJIOGMJJWSQFC-NNAJIMERSA-N

>  <PUBCHEM_XLOGP3_AA>
11.1

>  <PUBCHEM_EXACT_MASS>
568.428

>  <PUBCHEM_MOLECULAR_FORMULA>
C40H56O2

>  <PUBCHEM_MOLECULAR_WEIGHT>
568.886

>  <PUBCHEM_OPENEYE_CAN_SMILES>
CC1=C(C(CC(C1)O)(C)C)C=CC(=CC=CC(=CC=CC=C(C)C=CC=C(C)C2C=C3C(CCCC3(O2)C)(C)C)C)C

>  <PUBCHEM_OPENEYE_ISO_SMILES>
CC1=C(C(CC(C1)O)(C)C)/C=C/C(=C/C=C/C(=C/C=C/C=C(\C)/C=C/C=C(\C)/C2C=C3C(CCCC3(O2)C)(C)C)/C)/C

>  <PUBCHEM_CACTVS_TPSA>
29.5

>  <PUBCHEM_MONOISOTOPIC_WEIGHT>
568.428

>  <PUBCHEM_TOTAL_CHARGE>
0

>  <PUBCHEM_HEAVY_ATOM_COUNT>
42

>  <PUBCHEM_ATOM_DEF_STEREO_COUNT>
0

>  <PUBCHEM_ATOM_UDEF_STEREO_COUNT>
3

>  <PUBCHEM_BOND_DEF_STEREO_COUNT>
8

>  <PUBCHEM_BOND_UDEF_STEREO_COUNT>
0

>  <PUBCHEM_ISOTOPIC_ATOM_COUNT>
0

>  <PUBCHEM_COMPONENT_COUNT>
1

>  <PUBCHEM_CACTVS_TAUTO_COUNT>
1

>  <PUBCHEM_COORDINATE_TYPE>
1
5
255

>  <PUBCHEM_BONDANNOTATIONS>
10  14  3
19  2  3
3  11  3

$$$$
