5377800
 OpenBabel06101807152D

 35 37  0  0  0  0  0  0  0  0999 V2000
    2.5381    0.7685    0.0000 O   0  0  0  0  0  0  0  0  0  0  0  0
    2.5381    2.8168    0.0000 O   0  0  0  0  0  0  0  0  0  0  0  0
    9.5323   -2.2073    0.0000 O   0  0  0  0  0  0  0  0  0  0  0  0
    6.9343    1.2927    0.0000 N   0  0  0  0  0  0  0  0  0  0  0  0
    6.0682    2.7927    0.0000 C   0  0  0  0  0  0  0  0  0  0  0  0
    6.0682    0.7927    0.0000 C   0  0  0  0  0  0  0  0  0  0  0  0
    5.2022    1.2927    0.0000 C   0  0  0  0  0  0  0  0  0  0  0  0
    5.2022    2.2927    0.0000 C   0  0  0  0  0  0  0  0  0  0  0  0
    6.9343    2.2927    0.0000 C   0  0  0  0  0  0  0  0  0  0  0  0
    6.0682   -0.2073    0.0000 C   0  0  0  0  0  0  0  0  0  0  0  0
    4.3083    0.7580    0.0000 C   0  0  0  0  0  0  0  0  0  0  0  0
    4.3083    2.8273    0.0000 C   0  0  0  0  0  0  0  0  0  0  0  0
    6.9343   -0.7073    0.0000 C   0  0  0  0  0  0  0  0  0  0  0  0
    3.4022    1.2718    0.0000 C   0  0  0  0  0  0  0  0  0  0  0  0
    3.4022    2.3135    0.0000 C   0  0  0  0  0  0  0  0  0  0  0  0
    6.9343   -1.7073    0.0000 C   0  0  0  0  0  0  0  0  0  0  0  0
    7.8003   -0.2073    0.0000 C   0  0  0  0  0  0  0  0  0  0  0  0
    7.8003   -2.2073    0.0000 C   0  0  0  0  0  0  0  0  0  0  0  0
    8.6663   -0.7073    0.0000 C   0  0  0  0  0  0  0  0  0  0  0  0
    8.6663   -1.7073    0.0000 C   0  0  0  0  0  0  0  0  0  0  0  0
    6.4668    3.2676    0.0000 H   0  0  0  0  0  0  0  0  0  0  0  0
    5.6697    3.2676    0.0000 H   0  0  0  0  0  0  0  0  0  0  0  0
    7.5449    2.1850    0.0000 H   0  0  0  0  0  0  0  0  0  0  0  0
    7.1463    2.8753    0.0000 H   0  0  0  0  0  0  0  0  0  0  0  0
    7.4712    0.9827    0.0000 H   0  0  0  0  0  0  0  0  0  0  0  0
    5.4577   -0.0997    0.0000 H   0  0  0  0  0  0  0  0  0  0  0  0
    5.8562   -0.7899    0.0000 H   0  0  0  0  0  0  0  0  0  0  0  0
    4.3154    0.1380    0.0000 H   0  0  0  0  0  0  0  0  0  0  0  0
    4.3154    3.4473    0.0000 H   0  0  0  0  0  0  0  0  0  0  0  0
    6.3973   -2.0173    0.0000 H   0  0  0  0  0  0  0  0  0  0  0  0
    7.8003    0.4127    0.0000 H   0  0  0  0  0  0  0  0  0  0  0  0
    7.8003   -2.8273    0.0000 H   0  0  0  0  0  0  0  0  0  0  0  0
    9.2033   -0.3973    0.0000 H   0  0  0  0  0  0  0  0  0  0  0  0
    2.0000    1.0764    0.0000 H   0  0  0  0  0  0  0  0  0  0  0  0
    9.5323   -2.8273    0.0000 H   0  0  0  0  0  0  0  0  0  0  0  0
  1 14  1  0  0  0  0
  1 34  1  0  0  0  0
  2 15  2  0  0  0  0
  3 20  1  0  0  0  0
  3 35  1  0  0  0  0
  4  6  1  0  0  0  0
  4  9  1  0  0  0  0
  4 25  1  0  0  0  0
  5  8  1  0  0  0  0
  5  9  1  0  0  0  0
  5 21  1  0  0  0  0
  5 22  1  0  0  0  0
  6  7  2  0  0  0  0
  6 10  1  0  0  0  0
  7  8  1  0  0  0  0
  7 11  1  0  0  0  0
  8 12  2  0  0  0  0
  9 23  1  0  0  0  0
  9 24  1  0  0  0  0
 10 13  1  0  0  0  0
 10 26  1  0  0  0  0
 10 27  1  0  0  0  0
 11 14  2  0  0  0  0
 11 28  1  0  0  0  0
 12 15  1  0  0  0  0
 12 29  1  0  0  0  0
 13 16  2  0  0  0  0
 13 17  1  0  0  0  0
 14 15  1  0  0  0  0
 16 18  1  0  0  0  0
 16 30  1  0  0  0  0
 17 19  2  0  0  0  0
 17 31  1  0  0  0  0
 18 20  2  0  0  0  0
 18 32  1  0  0  0  0
 19 20  1  0  0  0  0
 19 33  1  0  0  0  0
M  END
>  <PUBCHEM_COMPOUND_CID>
5377800

>  <PUBCHEM_COMPOUND_CANONICALIZED>
1

>  <PUBCHEM_CACTVS_COMPLEXITY>
508

>  <PUBCHEM_CACTVS_HBOND_ACCEPTOR>
4

>  <PUBCHEM_CACTVS_HBOND_DONOR>
3

>  <PUBCHEM_CACTVS_ROTATABLE_BOND>
2

>  <PUBCHEM_CACTVS_SUBSKEYS>
AAADccB6MAAAAAAAAAAAAAAAAAAAAAAAAAAwQIAAAAAAAACBAAAAHgAQCAAADAzBmAQwBoLAAgCIAqRSQAICAAAgIAAIiIBOCMgIJiKCkROEcAAk0BGImYeQwIAOIAAAAAAAAABAAAAAAAAAAAAAAAAAAA==

>  <PUBCHEM_IUPAC_OPENEYE_NAME>
7-hydroxy-1-[(4-hydroxyphenyl)methyl]-3,4-dihydro-2H-isoquinolin-6-one

>  <PUBCHEM_IUPAC_CAS_NAME>
7-hydroxy-1-[(4-hydroxyphenyl)methyl]-3,4-dihydro-2H-isoquinolin-6-one

>  <PUBCHEM_IUPAC_NAME>
7-hydroxy-1-[(4-hydroxyphenyl)methyl]-3,4-dihydro-2H-isoquinolin-6-one

>  <PUBCHEM_IUPAC_SYSTEMATIC_NAME>
1-[(4-hydroxyphenyl)methyl]-7-oxidanyl-3,4-dihydro-2H-isoquinolin-6-one

>  <PUBCHEM_IUPAC_TRADITIONAL_NAME>
7-hydroxy-1-(4-hydroxybenzyl)-3,4-dihydro-2H-isoquinolin-6-one

>  <PUBCHEM_IUPAC_INCHI>
InChI=1S/C16H15NO3/c18-12-3-1-10(2-4-12)7-14-13-9-16(20)15(19)8-11(13)5-6-17-14/h1-4,8-9,17-18,20H,5-7H2

>  <PUBCHEM_IUPAC_INCHIKEY>
DXEWSRDQCBVTTB-UHFFFAOYSA-N

>  <PUBCHEM_XLOGP3_AA>
1.9

>  <PUBCHEM_EXACT_MASS>
269.105

>  <PUBCHEM_MOLECULAR_FORMULA>
C16H15NO3

>  <PUBCHEM_MOLECULAR_WEIGHT>
269.3

>  <PUBCHEM_OPENEYE_CAN_SMILES>
C1CNC(=C2C1=CC(=O)C(=C2)O)CC3=CC=C(C=C3)O

>  <PUBCHEM_OPENEYE_ISO_SMILES>
C1CNC(=C2C1=CC(=O)C(=C2)O)CC3=CC=C(C=C3)O

>  <PUBCHEM_CACTVS_TPSA>
69.6

>  <PUBCHEM_MONOISOTOPIC_WEIGHT>
269.105

>  <PUBCHEM_TOTAL_CHARGE>
0

>  <PUBCHEM_HEAVY_ATOM_COUNT>
20

>  <PUBCHEM_ATOM_DEF_STEREO_COUNT>
0

>  <PUBCHEM_ATOM_UDEF_STEREO_COUNT>
0

>  <PUBCHEM_BOND_DEF_STEREO_COUNT>
0

>  <PUBCHEM_BOND_UDEF_STEREO_COUNT>
0

>  <PUBCHEM_ISOTOPIC_ATOM_COUNT>
0

>  <PUBCHEM_COMPONENT_COUNT>
1

>  <PUBCHEM_CACTVS_TAUTO_COUNT>
161

>  <PUBCHEM_COORDINATE_TYPE>
1
5
255

>  <PUBCHEM_BONDANNOTATIONS>
13  16  8
13  17  8
16  18  8
17  19  8
18  20  8
19  20  8

$$$$
