5377686
 OpenBabel06101807152D

 35 38  0  0  0  0  0  0  0  0999 V2000
    7.5972    1.1157    0.0000 O   0  0  0  0  0  0  0  0  0  0  0  0
    7.0864   -3.6138    0.0000 O   0  0  0  0  0  0  0  0  0  0  0  0
    8.2718    3.7060    0.0000 O   0  0  0  0  0  0  0  0  0  0  0  0
    8.3780   -2.4598    0.0000 O   0  0  0  0  0  0  0  0  0  0  0  0
    4.5274    0.1966    0.0000 N   0  0  0  0  0  0  0  0  0  0  0  0
    7.0547   -0.9276    0.0000 N   0  0  0  0  0  0  0  0  0  0  0  0
    5.3364   -0.3911    0.0000 C   0  0  0  0  0  0  0  0  0  0  0  0
    5.0274   -1.3422    0.0000 C   0  0  0  0  0  0  0  0  0  0  0  0
    4.0274   -1.3422    0.0000 C   0  0  0  0  0  0  0  0  0  0  0  0
    3.7183   -0.3911    0.0000 C   0  0  0  0  0  0  0  0  0  0  0  0
    6.3518   -0.1589    0.0000 C   0  0  0  0  0  0  0  0  0  0  0  0
    5.7123   -2.1269    0.0000 C   0  0  0  0  0  0  0  0  0  0  0  0
    6.6498    0.7957    0.0000 C   0  0  0  0  0  0  0  0  0  0  0  0
    3.3424   -2.1269    0.0000 C   0  0  0  0  0  0  0  0  0  0  0  0
    2.7029   -0.1589    0.0000 C   0  0  0  0  0  0  0  0  0  0  0  0
    6.7328   -1.9182    0.0000 C   0  0  0  0  0  0  0  0  0  0  0  0
    2.3219   -1.9182    0.0000 C   0  0  0  0  0  0  0  0  0  0  0  0
    2.0000   -0.9276    0.0000 C   0  0  0  0  0  0  0  0  0  0  0  0
    6.0527    1.5978    0.0000 C   0  0  0  0  0  0  0  0  0  0  0  0
    7.5856    2.1156    0.0000 C   0  0  0  0  0  0  0  0  0  0  0  0
    6.6311    2.4136    0.0000 C   0  0  0  0  0  0  0  0  0  0  0  0
    7.3991   -2.6640    0.0000 C   0  0  0  0  0  0  0  0  0  0  0  0
    8.3878    2.7127    0.0000 C   0  0  0  0  0  0  0  0  0  0  0  0
    4.5274    0.8166    0.0000 H   0  0  0  0  0  0  0  0  0  0  0  0
    5.5139   -2.7143    0.0000 H   0  0  0  0  0  0  0  0  0  0  0  0
    3.5408   -2.7143    0.0000 H   0  0  0  0  0  0  0  0  0  0  0  0
    2.5182    0.4329    0.0000 H   0  0  0  0  0  0  0  0  0  0  0  0
    1.9088   -2.3806    0.0000 H   0  0  0  0  0  0  0  0  0  0  0  0
    1.3940   -0.7963    0.0000 H   0  0  0  0  0  0  0  0  0  0  0  0
    5.4327    1.5907    0.0000 H   0  0  0  0  0  0  0  0  0  0  0  0
    6.4327    3.0010    0.0000 H   0  0  0  0  0  0  0  0  0  0  0  0
    8.6660    2.1586    0.0000 H   0  0  0  0  0  0  0  0  0  0  0  0
    8.9818    2.8905    0.0000 H   0  0  0  0  0  0  0  0  0  0  0  0
    7.4995   -4.0762    0.0000 H   0  0  0  0  0  0  0  0  0  0  0  0
    8.7691    4.0762    0.0000 H   0  0  0  0  0  0  0  0  0  0  0  0
  1 13  1  0  0  0  0
  1 20  1  0  0  0  0
  2 22  1  0  0  0  0
  2 34  1  0  0  0  0
  3 23  1  0  0  0  0
  3 35  1  0  0  0  0
  4 22  2  0  0  0  0
  5  7  1  0  0  0  0
  5 10  1  0  0  0  0
  5 24  1  0  0  0  0
  6 11  1  0  0  0  0
  6 16  2  0  0  0  0
  7  8  1  0  0  0  0
  7 11  2  0  0  0  0
  8  9  1  0  0  0  0
  8 12  2  0  0  0  0
  9 10  1  0  0  0  0
  9 14  2  0  0  0  0
 10 15  2  0  0  0  0
 11 13  1  0  0  0  0
 12 16  1  0  0  0  0
 12 25  1  0  0  0  0
 13 19  2  0  0  0  0
 14 17  1  0  0  0  0
 14 26  1  0  0  0  0
 15 18  1  0  0  0  0
 15 27  1  0  0  0  0
 16 22  1  0  0  0  0
 17 18  2  0  0  0  0
 17 28  1  0  0  0  0
 18 29  1  0  0  0  0
 19 21  1  0  0  0  0
 19 30  1  0  0  0  0
 20 21  2  0  0  0  0
 20 23  1  0  0  0  0
 21 31  1  0  0  0  0
 23 32  1  0  0  0  0
 23 33  1  0  0  0  0
M  END
>  <PUBCHEM_COMPOUND_CID>
5377686

>  <PUBCHEM_COMPOUND_CANONICALIZED>
1

>  <PUBCHEM_CACTVS_COMPLEXITY>
460

>  <PUBCHEM_CACTVS_HBOND_ACCEPTOR>
5

>  <PUBCHEM_CACTVS_HBOND_DONOR>
3

>  <PUBCHEM_CACTVS_ROTATABLE_BOND>
3

>  <PUBCHEM_CACTVS_SUBSKEYS>
AAADccB7OAAAAAAAAAAAAAAAAAAAAWJAAAA8QAAAAAAAAFgB/gAAHgAQCAAADAyhngIwzPLJlkCoA6TyTAaCiCQnMiAImSH2fNgPdvrEtbuXeajm0BHb+ceY/feegAAAAAACAAAAAAAAAAQAAAAAAAAAAA==

>  <PUBCHEM_IUPAC_OPENEYE_NAME>
1-[5-(hydroxymethyl)-2-furyl]-9H-pyrido[3,4-b]indole-3-carboxylic acid

>  <PUBCHEM_IUPAC_CAS_NAME>
1-[5-(hydroxymethyl)-2-furanyl]-9H-pyrido[3,4-b]indole-3-carboxylic acid

>  <PUBCHEM_IUPAC_NAME>
1-[5-(hydroxymethyl)furan-2-yl]-9H-pyrido[3,4-b]indole-3-carboxylic acid

>  <PUBCHEM_IUPAC_SYSTEMATIC_NAME>
1-[5-(hydroxymethyl)furan-2-yl]-9H-pyrido[3,4-b]indole-3-carboxylic acid

>  <PUBCHEM_IUPAC_TRADITIONAL_NAME>
1-(5-methylol-2-furyl)-9H-$b-carboline-3-carboxylic acid

>  <PUBCHEM_IUPAC_INCHI>
InChI=1S/C17H12N2O4/c20-8-9-5-6-14(23-9)16-15-11(7-13(19-16)17(21)22)10-3-1-2-4-12(10)18-15/h1-7,18,20H,8H2,(H,21,22)

>  <PUBCHEM_IUPAC_INCHIKEY>
USBWYUYKHHILLZ-UHFFFAOYSA-N

>  <PUBCHEM_XLOGP3_AA>
2.1

>  <PUBCHEM_EXACT_MASS>
308.08

>  <PUBCHEM_MOLECULAR_FORMULA>
C17H12N2O4

>  <PUBCHEM_MOLECULAR_WEIGHT>
308.293

>  <PUBCHEM_OPENEYE_CAN_SMILES>
C1=CC=C2C(=C1)C3=CC(=NC(=C3N2)C4=CC=C(O4)CO)C(=O)O

>  <PUBCHEM_OPENEYE_ISO_SMILES>
C1=CC=C2C(=C1)C3=CC(=NC(=C3N2)C4=CC=C(O4)CO)C(=O)O

>  <PUBCHEM_CACTVS_TPSA>
99.4

>  <PUBCHEM_MONOISOTOPIC_WEIGHT>
308.08

>  <PUBCHEM_TOTAL_CHARGE>
0

>  <PUBCHEM_HEAVY_ATOM_COUNT>
23

>  <PUBCHEM_ATOM_DEF_STEREO_COUNT>
0

>  <PUBCHEM_ATOM_UDEF_STEREO_COUNT>
0

>  <PUBCHEM_BOND_DEF_STEREO_COUNT>
0

>  <PUBCHEM_BOND_UDEF_STEREO_COUNT>
0

>  <PUBCHEM_ISOTOPIC_ATOM_COUNT>
0

>  <PUBCHEM_COMPONENT_COUNT>
1

>  <PUBCHEM_CACTVS_TAUTO_COUNT>
4

>  <PUBCHEM_COORDINATE_TYPE>
1
5
255

>  <PUBCHEM_BONDANNOTATIONS>
1  13  8
1  20  8
10  15  8
12  16  8
13  19  8
14  17  8
15  18  8
17  18  8
19  21  8
20  21  8
5  10  8
5  7  8
6  11  8
6  16  8
7  11  8
7  8  8
8  12  8
8  9  8
9  10  8
9  14  8

$$$$
