5377910
 OpenBabel06101807152D

 32 34  0  0  0  0  0  0  0  0999 V2000
    6.0682   -1.6581    0.0000 O   0  0  0  0  0  0  0  0  0  0  0  0
    6.0682    1.3419    0.0000 O   0  0  0  0  0  0  0  0  0  0  0  0
    7.8167    1.3765    0.0000 O   0  0  0  0  0  0  0  0  0  0  0  0
    9.5984   -1.6822    0.0000 O   0  0  0  0  0  0  0  0  0  0  0  0
    2.5381   -1.6822    0.0000 O   0  0  0  0  0  0  0  0  0  0  0  0
    5.2022   -0.1581    0.0000 C   0  0  0  0  0  0  0  0  0  0  0  0
    6.9343   -0.1581    0.0000 C   0  0  0  0  0  0  0  0  0  0  0  0
    5.2022   -1.1581    0.0000 C   0  0  0  0  0  0  0  0  0  0  0  0
    6.9343   -1.1581    0.0000 C   0  0  0  0  0  0  0  0  0  0  0  0
    6.0682    0.3419    0.0000 C   0  0  0  0  0  0  0  0  0  0  0  0
    4.3083    0.3766    0.0000 C   0  0  0  0  0  0  0  0  0  0  0  0
    7.8282    0.3766    0.0000 C   0  0  0  0  0  0  0  0  0  0  0  0
    4.3083   -1.6927    0.0000 C   0  0  0  0  0  0  0  0  0  0  0  0
    7.8282   -1.6927    0.0000 C   0  0  0  0  0  0  0  0  0  0  0  0
    3.4022   -0.1372    0.0000 C   0  0  0  0  0  0  0  0  0  0  0  0
    3.4022   -1.1789    0.0000 C   0  0  0  0  0  0  0  0  0  0  0  0
    8.7343   -1.1789    0.0000 C   0  0  0  0  0  0  0  0  0  0  0  0
    8.7343   -0.1372    0.0000 C   0  0  0  0  0  0  0  0  0  0  0  0
    4.3198    1.3765    0.0000 C   0  0  0  0  0  0  0  0  0  0  0  0
   10.4663   -1.1856    0.0000 C   0  0  0  0  0  0  0  0  0  0  0  0
    4.3154   -2.3127    0.0000 H   0  0  0  0  0  0  0  0  0  0  0  0
    7.8210   -2.3127    0.0000 H   0  0  0  0  0  0  0  0  0  0  0  0
    2.8665    0.1748    0.0000 H   0  0  0  0  0  0  0  0  0  0  0  0
    9.2700    0.1748    0.0000 H   0  0  0  0  0  0  0  0  0  0  0  0
    4.9398    1.3694    0.0000 H   0  0  0  0  0  0  0  0  0  0  0  0
    4.3270    1.9965    0.0000 H   0  0  0  0  0  0  0  0  0  0  0  0
    3.6999    1.3837    0.0000 H   0  0  0  0  0  0  0  0  0  0  0  0
    8.3500    1.6927    0.0000 H   0  0  0  0  0  0  0  0  0  0  0  0
    2.0000   -1.3743    0.0000 H   0  0  0  0  0  0  0  0  0  0  0  0
   10.7743   -1.7237    0.0000 H   0  0  0  0  0  0  0  0  0  0  0  0
   11.0045   -0.8776    0.0000 H   0  0  0  0  0  0  0  0  0  0  0  0
   10.1584   -0.6474    0.0000 H   0  0  0  0  0  0  0  0  0  0  0  0
  1  8  1  0  0  0  0
  1  9  1  0  0  0  0
  2 10  2  0  0  0  0
  3 12  1  0  0  0  0
  3 28  1  0  0  0  0
  4 17  1  0  0  0  0
  4 20  1  0  0  0  0
  5 16  1  0  0  0  0
  5 29  1  0  0  0  0
  6  8  2  0  0  0  0
  6 10  1  0  0  0  0
  6 11  1  0  0  0  0
  7  9  1  0  0  0  0
  7 10  1  0  0  0  0
  7 12  2  0  0  0  0
  8 13  1  0  0  0  0
  9 14  2  0  0  0  0
 11 15  2  0  0  0  0
 11 19  1  0  0  0  0
 12 18  1  0  0  0  0
 13 16  2  0  0  0  0
 13 21  1  0  0  0  0
 14 17  1  0  0  0  0
 14 22  1  0  0  0  0
 15 16  1  0  0  0  0
 15 23  1  0  0  0  0
 17 18  2  0  0  0  0
 18 24  1  0  0  0  0
 19 25  1  0  0  0  0
 19 26  1  0  0  0  0
 19 27  1  0  0  0  0
 20 30  1  0  0  0  0
 20 31  1  0  0  0  0
 20 32  1  0  0  0  0
M  END
>  <PUBCHEM_COMPOUND_CID>
5377910

>  <PUBCHEM_COMPOUND_CANONICALIZED>
1

>  <PUBCHEM_CACTVS_COMPLEXITY>
385

>  <PUBCHEM_CACTVS_HBOND_ACCEPTOR>
5

>  <PUBCHEM_CACTVS_HBOND_DONOR>
2

>  <PUBCHEM_CACTVS_ROTATABLE_BOND>
1

>  <PUBCHEM_CACTVS_SUBSKEYS>
AAADccBwOAAAAAAAAAAAAAAAAAAAAAAAAAA0YIAAAAAAAACRQAAAGgAACAAADASAmAIyBoAABgCIAqBSAAACCAAkIAAAiAEGCMgMJzaGNRqCeWCl4BUIuQeI7PzOoAABCAAYAABAAAIQADAAAAAAAAAAAA==

>  <PUBCHEM_IUPAC_OPENEYE_NAME>
1,6-dihydroxy-3-methoxy-8-methyl-xanthen-9-one

>  <PUBCHEM_IUPAC_CAS_NAME>
1,6-dihydroxy-3-methoxy-8-methyl-9-xanthenone

>  <PUBCHEM_IUPAC_NAME>
1,6-dihydroxy-3-methoxy-8-methylxanthen-9-one

>  <PUBCHEM_IUPAC_SYSTEMATIC_NAME>
6-methoxy-1-methyl-3,8-bis(oxidanyl)xanthen-9-one

>  <PUBCHEM_IUPAC_TRADITIONAL_NAME>
1,6-dihydroxy-3-methoxy-8-methyl-xanthone

>  <PUBCHEM_IUPAC_INCHI>
InChI=1S/C15H12O5/c1-7-3-8(16)4-11-13(7)15(18)14-10(17)5-9(19-2)6-12(14)20-11/h3-6,16-17H,1-2H3

>  <PUBCHEM_IUPAC_INCHIKEY>
UIKVQKMDLQHSKA-UHFFFAOYSA-N

>  <PUBCHEM_XLOGP3_AA>
3.1

>  <PUBCHEM_EXACT_MASS>
272.068

>  <PUBCHEM_MOLECULAR_FORMULA>
C15H12O5

>  <PUBCHEM_MOLECULAR_WEIGHT>
272.256

>  <PUBCHEM_OPENEYE_CAN_SMILES>
CC1=CC(=CC2=C1C(=O)C3=C(C=C(C=C3O2)OC)O)O

>  <PUBCHEM_OPENEYE_ISO_SMILES>
CC1=CC(=CC2=C1C(=O)C3=C(C=C(C=C3O2)OC)O)O

>  <PUBCHEM_CACTVS_TPSA>
76

>  <PUBCHEM_MONOISOTOPIC_WEIGHT>
272.068

>  <PUBCHEM_TOTAL_CHARGE>
0

>  <PUBCHEM_HEAVY_ATOM_COUNT>
20

>  <PUBCHEM_ATOM_DEF_STEREO_COUNT>
0

>  <PUBCHEM_ATOM_UDEF_STEREO_COUNT>
0

>  <PUBCHEM_BOND_DEF_STEREO_COUNT>
0

>  <PUBCHEM_BOND_UDEF_STEREO_COUNT>
0

>  <PUBCHEM_ISOTOPIC_ATOM_COUNT>
0

>  <PUBCHEM_COMPONENT_COUNT>
1

>  <PUBCHEM_CACTVS_TAUTO_COUNT>
57

>  <PUBCHEM_COORDINATE_TYPE>
1
5
255

>  <PUBCHEM_BONDANNOTATIONS>
1  8  8
1  9  8
11  15  8
12  18  8
13  16  8
14  17  8
15  16  8
17  18  8
6  10  8
6  11  8
6  8  8
7  10  8
7  12  8
7  9  8
8  13  8
9  14  8

$$$$
