5378260
 OpenBabel06101807152D

 31 33  0  0  0  0  0  0  0  0999 V2000
    6.0682   -1.3846    0.0000 O   0  0  0  0  0  0  0  0  0  0  0  0
    6.0682    1.6154    0.0000 O   0  0  0  0  0  0  0  0  0  0  0  0
    4.3198   -2.4192    0.0000 O   0  0  0  0  0  0  0  0  0  0  0  0
    8.6663   -0.8846    0.0000 O   0  0  0  0  0  0  0  0  0  0  0  0
    2.5381   -1.4088    0.0000 O   0  0  0  0  0  0  0  0  0  0  0  0
   10.3984    2.1154    0.0000 O   0  0  0  0  0  0  0  0  0  0  0  0
    5.2022    0.1154    0.0000 C   0  0  0  0  0  0  0  0  0  0  0  0
    6.9343    0.1154    0.0000 C   0  0  0  0  0  0  0  0  0  0  0  0
    5.2022   -0.8846    0.0000 C   0  0  0  0  0  0  0  0  0  0  0  0
    6.0682    0.6154    0.0000 C   0  0  0  0  0  0  0  0  0  0  0  0
    7.8003    0.6154    0.0000 C   0  0  0  0  0  0  0  0  0  0  0  0
    6.9343   -0.8846    0.0000 C   0  0  0  0  0  0  0  0  0  0  0  0
    4.3083    0.6501    0.0000 C   0  0  0  0  0  0  0  0  0  0  0  0
    4.3083   -1.4193    0.0000 C   0  0  0  0  0  0  0  0  0  0  0  0
    8.6663    0.1154    0.0000 C   0  0  0  0  0  0  0  0  0  0  0  0
    7.8003    1.6154    0.0000 C   0  0  0  0  0  0  0  0  0  0  0  0
    3.4022   -0.9054    0.0000 C   0  0  0  0  0  0  0  0  0  0  0  0
    3.4022    0.1362    0.0000 C   0  0  0  0  0  0  0  0  0  0  0  0
    9.5323    0.6154    0.0000 C   0  0  0  0  0  0  0  0  0  0  0  0
    8.6663    2.1154    0.0000 C   0  0  0  0  0  0  0  0  0  0  0  0
    9.5323    1.6154    0.0000 C   0  0  0  0  0  0  0  0  0  0  0  0
    7.4712   -1.1946    0.0000 H   0  0  0  0  0  0  0  0  0  0  0  0
    4.3154    1.2700    0.0000 H   0  0  0  0  0  0  0  0  0  0  0  0
    7.2634    1.9254    0.0000 H   0  0  0  0  0  0  0  0  0  0  0  0
    2.8665    0.4483    0.0000 H   0  0  0  0  0  0  0  0  0  0  0  0
   10.0693    0.3054    0.0000 H   0  0  0  0  0  0  0  0  0  0  0  0
    8.6663    2.7354    0.0000 H   0  0  0  0  0  0  0  0  0  0  0  0
    3.7865   -2.7354    0.0000 H   0  0  0  0  0  0  0  0  0  0  0  0
    9.2033   -1.1946    0.0000 H   0  0  0  0  0  0  0  0  0  0  0  0
    2.0000   -1.1008    0.0000 H   0  0  0  0  0  0  0  0  0  0  0  0
   10.3984    2.7354    0.0000 H   0  0  0  0  0  0  0  0  0  0  0  0
  1  9  1  0  0  0  0
  1 12  1  0  0  0  0
  2 10  2  0  0  0  0
  3 14  1  0  0  0  0
  3 28  1  0  0  0  0
  4 15  1  0  0  0  0
  4 29  1  0  0  0  0
  5 17  1  0  0  0  0
  5 30  1  0  0  0  0
  6 21  1  0  0  0  0
  6 31  1  0  0  0  0
  7  9  2  0  0  0  0
  7 10  1  0  0  0  0
  7 13  1  0  0  0  0
  8 10  1  0  0  0  0
  8 11  1  0  0  0  0
  8 12  2  0  0  0  0
  9 14  1  0  0  0  0
 11 15  2  0  0  0  0
 11 16  1  0  0  0  0
 12 22  1  0  0  0  0
 13 18  2  0  0  0  0
 13 23  1  0  0  0  0
 14 17  2  0  0  0  0
 15 19  1  0  0  0  0
 16 20  2  0  0  0  0
 16 24  1  0  0  0  0
 17 18  1  0  0  0  0
 18 25  1  0  0  0  0
 19 21  2  0  0  0  0
 19 26  1  0  0  0  0
 20 21  1  0  0  0  0
 20 27  1  0  0  0  0
M  END
>  <PUBCHEM_COMPOUND_CID>
5378260

>  <PUBCHEM_COMPOUND_CANONICALIZED>
1

>  <PUBCHEM_CACTVS_COMPLEXITY>
447

>  <PUBCHEM_CACTVS_HBOND_ACCEPTOR>
6

>  <PUBCHEM_CACTVS_HBOND_DONOR>
4

>  <PUBCHEM_CACTVS_ROTATABLE_BOND>
1

>  <PUBCHEM_CACTVS_SUBSKEYS>
AAADccBwOAAAAAAAAAAAAAAAAAAAAAAAAAAwYIAAAAAAAACBQAAAGgAACAAADASgmAIwBoAABgCIAqBSAAACCAAkIAAIiAEGiMgNJzaGNRqAcWMl4BULuYeK7PzOIAABCAAIQABAAAIQABCAAAAAAAAAAA==

>  <PUBCHEM_IUPAC_OPENEYE_NAME>
3-(2,4-dihydroxyphenyl)-7,8-dihydroxy-chromen-4-one

>  <PUBCHEM_IUPAC_CAS_NAME>
3-(2,4-dihydroxyphenyl)-7,8-dihydroxy-1-benzopyran-4-one

>  <PUBCHEM_IUPAC_NAME>
3-(2,4-dihydroxyphenyl)-7,8-dihydroxychromen-4-one

>  <PUBCHEM_IUPAC_SYSTEMATIC_NAME>
3-[2,4-bis(oxidanyl)phenyl]-7,8-bis(oxidanyl)chromen-4-one

>  <PUBCHEM_IUPAC_TRADITIONAL_NAME>
3-(2,4-dihydroxyphenyl)-7,8-dihydroxy-chromone

>  <PUBCHEM_IUPAC_INCHI>
InChI=1S/C15H10O6/c16-7-1-2-8(12(18)5-7)10-6-21-15-9(13(10)19)3-4-11(17)14(15)20/h1-6,16-18,20H

>  <PUBCHEM_IUPAC_INCHIKEY>
MMEMQPVSEZVECO-UHFFFAOYSA-N

>  <PUBCHEM_XLOGP3_AA>
1.8

>  <PUBCHEM_EXACT_MASS>
286.048

>  <PUBCHEM_MOLECULAR_FORMULA>
C15H10O6

>  <PUBCHEM_MOLECULAR_WEIGHT>
286.239

>  <PUBCHEM_OPENEYE_CAN_SMILES>
C1=CC(=C(C=C1O)O)C2=COC3=C(C2=O)C=CC(=C3O)O

>  <PUBCHEM_OPENEYE_ISO_SMILES>
C1=CC(=C(C=C1O)O)C2=COC3=C(C2=O)C=CC(=C3O)O

>  <PUBCHEM_CACTVS_TPSA>
107

>  <PUBCHEM_MONOISOTOPIC_WEIGHT>
286.048

>  <PUBCHEM_TOTAL_CHARGE>
0

>  <PUBCHEM_HEAVY_ATOM_COUNT>
21

>  <PUBCHEM_ATOM_DEF_STEREO_COUNT>
0

>  <PUBCHEM_ATOM_UDEF_STEREO_COUNT>
0

>  <PUBCHEM_BOND_DEF_STEREO_COUNT>
0

>  <PUBCHEM_BOND_UDEF_STEREO_COUNT>
0

>  <PUBCHEM_ISOTOPIC_ATOM_COUNT>
0

>  <PUBCHEM_COMPONENT_COUNT>
1

>  <PUBCHEM_CACTVS_TAUTO_COUNT>
108

>  <PUBCHEM_COORDINATE_TYPE>
1
5
255

>  <PUBCHEM_BONDANNOTATIONS>
1  12  8
1  9  8
11  15  8
11  16  8
13  18  8
14  17  8
15  19  8
16  20  8
17  18  8
19  21  8
20  21  8
7  10  8
7  13  8
7  9  8
8  10  8
8  12  8
9  14  8

$$$$
