5378234
 OpenBabel06101807152D

 34 36  0  0  0  0  0  0  0  0999 V2000
    6.0682   -0.9031    0.0000 O   0  0  0  0  0  0  0  0  0  0  0  0
    4.3198   -1.9377    0.0000 O   0  0  0  0  0  0  0  0  0  0  0  0
    4.3198    2.1315    0.0000 O   0  0  0  0  0  0  0  0  0  0  0  0
    7.8003    1.0969    0.0000 O   0  0  0  0  0  0  0  0  0  0  0  0
    2.5381   -0.9273    0.0000 O   0  0  0  0  0  0  0  0  0  0  0  0
    6.0682    2.0969    0.0000 O   0  0  0  0  0  0  0  0  0  0  0  0
    5.2022    0.5969    0.0000 C   0  0  0  0  0  0  0  0  0  0  0  0
    5.2022   -0.4031    0.0000 C   0  0  0  0  0  0  0  0  0  0  0  0
    6.9343   -0.4031    0.0000 C   0  0  0  0  0  0  0  0  0  0  0  0
    4.3083   -0.9378    0.0000 C   0  0  0  0  0  0  0  0  0  0  0  0
    6.0682    1.0969    0.0000 C   0  0  0  0  0  0  0  0  0  0  0  0
    4.3083    1.1316    0.0000 C   0  0  0  0  0  0  0  0  0  0  0  0
    6.9343    0.5969    0.0000 C   0  0  0  0  0  0  0  0  0  0  0  0
    7.8003   -0.9031    0.0000 C   0  0  0  0  0  0  0  0  0  0  0  0
    3.4022   -0.4239    0.0000 C   0  0  0  0  0  0  0  0  0  0  0  0
    3.4022    0.6177    0.0000 C   0  0  0  0  0  0  0  0  0  0  0  0
    7.8003   -1.9031    0.0000 C   0  0  0  0  0  0  0  0  0  0  0  0
    8.6663   -0.4031    0.0000 C   0  0  0  0  0  0  0  0  0  0  0  0
    8.6663   -2.4031    0.0000 C   0  0  0  0  0  0  0  0  0  0  0  0
    9.5323   -0.9031    0.0000 C   0  0  0  0  0  0  0  0  0  0  0  0
    9.5323   -1.9031    0.0000 C   0  0  0  0  0  0  0  0  0  0  0  0
    3.4597   -2.4477    0.0000 C   0  0  0  0  0  0  0  0  0  0  0  0
    2.8665    0.9298    0.0000 H   0  0  0  0  0  0  0  0  0  0  0  0
    7.2634   -2.2131    0.0000 H   0  0  0  0  0  0  0  0  0  0  0  0
    8.6663    0.2169    0.0000 H   0  0  0  0  0  0  0  0  0  0  0  0
    8.6663   -3.0231    0.0000 H   0  0  0  0  0  0  0  0  0  0  0  0
   10.0693   -0.5931    0.0000 H   0  0  0  0  0  0  0  0  0  0  0  0
   10.0693   -2.2131    0.0000 H   0  0  0  0  0  0  0  0  0  0  0  0
    3.7865    2.4477    0.0000 H   0  0  0  0  0  0  0  0  0  0  0  0
    7.8003    1.7169    0.0000 H   0  0  0  0  0  0  0  0  0  0  0  0
    2.0000   -0.6193    0.0000 H   0  0  0  0  0  0  0  0  0  0  0  0
    3.1435   -1.9144    0.0000 H   0  0  0  0  0  0  0  0  0  0  0  0
    2.9263   -2.7639    0.0000 H   0  0  0  0  0  0  0  0  0  0  0  0
    3.7758   -2.9810    0.0000 H   0  0  0  0  0  0  0  0  0  0  0  0
  1  8  1  0  0  0  0
  1  9  1  0  0  0  0
  2 10  1  0  0  0  0
  2 22  1  0  0  0  0
  3 12  1  0  0  0  0
  3 29  1  0  0  0  0
  4 13  1  0  0  0  0
  4 30  1  0  0  0  0
  5 15  1  0  0  0  0
  5 31  1  0  0  0  0
  6 11  2  0  0  0  0
  7  8  2  0  0  0  0
  7 11  1  0  0  0  0
  7 12  1  0  0  0  0
  8 10  1  0  0  0  0
  9 13  2  0  0  0  0
  9 14  1  0  0  0  0
 10 15  2  0  0  0  0
 11 13  1  0  0  0  0
 12 16  2  0  0  0  0
 14 17  2  0  0  0  0
 14 18  1  0  0  0  0
 15 16  1  0  0  0  0
 16 23  1  0  0  0  0
 17 19  1  0  0  0  0
 17 24  1  0  0  0  0
 18 20  2  0  0  0  0
 18 25  1  0  0  0  0
 19 21  2  0  0  0  0
 19 26  1  0  0  0  0
 20 21  1  0  0  0  0
 20 27  1  0  0  0  0
 21 28  1  0  0  0  0
 22 32  1  0  0  0  0
 22 33  1  0  0  0  0
 22 34  1  0  0  0  0
M  END
>  <PUBCHEM_COMPOUND_CID>
5378234

>  <PUBCHEM_COMPOUND_CANONICALIZED>
1

>  <PUBCHEM_CACTVS_COMPLEXITY>
467

>  <PUBCHEM_CACTVS_HBOND_ACCEPTOR>
6

>  <PUBCHEM_CACTVS_HBOND_DONOR>
3

>  <PUBCHEM_CACTVS_ROTATABLE_BOND>
2

>  <PUBCHEM_CACTVS_SUBSKEYS>
AAADccB4OAAAAAAAAAAAAAAAAAAAAAAAAAAwYIAAAAAAAACBQAAAGgAACAAADASAmAIyBoAABgCIAqBSAAICCAAkIAAIiAFGiMgNJzaGNRqCeWOl4BULuQfK7LzOIQABCAAIQABCAAIQABCAAAAAAAAAAA==

>  <PUBCHEM_IUPAC_OPENEYE_NAME>
3,5,7-trihydroxy-8-methoxy-2-phenyl-chromen-4-one

>  <PUBCHEM_IUPAC_CAS_NAME>
3,5,7-trihydroxy-8-methoxy-2-phenyl-1-benzopyran-4-one

>  <PUBCHEM_IUPAC_NAME>
3,5,7-trihydroxy-8-methoxy-2-phenylchromen-4-one

>  <PUBCHEM_IUPAC_SYSTEMATIC_NAME>
8-methoxy-3,5,7-tris(oxidanyl)-2-phenyl-chromen-4-one

>  <PUBCHEM_IUPAC_TRADITIONAL_NAME>
3,5,7-trihydroxy-8-methoxy-2-phenyl-chromone

>  <PUBCHEM_IUPAC_INCHI>
InChI=1S/C16H12O6/c1-21-15-10(18)7-9(17)11-12(19)13(20)14(22-16(11)15)8-5-3-2-4-6-8/h2-7,17-18,20H,1H3

>  <PUBCHEM_IUPAC_INCHIKEY>
NAENHANDGVDMPA-UHFFFAOYSA-N

>  <PUBCHEM_XLOGP3_AA>
2.8

>  <PUBCHEM_EXACT_MASS>
300.063

>  <PUBCHEM_MOLECULAR_FORMULA>
C16H12O6

>  <PUBCHEM_MOLECULAR_WEIGHT>
300.266

>  <PUBCHEM_OPENEYE_CAN_SMILES>
COC1=C(C=C(C2=C1OC(=C(C2=O)O)C3=CC=CC=C3)O)O

>  <PUBCHEM_OPENEYE_ISO_SMILES>
COC1=C(C=C(C2=C1OC(=C(C2=O)O)C3=CC=CC=C3)O)O

>  <PUBCHEM_CACTVS_TPSA>
96.2

>  <PUBCHEM_MONOISOTOPIC_WEIGHT>
300.063

>  <PUBCHEM_TOTAL_CHARGE>
0

>  <PUBCHEM_HEAVY_ATOM_COUNT>
22

>  <PUBCHEM_ATOM_DEF_STEREO_COUNT>
0

>  <PUBCHEM_ATOM_UDEF_STEREO_COUNT>
0

>  <PUBCHEM_BOND_DEF_STEREO_COUNT>
0

>  <PUBCHEM_BOND_UDEF_STEREO_COUNT>
0

>  <PUBCHEM_ISOTOPIC_ATOM_COUNT>
0

>  <PUBCHEM_COMPONENT_COUNT>
1

>  <PUBCHEM_CACTVS_TAUTO_COUNT>
24

>  <PUBCHEM_COORDINATE_TYPE>
1
5
255

>  <PUBCHEM_BONDANNOTATIONS>
1  8  8
1  9  8
10  15  8
11  13  8
12  16  8
14  17  8
14  18  8
15  16  8
17  19  8
18  20  8
19  21  8
20  21  8
7  11  8
7  12  8
7  8  8
8  10  8
9  13  8

$$$$
