5378285
 OpenBabel06101807152D

 36 38  0  0  0  0  0  0  0  0999 V2000
    6.3981   -1.0000    0.0000 O   0  0  0  0  0  0  0  0  0  0  0  0
    8.1465    2.0346    0.0000 O   0  0  0  0  0  0  0  0  0  0  0  0
    8.1465   -2.0346    0.0000 O   0  0  0  0  0  0  0  0  0  0  0  0
    6.3981    2.0000    0.0000 O   0  0  0  0  0  0  0  0  0  0  0  0
    4.6497    2.0346    0.0000 O   0  0  0  0  0  0  0  0  0  0  0  0
    2.8680   -1.0241    0.0000 O   0  0  0  0  0  0  0  0  0  0  0  0
    7.2641    0.5000    0.0000 C   0  0  0  0  0  0  0  0  0  0  0  0
    5.5320    0.5000    0.0000 C   0  0  0  0  0  0  0  0  0  0  0  0
    7.2641   -0.5000    0.0000 C   0  0  0  0  0  0  0  0  0  0  0  0
    5.5320   -0.5000    0.0000 C   0  0  0  0  0  0  0  0  0  0  0  0
    6.3981    1.0000    0.0000 C   0  0  0  0  0  0  0  0  0  0  0  0
    8.1580    1.0347    0.0000 C   0  0  0  0  0  0  0  0  0  0  0  0
    8.1580   -1.0347    0.0000 C   0  0  0  0  0  0  0  0  0  0  0  0
    4.6381    1.0347    0.0000 C   0  0  0  0  0  0  0  0  0  0  0  0
    4.6381   -1.0347    0.0000 C   0  0  0  0  0  0  0  0  0  0  0  0
    9.0641    0.5208    0.0000 C   0  0  0  0  0  0  0  0  0  0  0  0
    9.0641   -0.5208    0.0000 C   0  0  0  0  0  0  0  0  0  0  0  0
    3.7320   -0.5208    0.0000 C   0  0  0  0  0  0  0  0  0  0  0  0
    3.7320    0.5208    0.0000 C   0  0  0  0  0  0  0  0  0  0  0  0
    9.0067    2.5446    0.0000 C   0  0  0  0  0  0  0  0  0  0  0  0
    9.0067   -2.5446    0.0000 C   0  0  0  0  0  0  0  0  0  0  0  0
    2.0000   -0.5275    0.0000 C   0  0  0  0  0  0  0  0  0  0  0  0
    4.6453   -1.6546    0.0000 H   0  0  0  0  0  0  0  0  0  0  0  0
    9.5998    0.8329    0.0000 H   0  0  0  0  0  0  0  0  0  0  0  0
    9.5998   -0.8329    0.0000 H   0  0  0  0  0  0  0  0  0  0  0  0
    3.1963    0.8329    0.0000 H   0  0  0  0  0  0  0  0  0  0  0  0
    4.1164    2.3508    0.0000 H   0  0  0  0  0  0  0  0  0  0  0  0
    9.3229    2.0113    0.0000 H   0  0  0  0  0  0  0  0  0  0  0  0
    9.5400    2.8608    0.0000 H   0  0  0  0  0  0  0  0  0  0  0  0
    8.6905    3.0779    0.0000 H   0  0  0  0  0  0  0  0  0  0  0  0
    8.6905   -3.0779    0.0000 H   0  0  0  0  0  0  0  0  0  0  0  0
    9.5400   -2.8608    0.0000 H   0  0  0  0  0  0  0  0  0  0  0  0
    9.3229   -2.0113    0.0000 H   0  0  0  0  0  0  0  0  0  0  0  0
    2.3079    0.0106    0.0000 H   0  0  0  0  0  0  0  0  0  0  0  0
    1.4619   -0.2196    0.0000 H   0  0  0  0  0  0  0  0  0  0  0  0
    1.6921   -1.0656    0.0000 H   0  0  0  0  0  0  0  0  0  0  0  0
  1  9  1  0  0  0  0
  1 10  1  0  0  0  0
  2 12  1  0  0  0  0
  2 20  1  0  0  0  0
  3 13  1  0  0  0  0
  3 21  1  0  0  0  0
  4 11  2  0  0  0  0
  5 14  1  0  0  0  0
  5 27  1  0  0  0  0
  6 18  1  0  0  0  0
  6 22  1  0  0  0  0
  7  9  1  0  0  0  0
  7 11  1  0  0  0  0
  7 12  2  0  0  0  0
  8 10  1  0  0  0  0
  8 11  1  0  0  0  0
  8 14  2  0  0  0  0
  9 13  2  0  0  0  0
 10 15  2  0  0  0  0
 12 16  1  0  0  0  0
 13 17  1  0  0  0  0
 14 19  1  0  0  0  0
 15 18  1  0  0  0  0
 15 23  1  0  0  0  0
 16 17  2  0  0  0  0
 16 24  1  0  0  0  0
 17 25  1  0  0  0  0
 18 19  2  0  0  0  0
 19 26  1  0  0  0  0
 20 28  1  0  0  0  0
 20 29  1  0  0  0  0
 20 30  1  0  0  0  0
 21 31  1  0  0  0  0
 21 32  1  0  0  0  0
 21 33  1  0  0  0  0
 22 34  1  0  0  0  0
 22 35  1  0  0  0  0
 22 36  1  0  0  0  0
M  END
>  <PUBCHEM_COMPOUND_CID>
5378285

>  <PUBCHEM_COMPOUND_CANONICALIZED>
1

>  <PUBCHEM_CACTVS_COMPLEXITY>
413

>  <PUBCHEM_CACTVS_HBOND_ACCEPTOR>
6

>  <PUBCHEM_CACTVS_HBOND_DONOR>
1

>  <PUBCHEM_CACTVS_ROTATABLE_BOND>
3

>  <PUBCHEM_CACTVS_SUBSKEYS>
AAADccB4OAAAAAAAAAAAAAAAAAAAAAAAAAA0YIAAAAAAAACRQAAAGgAACAAADASAmAIyBoAABgCIAqBSAAACCAAkIAAIiAEGiMgNJzaGNRqCeWKl4BUKuQfK7PzOIQABCAAIQABCAAIQABCAAAAAAAAAAA==

>  <PUBCHEM_IUPAC_OPENEYE_NAME>
1-hydroxy-3,5,8-trimethoxy-xanthen-9-one

>  <PUBCHEM_IUPAC_CAS_NAME>
1-hydroxy-3,5,8-trimethoxy-9-xanthenone

>  <PUBCHEM_IUPAC_NAME>
1-hydroxy-3,5,8-trimethoxyxanthen-9-one

>  <PUBCHEM_IUPAC_SYSTEMATIC_NAME>
3,5,8-trimethoxy-1-oxidanyl-xanthen-9-one

>  <PUBCHEM_IUPAC_TRADITIONAL_NAME>
1-hydroxy-3,5,8-trimethoxy-xanthone

>  <PUBCHEM_IUPAC_INCHI>
InChI=1S/C16H14O6/c1-19-8-6-9(17)13-12(7-8)22-16-11(21-3)5-4-10(20-2)14(16)15(13)18/h4-7,17H,1-3H3

>  <PUBCHEM_IUPAC_INCHIKEY>
WSRRHFFQNVXIKF-UHFFFAOYSA-N

>  <PUBCHEM_XLOGP3_AA>
3.1

>  <PUBCHEM_EXACT_MASS>
302.079

>  <PUBCHEM_MOLECULAR_FORMULA>
C16H14O6

>  <PUBCHEM_MOLECULAR_WEIGHT>
302.282

>  <PUBCHEM_OPENEYE_CAN_SMILES>
COC1=C2C(=C(C=C1)OC)OC3=CC(=CC(=C3C2=O)O)OC

>  <PUBCHEM_OPENEYE_ISO_SMILES>
COC1=C2C(=C(C=C1)OC)OC3=CC(=CC(=C3C2=O)O)OC

>  <PUBCHEM_CACTVS_TPSA>
74.2

>  <PUBCHEM_MONOISOTOPIC_WEIGHT>
302.079

>  <PUBCHEM_TOTAL_CHARGE>
0

>  <PUBCHEM_HEAVY_ATOM_COUNT>
22

>  <PUBCHEM_ATOM_DEF_STEREO_COUNT>
0

>  <PUBCHEM_ATOM_UDEF_STEREO_COUNT>
0

>  <PUBCHEM_BOND_DEF_STEREO_COUNT>
0

>  <PUBCHEM_BOND_UDEF_STEREO_COUNT>
0

>  <PUBCHEM_ISOTOPIC_ATOM_COUNT>
0

>  <PUBCHEM_COMPONENT_COUNT>
1

>  <PUBCHEM_CACTVS_TAUTO_COUNT>
5

>  <PUBCHEM_COORDINATE_TYPE>
1
5
255

>  <PUBCHEM_BONDANNOTATIONS>
1  10  8
1  9  8
10  15  8
12  16  8
13  17  8
14  19  8
15  18  8
16  17  8
18  19  8
7  11  8
7  12  8
7  9  8
8  10  8
8  11  8
8  14  8
9  13  8

$$$$
