5379096
 OpenBabel06101807152D

 38 40  0  0  0  0  0  0  0  0999 V2000
    6.3580   -0.1743    0.0000 O   0  0  0  0  0  0  0  0  0  0  0  0
    2.8660    1.8604    0.0000 O   0  0  0  0  0  0  0  0  0  0  0  0
    4.5981    2.8604    0.0000 O   0  0  0  0  0  0  0  0  0  0  0  0
    2.8660   -0.1396    0.0000 O   0  0  0  0  0  0  0  0  0  0  0  0
    6.3465    2.8950    0.0000 O   0  0  0  0  0  0  0  0  0  0  0  0
    8.9846   -2.6671    0.0000 O   0  0  0  0  0  0  0  0  0  0  0  0
   10.7205   -1.6738    0.0000 O   0  0  0  0  0  0  0  0  0  0  0  0
    5.4641    1.3604    0.0000 C   0  0  0  0  0  0  0  0  0  0  0  0
    5.4641    0.3604    0.0000 C   0  0  0  0  0  0  0  0  0  0  0  0
    7.2641    0.3396    0.0000 C   0  0  0  0  0  0  0  0  0  0  0  0
    8.1282   -0.1637    0.0000 C   0  0  0  0  0  0  0  0  0  0  0  0
    4.5981    1.8604    0.0000 C   0  0  0  0  0  0  0  0  0  0  0  0
    6.3580    1.8951    0.0000 C   0  0  0  0  0  0  0  0  0  0  0  0
    7.2641    1.3812    0.0000 C   0  0  0  0  0  0  0  0  0  0  0  0
    4.5981   -0.1396    0.0000 C   0  0  0  0  0  0  0  0  0  0  0  0
    3.7320    1.3604    0.0000 C   0  0  0  0  0  0  0  0  0  0  0  0
    3.7320    0.3604    0.0000 C   0  0  0  0  0  0  0  0  0  0  0  0
    8.1244   -1.1637    0.0000 C   0  0  0  0  0  0  0  0  0  0  0  0
    8.9962    0.3329    0.0000 C   0  0  0  0  0  0  0  0  0  0  0  0
    8.9884   -1.6671    0.0000 C   0  0  0  0  0  0  0  0  0  0  0  0
    9.8602   -0.1704    0.0000 C   0  0  0  0  0  0  0  0  0  0  0  0
    9.8564   -1.1704    0.0000 C   0  0  0  0  0  0  0  0  0  0  0  0
    2.0000    1.3604    0.0000 C   0  0  0  0  0  0  0  0  0  0  0  0
    9.8487   -3.1704    0.0000 C   0  0  0  0  0  0  0  0  0  0  0  0
    7.7998    1.6933    0.0000 H   0  0  0  0  0  0  0  0  0  0  0  0
    4.5981   -0.7596    0.0000 H   0  0  0  0  0  0  0  0  0  0  0  0
    7.5862   -1.4717    0.0000 H   0  0  0  0  0  0  0  0  0  0  0  0
    8.9985    0.9529    0.0000 H   0  0  0  0  0  0  0  0  0  0  0  0
   10.3984    0.1375    0.0000 H   0  0  0  0  0  0  0  0  0  0  0  0
    4.0611    3.1704    0.0000 H   0  0  0  0  0  0  0  0  0  0  0  0
    2.8660   -0.7596    0.0000 H   0  0  0  0  0  0  0  0  0  0  0  0
    1.6900    1.8973    0.0000 H   0  0  0  0  0  0  0  0  0  0  0  0
    1.4631    1.0504    0.0000 H   0  0  0  0  0  0  0  0  0  0  0  0
    2.3100    0.8235    0.0000 H   0  0  0  0  0  0  0  0  0  0  0  0
   11.2586   -1.3658    0.0000 H   0  0  0  0  0  0  0  0  0  0  0  0
    9.5366   -3.7061    0.0000 H   0  0  0  0  0  0  0  0  0  0  0  0
   10.3844   -3.4825    0.0000 H   0  0  0  0  0  0  0  0  0  0  0  0
   10.1607   -2.6347    0.0000 H   0  0  0  0  0  0  0  0  0  0  0  0
  1  9  1  0  0  0  0
  1 10  1  0  0  0  0
  2 16  1  0  0  0  0
  2 23  1  0  0  0  0
  3 12  1  0  0  0  0
  3 30  1  0  0  0  0
  4 17  1  0  0  0  0
  4 31  1  0  0  0  0
  5 13  2  0  0  0  0
  6 20  1  0  0  0  0
  6 24  1  0  0  0  0
  7 22  1  0  0  0  0
  7 35  1  0  0  0  0
  8  9  2  0  0  0  0
  8 12  1  0  0  0  0
  8 13  1  0  0  0  0
  9 15  1  0  0  0  0
 10 11  1  0  0  0  0
 10 14  2  0  0  0  0
 11 18  2  0  0  0  0
 11 19  1  0  0  0  0
 12 16  2  0  0  0  0
 13 14  1  0  0  0  0
 14 25  1  0  0  0  0
 15 17  2  0  0  0  0
 15 26  1  0  0  0  0
 16 17  1  0  0  0  0
 18 20  1  0  0  0  0
 18 27  1  0  0  0  0
 19 21  2  0  0  0  0
 19 28  1  0  0  0  0
 20 22  2  0  0  0  0
 21 22  1  0  0  0  0
 21 29  1  0  0  0  0
 23 32  1  0  0  0  0
 23 33  1  0  0  0  0
 23 34  1  0  0  0  0
 24 36  1  0  0  0  0
 24 37  1  0  0  0  0
 24 38  1  0  0  0  0
M  END
>  <PUBCHEM_COMPOUND_CID>
5379096

>  <PUBCHEM_COMPOUND_CANONICALIZED>
1

>  <PUBCHEM_CACTVS_COMPLEXITY>
505

>  <PUBCHEM_CACTVS_HBOND_ACCEPTOR>
7

>  <PUBCHEM_CACTVS_HBOND_DONOR>
3

>  <PUBCHEM_CACTVS_ROTATABLE_BOND>
3

>  <PUBCHEM_CACTVS_SUBSKEYS>
AAADccB4OAAAAAAAAAAAAAAAAAAAAAAAAAAwYIAAAAAAAACBQAAAGgAACAAADASAmAIyBoAABgCIAqBSAAACCAAkIAAIiAEGiMgNJzaGNRqCeWOl4BULuQfK7LzOIQABCAAIQABCAAIQABCAAAAAAAAAAA==

>  <PUBCHEM_IUPAC_OPENEYE_NAME>
5,7-dihydroxy-2-(4-hydroxy-3-methoxy-phenyl)-6-methoxy-chromen-4-one

>  <PUBCHEM_IUPAC_CAS_NAME>
5,7-dihydroxy-2-(4-hydroxy-3-methoxyphenyl)-6-methoxy-1-benzopyran-4-one

>  <PUBCHEM_IUPAC_NAME>
5,7-dihydroxy-2-(4-hydroxy-3-methoxyphenyl)-6-methoxychromen-4-one

>  <PUBCHEM_IUPAC_SYSTEMATIC_NAME>
6-methoxy-2-(3-methoxy-4-oxidanyl-phenyl)-5,7-bis(oxidanyl)chromen-4-one

>  <PUBCHEM_IUPAC_TRADITIONAL_NAME>
5,7-dihydroxy-2-(4-hydroxy-3-methoxy-phenyl)-6-methoxy-chromone

>  <PUBCHEM_IUPAC_INCHI>
InChI=1S/C17H14O7/c1-22-13-5-8(3-4-9(13)18)12-6-10(19)15-14(24-12)7-11(20)17(23-2)16(15)21/h3-7,18,20-21H,1-2H3

>  <PUBCHEM_IUPAC_INCHIKEY>
GLAAQZFBFGEBPS-UHFFFAOYSA-N

>  <PUBCHEM_XLOGP3>
1.7

>  <PUBCHEM_EXACT_MASS>
330.074

>  <PUBCHEM_MOLECULAR_FORMULA>
C17H14O7

>  <PUBCHEM_MOLECULAR_WEIGHT>
330.292

>  <PUBCHEM_OPENEYE_CAN_SMILES>
COC1=C(C=CC(=C1)C2=CC(=O)C3=C(C(=C(C=C3O2)O)OC)O)O

>  <PUBCHEM_OPENEYE_ISO_SMILES>
COC1=C(C=CC(=C1)C2=CC(=O)C3=C(C(=C(C=C3O2)O)OC)O)O

>  <PUBCHEM_CACTVS_TPSA>
105

>  <PUBCHEM_MONOISOTOPIC_WEIGHT>
330.074

>  <PUBCHEM_TOTAL_CHARGE>
0

>  <PUBCHEM_HEAVY_ATOM_COUNT>
24

>  <PUBCHEM_ATOM_DEF_STEREO_COUNT>
0

>  <PUBCHEM_ATOM_UDEF_STEREO_COUNT>
0

>  <PUBCHEM_BOND_DEF_STEREO_COUNT>
0

>  <PUBCHEM_BOND_UDEF_STEREO_COUNT>
0

>  <PUBCHEM_ISOTOPIC_ATOM_COUNT>
0

>  <PUBCHEM_COMPONENT_COUNT>
1

>  <PUBCHEM_CACTVS_TAUTO_COUNT>
69

>  <PUBCHEM_COORDINATE_TYPE>
1
5
255

>  <PUBCHEM_BONDANNOTATIONS>
1  10  8
1  9  8
10  14  8
11  18  8
11  19  8
12  16  8
13  14  8
15  17  8
16  17  8
18  20  8
19  21  8
20  22  8
21  22  8
8  12  8
8  13  8
8  9  8
9  15  8

$$$$
