5380976
 OpenBabel06101807152D

 31 33  0  0  0  0  0  0  0  0999 V2000
    6.0682   -1.7327    0.0000 O   0  0  0  0  0  0  0  0  0  0  0  0
    6.0682    1.2673    0.0000 O   0  0  0  0  0  0  0  0  0  0  0  0
    2.5381   -1.7568    0.0000 O   0  0  0  0  0  0  0  0  0  0  0  0
    6.9343   -0.2327    0.0000 C   0  0  0  0  0  0  0  0  0  0  0  0
    5.2022   -0.2327    0.0000 C   0  0  0  0  0  0  0  0  0  0  0  0
    6.9343   -1.2327    0.0000 C   0  0  0  0  0  0  0  0  0  0  0  0
    6.0682    0.2673    0.0000 C   0  0  0  0  0  0  0  0  0  0  0  0
    5.2022   -1.2327    0.0000 C   0  0  0  0  0  0  0  0  0  0  0  0
    7.8003    0.2673    0.0000 C   0  0  0  0  0  0  0  0  0  0  0  0
    4.3083    0.3020    0.0000 C   0  0  0  0  0  0  0  0  0  0  0  0
    4.3083   -1.7673    0.0000 C   0  0  0  0  0  0  0  0  0  0  0  0
    7.8003   -1.7327    0.0000 C   0  0  0  0  0  0  0  0  0  0  0  0
    8.6663   -0.2327    0.0000 C   0  0  0  0  0  0  0  0  0  0  0  0
    7.8003    1.2673    0.0000 C   0  0  0  0  0  0  0  0  0  0  0  0
    3.4022   -1.2535    0.0000 C   0  0  0  0  0  0  0  0  0  0  0  0
    3.4022   -0.2119    0.0000 C   0  0  0  0  0  0  0  0  0  0  0  0
    9.5323    0.2673    0.0000 C   0  0  0  0  0  0  0  0  0  0  0  0
    8.6663    1.7673    0.0000 C   0  0  0  0  0  0  0  0  0  0  0  0
    9.5323    1.2673    0.0000 C   0  0  0  0  0  0  0  0  0  0  0  0
    4.3154    0.9220    0.0000 H   0  0  0  0  0  0  0  0  0  0  0  0
    4.3154   -2.3873    0.0000 H   0  0  0  0  0  0  0  0  0  0  0  0
    7.4903   -2.2696    0.0000 H   0  0  0  0  0  0  0  0  0  0  0  0
    8.3372   -2.0427    0.0000 H   0  0  0  0  0  0  0  0  0  0  0  0
    8.1103   -1.1957    0.0000 H   0  0  0  0  0  0  0  0  0  0  0  0
    8.6663   -0.8527    0.0000 H   0  0  0  0  0  0  0  0  0  0  0  0
    7.2634    1.5773    0.0000 H   0  0  0  0  0  0  0  0  0  0  0  0
    2.8665    0.1002    0.0000 H   0  0  0  0  0  0  0  0  0  0  0  0
   10.0693   -0.0427    0.0000 H   0  0  0  0  0  0  0  0  0  0  0  0
    8.6663    2.3873    0.0000 H   0  0  0  0  0  0  0  0  0  0  0  0
   10.0693    1.5773    0.0000 H   0  0  0  0  0  0  0  0  0  0  0  0
    2.0000   -1.4489    0.0000 H   0  0  0  0  0  0  0  0  0  0  0  0
  1  6  1  0  0  0  0
  1  8  1  0  0  0  0
  2  7  2  0  0  0  0
  3 15  1  0  0  0  0
  3 31  1  0  0  0  0
  4  6  2  0  0  0  0
  4  7  1  0  0  0  0
  4  9  1  0  0  0  0
  5  7  1  0  0  0  0
  5  8  2  0  0  0  0
  5 10  1  0  0  0  0
  6 12  1  0  0  0  0
  8 11  1  0  0  0  0
  9 13  2  0  0  0  0
  9 14  1  0  0  0  0
 10 16  2  0  0  0  0
 10 20  1  0  0  0  0
 11 15  2  0  0  0  0
 11 21  1  0  0  0  0
 12 22  1  0  0  0  0
 12 23  1  0  0  0  0
 12 24  1  0  0  0  0
 13 17  1  0  0  0  0
 13 25  1  0  0  0  0
 14 18  2  0  0  0  0
 14 26  1  0  0  0  0
 15 16  1  0  0  0  0
 16 27  1  0  0  0  0
 17 19  2  0  0  0  0
 17 28  1  0  0  0  0
 18 19  1  0  0  0  0
 18 29  1  0  0  0  0
 19 30  1  0  0  0  0
M  END
>  <PUBCHEM_COMPOUND_CID>
5380976

>  <PUBCHEM_COMPOUND_CANONICALIZED>
1

>  <PUBCHEM_CACTVS_COMPLEXITY>
393

>  <PUBCHEM_CACTVS_HBOND_ACCEPTOR>
3

>  <PUBCHEM_CACTVS_HBOND_DONOR>
1

>  <PUBCHEM_CACTVS_ROTATABLE_BOND>
1

>  <PUBCHEM_CACTVS_SUBSKEYS>
AAADccB4MAAAAAAAAAAAAAAAAAAAAAAAAAAwYIAAAAAAAACBQAAAGgAACAAADASAmAAyBoAABgCIAqBSAAACCAAkIAAIiAEGCMgMJzaGNRqCeWCl4BUIuYeI7PzOIAAACAAIAABAAAAQABAAAAAAAAAAAA==

>  <PUBCHEM_IUPAC_OPENEYE_NAME>
7-hydroxy-2-methyl-3-phenyl-chromen-4-one

>  <PUBCHEM_IUPAC_CAS_NAME>
7-hydroxy-2-methyl-3-phenyl-1-benzopyran-4-one

>  <PUBCHEM_IUPAC_NAME>
7-hydroxy-2-methyl-3-phenylchromen-4-one

>  <PUBCHEM_IUPAC_SYSTEMATIC_NAME>
2-methyl-7-oxidanyl-3-phenyl-chromen-4-one

>  <PUBCHEM_IUPAC_TRADITIONAL_NAME>
7-hydroxy-2-methyl-3-phenyl-chromone

>  <PUBCHEM_IUPAC_INCHI>
InChI=1S/C16H12O3/c1-10-15(11-5-3-2-4-6-11)16(18)13-8-7-12(17)9-14(13)19-10/h2-9,17H,1H3

>  <PUBCHEM_IUPAC_INCHIKEY>
BBCDTCKKROIGAB-UHFFFAOYSA-N

>  <PUBCHEM_XLOGP3>
3.1

>  <PUBCHEM_EXACT_MASS>
252.079

>  <PUBCHEM_MOLECULAR_FORMULA>
C16H12O3

>  <PUBCHEM_MOLECULAR_WEIGHT>
252.269

>  <PUBCHEM_OPENEYE_CAN_SMILES>
CC1=C(C(=O)C2=C(O1)C=C(C=C2)O)C3=CC=CC=C3

>  <PUBCHEM_OPENEYE_ISO_SMILES>
CC1=C(C(=O)C2=C(O1)C=C(C=C2)O)C3=CC=CC=C3

>  <PUBCHEM_CACTVS_TPSA>
46.5

>  <PUBCHEM_MONOISOTOPIC_WEIGHT>
252.079

>  <PUBCHEM_TOTAL_CHARGE>
0

>  <PUBCHEM_HEAVY_ATOM_COUNT>
19

>  <PUBCHEM_ATOM_DEF_STEREO_COUNT>
0

>  <PUBCHEM_ATOM_UDEF_STEREO_COUNT>
0

>  <PUBCHEM_BOND_DEF_STEREO_COUNT>
0

>  <PUBCHEM_BOND_UDEF_STEREO_COUNT>
0

>  <PUBCHEM_ISOTOPIC_ATOM_COUNT>
0

>  <PUBCHEM_COMPONENT_COUNT>
1

>  <PUBCHEM_CACTVS_TAUTO_COUNT>
14

>  <PUBCHEM_COORDINATE_TYPE>
1
5
255

>  <PUBCHEM_BONDANNOTATIONS>
1  6  8
1  8  8
10  16  8
11  15  8
13  17  8
14  18  8
15  16  8
17  19  8
18  19  8
4  6  8
4  7  8
5  10  8
5  7  8
5  8  8
8  11  8
9  13  8
9  14  8

$$$$
