5385029
 OpenBabel06101807152D

 84 85  0  0  1  0  0  0  0  0999 V2000
    5.4641   -0.8100    0.0000 O   0  0  0  0  0  0  0  0  0  0  0  0
    3.7320   -0.8100    0.0000 O   0  0  0  0  0  0  0  0  0  0  0  0
    6.3301    1.6900    0.0000 O   0  0  0  0  0  0  0  0  0  0  0  0
    4.5981   -3.3100    0.0000 O   0  0  0  0  0  0  0  0  0  0  0  0
    5.4641   -2.8100    0.0000 O   0  0  0  0  0  0  0  0  0  0  0  0
    7.1962   -0.8100    0.0000 O   0  0  0  0  0  0  0  0  0  0  0  0
    2.8660    3.6900    0.0000 O   0  0  0  0  0  0  0  0  0  0  0  0
    2.0000   -2.8100    0.0000 O   0  0  0  0  0  0  0  0  0  0  0  0
    8.9282    2.1900    0.0000 O   0  0  0  0  0  0  0  0  0  0  0  0
    7.0622    1.6900    0.0000 O   0  0  0  0  0  0  0  0  0  0  0  0
    4.5981    0.6900    0.0000 C   0  0  3  0  0  0  0  0  0  0  0  0
    5.4641    0.1900    0.0000 C   0  0  3  0  0  0  0  0  0  0  0  0
    4.5981    1.6900    0.0000 C   0  0  0  0  0  0  0  0  0  0  0  0
    3.7320   -2.8100    0.0000 C   0  0  3  0  0  0  0  0  0  0  0  0
    4.5981   -1.3100    0.0000 C   0  0  3  0  0  0  0  0  0  0  0  0
    6.3301    0.6900    0.0000 C   0  0  3  0  0  0  0  0  0  0  0  0
    4.5981   -2.3100    0.0000 C   0  0  3  0  0  0  0  0  0  0  0  0
    2.8660   -2.3100    0.0000 C   0  0  0  0  0  0  0  0  0  0  0  0
    3.7320    2.1900    0.0000 C   0  0  3  0  0  0  0  0  0  0  0  0
    3.7320    0.1900    0.0000 C   0  0  0  0  0  0  0  0  0  0  0  0
    2.8660   -1.3100    0.0000 C   0  0  3  0  0  0  0  0  0  0  0  0
    7.1962    0.1900    0.0000 C   0  0  3  0  0  0  0  0  0  0  0  0
    3.7320    3.1900    0.0000 C   0  0  3  0  0  0  0  0  0  0  0  0
    2.8660   -3.3100    0.0000 C   0  0  0  0  0  0  0  0  0  0  0  0
    2.8660    1.6900    0.0000 C   0  0  0  0  0  0  0  0  0  0  0  0
    2.8660    0.6900    0.0000 C   0  0  0  0  0  0  0  0  0  0  0  0
    2.0000   -0.8100    0.0000 C   0  0  0  0  0  0  0  0  0  0  0  0
    8.0622    0.6900    0.0000 C   0  0  0  0  0  0  0  0  0  0  0  0
    2.8660   -4.3100    0.0000 C   0  0  0  0  0  0  0  0  0  0  0  0
    4.5981    3.6900    0.0000 C   0  0  0  0  0  0  0  0  0  0  0  0
    5.3301    1.6900    0.0000 C   0  0  0  0  0  0  0  0  0  0  0  0
    8.0622    1.6900    0.0000 C   0  0  0  0  0  0  0  0  0  0  0  0
    5.4641    3.1900    0.0000 C   0  0  0  0  0  0  0  0  0  0  0  0
    8.9282    3.1900    0.0000 C   0  0  3  0  0  0  0  0  0  0  0  0
    6.3301    3.6900    0.0000 C   0  0  0  0  0  0  0  0  0  0  0  0
    8.0622    3.6900    0.0000 C   0  0  0  0  0  0  0  0  0  0  0  0
    7.1962    3.1900    0.0000 C   0  0  0  0  0  0  0  0  0  0  0  0
    9.7942    3.6900    0.0000 C   0  0  0  0  0  0  0  0  0  0  0  0
    4.5981   -0.1600    0.0000 H   0  0  0  0  0  0  0  0  0  0  0  0
    6.2002   -0.2350    0.0000 H   0  0  0  0  0  0  0  0  0  0  0  0
    5.2087    1.5823    0.0000 H   0  0  0  0  0  0  0  0  0  0  0  0
    4.8101    2.2726    0.0000 H   0  0  0  0  0  0  0  0  0  0  0  0
    5.3342   -1.7350    0.0000 H   0  0  0  0  0  0  0  0  0  0  0  0
    5.5940    1.1150    0.0000 H   0  0  0  0  0  0  0  0  0  0  0  0
    5.3342   -1.8850    0.0000 H   0  0  0  0  0  0  0  0  0  0  0  0
    2.2554   -2.2023    0.0000 H   0  0  0  0  0  0  0  0  0  0  0  0
    2.6540   -2.8926    0.0000 H   0  0  0  0  0  0  0  0  0  0  0  0
    2.9959    2.6150    0.0000 H   0  0  0  0  0  0  0  0  0  0  0  0
    3.3335   -0.2849    0.0000 H   0  0  0  0  0  0  0  0  0  0  0  0
    4.1306   -0.2849    0.0000 H   0  0  0  0  0  0  0  0  0  0  0  0
    2.8660   -0.4600    0.0000 H   0  0  0  0  0  0  0  0  0  0  0  0
    7.9323   -0.2350    0.0000 H   0  0  0  0  0  0  0  0  0  0  0  0
    3.7320    4.0400    0.0000 H   0  0  0  0  0  0  0  0  0  0  0  0
    2.5560    2.2269    0.0000 H   0  0  0  0  0  0  0  0  0  0  0  0
    2.3291    1.3800    0.0000 H   0  0  0  0  0  0  0  0  0  0  0  0
    3.1760    1.1531    0.0000 H   0  0  0  0  0  0  0  0  0  0  0  0
    3.1760    1.2269    0.0000 H   0  0  0  0  0  0  0  0  0  0  0  0
    2.3291    1.0000    0.0000 H   0  0  0  0  0  0  0  0  0  0  0  0
    2.5560    0.1531    0.0000 H   0  0  0  0  0  0  0  0  0  0  0  0
    2.3100   -0.2731    0.0000 H   0  0  0  0  0  0  0  0  0  0  0  0
    1.4631   -0.5000    0.0000 H   0  0  0  0  0  0  0  0  0  0  0  0
    1.6900   -1.3469    0.0000 H   0  0  0  0  0  0  0  0  0  0  0  0
    8.2742    0.1074    0.0000 H   0  0  0  0  0  0  0  0  0  0  0  0
    8.6728    0.7977    0.0000 H   0  0  0  0  0  0  0  0  0  0  0  0
    4.5981   -3.9300    0.0000 H   0  0  0  0  0  0  0  0  0  0  0  0
    6.0010   -2.5000    0.0000 H   0  0  0  0  0  0  0  0  0  0  0  0
    2.2460   -4.3100    0.0000 H   0  0  0  0  0  0  0  0  0  0  0  0
    2.8660   -4.9300    0.0000 H   0  0  0  0  0  0  0  0  0  0  0  0
    3.4860   -4.3100    0.0000 H   0  0  0  0  0  0  0  0  0  0  0  0
    4.5981    4.3100    0.0000 H   0  0  0  0  0  0  0  0  0  0  0  0
    7.7331   -1.1200    0.0000 H   0  0  0  0  0  0  0  0  0  0  0  0
    5.3301    2.3100    0.0000 H   0  0  0  0  0  0  0  0  0  0  0  0
    4.7101    1.6900    0.0000 H   0  0  0  0  0  0  0  0  0  0  0  0
    5.3301    1.0700    0.0000 H   0  0  0  0  0  0  0  0  0  0  0  0
    2.8660    4.3100    0.0000 H   0  0  0  0  0  0  0  0  0  0  0  0
    5.1542    2.6530    0.0000 H   0  0  0  0  0  0  0  0  0  0  0  0
    9.6643    2.7650    0.0000 H   0  0  0  0  0  0  0  0  0  0  0  0
    6.3301    4.3100    0.0000 H   0  0  0  0  0  0  0  0  0  0  0  0
    8.4607    4.1650    0.0000 H   0  0  0  0  0  0  0  0  0  0  0  0
    7.6636    4.1650    0.0000 H   0  0  0  0  0  0  0  0  0  0  0  0
    7.1962    2.5700    0.0000 H   0  0  0  0  0  0  0  0  0  0  0  0
   10.1042    3.1531    0.0000 H   0  0  0  0  0  0  0  0  0  0  0  0
   10.3312    4.0000    0.0000 H   0  0  0  0  0  0  0  0  0  0  0  0
    9.4842    4.2269    0.0000 H   0  0  0  0  0  0  0  0  0  0  0  0
  1 12  1  0  0  0  0
  1 15  1  0  0  0  0
  2 15  1  0  0  0  0
  2 21  1  0  0  0  0
  3 16  1  0  0  0  0
  3 31  1  0  0  0  0
  4 14  1  0  0  0  0
  4 65  1  0  0  0  0
  5 17  1  0  0  0  0
  5 66  1  0  0  0  0
  6 22  1  0  0  0  0
  6 71  1  0  0  0  0
  7 23  1  0  0  0  0
  7 75  1  0  0  0  0
  8 24  2  0  0  0  0
  9 32  1  0  0  0  0
  9 34  1  0  0  0  0
 10 32  2  0  0  0  0
 11 12  1  0  0  0  0
 11 13  1  0  0  0  0
 11 20  1  0  0  0  0
 11 39  1  0  0  0  0
 12 16  1  0  0  0  0
 12 40  1  0  0  0  0
 13 19  1  0  0  0  0
 13 41  1  0  0  0  0
 13 42  1  0  0  0  0
 14 17  1  0  0  0  0
 14 18  1  0  0  0  0
 14 24  1  0  0  0  0
 15 17  1  0  0  0  0
 15 43  1  0  0  0  0
 16 22  1  0  0  0  0
 16 44  1  0  0  0  0
 17 45  1  0  0  0  0
 18 21  1  0  0  0  0
 18 46  1  0  0  0  0
 18 47  1  0  0  0  0
 19 23  1  0  0  0  0
 19 25  1  0  0  0  0
 19 48  1  0  0  0  0
 20 26  1  0  0  0  0
 20 49  1  0  0  0  0
 20 50  1  0  0  0  0
 21 27  1  0  0  0  0
 21 51  1  0  0  0  0
 22 28  1  0  0  0  0
 22 52  1  0  0  0  0
 23 30  1  0  0  0  0
 23 53  1  0  0  0  0
 24 29  1  0  0  0  0
 25 54  1  0  0  0  0
 25 55  1  0  0  0  0
 25 56  1  0  0  0  0
 26 57  1  0  0  0  0
 26 58  1  0  0  0  0
 26 59  1  0  0  0  0
 27 60  1  0  0  0  0
 27 61  1  0  0  0  0
 27 62  1  0  0  0  0
 28 32  1  0  0  0  0
 28 63  1  0  0  0  0
 28 64  1  0  0  0  0
 29 67  1  0  0  0  0
 29 68  1  0  0  0  0
 29 69  1  0  0  0  0
 30 33  2  0  0  0  0
 30 70  1  0  0  0  0
 31 72  1  0  0  0  0
 31 73  1  0  0  0  0
 31 74  1  0  0  0  0
 33 35  1  0  0  0  0
 33 76  1  0  0  0  0
 34 36  1  0  0  0  0
 34 38  1  0  0  0  0
 34 77  1  0  0  0  0
 35 37  2  0  0  0  0
 35 78  1  0  0  0  0
 36 37  1  0  0  0  0
 36 79  1  0  0  0  0
 36 80  1  0  0  0  0
 37 81  1  0  0  0  0
 38 82  1  0  0  0  0
 38 83  1  0  0  0  0
 38 84  1  0  0  0  0
M  END
>  <PUBCHEM_COMPOUND_CID>
5385029

>  <PUBCHEM_COMPOUND_CANONICALIZED>
1

>  <PUBCHEM_CACTVS_COMPLEXITY>
829

>  <PUBCHEM_CACTVS_HBOND_ACCEPTOR>
10

>  <PUBCHEM_CACTVS_HBOND_DONOR>
4

>  <PUBCHEM_CACTVS_ROTATABLE_BOND>
5

>  <PUBCHEM_CACTVS_SUBSKEYS>
AAADcfB4PAAAAAAAAAAAAAAAAAAAAAAAAAAkAAAAAAAAAAAAAAAAGgAACAAADVSwgAMCCAAABgCIAKDSCAIAAAAgAAAICAFAAAgZFBYAAQAiUAAF4AAPkAPK7PzOAAAAAAAAAAAAAAAAAAAAAAAAAAAAAA==

>  <PUBCHEM_IUPAC_OPENEYE_NAME>
(11E,13E)-6-(4-acetyl-3,4-dihydroxy-6-methyl-tetrahydropyran-2-yl)oxy-7-ethyl-4,10-dihydroxy-5-methoxy-9,16-dimethyl-1-oxacyclohexadeca-11,13-dien-2-one

>  <PUBCHEM_IUPAC_CAS_NAME>
(11E,13E)-6-[(4-acetyl-3,4-dihydroxy-6-methyl-2-oxanyl)oxy]-7-ethyl-4,10-dihydroxy-5-methoxy-9,16-dimethyl-1-oxacyclohexadeca-11,13-dien-2-one

>  <PUBCHEM_IUPAC_NAME>
(11E,13E)-6-(4-acetyl-3,4-dihydroxy-6-methyloxan-2-yl)oxy-7-ethyl-4,10-dihydroxy-5-methoxy-9,16-dimethyl-1-oxacyclohexadeca-11,13-dien-2-one

>  <PUBCHEM_IUPAC_SYSTEMATIC_NAME>
(11E,13E)-6-[4-ethanoyl-6-methyl-3,4-bis(oxidanyl)oxan-2-yl]oxy-7-ethyl-5-methoxy-9,16-dimethyl-4,10-bis(oxidanyl)-1-oxacyclohexadeca-11,13-dien-2-one

>  <PUBCHEM_IUPAC_TRADITIONAL_NAME>
(11E,13E)-6-(4-acetyl-3,4-dihydroxy-6-methyl-tetrahydropyran-2-yl)oxy-7-ethyl-4,10-dihydroxy-5-methoxy-9,16-dimethyl-1-oxacyclohexadeca-11,13-dien-2-one

>  <PUBCHEM_IUPAC_INCHI>
InChI=1S/C28H46O10/c1-7-20-13-16(2)21(30)12-10-8-9-11-17(3)36-23(32)14-22(31)25(35-6)24(20)38-27-26(33)28(34,19(5)29)15-18(4)37-27/h8-10,12,16-18,20-22,24-27,30-31,33-34H,7,11,13-15H2,1-6H3/b9-8+,12-10+

>  <PUBCHEM_IUPAC_INCHIKEY>
IZFPDEQYDFAJRK-CDKJVOIVSA-N

>  <PUBCHEM_XLOGP3_AA>
2.3

>  <PUBCHEM_EXACT_MASS>
542.309

>  <PUBCHEM_MOLECULAR_FORMULA>
C28H46O10

>  <PUBCHEM_MOLECULAR_WEIGHT>
542.666

>  <PUBCHEM_OPENEYE_CAN_SMILES>
CCC1CC(C(C=CC=CCC(OC(=O)CC(C(C1OC2C(C(CC(O2)C)(C(=O)C)O)O)OC)O)C)O)C

>  <PUBCHEM_OPENEYE_ISO_SMILES>
CCC1CC(C(/C=C/C=C/CC(OC(=O)CC(C(C1OC2C(C(CC(O2)C)(C(=O)C)O)O)OC)O)C)O)C

>  <PUBCHEM_CACTVS_TPSA>
152

>  <PUBCHEM_MONOISOTOPIC_WEIGHT>
542.309

>  <PUBCHEM_TOTAL_CHARGE>
0

>  <PUBCHEM_HEAVY_ATOM_COUNT>
38

>  <PUBCHEM_ATOM_DEF_STEREO_COUNT>
0

>  <PUBCHEM_ATOM_UDEF_STEREO_COUNT>
11

>  <PUBCHEM_BOND_DEF_STEREO_COUNT>
2

>  <PUBCHEM_BOND_UDEF_STEREO_COUNT>
0

>  <PUBCHEM_ISOTOPIC_ATOM_COUNT>
0

>  <PUBCHEM_COMPONENT_COUNT>
1

>  <PUBCHEM_CACTVS_TAUTO_COUNT>
4

>  <PUBCHEM_COORDINATE_TYPE>
1
5
255

>  <PUBCHEM_BONDANNOTATIONS>
11  39  3
12  40  3
14  24  3
15  43  3
16  44  3
17  45  3
19  48  3
21  51  3
22  52  3
23  53  3
34  77  3

$$$$
