53854515
 OpenBabel06101807152D

 23 22  0  0  0  0  0  0  0  0999 V2000
    9.7942    0.2500    0.0000 S   0  0  0  0  0  0  0  0  0  0  0  0
    4.5981    0.2500    0.0000 S   0  0  0  0  0  0  0  0  0  0  0  0
    8.9282   -0.2500    0.0000 S   0  0  0  0  0  0  0  0  0  0  0  0
    5.4641   -0.2500    0.0000 S   0  0  0  0  0  0  0  0  0  0  0  0
    8.0622    0.2500    0.0000 S   0  0  0  0  0  0  0  0  0  0  0  0
    6.3301    0.2500    0.0000 S   0  0  0  0  0  0  0  0  0  0  0  0
    7.1962   -0.2500    0.0000 S   0  0  0  0  0  0  0  0  0  0  0  0
   10.6603   -0.2500    0.0000 C   0  0  0  0  0  0  0  0  0  0  0  0
    3.7320   -0.2500    0.0000 C   0  0  0  0  0  0  0  0  0  0  0  0
   11.5263    0.2500    0.0000 C   0  0  0  0  0  0  0  0  0  0  0  0
    2.8660    0.2500    0.0000 C   0  0  0  0  0  0  0  0  0  0  0  0
    2.0000   -0.2500    0.0000 C   0  0  0  0  0  0  0  0  0  0  0  0
   12.3923   -0.2500    0.0000 C   0  0  0  0  0  0  0  0  0  0  0  0
   10.2617   -0.7249    0.0000 H   0  0  0  0  0  0  0  0  0  0  0  0
   11.0588   -0.7249    0.0000 H   0  0  0  0  0  0  0  0  0  0  0  0
    3.3335   -0.7249    0.0000 H   0  0  0  0  0  0  0  0  0  0  0  0
    4.1306   -0.7249    0.0000 H   0  0  0  0  0  0  0  0  0  0  0  0
   11.5263    0.8700    0.0000 H   0  0  0  0  0  0  0  0  0  0  0  0
    2.8660    0.8700    0.0000 H   0  0  0  0  0  0  0  0  0  0  0  0
   12.3923   -0.8700    0.0000 H   0  0  0  0  0  0  0  0  0  0  0  0
   12.9292    0.0600    0.0000 H   0  0  0  0  0  0  0  0  0  0  0  0
    1.4631    0.0600    0.0000 H   0  0  0  0  0  0  0  0  0  0  0  0
    2.0000   -0.8700    0.0000 H   0  0  0  0  0  0  0  0  0  0  0  0
  1  3  1  0  0  0  0
  1  8  1  0  0  0  0
  2  4  1  0  0  0  0
  2  9  1  0  0  0  0
  3  5  1  0  0  0  0
  4  6  1  0  0  0  0
  5  7  1  0  0  0  0
  6  7  1  0  0  0  0
  8 10  1  0  0  0  0
  8 14  1  0  0  0  0
  8 15  1  0  0  0  0
  9 11  1  0  0  0  0
  9 16  1  0  0  0  0
  9 17  1  0  0  0  0
 10 13  2  0  0  0  0
 10 18  1  0  0  0  0
 11 12  2  0  0  0  0
 11 19  1  0  0  0  0
 12 22  1  0  0  0  0
 12 23  1  0  0  0  0
 13 20  1  0  0  0  0
 13 21  1  0  0  0  0
M  END
>  <PUBCHEM_COMPOUND_CID>
53854515

>  <PUBCHEM_COMPOUND_CANONICALIZED>
1

>  <PUBCHEM_CACTVS_COMPLEXITY>
112

>  <PUBCHEM_CACTVS_HBOND_ACCEPTOR>
7

>  <PUBCHEM_CACTVS_HBOND_DONOR>
0

>  <PUBCHEM_CACTVS_ROTATABLE_BOND>
10

>  <PUBCHEM_CACTVS_SUBSKEYS>
AAADccBgAABwAAAAAAAAAAAAAAAAAAAAAAAAAAAAAAAAAAAAAAAAGAQAAAAACACEQACAAAAAAACAACBCAAAAAAAAAAAIAAAAAAAAAAAAAQAAAAAAAAAAAAAAAAAAAAAAAAAAAAAAAAAAAAAAAAAAAAAAAA==

>  <PUBCHEM_IUPAC_OPENEYE_NAME>
3-(allylheptasulfanyl)prop-1-ene

>  <PUBCHEM_IUPAC_CAS_NAME>
3-(prop-2-enylheptasulfanyl)-1-propene

>  <PUBCHEM_IUPAC_NAME>
3-(prop-2-enylheptasulfanyl)prop-1-ene

>  <PUBCHEM_IUPAC_SYSTEMATIC_NAME>
3-(prop-2-enylheptasulfanyl)prop-1-ene

>  <PUBCHEM_IUPAC_TRADITIONAL_NAME>
3-(allylheptasulfanyl)prop-1-ene

>  <PUBCHEM_IUPAC_INCHI>
InChI=1S/C6H10S7/c1-3-5-7-9-11-13-12-10-8-6-4-2/h3-4H,1-2,5-6H2

>  <PUBCHEM_IUPAC_INCHIKEY>
GSEBMLLGHBSQFW-UHFFFAOYSA-N

>  <PUBCHEM_XLOGP3_AA>
4.4

>  <PUBCHEM_EXACT_MASS>
305.883

>  <PUBCHEM_MOLECULAR_FORMULA>
C6H10S7

>  <PUBCHEM_MOLECULAR_WEIGHT>
306.566

>  <PUBCHEM_OPENEYE_CAN_SMILES>
C=CCSSSSSSSCC=C

>  <PUBCHEM_OPENEYE_ISO_SMILES>
C=CCSSSSSSSCC=C

>  <PUBCHEM_CACTVS_TPSA>
177

>  <PUBCHEM_MONOISOTOPIC_WEIGHT>
305.883

>  <PUBCHEM_TOTAL_CHARGE>
0

>  <PUBCHEM_HEAVY_ATOM_COUNT>
13

>  <PUBCHEM_ATOM_DEF_STEREO_COUNT>
0

>  <PUBCHEM_ATOM_UDEF_STEREO_COUNT>
0

>  <PUBCHEM_BOND_DEF_STEREO_COUNT>
0

>  <PUBCHEM_BOND_UDEF_STEREO_COUNT>
0

>  <PUBCHEM_ISOTOPIC_ATOM_COUNT>
0

>  <PUBCHEM_COMPONENT_COUNT>
1

>  <PUBCHEM_CACTVS_TAUTO_COUNT>
1

>  <PUBCHEM_COORDINATE_TYPE>
1
5
255

$$$$
