5387194
 OpenBabel06101807152D

 32 35  0  0  0  0  0  0  0  0999 V2000
    5.5022   -2.0877    0.0000 O   0  0  0  0  0  0  0  0  0  0  0  0
    9.0744   -0.2483    0.0000 O   0  0  0  0  0  0  0  0  0  0  0  0
    9.0744   -1.8578    0.0000 O   0  0  0  0  0  0  0  0  0  0  0  0
    7.2622    0.9469    0.0000 O   0  0  0  0  0  0  0  0  0  0  0  0
    5.5138    0.9815    0.0000 O   0  0  0  0  0  0  0  0  0  0  0  0
    4.6038    1.4677    0.0000 O   0  0  0  0  0  0  0  0  0  0  0  0
    6.3961   -0.5531    0.0000 C   0  0  0  0  0  0  0  0  0  0  0  0
    6.3961   -1.5531    0.0000 C   0  0  0  0  0  0  0  0  0  0  0  0
    8.1282   -0.5531    0.0000 C   0  0  0  0  0  0  0  0  0  0  0  0
    7.2622   -0.0531    0.0000 C   0  0  0  0  0  0  0  0  0  0  0  0
    8.1282   -1.5531    0.0000 C   0  0  0  0  0  0  0  0  0  0  0  0
    4.5961   -0.5323    0.0000 C   0  0  0  0  0  0  0  0  0  0  0  0
    5.5022   -0.0184    0.0000 C   0  0  0  0  0  0  0  0  0  0  0  0
    7.2622   -2.0531    0.0000 C   0  0  0  0  0  0  0  0  0  0  0  0
    3.7320   -0.0289    0.0000 C   0  0  0  0  0  0  0  0  0  0  0  0
    4.5961   -1.5739    0.0000 C   0  0  0  0  0  0  0  0  0  0  0  0
    9.6580   -1.0531    0.0000 C   0  0  0  0  0  0  0  0  0  0  0  0
    3.7359    0.9711    0.0000 C   0  0  0  0  0  0  0  0  0  0  0  0
    2.8641   -0.5256    0.0000 C   0  0  0  0  0  0  0  0  0  0  0  0
    2.8718    1.4744    0.0000 C   0  0  0  0  0  0  0  0  0  0  0  0
    2.0000   -0.0222    0.0000 C   0  0  0  0  0  0  0  0  0  0  0  0
    2.0038    0.9778    0.0000 C   0  0  0  0  0  0  0  0  0  0  0  0
    7.2622   -2.6731    0.0000 H   0  0  0  0  0  0  0  0  0  0  0  0
    4.0604   -1.8860    0.0000 H   0  0  0  0  0  0  0  0  0  0  0  0
   10.1189   -1.4678    0.0000 H   0  0  0  0  0  0  0  0  0  0  0  0
   10.1189   -0.6383    0.0000 H   0  0  0  0  0  0  0  0  0  0  0  0
    2.8617   -1.1456    0.0000 H   0  0  0  0  0  0  0  0  0  0  0  0
    7.7991    1.2569    0.0000 H   0  0  0  0  0  0  0  0  0  0  0  0
    2.8742    2.0944    0.0000 H   0  0  0  0  0  0  0  0  0  0  0  0
    1.4619   -0.3302    0.0000 H   0  0  0  0  0  0  0  0  0  0  0  0
    1.4681    1.2898    0.0000 H   0  0  0  0  0  0  0  0  0  0  0  0
    4.6062    2.0877    0.0000 H   0  0  0  0  0  0  0  0  0  0  0  0
  1  8  1  0  0  0  0
  1 16  1  0  0  0  0
  2  9  1  0  0  0  0
  2 17  1  0  0  0  0
  3 11  1  0  0  0  0
  3 17  1  0  0  0  0
  4 10  1  0  0  0  0
  4 28  1  0  0  0  0
  5 13  2  0  0  0  0
  6 18  1  0  0  0  0
  6 32  1  0  0  0  0
  7  8  1  0  0  0  0
  7 10  2  0  0  0  0
  7 13  1  0  0  0  0
  8 14  2  0  0  0  0
  9 10  1  0  0  0  0
  9 11  2  0  0  0  0
 11 14  1  0  0  0  0
 12 13  1  0  0  0  0
 12 15  1  0  0  0  0
 12 16  2  0  0  0  0
 14 23  1  0  0  0  0
 15 18  1  0  0  0  0
 15 19  2  0  0  0  0
 16 24  1  0  0  0  0
 17 25  1  0  0  0  0
 17 26  1  0  0  0  0
 18 20  2  0  0  0  0
 19 21  1  0  0  0  0
 19 27  1  0  0  0  0
 20 22  1  0  0  0  0
 20 29  1  0  0  0  0
 21 22  2  0  0  0  0
 21 30  1  0  0  0  0
 22 31  1  0  0  0  0
M  END
>  <PUBCHEM_COMPOUND_CID>
5387194

>  <PUBCHEM_COMPOUND_CANONICALIZED>
1

>  <PUBCHEM_CACTVS_COMPLEXITY>
489

>  <PUBCHEM_CACTVS_HBOND_ACCEPTOR>
6

>  <PUBCHEM_CACTVS_HBOND_DONOR>
2

>  <PUBCHEM_CACTVS_ROTATABLE_BOND>
1

>  <PUBCHEM_CACTVS_SUBSKEYS>
AAADccB4OAAAAAAAAAAAAAAAAAAAASAAAAAwYIAAAAAAAEiBQAAAGgAACAAADASgmAMwDoAABgCIAqBSAAACCAAkIAAIiAEGiMgdJzaGNRqgcWMl4BUPuYfK7PzOIQABCAAIQABCAAIQABCAAAAAAAAAAA==

>  <PUBCHEM_IUPAC_OPENEYE_NAME>
9-hydroxy-7-(2-hydroxyphenyl)-[1,3]dioxolo[4,5-g]chromen-8-one

>  <PUBCHEM_IUPAC_CAS_NAME>
9-hydroxy-7-(2-hydroxyphenyl)-[1,3]dioxolo[4,5-g][1]benzopyran-8-one

>  <PUBCHEM_IUPAC_NAME>
9-hydroxy-7-(2-hydroxyphenyl)-[1,3]dioxolo[4,5-g]chromen-8-one

>  <PUBCHEM_IUPAC_SYSTEMATIC_NAME>
7-(2-hydroxyphenyl)-9-oxidanyl-[1,3]dioxolo[4,5-g]chromen-8-one

>  <PUBCHEM_IUPAC_TRADITIONAL_NAME>
9-hydroxy-7-(2-hydroxyphenyl)-[1,3]dioxolo[4,5-g]chromen-8-one

>  <PUBCHEM_IUPAC_INCHI>
InChI=1S/C16H10O6/c17-10-4-2-1-3-8(10)9-6-20-11-5-12-16(22-7-21-12)15(19)13(11)14(9)18/h1-6,17,19H,7H2

>  <PUBCHEM_IUPAC_INCHIKEY>
ITRQVDOUFMSYII-UHFFFAOYSA-N

>  <PUBCHEM_XLOGP3_AA>
2.8

>  <PUBCHEM_EXACT_MASS>
298.048

>  <PUBCHEM_MOLECULAR_FORMULA>
C16H10O6

>  <PUBCHEM_MOLECULAR_WEIGHT>
298.25

>  <PUBCHEM_OPENEYE_CAN_SMILES>
C1OC2=C(O1)C(=C3C(=C2)OC=C(C3=O)C4=CC=CC=C4O)O

>  <PUBCHEM_OPENEYE_ISO_SMILES>
C1OC2=C(O1)C(=C3C(=C2)OC=C(C3=O)C4=CC=CC=C4O)O

>  <PUBCHEM_CACTVS_TPSA>
85.2

>  <PUBCHEM_MONOISOTOPIC_WEIGHT>
298.048

>  <PUBCHEM_TOTAL_CHARGE>
0

>  <PUBCHEM_HEAVY_ATOM_COUNT>
22

>  <PUBCHEM_ATOM_DEF_STEREO_COUNT>
0

>  <PUBCHEM_ATOM_UDEF_STEREO_COUNT>
0

>  <PUBCHEM_BOND_DEF_STEREO_COUNT>
0

>  <PUBCHEM_BOND_UDEF_STEREO_COUNT>
0

>  <PUBCHEM_ISOTOPIC_ATOM_COUNT>
0

>  <PUBCHEM_COMPONENT_COUNT>
1

>  <PUBCHEM_CACTVS_TAUTO_COUNT>
12

>  <PUBCHEM_COORDINATE_TYPE>
1
5
255

>  <PUBCHEM_BONDANNOTATIONS>
1  16  8
1  8  8
11  14  8
12  13  8
12  16  8
15  18  8
15  19  8
18  20  8
19  21  8
20  22  8
21  22  8
7  10  8
7  13  8
7  8  8
8  14  8
9  10  8
9  11  8

$$$$
