5387508
 OpenBabel06101807152D

 29 32  0  0  0  0  0  0  0  0999 V2000
    6.2392    2.5151    0.0000 O   0  0  0  0  0  0  0  0  0  0  0  0
    4.8454    3.3198    0.0000 O   0  0  0  0  0  0  0  0  0  0  0  0
    2.9042    2.3480    0.0000 O   0  0  0  0  0  0  0  0  0  0  0  0
    2.0000    0.8511    0.0000 O   0  0  0  0  0  0  0  0  0  0  0  0
    2.8779   -2.8029    0.0000 O   0  0  0  0  0  0  0  0  0  0  0  0
    2.8522   -0.7004    0.0000 N   0  0  0  0  0  0  0  0  0  0  0  0
    4.6362    0.3480    0.0000 C   0  0  0  0  0  0  0  0  0  0  0  0
    3.7702    0.8480    0.0000 C   0  0  0  0  0  0  0  0  0  0  0  0
    4.6523   -0.6935    0.0000 C   0  0  0  0  0  0  0  0  0  0  0  0
    3.7542   -1.2213    0.0000 C   0  0  0  0  0  0  0  0  0  0  0  0
    5.5022    0.8480    0.0000 C   0  0  0  0  0  0  0  0  0  0  0  0
    5.5022    1.8480    0.0000 C   0  0  0  0  0  0  0  0  0  0  0  0
    3.7702    1.8480    0.0000 C   0  0  0  0  0  0  0  0  0  0  0  0
    4.6362    2.3480    0.0000 C   0  0  0  0  0  0  0  0  0  0  0  0
    2.8602    0.3412    0.0000 C   0  0  0  0  0  0  0  0  0  0  0  0
    5.6042   -1.2141    0.0000 C   0  0  0  0  0  0  0  0  0  0  0  0
    3.7459   -2.3062    0.0000 C   0  0  0  0  0  0  0  0  0  0  0  0
    5.8341    3.4229    0.0000 C   0  0  0  0  0  0  0  0  0  0  0  0
    5.6209   -2.2990    0.0000 C   0  0  0  0  0  0  0  0  0  0  0  0
    4.6855   -2.8487    0.0000 C   0  0  0  0  0  0  0  0  0  0  0  0
    6.0392    0.5380    0.0000 H   0  0  0  0  0  0  0  0  0  0  0  0
    2.3140   -1.0084    0.0000 H   0  0  0  0  0  0  0  0  0  0  0  0
    6.1351   -0.8938    0.0000 H   0  0  0  0  0  0  0  0  0  0  0  0
    6.4237    3.6146    0.0000 H   0  0  0  0  0  0  0  0  0  0  0  0
    5.7054    4.0294    0.0000 H   0  0  0  0  0  0  0  0  0  0  0  0
    6.1614   -2.6028    0.0000 H   0  0  0  0  0  0  0  0  0  0  0  0
    4.6879   -3.4687    0.0000 H   0  0  0  0  0  0  0  0  0  0  0  0
    2.9042    2.9680    0.0000 H   0  0  0  0  0  0  0  0  0  0  0  0
    2.8755   -3.4229    0.0000 H   0  0  0  0  0  0  0  0  0  0  0  0
  1 12  1  0  0  0  0
  1 18  1  0  0  0  0
  2 14  1  0  0  0  0
  2 18  1  0  0  0  0
  3 13  1  0  0  0  0
  3 28  1  0  0  0  0
  4 15  2  0  0  0  0
  5 17  1  0  0  0  0
  5 29  1  0  0  0  0
  6 10  1  0  0  0  0
  6 15  1  0  0  0  0
  6 22  1  0  0  0  0
  7  8  1  0  0  0  0
  7  9  1  0  0  0  0
  7 11  2  0  0  0  0
  8 13  2  0  0  0  0
  8 15  1  0  0  0  0
  9 10  2  0  0  0  0
  9 16  1  0  0  0  0
 10 17  1  0  0  0  0
 11 12  1  0  0  0  0
 11 21  1  0  0  0  0
 12 14  2  0  0  0  0
 13 14  1  0  0  0  0
 16 19  2  0  0  0  0
 16 23  1  0  0  0  0
 17 20  2  0  0  0  0
 18 24  1  0  0  0  0
 18 25  1  0  0  0  0
 19 20  1  0  0  0  0
 19 26  1  0  0  0  0
 20 27  1  0  0  0  0
M  END
>  <PUBCHEM_COMPOUND_CID>
5387508

>  <PUBCHEM_COMPOUND_CANONICALIZED>
1

>  <PUBCHEM_CACTVS_COMPLEXITY>
416

>  <PUBCHEM_CACTVS_HBOND_ACCEPTOR>
5

>  <PUBCHEM_CACTVS_HBOND_DONOR>
3

>  <PUBCHEM_CACTVS_ROTATABLE_BOND>
0

>  <PUBCHEM_CACTVS_SUBSKEYS>
AAADccByOAAAAAAAAAAAAAAAAAAAASAAAAA8YIAAAAAAAEixQAAAHgAQCAAADAyBmAMwzoLABgCIAiVSUACCCAAlIAAIiAEHzMgfJzbWtZukcWtn5BXf+Qe6/f/eoAABCAAaUABAAAIQADSgAAAAAAAAAA==

>  <PUBCHEM_IUPAC_OPENEYE_NAME>
4,7-dihydroxy-5H-[1,3]dioxolo[4,5-j]phenanthridin-6-one

>  <PUBCHEM_IUPAC_CAS_NAME>
4,7-dihydroxy-5H-[1,3]dioxolo[4,5-j]phenanthridin-6-one

>  <PUBCHEM_IUPAC_NAME>
4,7-dihydroxy-5H-[1,3]dioxolo[4,5-j]phenanthridin-6-one

>  <PUBCHEM_IUPAC_SYSTEMATIC_NAME>
4,7-bis(oxidanyl)-5H-[1,3]dioxolo[4,5-j]phenanthridin-6-one

>  <PUBCHEM_IUPAC_TRADITIONAL_NAME>
4,7-dihydroxy-5H-[1,3]dioxolo[4,5-j]phenanthridin-6-one

>  <PUBCHEM_IUPAC_INCHI>
InChI=1S/C14H9NO5/c16-8-3-1-2-6-7-4-9-13(20-5-19-9)12(17)10(7)14(18)15-11(6)8/h1-4,16-17H,5H2,(H,15,18)

>  <PUBCHEM_IUPAC_INCHIKEY>
PEOASDPEDCJOME-UHFFFAOYSA-N

>  <PUBCHEM_XLOGP3_AA>
2.1

>  <PUBCHEM_EXACT_MASS>
271.048

>  <PUBCHEM_MOLECULAR_FORMULA>
C14H9NO5

>  <PUBCHEM_MOLECULAR_WEIGHT>
271.228

>  <PUBCHEM_OPENEYE_CAN_SMILES>
C1OC2=C(O1)C(=C3C(=C2)C4=C(C(=CC=C4)O)NC3=O)O

>  <PUBCHEM_OPENEYE_ISO_SMILES>
C1OC2=C(O1)C(=C3C(=C2)C4=C(C(=CC=C4)O)NC3=O)O

>  <PUBCHEM_CACTVS_TPSA>
88

>  <PUBCHEM_MONOISOTOPIC_WEIGHT>
271.048

>  <PUBCHEM_TOTAL_CHARGE>
0

>  <PUBCHEM_HEAVY_ATOM_COUNT>
20

>  <PUBCHEM_ATOM_DEF_STEREO_COUNT>
0

>  <PUBCHEM_ATOM_UDEF_STEREO_COUNT>
0

>  <PUBCHEM_BOND_DEF_STEREO_COUNT>
0

>  <PUBCHEM_BOND_UDEF_STEREO_COUNT>
0

>  <PUBCHEM_ISOTOPIC_ATOM_COUNT>
0

>  <PUBCHEM_COMPONENT_COUNT>
1

>  <PUBCHEM_CACTVS_TAUTO_COUNT>
75

>  <PUBCHEM_COORDINATE_TYPE>
1
5
255

>  <PUBCHEM_BONDANNOTATIONS>
10  17  8
11  12  8
12  14  8
13  14  8
16  19  8
17  20  8
19  20  8
6  10  8
6  15  8
7  11  8
7  8  8
7  9  8
8  13  8
8  15  8
9  10  8
9  16  8

$$$$
