5389372
 OpenBabel06101807152D

 49 52  0  0  1  0  0  0  0  0999 V2000
    5.5321    2.5000    0.0000 O   0  0  0  0  0  0  0  0  0  0  0  0
    7.2641    3.5000    0.0000 O   0  0  0  0  0  0  0  0  0  0  0  0
    4.6660   -2.0000    0.0000 N   0  0  0  0  0  0  0  0  0  0  0  0
    5.5321   -0.5000    0.0000 N   0  0  0  0  0  0  0  0  0  0  0  0
    4.6660    1.0000    0.0000 N   0  0  0  0  0  0  0  0  0  0  0  0
    3.8000   -2.5000    0.0000 C   0  0  3  0  0  0  0  0  0  0  0  0
    3.8000   -3.5000    0.0000 C   0  0  0  0  0  0  0  0  0  0  0  0
    4.6660   -4.0000    0.0000 C   0  0  0  0  0  0  0  0  0  0  0  0
    5.5321   -2.5000    0.0000 C   0  0  0  0  0  0  0  0  0  0  0  0
    5.5321   -3.5000    0.0000 C   0  0  0  0  0  0  0  0  0  0  0  0
    2.9340   -2.0000    0.0000 C   0  0  0  0  0  0  0  0  0  0  0  0
    4.6660   -1.0000    0.0000 C   0  0  0  0  0  0  0  0  0  0  0  0
    3.8000   -0.5000    0.0000 C   0  0  0  0  0  0  0  0  0  0  0  0
    3.8000    0.5000    0.0000 C   0  0  0  0  0  0  0  0  0  0  0  0
    5.5321    0.5000    0.0000 C   0  0  0  0  0  0  0  0  0  0  0  0
    2.9061   -1.0347    0.0000 C   0  0  0  0  0  0  0  0  0  0  0  0
    2.9061    1.0347    0.0000 C   0  0  0  0  0  0  0  0  0  0  0  0
    6.3981    1.0000    0.0000 C   0  0  0  0  0  0  0  0  0  0  0  0
    2.0000   -0.5208    0.0000 C   0  0  0  0  0  0  0  0  0  0  0  0
    2.0000    0.5208    0.0000 C   0  0  0  0  0  0  0  0  0  0  0  0
    6.3981    2.0000    0.0000 C   0  0  0  0  0  0  0  0  0  0  0  0
    7.2641    0.5000    0.0000 C   0  0  0  0  0  0  0  0  0  0  0  0
    7.2641    2.5000    0.0000 C   0  0  0  0  0  0  0  0  0  0  0  0
    8.1301    1.0000    0.0000 C   0  0  0  0  0  0  0  0  0  0  0  0
    8.1301    2.0000    0.0000 C   0  0  0  0  0  0  0  0  0  0  0  0
    8.1301    4.0000    0.0000 C   0  0  0  0  0  0  0  0  0  0  0  0
    3.8000   -1.8800    0.0000 H   0  0  0  0  0  0  0  0  0  0  0  0
    3.1894   -3.3923    0.0000 H   0  0  0  0  0  0  0  0  0  0  0  0
    3.5880   -4.0826    0.0000 H   0  0  0  0  0  0  0  0  0  0  0  0
    4.2675   -4.4750    0.0000 H   0  0  0  0  0  0  0  0  0  0  0  0
    5.0646   -4.4750    0.0000 H   0  0  0  0  0  0  0  0  0  0  0  0
    6.1426   -2.6077    0.0000 H   0  0  0  0  0  0  0  0  0  0  0  0
    5.7441   -1.9174    0.0000 H   0  0  0  0  0  0  0  0  0  0  0  0
    5.7441   -4.0826    0.0000 H   0  0  0  0  0  0  0  0  0  0  0  0
    6.1426   -3.3923    0.0000 H   0  0  0  0  0  0  0  0  0  0  0  0
    3.2440   -1.4631    0.0000 H   0  0  0  0  0  0  0  0  0  0  0  0
    2.3970   -1.6900    0.0000 H   0  0  0  0  0  0  0  0  0  0  0  0
    2.6240   -2.5369    0.0000 H   0  0  0  0  0  0  0  0  0  0  0  0
    4.6660    1.6200    0.0000 H   0  0  0  0  0  0  0  0  0  0  0  0
    2.9132   -1.6546    0.0000 H   0  0  0  0  0  0  0  0  0  0  0  0
    2.9132    1.6546    0.0000 H   0  0  0  0  0  0  0  0  0  0  0  0
    1.4643   -0.8329    0.0000 H   0  0  0  0  0  0  0  0  0  0  0  0
    1.4643    0.8329    0.0000 H   0  0  0  0  0  0  0  0  0  0  0  0
    7.2641   -0.1200    0.0000 H   0  0  0  0  0  0  0  0  0  0  0  0
    8.6671    0.6900    0.0000 H   0  0  0  0  0  0  0  0  0  0  0  0
    8.6671    2.3100    0.0000 H   0  0  0  0  0  0  0  0  0  0  0  0
    8.4401    3.4631    0.0000 H   0  0  0  0  0  0  0  0  0  0  0  0
    8.6671    4.3100    0.0000 H   0  0  0  0  0  0  0  0  0  0  0  0
    7.8201    4.5369    0.0000 H   0  0  0  0  0  0  0  0  0  0  0  0
  1 21  2  0  0  0  0
  2 23  1  0  0  0  0
  2 26  1  0  0  0  0
  3  6  1  0  0  0  0
  3  9  1  0  0  0  0
  3 12  1  0  0  0  0
  4 12  2  0  0  0  0
  4 15  1  0  0  0  0
  5 14  1  0  0  0  0
  5 15  1  0  0  0  0
  5 39  1  0  0  0  0
  6  7  1  0  0  0  0
  6 11  1  0  0  0  0
  6 27  1  0  0  0  0
  7  8  1  0  0  0  0
  7 28  1  0  0  0  0
  7 29  1  0  0  0  0
  8 10  1  0  0  0  0
  8 30  1  0  0  0  0
  8 31  1  0  0  0  0
  9 10  1  0  0  0  0
  9 32  1  0  0  0  0
  9 33  1  0  0  0  0
 10 34  1  0  0  0  0
 10 35  1  0  0  0  0
 11 36  1  0  0  0  0
 11 37  1  0  0  0  0
 11 38  1  0  0  0  0
 12 13  1  0  0  0  0
 13 14  1  0  0  0  0
 13 16  2  0  0  0  0
 14 17  2  0  0  0  0
 15 18  2  0  0  0  0
 16 19  1  0  0  0  0
 16 40  1  0  0  0  0
 17 20  1  0  0  0  0
 17 41  1  0  0  0  0
 18 21  1  0  0  0  0
 18 22  1  0  0  0  0
 19 20  2  0  0  0  0
 19 42  1  0  0  0  0
 20 43  1  0  0  0  0
 21 23  1  0  0  0  0
 22 24  2  0  0  0  0
 22 44  1  0  0  0  0
 23 25  2  0  0  0  0
 24 25  1  0  0  0  0
 24 45  1  0  0  0  0
 25 46  1  0  0  0  0
 26 47  1  0  0  0  0
 26 48  1  0  0  0  0
 26 49  1  0  0  0  0
M  END
>  <PUBCHEM_COMPOUND_CID>
5389372

>  <PUBCHEM_COMPOUND_CANONICALIZED>
1

>  <PUBCHEM_CACTVS_COMPLEXITY>
704

>  <PUBCHEM_CACTVS_HBOND_ACCEPTOR>
4

>  <PUBCHEM_CACTVS_HBOND_DONOR>
1

>  <PUBCHEM_CACTVS_ROTATABLE_BOND>
2

>  <PUBCHEM_CACTVS_SUBSKEYS>
AAADceB7MAAAAAAAAAAAAAAAAAAAAAAAAAA8QIEAAAAAAACBAAAAHgAQAAAADCzBmAYzwIPABACoAqZyZAKCCAEhIgAJiAFoZNiIIKLA2ZWEIAhk0ALIyecQgAAOAAAAAAACAAAAAAAAAAQAAAAAAAAAAA==

>  <PUBCHEM_IUPAC_OPENEYE_NAME>
(6E)-2-methoxy-6-[4-(2-methyl-1-piperidyl)-1H-quinazolin-2-ylidene]cyclohexa-2,4-dien-1-one

>  <PUBCHEM_IUPAC_CAS_NAME>
(6E)-2-methoxy-6-[4-(2-methyl-1-piperidinyl)-1H-quinazolin-2-ylidene]-1-cyclohexa-2,4-dienone

>  <PUBCHEM_IUPAC_NAME>
(6E)-2-methoxy-6-[4-(2-methylpiperidin-1-yl)-1H-quinazolin-2-ylidene]cyclohexa-2,4-dien-1-one

>  <PUBCHEM_IUPAC_SYSTEMATIC_NAME>
(6E)-2-methoxy-6-[4-(2-methylpiperidin-1-yl)-1H-quinazolin-2-ylidene]cyclohexa-2,4-dien-1-one

>  <PUBCHEM_IUPAC_TRADITIONAL_NAME>
(6E)-2-methoxy-6-[4-(2-methylpiperidino)-1H-quinazolin-2-ylidene]cyclohexa-2,4-dien-1-one

>  <PUBCHEM_IUPAC_INCHI>
InChI=1S/C21H23N3O2/c1-14-8-5-6-13-24(14)21-15-9-3-4-11-17(15)22-20(23-21)16-10-7-12-18(26-2)19(16)25/h3-4,7,9-12,14,22H,5-6,8,13H2,1-2H3/b20-16+

>  <PUBCHEM_IUPAC_INCHIKEY>
KTIOABYZDCQABV-CAPFRKAQSA-N

>  <PUBCHEM_XLOGP3_AA>
3.7

>  <PUBCHEM_EXACT_MASS>
349.179

>  <PUBCHEM_MOLECULAR_FORMULA>
C21H23N3O2

>  <PUBCHEM_MOLECULAR_WEIGHT>
349.434

>  <PUBCHEM_OPENEYE_CAN_SMILES>
CC1CCCCN1C2=NC(=C3C=CC=C(C3=O)OC)NC4=CC=CC=C42

>  <PUBCHEM_OPENEYE_ISO_SMILES>
CC1CCCCN1C2=N/C(=C/3\C=CC=C(C3=O)OC)/NC4=CC=CC=C42

>  <PUBCHEM_CACTVS_TPSA>
53.9

>  <PUBCHEM_MONOISOTOPIC_WEIGHT>
349.179

>  <PUBCHEM_TOTAL_CHARGE>
0

>  <PUBCHEM_HEAVY_ATOM_COUNT>
26

>  <PUBCHEM_ATOM_DEF_STEREO_COUNT>
0

>  <PUBCHEM_ATOM_UDEF_STEREO_COUNT>
1

>  <PUBCHEM_BOND_DEF_STEREO_COUNT>
1

>  <PUBCHEM_BOND_UDEF_STEREO_COUNT>
0

>  <PUBCHEM_ISOTOPIC_ATOM_COUNT>
0

>  <PUBCHEM_COMPONENT_COUNT>
1

>  <PUBCHEM_CACTVS_TAUTO_COUNT>
5

>  <PUBCHEM_COORDINATE_TYPE>
1
5
255

>  <PUBCHEM_BONDANNOTATIONS>
13  14  8
13  16  8
14  17  8
16  19  8
17  20  8
19  20  8
6  11  3

$$$$
