5409279
 OpenBabel06101807152D

 18 19  0  0  0  0  0  0  0  0999 V2000
    6.0290   -1.5346    0.0000 O   0  0  0  0  0  0  0  0  0  0  0  0
    2.5369   -1.5000    0.0000 O   0  0  0  0  0  0  0  0  0  0  0  0
    6.0174    1.5346    0.0000 O   0  0  0  0  0  0  0  0  0  0  0  0
    5.1350    0.0000    0.0000 C   0  0  0  0  0  0  0  0  0  0  0  0
    5.1350   -1.0000    0.0000 C   0  0  0  0  0  0  0  0  0  0  0  0
    4.2690    0.5000    0.0000 C   0  0  0  0  0  0  0  0  0  0  0  0
    4.2690   -1.5000    0.0000 C   0  0  0  0  0  0  0  0  0  0  0  0
    6.0290    0.5347    0.0000 C   0  0  0  0  0  0  0  0  0  0  0  0
    3.4030   -1.0000    0.0000 C   0  0  0  0  0  0  0  0  0  0  0  0
    3.4030    0.0000    0.0000 C   0  0  0  0  0  0  0  0  0  0  0  0
    6.9350    0.0208    0.0000 C   0  0  0  0  0  0  0  0  0  0  0  0
    6.9350   -1.0208    0.0000 C   0  0  0  0  0  0  0  0  0  0  0  0
    4.2690    1.1200    0.0000 H   0  0  0  0  0  0  0  0  0  0  0  0
    4.2690   -2.1200    0.0000 H   0  0  0  0  0  0  0  0  0  0  0  0
    2.8660    0.3100    0.0000 H   0  0  0  0  0  0  0  0  0  0  0  0
    7.4708    0.3329    0.0000 H   0  0  0  0  0  0  0  0  0  0  0  0
    7.4708   -1.3328    0.0000 H   0  0  0  0  0  0  0  0  0  0  0  0
    2.0000   -1.1900    0.0000 H   0  0  0  0  0  0  0  0  0  0  0  0
  1  5  1  0  0  0  0
  1 12  1  0  0  0  0
  2  9  1  0  0  0  0
  2 18  1  0  0  0  0
  3  8  2  0  0  0  0
  4  5  2  0  0  0  0
  4  6  1  0  0  0  0
  4  8  1  0  0  0  0
  5  7  1  0  0  0  0
  6 10  2  0  0  0  0
  6 13  1  0  0  0  0
  7  9  2  0  0  0  0
  7 14  1  0  0  0  0
  8 11  1  0  0  0  0
  9 10  1  0  0  0  0
 10 15  1  0  0  0  0
 11 12  2  0  0  0  0
 11 16  1  0  0  0  0
 12 17  1  0  0  0  0
M  END
>  <PUBCHEM_COMPOUND_CID>
5409279

>  <PUBCHEM_COMPOUND_CANONICALIZED>
1

>  <PUBCHEM_CACTVS_COMPLEXITY>
222

>  <PUBCHEM_CACTVS_HBOND_ACCEPTOR>
3

>  <PUBCHEM_CACTVS_HBOND_DONOR>
1

>  <PUBCHEM_CACTVS_ROTATABLE_BOND>
0

>  <PUBCHEM_CACTVS_SUBSKEYS>
AAADcYBwMAAAAAAAAAAAAAAAAAAAAAAAAAAwQAAAAAAAAACBAAAAGgAACAAADASgmAIwBoAABgCIAqBSAAACCAAkIAAIiAEGCMgMJzaGNRqAcWAl4BUIuYeI7KzOIAAACAAIAABAAAAQABAAAAAAAAAAAA==

>  <PUBCHEM_IUPAC_OPENEYE_NAME>
7-hydroxychromen-4-one

>  <PUBCHEM_IUPAC_CAS_NAME>
7-hydroxy-1-benzopyran-4-one

>  <PUBCHEM_IUPAC_NAME>
7-hydroxychromen-4-one

>  <PUBCHEM_IUPAC_SYSTEMATIC_NAME>
7-oxidanylchromen-4-one

>  <PUBCHEM_IUPAC_TRADITIONAL_NAME>
7-hydroxychromone

>  <PUBCHEM_IUPAC_INCHI>
InChI=1S/C9H6O3/c10-6-1-2-7-8(11)3-4-12-9(7)5-6/h1-5,10H

>  <PUBCHEM_IUPAC_INCHIKEY>
WVJCRTSTRGRJJT-UHFFFAOYSA-N

>  <PUBCHEM_XLOGP3>
1.4

>  <PUBCHEM_EXACT_MASS>
162.032

>  <PUBCHEM_MOLECULAR_FORMULA>
C9H6O3

>  <PUBCHEM_MOLECULAR_WEIGHT>
162.144

>  <PUBCHEM_OPENEYE_CAN_SMILES>
C1=CC2=C(C=C1O)OC=CC2=O

>  <PUBCHEM_OPENEYE_ISO_SMILES>
C1=CC2=C(C=C1O)OC=CC2=O

>  <PUBCHEM_CACTVS_TPSA>
46.5

>  <PUBCHEM_MONOISOTOPIC_WEIGHT>
162.032

>  <PUBCHEM_TOTAL_CHARGE>
0

>  <PUBCHEM_HEAVY_ATOM_COUNT>
12

>  <PUBCHEM_ATOM_DEF_STEREO_COUNT>
0

>  <PUBCHEM_ATOM_UDEF_STEREO_COUNT>
0

>  <PUBCHEM_BOND_DEF_STEREO_COUNT>
0

>  <PUBCHEM_BOND_UDEF_STEREO_COUNT>
0

>  <PUBCHEM_ISOTOPIC_ATOM_COUNT>
0

>  <PUBCHEM_COMPONENT_COUNT>
1

>  <PUBCHEM_CACTVS_TAUTO_COUNT>
5

>  <PUBCHEM_COORDINATE_TYPE>
1
5
255

>  <PUBCHEM_BONDANNOTATIONS>
1  12  8
1  5  8
11  12  8
4  5  8
4  6  8
4  8  8
5  7  8
6  10  8
7  9  8
8  11  8
9  10  8

$$$$
