54303054
 OpenBabel06101807152D

 29 29  0  0  0  0  0  0  0  0999 V2000
    6.0780   -0.4829    0.0000 O   0  0  0  0  0  0  0  0  0  0  0  0
    6.5780    1.0559    0.0000 N   0  0  0  0  0  0  0  0  0  0  0  0
    4.1100   -1.1823    0.0000 C   0  0  0  0  0  0  0  0  0  0  0  0
    3.1590   -1.4913    0.0000 C   0  0  0  0  0  0  0  0  0  0  0  0
    4.3179   -0.2042    0.0000 C   0  0  0  0  0  0  0  0  0  0  0  0
    2.9511   -2.4695    0.0000 C   0  0  0  0  0  0  0  0  0  0  0  0
    5.2690    0.1049    0.0000 C   0  0  0  0  0  0  0  0  0  0  0  0
    5.5780    1.0559    0.0000 C   0  0  0  0  0  0  0  0  0  0  0  0
    4.9902    1.8649    0.0000 C   0  0  0  0  0  0  0  0  0  0  0  0
    2.0000   -2.7785    0.0000 C   0  0  0  0  0  0  0  0  0  0  0  0
    5.3970    2.7785    0.0000 C   0  0  0  0  0  0  0  0  0  0  0  0
    6.8870    0.1049    0.0000 C   0  0  0  0  0  0  0  0  0  0  0  0
    4.1963   -1.7963    0.0000 H   0  0  0  0  0  0  0  0  0  0  0  0
    4.7296   -1.2039    0.0000 H   0  0  0  0  0  0  0  0  0  0  0  0
    3.0727   -0.8774    0.0000 H   0  0  0  0  0  0  0  0  0  0  0  0
    2.5394   -1.4697    0.0000 H   0  0  0  0  0  0  0  0  0  0  0  0
    4.2316    0.4098    0.0000 H   0  0  0  0  0  0  0  0  0  0  0  0
    3.6983   -0.1825    0.0000 H   0  0  0  0  0  0  0  0  0  0  0  0
    3.0373   -3.0834    0.0000 H   0  0  0  0  0  0  0  0  0  0  0  0
    3.5707   -2.4911    0.0000 H   0  0  0  0  0  0  0  0  0  0  0  0
    4.4762    2.2116    0.0000 H   0  0  0  0  0  0  0  0  0  0  0  0
    4.5595    1.4190    0.0000 H   0  0  0  0  0  0  0  0  0  0  0  0
    1.8084   -2.1888    0.0000 H   0  0  0  0  0  0  0  0  0  0  0  0
    1.4103   -2.9701    0.0000 H   0  0  0  0  0  0  0  0  0  0  0  0
    2.1916   -3.3681    0.0000 H   0  0  0  0  0  0  0  0  0  0  0  0
    5.9634    2.5263    0.0000 H   0  0  0  0  0  0  0  0  0  0  0  0
    5.6491    3.3449    0.0000 H   0  0  0  0  0  0  0  0  0  0  0  0
    4.8306    3.0307    0.0000 H   0  0  0  0  0  0  0  0  0  0  0  0
    7.4767   -0.0867    0.0000 H   0  0  0  0  0  0  0  0  0  0  0  0
  1  7  1  0  0  0  0
  1 12  1  0  0  0  0
  2  8  1  0  0  0  0
  2 12  2  0  0  0  0
  3  4  1  0  0  0  0
  3  5  1  0  0  0  0
  3 13  1  0  0  0  0
  3 14  1  0  0  0  0
  4  6  1  0  0  0  0
  4 15  1  0  0  0  0
  4 16  1  0  0  0  0
  5  7  1  0  0  0  0
  5 17  1  0  0  0  0
  5 18  1  0  0  0  0
  6 10  1  0  0  0  0
  6 19  1  0  0  0  0
  6 20  1  0  0  0  0
  7  8  2  0  0  0  0
  8  9  1  0  0  0  0
  9 11  1  0  0  0  0
  9 21  1  0  0  0  0
  9 22  1  0  0  0  0
 10 23  1  0  0  0  0
 10 24  1  0  0  0  0
 10 25  1  0  0  0  0
 11 26  1  0  0  0  0
 11 27  1  0  0  0  0
 11 28  1  0  0  0  0
 12 29  1  0  0  0  0
M  END
>  <PUBCHEM_COMPOUND_CID>
54303054

>  <PUBCHEM_COMPOUND_CANONICALIZED>
1

>  <PUBCHEM_CACTVS_COMPLEXITY>
116

>  <PUBCHEM_CACTVS_HBOND_ACCEPTOR>
2

>  <PUBCHEM_CACTVS_HBOND_DONOR>
0

>  <PUBCHEM_CACTVS_ROTATABLE_BOND>
5

>  <PUBCHEM_CACTVS_SUBSKEYS>
AAADceByIAAAAAAAAAAAAAAAAAAAAWAAAAAAAAAAAAAAAAABgAAAHgAAAAAACAyBlgYGhBIIFECoAYRx1AQAiCA7YCAAWAG9QAgGIBJEkCKNACAkhABYSAOYyIAAAAAAAAAAAAAAAAAAAAAAAAAAAAAAAA==

>  <PUBCHEM_IUPAC_OPENEYE_NAME>
4-ethyl-5-pentyl-oxazole

>  <PUBCHEM_IUPAC_CAS_NAME>
4-ethyl-5-pentyloxazole

>  <PUBCHEM_IUPAC_NAME>
4-ethyl-5-pentyl-1,3-oxazole

>  <PUBCHEM_IUPAC_SYSTEMATIC_NAME>
4-ethyl-5-pentyl-1,3-oxazole

>  <PUBCHEM_IUPAC_TRADITIONAL_NAME>
5-amyl-4-ethyl-oxazole

>  <PUBCHEM_IUPAC_INCHI>
InChI=1S/C10H17NO/c1-3-5-6-7-10-9(4-2)11-8-12-10/h8H,3-7H2,1-2H3

>  <PUBCHEM_IUPAC_INCHIKEY>
YDGSSDOFWZDPLT-UHFFFAOYSA-N

>  <PUBCHEM_XLOGP3_AA>
3.4

>  <PUBCHEM_EXACT_MASS>
167.131

>  <PUBCHEM_MOLECULAR_FORMULA>
C10H17NO

>  <PUBCHEM_MOLECULAR_WEIGHT>
167.252

>  <PUBCHEM_OPENEYE_CAN_SMILES>
CCCCCC1=C(N=CO1)CC

>  <PUBCHEM_OPENEYE_ISO_SMILES>
CCCCCC1=C(N=CO1)CC

>  <PUBCHEM_CACTVS_TPSA>
26

>  <PUBCHEM_MONOISOTOPIC_WEIGHT>
167.131

>  <PUBCHEM_TOTAL_CHARGE>
0

>  <PUBCHEM_HEAVY_ATOM_COUNT>
12

>  <PUBCHEM_ATOM_DEF_STEREO_COUNT>
0

>  <PUBCHEM_ATOM_UDEF_STEREO_COUNT>
0

>  <PUBCHEM_BOND_DEF_STEREO_COUNT>
0

>  <PUBCHEM_BOND_UDEF_STEREO_COUNT>
0

>  <PUBCHEM_ISOTOPIC_ATOM_COUNT>
0

>  <PUBCHEM_COMPONENT_COUNT>
1

>  <PUBCHEM_CACTVS_TAUTO_COUNT>
1

>  <PUBCHEM_COORDINATE_TYPE>
1
5
255

>  <PUBCHEM_BONDANNOTATIONS>
1  12  8
1  7  8
2  12  8
2  8  8
7  8  8

$$$$
