543551
 OpenBabel06101807152D

 76 81  0  0  1  0  0  0  0  0999 V2000
    5.5954   -1.9585    0.0000 O   0  0  0  0  0  0  0  0  0  0  0  0
   12.0027    3.4207    0.0000 O   0  0  0  0  0  0  0  0  0  0  0  0
    5.3418   -4.0407    0.0000 O   0  0  0  0  0  0  0  0  0  0  0  0
    4.6359   -2.4590    0.0000 N   0  0  0  0  0  0  0  0  0  0  0  0
    5.4454   -3.0461    0.0000 N   0  0  0  0  0  0  0  0  0  0  0  0
    6.6628    0.2763    0.0000 C   0  0  3  0  0  0  0  0  0  0  0  0
    7.5288   -0.2237    0.0000 C   0  0  3  0  0  0  0  0  0  0  0  0
    5.9258   -0.3908    0.0000 C   0  0  3  0  0  0  0  0  0  0  0  0
    8.3948    0.2763    0.0000 C   0  0  3  0  0  0  0  0  0  0  0  0
    8.3948    1.2763    0.0000 C   0  0  3  0  0  0  0  0  0  0  0  0
    6.3309   -1.2985    0.0000 C   0  0  3  0  0  0  0  0  0  0  0  0
    7.3196   -1.1955    0.0000 C   0  0  0  0  0  0  0  0  0  0  0  0
    9.2888    1.8110    0.0000 C   0  0  3  0  0  0  0  0  0  0  0  0
    6.6628    1.2763    0.0000 C   0  0  0  0  0  0  0  0  0  0  0  0
    4.9434   -0.4974    0.0000 C   0  0  3  0  0  0  0  0  0  0  0  0
    7.5288    1.7763    0.0000 C   0  0  0  0  0  0  0  0  0  0  0  0
   10.1949    1.2972    0.0000 C   0  0  3  0  0  0  0  0  0  0  0  0
    9.2888   -0.2583    0.0000 C   0  0  0  0  0  0  0  0  0  0  0  0
    4.7396   -1.4644    0.0000 C   0  0  3  0  0  0  0  0  0  0  0  0
    5.7968    0.7763    0.0000 C   0  0  0  0  0  0  0  0  0  0  0  0
   10.1949    0.2555    0.0000 C   0  0  0  0  0  0  0  0  0  0  0  0
    9.2637    2.8957    0.0000 C   0  0  0  0  0  0  0  0  0  0  0  0
   11.1386    1.8324    0.0000 C   0  0  0  0  0  0  0  0  0  0  0  0
    8.4189    2.3043    0.0000 C   0  0  0  0  0  0  0  0  0  0  0  0
    3.9300   -0.8773    0.0000 C   0  0  0  0  0  0  0  0  0  0  0  0
    4.2723    0.2440    0.0000 C   0  0  0  0  0  0  0  0  0  0  0  0
   10.1949    3.4526    0.0000 C   0  0  0  0  0  0  0  0  0  0  0  0
   11.1386    2.9174    0.0000 C   0  0  3  0  0  0  0  0  0  0  0  0
    3.0169   -1.2848    0.0000 C   0  0  0  0  0  0  0  0  0  0  0  0
    3.7227   -2.8665    0.0000 C   0  0  0  0  0  0  0  0  0  0  0  0
    2.9132   -2.2795    0.0000 C   0  0  3  0  0  0  0  0  0  0  0  0
    2.0000   -2.6870    0.0000 C   0  0  0  0  0  0  0  0  0  0  0  0
    8.0299   -0.5887    0.0000 H   0  0  0  0  0  0  0  0  0  0  0  0
    5.6719    0.1749    0.0000 H   0  0  0  0  0  0  0  0  0  0  0  0
    8.3901   -0.3436    0.0000 H   0  0  0  0  0  0  0  0  0  0  0  0
    8.9342    0.9705    0.0000 H   0  0  0  0  0  0  0  0  0  0  0  0
    6.5823   -1.8653    0.0000 H   0  0  0  0  0  0  0  0  0  0  0  0
    7.3187   -1.8155    0.0000 H   0  0  0  0  0  0  0  0  0  0  0  0
    7.9361   -1.2615    0.0000 H   0  0  0  0  0  0  0  0  0  0  0  0
    6.4507    1.8589    0.0000 H   0  0  0  0  0  0  0  0  0  0  0  0
    6.0522    1.1687    0.0000 H   0  0  0  0  0  0  0  0  0  0  0  0
    4.3448   -0.6592    0.0000 H   0  0  0  0  0  0  0  0  0  0  0  0
    7.9274    2.2513    0.0000 H   0  0  0  0  0  0  0  0  0  0  0  0
    7.1303    2.2513    0.0000 H   0  0  0  0  0  0  0  0  0  0  0  0
   10.7306    0.9851    0.0000 H   0  0  0  0  0  0  0  0  0  0  0  0
    8.8842   -0.7281    0.0000 H   0  0  0  0  0  0  0  0  0  0  0  0
    9.6824   -0.7373    0.0000 H   0  0  0  0  0  0  0  0  0  0  0  0
    6.1068    1.3133    0.0000 H   0  0  0  0  0  0  0  0  0  0  0  0
    5.2598    1.0863    0.0000 H   0  0  0  0  0  0  0  0  0  0  0  0
    5.4868    0.2394    0.0000 H   0  0  0  0  0  0  0  0  0  0  0  0
   10.4039   -0.3282    0.0000 H   0  0  0  0  0  0  0  0  0  0  0  0
   10.8057    0.3616    0.0000 H   0  0  0  0  0  0  0  0  0  0  0  0
    9.0412    3.4744    0.0000 H   0  0  0  0  0  0  0  0  0  0  0  0
    8.6555    2.7755    0.0000 H   0  0  0  0  0  0  0  0  0  0  0  0
   11.3477    1.2487    0.0000 H   0  0  0  0  0  0  0  0  0  0  0  0
   11.7495    1.9385    0.0000 H   0  0  0  0  0  0  0  0  0  0  0  0
    8.7248    2.8436    0.0000 H   0  0  0  0  0  0  0  0  0  0  0  0
    7.8796    2.6102    0.0000 H   0  0  0  0  0  0  0  0  0  0  0  0
    8.1131    1.7650    0.0000 H   0  0  0  0  0  0  0  0  0  0  0  0
    4.3757   -0.4462    0.0000 H   0  0  0  0  0  0  0  0  0  0  0  0
    3.5829   -0.3636    0.0000 H   0  0  0  0  0  0  0  0  0  0  0  0
    4.7320    0.6600    0.0000 H   0  0  0  0  0  0  0  0  0  0  0  0
    3.8562    0.7036    0.0000 H   0  0  0  0  0  0  0  0  0  0  0  0
    3.8126   -0.1721    0.0000 H   0  0  0  0  0  0  0  0  0  0  0  0
   10.5885    3.9316    0.0000 H   0  0  0  0  0  0  0  0  0  0  0  0
    9.7903    3.9224    0.0000 H   0  0  0  0  0  0  0  0  0  0  0  0
   11.1351    3.5374    0.0000 H   0  0  0  0  0  0  0  0  0  0  0  0
    2.8664   -0.6834    0.0000 H   0  0  0  0  0  0  0  0  0  0  0  0
    2.3984   -1.3286    0.0000 H   0  0  0  0  0  0  0  0  0  0  0  0
    3.2771   -3.2976    0.0000 H   0  0  0  0  0  0  0  0  0  0  0  0
    4.0699   -3.3802    0.0000 H   0  0  0  0  0  0  0  0  0  0  0  0
    2.4113   -1.9155    0.0000 H   0  0  0  0  0  0  0  0  0  0  0  0
   12.0003    4.0407    0.0000 H   0  0  0  0  0  0  0  0  0  0  0  0
    1.7473   -2.1208    0.0000 H   0  0  0  0  0  0  0  0  0  0  0  0
    1.4338   -2.9396    0.0000 H   0  0  0  0  0  0  0  0  0  0  0  0
    2.2527   -3.2532    0.0000 H   0  0  0  0  0  0  0  0  0  0  0  0
  1 11  1  0  0  0  0
  1 19  1  0  0  0  0
  2 28  1  0  0  0  0
  2 73  1  0  0  0  0
  3  5  2  0  0  0  0
  4  5  1  0  0  0  0
  4 19  1  0  0  0  0
  4 30  1  0  0  0  0
  6  7  1  0  0  0  0
  6  8  1  0  0  0  0
  6 14  1  0  0  0  0
  6 20  1  0  0  0  0
  7  9  1  0  0  0  0
  7 12  1  0  0  0  0
  7 33  1  0  0  0  0
  8 11  1  0  0  0  0
  8 15  1  0  0  0  0
  8 34  1  0  0  0  0
  9 10  1  0  0  0  0
  9 18  1  0  0  0  0
  9 35  1  0  0  0  0
 10 13  1  0  0  0  0
 10 16  1  0  0  0  0
 10 36  1  0  0  0  0
 11 12  1  0  0  0  0
 11 37  1  0  0  0  0
 12 38  1  0  0  0  0
 12 39  1  0  0  0  0
 13 17  1  0  0  0  0
 13 22  1  0  0  0  0
 13 24  1  0  0  0  0
 14 16  1  0  0  0  0
 14 40  1  0  0  0  0
 14 41  1  0  0  0  0
 15 19  1  0  0  0  0
 15 26  1  0  0  0  0
 15 42  1  0  0  0  0
 16 43  1  0  0  0  0
 16 44  1  0  0  0  0
 17 21  1  0  0  0  0
 17 23  1  0  0  0  0
 17 45  1  0  0  0  0
 18 21  1  0  0  0  0
 18 46  1  0  0  0  0
 18 47  1  0  0  0  0
 19 25  1  0  0  0  0
 20 48  1  0  0  0  0
 20 49  1  0  0  0  0
 20 50  1  0  0  0  0
 21 51  1  0  0  0  0
 21 52  1  0  0  0  0
 22 27  1  0  0  0  0
 22 53  1  0  0  0  0
 22 54  1  0  0  0  0
 23 28  1  0  0  0  0
 23 55  1  0  0  0  0
 23 56  1  0  0  0  0
 24 57  1  0  0  0  0
 24 58  1  0  0  0  0
 24 59  1  0  0  0  0
 25 29  1  0  0  0  0
 25 60  1  0  0  0  0
 25 61  1  0  0  0  0
 26 62  1  0  0  0  0
 26 63  1  0  0  0  0
 26 64  1  0  0  0  0
 27 28  1  0  0  0  0
 27 65  1  0  0  0  0
 27 66  1  0  0  0  0
 28 67  1  0  0  0  0
 29 31  1  0  0  0  0
 29 68  1  0  0  0  0
 29 69  1  0  0  0  0
 30 31  1  0  0  0  0
 30 70  1  0  0  0  0
 30 71  1  0  0  0  0
 31 32  1  0  0  0  0
 31 72  1  0  0  0  0
 32 74  1  0  0  0  0
 32 75  1  0  0  0  0
 32 76  1  0  0  0  0
M  END
>  <PUBCHEM_COMPOUND_CID>
543551

>  <PUBCHEM_COMPOUND_CANONICALIZED>
1

>  <PUBCHEM_CACTVS_COMPLEXITY>
776

>  <PUBCHEM_CACTVS_HBOND_ACCEPTOR>
5

>  <PUBCHEM_CACTVS_HBOND_DONOR>
1

>  <PUBCHEM_CACTVS_ROTATABLE_BOND>
0

>  <PUBCHEM_CACTVS_SUBSKEYS>
AAADcfB7MAAAAAAAAAAAAAAAAAAAAaIAAAA8YMEAAAASAGDAAAAAHgAMCAAADxzhgAYCAAIABgABAAAAAAAAAAAAAAAQAAAIAAAAEAIAgAAOQAAEAACAAAGw0PAPgAAAAAAAAADAAAYAACAAAYAADAAAAA==

>  <PUBCHEM_IUPAC_INCHI>
InChI=1S/C27H44N2O3/c1-16-7-12-27(29(15-16)28-31)17(2)24-23(32-27)14-22-20-6-5-18-13-19(30)8-10-25(18,3)21(20)9-11-26(22,24)4/h16-24,30H,5-15H2,1-4H3

>  <PUBCHEM_IUPAC_INCHIKEY>
SGPLNSURQYXVNX-UHFFFAOYSA-N

>  <PUBCHEM_XLOGP3_AA>
6.6

>  <PUBCHEM_EXACT_MASS>
444.335

>  <PUBCHEM_MOLECULAR_FORMULA>
C27H44N2O3

>  <PUBCHEM_MOLECULAR_WEIGHT>
444.66

>  <PUBCHEM_OPENEYE_CAN_SMILES>
CC1CCC2(C(C3C(O2)CC4C3(CCC5C4CCC6C5(CCC(C6)O)C)C)C)N(C1)N=O

>  <PUBCHEM_OPENEYE_ISO_SMILES>
CC1CCC2(C(C3C(O2)CC4C3(CCC5C4CCC6C5(CCC(C6)O)C)C)C)N(C1)N=O

>  <PUBCHEM_CACTVS_TPSA>
62.1

>  <PUBCHEM_MONOISOTOPIC_WEIGHT>
444.335

>  <PUBCHEM_TOTAL_CHARGE>
0

>  <PUBCHEM_HEAVY_ATOM_COUNT>
32

>  <PUBCHEM_ATOM_DEF_STEREO_COUNT>
0

>  <PUBCHEM_ATOM_UDEF_STEREO_COUNT>
12

>  <PUBCHEM_BOND_DEF_STEREO_COUNT>
0

>  <PUBCHEM_BOND_UDEF_STEREO_COUNT>
0

>  <PUBCHEM_ISOTOPIC_ATOM_COUNT>
0

>  <PUBCHEM_COMPONENT_COUNT>
1

>  <PUBCHEM_CACTVS_TAUTO_COUNT>
1

>  <PUBCHEM_COORDINATE_TYPE>
1
5
255

>  <PUBCHEM_BONDANNOTATIONS>
10  16  3
11  12  3
13  24  3
15  26  3
17  23  3
19  25  3
28  2  3
31  32  3
6  20  3
7  12  3
8  15  3
9  18  3

$$$$
