5458952
 OpenBabel06101807152D

 48 47  0  0  0  0  0  0  0  0999 V2000
   15.8564   -0.8100    0.0000 O   0  0  0  0  0  0  0  0  0  0  0  0
    2.0000    1.1900    0.0000 O   0  0  0  0  0  0  0  0  0  0  0  0
   14.9904    0.6900    0.0000 O   0  0  0  0  0  0  0  0  0  0  0  0
    3.7320    1.1900    0.0000 O   0  0  0  0  0  0  0  0  0  0  0  0
   10.6603   -0.8100    0.0000 C   0  0  0  0  0  0  0  0  0  0  0  0
    6.3301   -0.3100    0.0000 C   0  0  0  0  0  0  0  0  0  0  0  0
    9.7942   -0.3100    0.0000 C   0  0  0  0  0  0  0  0  0  0  0  0
    7.1962   -0.8100    0.0000 C   0  0  0  0  0  0  0  0  0  0  0  0
   11.5263   -0.3100    0.0000 C   0  0  0  0  0  0  0  0  0  0  0  0
    5.4641   -0.8100    0.0000 C   0  0  0  0  0  0  0  0  0  0  0  0
    8.9282   -0.8100    0.0000 C   0  0  0  0  0  0  0  0  0  0  0  0
    8.0622   -0.3100    0.0000 C   0  0  0  0  0  0  0  0  0  0  0  0
   10.6603   -1.8100    0.0000 C   0  0  0  0  0  0  0  0  0  0  0  0
    6.3301    0.6900    0.0000 C   0  0  0  0  0  0  0  0  0  0  0  0
   12.3923   -0.8100    0.0000 C   0  0  0  0  0  0  0  0  0  0  0  0
    4.5981   -0.3100    0.0000 C   0  0  0  0  0  0  0  0  0  0  0  0
   13.2583   -0.3100    0.0000 C   0  0  0  0  0  0  0  0  0  0  0  0
    3.7320   -0.8100    0.0000 C   0  0  0  0  0  0  0  0  0  0  0  0
   14.1244   -0.8100    0.0000 C   0  0  0  0  0  0  0  0  0  0  0  0
    2.8660   -0.3100    0.0000 C   0  0  0  0  0  0  0  0  0  0  0  0
   14.1244   -1.8100    0.0000 C   0  0  0  0  0  0  0  0  0  0  0  0
    2.0000   -0.8100    0.0000 C   0  0  0  0  0  0  0  0  0  0  0  0
   14.9904   -0.3100    0.0000 C   0  0  0  0  0  0  0  0  0  0  0  0
    2.8660    0.6900    0.0000 C   0  0  0  0  0  0  0  0  0  0  0  0
    9.7942    0.3100    0.0000 H   0  0  0  0  0  0  0  0  0  0  0  0
    7.1962   -1.4300    0.0000 H   0  0  0  0  0  0  0  0  0  0  0  0
   11.5263    0.3100    0.0000 H   0  0  0  0  0  0  0  0  0  0  0  0
    5.4641   -1.4300    0.0000 H   0  0  0  0  0  0  0  0  0  0  0  0
    8.9282   -1.4300    0.0000 H   0  0  0  0  0  0  0  0  0  0  0  0
    8.0622    0.3100    0.0000 H   0  0  0  0  0  0  0  0  0  0  0  0
   10.0403   -1.8100    0.0000 H   0  0  0  0  0  0  0  0  0  0  0  0
   10.6603   -2.4300    0.0000 H   0  0  0  0  0  0  0  0  0  0  0  0
   11.2803   -1.8100    0.0000 H   0  0  0  0  0  0  0  0  0  0  0  0
    6.9501    0.6900    0.0000 H   0  0  0  0  0  0  0  0  0  0  0  0
    6.3301    1.3100    0.0000 H   0  0  0  0  0  0  0  0  0  0  0  0
    5.7101    0.6900    0.0000 H   0  0  0  0  0  0  0  0  0  0  0  0
   12.3923   -1.4300    0.0000 H   0  0  0  0  0  0  0  0  0  0  0  0
    4.5981    0.3100    0.0000 H   0  0  0  0  0  0  0  0  0  0  0  0
   13.2583    0.3100    0.0000 H   0  0  0  0  0  0  0  0  0  0  0  0
    3.7320   -1.4300    0.0000 H   0  0  0  0  0  0  0  0  0  0  0  0
   13.5044   -1.8100    0.0000 H   0  0  0  0  0  0  0  0  0  0  0  0
   14.1244   -2.4300    0.0000 H   0  0  0  0  0  0  0  0  0  0  0  0
   14.7444   -1.8100    0.0000 H   0  0  0  0  0  0  0  0  0  0  0  0
    1.6900   -0.2731    0.0000 H   0  0  0  0  0  0  0  0  0  0  0  0
    1.4631   -1.1200    0.0000 H   0  0  0  0  0  0  0  0  0  0  0  0
    2.3100   -1.3469    0.0000 H   0  0  0  0  0  0  0  0  0  0  0  0
   16.3933   -0.5000    0.0000 H   0  0  0  0  0  0  0  0  0  0  0  0
    2.0000    1.8100    0.0000 H   0  0  0  0  0  0  0  0  0  0  0  0
  1 23  1  0  0  0  0
  1 47  1  0  0  0  0
  2 24  1  0  0  0  0
  2 48  1  0  0  0  0
  3 23  2  0  0  0  0
  4 24  2  0  0  0  0
  5  7  2  0  0  0  0
  5  9  1  0  0  0  0
  5 13  1  0  0  0  0
  6  8  2  0  0  0  0
  6 10  1  0  0  0  0
  6 14  1  0  0  0  0
  7 11  1  0  0  0  0
  7 25  1  0  0  0  0
  8 12  1  0  0  0  0
  8 26  1  0  0  0  0
  9 15  2  0  0  0  0
  9 27  1  0  0  0  0
 10 16  2  0  0  0  0
 10 28  1  0  0  0  0
 11 12  2  0  0  0  0
 11 29  1  0  0  0  0
 12 30  1  0  0  0  0
 13 31  1  0  0  0  0
 13 32  1  0  0  0  0
 13 33  1  0  0  0  0
 14 34  1  0  0  0  0
 14 35  1  0  0  0  0
 14 36  1  0  0  0  0
 15 17  1  0  0  0  0
 15 37  1  0  0  0  0
 16 18  1  0  0  0  0
 16 38  1  0  0  0  0
 17 19  2  0  0  0  0
 17 39  1  0  0  0  0
 18 20  2  0  0  0  0
 18 40  1  0  0  0  0
 19 21  1  0  0  0  0
 19 23  1  0  0  0  0
 20 22  1  0  0  0  0
 20 24  1  0  0  0  0
 21 41  1  0  0  0  0
 21 42  1  0  0  0  0
 21 43  1  0  0  0  0
 22 44  1  0  0  0  0
 22 45  1  0  0  0  0
 22 46  1  0  0  0  0
M  END
>  <PUBCHEM_COMPOUND_CID>
5458952

>  <PUBCHEM_COMPOUND_CANONICALIZED>
1

>  <PUBCHEM_CACTVS_COMPLEXITY>
608

>  <PUBCHEM_CACTVS_HBOND_ACCEPTOR>
4

>  <PUBCHEM_CACTVS_HBOND_DONOR>
2

>  <PUBCHEM_CACTVS_ROTATABLE_BOND>
8

>  <PUBCHEM_CACTVS_SUBSKEYS>
AAADceB4OAAAAAAAAAAAAAAAAAAAAAAAAAAAAAAAAAAAAAAAAAAAGgAACAAADACAgAACCAAAAgCIAiDSCAAAAAAgAAAICAEAAEgIBAAAAQAAUAAAAAAIkYIAAAAAAAAAAAAAAAAAAAAAAAAAAAAAAAAAAA==

>  <PUBCHEM_IUPAC_OPENEYE_NAME>
(2E,4E,6E,8E,10E,12E,14Z)-2,6,11,15-tetramethylhexadeca-2,4,6,8,10,12,14-heptaenedioic acid

>  <PUBCHEM_IUPAC_CAS_NAME>
(2E,4E,6E,8E,10E,12E,14Z)-2,6,11,15-tetramethylhexadeca-2,4,6,8,10,12,14-heptaenedioic acid

>  <PUBCHEM_IUPAC_NAME>
(2E,4E,6E,8E,10E,12E,14Z)-2,6,11,15-tetramethylhexadeca-2,4,6,8,10,12,14-heptaenedioic acid

>  <PUBCHEM_IUPAC_SYSTEMATIC_NAME>
(2E,4E,6E,8E,10E,12E,14Z)-2,6,11,15-tetramethylhexadeca-2,4,6,8,10,12,14-heptaenedioic acid

>  <PUBCHEM_IUPAC_TRADITIONAL_NAME>
(2E,4E,6E,8E,10E,12E,14Z)-2,6,11,15-tetramethylhexadeca-2,4,6,8,10,12,14-heptaenedioic acid

>  <PUBCHEM_IUPAC_INCHI>
InChI=1S/C20H24O4/c1-15(11-7-13-17(3)19(21)22)9-5-6-10-16(2)12-8-14-18(4)20(23)24/h5-14H,1-4H3,(H,21,22)(H,23,24)/b6-5+,11-7+,12-8+,15-9+,16-10+,17-13-,18-14+

>  <PUBCHEM_IUPAC_INCHIKEY>
PANKHBYNKQNAHN-MWAMITIYSA-N

>  <PUBCHEM_XLOGP3_AA>
5.4

>  <PUBCHEM_EXACT_MASS>
328.167

>  <PUBCHEM_MOLECULAR_FORMULA>
C20H24O4

>  <PUBCHEM_MOLECULAR_WEIGHT>
328.408

>  <PUBCHEM_OPENEYE_CAN_SMILES>
CC(=CC=CC=C(C)C=CC=C(C)C(=O)O)C=CC=C(C)C(=O)O

>  <PUBCHEM_OPENEYE_ISO_SMILES>
C/C(=C\C=C\C=C(/C)\C=C\C=C(\C)/C(=O)O)/C=C/C=C(\C)/C(=O)O

>  <PUBCHEM_CACTVS_TPSA>
74.6

>  <PUBCHEM_MONOISOTOPIC_WEIGHT>
328.167

>  <PUBCHEM_TOTAL_CHARGE>
0

>  <PUBCHEM_HEAVY_ATOM_COUNT>
24

>  <PUBCHEM_ATOM_DEF_STEREO_COUNT>
0

>  <PUBCHEM_ATOM_UDEF_STEREO_COUNT>
0

>  <PUBCHEM_BOND_DEF_STEREO_COUNT>
7

>  <PUBCHEM_BOND_UDEF_STEREO_COUNT>
0

>  <PUBCHEM_ISOTOPIC_ATOM_COUNT>
0

>  <PUBCHEM_COMPONENT_COUNT>
1

>  <PUBCHEM_CACTVS_TAUTO_COUNT>
1

>  <PUBCHEM_COORDINATE_TYPE>
1
5
255

$$$$
