5459865
 OpenBabel06101807152D

 63 65  0  0  1  0  0  0  0  0999 V2000
    5.8671    0.7306    0.0000 O   0  0  0  0  0  0  0  0  0  0  0  0
    6.8671   -0.2694    0.0000 O   0  0  0  0  0  0  0  0  0  0  0  0
    8.5613    1.0907    0.0000 O   0  0  0  0  0  0  0  0  0  0  0  0
    5.1350   -0.2694    0.0000 O   0  0  0  0  0  0  0  0  0  0  0  0
   10.5123    0.7817    0.0000 O   0  0  0  0  0  0  0  0  0  0  0  0
    8.1271    1.9906    0.0000 O   0  0  0  0  0  0  0  0  0  0  0  0
    6.3671    3.2694    0.0000 O   0  0  0  0  0  0  0  0  0  0  0  0
    6.8671   -2.2694    0.0000 O   0  0  0  0  0  0  0  0  0  0  0  0
    9.5123    1.7817    0.0000 O   0  0  0  0  0  0  0  0  0  0  0  0
    5.1350   -3.2694    0.0000 O   0  0  0  0  0  0  0  0  0  0  0  0
    3.4030   -2.2694    0.0000 O   0  0  0  0  0  0  0  0  0  0  0  0
    8.2522   -0.4784    0.0000 O   0  0  0  0  0  0  0  0  0  0  0  0
   10.0123   -1.7572    0.0000 O   0  0  0  0  0  0  0  0  0  0  0  0
    4.3991    2.9688    0.0000 O   0  0  0  0  0  0  0  0  0  0  0  0
    2.5369   -0.7694    0.0000 O   0  0  0  0  0  0  0  0  0  0  0  0
   12.5155    0.1907    0.0000 O   0  0  0  0  0  0  0  0  0  0  0  0
    6.8671    0.7306    0.0000 C   0  0  1  0  0  0  0  0  0  0  0  0
    7.1761    1.6816    0.0000 C   0  0  2  0  0  0  0  0  0  0  0  0
    6.3671    2.2694    0.0000 C   0  0  1  0  0  0  0  0  0  0  0  0
    5.5580    1.6816    0.0000 C   0  0  1  0  0  0  0  0  0  0  0  0
    7.8181    0.4216    0.0000 C   0  0  0  0  0  0  0  0  0  0  0  0
    6.0010   -0.7694    0.0000 C   0  0  1  0  0  0  0  0  0  0  0  0
    6.0010   -1.7694    0.0000 C   0  0  1  0  0  0  0  0  0  0  0  0
    9.5123    0.7817    0.0000 C   0  0  1  0  0  0  0  0  0  0  0  0
    5.1350   -2.2694    0.0000 C   0  0  2  0  0  0  0  0  0  0  0  0
    4.2690   -1.7694    0.0000 C   0  0  1  0  0  0  0  0  0  0  0  0
    9.2033   -0.1694    0.0000 C   0  0  2  0  0  0  0  0  0  0  0  0
    4.2690   -0.7694    0.0000 C   0  0  1  0  0  0  0  0  0  0  0  0
   10.0123   -0.7572    0.0000 C   0  0  1  0  0  0  0  0  0  0  0  0
   10.8213   -0.1694    0.0000 C   0  0  1  0  0  0  0  0  0  0  0  0
    4.6070    1.9906    0.0000 C   0  0  0  0  0  0  0  0  0  0  0  0
    3.4030   -0.2694    0.0000 C   0  0  0  0  0  0  0  0  0  0  0  0
   11.7724   -0.4784    0.0000 C   0  0  0  0  0  0  0  0  0  0  0  0
    7.6145    1.2432    0.0000 H   0  0  0  0  0  0  0  0  0  0  0  0
    6.9195    2.5509    0.0000 H   0  0  0  0  0  0  0  0  0  0  0  0
    5.1196    1.2432    0.0000 H   0  0  0  0  0  0  0  0  0  0  0  0
    7.5270   -0.1259    0.0000 H   0  0  0  0  0  0  0  0  0  0  0  0
    8.3067    0.0399    0.0000 H   0  0  0  0  0  0  0  0  0  0  0  0
    6.0010   -0.1494    0.0000 H   0  0  0  0  0  0  0  0  0  0  0  0
    6.0010   -2.3894    0.0000 H   0  0  0  0  0  0  0  0  0  0  0  0
    4.5981   -2.5794    0.0000 H   0  0  0  0  0  0  0  0  0  0  0  0
    3.7320   -1.4594    0.0000 H   0  0  0  0  0  0  0  0  0  0  0  0
    8.7649    0.2690    0.0000 H   0  0  0  0  0  0  0  0  0  0  0  0
    4.2690   -0.1494    0.0000 H   0  0  0  0  0  0  0  0  0  0  0  0
   10.5647   -1.0386    0.0000 H   0  0  0  0  0  0  0  0  0  0  0  0
   11.2597    0.2690    0.0000 H   0  0  0  0  0  0  0  0  0  0  0  0
    3.9874    1.9690    0.0000 H   0  0  0  0  0  0  0  0  0  0  0  0
    4.5207    1.3767    0.0000 H   0  0  0  0  0  0  0  0  0  0  0  0
    8.2560    2.5971    0.0000 H   0  0  0  0  0  0  0  0  0  0  0  0
    5.8301    3.5794    0.0000 H   0  0  0  0  0  0  0  0  0  0  0  0
    3.8015    0.2055    0.0000 H   0  0  0  0  0  0  0  0  0  0  0  0
    3.0044    0.2055    0.0000 H   0  0  0  0  0  0  0  0  0  0  0  0
   11.4813   -1.0258    0.0000 H   0  0  0  0  0  0  0  0  0  0  0  0
   12.2610   -0.8601    0.0000 H   0  0  0  0  0  0  0  0  0  0  0  0
    6.8671   -2.8894    0.0000 H   0  0  0  0  0  0  0  0  0  0  0  0
   10.0493    2.0917    0.0000 H   0  0  0  0  0  0  0  0  0  0  0  0
    4.5981   -3.5794    0.0000 H   0  0  0  0  0  0  0  0  0  0  0  0
    3.4030   -2.8894    0.0000 H   0  0  0  0  0  0  0  0  0  0  0  0
    8.1233   -1.0849    0.0000 H   0  0  0  0  0  0  0  0  0  0  0  0
   10.5493   -2.0672    0.0000 H   0  0  0  0  0  0  0  0  0  0  0  0
    3.8094    3.1604    0.0000 H   0  0  0  0  0  0  0  0  0  0  0  0
    2.0000   -0.4594    0.0000 H   0  0  0  0  0  0  0  0  0  0  0  0
   13.1052   -0.0009    0.0000 H   0  0  0  0  0  0  0  0  0  0  0  0
  1 17  1  0  0  0  0
  1 20  1  0  0  0  0
  3 21  1  0  0  0  0
  3 24  1  0  0  0  0
  4 22  1  0  0  0  0
  4 28  1  0  0  0  0
  5 24  1  0  0  0  0
  5 30  1  0  0  0  0
  6 49  1  0  0  0  0
  7 50  1  0  0  0  0
  8 55  1  0  0  0  0
  9 56  1  0  0  0  0
 10 57  1  0  0  0  0
 11 58  1  0  0  0  0
 12 59  1  0  0  0  0
 13 60  1  0  0  0  0
 14 31  1  0  0  0  0
 14 61  1  0  0  0  0
 15 32  1  0  0  0  0
 15 62  1  0  0  0  0
 16 33  1  0  0  0  0
 16 63  1  0  0  0  0
 17  2  1  0  0  0  0
 17 18  1  6  0  0  0
 17 21  1  0  0  0  0
 18  6  1  0  0  0  0
 18 19  1  1  0  0  0
 18 34  1  0  0  0  0
 19  7  1  0  0  0  0
 19 20  1  6  0  0  0
 19 35  1  0  0  0  0
 20 31  1  0  0  0  0
 20 36  1  1  0  0  0
 21 37  1  0  0  0  0
 21 38  1  0  0  0  0
 22  2  1  0  0  0  0
 22 23  1  1  0  0  0
 22 39  1  0  0  0  0
 23  8  1  0  0  0  0
 23 25  1  6  0  0  0
 23 40  1  0  0  0  0
 24  9  1  0  0  0  0
 24 27  1  1  0  0  0
 25 10  1  0  0  0  0
 25 26  1  1  0  0  0
 25 41  1  0  0  0  0
 26 11  1  0  0  0  0
 26 28  1  6  0  0  0
 26 42  1  0  0  0  0
 27 12  1  0  0  0  0
 27 29  1  1  0  0  0
 27 43  1  0  0  0  0
 28 32  1  0  0  0  0
 28 44  1  6  0  0  0
 29 13  1  0  0  0  0
 29 30  1  1  0  0  0
 29 45  1  0  0  0  0
 30 33  1  0  0  0  0
 30 46  1  1  0  0  0
 31 47  1  0  0  0  0
 31 48  1  0  0  0  0
 32 51  1  0  0  0  0
 32 52  1  0  0  0  0
 33 53  1  0  0  0  0
 33 54  1  0  0  0  0
M  END
>  <PUBCHEM_COMPOUND_CID>
5459865

>  <PUBCHEM_COMPOUND_CANONICALIZED>
1

>  <PUBCHEM_CACTVS_COMPLEXITY>
655

>  <PUBCHEM_CACTVS_HBOND_ACCEPTOR>
16

>  <PUBCHEM_CACTVS_HBOND_DONOR>
11

>  <PUBCHEM_CACTVS_ROTATABLE_BOND>
8

>  <PUBCHEM_CACTVS_SUBSKEYS>
AAADceB4PgAAAAAAAAAAAAAAAAAAASJAAAAkAAAAAAAAAAAAAAAAGgAACAAACBSwgAMACAAABgAAAAAAAAAAAAAAAAAAAAAAAAAREAIAAAAiQAAFAAAHAAHAYAwAAAAAAAAAAAAAAAAAAAAAAAAAAAAAAA==

>  <PUBCHEM_IUPAC_OPENEYE_NAME>
(2R,3R,4S,5S,6R)-2-[(2S,3S,4S,5R)-3,4-dihydroxy-5-(hydroxymethyl)-2-[[(2S,3S,4S,5R)-2,3,4-trihydroxy-5-(hydroxymethyl)tetrahydrofuran-2-yl]oxymethyl]tetrahydrofuran-2-yl]oxy-6-(hydroxymethyl)tetrahydropyran-3,4,5-triol

>  <PUBCHEM_IUPAC_CAS_NAME>
(2R,3R,4S,5S,6R)-2-[[(2S,3S,4S,5R)-3,4-dihydroxy-5-(hydroxymethyl)-2-[[(2S,3S,4S,5R)-2,3,4-trihydroxy-5-(hydroxymethyl)-2-oxolanyl]oxymethyl]-2-oxolanyl]oxy]-6-(hydroxymethyl)oxane-3,4,5-triol

>  <PUBCHEM_IUPAC_NAME>
(2R,3R,4S,5S,6R)-2-[(2S,3S,4S,5R)-3,4-dihydroxy-5-(hydroxymethyl)-2-[[(2S,3S,4S,5R)-2,3,4-trihydroxy-5-(hydroxymethyl)oxolan-2-yl]oxymethyl]oxolan-2-yl]oxy-6-(hydroxymethyl)oxane-3,4,5-triol

>  <PUBCHEM_IUPAC_SYSTEMATIC_NAME>
(2R,3S,4S,5R,6R)-2-(hydroxymethyl)-6-[(2S,3S,4S,5R)-5-(hydroxymethyl)-2-[[(2S,3S,4S,5R)-5-(hydroxymethyl)-2,3,4-tris(oxidanyl)oxolan-2-yl]oxymethyl]-3,4-bis(oxidanyl)oxolan-2-yl]oxy-oxane-3,4,5-triol

>  <PUBCHEM_IUPAC_TRADITIONAL_NAME>
(2R,3R,4S,5S,6R)-2-[(2S,3S,4S,5R)-3,4-dihydroxy-5-methylol-2-[[(2S,3S,4S,5R)-2,3,4-trihydroxy-5-methylol-tetrahydrofuran-2-yl]oxymethyl]tetrahydrofuran-2-yl]oxy-6-methylol-tetrahydropyran-3,4,5-triol

>  <PUBCHEM_IUPAC_INCHI>
InChI=1S/C17H30O16/c18-1-5-8(21)11(24)12(25)15(30-5)33-16(13(26)9(22)6(2-19)31-16)4-29-17(28)14(27)10(23)7(3-20)32-17/h5-15,18-28H,1-4H2/t5-,6-,7-,8-,9-,10-,11+,12-,13+,14+,15-,16+,17+/m1/s1

>  <PUBCHEM_IUPAC_INCHIKEY>
WKVUDSJSOXZCJX-VUOLFOLFSA-N

>  <PUBCHEM_XLOGP3>
-6

>  <PUBCHEM_EXACT_MASS>
490.153

>  <PUBCHEM_MOLECULAR_FORMULA>
C17H30O16

>  <PUBCHEM_MOLECULAR_WEIGHT>
490.411

>  <PUBCHEM_OPENEYE_CAN_SMILES>
C(C1C(C(C(C(O1)OC2(C(C(C(O2)CO)O)O)COC3(C(C(C(O3)CO)O)O)O)O)O)O)O

>  <PUBCHEM_OPENEYE_ISO_SMILES>
C([C@@H]1[C@H]([C@@H]([C@H]([C@H](O1)O[C@]2([C@H]([C@@H]([C@H](O2)CO)O)O)CO[C@]3([C@H]([C@@H]([C@H](O3)CO)O)O)O)O)O)O)O

>  <PUBCHEM_CACTVS_TPSA>
269

>  <PUBCHEM_MONOISOTOPIC_WEIGHT>
490.153

>  <PUBCHEM_TOTAL_CHARGE>
0

>  <PUBCHEM_HEAVY_ATOM_COUNT>
33

>  <PUBCHEM_ATOM_DEF_STEREO_COUNT>
13

>  <PUBCHEM_ATOM_UDEF_STEREO_COUNT>
0

>  <PUBCHEM_BOND_DEF_STEREO_COUNT>
0

>  <PUBCHEM_BOND_UDEF_STEREO_COUNT>
0

>  <PUBCHEM_ISOTOPIC_ATOM_COUNT>
0

>  <PUBCHEM_COMPONENT_COUNT>
1

>  <PUBCHEM_CACTVS_TAUTO_COUNT>
1

>  <PUBCHEM_COORDINATE_TYPE>
1
5
255

>  <PUBCHEM_BONDANNOTATIONS>
25  10  5
26  11  6
27  12  6
29  13  5
17  2  6
22  2  6
20  31  6
28  32  5
30  33  6
18  6  6
19  7  5
23  8  6
24  9  5

$$$$
