5462396
 OpenBabel06101807152D

 66 65  0  0  1  0  0  0  0  0999 V2000
   16.3933    2.1085    0.0000 S   0  0  0  0  0  0  0  0  0  0  0  0
   14.6613    2.1085    0.0000 P   0  0  3  0  0  0  0  0  0  0  0  0
    9.4651    3.1085    0.0000 O   0  0  0  0  0  0  0  0  0  0  0  0
    6.8671    0.6085    0.0000 O   0  0  0  0  0  0  0  0  0  0  0  0
    3.4030    1.6085    0.0000 O   0  0  0  0  0  0  0  0  0  0  0  0
    4.2690    3.1085    0.0000 O   0  0  0  0  0  0  0  0  0  0  0  0
   17.2594    1.6085    0.0000 O   0  0  0  0  0  0  0  0  0  0  0  0
   16.8933    2.9745    0.0000 O   0  0  0  0  0  0  0  0  0  0  0  0
   15.8933    1.2425    0.0000 O   0  0  0  0  0  0  0  0  0  0  0  0
    8.5991    1.6085    0.0000 N   0  0  0  0  0  0  0  0  0  0  0  0
   13.7953    1.6085    0.0000 N   0  0  0  0  0  0  0  0  0  0  0  0
    6.0010    2.1085    0.0000 N   0  0  0  0  0  0  0  0  0  0  0  0
   10.3312    0.6085    0.0000 N   0  0  0  0  0  0  0  0  0  0  0  0
   15.5273    2.6085    0.0000 N   0  0  0  0  0  0  0  0  0  0  0  0
   14.1613    2.9745    0.0000 N   0  0  0  0  0  0  0  0  0  0  0  0
   15.1613    1.2425    0.0000 N   0  0  0  0  0  0  0  0  0  0  0  0
    3.4030   -1.3915    0.0000 N   0  0  0  0  0  0  0  0  0  0  0  0
    2.5369   -2.8915    0.0000 N   0  0  0  0  0  0  0  0  0  0  0  0
    4.2690   -2.8915    0.0000 N   0  0  0  0  0  0  0  0  0  0  0  0
   11.1972    2.1085    0.0000 C   0  0  0  0  0  0  0  0  0  0  0  0
   10.3312    1.6085    0.0000 C   0  0  1  0  0  0  0  0  0  0  0  0
   12.0632    1.6085    0.0000 C   0  0  0  0  0  0  0  0  0  0  0  0
   12.9292    2.1085    0.0000 C   0  0  0  0  0  0  0  0  0  0  0  0
    7.7331    2.1085    0.0000 C   0  0  2  0  0  0  0  0  0  0  0  0
    5.1350    1.6085    0.0000 C   0  0  1  0  0  0  0  0  0  0  0  0
    9.4651    2.1085    0.0000 C   0  0  0  0  0  0  0  0  0  0  0  0
    5.1350    0.6085    0.0000 C   0  0  0  0  0  0  0  0  0  0  0  0
    4.2690    0.1085    0.0000 C   0  0  0  0  0  0  0  0  0  0  0  0
    6.8671    1.6085    0.0000 C   0  0  0  0  0  0  0  0  0  0  0  0
    7.7331    3.1085    0.0000 C   0  0  0  0  0  0  0  0  0  0  0  0
    4.2690   -0.8915    0.0000 C   0  0  0  0  0  0  0  0  0  0  0  0
    4.2690    2.1085    0.0000 C   0  0  0  0  0  0  0  0  0  0  0  0
    3.4030   -2.3915    0.0000 C   0  0  0  0  0  0  0  0  0  0  0  0
   11.5957    2.5835    0.0000 H   0  0  0  0  0  0  0  0  0  0  0  0
   10.7987    2.5835    0.0000 H   0  0  0  0  0  0  0  0  0  0  0  0
   10.8681    1.2985    0.0000 H   0  0  0  0  0  0  0  0  0  0  0  0
   11.6647    1.1336    0.0000 H   0  0  0  0  0  0  0  0  0  0  0  0
   12.4617    1.1336    0.0000 H   0  0  0  0  0  0  0  0  0  0  0  0
   13.3278    2.5835    0.0000 H   0  0  0  0  0  0  0  0  0  0  0  0
   12.5307    2.5835    0.0000 H   0  0  0  0  0  0  0  0  0  0  0  0
    7.7331    1.4885    0.0000 H   0  0  0  0  0  0  0  0  0  0  0  0
    5.1350    2.2285    0.0000 H   0  0  0  0  0  0  0  0  0  0  0  0
    5.3471    0.0259    0.0000 H   0  0  0  0  0  0  0  0  0  0  0  0
    5.7456    0.7162    0.0000 H   0  0  0  0  0  0  0  0  0  0  0  0
    8.5991    0.9885    0.0000 H   0  0  0  0  0  0  0  0  0  0  0  0
   13.7953    0.9885    0.0000 H   0  0  0  0  0  0  0  0  0  0  0  0
    4.0569    0.6911    0.0000 H   0  0  0  0  0  0  0  0  0  0  0  0
    3.6584    0.0009    0.0000 H   0  0  0  0  0  0  0  0  0  0  0  0
    6.0010    2.7285    0.0000 H   0  0  0  0  0  0  0  0  0  0  0  0
    9.7942    0.2985    0.0000 H   0  0  0  0  0  0  0  0  0  0  0  0
   10.8681    0.2985    0.0000 H   0  0  0  0  0  0  0  0  0  0  0  0
    8.3531    3.1085    0.0000 H   0  0  0  0  0  0  0  0  0  0  0  0
    7.7331    3.7285    0.0000 H   0  0  0  0  0  0  0  0  0  0  0  0
    7.1131    3.1085    0.0000 H   0  0  0  0  0  0  0  0  0  0  0  0
    4.4810   -1.4741    0.0000 H   0  0  0  0  0  0  0  0  0  0  0  0
    4.8796   -0.7838    0.0000 H   0  0  0  0  0  0  0  0  0  0  0  0
   15.5273    3.2285    0.0000 H   0  0  0  0  0  0  0  0  0  0  0  0
   14.4713    3.5115    0.0000 H   0  0  0  0  0  0  0  0  0  0  0  0
   13.5413    2.9745    0.0000 H   0  0  0  0  0  0  0  0  0  0  0  0
   14.8513    0.7056    0.0000 H   0  0  0  0  0  0  0  0  0  0  0  0
    2.8660    1.9185    0.0000 H   0  0  0  0  0  0  0  0  0  0  0  0
   17.7963    1.9185    0.0000 H   0  0  0  0  0  0  0  0  0  0  0  0
    4.2690   -3.5115    0.0000 H   0  0  0  0  0  0  0  0  0  0  0  0
    4.8059   -2.5815    0.0000 H   0  0  0  0  0  0  0  0  0  0  0  0
    2.5369   -3.5115    0.0000 H   0  0  0  0  0  0  0  0  0  0  0  0
    2.0000   -2.5815    0.0000 H   0  0  0  0  0  0  0  0  0  0  0  0
  1  7  1  0  0  0  0
  1  8  2  0  0  0  0
  1  9  2  0  0  0  0
  1 14  1  0  0  0  0
  2 11  1  0  0  0  0
  2 14  1  0  0  0  0
  2 15  1  0  0  0  0
  2 16  2  0  0  0  0
  3 26  2  0  0  0  0
  4 29  2  0  0  0  0
  5 32  1  0  0  0  0
  5 61  1  0  0  0  0
  6 32  2  0  0  0  0
  7 62  1  0  0  0  0
 10 26  1  0  0  0  0
 10 45  1  0  0  0  0
 11 23  1  0  0  0  0
 11 46  1  0  0  0  0
 12 29  1  0  0  0  0
 12 49  1  0  0  0  0
 13 50  1  0  0  0  0
 13 51  1  0  0  0  0
 14 57  1  0  0  0  0
 15 58  1  0  0  0  0
 15 59  1  0  0  0  0
 16 60  1  0  0  0  0
 17 31  1  0  0  0  0
 17 33  2  0  0  0  0
 18 33  1  0  0  0  0
 18 65  1  0  0  0  0
 18 66  1  0  0  0  0
 19 33  1  0  0  0  0
 19 63  1  0  0  0  0
 19 64  1  0  0  0  0
 20 21  1  0  0  0  0
 20 22  1  0  0  0  0
 20 34  1  0  0  0  0
 20 35  1  0  0  0  0
 21 13  1  0  0  0  0
 21 26  1  0  0  0  0
 21 36  1  1  0  0  0
 22 23  1  0  0  0  0
 22 37  1  0  0  0  0
 22 38  1  0  0  0  0
 23 39  1  0  0  0  0
 23 40  1  0  0  0  0
 24 10  1  0  0  0  0
 24 29  1  0  0  0  0
 24 30  1  0  0  0  0
 24 41  1  1  0  0  0
 25 12  1  0  0  0  0
 25 27  1  0  0  0  0
 25 32  1  0  0  0  0
 25 42  1  6  0  0  0
 27 28  1  0  0  0  0
 27 43  1  0  0  0  0
 27 44  1  0  0  0  0
 28 31  1  0  0  0  0
 28 47  1  0  0  0  0
 28 48  1  0  0  0  0
 30 52  1  0  0  0  0
 30 53  1  0  0  0  0
 30 54  1  0  0  0  0
 31 55  1  0  0  0  0
 31 56  1  0  0  0  0
M  END
>  <PUBCHEM_COMPOUND_CID>
5462396

>  <PUBCHEM_COMPOUND_CANONICALIZED>
1

>  <PUBCHEM_CACTVS_COMPLEXITY>
859

>  <PUBCHEM_CACTVS_HBOND_ACCEPTOR>
13

>  <PUBCHEM_CACTVS_HBOND_DONOR>
11

>  <PUBCHEM_CACTVS_ROTATABLE_BOND>
16

>  <PUBCHEM_CACTVS_SUBSKEYS>
AAADcfBz+AJAAAAAAAAAAAAAAAAAAAAAAAAAAAAAAAAAAAAAAAAAHgAQyAAACCjBgAQDCALAAoAogAGQPDAAAAEAAAAAAIGIAAACQBIAgCAUQAAEFgCQAACYEQAAAAAAAAAAAAAAAAAAAAAAAAAAAAAAAA==

>  <PUBCHEM_IUPAC_OPENEYE_NAME>
(2S)-2-[[(2S)-2-[[(2S)-2-amino-5-[[amino-(sulfoamino)phosphinimyl]amino]pentanoyl]amino]propanoyl]amino]-5-guanidino-pentanoic acid

>  <PUBCHEM_IUPAC_CAS_NAME>
(2S)-2-[[(2S)-2-[[(2S)-2-amino-5-[[amino-(sulfoamino)phosphinimyl]amino]-1-oxopentyl]amino]-1-oxopropyl]amino]-5-(diaminomethylideneamino)pentanoic acid

>  <PUBCHEM_IUPAC_NAME>
(2S)-2-[[(2S)-2-[[(2S)-2-amino-5-[[amino-(sulfoamino)phosphinimyl]amino]pentanoyl]amino]propanoyl]amino]-5-(diaminomethylideneamino)pentanoic acid

>  <PUBCHEM_IUPAC_SYSTEMATIC_NAME>
(2S)-2-[[(2S)-2-[[(2S)-2-azanyl-5-[[azanyl-(sulfoamino)phosphinimyl]amino]pentanoyl]amino]propanoyl]amino]-5-[bis(azanyl)methylideneamino]pentanoic acid

>  <PUBCHEM_IUPAC_TRADITIONAL_NAME>
(2S)-2-[[(2S)-2-[[(2S)-2-amino-5-[[amino-(sulfoamino)phosphinimyl]amino]pentanoyl]amino]propanoyl]amino]-5-guanidino-valeric acid

>  <PUBCHEM_IUPAC_INCHI>
InChI=1S/C14H33N10O7PS/c1-8(11(25)23-10(13(27)28)5-3-6-20-14(16)17)22-12(26)9(15)4-2-7-21-32(18,19)24-33(29,30)31/h8-10H,2-7,15H2,1H3,(H,22,26)(H,23,25)(H,27,28)(H4,16,17,20)(H,29,30,31)(H5,18,19,21,24)/t8-,9-,10-/m0/s1

>  <PUBCHEM_IUPAC_INCHIKEY>
YHZJJCDLDGYDKK-GUBZILKMSA-N

>  <PUBCHEM_XLOGP3_AA>
-6.1

>  <PUBCHEM_EXACT_MASS>
516.199

>  <PUBCHEM_MOLECULAR_FORMULA>
C14H33N10O7PS

>  <PUBCHEM_MOLECULAR_WEIGHT>
516.515

>  <PUBCHEM_OPENEYE_CAN_SMILES>
CC(C(=O)NC(CCCN=C(N)N)C(=O)O)NC(=O)C(CCCNP(=N)(N)NS(=O)(=O)O)N

>  <PUBCHEM_OPENEYE_ISO_SMILES>
C[C@@H](C(=O)N[C@@H](CCCN=C(N)N)C(=O)O)NC(=O)[C@H](CCCNP(=N)(N)NS(=O)(=O)O)N

>  <PUBCHEM_CACTVS_TPSA>
323

>  <PUBCHEM_MONOISOTOPIC_WEIGHT>
516.199

>  <PUBCHEM_TOTAL_CHARGE>
0

>  <PUBCHEM_HEAVY_ATOM_COUNT>
33

>  <PUBCHEM_ATOM_DEF_STEREO_COUNT>
3

>  <PUBCHEM_ATOM_UDEF_STEREO_COUNT>
1

>  <PUBCHEM_BOND_DEF_STEREO_COUNT>
0

>  <PUBCHEM_BOND_UDEF_STEREO_COUNT>
0

>  <PUBCHEM_ISOTOPIC_ATOM_COUNT>
0

>  <PUBCHEM_COMPONENT_COUNT>
1

>  <PUBCHEM_CACTVS_TAUTO_COUNT>
24

>  <PUBCHEM_COORDINATE_TYPE>
1
5
255

>  <PUBCHEM_BONDANNOTATIONS>
24  10  6
25  12  5
21  13  6
2  11  3

$$$$
