5463156
 OpenBabel06101807152D

 24 24  0  0  0  0  0  0  0  0999 V2000
    2.5369   -2.3100    0.0000 O   0  0  0  0  0  0  0  0  0  0  0  0
    2.5369   -0.3100    0.0000 O   0  0  0  0  0  0  0  0  0  0  0  0
    6.0010    2.6900    0.0000 O   0  0  0  0  0  0  0  0  0  0  0  0
    4.2690    2.6900    0.0000 O   0  0  0  0  0  0  0  0  0  0  0  0
    4.2690   -0.3100    0.0000 C   0  0  0  0  0  0  0  0  0  0  0  0
    3.4030   -0.8100    0.0000 C   0  0  0  0  0  0  0  0  0  0  0  0
    3.4030   -1.8100    0.0000 C   0  0  0  0  0  0  0  0  0  0  0  0
    5.1350   -0.8100    0.0000 C   0  0  0  0  0  0  0  0  0  0  0  0
    4.2690   -2.3100    0.0000 C   0  0  0  0  0  0  0  0  0  0  0  0
    5.1350   -1.8100    0.0000 C   0  0  0  0  0  0  0  0  0  0  0  0
    4.2690    0.6900    0.0000 C   0  0  0  0  0  0  0  0  0  0  0  0
    5.1350    1.1900    0.0000 C   0  0  0  0  0  0  0  0  0  0  0  0
    2.5369   -3.3100    0.0000 C   0  0  0  0  0  0  0  0  0  0  0  0
    5.1350    2.1900    0.0000 C   0  0  0  0  0  0  0  0  0  0  0  0
    5.6720   -0.5000    0.0000 H   0  0  0  0  0  0  0  0  0  0  0  0
    4.2690   -2.9300    0.0000 H   0  0  0  0  0  0  0  0  0  0  0  0
    5.6720   -2.1200    0.0000 H   0  0  0  0  0  0  0  0  0  0  0  0
    3.7320    1.0000    0.0000 H   0  0  0  0  0  0  0  0  0  0  0  0
    5.6720    0.8800    0.0000 H   0  0  0  0  0  0  0  0  0  0  0  0
    2.0000   -0.6200    0.0000 H   0  0  0  0  0  0  0  0  0  0  0  0
    1.9169   -3.3100    0.0000 H   0  0  0  0  0  0  0  0  0  0  0  0
    2.5369   -3.9300    0.0000 H   0  0  0  0  0  0  0  0  0  0  0  0
    3.1569   -3.3100    0.0000 H   0  0  0  0  0  0  0  0  0  0  0  0
    6.0010    3.3100    0.0000 H   0  0  0  0  0  0  0  0  0  0  0  0
  1  7  1  0  0  0  0
  1 13  1  0  0  0  0
  2  6  1  0  0  0  0
  2 20  1  0  0  0  0
  3 14  1  0  0  0  0
  3 24  1  0  0  0  0
  4 14  2  0  0  0  0
  5  6  2  0  0  0  0
  5  8  1  0  0  0  0
  5 11  1  0  0  0  0
  6  7  1  0  0  0  0
  7  9  2  0  0  0  0
  8 10  2  0  0  0  0
  8 15  1  0  0  0  0
  9 10  1  0  0  0  0
  9 16  1  0  0  0  0
 10 17  1  0  0  0  0
 11 12  2  0  0  0  0
 11 18  1  0  0  0  0
 12 14  1  0  0  0  0
 12 19  1  0  0  0  0
 13 21  1  0  0  0  0
 13 22  1  0  0  0  0
 13 23  1  0  0  0  0
M  END
>  <PUBCHEM_COMPOUND_CID>
5463156

>  <PUBCHEM_COMPOUND_CANONICALIZED>
1

>  <PUBCHEM_CACTVS_COMPLEXITY>
224

>  <PUBCHEM_CACTVS_HBOND_ACCEPTOR>
4

>  <PUBCHEM_CACTVS_HBOND_DONOR>
2

>  <PUBCHEM_CACTVS_ROTATABLE_BOND>
3

>  <PUBCHEM_CACTVS_SUBSKEYS>
AAADccBwOAAAAAAAAAAAAAAAAAAAAAAAAAAwAAAAAAAAAAABAAAAGgAACAAADASAmAIyDoAABgCIAiDSCAACCAAgIAAIiAAGiMgNJiKGMRqAcCMkwBELuYeAwDAOAAABAAAIQAAAAAIAABCAAAAAAAAAAA==

>  <PUBCHEM_IUPAC_OPENEYE_NAME>
(E)-3-(2-hydroxy-3-methoxy-phenyl)prop-2-enoic acid

>  <PUBCHEM_IUPAC_CAS_NAME>
(E)-3-(2-hydroxy-3-methoxyphenyl)-2-propenoic acid

>  <PUBCHEM_IUPAC_NAME>
(E)-3-(2-hydroxy-3-methoxyphenyl)prop-2-enoic acid

>  <PUBCHEM_IUPAC_SYSTEMATIC_NAME>
(E)-3-(3-methoxy-2-oxidanyl-phenyl)prop-2-enoic acid

>  <PUBCHEM_IUPAC_TRADITIONAL_NAME>
(E)-3-(2-hydroxy-3-methoxy-phenyl)acrylic acid

>  <PUBCHEM_IUPAC_INCHI>
InChI=1S/C10H10O4/c1-14-8-4-2-3-7(10(8)13)5-6-9(11)12/h2-6,13H,1H3,(H,11,12)/b6-5+

>  <PUBCHEM_IUPAC_INCHIKEY>
VZFPHVWLPRCAGD-AATRIKPKSA-N

>  <PUBCHEM_XLOGP3_AA>
1.5

>  <PUBCHEM_EXACT_MASS>
194.058

>  <PUBCHEM_MOLECULAR_FORMULA>
C10H10O4

>  <PUBCHEM_MOLECULAR_WEIGHT>
194.186

>  <PUBCHEM_OPENEYE_CAN_SMILES>
COC1=CC=CC(=C1O)C=CC(=O)O

>  <PUBCHEM_OPENEYE_ISO_SMILES>
COC1=CC=CC(=C1O)/C=C/C(=O)O

>  <PUBCHEM_CACTVS_TPSA>
66.8

>  <PUBCHEM_MONOISOTOPIC_WEIGHT>
194.058

>  <PUBCHEM_TOTAL_CHARGE>
0

>  <PUBCHEM_HEAVY_ATOM_COUNT>
14

>  <PUBCHEM_ATOM_DEF_STEREO_COUNT>
0

>  <PUBCHEM_ATOM_UDEF_STEREO_COUNT>
0

>  <PUBCHEM_BOND_DEF_STEREO_COUNT>
1

>  <PUBCHEM_BOND_UDEF_STEREO_COUNT>
0

>  <PUBCHEM_ISOTOPIC_ATOM_COUNT>
0

>  <PUBCHEM_COMPONENT_COUNT>
1

>  <PUBCHEM_CACTVS_TAUTO_COUNT>
6

>  <PUBCHEM_COORDINATE_TYPE>
1
5
255

>  <PUBCHEM_BONDANNOTATIONS>
5  6  8
5  8  8
6  7  8
7  9  8
8  10  8
9  10  8

$$$$
