5465153
 OpenBabel06101807152D

 69 73  0  0  1  0  0  0  0  0999 V2000
    6.8671   -1.6112    0.0000 O   0  0  0  0  0  0  0  0  0  0  0  0
    6.0580   -3.1990    0.0000 O   0  0  0  0  0  0  0  0  0  0  0  0
    5.1350    0.3888    0.0000 O   0  0  0  0  0  0  0  0  0  0  0  0
    8.3181   -4.4591    0.0000 O   0  0  0  0  0  0  0  0  0  0  0  0
    6.8671    0.3888    0.0000 O   0  0  0  0  0  0  0  0  0  0  0  0
    5.1350   -2.6112    0.0000 O   0  0  0  0  0  0  0  0  0  0  0  0
    8.6271   -2.8900    0.0000 O   0  0  0  0  0  0  0  0  0  0  0  0
    3.4030   -1.6112    0.0000 O   0  0  0  0  0  0  0  0  0  0  0  0
    6.5010   -5.6501    0.0000 O   0  0  0  0  0  0  0  0  0  0  0  0
    2.5369   -0.1112    0.0000 O   0  0  0  0  0  0  0  0  0  0  0  0
    7.7331    2.8888    0.0000 O   0  0  0  0  0  0  0  0  0  0  0  0
    5.1350    1.3888    0.0000 O   0  0  0  0  0  0  0  0  0  0  0  0
    4.2308    2.8856    0.0000 O   0  0  0  0  0  0  0  0  0  0  0  0
    5.9889    5.9580    0.0000 O   0  0  0  0  0  0  0  0  0  0  0  0
   11.1972   -0.1112    0.0000 O   0  0  0  0  0  0  0  0  0  0  0  0
    6.0010   -1.1112    0.0000 C   0  0  3  0  0  0  0  0  0  0  0  0
    7.3671   -4.1501    0.0000 C   0  0  3  0  0  0  0  0  0  0  0  0
    5.1350   -1.6112    0.0000 C   0  0  3  0  0  0  0  0  0  0  0  0
    7.6761   -3.1990    0.0000 C   0  0  3  0  0  0  0  0  0  0  0  0
    6.8671   -2.6112    0.0000 C   0  0  3  0  0  0  0  0  0  0  0  0
    4.2690   -1.1112    0.0000 C   0  0  3  0  0  0  0  0  0  0  0  0
    6.0010   -0.1112    0.0000 C   0  0  3  0  0  0  0  0  0  0  0  0
    4.2690   -0.1112    0.0000 C   0  0  3  0  0  0  0  0  0  0  0  0
    6.3671   -4.1501    0.0000 C   0  0  0  0  0  0  0  0  0  0  0  0
    7.3671   -5.1501    0.0000 C   0  0  0  0  0  0  0  0  0  0  0  0
    3.4030    0.3888    0.0000 C   0  0  0  0  0  0  0  0  0  0  0  0
    6.8671    1.3888    0.0000 C   0  0  0  0  0  0  0  0  0  0  0  0
    7.7331    1.8888    0.0000 C   0  0  0  0  0  0  0  0  0  0  0  0
    6.0010    1.8888    0.0000 C   0  0  0  0  0  0  0  0  0  0  0  0
    6.0010    2.8888    0.0000 C   0  0  0  0  0  0  0  0  0  0  0  0
    8.5991    1.3888    0.0000 C   0  0  0  0  0  0  0  0  0  0  0  0
    6.8671    3.3888    0.0000 C   0  0  0  0  0  0  0  0  0  0  0  0
    5.0910    3.3956    0.0000 C   0  0  0  0  0  0  0  0  0  0  0  0
    6.8831    4.4303    0.0000 C   0  0  0  0  0  0  0  0  0  0  0  0
    9.4651    1.8888    0.0000 C   0  0  0  0  0  0  0  0  0  0  0  0
    8.5991    0.3888    0.0000 C   0  0  0  0  0  0  0  0  0  0  0  0
    5.0830    4.4372    0.0000 C   0  0  0  0  0  0  0  0  0  0  0  0
    5.9851    4.9580    0.0000 C   0  0  0  0  0  0  0  0  0  0  0  0
   10.3312    1.3888    0.0000 C   0  0  0  0  0  0  0  0  0  0  0  0
    9.4651   -0.1112    0.0000 C   0  0  0  0  0  0  0  0  0  0  0  0
   10.3312    0.3888    0.0000 C   0  0  0  0  0  0  0  0  0  0  0  0
    6.0010   -1.7312    0.0000 H   0  0  0  0  0  0  0  0  0  0  0  0
    4.5981   -1.9212    0.0000 H   0  0  0  0  0  0  0  0  0  0  0  0
    7.7731   -2.5867    0.0000 H   0  0  0  0  0  0  0  0  0  0  0  0
    7.4195   -2.3298    0.0000 H   0  0  0  0  0  0  0  0  0  0  0  0
    3.7320   -0.8012    0.0000 H   0  0  0  0  0  0  0  0  0  0  0  0
    6.0010    0.5088    0.0000 H   0  0  0  0  0  0  0  0  0  0  0  0
    4.2690    0.5088    0.0000 H   0  0  0  0  0  0  0  0  0  0  0  0
    5.7606   -4.2790    0.0000 H   0  0  0  0  0  0  0  0  0  0  0  0
    6.4319   -4.7667    0.0000 H   0  0  0  0  0  0  0  0  0  0  0  0
    7.5791   -5.7327    0.0000 H   0  0  0  0  0  0  0  0  0  0  0  0
    7.9776   -5.0424    0.0000 H   0  0  0  0  0  0  0  0  0  0  0  0
    3.8015    0.8637    0.0000 H   0  0  0  0  0  0  0  0  0  0  0  0
    3.0044    0.8637    0.0000 H   0  0  0  0  0  0  0  0  0  0  0  0
    8.4470   -5.0656    0.0000 H   0  0  0  0  0  0  0  0  0  0  0  0
    4.5981   -2.9212    0.0000 H   0  0  0  0  0  0  0  0  0  0  0  0
    8.7560   -2.2836    0.0000 H   0  0  0  0  0  0  0  0  0  0  0  0
    3.4030   -2.2312    0.0000 H   0  0  0  0  0  0  0  0  0  0  0  0
    6.5010   -6.2701    0.0000 H   0  0  0  0  0  0  0  0  0  0  0  0
    2.0000    0.1988    0.0000 H   0  0  0  0  0  0  0  0  0  0  0  0
    7.4236    4.7340    0.0000 H   0  0  0  0  0  0  0  0  0  0  0  0
    9.4651    2.5088    0.0000 H   0  0  0  0  0  0  0  0  0  0  0  0
    8.0622    0.0788    0.0000 H   0  0  0  0  0  0  0  0  0  0  0  0
    4.5449    4.7451    0.0000 H   0  0  0  0  0  0  0  0  0  0  0  0
   10.8681    1.6988    0.0000 H   0  0  0  0  0  0  0  0  0  0  0  0
    9.4651   -0.7312    0.0000 H   0  0  0  0  0  0  0  0  0  0  0  0
    3.6904    3.1894    0.0000 H   0  0  0  0  0  0  0  0  0  0  0  0
    5.4532    6.2701    0.0000 H   0  0  0  0  0  0  0  0  0  0  0  0
   11.1972   -0.7312    0.0000 H   0  0  0  0  0  0  0  0  0  0  0  0
  1 16  1  0  0  0  0
  1 20  1  0  0  0  0
  2 20  1  0  0  0  0
  2 24  1  0  0  0  0
  3 22  1  0  0  0  0
  3 23  1  0  0  0  0
  4 17  1  0  0  0  0
  4 55  1  0  0  0  0
  5 22  1  0  0  0  0
  5 27  1  0  0  0  0
  6 18  1  0  0  0  0
  6 56  1  0  0  0  0
  7 19  1  0  0  0  0
  7 57  1  0  0  0  0
  8 21  1  0  0  0  0
  8 58  1  0  0  0  0
  9 25  1  0  0  0  0
  9 59  1  0  0  0  0
 10 26  1  0  0  0  0
 10 60  1  0  0  0  0
 11 28  1  0  0  0  0
 11 32  1  0  0  0  0
 12 29  2  0  0  0  0
 13 33  1  0  0  0  0
 13 67  1  0  0  0  0
 14 38  1  0  0  0  0
 14 68  1  0  0  0  0
 15 41  1  0  0  0  0
 15 69  1  0  0  0  0
 16 18  1  0  0  0  0
 16 22  1  0  0  0  0
 16 42  1  0  0  0  0
 17 19  1  0  0  0  0
 17 24  1  0  0  0  0
 17 25  1  0  0  0  0
 18 21  1  0  0  0  0
 18 43  1  0  0  0  0
 19 20  1  0  0  0  0
 19 44  1  0  0  0  0
 20 45  1  0  0  0  0
 21 23  1  0  0  0  0
 21 46  1  0  0  0  0
 22 47  1  0  0  0  0
 23 26  1  0  0  0  0
 23 48  1  0  0  0  0
 24 49  1  0  0  0  0
 24 50  1  0  0  0  0
 25 51  1  0  0  0  0
 25 52  1  0  0  0  0
 26 53  1  0  0  0  0
 26 54  1  0  0  0  0
 27 28  2  0  0  0  0
 27 29  1  0  0  0  0
 28 31  1  0  0  0  0
 29 30  1  0  0  0  0
 30 32  1  0  0  0  0
 30 33  2  0  0  0  0
 31 35  2  0  0  0  0
 31 36  1  0  0  0  0
 32 34  2  0  0  0  0
 33 37  1  0  0  0  0
 34 38  1  0  0  0  0
 34 61  1  0  0  0  0
 35 39  1  0  0  0  0
 35 62  1  0  0  0  0
 36 40  2  0  0  0  0
 36 63  1  0  0  0  0
 37 38  2  0  0  0  0
 37 64  1  0  0  0  0
 39 41  2  0  0  0  0
 39 65  1  0  0  0  0
 40 41  1  0  0  0  0
 40 66  1  0  0  0  0
M  END
>  <PUBCHEM_COMPOUND_CID>
5465153

>  <PUBCHEM_COMPOUND_CANONICALIZED>
1

>  <PUBCHEM_CACTVS_COMPLEXITY>
969

>  <PUBCHEM_CACTVS_HBOND_ACCEPTOR>
15

>  <PUBCHEM_CACTVS_HBOND_DONOR>
9

>  <PUBCHEM_CACTVS_ROTATABLE_BOND>
7

>  <PUBCHEM_CACTVS_SUBSKEYS>
AAADceB4PAAAAAAAAAAAAAAAAAAAASAAAAA0YIEAAAAAAACBQAAAGgAACAAADFSwmAMwDoAABgCIAqBSAAICCAAkIAAIiAFGCMgdNzaGNR6ieWCl4BUPuQfI7KzOIAAACAAIAABAAAAQABAAAAAAAAAAAA==

>  <PUBCHEM_IUPAC_OPENEYE_NAME>
3-[3-[3,4-dihydroxy-4-(hydroxymethyl)tetrahydrofuran-2-yl]oxy-4,5-dihydroxy-6-(hydroxymethyl)tetrahydropyran-2-yl]oxy-5,7-dihydroxy-2-(4-hydroxyphenyl)chromen-4-one

>  <PUBCHEM_IUPAC_CAS_NAME>
3-[[3-[[3,4-dihydroxy-4-(hydroxymethyl)-2-oxolanyl]oxy]-4,5-dihydroxy-6-(hydroxymethyl)-2-oxanyl]oxy]-5,7-dihydroxy-2-(4-hydroxyphenyl)-1-benzopyran-4-one

>  <PUBCHEM_IUPAC_NAME>
3-[3-[3,4-dihydroxy-4-(hydroxymethyl)oxolan-2-yl]oxy-4,5-dihydroxy-6-(hydroxymethyl)oxan-2-yl]oxy-5,7-dihydroxy-2-(4-hydroxyphenyl)chromen-4-one

>  <PUBCHEM_IUPAC_SYSTEMATIC_NAME>
3-[6-(hydroxymethyl)-3-[4-(hydroxymethyl)-3,4-bis(oxidanyl)oxolan-2-yl]oxy-4,5-bis(oxidanyl)oxan-2-yl]oxy-2-(4-hydroxyphenyl)-5,7-bis(oxidanyl)chromen-4-one

>  <PUBCHEM_IUPAC_TRADITIONAL_NAME>
3-[3-(3,4-dihydroxy-4-methylol-tetrahydrofuran-2-yl)oxy-4,5-dihydroxy-6-methylol-tetrahydropyran-2-yl]oxy-5,7-dihydroxy-2-(4-hydroxyphenyl)chromone

>  <PUBCHEM_IUPAC_INCHI>
InChI=1S/C26H28O15/c27-7-15-17(32)19(34)22(41-25-23(35)26(36,8-28)9-37-25)24(39-15)40-21-18(33)16-13(31)5-12(30)6-14(16)38-20(21)10-1-3-11(29)4-2-10/h1-6,15,17,19,22-25,27-32,34-36H,7-9H2

>  <PUBCHEM_IUPAC_INCHIKEY>
MNBRHJWOHPGQIW-UHFFFAOYSA-N

>  <PUBCHEM_XLOGP3_AA>
-0.5

>  <PUBCHEM_EXACT_MASS>
580.143

>  <PUBCHEM_MOLECULAR_FORMULA>
C26H28O15

>  <PUBCHEM_MOLECULAR_WEIGHT>
580.495

>  <PUBCHEM_OPENEYE_CAN_SMILES>
C1C(C(C(O1)OC2C(C(C(OC2OC3=C(OC4=CC(=CC(=C4C3=O)O)O)C5=CC=C(C=C5)O)CO)O)O)O)(CO)O

>  <PUBCHEM_OPENEYE_ISO_SMILES>
C1C(C(C(O1)OC2C(C(C(OC2OC3=C(OC4=CC(=CC(=C4C3=O)O)O)C5=CC=C(C=C5)O)CO)O)O)O)(CO)O

>  <PUBCHEM_CACTVS_TPSA>
245

>  <PUBCHEM_MONOISOTOPIC_WEIGHT>
580.143

>  <PUBCHEM_TOTAL_CHARGE>
0

>  <PUBCHEM_HEAVY_ATOM_COUNT>
41

>  <PUBCHEM_ATOM_DEF_STEREO_COUNT>
0

>  <PUBCHEM_ATOM_UDEF_STEREO_COUNT>
8

>  <PUBCHEM_BOND_DEF_STEREO_COUNT>
0

>  <PUBCHEM_BOND_UDEF_STEREO_COUNT>
0

>  <PUBCHEM_ISOTOPIC_ATOM_COUNT>
0

>  <PUBCHEM_COMPONENT_COUNT>
1

>  <PUBCHEM_CACTVS_TAUTO_COUNT>
57

>  <PUBCHEM_COORDINATE_TYPE>
1
5
255

>  <PUBCHEM_BONDANNOTATIONS>
16  1  3
20  1  3
11  28  8
11  32  8
23  26  3
27  28  8
27  29  8
29  30  8
30  32  8
30  33  8
31  35  8
31  36  8
32  34  8
33  37  8
34  38  8
35  39  8
36  40  8
37  38  8
39  41  8
17  4  3
40  41  8
22  5  3
18  6  3
19  7  3
21  8  3

$$$$
