5465152
 OpenBabel06101807152D

 89 94  0  0  1  0  0  0  0  0999 V2000
   10.3312   -1.6112    0.0000 O   0  0  0  0  0  0  0  0  0  0  0  0
    8.5991    0.3888    0.0000 O   0  0  0  0  0  0  0  0  0  0  0  0
    9.5222   -3.1990    0.0000 O   0  0  0  0  0  0  0  0  0  0  0  0
    6.0010   -0.1112    0.0000 O   0  0  0  0  0  0  0  0  0  0  0  0
    8.5991   -2.6112    0.0000 O   0  0  0  0  0  0  0  0  0  0  0  0
   10.3312    0.3888    0.0000 O   0  0  0  0  0  0  0  0  0  0  0  0
    6.8671   -1.6112    0.0000 O   0  0  0  0  0  0  0  0  0  0  0  0
    5.1350    1.3888    0.0000 O   0  0  0  0  0  0  0  0  0  0  0  0
   11.7822   -4.4591    0.0000 O   0  0  0  0  0  0  0  0  0  0  0  0
   12.0912   -2.8900    0.0000 O   0  0  0  0  0  0  0  0  0  0  0  0
    4.2690   -1.1112    0.0000 O   0  0  0  0  0  0  0  0  0  0  0  0
   11.6972   -5.6501    0.0000 O   0  0  0  0  0  0  0  0  0  0  0  0
    2.5369   -0.1112    0.0000 O   0  0  0  0  0  0  0  0  0  0  0  0
    2.5369    1.8888    0.0000 O   0  0  0  0  0  0  0  0  0  0  0  0
   11.1972    2.8888    0.0000 O   0  0  0  0  0  0  0  0  0  0  0  0
    8.5991    1.3888    0.0000 O   0  0  0  0  0  0  0  0  0  0  0  0
    7.6950    2.8856    0.0000 O   0  0  0  0  0  0  0  0  0  0  0  0
    9.4530    5.9580    0.0000 O   0  0  0  0  0  0  0  0  0  0  0  0
   14.6613   -0.1112    0.0000 O   0  0  0  0  0  0  0  0  0  0  0  0
    9.4651   -1.1112    0.0000 C   0  0  3  0  0  0  0  0  0  0  0  0
    8.5991   -1.6112    0.0000 C   0  0  3  0  0  0  0  0  0  0  0  0
    7.7331   -1.1112    0.0000 C   0  0  3  0  0  0  0  0  0  0  0  0
    7.7331   -0.1112    0.0000 C   0  0  3  0  0  0  0  0  0  0  0  0
   10.8312   -4.1501    0.0000 C   0  0  3  0  0  0  0  0  0  0  0  0
   10.3312   -2.6112    0.0000 C   0  0  3  0  0  0  0  0  0  0  0  0
   11.1402   -3.1990    0.0000 C   0  0  3  0  0  0  0  0  0  0  0  0
    9.4651   -0.1112    0.0000 C   0  0  3  0  0  0  0  0  0  0  0  0
    9.8312   -4.1501    0.0000 C   0  0  0  0  0  0  0  0  0  0  0  0
    6.8671    0.3888    0.0000 C   0  0  0  0  0  0  0  0  0  0  0  0
    5.1350    0.3888    0.0000 C   0  0  3  0  0  0  0  0  0  0  0  0
    4.2690   -0.1112    0.0000 C   0  0  3  0  0  0  0  0  0  0  0  0
   10.8312   -5.1501    0.0000 C   0  0  0  0  0  0  0  0  0  0  0  0
    3.4030    0.3888    0.0000 C   0  0  3  0  0  0  0  0  0  0  0  0
    3.4030    1.3888    0.0000 C   0  0  3  0  0  0  0  0  0  0  0  0
    4.2690    1.8888    0.0000 C   0  0  3  0  0  0  0  0  0  0  0  0
    4.2690    2.8888    0.0000 C   0  0  0  0  0  0  0  0  0  0  0  0
   10.3312    1.3888    0.0000 C   0  0  0  0  0  0  0  0  0  0  0  0
   11.1972    1.8888    0.0000 C   0  0  0  0  0  0  0  0  0  0  0  0
    9.4651    1.8888    0.0000 C   0  0  0  0  0  0  0  0  0  0  0  0
    9.4651    2.8888    0.0000 C   0  0  0  0  0  0  0  0  0  0  0  0
   12.0632    1.3888    0.0000 C   0  0  0  0  0  0  0  0  0  0  0  0
   10.3312    3.3888    0.0000 C   0  0  0  0  0  0  0  0  0  0  0  0
    8.5551    3.3956    0.0000 C   0  0  0  0  0  0  0  0  0  0  0  0
   10.3472    4.4303    0.0000 C   0  0  0  0  0  0  0  0  0  0  0  0
   12.9292    1.8888    0.0000 C   0  0  0  0  0  0  0  0  0  0  0  0
   12.0632    0.3888    0.0000 C   0  0  0  0  0  0  0  0  0  0  0  0
    8.5471    4.4372    0.0000 C   0  0  0  0  0  0  0  0  0  0  0  0
    9.4492    4.9580    0.0000 C   0  0  0  0  0  0  0  0  0  0  0  0
   13.7953    1.3888    0.0000 C   0  0  0  0  0  0  0  0  0  0  0  0
   12.9292   -0.1112    0.0000 C   0  0  0  0  0  0  0  0  0  0  0  0
   13.7953    0.3888    0.0000 C   0  0  0  0  0  0  0  0  0  0  0  0
   10.0021   -0.8012    0.0000 H   0  0  0  0  0  0  0  0  0  0  0  0
    8.0622   -1.9212    0.0000 H   0  0  0  0  0  0  0  0  0  0  0  0
    7.1962   -0.8012    0.0000 H   0  0  0  0  0  0  0  0  0  0  0  0
    7.7331    0.5088    0.0000 H   0  0  0  0  0  0  0  0  0  0  0  0
   10.8836   -2.3298    0.0000 H   0  0  0  0  0  0  0  0  0  0  0  0
   11.5786   -3.6374    0.0000 H   0  0  0  0  0  0  0  0  0  0  0  0
    9.4651    0.5088    0.0000 H   0  0  0  0  0  0  0  0  0  0  0  0
    9.2247   -4.2790    0.0000 H   0  0  0  0  0  0  0  0  0  0  0  0
    9.8960   -4.7667    0.0000 H   0  0  0  0  0  0  0  0  0  0  0  0
    7.2656    0.8637    0.0000 H   0  0  0  0  0  0  0  0  0  0  0  0
    6.4685    0.8637    0.0000 H   0  0  0  0  0  0  0  0  0  0  0  0
    5.1350   -0.2312    0.0000 H   0  0  0  0  0  0  0  0  0  0  0  0
    3.7320   -0.4212    0.0000 H   0  0  0  0  0  0  0  0  0  0  0  0
   10.2206   -5.0424    0.0000 H   0  0  0  0  0  0  0  0  0  0  0  0
   10.6191   -5.7327    0.0000 H   0  0  0  0  0  0  0  0  0  0  0  0
    2.8660    0.6988    0.0000 H   0  0  0  0  0  0  0  0  0  0  0  0
    3.4030    2.0088    0.0000 H   0  0  0  0  0  0  0  0  0  0  0  0
    4.8059    2.1988    0.0000 H   0  0  0  0  0  0  0  0  0  0  0  0
    8.0622   -2.9212    0.0000 H   0  0  0  0  0  0  0  0  0  0  0  0
    6.8671   -2.2312    0.0000 H   0  0  0  0  0  0  0  0  0  0  0  0
   12.2430   -4.0442    0.0000 H   0  0  0  0  0  0  0  0  0  0  0  0
   12.2201   -2.2836    0.0000 H   0  0  0  0  0  0  0  0  0  0  0  0
    4.8890    2.8888    0.0000 H   0  0  0  0  0  0  0  0  0  0  0  0
    4.2690    3.5088    0.0000 H   0  0  0  0  0  0  0  0  0  0  0  0
    3.6490    2.8888    0.0000 H   0  0  0  0  0  0  0  0  0  0  0  0
    3.7320   -1.4212    0.0000 H   0  0  0  0  0  0  0  0  0  0  0  0
   11.6972   -6.2701    0.0000 H   0  0  0  0  0  0  0  0  0  0  0  0
    2.0000    0.1988    0.0000 H   0  0  0  0  0  0  0  0  0  0  0  0
    2.5369    2.5088    0.0000 H   0  0  0  0  0  0  0  0  0  0  0  0
   10.8877    4.7340    0.0000 H   0  0  0  0  0  0  0  0  0  0  0  0
   12.9292    2.5088    0.0000 H   0  0  0  0  0  0  0  0  0  0  0  0
   11.5263    0.0788    0.0000 H   0  0  0  0  0  0  0  0  0  0  0  0
    8.0090    4.7451    0.0000 H   0  0  0  0  0  0  0  0  0  0  0  0
   14.3322    1.6988    0.0000 H   0  0  0  0  0  0  0  0  0  0  0  0
   12.9292   -0.7312    0.0000 H   0  0  0  0  0  0  0  0  0  0  0  0
    7.1545    3.1894    0.0000 H   0  0  0  0  0  0  0  0  0  0  0  0
    8.9173    6.2701    0.0000 H   0  0  0  0  0  0  0  0  0  0  0  0
   14.6613   -0.7312    0.0000 H   0  0  0  0  0  0  0  0  0  0  0  0
  1 20  1  0  0  0  0
  1 25  1  0  0  0  0
  2 23  1  0  0  0  0
  2 27  1  0  0  0  0
  3 25  1  0  0  0  0
  3 28  1  0  0  0  0
  4 29  1  0  0  0  0
  4 30  1  0  0  0  0
  5 21  1  0  0  0  0
  5 70  1  0  0  0  0
  6 27  1  0  0  0  0
  6 37  1  0  0  0  0
  7 22  1  0  0  0  0
  7 71  1  0  0  0  0
  8 30  1  0  0  0  0
  8 35  1  0  0  0  0
  9 24  1  0  0  0  0
  9 72  1  0  0  0  0
 10 26  1  0  0  0  0
 10 73  1  0  0  0  0
 11 31  1  0  0  0  0
 11 77  1  0  0  0  0
 12 32  1  0  0  0  0
 12 78  1  0  0  0  0
 13 33  1  0  0  0  0
 13 79  1  0  0  0  0
 14 34  1  0  0  0  0
 14 80  1  0  0  0  0
 15 38  1  0  0  0  0
 15 42  1  0  0  0  0
 16 39  2  0  0  0  0
 17 43  1  0  0  0  0
 17 87  1  0  0  0  0
 18 48  1  0  0  0  0
 18 88  1  0  0  0  0
 19 51  1  0  0  0  0
 19 89  1  0  0  0  0
 20 21  1  0  0  0  0
 20 27  1  0  0  0  0
 20 52  1  0  0  0  0
 21 22  1  0  0  0  0
 21 53  1  0  0  0  0
 22 23  1  0  0  0  0
 22 54  1  0  0  0  0
 23 29  1  0  0  0  0
 23 55  1  0  0  0  0
 24 26  1  0  0  0  0
 24 28  1  0  0  0  0
 24 32  1  0  0  0  0
 25 26  1  0  0  0  0
 25 56  1  0  0  0  0
 26 57  1  0  0  0  0
 27 58  1  0  0  0  0
 28 59  1  0  0  0  0
 28 60  1  0  0  0  0
 29 61  1  0  0  0  0
 29 62  1  0  0  0  0
 30 31  1  0  0  0  0
 30 63  1  0  0  0  0
 31 33  1  0  0  0  0
 31 64  1  0  0  0  0
 32 65  1  0  0  0  0
 32 66  1  0  0  0  0
 33 34  1  0  0  0  0
 33 67  1  0  0  0  0
 34 35  1  0  0  0  0
 34 68  1  0  0  0  0
 35 36  1  0  0  0  0
 35 69  1  0  0  0  0
 36 74  1  0  0  0  0
 36 75  1  0  0  0  0
 36 76  1  0  0  0  0
 37 38  2  0  0  0  0
 37 39  1  0  0  0  0
 38 41  1  0  0  0  0
 39 40  1  0  0  0  0
 40 42  1  0  0  0  0
 40 43  2  0  0  0  0
 41 45  2  0  0  0  0
 41 46  1  0  0  0  0
 42 44  2  0  0  0  0
 43 47  1  0  0  0  0
 44 48  1  0  0  0  0
 44 81  1  0  0  0  0
 45 49  1  0  0  0  0
 45 82  1  0  0  0  0
 46 50  2  0  0  0  0
 46 83  1  0  0  0  0
 47 48  2  0  0  0  0
 47 84  1  0  0  0  0
 49 51  2  0  0  0  0
 49 85  1  0  0  0  0
 50 51  1  0  0  0  0
 50 86  1  0  0  0  0
M  END
>  <PUBCHEM_COMPOUND_CID>
5465152

>  <PUBCHEM_COMPOUND_CANONICALIZED>
1

>  <PUBCHEM_CACTVS_COMPLEXITY>
1240

>  <PUBCHEM_CACTVS_HBOND_ACCEPTOR>
19

>  <PUBCHEM_CACTVS_HBOND_DONOR>
11

>  <PUBCHEM_CACTVS_ROTATABLE_BOND>
9

>  <PUBCHEM_CACTVS_SUBSKEYS>
AAADcfB8PgAAAAAAAAAAAAAAAAAAASAAAAA0aIECAAAAAACBQAAAGgAACAAADFSwmAMyDoAABgCIAqBSAAICCAAkIAAIiAFGCMgdNzaGNR6ieWCl4BUPuQfI7KzOIAAACAAIAABAAAAQABAAAAAAAAAAAA==

>  <PUBCHEM_IUPAC_OPENEYE_NAME>
3-[3-[3,4-dihydroxy-4-(hydroxymethyl)tetrahydrofuran-2-yl]oxy-4,5-dihydroxy-6-[(3,4,5-trihydroxy-6-methyl-tetrahydropyran-2-yl)oxymethyl]tetrahydropyran-2-yl]oxy-5,7-dihydroxy-2-(4-hydroxyphenyl)chromen-4-one

>  <PUBCHEM_IUPAC_CAS_NAME>
3-[[3-[[3,4-dihydroxy-4-(hydroxymethyl)-2-oxolanyl]oxy]-4,5-dihydroxy-6-[(3,4,5-trihydroxy-6-methyl-2-oxanyl)oxymethyl]-2-oxanyl]oxy]-5,7-dihydroxy-2-(4-hydroxyphenyl)-1-benzopyran-4-one

>  <PUBCHEM_IUPAC_NAME>
3-[3-[3,4-dihydroxy-4-(hydroxymethyl)oxolan-2-yl]oxy-4,5-dihydroxy-6-[(3,4,5-trihydroxy-6-methyloxan-2-yl)oxymethyl]oxan-2-yl]oxy-5,7-dihydroxy-2-(4-hydroxyphenyl)chromen-4-one

>  <PUBCHEM_IUPAC_SYSTEMATIC_NAME>
3-[3-[4-(hydroxymethyl)-3,4-bis(oxidanyl)oxolan-2-yl]oxy-6-[[6-methyl-3,4,5-tris(oxidanyl)oxan-2-yl]oxymethyl]-4,5-bis(oxidanyl)oxan-2-yl]oxy-2-(4-hydroxyphenyl)-5,7-bis(oxidanyl)chromen-4-one

>  <PUBCHEM_IUPAC_TRADITIONAL_NAME>
3-[3-(3,4-dihydroxy-4-methylol-tetrahydrofuran-2-yl)oxy-4,5-dihydroxy-6-[(3,4,5-trihydroxy-6-methyl-tetrahydropyran-2-yl)oxymethyl]tetrahydropyran-2-yl]oxy-5,7-dihydroxy-2-(4-hydroxyphenyl)chromone

>  <PUBCHEM_IUPAC_INCHI>
InChI=1S/C32H38O19/c1-11-19(37)22(40)24(42)29(47-11)45-8-17-20(38)23(41)27(51-31-28(43)32(44,9-33)10-46-31)30(49-17)50-26-21(39)18-15(36)6-14(35)7-16(18)48-25(26)12-2-4-13(34)5-3-12/h2-7,11,17,19-20,22-24,27-31,33-38,40-44H,8-10H2,1H3

>  <PUBCHEM_IUPAC_INCHIKEY>
PXDYLXHBUIPSMK-UHFFFAOYSA-N

>  <PUBCHEM_XLOGP3_AA>
-2.2

>  <PUBCHEM_EXACT_MASS>
726.201

>  <PUBCHEM_MOLECULAR_FORMULA>
C32H38O19

>  <PUBCHEM_MOLECULAR_WEIGHT>
726.637

>  <PUBCHEM_OPENEYE_CAN_SMILES>
CC1C(C(C(C(O1)OCC2C(C(C(C(O2)OC3=C(OC4=CC(=CC(=C4C3=O)O)O)C5=CC=C(C=C5)O)OC6C(C(CO6)(CO)O)O)O)O)O)O)O

>  <PUBCHEM_OPENEYE_ISO_SMILES>
CC1C(C(C(C(O1)OCC2C(C(C(C(O2)OC3=C(OC4=CC(=CC(=C4C3=O)O)O)C5=CC=C(C=C5)O)OC6C(C(CO6)(CO)O)O)O)O)O)O)O

>  <PUBCHEM_CACTVS_TPSA>
304

>  <PUBCHEM_MONOISOTOPIC_WEIGHT>
726.201

>  <PUBCHEM_TOTAL_CHARGE>
0

>  <PUBCHEM_HEAVY_ATOM_COUNT>
51

>  <PUBCHEM_ATOM_DEF_STEREO_COUNT>
0

>  <PUBCHEM_ATOM_UDEF_STEREO_COUNT>
13

>  <PUBCHEM_BOND_DEF_STEREO_COUNT>
0

>  <PUBCHEM_BOND_UDEF_STEREO_COUNT>
0

>  <PUBCHEM_ISOTOPIC_ATOM_COUNT>
0

>  <PUBCHEM_COMPONENT_COUNT>
1

>  <PUBCHEM_CACTVS_TAUTO_COUNT>
57

>  <PUBCHEM_COORDINATE_TYPE>
1
5
255

>  <PUBCHEM_BONDANNOTATIONS>
20  1  3
25  1  3
26  10  3
31  11  3
33  13  3
34  14  3
15  38  8
15  42  8
23  29  3
35  36  3
37  38  8
37  39  8
39  40  8
30  4  3
40  42  8
40  43  8
41  45  8
41  46  8
42  44  8
43  47  8
44  48  8
45  49  8
46  50  8
47  48  8
49  51  8
21  5  3
50  51  8
27  6  3
22  7  3
24  9  3

$$$$
