5466136
 OpenBabel06101807152D

 43 46  0  0  0  0  0  0  0  0999 V2000
    6.3981   -0.9254    0.0000 O   0  0  0  0  0  0  0  0  0  0  0  0
   10.8084   -0.6207    0.0000 O   0  0  0  0  0  0  0  0  0  0  0  0
   10.8084   -2.2301    0.0000 O   0  0  0  0  0  0  0  0  0  0  0  0
    8.1301    1.0746    0.0000 O   0  0  0  0  0  0  0  0  0  0  0  0
    2.8680    1.0988    0.0000 O   0  0  0  0  0  0  0  0  0  0  0  0
    2.8680   -0.9495    0.0000 O   0  0  0  0  0  0  0  0  0  0  0  0
    4.6497    2.1092    0.0000 O   0  0  0  0  0  0  0  0  0  0  0  0
    6.3981    2.0746    0.0000 O   0  0  0  0  0  0  0  0  0  0  0  0
    5.5320    0.5746    0.0000 C   0  0  0  0  0  0  0  0  0  0  0  0
    7.2641   -0.4254    0.0000 C   0  0  0  0  0  0  0  0  0  0  0  0
    5.5320   -0.4254    0.0000 C   0  0  0  0  0  0  0  0  0  0  0  0
    8.1301   -0.9254    0.0000 C   0  0  0  0  0  0  0  0  0  0  0  0
    7.2641    0.5746    0.0000 C   0  0  0  0  0  0  0  0  0  0  0  0
    6.3981    1.0746    0.0000 C   0  0  0  0  0  0  0  0  0  0  0  0
    4.6381    1.1093    0.0000 C   0  0  0  0  0  0  0  0  0  0  0  0
    8.9962   -0.4254    0.0000 C   0  0  0  0  0  0  0  0  0  0  0  0
    9.8622   -0.9254    0.0000 C   0  0  0  0  0  0  0  0  0  0  0  0
    4.6381   -0.9601    0.0000 C   0  0  0  0  0  0  0  0  0  0  0  0
    9.8622   -1.9254    0.0000 C   0  0  0  0  0  0  0  0  0  0  0  0
    3.7320    0.5954    0.0000 C   0  0  0  0  0  0  0  0  0  0  0  0
    8.1301   -1.9254    0.0000 C   0  0  0  0  0  0  0  0  0  0  0  0
    3.7320   -0.4462    0.0000 C   0  0  0  0  0  0  0  0  0  0  0  0
    8.9962   -2.4254    0.0000 C   0  0  0  0  0  0  0  0  0  0  0  0
   11.3920   -1.4254    0.0000 C   0  0  0  0  0  0  0  0  0  0  0  0
    8.1301    2.0746    0.0000 C   0  0  0  0  0  0  0  0  0  0  0  0
    2.0000    0.6021    0.0000 C   0  0  0  0  0  0  0  0  0  0  0  0
    2.8718   -1.9495    0.0000 C   0  0  0  0  0  0  0  0  0  0  0  0
    8.9962    0.1946    0.0000 H   0  0  0  0  0  0  0  0  0  0  0  0
    4.6453   -1.5800    0.0000 H   0  0  0  0  0  0  0  0  0  0  0  0
    7.5932   -2.2354    0.0000 H   0  0  0  0  0  0  0  0  0  0  0  0
    8.9962   -3.0454    0.0000 H   0  0  0  0  0  0  0  0  0  0  0  0
   11.8529   -1.8401    0.0000 H   0  0  0  0  0  0  0  0  0  0  0  0
   11.8529   -1.0107    0.0000 H   0  0  0  0  0  0  0  0  0  0  0  0
    4.1164    2.4254    0.0000 H   0  0  0  0  0  0  0  0  0  0  0  0
    8.7501    2.0746    0.0000 H   0  0  0  0  0  0  0  0  0  0  0  0
    8.1301    2.6946    0.0000 H   0  0  0  0  0  0  0  0  0  0  0  0
    7.5101    2.0746    0.0000 H   0  0  0  0  0  0  0  0  0  0  0  0
    1.6921    1.1402    0.0000 H   0  0  0  0  0  0  0  0  0  0  0  0
    1.4619    0.2942    0.0000 H   0  0  0  0  0  0  0  0  0  0  0  0
    2.3079    0.0640    0.0000 H   0  0  0  0  0  0  0  0  0  0  0  0
    2.2518   -1.9519    0.0000 H   0  0  0  0  0  0  0  0  0  0  0  0
    2.8742   -2.5695    0.0000 H   0  0  0  0  0  0  0  0  0  0  0  0
    3.4918   -1.9471    0.0000 H   0  0  0  0  0  0  0  0  0  0  0  0
  1 10  1  0  0  0  0
  1 11  1  0  0  0  0
  2 17  1  0  0  0  0
  2 24  1  0  0  0  0
  3 19  1  0  0  0  0
  3 24  1  0  0  0  0
  4 13  1  0  0  0  0
  4 25  1  0  0  0  0
  5 20  1  0  0  0  0
  5 26  1  0  0  0  0
  6 22  1  0  0  0  0
  6 27  1  0  0  0  0
  7 15  1  0  0  0  0
  7 34  1  0  0  0  0
  8 14  2  0  0  0  0
  9 11  1  0  0  0  0
  9 14  1  0  0  0  0
  9 15  2  0  0  0  0
 10 12  1  0  0  0  0
 10 13  2  0  0  0  0
 11 18  2  0  0  0  0
 12 16  2  0  0  0  0
 12 21  1  0  0  0  0
 13 14  1  0  0  0  0
 15 20  1  0  0  0  0
 16 17  1  0  0  0  0
 16 28  1  0  0  0  0
 17 19  2  0  0  0  0
 18 22  1  0  0  0  0
 18 29  1  0  0  0  0
 19 23  1  0  0  0  0
 20 22  2  0  0  0  0
 21 23  2  0  0  0  0
 21 30  1  0  0  0  0
 23 31  1  0  0  0  0
 24 32  1  0  0  0  0
 24 33  1  0  0  0  0
 25 35  1  0  0  0  0
 25 36  1  0  0  0  0
 25 37  1  0  0  0  0
 26 38  1  0  0  0  0
 26 39  1  0  0  0  0
 26 40  1  0  0  0  0
 27 41  1  0  0  0  0
 27 42  1  0  0  0  0
 27 43  1  0  0  0  0
M  END
>  <PUBCHEM_COMPOUND_CID>
5466136

>  <PUBCHEM_COMPOUND_CANONICALIZED>
1

>  <PUBCHEM_CACTVS_COMPLEXITY>
605

>  <PUBCHEM_CACTVS_HBOND_ACCEPTOR>
8

>  <PUBCHEM_CACTVS_HBOND_DONOR>
1

>  <PUBCHEM_CACTVS_ROTATABLE_BOND>
4

>  <PUBCHEM_CACTVS_SUBSKEYS>
AAADceB4PAAAAAAAAAAAAAAAAAAAASAAAAAwYIAAAAAAAEiBQAAAGgAACAAADASAmAMyDoAABgCIAqBSAAICCAAkIAAIiAFGiMgdJzaGNR6ieWOl4BUPuQfK7LzOIQABCAAIQABCAAIQABCAAAAAAAAAAA==

>  <PUBCHEM_IUPAC_OPENEYE_NAME>
2-(1,3-benzodioxol-5-yl)-5-hydroxy-3,6,7-trimethoxy-chromen-4-one

>  <PUBCHEM_IUPAC_CAS_NAME>
2-(1,3-benzodioxol-5-yl)-5-hydroxy-3,6,7-trimethoxy-1-benzopyran-4-one

>  <PUBCHEM_IUPAC_NAME>
2-(1,3-benzodioxol-5-yl)-5-hydroxy-3,6,7-trimethoxychromen-4-one

>  <PUBCHEM_IUPAC_SYSTEMATIC_NAME>
2-(1,3-benzodioxol-5-yl)-3,6,7-trimethoxy-5-oxidanyl-chromen-4-one

>  <PUBCHEM_IUPAC_TRADITIONAL_NAME>
2-(1,3-benzodioxol-5-yl)-5-hydroxy-3,6,7-trimethoxy-chromone

>  <PUBCHEM_IUPAC_INCHI>
InChI=1S/C19H16O8/c1-22-13-7-12-14(15(20)18(13)23-2)16(21)19(24-3)17(27-12)9-4-5-10-11(6-9)26-8-25-10/h4-7,20H,8H2,1-3H3

>  <PUBCHEM_IUPAC_INCHIKEY>
QRTSJZTUEHLBPF-UHFFFAOYSA-N

>  <PUBCHEM_XLOGP3_AA>
3.3

>  <PUBCHEM_EXACT_MASS>
372.085

>  <PUBCHEM_MOLECULAR_FORMULA>
C19H16O8

>  <PUBCHEM_MOLECULAR_WEIGHT>
372.329

>  <PUBCHEM_OPENEYE_CAN_SMILES>
COC1=C(C(=C2C(=C1)OC(=C(C2=O)OC)C3=CC4=C(C=C3)OCO4)O)OC

>  <PUBCHEM_OPENEYE_ISO_SMILES>
COC1=C(C(=C2C(=C1)OC(=C(C2=O)OC)C3=CC4=C(C=C3)OCO4)O)OC

>  <PUBCHEM_CACTVS_TPSA>
92.7

>  <PUBCHEM_MONOISOTOPIC_WEIGHT>
372.085

>  <PUBCHEM_TOTAL_CHARGE>
0

>  <PUBCHEM_HEAVY_ATOM_COUNT>
27

>  <PUBCHEM_ATOM_DEF_STEREO_COUNT>
0

>  <PUBCHEM_ATOM_UDEF_STEREO_COUNT>
0

>  <PUBCHEM_BOND_DEF_STEREO_COUNT>
0

>  <PUBCHEM_BOND_UDEF_STEREO_COUNT>
0

>  <PUBCHEM_ISOTOPIC_ATOM_COUNT>
0

>  <PUBCHEM_COMPONENT_COUNT>
1

>  <PUBCHEM_CACTVS_TAUTO_COUNT>
5

>  <PUBCHEM_COORDINATE_TYPE>
1
5
255

>  <PUBCHEM_BONDANNOTATIONS>
1  10  8
1  11  8
10  13  8
11  18  8
12  16  8
12  21  8
13  14  8
15  20  8
16  17  8
17  19  8
18  22  8
19  23  8
20  22  8
21  23  8
9  11  8
9  14  8
9  15  8

$$$$
