54714262
 OpenBabel06101807152D

 30 33  0  0  0  0  0  0  0  0999 V2000
    2.8068   -1.5700    0.0000 O   0  0  0  0  0  0  0  0  0  0  0  0
    4.4638   -2.7739    0.0000 O   0  0  0  0  0  0  0  0  0  0  0  0
    3.0366    0.4654    0.0000 O   0  0  0  0  0  0  0  0  0  0  0  0
    4.7967    0.2772    0.0000 N   0  0  0  0  0  0  0  0  0  0  0  0
    6.4165   -1.7937    0.0000 N   0  0  0  0  0  0  0  0  0  0  0  0
    5.6057   -0.3106    0.0000 C   0  0  0  0  0  0  0  0  0  0  0  0
    6.4147    0.2772    0.0000 C   0  0  0  0  0  0  0  0  0  0  0  0
    5.1057    1.2283    0.0000 C   0  0  0  0  0  0  0  0  0  0  0  0
    6.1057    1.2283    0.0000 C   0  0  0  0  0  0  0  0  0  0  0  0
    5.5128   -1.3480    0.0000 C   0  0  0  0  0  0  0  0  0  0  0  0
    3.8387   -0.1317    0.0000 C   0  0  0  0  0  0  0  0  0  0  0  0
    4.5646   -1.7790    0.0000 C   0  0  0  0  0  0  0  0  0  0  0  0
    7.2710   -0.2537    0.0000 C   0  0  0  0  0  0  0  0  0  0  0  0
    3.7218   -1.1668    0.0000 C   0  0  0  0  0  0  0  0  0  0  0  0
    4.5711    2.1222    0.0000 C   0  0  0  0  0  0  0  0  0  0  0  0
    6.6404    2.1222    0.0000 C   0  0  0  0  0  0  0  0  0  0  0  0
    7.2719   -1.2613    0.0000 C   0  0  0  0  0  0  0  0  0  0  0  0
    5.0849    3.0283    0.0000 C   0  0  0  0  0  0  0  0  0  0  0  0
    6.1265    3.0283    0.0000 C   0  0  0  0  0  0  0  0  0  0  0  0
    2.0000   -0.9791    0.0000 C   0  0  0  0  0  0  0  0  0  0  0  0
    7.8127    0.0480    0.0000 H   0  0  0  0  0  0  0  0  0  0  0  0
    3.9511    2.1151    0.0000 H   0  0  0  0  0  0  0  0  0  0  0  0
    7.2604    2.1151    0.0000 H   0  0  0  0  0  0  0  0  0  0  0  0
    7.8140   -1.5621    0.0000 H   0  0  0  0  0  0  0  0  0  0  0  0
    4.7728    3.5640    0.0000 H   0  0  0  0  0  0  0  0  0  0  0  0
    6.4386    3.5640    0.0000 H   0  0  0  0  0  0  0  0  0  0  0  0
    3.8984   -3.0283    0.0000 H   0  0  0  0  0  0  0  0  0  0  0  0
    2.3664   -0.4789    0.0000 H   0  0  0  0  0  0  0  0  0  0  0  0
    1.4998   -0.6127    0.0000 H   0  0  0  0  0  0  0  0  0  0  0  0
    1.6336   -1.4793    0.0000 H   0  0  0  0  0  0  0  0  0  0  0  0
  1 14  1  0  0  0  0
  1 20  1  0  0  0  0
  2 12  1  0  0  0  0
  2 27  1  0  0  0  0
  3 11  2  0  0  0  0
  4  6  1  0  0  0  0
  4  8  1  0  0  0  0
  4 11  1  0  0  0  0
  5 10  2  0  0  0  0
  5 17  1  0  0  0  0
  6  7  2  0  0  0  0
  6 10  1  0  0  0  0
  7  9  1  0  0  0  0
  7 13  1  0  0  0  0
  8  9  1  0  0  0  0
  8 15  2  0  0  0  0
  9 16  2  0  0  0  0
 10 12  1  0  0  0  0
 11 14  1  0  0  0  0
 12 14  2  0  0  0  0
 13 17  2  0  0  0  0
 13 21  1  0  0  0  0
 15 18  1  0  0  0  0
 15 22  1  0  0  0  0
 16 19  1  0  0  0  0
 16 23  1  0  0  0  0
 17 24  1  0  0  0  0
 18 19  2  0  0  0  0
 18 25  1  0  0  0  0
 19 26  1  0  0  0  0
 20 28  1  0  0  0  0
 20 29  1  0  0  0  0
 20 30  1  0  0  0  0
M  END
>  <PUBCHEM_COMPOUND_CID>
54714262

>  <PUBCHEM_COMPOUND_CANONICALIZED>
1

>  <PUBCHEM_CACTVS_COMPLEXITY>
476

>  <PUBCHEM_CACTVS_HBOND_ACCEPTOR>
4

>  <PUBCHEM_CACTVS_HBOND_DONOR>
1

>  <PUBCHEM_CACTVS_ROTATABLE_BOND>
1

>  <PUBCHEM_CACTVS_SUBSKEYS>
AAADccBzMAAAAAAAAAAAAAAAAAAAAWAAAAA8QIAAAAAAAFiB/gAAHgAACAAADAzBngY+wPMMFgCoAzV3VAaCiCQxMiAI2CB4fNgKZuLAkZWVcAhmxAHY2QeQwPAOgAAAAAACAAAAAAAAAAQAAAAAAAAAAA==

>  <PUBCHEM_IUPAC_INCHI>
InChI=1S/C15H10N2O3/c1-20-14-13(18)11-12-9(6-7-16-11)8-4-2-3-5-10(8)17(12)15(14)19/h2-7,18H,1H3

>  <PUBCHEM_IUPAC_INCHIKEY>
HJFNTSGIQCFHGP-UHFFFAOYSA-N

>  <PUBCHEM_XLOGP3_AA>
2

>  <PUBCHEM_EXACT_MASS>
266.069

>  <PUBCHEM_MOLECULAR_FORMULA>
C15H10N2O3

>  <PUBCHEM_MOLECULAR_WEIGHT>
266.256

>  <PUBCHEM_OPENEYE_CAN_SMILES>
COC1=C(C2=NC=CC3=C2N(C1=O)C4=CC=CC=C34)O

>  <PUBCHEM_OPENEYE_ISO_SMILES>
COC1=C(C2=NC=CC3=C2N(C1=O)C4=CC=CC=C34)O

>  <PUBCHEM_CACTVS_TPSA>
64.4

>  <PUBCHEM_MONOISOTOPIC_WEIGHT>
266.069

>  <PUBCHEM_TOTAL_CHARGE>
0

>  <PUBCHEM_HEAVY_ATOM_COUNT>
20

>  <PUBCHEM_ATOM_DEF_STEREO_COUNT>
0

>  <PUBCHEM_ATOM_UDEF_STEREO_COUNT>
0

>  <PUBCHEM_BOND_DEF_STEREO_COUNT>
0

>  <PUBCHEM_BOND_UDEF_STEREO_COUNT>
0

>  <PUBCHEM_ISOTOPIC_ATOM_COUNT>
0

>  <PUBCHEM_COMPONENT_COUNT>
1

>  <PUBCHEM_CACTVS_TAUTO_COUNT>
3

>  <PUBCHEM_COORDINATE_TYPE>
1
5
255

>  <PUBCHEM_BONDANNOTATIONS>
10  12  8
11  14  8
12  14  8
13  17  8
15  18  8
16  19  8
18  19  8
4  11  8
4  6  8
4  8  8
5  10  8
5  17  8
6  10  8
6  7  8
7  13  8
7  9  8
8  15  8
8  9  8
9  16  8

$$$$
