54729712
 OpenBabel06101807152D

 58 59  0  0  0  0  0  0  0  0999 V2000
    4.6660   -1.6377    0.0000 O   0  0  0  0  0  0  0  0  0  0  0  0
    4.6660    1.3623    0.0000 O   0  0  0  0  0  0  0  0  0  0  0  0
    6.3981   -1.6377    0.0000 O   0  0  0  0  0  0  0  0  0  0  0  0
   16.7904    0.3623    0.0000 O   0  0  0  0  0  0  0  0  0  0  0  0
    8.9962   -0.1377    0.0000 C   0  0  0  0  0  0  0  0  0  0  0  0
    9.8622    0.3623    0.0000 C   0  0  0  0  0  0  0  0  0  0  0  0
    8.1301    0.3623    0.0000 C   0  0  0  0  0  0  0  0  0  0  0  0
   12.4603   -0.1377    0.0000 C   0  0  0  0  0  0  0  0  0  0  0  0
   11.5942    0.3623    0.0000 C   0  0  0  0  0  0  0  0  0  0  0  0
   10.7282   -0.1377    0.0000 C   0  0  0  0  0  0  0  0  0  0  0  0
   13.3263    0.3623    0.0000 C   0  0  0  0  0  0  0  0  0  0  0  0
    6.3981    0.3623    0.0000 C   0  0  0  0  0  0  0  0  0  0  0  0
    7.2641   -0.1377    0.0000 C   0  0  0  0  0  0  0  0  0  0  0  0
    5.5321   -0.1377    0.0000 C   0  0  0  0  0  0  0  0  0  0  0  0
    8.1301    1.3623    0.0000 C   0  0  0  0  0  0  0  0  0  0  0  0
   11.5942    1.3623    0.0000 C   0  0  0  0  0  0  0  0  0  0  0  0
    4.6660    0.3623    0.0000 C   0  0  0  0  0  0  0  0  0  0  0  0
    3.8000   -0.1377    0.0000 C   0  0  0  0  0  0  0  0  0  0  0  0
   14.1923   -0.1377    0.0000 C   0  0  0  0  0  0  0  0  0  0  0  0
    3.8000   -1.1377    0.0000 C   0  0  0  0  0  0  0  0  0  0  0  0
    5.5321   -1.1377    0.0000 C   0  0  0  0  0  0  0  0  0  0  0  0
   15.0583    0.3623    0.0000 C   0  0  0  0  0  0  0  0  0  0  0  0
    2.9061    0.3970    0.0000 C   0  0  0  0  0  0  0  0  0  0  0  0
    2.9061   -1.6723    0.0000 C   0  0  0  0  0  0  0  0  0  0  0  0
   15.9244   -0.1377    0.0000 C   0  0  0  0  0  0  0  0  0  0  0  0
   15.0583    1.3623    0.0000 C   0  0  0  0  0  0  0  0  0  0  0  0
    2.0000   -0.1169    0.0000 C   0  0  0  0  0  0  0  0  0  0  0  0
    2.0000   -1.1585    0.0000 C   0  0  0  0  0  0  0  0  0  0  0  0
    8.5976   -0.6126    0.0000 H   0  0  0  0  0  0  0  0  0  0  0  0
    9.3947   -0.6126    0.0000 H   0  0  0  0  0  0  0  0  0  0  0  0
   10.2607    0.8373    0.0000 H   0  0  0  0  0  0  0  0  0  0  0  0
    9.4637    0.8373    0.0000 H   0  0  0  0  0  0  0  0  0  0  0  0
   12.0617   -0.6126    0.0000 H   0  0  0  0  0  0  0  0  0  0  0  0
   12.8588   -0.6126    0.0000 H   0  0  0  0  0  0  0  0  0  0  0  0
   10.7282   -0.7577    0.0000 H   0  0  0  0  0  0  0  0  0  0  0  0
   13.7248    0.8373    0.0000 H   0  0  0  0  0  0  0  0  0  0  0  0
   12.9278    0.8373    0.0000 H   0  0  0  0  0  0  0  0  0  0  0  0
    6.7966    0.8373    0.0000 H   0  0  0  0  0  0  0  0  0  0  0  0
    5.9996    0.8373    0.0000 H   0  0  0  0  0  0  0  0  0  0  0  0
    7.2641   -0.7577    0.0000 H   0  0  0  0  0  0  0  0  0  0  0  0
    8.7501    1.3623    0.0000 H   0  0  0  0  0  0  0  0  0  0  0  0
    8.1301    1.9823    0.0000 H   0  0  0  0  0  0  0  0  0  0  0  0
    7.5101    1.3623    0.0000 H   0  0  0  0  0  0  0  0  0  0  0  0
   12.2142    1.3623    0.0000 H   0  0  0  0  0  0  0  0  0  0  0  0
   11.5942    1.9823    0.0000 H   0  0  0  0  0  0  0  0  0  0  0  0
   10.9742    1.3623    0.0000 H   0  0  0  0  0  0  0  0  0  0  0  0
   14.1923   -0.7577    0.0000 H   0  0  0  0  0  0  0  0  0  0  0  0
    2.9132    1.0170    0.0000 H   0  0  0  0  0  0  0  0  0  0  0  0
    2.9132   -2.2923    0.0000 H   0  0  0  0  0  0  0  0  0  0  0  0
   15.5258   -0.6126    0.0000 H   0  0  0  0  0  0  0  0  0  0  0  0
   16.3229   -0.6126    0.0000 H   0  0  0  0  0  0  0  0  0  0  0  0
   15.6783    1.3623    0.0000 H   0  0  0  0  0  0  0  0  0  0  0  0
   15.0583    1.9823    0.0000 H   0  0  0  0  0  0  0  0  0  0  0  0
   14.4383    1.3623    0.0000 H   0  0  0  0  0  0  0  0  0  0  0  0
    1.4643    0.1952    0.0000 H   0  0  0  0  0  0  0  0  0  0  0  0
    1.4643   -1.4706    0.0000 H   0  0  0  0  0  0  0  0  0  0  0  0
    4.1291    1.6723    0.0000 H   0  0  0  0  0  0  0  0  0  0  0  0
   17.3273    0.0523    0.0000 H   0  0  0  0  0  0  0  0  0  0  0  0
  1 20  1  0  0  0  0
  1 21  1  0  0  0  0
  2 17  1  0  0  0  0
  2 57  1  0  0  0  0
  3 21  2  0  0  0  0
  4 25  1  0  0  0  0
  4 58  1  0  0  0  0
  5  6  1  0  0  0  0
  5  7  1  0  0  0  0
  5 29  1  0  0  0  0
  5 30  1  0  0  0  0
  6 10  1  0  0  0  0
  6 31  1  0  0  0  0
  6 32  1  0  0  0  0
  7 13  2  0  0  0  0
  7 15  1  0  0  0  0
  8  9  1  0  0  0  0
  8 11  1  0  0  0  0
  8 33  1  0  0  0  0
  8 34  1  0  0  0  0
  9 10  2  0  0  0  0
  9 16  1  0  0  0  0
 10 35  1  0  0  0  0
 11 19  1  0  0  0  0
 11 36  1  0  0  0  0
 11 37  1  0  0  0  0
 12 13  1  0  0  0  0
 12 14  1  0  0  0  0
 12 38  1  0  0  0  0
 12 39  1  0  0  0  0
 13 40  1  0  0  0  0
 14 17  2  0  0  0  0
 14 21  1  0  0  0  0
 15 41  1  0  0  0  0
 15 42  1  0  0  0  0
 15 43  1  0  0  0  0
 16 44  1  0  0  0  0
 16 45  1  0  0  0  0
 16 46  1  0  0  0  0
 17 18  1  0  0  0  0
 18 20  1  0  0  0  0
 18 23  2  0  0  0  0
 19 22  2  0  0  0  0
 19 47  1  0  0  0  0
 20 24  2  0  0  0  0
 22 25  1  0  0  0  0
 22 26  1  0  0  0  0
 23 27  1  0  0  0  0
 23 48  1  0  0  0  0
 24 28  1  0  0  0  0
 24 49  1  0  0  0  0
 25 50  1  0  0  0  0
 25 51  1  0  0  0  0
 26 52  1  0  0  0  0
 26 53  1  0  0  0  0
 26 54  1  0  0  0  0
 27 28  2  0  0  0  0
 27 55  1  0  0  0  0
 28 56  1  0  0  0  0
M  END
>  <PUBCHEM_COMPOUND_CID>
54729712

>  <PUBCHEM_COMPOUND_CANONICALIZED>
1

>  <PUBCHEM_CACTVS_COMPLEXITY>
666

>  <PUBCHEM_CACTVS_HBOND_ACCEPTOR>
4

>  <PUBCHEM_CACTVS_HBOND_DONOR>
2

>  <PUBCHEM_CACTVS_ROTATABLE_BOND>
9

>  <PUBCHEM_CACTVS_SUBSKEYS>
AAADceB4OAAAAAAAAAAAAAAAAAAAAAAAAAAwQAAAAAAAAACBAAAAGgAACAAADASgmAIyDoAABgCIAiDSCAACCAAgIAAIiAEGCMgMNzKEMRqCeiClwBEIuQeAwCAOAAAAAAAIAAAAAAAAABAAAAAAAAAAAA==

>  <PUBCHEM_IUPAC_OPENEYE_NAME>
4-hydroxy-3-[(2E,6E,10E)-12-hydroxy-3,7,11-trimethyl-dodeca-2,6,10-trienyl]chromen-2-one

>  <PUBCHEM_IUPAC_CAS_NAME>
4-hydroxy-3-[(2E,6E,10E)-12-hydroxy-3,7,11-trimethyldodeca-2,6,10-trienyl]-1-benzopyran-2-one

>  <PUBCHEM_IUPAC_NAME>
4-hydroxy-3-[(2E,6E,10E)-12-hydroxy-3,7,11-trimethyldodeca-2,6,10-trienyl]chromen-2-one

>  <PUBCHEM_IUPAC_SYSTEMATIC_NAME>
4-oxidanyl-3-[(2E,6E,10E)-3,7,11-trimethyl-12-oxidanyl-dodeca-2,6,10-trienyl]chromen-2-one

>  <PUBCHEM_IUPAC_TRADITIONAL_NAME>
4-hydroxy-3-[(2E,6E,10E)-12-hydroxy-3,7,11-trimethyl-dodeca-2,6,10-trienyl]coumarin

>  <PUBCHEM_IUPAC_INCHI>
InChI=1S/C24H30O4/c1-17(9-7-11-19(3)16-25)8-6-10-18(2)14-15-21-23(26)20-12-4-5-13-22(20)28-24(21)27/h4-5,8,11-14,25-26H,6-7,9-10,15-16H2,1-3H3/b17-8+,18-14+,19-11+

>  <PUBCHEM_IUPAC_INCHIKEY>
PRZMRWJYVMFGKC-QTUSMQKXSA-N

>  <PUBCHEM_XLOGP3_AA>
5.7

>  <PUBCHEM_EXACT_MASS>
382.214

>  <PUBCHEM_MOLECULAR_FORMULA>
C24H30O4

>  <PUBCHEM_MOLECULAR_WEIGHT>
382.5

>  <PUBCHEM_OPENEYE_CAN_SMILES>
CC(=CCCC(=CCC1=C(C2=CC=CC=C2OC1=O)O)C)CCC=C(C)CO

>  <PUBCHEM_OPENEYE_ISO_SMILES>
C/C(=C\CC/C(=C/CC1=C(C2=CC=CC=C2OC1=O)O)/C)/CC/C=C(\C)/CO

>  <PUBCHEM_CACTVS_TPSA>
66.8

>  <PUBCHEM_MONOISOTOPIC_WEIGHT>
382.214

>  <PUBCHEM_TOTAL_CHARGE>
0

>  <PUBCHEM_HEAVY_ATOM_COUNT>
28

>  <PUBCHEM_ATOM_DEF_STEREO_COUNT>
0

>  <PUBCHEM_ATOM_UDEF_STEREO_COUNT>
0

>  <PUBCHEM_BOND_DEF_STEREO_COUNT>
3

>  <PUBCHEM_BOND_UDEF_STEREO_COUNT>
0

>  <PUBCHEM_ISOTOPIC_ATOM_COUNT>
0

>  <PUBCHEM_COMPONENT_COUNT>
1

>  <PUBCHEM_CACTVS_TAUTO_COUNT>
3

>  <PUBCHEM_COORDINATE_TYPE>
1
5
255

>  <PUBCHEM_BONDANNOTATIONS>
1  20  8
1  21  8
14  17  8
14  21  8
17  18  8
18  20  8
18  23  8
20  24  8
23  27  8
24  28  8
27  28  8

$$$$
