5473310
 OpenBabel06101807152D

 31 33  0  0  0  0  0  0  0  0999 V2000
    6.9343   -0.8846    0.0000 O   0  0  0  0  0  0  0  0  0  0  0  0
    4.3198   -2.4192    0.0000 O   0  0  0  0  0  0  0  0  0  0  0  0
    2.5381    0.6395    0.0000 O   0  0  0  0  0  0  0  0  0  0  0  0
    6.0682   -2.3846    0.0000 O   0  0  0  0  0  0  0  0  0  0  0  0
   10.3984    0.1154    0.0000 O   0  0  0  0  0  0  0  0  0  0  0  0
   10.3984    2.1154    0.0000 O   0  0  0  0  0  0  0  0  0  0  0  0
    5.2022    0.1154    0.0000 C   0  0  0  0  0  0  0  0  0  0  0  0
    5.2022   -0.8846    0.0000 C   0  0  0  0  0  0  0  0  0  0  0  0
    6.9343    0.1154    0.0000 C   0  0  0  0  0  0  0  0  0  0  0  0
    6.0682    0.6154    0.0000 C   0  0  0  0  0  0  0  0  0  0  0  0
    7.8003    0.6154    0.0000 C   0  0  0  0  0  0  0  0  0  0  0  0
    4.3083    0.6501    0.0000 C   0  0  0  0  0  0  0  0  0  0  0  0
    4.3083   -1.4193    0.0000 C   0  0  0  0  0  0  0  0  0  0  0  0
    6.0682   -1.3846    0.0000 C   0  0  0  0  0  0  0  0  0  0  0  0
    3.4022    0.1362    0.0000 C   0  0  0  0  0  0  0  0  0  0  0  0
    3.4022   -0.9054    0.0000 C   0  0  0  0  0  0  0  0  0  0  0  0
    8.6663    0.1154    0.0000 C   0  0  0  0  0  0  0  0  0  0  0  0
    7.8003    1.6154    0.0000 C   0  0  0  0  0  0  0  0  0  0  0  0
    9.5323    0.6154    0.0000 C   0  0  0  0  0  0  0  0  0  0  0  0
    8.6663    2.1154    0.0000 C   0  0  0  0  0  0  0  0  0  0  0  0
    9.5323    1.6154    0.0000 C   0  0  0  0  0  0  0  0  0  0  0  0
    6.0682    1.2354    0.0000 H   0  0  0  0  0  0  0  0  0  0  0  0
    4.3154    1.2700    0.0000 H   0  0  0  0  0  0  0  0  0  0  0  0
    2.8665   -1.2175    0.0000 H   0  0  0  0  0  0  0  0  0  0  0  0
    8.6663   -0.5046    0.0000 H   0  0  0  0  0  0  0  0  0  0  0  0
    7.2634    1.9254    0.0000 H   0  0  0  0  0  0  0  0  0  0  0  0
    8.6663    2.7354    0.0000 H   0  0  0  0  0  0  0  0  0  0  0  0
    3.7865   -2.7354    0.0000 H   0  0  0  0  0  0  0  0  0  0  0  0
    2.0000    0.3316    0.0000 H   0  0  0  0  0  0  0  0  0  0  0  0
   10.3984   -0.5046    0.0000 H   0  0  0  0  0  0  0  0  0  0  0  0
   10.3984    2.7354    0.0000 H   0  0  0  0  0  0  0  0  0  0  0  0
  1  9  1  0  0  0  0
  1 14  1  0  0  0  0
  2 13  1  0  0  0  0
  2 28  1  0  0  0  0
  3 15  1  0  0  0  0
  3 29  1  0  0  0  0
  4 14  2  0  0  0  0
  5 19  1  0  0  0  0
  5 30  1  0  0  0  0
  6 21  1  0  0  0  0
  6 31  1  0  0  0  0
  7  8  1  0  0  0  0
  7 10  1  0  0  0  0
  7 12  2  0  0  0  0
  8 13  2  0  0  0  0
  8 14  1  0  0  0  0
  9 10  2  0  0  0  0
  9 11  1  0  0  0  0
 10 22  1  0  0  0  0
 11 17  2  0  0  0  0
 11 18  1  0  0  0  0
 12 15  1  0  0  0  0
 12 23  1  0  0  0  0
 13 16  1  0  0  0  0
 15 16  2  0  0  0  0
 16 24  1  0  0  0  0
 17 19  1  0  0  0  0
 17 25  1  0  0  0  0
 18 20  2  0  0  0  0
 18 26  1  0  0  0  0
 19 21  2  0  0  0  0
 20 21  1  0  0  0  0
 20 27  1  0  0  0  0
M  END
>  <PUBCHEM_COMPOUND_CID>
5473310

>  <PUBCHEM_COMPOUND_CANONICALIZED>
1

>  <PUBCHEM_CACTVS_COMPLEXITY>
447

>  <PUBCHEM_CACTVS_HBOND_ACCEPTOR>
6

>  <PUBCHEM_CACTVS_HBOND_DONOR>
4

>  <PUBCHEM_CACTVS_ROTATABLE_BOND>
1

>  <PUBCHEM_CACTVS_SUBSKEYS>
AAADccBwOAAAAAAAAAAAAAAAAAAAAAAAAAAwYIAAAAAAAACBQAAAGgAACAAADASAmAAwDoAABgCIAiDSCAACCAAkIAAIiAEGiMgJJzaCNRqCcUEl4BUJuQfI7LzOoAABCAAYQABAAAIQADCAAAAAAAAAAA==

>  <PUBCHEM_IUPAC_OPENEYE_NAME>
3-(3,4-dihydroxyphenyl)-6,8-dihydroxy-isochromen-1-one

>  <PUBCHEM_IUPAC_CAS_NAME>
3-(3,4-dihydroxyphenyl)-6,8-dihydroxy-2-benzopyran-1-one

>  <PUBCHEM_IUPAC_NAME>
3-(3,4-dihydroxyphenyl)-6,8-dihydroxyisochromen-1-one

>  <PUBCHEM_IUPAC_SYSTEMATIC_NAME>
3-[3,4-bis(oxidanyl)phenyl]-6,8-bis(oxidanyl)isochromen-1-one

>  <PUBCHEM_IUPAC_TRADITIONAL_NAME>
3-(3,4-dihydroxyphenyl)-6,8-dihydroxy-isocoumarin

>  <PUBCHEM_IUPAC_INCHI>
InChI=1S/C15H10O6/c16-9-3-8-5-13(7-1-2-10(17)11(18)4-7)21-15(20)14(8)12(19)6-9/h1-6,16-19H

>  <PUBCHEM_IUPAC_INCHIKEY>
NHFGEHLUROYMEB-UHFFFAOYSA-N

>  <PUBCHEM_XLOGP3_AA>
2.7

>  <PUBCHEM_EXACT_MASS>
286.048

>  <PUBCHEM_MOLECULAR_FORMULA>
C15H10O6

>  <PUBCHEM_MOLECULAR_WEIGHT>
286.239

>  <PUBCHEM_OPENEYE_CAN_SMILES>
C1=CC(=C(C=C1C2=CC3=CC(=CC(=C3C(=O)O2)O)O)O)O

>  <PUBCHEM_OPENEYE_ISO_SMILES>
C1=CC(=C(C=C1C2=CC3=CC(=CC(=C3C(=O)O2)O)O)O)O

>  <PUBCHEM_CACTVS_TPSA>
107

>  <PUBCHEM_MONOISOTOPIC_WEIGHT>
286.048

>  <PUBCHEM_TOTAL_CHARGE>
0

>  <PUBCHEM_HEAVY_ATOM_COUNT>
21

>  <PUBCHEM_ATOM_DEF_STEREO_COUNT>
0

>  <PUBCHEM_ATOM_UDEF_STEREO_COUNT>
0

>  <PUBCHEM_BOND_DEF_STEREO_COUNT>
0

>  <PUBCHEM_BOND_UDEF_STEREO_COUNT>
0

>  <PUBCHEM_ISOTOPIC_ATOM_COUNT>
0

>  <PUBCHEM_COMPONENT_COUNT>
1

>  <PUBCHEM_CACTVS_TAUTO_COUNT>
183

>  <PUBCHEM_COORDINATE_TYPE>
1
5
255

>  <PUBCHEM_BONDANNOTATIONS>
1  14  8
1  9  8
11  17  8
11  18  8
12  15  8
13  16  8
15  16  8
17  19  8
18  20  8
19  21  8
20  21  8
7  10  8
7  12  8
7  8  8
8  13  8
8  14  8
9  10  8

$$$$
