5481962
 OpenBabel06101807152D

 56 59  0  0  0  0  0  0  0  0999 V2000
   10.4419    1.1935    0.0000 O   0  0  0  0  0  0  0  0  0  0  0  0
    6.9059    1.2213    0.0000 O   0  0  0  0  0  0  0  0  0  0  0  0
    8.6658   -1.8133    0.0000 O   0  0  0  0  0  0  0  0  0  0  0  0
    6.9174   -1.8479    0.0000 O   0  0  0  0  0  0  0  0  0  0  0  0
    6.0075    2.7075    0.0000 O   0  0  0  0  0  0  0  0  0  0  0  0
    2.5357    0.7208    0.0000 O   0  0  0  0  0  0  0  0  0  0  0  0
    2.5434    2.7208    0.0000 O   0  0  0  0  0  0  0  0  0  0  0  0
   10.4499    2.2351    0.0000 C   0  0  0  0  0  0  0  0  0  0  0  0
    8.6658    1.1867    0.0000 C   0  0  0  0  0  0  0  0  0  0  0  0
    7.7998    0.6867    0.0000 C   0  0  0  0  0  0  0  0  0  0  0  0
    9.5319    0.6867    0.0000 C   0  0  0  0  0  0  0  0  0  0  0  0
    7.7998   -0.3133    0.0000 C   0  0  0  0  0  0  0  0  0  0  0  0
    9.5478    2.7559    0.0000 C   0  0  0  0  0  0  0  0  0  0  0  0
    8.6498    2.2282    0.0000 C   0  0  0  0  0  0  0  0  0  0  0  0
    5.9998   -0.3342    0.0000 C   0  0  0  0  0  0  0  0  0  0  0  0
   10.9532    3.0992    0.0000 C   0  0  0  0  0  0  0  0  0  0  0  0
   11.4499    2.2312    0.0000 C   0  0  0  0  0  0  0  0  0  0  0  0
    5.9998    0.7075    0.0000 C   0  0  0  0  0  0  0  0  0  0  0  0
    6.9059   -0.8480    0.0000 C   0  0  0  0  0  0  0  0  0  0  0  0
    8.6658   -0.8133    0.0000 C   0  0  0  0  0  0  0  0  0  0  0  0
    9.5319   -0.3133    0.0000 C   0  0  0  0  0  0  0  0  0  0  0  0
    5.1357   -0.8375    0.0000 C   0  0  0  0  0  0  0  0  0  0  0  0
    5.1357    1.2108    0.0000 C   0  0  0  0  0  0  0  0  0  0  0  0
    5.1396   -1.8375    0.0000 C   0  0  0  0  0  0  0  0  0  0  0  0
    5.1396    2.2108    0.0000 C   0  0  0  0  0  0  0  0  0  0  0  0
    4.2678    0.7142    0.0000 C   0  0  0  0  0  0  0  0  0  0  0  0
    4.2755   -2.3408    0.0000 C   0  0  0  0  0  0  0  0  0  0  0  0
    3.4037    1.2175    0.0000 C   0  0  0  0  0  0  0  0  0  0  0  0
    4.2755    2.7141    0.0000 C   0  0  0  0  0  0  0  0  0  0  0  0
    3.4075    2.2175    0.0000 C   0  0  0  0  0  0  0  0  0  0  0  0
    4.2793   -3.3408    0.0000 C   0  0  0  0  0  0  0  0  0  0  0  0
    3.4075   -1.8442    0.0000 C   0  0  0  0  0  0  0  0  0  0  0  0
    9.5454    3.3759    0.0000 H   0  0  0  0  0  0  0  0  0  0  0  0
    8.1093    2.5319    0.0000 H   0  0  0  0  0  0  0  0  0  0  0  0
   11.4890    2.7871    0.0000 H   0  0  0  0  0  0  0  0  0  0  0  0
   11.2653    3.6349    0.0000 H   0  0  0  0  0  0  0  0  0  0  0  0
   10.4175    3.4113    0.0000 H   0  0  0  0  0  0  0  0  0  0  0  0
   11.4475    1.6113    0.0000 H   0  0  0  0  0  0  0  0  0  0  0  0
   12.0699    2.2289    0.0000 H   0  0  0  0  0  0  0  0  0  0  0  0
   11.4523    2.8512    0.0000 H   0  0  0  0  0  0  0  0  0  0  0  0
   10.0688   -0.6233    0.0000 H   0  0  0  0  0  0  0  0  0  0  0  0
    4.9214   -0.2557    0.0000 H   0  0  0  0  0  0  0  0  0  0  0  0
    4.5256   -0.9475    0.0000 H   0  0  0  0  0  0  0  0  0  0  0  0
    5.6777   -2.1454    0.0000 H   0  0  0  0  0  0  0  0  0  0  0  0
    4.2654    0.0942    0.0000 H   0  0  0  0  0  0  0  0  0  0  0  0
    9.2028   -2.1233    0.0000 H   0  0  0  0  0  0  0  0  0  0  0  0
    4.2779    3.3341    0.0000 H   0  0  0  0  0  0  0  0  0  0  0  0
    3.6593   -3.3432    0.0000 H   0  0  0  0  0  0  0  0  0  0  0  0
    4.2817   -3.9608    0.0000 H   0  0  0  0  0  0  0  0  0  0  0  0
    4.8993   -3.3384    0.0000 H   0  0  0  0  0  0  0  0  0  0  0  0
    3.7155   -1.3060    0.0000 H   0  0  0  0  0  0  0  0  0  0  0  0
    2.8694   -1.5362    0.0000 H   0  0  0  0  0  0  0  0  0  0  0  0
    3.0996   -2.3823    0.0000 H   0  0  0  0  0  0  0  0  0  0  0  0
    6.0099    3.3275    0.0000 H   0  0  0  0  0  0  0  0  0  0  0  0
    2.0000    1.0329    0.0000 H   0  0  0  0  0  0  0  0  0  0  0  0
    2.5458    3.3408    0.0000 H   0  0  0  0  0  0  0  0  0  0  0  0
  1  8  1  0  0  0  0
  1 11  1  0  0  0  0
  2 10  1  0  0  0  0
  2 18  1  0  0  0  0
  3 20  1  0  0  0  0
  3 46  1  0  0  0  0
  4 19  2  0  0  0  0
  5 25  1  0  0  0  0
  5 54  1  0  0  0  0
  6 28  1  0  0  0  0
  6 55  1  0  0  0  0
  7 30  1  0  0  0  0
  7 56  1  0  0  0  0
  8 13  1  0  0  0  0
  8 16  1  0  0  0  0
  8 17  1  0  0  0  0
  9 10  1  0  0  0  0
  9 11  2  0  0  0  0
  9 14  1  0  0  0  0
 10 12  2  0  0  0  0
 11 21  1  0  0  0  0
 12 19  1  0  0  0  0
 12 20  1  0  0  0  0
 13 14  2  0  0  0  0
 13 33  1  0  0  0  0
 14 34  1  0  0  0  0
 15 18  2  0  0  0  0
 15 19  1  0  0  0  0
 15 22  1  0  0  0  0
 16 35  1  0  0  0  0
 16 36  1  0  0  0  0
 16 37  1  0  0  0  0
 17 38  1  0  0  0  0
 17 39  1  0  0  0  0
 17 40  1  0  0  0  0
 18 23  1  0  0  0  0
 20 21  2  0  0  0  0
 21 41  1  0  0  0  0
 22 24  1  0  0  0  0
 22 42  1  0  0  0  0
 22 43  1  0  0  0  0
 23 25  1  0  0  0  0
 23 26  2  0  0  0  0
 24 27  2  0  0  0  0
 24 44  1  0  0  0  0
 25 29  2  0  0  0  0
 26 28  1  0  0  0  0
 26 45  1  0  0  0  0
 27 31  1  0  0  0  0
 27 32  1  0  0  0  0
 28 30  2  0  0  0  0
 29 30  1  0  0  0  0
 29 47  1  0  0  0  0
 31 48  1  0  0  0  0
 31 49  1  0  0  0  0
 31 50  1  0  0  0  0
 32 51  1  0  0  0  0
 32 52  1  0  0  0  0
 32 53  1  0  0  0  0
M  END
>  <PUBCHEM_COMPOUND_CID>
5481962

>  <PUBCHEM_COMPOUND_CANONICALIZED>
1

>  <PUBCHEM_CACTVS_COMPLEXITY>
837

>  <PUBCHEM_CACTVS_HBOND_ACCEPTOR>
7

>  <PUBCHEM_CACTVS_HBOND_DONOR>
4

>  <PUBCHEM_CACTVS_ROTATABLE_BOND>
3

>  <PUBCHEM_CACTVS_SUBSKEYS>
AAADceB4OAAAAAAAAAAAAAAAAAAAAAAAAAAwYIEAAAAAAACBQAAAGgAACAAADESAmAAyBoAABgCIAqBSAAACCAAkIAAIiAEGiMgNJzaGNRqCeWGl4BUJuQfI7PzOIQADCAAIQABCAAYQABCAAAAAAAAAAA==

>  <PUBCHEM_IUPAC_OPENEYE_NAME>
5-hydroxy-8,8-dimethyl-3-(3-methylbut-2-enyl)-2-(2,4,5-trihydroxyphenyl)pyrano[2,3-h]chromen-4-one

>  <PUBCHEM_IUPAC_CAS_NAME>
5-hydroxy-8,8-dimethyl-3-(3-methylbut-2-enyl)-2-(2,4,5-trihydroxyphenyl)-4-pyrano[2,3-h][1]benzopyranone

>  <PUBCHEM_IUPAC_NAME>
5-hydroxy-8,8-dimethyl-3-(3-methylbut-2-enyl)-2-(2,4,5-trihydroxyphenyl)pyrano[2,3-h]chromen-4-one

>  <PUBCHEM_IUPAC_SYSTEMATIC_NAME>
8,8-dimethyl-3-(3-methylbut-2-enyl)-5-oxidanyl-2-[2,4,5-tris(oxidanyl)phenyl]pyrano[2,3-h]chromen-4-one

>  <PUBCHEM_IUPAC_TRADITIONAL_NAME>
5-hydroxy-8,8-dimethyl-3-(3-methylbut-2-enyl)-2-(2,4,5-trihydroxyphenyl)pyrano[2,3-h]chromen-4-one

>  <PUBCHEM_IUPAC_INCHI>
InChI=1S/C25H24O7/c1-12(2)5-6-14-22(30)21-19(29)11-20-13(7-8-25(3,4)32-20)24(21)31-23(14)15-9-17(27)18(28)10-16(15)26/h5,7-11,26-29H,6H2,1-4H3

>  <PUBCHEM_IUPAC_INCHIKEY>
HDHRTQZSBFUBMJ-UHFFFAOYSA-N

>  <PUBCHEM_XLOGP3_AA>
5.2

>  <PUBCHEM_EXACT_MASS>
436.152

>  <PUBCHEM_MOLECULAR_FORMULA>
C25H24O7

>  <PUBCHEM_MOLECULAR_WEIGHT>
436.46

>  <PUBCHEM_OPENEYE_CAN_SMILES>
CC(=CCC1=C(OC2=C3C=CC(OC3=CC(=C2C1=O)O)(C)C)C4=CC(=C(C=C4O)O)O)C

>  <PUBCHEM_OPENEYE_ISO_SMILES>
CC(=CCC1=C(OC2=C3C=CC(OC3=CC(=C2C1=O)O)(C)C)C4=CC(=C(C=C4O)O)O)C

>  <PUBCHEM_CACTVS_TPSA>
116

>  <PUBCHEM_MONOISOTOPIC_WEIGHT>
436.152

>  <PUBCHEM_TOTAL_CHARGE>
0

>  <PUBCHEM_HEAVY_ATOM_COUNT>
32

>  <PUBCHEM_ATOM_DEF_STEREO_COUNT>
0

>  <PUBCHEM_ATOM_UDEF_STEREO_COUNT>
0

>  <PUBCHEM_BOND_DEF_STEREO_COUNT>
0

>  <PUBCHEM_BOND_UDEF_STEREO_COUNT>
0

>  <PUBCHEM_ISOTOPIC_ATOM_COUNT>
0

>  <PUBCHEM_COMPONENT_COUNT>
1

>  <PUBCHEM_CACTVS_TAUTO_COUNT>
615

>  <PUBCHEM_COORDINATE_TYPE>
1
5
255

>  <PUBCHEM_BONDANNOTATIONS>
10  12  8
11  21  8
12  19  8
12  20  8
15  18  8
15  19  8
2  10  8
2  18  8
20  21  8
23  25  8
23  26  8
25  29  8
26  28  8
28  30  8
29  30  8
9  10  8
9  11  8

$$$$
