5481240
 OpenBabel06101807152D

 33 35  0  0  0  0  0  0  0  0999 V2000
    6.0682   -1.0746    0.0000 O   0  0  0  0  0  0  0  0  0  0  0  0
    6.0682    1.9254    0.0000 O   0  0  0  0  0  0  0  0  0  0  0  0
    4.3198   -2.1092    0.0000 O   0  0  0  0  0  0  0  0  0  0  0  0
    2.5381   -1.0988    0.0000 O   0  0  0  0  0  0  0  0  0  0  0  0
   10.3984    2.4254    0.0000 O   0  0  0  0  0  0  0  0  0  0  0  0
    5.2022    0.4254    0.0000 C   0  0  0  0  0  0  0  0  0  0  0  0
    6.9343    0.4254    0.0000 C   0  0  0  0  0  0  0  0  0  0  0  0
    5.2022   -0.5746    0.0000 C   0  0  0  0  0  0  0  0  0  0  0  0
    6.0682    0.9254    0.0000 C   0  0  0  0  0  0  0  0  0  0  0  0
    7.8003    0.9254    0.0000 C   0  0  0  0  0  0  0  0  0  0  0  0
    4.3083    0.9601    0.0000 C   0  0  0  0  0  0  0  0  0  0  0  0
    6.9343   -0.5746    0.0000 C   0  0  0  0  0  0  0  0  0  0  0  0
    4.3083   -1.1093    0.0000 C   0  0  0  0  0  0  0  0  0  0  0  0
    8.6663    0.4254    0.0000 C   0  0  0  0  0  0  0  0  0  0  0  0
    7.8003    1.9254    0.0000 C   0  0  0  0  0  0  0  0  0  0  0  0
    3.4022   -0.5954    0.0000 C   0  0  0  0  0  0  0  0  0  0  0  0
    3.4022    0.4462    0.0000 C   0  0  0  0  0  0  0  0  0  0  0  0
    9.5323    0.9254    0.0000 C   0  0  0  0  0  0  0  0  0  0  0  0
    8.6663    2.4254    0.0000 C   0  0  0  0  0  0  0  0  0  0  0  0
    9.5323    1.9254    0.0000 C   0  0  0  0  0  0  0  0  0  0  0  0
   11.2644    1.9254    0.0000 C   0  0  0  0  0  0  0  0  0  0  0  0
    4.3154    1.5800    0.0000 H   0  0  0  0  0  0  0  0  0  0  0  0
    7.4712   -0.8846    0.0000 H   0  0  0  0  0  0  0  0  0  0  0  0
    8.6663   -0.1946    0.0000 H   0  0  0  0  0  0  0  0  0  0  0  0
    7.2634    2.2354    0.0000 H   0  0  0  0  0  0  0  0  0  0  0  0
    2.8665    0.7583    0.0000 H   0  0  0  0  0  0  0  0  0  0  0  0
   10.0693    0.6154    0.0000 H   0  0  0  0  0  0  0  0  0  0  0  0
    8.6663    3.0454    0.0000 H   0  0  0  0  0  0  0  0  0  0  0  0
    3.7865   -2.4254    0.0000 H   0  0  0  0  0  0  0  0  0  0  0  0
    2.0000   -0.7908    0.0000 H   0  0  0  0  0  0  0  0  0  0  0  0
   10.9544    1.3885    0.0000 H   0  0  0  0  0  0  0  0  0  0  0  0
   11.8013    1.6154    0.0000 H   0  0  0  0  0  0  0  0  0  0  0  0
   11.5744    2.4623    0.0000 H   0  0  0  0  0  0  0  0  0  0  0  0
  1  8  1  0  0  0  0
  1 12  1  0  0  0  0
  2  9  2  0  0  0  0
  3 13  1  0  0  0  0
  3 29  1  0  0  0  0
  4 16  1  0  0  0  0
  4 30  1  0  0  0  0
  5 20  1  0  0  0  0
  5 21  1  0  0  0  0
  6  8  2  0  0  0  0
  6  9  1  0  0  0  0
  6 11  1  0  0  0  0
  7  9  1  0  0  0  0
  7 10  1  0  0  0  0
  7 12  2  0  0  0  0
  8 13  1  0  0  0  0
 10 14  2  0  0  0  0
 10 15  1  0  0  0  0
 11 17  2  0  0  0  0
 11 22  1  0  0  0  0
 12 23  1  0  0  0  0
 13 16  2  0  0  0  0
 14 18  1  0  0  0  0
 14 24  1  0  0  0  0
 15 19  2  0  0  0  0
 15 25  1  0  0  0  0
 16 17  1  0  0  0  0
 17 26  1  0  0  0  0
 18 20  2  0  0  0  0
 18 27  1  0  0  0  0
 19 20  1  0  0  0  0
 19 28  1  0  0  0  0
 21 31  1  0  0  0  0
 21 32  1  0  0  0  0
 21 33  1  0  0  0  0
M  END
>  <PUBCHEM_COMPOUND_CID>
5481240

>  <PUBCHEM_COMPOUND_CANONICALIZED>
1

>  <PUBCHEM_CACTVS_COMPLEXITY>
424

>  <PUBCHEM_CACTVS_HBOND_ACCEPTOR>
5

>  <PUBCHEM_CACTVS_HBOND_DONOR>
2

>  <PUBCHEM_CACTVS_ROTATABLE_BOND>
2

>  <PUBCHEM_CACTVS_SUBSKEYS>
AAADccB4OAAAAAAAAAAAAAAAAAAAAAAAAAAwYIAAAAAAAACBQAAAGgAACAAADASgmAIyBoAABgCIAqBSAAACCAAkIAAIiAEGiMgNJzaGNRqAcWMl4BULuYeK7PzOIAABCAAIQABAAAIQABCAAAAAAAAAAA==

>  <PUBCHEM_IUPAC_OPENEYE_NAME>
7,8-dihydroxy-3-(4-methoxyphenyl)chromen-4-one

>  <PUBCHEM_IUPAC_CAS_NAME>
7,8-dihydroxy-3-(4-methoxyphenyl)-1-benzopyran-4-one

>  <PUBCHEM_IUPAC_NAME>
7,8-dihydroxy-3-(4-methoxyphenyl)chromen-4-one

>  <PUBCHEM_IUPAC_SYSTEMATIC_NAME>
3-(4-methoxyphenyl)-7,8-bis(oxidanyl)chromen-4-one

>  <PUBCHEM_IUPAC_TRADITIONAL_NAME>
7,8-dihydroxy-3-(4-methoxyphenyl)chromone

>  <PUBCHEM_IUPAC_INCHI>
InChI=1S/C16H12O5/c1-20-10-4-2-9(3-5-10)12-8-21-16-11(14(12)18)6-7-13(17)15(16)19/h2-8,17,19H,1H3

>  <PUBCHEM_IUPAC_INCHIKEY>
DLXIJJURUIXRFK-UHFFFAOYSA-N

>  <PUBCHEM_XLOGP3_AA>
2.4

>  <PUBCHEM_EXACT_MASS>
284.068

>  <PUBCHEM_MOLECULAR_FORMULA>
C16H12O5

>  <PUBCHEM_MOLECULAR_WEIGHT>
284.267

>  <PUBCHEM_OPENEYE_CAN_SMILES>
COC1=CC=C(C=C1)C2=COC3=C(C2=O)C=CC(=C3O)O

>  <PUBCHEM_OPENEYE_ISO_SMILES>
COC1=CC=C(C=C1)C2=COC3=C(C2=O)C=CC(=C3O)O

>  <PUBCHEM_CACTVS_TPSA>
76

>  <PUBCHEM_MONOISOTOPIC_WEIGHT>
284.068

>  <PUBCHEM_TOTAL_CHARGE>
0

>  <PUBCHEM_HEAVY_ATOM_COUNT>
21

>  <PUBCHEM_ATOM_DEF_STEREO_COUNT>
0

>  <PUBCHEM_ATOM_UDEF_STEREO_COUNT>
0

>  <PUBCHEM_BOND_DEF_STEREO_COUNT>
0

>  <PUBCHEM_BOND_UDEF_STEREO_COUNT>
0

>  <PUBCHEM_ISOTOPIC_ATOM_COUNT>
0

>  <PUBCHEM_COMPONENT_COUNT>
1

>  <PUBCHEM_CACTVS_TAUTO_COUNT>
12

>  <PUBCHEM_COORDINATE_TYPE>
1
5
255

>  <PUBCHEM_BONDANNOTATIONS>
1  12  8
1  8  8
10  14  8
10  15  8
11  17  8
13  16  8
14  18  8
15  19  8
16  17  8
18  20  8
19  20  8
6  11  8
6  8  8
6  9  8
7  12  8
7  9  8
8  13  8

$$$$
