5481965
 OpenBabel06101807152D

 47 49  0  0  0  0  0  0  0  0999 V2000
    8.1301   -0.6154    0.0000 O   0  0  0  0  0  0  0  0  0  0  0  0
    6.3817    2.4192    0.0000 O   0  0  0  0  0  0  0  0  0  0  0  0
    9.8622    1.3846    0.0000 O   0  0  0  0  0  0  0  0  0  0  0  0
    4.6000   -0.6395    0.0000 O   0  0  0  0  0  0  0  0  0  0  0  0
    8.1301    2.3846    0.0000 O   0  0  0  0  0  0  0  0  0  0  0  0
   12.4602   -2.1154    0.0000 O   0  0  0  0  0  0  0  0  0  0  0  0
    7.2641    0.8846    0.0000 C   0  0  0  0  0  0  0  0  0  0  0  0
    5.4641    0.9054    0.0000 C   0  0  0  0  0  0  0  0  0  0  0  0
    7.2641   -0.1154    0.0000 C   0  0  0  0  0  0  0  0  0  0  0  0
    6.3701    1.4193    0.0000 C   0  0  0  0  0  0  0  0  0  0  0  0
    4.6000    1.4088    0.0000 C   0  0  0  0  0  0  0  0  0  0  0  0
    5.4641   -0.1362    0.0000 C   0  0  0  0  0  0  0  0  0  0  0  0
    6.3701   -0.6501    0.0000 C   0  0  0  0  0  0  0  0  0  0  0  0
    8.1301    1.3846    0.0000 C   0  0  0  0  0  0  0  0  0  0  0  0
    8.9961   -0.1154    0.0000 C   0  0  0  0  0  0  0  0  0  0  0  0
    8.9961    0.8846    0.0000 C   0  0  0  0  0  0  0  0  0  0  0  0
    9.8622   -0.6154    0.0000 C   0  0  0  0  0  0  0  0  0  0  0  0
    3.7320    0.9121    0.0000 C   0  0  0  0  0  0  0  0  0  0  0  0
    2.8680    1.4154    0.0000 C   0  0  0  0  0  0  0  0  0  0  0  0
    9.8622   -1.6154    0.0000 C   0  0  0  0  0  0  0  0  0  0  0  0
   10.7282   -0.1154    0.0000 C   0  0  0  0  0  0  0  0  0  0  0  0
    2.0000    0.9188    0.0000 C   0  0  0  0  0  0  0  0  0  0  0  0
    2.8718    2.4154    0.0000 C   0  0  0  0  0  0  0  0  0  0  0  0
   10.7282   -2.1154    0.0000 C   0  0  0  0  0  0  0  0  0  0  0  0
   11.5942   -0.6154    0.0000 C   0  0  0  0  0  0  0  0  0  0  0  0
   11.5942   -1.6154    0.0000 C   0  0  0  0  0  0  0  0  0  0  0  0
    9.8622    2.3846    0.0000 C   0  0  0  0  0  0  0  0  0  0  0  0
    5.0003    1.8822    0.0000 H   0  0  0  0  0  0  0  0  0  0  0  0
    4.2033    1.8852    0.0000 H   0  0  0  0  0  0  0  0  0  0  0  0
    6.3773   -1.2700    0.0000 H   0  0  0  0  0  0  0  0  0  0  0  0
    3.7296    0.2921    0.0000 H   0  0  0  0  0  0  0  0  0  0  0  0
    9.3252   -1.9254    0.0000 H   0  0  0  0  0  0  0  0  0  0  0  0
   10.7282    0.5046    0.0000 H   0  0  0  0  0  0  0  0  0  0  0  0
    5.8484    2.7354    0.0000 H   0  0  0  0  0  0  0  0  0  0  0  0
    4.6024   -1.2595    0.0000 H   0  0  0  0  0  0  0  0  0  0  0  0
    1.6921    1.4569    0.0000 H   0  0  0  0  0  0  0  0  0  0  0  0
    3.4918    2.4130    0.0000 H   0  0  0  0  0  0  0  0  0  0  0  0
    2.8742    3.0354    0.0000 H   0  0  0  0  0  0  0  0  0  0  0  0
    2.2518    2.4178    0.0000 H   0  0  0  0  0  0  0  0  0  0  0  0
    1.4619    0.6108    0.0000 H   0  0  0  0  0  0  0  0  0  0  0  0
    2.3079    0.3806    0.0000 H   0  0  0  0  0  0  0  0  0  0  0  0
   10.7282   -2.7354    0.0000 H   0  0  0  0  0  0  0  0  0  0  0  0
   12.1311   -0.3054    0.0000 H   0  0  0  0  0  0  0  0  0  0  0  0
   10.4822    2.3846    0.0000 H   0  0  0  0  0  0  0  0  0  0  0  0
    9.8622    3.0046    0.0000 H   0  0  0  0  0  0  0  0  0  0  0  0
    9.2422    2.3846    0.0000 H   0  0  0  0  0  0  0  0  0  0  0  0
   12.4602   -2.7354    0.0000 H   0  0  0  0  0  0  0  0  0  0  0  0
  1  9  1  0  0  0  0
  1 15  1  0  0  0  0
  2 10  1  0  0  0  0
  2 34  1  0  0  0  0
  3 16  1  0  0  0  0
  3 27  1  0  0  0  0
  4 12  1  0  0  0  0
  4 35  1  0  0  0  0
  5 14  2  0  0  0  0
  6 26  1  0  0  0  0
  6 47  1  0  0  0  0
  7  9  2  0  0  0  0
  7 10  1  0  0  0  0
  7 14  1  0  0  0  0
  8 10  2  0  0  0  0
  8 11  1  0  0  0  0
  8 12  1  0  0  0  0
  9 13  1  0  0  0  0
 11 18  1  0  0  0  0
 11 28  1  0  0  0  0
 11 29  1  0  0  0  0
 12 13  2  0  0  0  0
 13 30  1  0  0  0  0
 14 16  1  0  0  0  0
 15 16  2  0  0  0  0
 15 17  1  0  0  0  0
 17 20  2  0  0  0  0
 17 21  1  0  0  0  0
 18 19  2  0  0  0  0
 18 31  1  0  0  0  0
 19 22  1  0  0  0  0
 19 23  1  0  0  0  0
 20 24  1  0  0  0  0
 20 32  1  0  0  0  0
 21 25  2  0  0  0  0
 21 33  1  0  0  0  0
 22 36  1  0  0  0  0
 22 40  1  0  0  0  0
 22 41  1  0  0  0  0
 23 37  1  0  0  0  0
 23 38  1  0  0  0  0
 23 39  1  0  0  0  0
 24 26  2  0  0  0  0
 24 42  1  0  0  0  0
 25 26  1  0  0  0  0
 25 43  1  0  0  0  0
 27 44  1  0  0  0  0
 27 45  1  0  0  0  0
 27 46  1  0  0  0  0
M  END
>  <PUBCHEM_COMPOUND_CID>
5481965

>  <PUBCHEM_COMPOUND_CANONICALIZED>
1

>  <PUBCHEM_CACTVS_COMPLEXITY>
612

>  <PUBCHEM_CACTVS_HBOND_ACCEPTOR>
6

>  <PUBCHEM_CACTVS_HBOND_DONOR>
3

>  <PUBCHEM_CACTVS_ROTATABLE_BOND>
4

>  <PUBCHEM_CACTVS_SUBSKEYS>
AAADceB4OAAAAAAAAAAAAAAAAAAAAAAAAAAwYIAAAAAAAACBQAAAGgAACAAADASAmAIyBoAABgCIAqBSAAICCAAkIAAIiAFGCMgMJzaGNR6CeWCl4BUIuQfI7PzOIAACCAAIAABAAAQQABAAAAAAAAAAAA==

>  <PUBCHEM_IUPAC_OPENEYE_NAME>
5,7-dihydroxy-2-(4-hydroxyphenyl)-3-methoxy-6-(3-methylbut-2-enyl)chromen-4-one

>  <PUBCHEM_IUPAC_CAS_NAME>
5,7-dihydroxy-2-(4-hydroxyphenyl)-3-methoxy-6-(3-methylbut-2-enyl)-1-benzopyran-4-one

>  <PUBCHEM_IUPAC_NAME>
5,7-dihydroxy-2-(4-hydroxyphenyl)-3-methoxy-6-(3-methylbut-2-enyl)chromen-4-one

>  <PUBCHEM_IUPAC_SYSTEMATIC_NAME>
2-(4-hydroxyphenyl)-3-methoxy-6-(3-methylbut-2-enyl)-5,7-bis(oxidanyl)chromen-4-one

>  <PUBCHEM_IUPAC_TRADITIONAL_NAME>
5,7-dihydroxy-2-(4-hydroxyphenyl)-3-methoxy-6-(3-methylbut-2-enyl)chromone

>  <PUBCHEM_IUPAC_INCHI>
InChI=1S/C21H20O6/c1-11(2)4-9-14-15(23)10-16-17(18(14)24)19(25)21(26-3)20(27-16)12-5-7-13(22)8-6-12/h4-8,10,22-24H,9H2,1-3H3

>  <PUBCHEM_IUPAC_INCHIKEY>
VVXGFIWLFZMBCJ-UHFFFAOYSA-N

>  <PUBCHEM_XLOGP3_AA>
4.8

>  <PUBCHEM_EXACT_MASS>
368.126

>  <PUBCHEM_MOLECULAR_FORMULA>
C21H20O6

>  <PUBCHEM_MOLECULAR_WEIGHT>
368.385

>  <PUBCHEM_OPENEYE_CAN_SMILES>
CC(=CCC1=C(C=C2C(=C1O)C(=O)C(=C(O2)C3=CC=C(C=C3)O)OC)O)C

>  <PUBCHEM_OPENEYE_ISO_SMILES>
CC(=CCC1=C(C=C2C(=C1O)C(=O)C(=C(O2)C3=CC=C(C=C3)O)OC)O)C

>  <PUBCHEM_CACTVS_TPSA>
96.2

>  <PUBCHEM_MONOISOTOPIC_WEIGHT>
368.126

>  <PUBCHEM_TOTAL_CHARGE>
0

>  <PUBCHEM_HEAVY_ATOM_COUNT>
27

>  <PUBCHEM_ATOM_DEF_STEREO_COUNT>
0

>  <PUBCHEM_ATOM_UDEF_STEREO_COUNT>
0

>  <PUBCHEM_BOND_DEF_STEREO_COUNT>
0

>  <PUBCHEM_BOND_UDEF_STEREO_COUNT>
0

>  <PUBCHEM_ISOTOPIC_ATOM_COUNT>
0

>  <PUBCHEM_COMPONENT_COUNT>
1

>  <PUBCHEM_CACTVS_TAUTO_COUNT>
57

>  <PUBCHEM_COORDINATE_TYPE>
1
5
255

>  <PUBCHEM_BONDANNOTATIONS>
1  15  8
1  9  8
12  13  8
14  16  8
15  16  8
17  20  8
17  21  8
20  24  8
21  25  8
24  26  8
25  26  8
7  10  8
7  14  8
7  9  8
8  10  8
8  12  8
9  13  8

$$$$
