5481235
 OpenBabel06101807152D

 55 58  0  0  0  0  0  0  0  0999 V2000
   12.4803    1.9147    0.0000 O   0  0  0  0  0  0  0  0  0  0  0  0
    8.0901   -1.6889    0.0000 O   0  0  0  0  0  0  0  0  0  0  0  0
   10.7321   -1.1267    0.0000 O   0  0  0  0  0  0  0  0  0  0  0  0
    6.3301    1.3458    0.0000 O   0  0  0  0  0  0  0  0  0  0  0  0
    8.0785    1.3804    0.0000 O   0  0  0  0  0  0  0  0  0  0  0  0
    4.5981   -1.6542    0.0000 O   0  0  0  0  0  0  0  0  0  0  0  0
   13.3884    1.4044    0.0000 C   0  0  0  0  0  0  0  0  0  0  0  0
   11.5923    0.3766    0.0000 C   0  0  0  0  0  0  0  0  0  0  0  0
   11.5884    1.3766    0.0000 C   0  0  0  0  0  0  0  0  0  0  0  0
   13.3924    0.3627    0.0000 C   0  0  0  0  0  0  0  0  0  0  0  0
    9.8602    0.3699    0.0000 C   0  0  0  0  0  0  0  0  0  0  0  0
   14.3883    1.4121    0.0000 C   0  0  0  0  0  0  0  0  0  0  0  0
   13.8817    2.2742    0.0000 C   0  0  0  0  0  0  0  0  0  0  0  0
   12.4883   -0.1546    0.0000 C   0  0  0  0  0  0  0  0  0  0  0  0
   10.7282   -0.1267    0.0000 C   0  0  0  0  0  0  0  0  0  0  0  0
    8.9962   -0.1334    0.0000 C   0  0  0  0  0  0  0  0  0  0  0  0
    7.1962   -0.1542    0.0000 C   0  0  0  0  0  0  0  0  0  0  0  0
   10.7205    1.8733    0.0000 C   0  0  0  0  0  0  0  0  0  0  0  0
    9.8564    1.3699    0.0000 C   0  0  0  0  0  0  0  0  0  0  0  0
    8.0901    0.3804    0.0000 C   0  0  0  0  0  0  0  0  0  0  0  0
    5.4641   -0.1542    0.0000 C   0  0  0  0  0  0  0  0  0  0  0  0
    7.1962   -1.1542    0.0000 C   0  0  0  0  0  0  0  0  0  0  0  0
    6.3301    0.3458    0.0000 C   0  0  0  0  0  0  0  0  0  0  0  0
    4.5981    0.3458    0.0000 C   0  0  0  0  0  0  0  0  0  0  0  0
    8.9962   -1.1750    0.0000 C   0  0  0  0  0  0  0  0  0  0  0  0
    5.4641   -1.1542    0.0000 C   0  0  0  0  0  0  0  0  0  0  0  0
    6.3301   -1.6542    0.0000 C   0  0  0  0  0  0  0  0  0  0  0  0
    3.7320   -0.1542    0.0000 C   0  0  0  0  0  0  0  0  0  0  0  0
    2.8660    0.3458    0.0000 C   0  0  0  0  0  0  0  0  0  0  0  0
    2.0000   -0.1542    0.0000 C   0  0  0  0  0  0  0  0  0  0  0  0
    2.8660    1.3458    0.0000 C   0  0  0  0  0  0  0  0  0  0  0  0
   13.9293    0.0527    0.0000 H   0  0  0  0  0  0  0  0  0  0  0  0
   14.4210    1.9684    0.0000 H   0  0  0  0  0  0  0  0  0  0  0  0
   14.1875    2.8135    0.0000 H   0  0  0  0  0  0  0  0  0  0  0  0
   13.3424    2.5801    0.0000 H   0  0  0  0  0  0  0  0  0  0  0  0
   14.3931    0.7921    0.0000 H   0  0  0  0  0  0  0  0  0  0  0  0
   15.0083    1.4168    0.0000 H   0  0  0  0  0  0  0  0  0  0  0  0
   14.3835    2.0320    0.0000 H   0  0  0  0  0  0  0  0  0  0  0  0
   12.4835   -0.7746    0.0000 H   0  0  0  0  0  0  0  0  0  0  0  0
   10.7181    2.4933    0.0000 H   0  0  0  0  0  0  0  0  0  0  0  0
    9.3183    1.6779    0.0000 H   0  0  0  0  0  0  0  0  0  0  0  0
    4.9966    0.8207    0.0000 H   0  0  0  0  0  0  0  0  0  0  0  0
    4.1996    0.8207    0.0000 H   0  0  0  0  0  0  0  0  0  0  0  0
    9.5319   -1.4871    0.0000 H   0  0  0  0  0  0  0  0  0  0  0  0
    6.3301   -2.2742    0.0000 H   0  0  0  0  0  0  0  0  0  0  0  0
    3.7320   -0.7742    0.0000 H   0  0  0  0  0  0  0  0  0  0  0  0
   11.2702   -1.4346    0.0000 H   0  0  0  0  0  0  0  0  0  0  0  0
    5.7932    1.6558    0.0000 H   0  0  0  0  0  0  0  0  0  0  0  0
    4.5981   -2.2742    0.0000 H   0  0  0  0  0  0  0  0  0  0  0  0
    1.6900    0.3827    0.0000 H   0  0  0  0  0  0  0  0  0  0  0  0
    1.4631   -0.4642    0.0000 H   0  0  0  0  0  0  0  0  0  0  0  0
    2.3100   -0.6911    0.0000 H   0  0  0  0  0  0  0  0  0  0  0  0
    3.4860    1.3458    0.0000 H   0  0  0  0  0  0  0  0  0  0  0  0
    2.8660    1.9658    0.0000 H   0  0  0  0  0  0  0  0  0  0  0  0
    2.2460    1.3458    0.0000 H   0  0  0  0  0  0  0  0  0  0  0  0
  1  7  1  0  0  0  0
  1  9  1  0  0  0  0
  2 22  1  0  0  0  0
  2 25  1  0  0  0  0
  3 15  1  0  0  0  0
  3 47  1  0  0  0  0
  4 23  1  0  0  0  0
  4 48  1  0  0  0  0
  5 20  2  0  0  0  0
  6 26  1  0  0  0  0
  6 49  1  0  0  0  0
  7 10  1  0  0  0  0
  7 12  1  0  0  0  0
  7 13  1  0  0  0  0
  8  9  2  0  0  0  0
  8 14  1  0  0  0  0
  8 15  1  0  0  0  0
  9 18  1  0  0  0  0
 10 14  2  0  0  0  0
 10 32  1  0  0  0  0
 11 15  2  0  0  0  0
 11 16  1  0  0  0  0
 11 19  1  0  0  0  0
 12 36  1  0  0  0  0
 12 37  1  0  0  0  0
 12 38  1  0  0  0  0
 13 33  1  0  0  0  0
 13 34  1  0  0  0  0
 13 35  1  0  0  0  0
 14 39  1  0  0  0  0
 16 20  1  0  0  0  0
 16 25  2  0  0  0  0
 17 20  1  0  0  0  0
 17 22  1  0  0  0  0
 17 23  2  0  0  0  0
 18 19  2  0  0  0  0
 18 40  1  0  0  0  0
 19 41  1  0  0  0  0
 21 23  1  0  0  0  0
 21 24  1  0  0  0  0
 21 26  2  0  0  0  0
 22 27  2  0  0  0  0
 24 28  1  0  0  0  0
 24 42  1  0  0  0  0
 24 43  1  0  0  0  0
 25 44  1  0  0  0  0
 26 27  1  0  0  0  0
 27 45  1  0  0  0  0
 28 29  2  0  0  0  0
 28 46  1  0  0  0  0
 29 30  1  0  0  0  0
 29 31  1  0  0  0  0
 30 50  1  0  0  0  0
 30 51  1  0  0  0  0
 30 52  1  0  0  0  0
 31 53  1  0  0  0  0
 31 54  1  0  0  0  0
 31 55  1  0  0  0  0
M  END
>  <PUBCHEM_COMPOUND_CID>
5481235

>  <PUBCHEM_COMPOUND_CANONICALIZED>
1

>  <PUBCHEM_CACTVS_COMPLEXITY>
792

>  <PUBCHEM_CACTVS_HBOND_ACCEPTOR>
6

>  <PUBCHEM_CACTVS_HBOND_DONOR>
3

>  <PUBCHEM_CACTVS_ROTATABLE_BOND>
3

>  <PUBCHEM_CACTVS_SUBSKEYS>
AAADceB4OAAAAAAAAAAAAAAAAAAAAAAAAAAwYIEAAAAAAACBQAAAGgAACAAADESgmAIyBoAABgCIAqBSAAACCAAkIAAIiAEGCMgMJzaGNRqCeWCl4BUIuYeK7PzOIAACCAAIAABAAAQQABAAAAAAAAAAAA==

>  <PUBCHEM_IUPAC_OPENEYE_NAME>
5,7-dihydroxy-3-(5-hydroxy-2,2-dimethyl-chromen-6-yl)-6-(3-methylbut-2-enyl)chromen-4-one

>  <PUBCHEM_IUPAC_CAS_NAME>
5,7-dihydroxy-3-(5-hydroxy-2,2-dimethyl-1-benzopyran-6-yl)-6-(3-methylbut-2-enyl)-1-benzopyran-4-one

>  <PUBCHEM_IUPAC_NAME>
5,7-dihydroxy-3-(5-hydroxy-2,2-dimethylchromen-6-yl)-6-(3-methylbut-2-enyl)chromen-4-one

>  <PUBCHEM_IUPAC_SYSTEMATIC_NAME>
3-(2,2-dimethyl-5-oxidanyl-chromen-6-yl)-6-(3-methylbut-2-enyl)-5,7-bis(oxidanyl)chromen-4-one

>  <PUBCHEM_IUPAC_TRADITIONAL_NAME>
5,7-dihydroxy-3-(5-hydroxy-2,2-dimethyl-chromen-6-yl)-6-(3-methylbut-2-enyl)chromone

>  <PUBCHEM_IUPAC_INCHI>
InChI=1S/C25H24O6/c1-13(2)5-6-15-18(26)11-20-21(23(15)28)24(29)17(12-30-20)14-7-8-19-16(22(14)27)9-10-25(3,4)31-19/h5,7-12,26-28H,6H2,1-4H3

>  <PUBCHEM_IUPAC_INCHIKEY>
QQUXNFZAFOMGTQ-UHFFFAOYSA-N

>  <PUBCHEM_XLOGP3_AA>
5.5

>  <PUBCHEM_EXACT_MASS>
420.157

>  <PUBCHEM_MOLECULAR_FORMULA>
C25H24O6

>  <PUBCHEM_MOLECULAR_WEIGHT>
420.461

>  <PUBCHEM_OPENEYE_CAN_SMILES>
CC(=CCC1=C(C=C2C(=C1O)C(=O)C(=CO2)C3=C(C4=C(C=C3)OC(C=C4)(C)C)O)O)C

>  <PUBCHEM_OPENEYE_ISO_SMILES>
CC(=CCC1=C(C=C2C(=C1O)C(=O)C(=CO2)C3=C(C4=C(C=C3)OC(C=C4)(C)C)O)O)C

>  <PUBCHEM_CACTVS_TPSA>
96.2

>  <PUBCHEM_MONOISOTOPIC_WEIGHT>
420.157

>  <PUBCHEM_TOTAL_CHARGE>
0

>  <PUBCHEM_HEAVY_ATOM_COUNT>
31

>  <PUBCHEM_ATOM_DEF_STEREO_COUNT>
0

>  <PUBCHEM_ATOM_UDEF_STEREO_COUNT>
0

>  <PUBCHEM_BOND_DEF_STEREO_COUNT>
0

>  <PUBCHEM_BOND_UDEF_STEREO_COUNT>
0

>  <PUBCHEM_ISOTOPIC_ATOM_COUNT>
0

>  <PUBCHEM_COMPONENT_COUNT>
1

>  <PUBCHEM_CACTVS_TAUTO_COUNT>
24

>  <PUBCHEM_COORDINATE_TYPE>
1
5
255

>  <PUBCHEM_BONDANNOTATIONS>
11  15  8
11  19  8
16  20  8
16  25  8
17  20  8
17  22  8
17  23  8
18  19  8
2  22  8
2  25  8
21  23  8
21  26  8
22  27  8
26  27  8
8  15  8
8  9  8
9  18  8

$$$$
