5481969
 OpenBabel06101807152D

 53 57  0  0  1  0  0  0  0  0999 V2000
    7.2342    0.6766    0.0000 O   0  0  0  0  0  0  0  0  0  0  0  0
    9.0876    3.7748    0.0000 O   0  0  0  0  0  0  0  0  0  0  0  0
    4.5841   -0.8718    0.0000 O   0  0  0  0  0  0  0  0  0  0  0  0
    4.6361    2.1766    0.0000 O   0  0  0  0  0  0  0  0  0  0  0  0
    5.4803    3.7081    0.0000 O   0  0  0  0  0  0  0  0  0  0  0  0
    6.4213   -4.0201    0.0000 O   0  0  0  0  0  0  0  0  0  0  0  0
    5.5021    0.6766    0.0000 C   0  0  0  0  0  0  0  0  0  0  0  0
   10.0273    3.2323    0.0000 C   0  0  0  0  0  0  0  0  0  0  0  0
    4.5921    0.1698    0.0000 C   0  0  3  0  0  0  0  0  0  0  0  0
    7.2342    1.6766    0.0000 C   0  0  0  0  0  0  0  0  0  0  0  0
    8.1442    2.1835    0.0000 C   0  0  0  0  0  0  0  0  0  0  0  0
    6.3682    0.1766    0.0000 C   0  0  0  0  0  0  0  0  0  0  0  0
    6.3682    2.1766    0.0000 C   0  0  0  0  0  0  0  0  0  0  0  0
    8.1522    3.2251    0.0000 C   0  0  0  0  0  0  0  0  0  0  0  0
    5.5021    1.6766    0.0000 C   0  0  0  0  0  0  0  0  0  0  0  0
    6.3842   -0.8649    0.0000 C   0  0  0  0  0  0  0  0  0  0  0  0
   10.0189    2.1473    0.0000 C   0  0  0  0  0  0  0  0  0  0  0  0
    9.0710    1.6194    0.0000 C   0  0  0  0  0  0  0  0  0  0  0  0
    6.3521    3.2181    0.0000 C   0  0  0  0  0  0  0  0  0  0  0  0
    5.4862   -1.3926    0.0000 C   0  0  0  0  0  0  0  0  0  0  0  0
    7.2501    3.7459    0.0000 C   0  0  0  0  0  0  0  0  0  0  0  0
   11.0273    3.2284    0.0000 C   0  0  0  0  0  0  0  0  0  0  0  0
   10.5306    4.0964    0.0000 C   0  0  0  0  0  0  0  0  0  0  0  0
    3.7319    0.6797    0.0000 C   0  0  0  0  0  0  0  0  0  0  0  0
    7.3361   -1.3855    0.0000 C   0  0  0  0  0  0  0  0  0  0  0  0
    5.4778   -2.4776    0.0000 C   0  0  0  0  0  0  0  0  0  0  0  0
    2.8602    0.1898    0.0000 C   0  0  0  0  0  0  0  0  0  0  0  0
    7.3529   -2.4704    0.0000 C   0  0  0  0  0  0  0  0  0  0  0  0
    6.4174   -3.0201    0.0000 C   0  0  0  0  0  0  0  0  0  0  0  0
    2.0000    0.6998    0.0000 C   0  0  0  0  0  0  0  0  0  0  0  0
    2.8486   -0.8101    0.0000 C   0  0  0  0  0  0  0  0  0  0  0  0
    4.0522   -0.1350    0.0000 H   0  0  0  0  0  0  0  0  0  0  0  0
   10.5522    1.8311    0.0000 H   0  0  0  0  0  0  0  0  0  0  0  0
    9.0591    0.9995    0.0000 H   0  0  0  0  0  0  0  0  0  0  0  0
    7.2477    4.3659    0.0000 H   0  0  0  0  0  0  0  0  0  0  0  0
   11.0663    3.7843    0.0000 H   0  0  0  0  0  0  0  0  0  0  0  0
   10.8427    4.6321    0.0000 H   0  0  0  0  0  0  0  0  0  0  0  0
    9.9949    4.4084    0.0000 H   0  0  0  0  0  0  0  0  0  0  0  0
   11.0249    2.6084    0.0000 H   0  0  0  0  0  0  0  0  0  0  0  0
   11.6472    3.2260    0.0000 H   0  0  0  0  0  0  0  0  0  0  0  0
   11.0296    3.8484    0.0000 H   0  0  0  0  0  0  0  0  0  0  0  0
    3.7391    1.2997    0.0000 H   0  0  0  0  0  0  0  0  0  0  0  0
    7.8670   -1.0652    0.0000 H   0  0  0  0  0  0  0  0  0  0  0  0
    4.9397   -2.7855    0.0000 H   0  0  0  0  0  0  0  0  0  0  0  0
    7.8934   -2.7742    0.0000 H   0  0  0  0  0  0  0  0  0  0  0  0
    5.4732    4.3280    0.0000 H   0  0  0  0  0  0  0  0  0  0  0  0
    2.3162    1.2331    0.0000 H   0  0  0  0  0  0  0  0  0  0  0  0
    2.2287   -0.8030    0.0000 H   0  0  0  0  0  0  0  0  0  0  0  0
    2.8414   -1.4301    0.0000 H   0  0  0  0  0  0  0  0  0  0  0  0
    3.4686   -0.8173    0.0000 H   0  0  0  0  0  0  0  0  0  0  0  0
    1.4667    1.0160    0.0000 H   0  0  0  0  0  0  0  0  0  0  0  0
    1.6838    0.1665    0.0000 H   0  0  0  0  0  0  0  0  0  0  0  0
    6.9594   -4.3280    0.0000 H   0  0  0  0  0  0  0  0  0  0  0  0
  1 10  1  0  0  0  0
  1 12  1  0  0  0  0
  2  8  1  0  0  0  0
  2 14  1  0  0  0  0
  3  9  1  0  0  0  0
  3 20  1  0  0  0  0
  4 15  2  0  0  0  0
  5 19  1  0  0  0  0
  5 46  1  0  0  0  0
  6 29  1  0  0  0  0
  6 53  1  0  0  0  0
  7  9  1  0  0  0  0
  7 12  2  0  0  0  0
  7 15  1  0  0  0  0
  8 17  1  0  0  0  0
  8 22  1  0  0  0  0
  8 23  1  0  0  0  0
  9 24  1  0  0  0  0
  9 32  1  0  0  0  0
 10 11  1  0  0  0  0
 10 13  2  0  0  0  0
 11 14  2  0  0  0  0
 11 18  1  0  0  0  0
 12 16  1  0  0  0  0
 13 15  1  0  0  0  0
 13 19  1  0  0  0  0
 14 21  1  0  0  0  0
 16 20  2  0  0  0  0
 16 25  1  0  0  0  0
 17 18  2  0  0  0  0
 17 33  1  0  0  0  0
 18 34  1  0  0  0  0
 19 21  2  0  0  0  0
 20 26  1  0  0  0  0
 21 35  1  0  0  0  0
 22 39  1  0  0  0  0
 22 40  1  0  0  0  0
 22 41  1  0  0  0  0
 23 36  1  0  0  0  0
 23 37  1  0  0  0  0
 23 38  1  0  0  0  0
 24 27  2  0  0  0  0
 24 42  1  0  0  0  0
 25 28  2  0  0  0  0
 25 43  1  0  0  0  0
 26 29  2  0  0  0  0
 26 44  1  0  0  0  0
 27 30  1  0  0  0  0
 27 31  1  0  0  0  0
 28 29  1  0  0  0  0
 28 45  1  0  0  0  0
 30 47  1  0  0  0  0
 30 51  1  0  0  0  0
 30 52  1  0  0  0  0
 31 48  1  0  0  0  0
 31 49  1  0  0  0  0
 31 50  1  0  0  0  0
M  END
>  <PUBCHEM_COMPOUND_CID>
5481969

>  <PUBCHEM_COMPOUND_CANONICALIZED>
1

>  <PUBCHEM_CACTVS_COMPLEXITY>
850

>  <PUBCHEM_CACTVS_HBOND_ACCEPTOR>
6

>  <PUBCHEM_CACTVS_HBOND_DONOR>
2

>  <PUBCHEM_CACTVS_ROTATABLE_BOND>
1

>  <PUBCHEM_CACTVS_SUBSKEYS>
AAADceB4OAAAAAAAAAAAAAAAAAAAAAAAAAAwYIECAAAAAACRQAAAGgAACAAADFSgmAIyBoAABgCIAqBSAAACCAAkIAAIiAEGCMgMJzaGNRqCeWCl4BUIuQeI7OzOIAACCAAIAABAAAQQABAAAAAAAAAAAA==

>  <PUBCHEM_IUPAC_INCHI>
InChI=1S/C25H22O6/c1-12(2)9-19-21-22(28)20-16(27)11-18-15(7-8-25(3,4)31-18)23(20)30-24(21)14-6-5-13(26)10-17(14)29-19/h5-11,19,26-27H,1-4H3

>  <PUBCHEM_IUPAC_INCHIKEY>
GDQXJMLXEYSICD-UHFFFAOYSA-N

>  <PUBCHEM_XLOGP3_AA>
5.2

>  <PUBCHEM_EXACT_MASS>
418.142

>  <PUBCHEM_MOLECULAR_FORMULA>
C25H22O6

>  <PUBCHEM_MOLECULAR_WEIGHT>
418.445

>  <PUBCHEM_OPENEYE_CAN_SMILES>
CC(=CC1C2=C(C3=C(O1)C=C(C=C3)O)OC4=C5C=CC(OC5=CC(=C4C2=O)O)(C)C)C

>  <PUBCHEM_OPENEYE_ISO_SMILES>
CC(=CC1C2=C(C3=C(O1)C=C(C=C3)O)OC4=C5C=CC(OC5=CC(=C4C2=O)O)(C)C)C

>  <PUBCHEM_CACTVS_TPSA>
85.2

>  <PUBCHEM_MONOISOTOPIC_WEIGHT>
418.142

>  <PUBCHEM_TOTAL_CHARGE>
0

>  <PUBCHEM_HEAVY_ATOM_COUNT>
31

>  <PUBCHEM_ATOM_DEF_STEREO_COUNT>
0

>  <PUBCHEM_ATOM_UDEF_STEREO_COUNT>
1

>  <PUBCHEM_BOND_DEF_STEREO_COUNT>
0

>  <PUBCHEM_BOND_UDEF_STEREO_COUNT>
0

>  <PUBCHEM_ISOTOPIC_ATOM_COUNT>
0

>  <PUBCHEM_COMPONENT_COUNT>
1

>  <PUBCHEM_CACTVS_TAUTO_COUNT>
35

>  <PUBCHEM_COORDINATE_TYPE>
1
5
255

>  <PUBCHEM_BONDANNOTATIONS>
1  10  8
1  12  8
10  11  8
10  13  8
11  14  8
13  15  8
13  19  8
14  21  8
16  20  8
16  25  8
19  21  8
20  26  8
25  28  8
26  29  8
28  29  8
7  12  8
7  15  8
9  24  3

$$$$
