5481234
 OpenBabel06101807152D

 42 45  0  0  0  0  0  0  0  0999 V2000
   10.4263    1.6076    0.0000 O   0  0  0  0  0  0  0  0  0  0  0  0
    6.0682   -1.9270    0.0000 O   0  0  0  0  0  0  0  0  0  0  0  0
    8.6663   -1.4270    0.0000 O   0  0  0  0  0  0  0  0  0  0  0  0
    6.0682    1.0730    0.0000 O   0  0  0  0  0  0  0  0  0  0  0  0
    4.3198    1.1075    0.0000 O   0  0  0  0  0  0  0  0  0  0  0  0
    2.5381   -1.9512    0.0000 O   0  0  0  0  0  0  0  0  0  0  0  0
   11.3324    1.0938    0.0000 C   0  0  0  0  0  0  0  0  0  0  0  0
    9.5323    0.0729    0.0000 C   0  0  0  0  0  0  0  0  0  0  0  0
    9.5323    1.0730    0.0000 C   0  0  0  0  0  0  0  0  0  0  0  0
   11.3324    0.0521    0.0000 C   0  0  0  0  0  0  0  0  0  0  0  0
   12.3324    1.0976    0.0000 C   0  0  0  0  0  0  0  0  0  0  0  0
   11.8290    1.9617    0.0000 C   0  0  0  0  0  0  0  0  0  0  0  0
   10.4263   -0.4617    0.0000 C   0  0  0  0  0  0  0  0  0  0  0  0
    7.8003    0.0729    0.0000 C   0  0  0  0  0  0  0  0  0  0  0  0
    8.6663   -0.4270    0.0000 C   0  0  0  0  0  0  0  0  0  0  0  0
    8.6663    1.5730    0.0000 C   0  0  0  0  0  0  0  0  0  0  0  0
    6.9343   -0.4270    0.0000 C   0  0  0  0  0  0  0  0  0  0  0  0
    7.8003    1.0730    0.0000 C   0  0  0  0  0  0  0  0  0  0  0  0
    6.0682    0.0729    0.0000 C   0  0  0  0  0  0  0  0  0  0  0  0
    5.2022   -0.4270    0.0000 C   0  0  0  0  0  0  0  0  0  0  0  0
    5.2022   -1.4270    0.0000 C   0  0  0  0  0  0  0  0  0  0  0  0
    6.9343   -1.4270    0.0000 C   0  0  0  0  0  0  0  0  0  0  0  0
    4.3083    0.1076    0.0000 C   0  0  0  0  0  0  0  0  0  0  0  0
    4.3083   -1.9617    0.0000 C   0  0  0  0  0  0  0  0  0  0  0  0
    3.4022   -0.4062    0.0000 C   0  0  0  0  0  0  0  0  0  0  0  0
    3.4022   -1.4479    0.0000 C   0  0  0  0  0  0  0  0  0  0  0  0
   11.8681   -0.2599    0.0000 H   0  0  0  0  0  0  0  0  0  0  0  0
   12.3347    0.4776    0.0000 H   0  0  0  0  0  0  0  0  0  0  0  0
   12.9524    1.1000    0.0000 H   0  0  0  0  0  0  0  0  0  0  0  0
   12.3671    1.6538    0.0000 H   0  0  0  0  0  0  0  0  0  0  0  0
   12.1369    2.4998    0.0000 H   0  0  0  0  0  0  0  0  0  0  0  0
   11.2909    2.2696    0.0000 H   0  0  0  0  0  0  0  0  0  0  0  0
   12.3300    1.7176    0.0000 H   0  0  0  0  0  0  0  0  0  0  0  0
   10.4191   -1.0817    0.0000 H   0  0  0  0  0  0  0  0  0  0  0  0
    8.6663    2.1930    0.0000 H   0  0  0  0  0  0  0  0  0  0  0  0
    7.2634    1.3829    0.0000 H   0  0  0  0  0  0  0  0  0  0  0  0
    7.4712   -1.7370    0.0000 H   0  0  0  0  0  0  0  0  0  0  0  0
    4.3154   -2.5817    0.0000 H   0  0  0  0  0  0  0  0  0  0  0  0
    9.2033   -1.7370    0.0000 H   0  0  0  0  0  0  0  0  0  0  0  0
    2.8665   -0.0942    0.0000 H   0  0  0  0  0  0  0  0  0  0  0  0
    3.7865    1.4237    0.0000 H   0  0  0  0  0  0  0  0  0  0  0  0
    2.0000   -1.6433    0.0000 H   0  0  0  0  0  0  0  0  0  0  0  0
  1  7  1  0  0  0  0
  1  9  1  0  0  0  0
  2 21  1  0  0  0  0
  2 22  1  0  0  0  0
  3 15  1  0  0  0  0
  3 39  1  0  0  0  0
  4 19  2  0  0  0  0
  5 23  1  0  0  0  0
  5 41  1  0  0  0  0
  6 26  1  0  0  0  0
  6 42  1  0  0  0  0
  7 10  1  0  0  0  0
  7 11  1  0  0  0  0
  7 12  1  0  0  0  0
  8  9  2  0  0  0  0
  8 13  1  0  0  0  0
  8 15  1  0  0  0  0
  9 16  1  0  0  0  0
 10 13  2  0  0  0  0
 10 27  1  0  0  0  0
 11 28  1  0  0  0  0
 11 29  1  0  0  0  0
 11 33  1  0  0  0  0
 12 30  1  0  0  0  0
 12 31  1  0  0  0  0
 12 32  1  0  0  0  0
 13 34  1  0  0  0  0
 14 15  2  0  0  0  0
 14 17  1  0  0  0  0
 14 18  1  0  0  0  0
 16 18  2  0  0  0  0
 16 35  1  0  0  0  0
 17 19  1  0  0  0  0
 17 22  2  0  0  0  0
 18 36  1  0  0  0  0
 19 20  1  0  0  0  0
 20 21  1  0  0  0  0
 20 23  2  0  0  0  0
 21 24  2  0  0  0  0
 22 37  1  0  0  0  0
 23 25  1  0  0  0  0
 24 26  1  0  0  0  0
 24 38  1  0  0  0  0
 25 26  2  0  0  0  0
 25 40  1  0  0  0  0
M  END
>  <PUBCHEM_COMPOUND_CID>
5481234

>  <PUBCHEM_COMPOUND_CANONICALIZED>
1

>  <PUBCHEM_CACTVS_COMPLEXITY>
638

>  <PUBCHEM_CACTVS_HBOND_ACCEPTOR>
6

>  <PUBCHEM_CACTVS_HBOND_DONOR>
3

>  <PUBCHEM_CACTVS_ROTATABLE_BOND>
1

>  <PUBCHEM_CACTVS_SUBSKEYS>
AAADceB4OAAAAAAAAAAAAAAAAAAAAAAAAAAwYIEAAAAAAACBQAAAGgAACAAADESgmAIyBoAABgCIAqBSAAACCAAkIAAIiAEGCMgMJzaGNRqCeWCl4BUIuYeK7PzOIAACCAAIAABAAAQQABAAAAAAAAAAAA==

>  <PUBCHEM_IUPAC_OPENEYE_NAME>
5,7-dihydroxy-3-(5-hydroxy-2,2-dimethyl-chromen-6-yl)chromen-4-one

>  <PUBCHEM_IUPAC_CAS_NAME>
5,7-dihydroxy-3-(5-hydroxy-2,2-dimethyl-1-benzopyran-6-yl)-1-benzopyran-4-one

>  <PUBCHEM_IUPAC_NAME>
5,7-dihydroxy-3-(5-hydroxy-2,2-dimethylchromen-6-yl)chromen-4-one

>  <PUBCHEM_IUPAC_SYSTEMATIC_NAME>
3-(2,2-dimethyl-5-oxidanyl-chromen-6-yl)-5,7-bis(oxidanyl)chromen-4-one

>  <PUBCHEM_IUPAC_TRADITIONAL_NAME>
5,7-dihydroxy-3-(5-hydroxy-2,2-dimethyl-chromen-6-yl)chromone

>  <PUBCHEM_IUPAC_INCHI>
InChI=1S/C20H16O6/c1-20(2)6-5-12-15(26-20)4-3-11(18(12)23)13-9-25-16-8-10(21)7-14(22)17(16)19(13)24/h3-9,21-23H,1-2H3

>  <PUBCHEM_IUPAC_INCHIKEY>
KIZPADOTOCPASX-UHFFFAOYSA-N

>  <PUBCHEM_XLOGP3_AA>
3.6

>  <PUBCHEM_EXACT_MASS>
352.095

>  <PUBCHEM_MOLECULAR_FORMULA>
C20H16O6

>  <PUBCHEM_MOLECULAR_WEIGHT>
352.342

>  <PUBCHEM_OPENEYE_CAN_SMILES>
CC1(C=CC2=C(O1)C=CC(=C2O)C3=COC4=CC(=CC(=C4C3=O)O)O)C

>  <PUBCHEM_OPENEYE_ISO_SMILES>
CC1(C=CC2=C(O1)C=CC(=C2O)C3=COC4=CC(=CC(=C4C3=O)O)O)C

>  <PUBCHEM_CACTVS_TPSA>
96.2

>  <PUBCHEM_MONOISOTOPIC_WEIGHT>
352.095

>  <PUBCHEM_TOTAL_CHARGE>
0

>  <PUBCHEM_HEAVY_ATOM_COUNT>
26

>  <PUBCHEM_ATOM_DEF_STEREO_COUNT>
0

>  <PUBCHEM_ATOM_UDEF_STEREO_COUNT>
0

>  <PUBCHEM_BOND_DEF_STEREO_COUNT>
0

>  <PUBCHEM_BOND_UDEF_STEREO_COUNT>
0

>  <PUBCHEM_ISOTOPIC_ATOM_COUNT>
0

>  <PUBCHEM_COMPONENT_COUNT>
1

>  <PUBCHEM_CACTVS_TAUTO_COUNT>
24

>  <PUBCHEM_COORDINATE_TYPE>
1
5
255

>  <PUBCHEM_BONDANNOTATIONS>
14  15  8
14  18  8
16  18  8
17  19  8
17  22  8
19  20  8
2  21  8
2  22  8
20  21  8
20  23  8
21  24  8
23  25  8
24  26  8
25  26  8
8  15  8
8  9  8
9  16  8

$$$$
