5487766
 OpenBabel06101807152D

 39 41  0  0  0  0  0  0  0  0999 V2000
    7.8003    2.3450    0.0000 S   0  0  0  0  0  0  0  0  0  0  0  0
    6.0682   -0.6550    0.0000 O   0  0  0  0  0  0  0  0  0  0  0  0
    7.8003    1.3450    0.0000 O   0  0  0  0  0  0  0  0  0  0  0  0
    4.3198    2.3796    0.0000 O   0  0  0  0  0  0  0  0  0  0  0  0
    6.0682    2.3450    0.0000 O   0  0  0  0  0  0  0  0  0  0  0  0
    8.6663   -3.1550    0.0000 O   0  0  0  0  0  0  0  0  0  0  0  0
    2.5381   -0.6792    0.0000 O   0  0  0  0  0  0  0  0  0  0  0  0
   10.3984   -2.1550    0.0000 O   0  0  0  0  0  0  0  0  0  0  0  0
    7.8003    3.3450    0.0000 O   0  0  0  0  0  0  0  0  0  0  0  0
    8.8003    2.3450    0.0000 O   0  0  0  0  0  0  0  0  0  0  0  0
    6.8003    2.3450    0.0000 O   0  0  0  0  0  0  0  0  0  0  0  0
    5.2022    0.8450    0.0000 C   0  0  0  0  0  0  0  0  0  0  0  0
    6.9343   -0.1550    0.0000 C   0  0  0  0  0  0  0  0  0  0  0  0
    5.2022   -0.1550    0.0000 C   0  0  0  0  0  0  0  0  0  0  0  0
    6.9343    0.8450    0.0000 C   0  0  0  0  0  0  0  0  0  0  0  0
    7.8003   -0.6550    0.0000 C   0  0  0  0  0  0  0  0  0  0  0  0
    6.0682    1.3450    0.0000 C   0  0  0  0  0  0  0  0  0  0  0  0
    4.3083    1.3797    0.0000 C   0  0  0  0  0  0  0  0  0  0  0  0
    4.3083   -0.6897    0.0000 C   0  0  0  0  0  0  0  0  0  0  0  0
    7.8003   -1.6550    0.0000 C   0  0  0  0  0  0  0  0  0  0  0  0
    8.6663   -0.1550    0.0000 C   0  0  0  0  0  0  0  0  0  0  0  0
    3.4022    0.8658    0.0000 C   0  0  0  0  0  0  0  0  0  0  0  0
    3.4022   -0.1758    0.0000 C   0  0  0  0  0  0  0  0  0  0  0  0
    8.6663   -2.1550    0.0000 C   0  0  0  0  0  0  0  0  0  0  0  0
    9.5323   -0.6550    0.0000 C   0  0  0  0  0  0  0  0  0  0  0  0
    9.5323   -1.6550    0.0000 C   0  0  0  0  0  0  0  0  0  0  0  0
    9.5323   -3.6550    0.0000 C   0  0  0  0  0  0  0  0  0  0  0  0
    4.3154   -1.3096    0.0000 H   0  0  0  0  0  0  0  0  0  0  0  0
    7.2634   -1.9650    0.0000 H   0  0  0  0  0  0  0  0  0  0  0  0
    8.6663    0.4650    0.0000 H   0  0  0  0  0  0  0  0  0  0  0  0
    2.8665    1.1779    0.0000 H   0  0  0  0  0  0  0  0  0  0  0  0
   10.0693   -0.3450    0.0000 H   0  0  0  0  0  0  0  0  0  0  0  0
    3.7865    2.6958    0.0000 H   0  0  0  0  0  0  0  0  0  0  0  0
    2.0000   -0.3712    0.0000 H   0  0  0  0  0  0  0  0  0  0  0  0
   10.9353   -1.8450    0.0000 H   0  0  0  0  0  0  0  0  0  0  0  0
    9.2224   -4.1919    0.0000 H   0  0  0  0  0  0  0  0  0  0  0  0
   10.0693   -3.9650    0.0000 H   0  0  0  0  0  0  0  0  0  0  0  0
    9.8424   -3.1181    0.0000 H   0  0  0  0  0  0  0  0  0  0  0  0
    8.3372    3.6550    0.0000 H   0  0  0  0  0  0  0  0  0  0  0  0
  1  3  1  0  0  0  0
  1  9  1  0  0  0  0
  1 10  2  0  0  0  0
  1 11  2  0  0  0  0
  2 13  1  0  0  0  0
  2 14  1  0  0  0  0
  3 15  1  0  0  0  0
  4 18  1  0  0  0  0
  4 33  1  0  0  0  0
  5 17  2  0  0  0  0
  6 24  1  0  0  0  0
  6 27  1  0  0  0  0
  7 23  1  0  0  0  0
  7 34  1  0  0  0  0
  8 26  1  0  0  0  0
  8 35  1  0  0  0  0
  9 39  1  0  0  0  0
 12 14  1  0  0  0  0
 12 17  1  0  0  0  0
 12 18  2  0  0  0  0
 13 15  2  0  0  0  0
 13 16  1  0  0  0  0
 14 19  2  0  0  0  0
 15 17  1  0  0  0  0
 16 20  2  0  0  0  0
 16 21  1  0  0  0  0
 18 22  1  0  0  0  0
 19 23  1  0  0  0  0
 19 28  1  0  0  0  0
 20 24  1  0  0  0  0
 20 29  1  0  0  0  0
 21 25  2  0  0  0  0
 21 30  1  0  0  0  0
 22 23  2  0  0  0  0
 22 31  1  0  0  0  0
 24 26  2  0  0  0  0
 25 26  1  0  0  0  0
 25 32  1  0  0  0  0
 27 36  1  0  0  0  0
 27 37  1  0  0  0  0
 27 38  1  0  0  0  0
M  END
>  <PUBCHEM_COMPOUND_CID>
5487766

>  <PUBCHEM_COMPOUND_CANONICALIZED>
1

>  <PUBCHEM_CACTVS_COMPLEXITY>
711

>  <PUBCHEM_CACTVS_HBOND_ACCEPTOR>
10

>  <PUBCHEM_CACTVS_HBOND_DONOR>
4

>  <PUBCHEM_CACTVS_ROTATABLE_BOND>
4

>  <PUBCHEM_CACTVS_SUBSKEYS>
AAADccB4PABAAAAAAAAAAAAAAAAAAAAAAAAwYIAAAAAAAACBQAAAGgAACAAADASAmAIyBoAABoCIAqBSADICCAAkIAAIiAFGiMgNJzaGNRqCeWOl4BULuQfI7LzOIAABCAAIQABAAAIQABCAAAAAAAAAAA==

>  <PUBCHEM_IUPAC_OPENEYE_NAME>
[5,7-dihydroxy-2-(4-hydroxy-3-methoxy-phenyl)-4-oxo-chromen-3-yl] hydrogen sulfate

>  <PUBCHEM_IUPAC_CAS_NAME>
sulfuric acid [5,7-dihydroxy-2-(4-hydroxy-3-methoxyphenyl)-4-oxo-1-benzopyran-3-yl] ester

>  <PUBCHEM_IUPAC_NAME>
[5,7-dihydroxy-2-(4-hydroxy-3-methoxyphenyl)-4-oxochromen-3-yl] hydrogen sulfate

>  <PUBCHEM_IUPAC_SYSTEMATIC_NAME>
[2-(3-methoxy-4-oxidanyl-phenyl)-5,7-bis(oxidanyl)-4-oxidanylidene-chromen-3-yl] hydrogen sulfate

>  <PUBCHEM_IUPAC_TRADITIONAL_NAME>
sulfuric acid [5,7-dihydroxy-2-(4-hydroxy-3-methoxy-phenyl)-4-keto-chromen-3-yl] ester

>  <PUBCHEM_IUPAC_INCHI>
InChI=1S/C16H12O10S/c1-24-11-4-7(2-3-9(11)18)15-16(26-27(21,22)23)14(20)13-10(19)5-8(17)6-12(13)25-15/h2-6,17-19H,1H3,(H,21,22,23)

>  <PUBCHEM_IUPAC_INCHIKEY>
CZFNXFXZXWDYMZ-UHFFFAOYSA-N

>  <PUBCHEM_XLOGP3_AA>
1.9

>  <PUBCHEM_EXACT_MASS>
396.015

>  <PUBCHEM_MOLECULAR_FORMULA>
C16H12O10S

>  <PUBCHEM_MOLECULAR_WEIGHT>
396.322

>  <PUBCHEM_OPENEYE_CAN_SMILES>
COC1=C(C=CC(=C1)C2=C(C(=O)C3=C(C=C(C=C3O2)O)O)OS(=O)(=O)O)O

>  <PUBCHEM_OPENEYE_ISO_SMILES>
COC1=C(C=CC(=C1)C2=C(C(=O)C3=C(C=C(C=C3O2)O)O)OS(=O)(=O)O)O

>  <PUBCHEM_CACTVS_TPSA>
168

>  <PUBCHEM_MONOISOTOPIC_WEIGHT>
396.015

>  <PUBCHEM_TOTAL_CHARGE>
0

>  <PUBCHEM_HEAVY_ATOM_COUNT>
27

>  <PUBCHEM_ATOM_DEF_STEREO_COUNT>
0

>  <PUBCHEM_ATOM_UDEF_STEREO_COUNT>
0

>  <PUBCHEM_BOND_DEF_STEREO_COUNT>
0

>  <PUBCHEM_BOND_UDEF_STEREO_COUNT>
0

>  <PUBCHEM_ISOTOPIC_ATOM_COUNT>
0

>  <PUBCHEM_COMPONENT_COUNT>
1

>  <PUBCHEM_CACTVS_TAUTO_COUNT>
69

>  <PUBCHEM_COORDINATE_TYPE>
1
5
255

>  <PUBCHEM_BONDANNOTATIONS>
12  14  8
12  17  8
12  18  8
13  15  8
14  19  8
15  17  8
16  20  8
16  21  8
18  22  8
19  23  8
2  13  8
2  14  8
20  24  8
21  25  8
22  23  8
24  26  8
25  26  8

$$$$
