5488811
 OpenBabel06101807152D

 77 81  0  0  1  0  0  0  0  0999 V2000
    6.9245   -1.6383    0.0000 O   0  0  0  0  0  0  0  0  0  0  0  0
    5.1370    2.3485    0.0000 O   0  0  0  0  0  0  0  0  0  0  0  0
    8.6565   -1.6383    0.0000 O   0  0  0  0  0  0  0  0  0  0  0  0
    6.0203    0.8586    0.0000 O   0  0  0  0  0  0  0  0  0  0  0  0
    6.9245   -4.6383    0.0000 O   0  0  0  0  0  0  0  0  0  0  0  0
    5.1924   -3.6383    0.0000 O   0  0  0  0  0  0  0  0  0  0  0  0
    2.5564    0.8185    0.0000 O   0  0  0  0  0  0  0  0  0  0  0  0
    2.5333    2.8184    0.0000 O   0  0  0  0  0  0  0  0  0  0  0  0
    8.6565   -3.6383    0.0000 O   0  0  0  0  0  0  0  0  0  0  0  0
    4.2999   -0.1614    0.0000 O   0  0  0  0  0  0  0  0  0  0  0  0
    4.3264   -2.1383    0.0000 O   0  0  0  0  0  0  0  0  0  0  0  0
    3.3819    4.3283    0.0000 O   0  0  0  0  0  0  0  0  0  0  0  0
    9.5226    0.8617    0.0000 O   0  3  0  0  0  0  0  0  0  0  0  0
    7.7784    3.9310    0.0000 O   0  0  0  0  0  0  0  0  0  0  0  0
   11.2546   -3.1383    0.0000 O   0  0  0  0  0  0  0  0  0  0  0  0
   12.9867   -2.1383    0.0000 O   0  0  0  0  0  0  0  0  0  0  0  0
    6.9245   -3.6383    0.0000 C   0  0  1  0  0  0  0  0  0  0  0  0
    6.0584   -3.1383    0.0000 C   0  0  1  0  0  0  0  0  0  0  0  0
    3.4166    1.3285    0.0000 C   0  0  1  0  0  0  0  0  0  0  0  0
    3.4051    2.3284    0.0000 C   0  0  1  0  0  0  0  0  0  0  0  0
    7.7905   -3.1383    0.0000 C   0  0  2  0  0  0  0  0  0  0  0  0
    4.2884    0.8386    0.0000 C   0  0  2  0  0  0  0  0  0  0  0  0
    6.0584   -2.1383    0.0000 C   0  0  1  0  0  0  0  0  0  0  0  0
    4.2652    2.8384    0.0000 C   0  0  1  0  0  0  0  0  0  0  0  0
    7.7905   -2.1383    0.0000 C   0  0  1  0  0  0  0  0  0  0  0  0
    5.1486    1.3485    0.0000 C   0  0  1  0  0  0  0  0  0  0  0  0
    5.1924   -1.6383    0.0000 C   0  0  0  0  0  0  0  0  0  0  0  0
    4.2537    3.8384    0.0000 C   0  0  0  0  0  0  0  0  0  0  0  0
    6.8805    1.3686    0.0000 C   0  0  0  0  0  0  0  0  0  0  0  0
    8.6565   -0.6383    0.0000 C   0  0  0  0  0  0  0  0  0  0  0  0
    7.7905    0.8617    0.0000 C   0  0  0  0  0  0  0  0  0  0  0  0
    7.7905   -0.1383    0.0000 C   0  0  0  0  0  0  0  0  0  0  0  0
    9.5226   -0.1383    0.0000 C   0  0  0  0  0  0  0  0  0  0  0  0
    8.6565    1.3617    0.0000 C   0  0  0  0  0  0  0  0  0  0  0  0
    6.8725    2.4102    0.0000 C   0  0  0  0  0  0  0  0  0  0  0  0
    8.6726    2.4032    0.0000 C   0  0  0  0  0  0  0  0  0  0  0  0
    7.7746    2.9310    0.0000 C   0  0  0  0  0  0  0  0  0  0  0  0
   10.3886   -0.6383    0.0000 C   0  0  0  0  0  0  0  0  0  0  0  0
   10.3886   -1.6383    0.0000 C   0  0  0  0  0  0  0  0  0  0  0  0
   11.2546   -0.1383    0.0000 C   0  0  0  0  0  0  0  0  0  0  0  0
   11.2546   -2.1383    0.0000 C   0  0  0  0  0  0  0  0  0  0  0  0
   12.1206   -0.6383    0.0000 C   0  0  0  0  0  0  0  0  0  0  0  0
   12.1206   -1.6383    0.0000 C   0  0  0  0  0  0  0  0  0  0  0  0
   10.3886   -3.6383    0.0000 C   0  0  0  0  0  0  0  0  0  0  0  0
    7.4614   -3.9483    0.0000 H   0  0  0  0  0  0  0  0  0  0  0  0
    5.5215   -2.8283    0.0000 H   0  0  0  0  0  0  0  0  0  0  0  0
    3.4238    0.7086    0.0000 H   0  0  0  0  0  0  0  0  0  0  0  0
    2.8718    2.0123    0.0000 H   0  0  0  0  0  0  0  0  0  0  0  0
    8.3274   -2.8283    0.0000 H   0  0  0  0  0  0  0  0  0  0  0  0
    4.8289    0.5348    0.0000 H   0  0  0  0  0  0  0  0  0  0  0  0
    6.0584   -1.5183    0.0000 H   0  0  0  0  0  0  0  0  0  0  0  0
    4.7986    3.1546    0.0000 H   0  0  0  0  0  0  0  0  0  0  0  0
    7.7905   -1.5183    0.0000 H   0  0  0  0  0  0  0  0  0  0  0  0
    5.6819    1.6647    0.0000 H   0  0  0  0  0  0  0  0  0  0  0  0
    5.5910   -1.1633    0.0000 H   0  0  0  0  0  0  0  0  0  0  0  0
    4.7939   -1.1633    0.0000 H   0  0  0  0  0  0  0  0  0  0  0  0
    4.8655    3.7378    0.0000 H   0  0  0  0  0  0  0  0  0  0  0  0
    4.4590    4.4234    0.0000 H   0  0  0  0  0  0  0  0  0  0  0  0
    6.3875   -4.9483    0.0000 H   0  0  0  0  0  0  0  0  0  0  0  0
    5.1924   -4.2583    0.0000 H   0  0  0  0  0  0  0  0  0  0  0  0
    2.0160    1.1223    0.0000 H   0  0  0  0  0  0  0  0  0  0  0  0
    2.0000    2.5022    0.0000 H   0  0  0  0  0  0  0  0  0  0  0  0
    8.6565   -4.2583    0.0000 H   0  0  0  0  0  0  0  0  0  0  0  0
    3.7666   -0.4776    0.0000 H   0  0  0  0  0  0  0  0  0  0  0  0
    7.2536   -0.4483    0.0000 H   0  0  0  0  0  0  0  0  0  0  0  0
    3.7895   -1.8283    0.0000 H   0  0  0  0  0  0  0  0  0  0  0  0
    3.3748    4.9483    0.0000 H   0  0  0  0  0  0  0  0  0  0  0  0
    6.3343    2.7181    0.0000 H   0  0  0  0  0  0  0  0  0  0  0  0
    9.2131    2.7070    0.0000 H   0  0  0  0  0  0  0  0  0  0  0  0
    9.8516   -1.9483    0.0000 H   0  0  0  0  0  0  0  0  0  0  0  0
   11.2546    0.4817    0.0000 H   0  0  0  0  0  0  0  0  0  0  0  0
    8.3165    4.2389    0.0000 H   0  0  0  0  0  0  0  0  0  0  0  0
   12.6576   -0.3283    0.0000 H   0  0  0  0  0  0  0  0  0  0  0  0
   12.9867   -2.7583    0.0000 H   0  0  0  0  0  0  0  0  0  0  0  0
   10.0786   -3.1013    0.0000 H   0  0  0  0  0  0  0  0  0  0  0  0
    9.8516   -3.9483    0.0000 H   0  0  0  0  0  0  0  0  0  0  0  0
   10.6986   -4.1752    0.0000 H   0  0  0  0  0  0  0  0  0  0  0  0
  1 23  1  0  0  0  0
  1 25  1  0  0  0  0
  2 24  1  0  0  0  0
  2 26  1  0  0  0  0
  3 30  1  0  0  0  0
  4 29  1  0  0  0  0
  5 59  1  0  0  0  0
  6 60  1  0  0  0  0
  7 61  1  0  0  0  0
  8 62  1  0  0  0  0
  9 63  1  0  0  0  0
 10 64  1  0  0  0  0
 11 27  1  0  0  0  0
 11 66  1  0  0  0  0
 12 28  1  0  0  0  0
 12 67  1  0  0  0  0
 13 33  1  0  0  0  0
 13 34  2  0  0  0  0
 14 37  1  0  0  0  0
 14 72  1  0  0  0  0
 15 41  1  0  0  0  0
 15 44  1  0  0  0  0
 16 43  1  0  0  0  0
 16 74  1  0  0  0  0
 17  5  1  0  0  0  0
 17 18  1  6  0  0  0
 17 45  1  0  0  0  0
 18  6  1  0  0  0  0
 18 23  1  6  0  0  0
 18 46  1  0  0  0  0
 19  7  1  0  0  0  0
 19 20  1  6  0  0  0
 19 47  1  0  0  0  0
 20  8  1  0  0  0  0
 20 24  1  1  0  0  0
 20 48  1  0  0  0  0
 21  9  1  0  0  0  0
 21 17  1  1  0  0  0
 21 49  1  0  0  0  0
 22 10  1  0  0  0  0
 22 19  1  1  0  0  0
 22 50  1  0  0  0  0
 23 27  1  0  0  0  0
 23 51  1  6  0  0  0
 24 28  1  0  0  0  0
 24 52  1  6  0  0  0
 25  3  1  0  0  0  0
 25 21  1  6  0  0  0
 25 53  1  0  0  0  0
 26  4  1  0  0  0  0
 26 22  1  6  0  0  0
 26 54  1  0  0  0  0
 27 55  1  0  0  0  0
 27 56  1  0  0  0  0
 28 57  1  0  0  0  0
 28 58  1  0  0  0  0
 29 31  1  0  0  0  0
 29 35  2  0  0  0  0
 30 32  1  0  0  0  0
 30 33  2  0  0  0  0
 31 32  2  0  0  0  0
 31 34  1  0  0  0  0
 32 65  1  0  0  0  0
 33 38  1  0  0  0  0
 34 36  1  0  0  0  0
 35 37  1  0  0  0  0
 35 68  1  0  0  0  0
 36 37  2  0  0  0  0
 36 69  1  0  0  0  0
 38 39  2  0  0  0  0
 38 40  1  0  0  0  0
 39 41  1  0  0  0  0
 39 70  1  0  0  0  0
 40 42  2  0  0  0  0
 40 71  1  0  0  0  0
 41 43  2  0  0  0  0
 42 43  1  0  0  0  0
 42 73  1  0  0  0  0
 44 75  1  0  0  0  0
 44 76  1  0  0  0  0
 44 77  1  0  0  0  0
M  CHG  1  13   1
M  END
>  <PUBCHEM_COMPOUND_CID>
5488811

>  <PUBCHEM_COMPOUND_CANONICALIZED>
1

>  <PUBCHEM_CACTVS_COMPLEXITY>
915

>  <PUBCHEM_CACTVS_HBOND_ACCEPTOR>
15

>  <PUBCHEM_CACTVS_HBOND_DONOR>
10

>  <PUBCHEM_CACTVS_ROTATABLE_BOND>
8

>  <PUBCHEM_CACTVS_SUBSKEYS>
AAADcfB4PgAAAAAAAAAAAAAAAAAAAAAAAAA0aJECAAAAAACR9AAAGgAACAAADBSwmAMyDsAABkCIAqBSAAICCAAkIAAIiAFGiMgdNzaGNR6ieWOl4BUPuYfK7PzOIAABCAAIQABAAAIQABCAAAAAAAAAAA==

>  <PUBCHEM_IUPAC_OPENEYE_NAME>
(2S,3R,4S,5S,6R)-2-[7-hydroxy-2-(4-hydroxy-3-methoxy-phenyl)-3-[(2S,3R,4S,5S,6R)-3,4,5-trihydroxy-6-(hydroxymethyl)tetrahydropyran-2-yl]oxy-chromenylium-5-yl]oxy-6-(hydroxymethyl)tetrahydropyran-3,4,5-triol

>  <PUBCHEM_IUPAC_CAS_NAME>
(2S,3R,4S,5S,6R)-2-[[7-hydroxy-2-(4-hydroxy-3-methoxyphenyl)-3-[[(2S,3R,4S,5S,6R)-3,4,5-trihydroxy-6-(hydroxymethyl)-2-oxanyl]oxy]-1-benzopyrylium-5-yl]oxy]-6-(hydroxymethyl)oxane-3,4,5-triol

>  <PUBCHEM_IUPAC_NAME>
(2S,3R,4S,5S,6R)-2-[7-hydroxy-2-(4-hydroxy-3-methoxyphenyl)-3-[(2S,3R,4S,5S,6R)-3,4,5-trihydroxy-6-(hydroxymethyl)oxan-2-yl]oxychromenylium-5-yl]oxy-6-(hydroxymethyl)oxane-3,4,5-triol

>  <PUBCHEM_IUPAC_SYSTEMATIC_NAME>
(2R,3S,4S,5R,6S)-2-(hydroxymethyl)-6-[3-[(2S,3R,4S,5S,6R)-6-(hydroxymethyl)-3,4,5-tris(oxidanyl)oxan-2-yl]oxy-2-(3-methoxy-4-oxidanyl-phenyl)-7-oxidanyl-chromenylium-5-yl]oxy-oxane-3,4,5-triol

>  <PUBCHEM_IUPAC_TRADITIONAL_NAME>
(2S,3R,4S,5S,6R)-2-[[7-hydroxy-2-(4-hydroxy-3-methoxy-phenyl)-3-[(2S,3R,4S,5S,6R)-3,4,5-trihydroxy-6-methylol-tetrahydropyran-2-yl]oxy-1-benzopyrylium-5-yl]oxy]-6-methylol-tetrahydropyran-3,4,5-triol

>  <PUBCHEM_IUPAC_INCHI>
InChI=1S/C28H32O16/c1-39-16-4-10(2-3-13(16)32)26-17(42-28-25(38)23(36)21(34)19(9-30)44-28)7-12-14(40-26)5-11(31)6-15(12)41-27-24(37)22(35)20(33)18(8-29)43-27/h2-7,18-25,27-30,33-38H,8-9H2,1H3,(H-,31,32)/p+1/t18-,19-,20-,21-,22+,23+,24-,25-,27-,28-/m1/s1

>  <PUBCHEM_IUPAC_INCHIKEY>
IPVSUYLZIAYTOK-DPOJTEBASA-O

>  <PUBCHEM_EXACT_MASS>
625.177

>  <PUBCHEM_MOLECULAR_FORMULA>
C28H33O16+

>  <PUBCHEM_MOLECULAR_WEIGHT>
625.556

>  <PUBCHEM_OPENEYE_CAN_SMILES>
COC1=C(C=CC(=C1)C2=C(C=C3C(=CC(=CC3=[O+]2)O)OC4C(C(C(C(O4)CO)O)O)O)OC5C(C(C(C(O5)CO)O)O)O)O

>  <PUBCHEM_OPENEYE_ISO_SMILES>
COC1=C(C=CC(=C1)C2=C(C=C3C(=CC(=CC3=[O+]2)O)O[C@H]4[C@@H]([C@H]([C@@H]([C@H](O4)CO)O)O)O)O[C@H]5[C@@H]([C@H]([C@@H]([C@H](O5)CO)O)O)O)O

>  <PUBCHEM_CACTVS_TPSA>
249

>  <PUBCHEM_MONOISOTOPIC_WEIGHT>
625.177

>  <PUBCHEM_TOTAL_CHARGE>
1

>  <PUBCHEM_HEAVY_ATOM_COUNT>
44

>  <PUBCHEM_ATOM_DEF_STEREO_COUNT>
10

>  <PUBCHEM_ATOM_UDEF_STEREO_COUNT>
0

>  <PUBCHEM_BOND_DEF_STEREO_COUNT>
0

>  <PUBCHEM_BOND_UDEF_STEREO_COUNT>
0

>  <PUBCHEM_ISOTOPIC_ATOM_COUNT>
0

>  <PUBCHEM_COMPONENT_COUNT>
1

>  <PUBCHEM_CACTVS_TAUTO_COUNT>
23

>  <PUBCHEM_COORDINATE_TYPE>
1
5
255

>  <PUBCHEM_BONDANNOTATIONS>
22  10  6
13  33  8
13  34  8
23  27  5
24  28  5
29  31  8
29  35  8
25  3  5
30  32  8
30  33  8
31  32  8
31  34  8
34  36  8
35  37  8
36  37  8
38  39  8
38  40  8
39  41  8
26  4  5
40  42  8
41  43  8
42  43  8
17  5  5
18  6  6
19  7  5
20  8  6
21  9  6

$$$$
