5488004
 OpenBabel06101807152D

 70 74  0  0  1  0  0  0  0  0999 V2000
    6.8671   -0.9050    0.0000 O   0  0  0  0  0  0  0  0  0  0  0  0
    5.1350   -0.9050    0.0000 O   0  0  0  0  0  0  0  0  0  0  0  0
    7.7331    1.5950    0.0000 O   0  0  0  0  0  0  0  0  0  0  0  0
    5.1350    0.0950    0.0000 O   0  0  0  0  0  0  0  0  0  0  0  0
    8.5991    0.0950    0.0000 O   0  0  0  0  0  0  0  0  0  0  0  0
    5.1350    2.0950    0.0000 O   0  0  0  0  0  0  0  0  0  0  0  0
    6.8671   -2.9050    0.0000 O   0  0  0  0  0  0  0  0  0  0  0  0
    5.1350   -3.9050    0.0000 O   0  0  0  0  0  0  0  0  0  0  0  0
    3.4030   -2.9050    0.0000 O   0  0  0  0  0  0  0  0  0  0  0  0
    7.7331    3.5950    0.0000 O   0  0  0  0  0  0  0  0  0  0  0  0
    2.5369   -1.4050    0.0000 O   0  0  0  0  0  0  0  0  0  0  0  0
    6.0010    3.5950    0.0000 O   0  0  0  0  0  0  0  0  0  0  0  0
    3.4030    0.0950    0.0000 O   0  0  0  0  0  0  0  0  0  0  0  0
   12.1293    0.1055    0.0000 O   0  0  0  0  0  0  0  0  0  0  0  0
   10.3926    3.1468    0.0000 O   0  0  0  0  0  0  0  0  0  0  0  0
   12.1409    3.1055    0.0000 O   0  0  0  0  0  0  0  0  0  0  0  0
   16.4536   -1.4111    0.0000 O   0  0  0  0  0  0  0  0  0  0  0  0
    6.8671    0.0950    0.0000 C   0  0  2  0  0  0  0  0  0  0  0  0
    6.0010    0.5950    0.0000 C   0  0  2  0  0  0  0  0  0  0  0  0
    6.0010   -1.4050    0.0000 C   0  0  2  0  0  0  0  0  0  0  0  0
    6.0010    1.5950    0.0000 C   0  0  1  0  0  0  0  0  0  0  0  0
    6.0010   -2.4050    0.0000 C   0  0  1  0  0  0  0  0  0  0  0  0
    7.7331    0.5950    0.0000 C   0  0  1  0  0  0  0  0  0  0  0  0
    5.1350   -2.9050    0.0000 C   0  0  2  0  0  0  0  0  0  0  0  0
    4.2690   -2.4050    0.0000 C   0  0  1  0  0  0  0  0  0  0  0  0
    6.8671    2.0950    0.0000 C   0  0  1  0  0  0  0  0  0  0  0  0
    4.2690   -1.4050    0.0000 C   0  0  1  0  0  0  0  0  0  0  0  0
    6.8671    3.0950    0.0000 C   0  0  0  0  0  0  0  0  0  0  0  0
    3.4030   -0.9050    0.0000 C   0  0  0  0  0  0  0  0  0  0  0  0
    9.4651    0.5950    0.0000 C   0  0  0  0  0  0  0  0  0  0  0  0
   10.3692    0.0777    0.0000 C   0  0  0  0  0  0  0  0  0  0  0  0
    9.4692    1.6366    0.0000 C   0  0  0  0  0  0  0  0  0  0  0  0
   11.2652    0.6089    0.0000 C   0  0  0  0  0  0  0  0  0  0  0  0
   10.3772    2.1470    0.0000 C   0  0  0  0  0  0  0  0  0  0  0  0
   11.2691    1.6089    0.0000 C   0  0  0  0  0  0  0  0  0  0  0  0
   12.1370    2.1055    0.0000 C   0  0  0  0  0  0  0  0  0  0  0  0
   12.9973    0.6022    0.0000 C   0  0  0  0  0  0  0  0  0  0  0  0
   13.0011    1.6022    0.0000 C   0  0  0  0  0  0  0  0  0  0  0  0
   13.8613    0.0989    0.0000 C   0  0  0  0  0  0  0  0  0  0  0  0
   13.8575   -0.9011    0.0000 C   0  0  0  0  0  0  0  0  0  0  0  0
   14.7293    0.5955    0.0000 C   0  0  0  0  0  0  0  0  0  0  0  0
   14.7216   -1.4045    0.0000 C   0  0  0  0  0  0  0  0  0  0  0  0
   15.5934    0.0922    0.0000 C   0  0  0  0  0  0  0  0  0  0  0  0
   15.5895   -0.9078    0.0000 C   0  0  0  0  0  0  0  0  0  0  0  0
    7.4040   -0.2150    0.0000 H   0  0  0  0  0  0  0  0  0  0  0  0
    6.0010   -0.0250    0.0000 H   0  0  0  0  0  0  0  0  0  0  0  0
    6.0010   -0.7850    0.0000 H   0  0  0  0  0  0  0  0  0  0  0  0
    6.0010    2.2150    0.0000 H   0  0  0  0  0  0  0  0  0  0  0  0
    6.0010   -3.0250    0.0000 H   0  0  0  0  0  0  0  0  0  0  0  0
    8.2700    0.9050    0.0000 H   0  0  0  0  0  0  0  0  0  0  0  0
    4.5981   -3.2150    0.0000 H   0  0  0  0  0  0  0  0  0  0  0  0
    3.7320   -2.0950    0.0000 H   0  0  0  0  0  0  0  0  0  0  0  0
    7.4040    2.4050    0.0000 H   0  0  0  0  0  0  0  0  0  0  0  0
    4.2690   -0.7850    0.0000 H   0  0  0  0  0  0  0  0  0  0  0  0
    4.5981    0.4050    0.0000 H   0  0  0  0  0  0  0  0  0  0  0  0
    5.1350    2.7150    0.0000 H   0  0  0  0  0  0  0  0  0  0  0  0
    7.4040   -2.5950    0.0000 H   0  0  0  0  0  0  0  0  0  0  0  0
    5.6720   -4.2150    0.0000 H   0  0  0  0  0  0  0  0  0  0  0  0
    3.4030   -3.5250    0.0000 H   0  0  0  0  0  0  0  0  0  0  0  0
   10.3740   -0.5423    0.0000 H   0  0  0  0  0  0  0  0  0  0  0  0
    8.9346    1.9508    0.0000 H   0  0  0  0  0  0  0  0  0  0  0  0
    7.7331    4.2150    0.0000 H   0  0  0  0  0  0  0  0  0  0  0  0
    2.0000   -1.0950    0.0000 H   0  0  0  0  0  0  0  0  0  0  0  0
   13.5392    1.9101    0.0000 H   0  0  0  0  0  0  0  0  0  0  0  0
    9.8605    3.4651    0.0000 H   0  0  0  0  0  0  0  0  0  0  0  0
   13.3194   -1.2090    0.0000 H   0  0  0  0  0  0  0  0  0  0  0  0
   14.7317    1.2155    0.0000 H   0  0  0  0  0  0  0  0  0  0  0  0
   14.7192   -2.0245    0.0000 H   0  0  0  0  0  0  0  0  0  0  0  0
   16.1315    0.4001    0.0000 H   0  0  0  0  0  0  0  0  0  0  0  0
   16.9917   -1.1032    0.0000 H   0  0  0  0  0  0  0  0  0  0  0  0
  2 20  1  0  0  0  0
  2 27  1  0  0  0  0
  3 23  1  0  0  0  0
  3 26  1  0  0  0  0
  4 55  1  0  0  0  0
  5 30  1  0  0  0  0
  6 56  1  0  0  0  0
  7 57  1  0  0  0  0
  8 58  1  0  0  0  0
  9 59  1  0  0  0  0
 10 28  1  0  0  0  0
 10 62  1  0  0  0  0
 11 29  1  0  0  0  0
 11 63  1  0  0  0  0
 12 28  2  0  0  0  0
 13 29  2  0  0  0  0
 14 33  1  0  0  0  0
 14 37  1  0  0  0  0
 15 34  1  0  0  0  0
 15 65  1  0  0  0  0
 16 36  2  0  0  0  0
 17 44  1  0  0  0  0
 17 70  1  0  0  0  0
 18  1  1  0  0  0  0
 18 19  1  1  0  0  0
 18 45  1  0  0  0  0
 19  4  1  0  0  0  0
 19 21  1  6  0  0  0
 19 46  1  0  0  0  0
 20  1  1  0  0  0  0
 20 22  1  6  0  0  0
 20 47  1  0  0  0  0
 21  6  1  0  0  0  0
 21 26  1  6  0  0  0
 21 48  1  0  0  0  0
 22  7  1  0  0  0  0
 22 24  1  6  0  0  0
 22 49  1  0  0  0  0
 23  5  1  0  0  0  0
 23 18  1  6  0  0  0
 23 50  1  0  0  0  0
 24  8  1  0  0  0  0
 24 25  1  1  0  0  0
 24 51  1  0  0  0  0
 25  9  1  0  0  0  0
 25 27  1  6  0  0  0
 25 52  1  0  0  0  0
 26 28  1  0  0  0  0
 26 53  1  6  0  0  0
 27 29  1  0  0  0  0
 27 54  1  6  0  0  0
 30 31  1  0  0  0  0
 30 32  2  0  0  0  0
 31 33  2  0  0  0  0
 31 60  1  0  0  0  0
 32 34  1  0  0  0  0
 32 61  1  0  0  0  0
 33 35  1  0  0  0  0
 34 35  2  0  0  0  0
 35 36  1  0  0  0  0
 36 38  1  0  0  0  0
 37 38  2  0  0  0  0
 37 39  1  0  0  0  0
 38 64  1  0  0  0  0
 39 40  2  0  0  0  0
 39 41  1  0  0  0  0
 40 42  1  0  0  0  0
 40 66  1  0  0  0  0
 41 43  2  0  0  0  0
 41 67  1  0  0  0  0
 42 44  2  0  0  0  0
 42 68  1  0  0  0  0
 43 44  1  0  0  0  0
 43 69  1  0  0  0  0
M  END
>  <PUBCHEM_COMPOUND_CID>
5488004

>  <PUBCHEM_COMPOUND_CANONICALIZED>
1

>  <PUBCHEM_CACTVS_COMPLEXITY>
1110

>  <PUBCHEM_CACTVS_HBOND_ACCEPTOR>
17

>  <PUBCHEM_CACTVS_HBOND_DONOR>
9

>  <PUBCHEM_CACTVS_ROTATABLE_BOND>
7

>  <PUBCHEM_CACTVS_SUBSKEYS>
AAADceB4PgAAAAAAAAAAAAAAAAAAAAAAAAA0aIECAAAAAACBQAAAGgAACAAADBSwmAMwDoAABgCIAqDSCAICCAAkIAAIiAFGCMgdNzaGNR6ieWCl4BUPuQfK7KzOIAAACAAIAABAAAAQABAAAAAAAAAAAA==

>  <PUBCHEM_IUPAC_OPENEYE_NAME>
(2S,3S,4S,5R,6R)-6-[(2S,3R,4S,5S,6S)-6-carboxy-4,5-dihydroxy-2-[5-hydroxy-2-(4-hydroxyphenyl)-4-oxo-chromen-7-yl]oxy-tetrahydropyran-3-yl]oxy-3,4,5-trihydroxy-tetrahydropyran-2-carboxylic acid

>  <PUBCHEM_IUPAC_CAS_NAME>
(2S,3S,4S,5R,6R)-6-[[(2S,3R,4S,5S,6S)-6-carboxy-4,5-dihydroxy-2-[[5-hydroxy-2-(4-hydroxyphenyl)-4-oxo-1-benzopyran-7-yl]oxy]-3-oxanyl]oxy]-3,4,5-trihydroxy-2-oxanecarboxylic acid

>  <PUBCHEM_IUPAC_NAME>
(2S,3S,4S,5R,6R)-6-[(2S,3R,4S,5S,6S)-6-carboxy-4,5-dihydroxy-2-[5-hydroxy-2-(4-hydroxyphenyl)-4-oxochromen-7-yl]oxyoxan-3-yl]oxy-3,4,5-trihydroxyoxane-2-carboxylic acid

>  <PUBCHEM_IUPAC_SYSTEMATIC_NAME>
(2S,3S,4S,5R,6R)-6-[(2S,3R,4S,5S,6S)-6-carboxy-2-[2-(4-hydroxyphenyl)-5-oxidanyl-4-oxidanylidene-chromen-7-yl]oxy-4,5-bis(oxidanyl)oxan-3-yl]oxy-3,4,5-tris(oxidanyl)oxane-2-carboxylic acid

>  <PUBCHEM_IUPAC_TRADITIONAL_NAME>
(2S,3S,4S,5R,6R)-6-[(2S,3R,4S,5S,6S)-6-carboxy-4,5-dihydroxy-2-[5-hydroxy-2-(4-hydroxyphenyl)-4-keto-chromen-7-yl]oxy-tetrahydropyran-3-yl]oxy-3,4,5-trihydroxy-tetrahydropyran-2-carboxylic acid

>  <PUBCHEM_IUPAC_INCHI>
InChI=1S/C27H26O17/c28-9-3-1-8(2-4-9)13-7-12(30)15-11(29)5-10(6-14(15)41-13)40-27-23(19(34)18(33)22(43-27)25(38)39)44-26-20(35)16(31)17(32)21(42-26)24(36)37/h1-7,16-23,26-29,31-35H,(H,36,37)(H,38,39)/t16-,17-,18-,19-,20+,21-,22-,23+,26-,27+/m0/s1

>  <PUBCHEM_IUPAC_INCHIKEY>
SJFTVAAHLRFBST-DBFWEQBMSA-N

>  <PUBCHEM_XLOGP3_AA>
-0.2

>  <PUBCHEM_EXACT_MASS>
622.117

>  <PUBCHEM_MOLECULAR_FORMULA>
C27H26O17

>  <PUBCHEM_MOLECULAR_WEIGHT>
622.488

>  <PUBCHEM_OPENEYE_CAN_SMILES>
C1=CC(=CC=C1C2=CC(=O)C3=C(C=C(C=C3O2)OC4C(C(C(C(O4)C(=O)O)O)O)OC5C(C(C(C(O5)C(=O)O)O)O)O)O)O

>  <PUBCHEM_OPENEYE_ISO_SMILES>
C1=CC(=CC=C1C2=CC(=O)C3=C(C=C(C=C3O2)O[C@H]4[C@@H]([C@H]([C@@H]([C@H](O4)C(=O)O)O)O)O[C@H]5[C@@H]([C@H]([C@@H]([C@H](O5)C(=O)O)O)O)O)O)O

>  <PUBCHEM_CACTVS_TPSA>
279

>  <PUBCHEM_MONOISOTOPIC_WEIGHT>
622.117

>  <PUBCHEM_TOTAL_CHARGE>
0

>  <PUBCHEM_HEAVY_ATOM_COUNT>
44

>  <PUBCHEM_ATOM_DEF_STEREO_COUNT>
10

>  <PUBCHEM_ATOM_UDEF_STEREO_COUNT>
0

>  <PUBCHEM_BOND_DEF_STEREO_COUNT>
0

>  <PUBCHEM_BOND_UDEF_STEREO_COUNT>
0

>  <PUBCHEM_ISOTOPIC_ATOM_COUNT>
0

>  <PUBCHEM_COMPONENT_COUNT>
1

>  <PUBCHEM_CACTVS_TAUTO_COUNT>
24

>  <PUBCHEM_COORDINATE_TYPE>
1
5
255

>  <PUBCHEM_BONDANNOTATIONS>
18  1  6
20  1  5
14  33  8
14  37  8
26  28  5
27  29  5
30  31  8
30  32  8
31  33  8
32  34  8
33  35  8
34  35  8
35  36  8
36  38  8
37  38  8
39  40  8
39  41  8
19  4  5
40  42  8
41  43  8
42  44  8
43  44  8
23  5  5
21  6  6
22  7  6
24  8  5
25  9  6

$$$$
