5488650
 OpenBabel06101807152D

 35 38  0  0  0  0  0  0  0  0999 V2000
    5.7940   -1.5718    0.0000 O   0  0  0  0  0  0  0  0  0  0  0  0
    7.9380    0.4967    0.0000 O   0  0  0  0  0  0  0  0  0  0  0  0
    4.9343    1.6861    0.0000 O   0  0  0  0  0  0  0  0  0  0  0  0
    2.3045   -0.6675    0.0000 O   0  0  0  0  0  0  0  0  0  0  0  0
    6.6509    1.6557    0.0000 O   0  0  0  0  0  0  0  0  0  0  0  0
   10.5776   -1.8474    0.0000 O   0  0  0  0  0  0  0  0  0  0  0  0
    6.2908   -0.0385    0.0000 C   0  0  0  0  0  0  0  0  0  0  0  0
    5.2967   -0.0411    0.0000 C   0  0  0  0  0  0  0  0  0  0  0  0
    6.5998   -0.9896    0.0000 C   0  0  0  0  0  0  0  0  0  0  0  0
    4.9903   -0.9868    0.0000 C   0  0  0  0  0  0  0  0  0  0  0  0
    7.5779   -1.1975    0.0000 C   0  0  0  0  0  0  0  0  0  0  0  0
    4.6151    0.7384    0.0000 C   0  0  0  0  0  0  0  0  0  0  0  0
    8.2470   -0.4543    0.0000 C   0  0  0  0  0  0  0  0  0  0  0  0
    6.9599    0.7046    0.0000 C   0  0  0  0  0  0  0  0  0  0  0  0
    3.9811   -1.2185    0.0000 C   0  0  0  0  0  0  0  0  0  0  0  0
    3.6008    0.5301    0.0000 C   0  0  0  0  0  0  0  0  0  0  0  0
    3.2817   -0.4550    0.0000 C   0  0  0  0  0  0  0  0  0  0  0  0
    7.8845   -2.1930    0.0000 C   0  0  0  0  0  0  0  0  0  0  0  0
    9.2691   -0.6552    0.0000 C   0  0  0  0  0  0  0  0  0  0  0  0
    8.9017   -2.4174    0.0000 C   0  0  0  0  0  0  0  0  0  0  0  0
    9.5986   -1.6433    0.0000 C   0  0  0  0  0  0  0  0  0  0  0  0
    4.2731    2.4364    0.0000 C   0  0  0  0  0  0  0  0  0  0  0  0
    2.0000   -1.6200    0.0000 C   0  0  0  0  0  0  0  0  0  0  0  0
    3.7969   -1.8105    0.0000 H   0  0  0  0  0  0  0  0  0  0  0  0
    3.1873    0.9920    0.0000 H   0  0  0  0  0  0  0  0  0  0  0  0
    7.4643   -2.6489    0.0000 H   0  0  0  0  0  0  0  0  0  0  0  0
    9.6786   -0.1897    0.0000 H   0  0  0  0  0  0  0  0  0  0  0  0
    9.0910   -3.0078    0.0000 H   0  0  0  0  0  0  0  0  0  0  0  0
    4.7383    2.8463    0.0000 H   0  0  0  0  0  0  0  0  0  0  0  0
    3.8632    2.9015    0.0000 H   0  0  0  0  0  0  0  0  0  0  0  0
    3.8080    2.0264    0.0000 H   0  0  0  0  0  0  0  0  0  0  0  0
    1.4095   -1.4312    0.0000 H   0  0  0  0  0  0  0  0  0  0  0  0
    1.8112   -2.2106    0.0000 H   0  0  0  0  0  0  0  0  0  0  0  0
    2.5906   -1.8088    0.0000 H   0  0  0  0  0  0  0  0  0  0  0  0
   10.7714   -2.4364    0.0000 H   0  0  0  0  0  0  0  0  0  0  0  0
  1  9  1  0  0  0  0
  1 10  1  0  0  0  0
  2 13  1  0  0  0  0
  2 14  1  0  0  0  0
  3 12  1  0  0  0  0
  3 22  1  0  0  0  0
  4 17  1  0  0  0  0
  4 23  1  0  0  0  0
  5 14  2  0  0  0  0
  6 21  1  0  0  0  0
  6 35  1  0  0  0  0
  7  8  1  0  0  0  0
  7  9  2  0  0  0  0
  7 14  1  0  0  0  0
  8 10  2  0  0  0  0
  8 12  1  0  0  0  0
  9 11  1  0  0  0  0
 10 15  1  0  0  0  0
 11 13  2  0  0  0  0
 11 18  1  0  0  0  0
 12 16  2  0  0  0  0
 13 19  1  0  0  0  0
 15 17  2  0  0  0  0
 15 24  1  0  0  0  0
 16 17  1  0  0  0  0
 16 25  1  0  0  0  0
 18 20  2  0  0  0  0
 18 26  1  0  0  0  0
 19 21  2  0  0  0  0
 19 27  1  0  0  0  0
 20 21  1  0  0  0  0
 20 28  1  0  0  0  0
 22 29  1  0  0  0  0
 22 30  1  0  0  0  0
 22 31  1  0  0  0  0
 23 32  1  0  0  0  0
 23 33  1  0  0  0  0
 23 34  1  0  0  0  0
M  END
>  <PUBCHEM_COMPOUND_CID>
5488650

>  <PUBCHEM_COMPOUND_CANONICALIZED>
1

>  <PUBCHEM_CACTVS_COMPLEXITY>
468

>  <PUBCHEM_CACTVS_HBOND_ACCEPTOR>
6

>  <PUBCHEM_CACTVS_HBOND_DONOR>
1

>  <PUBCHEM_CACTVS_ROTATABLE_BOND>
2

>  <PUBCHEM_CACTVS_SUBSKEYS>
AAADccB4OAAAAAAAAAAAAAAAAAAAASAAAAA0YIAAAAAAAEiR9AAAGgAACAAADASAmAIyDsAABkCIAqDSCAACCAAkIAAIiAEGCMgMJzaONRqCe2Cl4BUIuYfL7PzOoAAACAAIAABAAAAQABAAAAAAAAAAAA==

>  <PUBCHEM_IUPAC_OPENEYE_NAME>
3-hydroxy-7,9-dimethoxy-benzofuro[3,2-c]chromen-6-one

>  <PUBCHEM_IUPAC_CAS_NAME>
3-hydroxy-7,9-dimethoxy-6-benzofuro[3,2-c][1]benzopyranone

>  <PUBCHEM_IUPAC_NAME>
3-hydroxy-7,9-dimethoxy-[1]benzofuro[3,2-c]chromen-6-one

>  <PUBCHEM_IUPAC_SYSTEMATIC_NAME>
7,9-dimethoxy-3-oxidanyl-[1]benzofuro[3,2-c]chromen-6-one

>  <PUBCHEM_IUPAC_TRADITIONAL_NAME>
3-hydroxy-7,9-dimethoxy-benzofuro[3,2-c]chromen-6-one

>  <PUBCHEM_IUPAC_INCHI>
InChI=1S/C17H12O6/c1-20-9-6-12(21-2)14-13(7-9)22-16-10-4-3-8(18)5-11(10)23-17(19)15(14)16/h3-7,18H,1-2H3

>  <PUBCHEM_IUPAC_INCHIKEY>
GYNHMEBOILXPQT-UHFFFAOYSA-N

>  <PUBCHEM_XLOGP3_AA>
3.1

>  <PUBCHEM_EXACT_MASS>
312.063

>  <PUBCHEM_MOLECULAR_FORMULA>
C17H12O6

>  <PUBCHEM_MOLECULAR_WEIGHT>
312.277

>  <PUBCHEM_OPENEYE_CAN_SMILES>
COC1=CC(=C2C(=C1)OC3=C2C(=O)OC4=C3C=CC(=C4)O)OC

>  <PUBCHEM_OPENEYE_ISO_SMILES>
COC1=CC(=C2C(=C1)OC3=C2C(=O)OC4=C3C=CC(=C4)O)OC

>  <PUBCHEM_CACTVS_TPSA>
78.1

>  <PUBCHEM_MONOISOTOPIC_WEIGHT>
312.063

>  <PUBCHEM_TOTAL_CHARGE>
0

>  <PUBCHEM_HEAVY_ATOM_COUNT>
23

>  <PUBCHEM_ATOM_DEF_STEREO_COUNT>
0

>  <PUBCHEM_ATOM_UDEF_STEREO_COUNT>
0

>  <PUBCHEM_BOND_DEF_STEREO_COUNT>
0

>  <PUBCHEM_BOND_UDEF_STEREO_COUNT>
0

>  <PUBCHEM_ISOTOPIC_ATOM_COUNT>
0

>  <PUBCHEM_COMPONENT_COUNT>
1

>  <PUBCHEM_CACTVS_TAUTO_COUNT>
5

>  <PUBCHEM_COORDINATE_TYPE>
1
5
255

>  <PUBCHEM_BONDANNOTATIONS>
1  10  8
1  9  8
10  15  8
11  13  8
11  18  8
12  16  8
13  19  8
15  17  8
16  17  8
18  20  8
19  21  8
2  13  8
2  14  8
20  21  8
7  14  8
7  8  8
7  9  8
8  10  8
8  12  8
9  11  8

$$$$
