5489488
 OpenBabel06101807152D

 56 62  0  0  0  0  0  0  0  0999 V2000
    8.7289    2.7960    0.0000 O   0  0  0  0  0  0  0  0  0  0  0  0
    7.8830    3.2843    0.0000 O   0  0  0  0  0  0  0  0  0  0  0  0
   10.5090   -0.1516    0.0000 O   0  0  0  0  0  0  0  0  0  0  0  0
    4.4403    3.3521    0.0000 O   0  0  0  0  0  0  0  0  0  0  0  0
    9.6640   -1.7460    0.0000 O   0  0  0  0  0  0  0  0  0  0  0  0
    3.4819    1.8232    0.0000 O   0  0  0  0  0  0  0  0  0  0  0  0
    2.5381    0.2463    0.0000 O   0  0  0  0  0  0  0  0  0  0  0  0
    8.7703   -3.3518    0.0000 O   0  0  0  0  0  0  0  0  0  0  0  0
    7.0120   -0.2009    0.0000 C   0  0  0  0  0  0  0  0  0  0  0  0
    6.1460    0.2991    0.0000 C   0  0  0  0  0  0  0  0  0  0  0  0
    7.8781    0.2991    0.0000 C   0  0  0  0  0  0  0  0  0  0  0  0
    6.1460    1.2991    0.0000 C   0  0  0  0  0  0  0  0  0  0  0  0
    7.0120    1.7991    0.0000 C   0  0  0  0  0  0  0  0  0  0  0  0
    7.8781    1.2991    0.0000 C   0  0  0  0  0  0  0  0  0  0  0  0
    6.9960   -1.2424    0.0000 C   0  0  0  0  0  0  0  0  0  0  0  0
    5.2521   -0.2356    0.0000 C   0  0  0  0  0  0  0  0  0  0  0  0
    5.2521    1.8337    0.0000 C   0  0  0  0  0  0  0  0  0  0  0  0
    8.7881   -0.2078    0.0000 C   0  0  0  0  0  0  0  0  0  0  0  0
    4.3460    0.2782    0.0000 C   0  0  0  0  0  0  0  0  0  0  0  0
    7.8940   -1.7702    0.0000 C   0  0  0  0  0  0  0  0  0  0  0  0
    8.7961   -1.2494    0.0000 C   0  0  0  0  0  0  0  0  0  0  0  0
    4.3460    1.3199    0.0000 C   0  0  0  0  0  0  0  0  0  0  0  0
    7.0133    2.7908    0.0000 C   0  0  0  0  0  0  0  0  0  0  0  0
    8.7363    1.7960    0.0000 C   0  0  0  0  0  0  0  0  0  0  0  0
    5.2899    2.8247    0.0000 C   0  0  0  0  0  0  0  0  0  0  0  0
    9.6274    0.3204    0.0000 C   0  0  0  0  0  0  0  0  0  0  0  0
    5.2772   -1.3203    0.0000 C   0  0  0  0  0  0  0  0  0  0  0  0
    6.0441   -1.7631    0.0000 C   0  0  0  0  0  0  0  0  0  0  0  0
    9.6018    1.3118    0.0000 C   0  0  0  0  0  0  0  0  0  0  0  0
    6.1612    3.2982    0.0000 C   0  0  0  0  0  0  0  0  0  0  0  0
    3.4022   -0.2570    0.0000 C   0  0  0  0  0  0  0  0  0  0  0  0
    7.9024   -2.8552    0.0000 C   0  0  0  0  0  0  0  0  0  0  0  0
    4.3460   -1.8772    0.0000 C   0  0  0  0  0  0  0  0  0  0  0  0
    6.0273   -2.8479    0.0000 C   0  0  0  0  0  0  0  0  0  0  0  0
    6.9628   -3.3977    0.0000 C   0  0  0  0  0  0  0  0  0  0  0  0
    3.4022   -1.3420    0.0000 C   0  0  0  0  0  0  0  0  0  0  0  0
    5.1556   -3.3379    0.0000 C   0  0  0  0  0  0  0  0  0  0  0  0
    4.3576   -2.8772    0.0000 C   0  0  0  0  0  0  0  0  0  0  0  0
    5.8200   -1.6199    0.0000 H   0  0  0  0  0  0  0  0  0  0  0  0
    5.5132   -1.4428    0.0000 H   0  0  0  0  0  0  0  0  0  0  0  0
    6.1734    3.9181    0.0000 H   0  0  0  0  0  0  0  0  0  0  0  0
   10.1325    1.6323    0.0000 H   0  0  0  0  0  0  0  0  0  0  0  0
    2.8665   -1.6541    0.0000 H   0  0  0  0  0  0  0  0  0  0  0  0
    6.9604   -4.0177    0.0000 H   0  0  0  0  0  0  0  0  0  0  0  0
    7.8876    3.9043    0.0000 H   0  0  0  0  0  0  0  0  0  0  0  0
    9.2635    3.1099    0.0000 H   0  0  0  0  0  0  0  0  0  0  0  0
    3.7376   -2.8843    0.0000 H   0  0  0  0  0  0  0  0  0  0  0  0
    4.8518   -2.7974    0.0000 H   0  0  0  0  0  0  0  0  0  0  0  0
    4.6151   -3.6417    0.0000 H   0  0  0  0  0  0  0  0  0  0  0  0
    5.4594   -3.8784    0.0000 H   0  0  0  0  0  0  0  0  0  0  0  0
    4.3647   -3.4971    0.0000 H   0  0  0  0  0  0  0  0  0  0  0  0
    4.9775   -2.8700    0.0000 H   0  0  0  0  0  0  0  0  0  0  0  0
   11.0357    0.1754    0.0000 H   0  0  0  0  0  0  0  0  0  0  0  0
    4.4601    3.9718    0.0000 H   0  0  0  0  0  0  0  0  0  0  0  0
    2.0000   -0.0616    0.0000 H   0  0  0  0  0  0  0  0  0  0  0  0
    8.7727   -3.9718    0.0000 H   0  0  0  0  0  0  0  0  0  0  0  0
  1 24  1  0  0  0  0
  1 46  1  0  0  0  0
  2 23  1  0  0  0  0
  2 45  1  0  0  0  0
  3 26  1  0  0  0  0
  3 53  1  0  0  0  0
  4 25  1  0  0  0  0
  4 54  1  0  0  0  0
  5 21  2  0  0  0  0
  6 22  2  0  0  0  0
  7 31  1  0  0  0  0
  7 55  1  0  0  0  0
  8 32  1  0  0  0  0
  8 56  1  0  0  0  0
  9 10  2  0  0  0  0
  9 11  1  0  0  0  0
  9 15  1  0  0  0  0
 10 12  1  0  0  0  0
 10 16  1  0  0  0  0
 11 14  2  0  0  0  0
 11 18  1  0  0  0  0
 12 13  2  0  0  0  0
 12 17  1  0  0  0  0
 13 14  1  0  0  0  0
 13 23  1  0  0  0  0
 14 24  1  0  0  0  0
 15 20  2  0  0  0  0
 15 28  1  0  0  0  0
 16 19  2  0  0  0  0
 16 27  1  0  0  0  0
 17 22  1  0  0  0  0
 17 25  2  0  0  0  0
 18 21  1  0  0  0  0
 18 26  2  0  0  0  0
 19 22  1  0  0  0  0
 19 31  1  0  0  0  0
 20 21  1  0  0  0  0
 20 32  1  0  0  0  0
 23 30  2  0  0  0  0
 24 29  2  0  0  0  0
 25 30  1  0  0  0  0
 26 29  1  0  0  0  0
 27 33  2  0  0  0  0
 27 39  1  0  0  0  0
 28 34  2  0  0  0  0
 28 40  1  0  0  0  0
 29 42  1  0  0  0  0
 30 41  1  0  0  0  0
 31 36  2  0  0  0  0
 32 35  2  0  0  0  0
 33 36  1  0  0  0  0
 33 38  1  0  0  0  0
 34 35  1  0  0  0  0
 34 37  1  0  0  0  0
 35 44  1  0  0  0  0
 36 43  1  0  0  0  0
 37 48  1  0  0  0  0
 37 49  1  0  0  0  0
 37 50  1  0  0  0  0
 38 47  1  0  0  0  0
 38 51  1  0  0  0  0
 38 52  1  0  0  0  0
M  END
>  <PUBCHEM_COMPOUND_CID>
5489488

>  <PUBCHEM_COMPOUND_CANONICALIZED>
1

>  <PUBCHEM_CACTVS_COMPLEXITY>
923

>  <PUBCHEM_CACTVS_HBOND_ACCEPTOR>
8

>  <PUBCHEM_CACTVS_HBOND_DONOR>
6

>  <PUBCHEM_CACTVS_ROTATABLE_BOND>
0

>  <PUBCHEM_CACTVS_SUBSKEYS>
AAADceB4PAAAAAAAAAAAAAAAAAAAAAAAAAAwYMGDAAAAAADBVAAAGgAACAAADASAmAAyBsAAAgCIAqBSAAACAAAkIAAAiAEGCMgIJzaCFRKAcUAl4BUImQfI7PTO4AADCAAYAADAAAYQADAAAAAAAAAAAA==

>  <PUBCHEM_IUPAC_INCHI>
InChI=1S/C30H18O8/c1-9-3-11-19(13(31)5-9)29(37)25-17(35)7-15(33)23-24-16(34)8-18(36)26-28(24)22(21(11)27(23)25)12-4-10(2)6-14(32)20(12)30(26)38/h3-8,31-36H,1-2H3

>  <PUBCHEM_IUPAC_INCHIKEY>
YLILOANQCQKPOD-UHFFFAOYSA-N

>  <PUBCHEM_XLOGP3_AA>
6.4

>  <PUBCHEM_EXACT_MASS>
506.1

>  <PUBCHEM_MOLECULAR_FORMULA>
C30H18O8

>  <PUBCHEM_MOLECULAR_WEIGHT>
506.466

>  <PUBCHEM_OPENEYE_CAN_SMILES>
CC1=CC(=C2C(=C1)C3=C4C5=CC(=CC(=C5C(=O)C6=C(C=C(C(=C46)C7=C3C(=C(C=C7O)O)C2=O)O)O)O)C)O

>  <PUBCHEM_OPENEYE_ISO_SMILES>
CC1=CC(=C2C(=C1)C3=C4C5=CC(=CC(=C5C(=O)C6=C(C=C(C(=C46)C7=C3C(=C(C=C7O)O)C2=O)O)O)O)C)O

>  <PUBCHEM_CACTVS_TPSA>
156

>  <PUBCHEM_MONOISOTOPIC_WEIGHT>
506.1

>  <PUBCHEM_TOTAL_CHARGE>
0

>  <PUBCHEM_HEAVY_ATOM_COUNT>
38

>  <PUBCHEM_ATOM_DEF_STEREO_COUNT>
0

>  <PUBCHEM_ATOM_UDEF_STEREO_COUNT>
0

>  <PUBCHEM_BOND_DEF_STEREO_COUNT>
0

>  <PUBCHEM_BOND_UDEF_STEREO_COUNT>
0

>  <PUBCHEM_ISOTOPIC_ATOM_COUNT>
0

>  <PUBCHEM_COMPONENT_COUNT>
1

>  <PUBCHEM_CACTVS_TAUTO_COUNT>
989

>  <PUBCHEM_COORDINATE_TYPE>
1
5
255

>  <PUBCHEM_BONDANNOTATIONS>
10  12  8
10  16  8
11  14  8
11  18  8
12  13  8
12  17  8
13  14  8
13  23  8
14  24  8
15  20  8
15  28  8
16  19  8
16  27  8
17  22  8
17  25  8
18  21  8
18  26  8
19  22  8
19  31  8
20  21  8
20  32  8
23  30  8
24  29  8
25  30  8
26  29  8
27  33  8
28  34  8
31  36  8
32  35  8
33  36  8
34  35  8
9  10  8
9  11  8
9  15  8

$$$$
