5491522
 OpenBabel06101807152D

 45 47  0  0  0  0  0  0  0  0999 V2000
    6.3580   -0.4226    0.0000 O   0  0  0  0  0  0  0  0  0  0  0  0
    4.5981   -1.3879    0.0000 O   0  0  0  0  0  0  0  0  0  0  0  0
    8.1282    1.6362    0.0000 O   0  0  0  0  0  0  0  0  0  0  0  0
    2.8660    1.6121    0.0000 O   0  0  0  0  0  0  0  0  0  0  0  0
    4.5981    2.6121    0.0000 O   0  0  0  0  0  0  0  0  0  0  0  0
    2.8660   -0.3879    0.0000 O   0  0  0  0  0  0  0  0  0  0  0  0
    6.3465    2.6467    0.0000 O   0  0  0  0  0  0  0  0  0  0  0  0
   10.7205   -1.9221    0.0000 O   0  0  0  0  0  0  0  0  0  0  0  0
    5.4641    1.1121    0.0000 C   0  0  0  0  0  0  0  0  0  0  0  0
    5.4641    0.1121    0.0000 C   0  0  0  0  0  0  0  0  0  0  0  0
    7.2641    0.0913    0.0000 C   0  0  0  0  0  0  0  0  0  0  0  0
    4.5981   -0.3879    0.0000 C   0  0  0  0  0  0  0  0  0  0  0  0
    6.3580    1.6467    0.0000 C   0  0  0  0  0  0  0  0  0  0  0  0
    7.2641    1.1329    0.0000 C   0  0  0  0  0  0  0  0  0  0  0  0
    4.5981    1.6121    0.0000 C   0  0  0  0  0  0  0  0  0  0  0  0
    3.7320    1.1121    0.0000 C   0  0  0  0  0  0  0  0  0  0  0  0
    8.1282   -0.4121    0.0000 C   0  0  0  0  0  0  0  0  0  0  0  0
    3.7320    0.1121    0.0000 C   0  0  0  0  0  0  0  0  0  0  0  0
    8.1244   -1.4121    0.0000 C   0  0  0  0  0  0  0  0  0  0  0  0
    8.9962    0.0846    0.0000 C   0  0  0  0  0  0  0  0  0  0  0  0
    8.9884   -1.9154    0.0000 C   0  0  0  0  0  0  0  0  0  0  0  0
    9.8602   -0.4188    0.0000 C   0  0  0  0  0  0  0  0  0  0  0  0
    9.8564   -1.4188    0.0000 C   0  0  0  0  0  0  0  0  0  0  0  0
    3.7320   -1.8879    0.0000 C   0  0  0  0  0  0  0  0  0  0  0  0
    8.1244    2.6362    0.0000 C   0  0  0  0  0  0  0  0  0  0  0  0
    2.0000    1.1121    0.0000 C   0  0  0  0  0  0  0  0  0  0  0  0
   10.7166   -2.9221    0.0000 C   0  0  0  0  0  0  0  0  0  0  0  0
    7.5862   -1.7200    0.0000 H   0  0  0  0  0  0  0  0  0  0  0  0
    8.9985    0.7046    0.0000 H   0  0  0  0  0  0  0  0  0  0  0  0
    8.9860   -2.5354    0.0000 H   0  0  0  0  0  0  0  0  0  0  0  0
   10.3984   -0.1108    0.0000 H   0  0  0  0  0  0  0  0  0  0  0  0
    4.0611    2.9221    0.0000 H   0  0  0  0  0  0  0  0  0  0  0  0
    2.3291   -0.0779    0.0000 H   0  0  0  0  0  0  0  0  0  0  0  0
    3.4220   -1.3510    0.0000 H   0  0  0  0  0  0  0  0  0  0  0  0
    3.1951   -2.1979    0.0000 H   0  0  0  0  0  0  0  0  0  0  0  0
    4.0420   -2.4249    0.0000 H   0  0  0  0  0  0  0  0  0  0  0  0
    8.7443    2.6386    0.0000 H   0  0  0  0  0  0  0  0  0  0  0  0
    8.1220    3.2562    0.0000 H   0  0  0  0  0  0  0  0  0  0  0  0
    7.5044    2.6338    0.0000 H   0  0  0  0  0  0  0  0  0  0  0  0
    1.6900    1.6490    0.0000 H   0  0  0  0  0  0  0  0  0  0  0  0
    1.4631    0.8021    0.0000 H   0  0  0  0  0  0  0  0  0  0  0  0
    2.3100    0.5751    0.0000 H   0  0  0  0  0  0  0  0  0  0  0  0
   10.0966   -2.9197    0.0000 H   0  0  0  0  0  0  0  0  0  0  0  0
   10.7142   -3.5421    0.0000 H   0  0  0  0  0  0  0  0  0  0  0  0
   11.3366   -2.9245    0.0000 H   0  0  0  0  0  0  0  0  0  0  0  0
  1 10  1  0  0  0  0
  1 11  1  0  0  0  0
  2 12  1  0  0  0  0
  2 24  1  0  0  0  0
  3 14  1  0  0  0  0
  3 25  1  0  0  0  0
  4 16  1  0  0  0  0
  4 26  1  0  0  0  0
  5 15  1  0  0  0  0
  5 32  1  0  0  0  0
  6 18  1  0  0  0  0
  6 33  1  0  0  0  0
  7 13  2  0  0  0  0
  8 23  1  0  0  0  0
  8 27  1  0  0  0  0
  9 10  1  0  0  0  0
  9 13  1  0  0  0  0
  9 15  2  0  0  0  0
 10 12  2  0  0  0  0
 11 14  2  0  0  0  0
 11 17  1  0  0  0  0
 12 18  1  0  0  0  0
 13 14  1  0  0  0  0
 15 16  1  0  0  0  0
 16 18  2  0  0  0  0
 17 19  2  0  0  0  0
 17 20  1  0  0  0  0
 19 21  1  0  0  0  0
 19 28  1  0  0  0  0
 20 22  2  0  0  0  0
 20 29  1  0  0  0  0
 21 23  2  0  0  0  0
 21 30  1  0  0  0  0
 22 23  1  0  0  0  0
 22 31  1  0  0  0  0
 24 34  1  0  0  0  0
 24 35  1  0  0  0  0
 24 36  1  0  0  0  0
 25 37  1  0  0  0  0
 25 38  1  0  0  0  0
 25 39  1  0  0  0  0
 26 40  1  0  0  0  0
 26 41  1  0  0  0  0
 26 42  1  0  0  0  0
 27 43  1  0  0  0  0
 27 44  1  0  0  0  0
 27 45  1  0  0  0  0
M  END
>  <PUBCHEM_COMPOUND_CID>
5491522

>  <PUBCHEM_COMPOUND_CANONICALIZED>
1

>  <PUBCHEM_CACTVS_COMPLEXITY>
568

>  <PUBCHEM_CACTVS_HBOND_ACCEPTOR>
8

>  <PUBCHEM_CACTVS_HBOND_DONOR>
2

>  <PUBCHEM_CACTVS_ROTATABLE_BOND>
5

>  <PUBCHEM_CACTVS_SUBSKEYS>
AAADceB4PAAAAAAAAAAAAAAAAAAAAAAAAAAwYIAAAAAAAACBQAAAGgAACAAADASAmAIyBoAABgCIAqBSAAICCAAkIAAIiAFGiMgNJzaGNR6CeWOl4BULuQfK7LzOIQABCAAIQABCAAIQABCAAAAAAAAAAA==

>  <PUBCHEM_IUPAC_OPENEYE_NAME>
5,7-dihydroxy-3,6,8-trimethoxy-2-(4-methoxyphenyl)chromen-4-one

>  <PUBCHEM_IUPAC_CAS_NAME>
5,7-dihydroxy-3,6,8-trimethoxy-2-(4-methoxyphenyl)-1-benzopyran-4-one

>  <PUBCHEM_IUPAC_NAME>
5,7-dihydroxy-3,6,8-trimethoxy-2-(4-methoxyphenyl)chromen-4-one

>  <PUBCHEM_IUPAC_SYSTEMATIC_NAME>
3,6,8-trimethoxy-2-(4-methoxyphenyl)-5,7-bis(oxidanyl)chromen-4-one

>  <PUBCHEM_IUPAC_TRADITIONAL_NAME>
5,7-dihydroxy-3,6,8-trimethoxy-2-(4-methoxyphenyl)chromone

>  <PUBCHEM_IUPAC_INCHI>
InChI=1S/C19H18O8/c1-23-10-7-5-9(6-8-10)15-18(25-3)13(21)11-12(20)17(24-2)14(22)19(26-4)16(11)27-15/h5-8,20,22H,1-4H3

>  <PUBCHEM_IUPAC_INCHIKEY>
UZIFGCHUAVTVIL-UHFFFAOYSA-N

>  <PUBCHEM_XLOGP3_AA>
3.1

>  <PUBCHEM_EXACT_MASS>
374.1

>  <PUBCHEM_MOLECULAR_FORMULA>
C19H18O8

>  <PUBCHEM_MOLECULAR_WEIGHT>
374.345

>  <PUBCHEM_OPENEYE_CAN_SMILES>
COC1=CC=C(C=C1)C2=C(C(=O)C3=C(O2)C(=C(C(=C3O)OC)O)OC)OC

>  <PUBCHEM_OPENEYE_ISO_SMILES>
COC1=CC=C(C=C1)C2=C(C(=O)C3=C(O2)C(=C(C(=C3O)OC)O)OC)OC

>  <PUBCHEM_CACTVS_TPSA>
104

>  <PUBCHEM_MONOISOTOPIC_WEIGHT>
374.1

>  <PUBCHEM_TOTAL_CHARGE>
0

>  <PUBCHEM_HEAVY_ATOM_COUNT>
27

>  <PUBCHEM_ATOM_DEF_STEREO_COUNT>
0

>  <PUBCHEM_ATOM_UDEF_STEREO_COUNT>
0

>  <PUBCHEM_BOND_DEF_STEREO_COUNT>
0

>  <PUBCHEM_BOND_UDEF_STEREO_COUNT>
0

>  <PUBCHEM_ISOTOPIC_ATOM_COUNT>
0

>  <PUBCHEM_COMPONENT_COUNT>
1

>  <PUBCHEM_CACTVS_TAUTO_COUNT>
12

>  <PUBCHEM_COORDINATE_TYPE>
1
5
255

>  <PUBCHEM_BONDANNOTATIONS>
1  10  8
1  11  8
10  12  8
11  14  8
12  18  8
13  14  8
15  16  8
16  18  8
17  19  8
17  20  8
19  21  8
20  22  8
21  23  8
22  23  8
9  10  8
9  13  8
9  15  8

$$$$
