5491929
 OpenBabel06101807152D

 35 38  0  0  0  0  0  0  0  0999 V2000
    5.5022   -2.2777    0.0000 O   0  0  0  0  0  0  0  0  0  0  0  0
    9.0744   -0.4383    0.0000 O   0  0  0  0  0  0  0  0  0  0  0  0
    9.0744   -2.0478    0.0000 O   0  0  0  0  0  0  0  0  0  0  0  0
    7.2622    0.7569    0.0000 O   0  0  0  0  0  0  0  0  0  0  0  0
    5.5138    0.7915    0.0000 O   0  0  0  0  0  0  0  0  0  0  0  0
    4.6038    1.2777    0.0000 O   0  0  0  0  0  0  0  0  0  0  0  0
    6.3961   -0.7431    0.0000 C   0  0  0  0  0  0  0  0  0  0  0  0
    6.3961   -1.7431    0.0000 C   0  0  0  0  0  0  0  0  0  0  0  0
    8.1282   -0.7431    0.0000 C   0  0  0  0  0  0  0  0  0  0  0  0
    7.2622   -0.2431    0.0000 C   0  0  0  0  0  0  0  0  0  0  0  0
    8.1282   -1.7431    0.0000 C   0  0  0  0  0  0  0  0  0  0  0  0
    4.5961   -0.7223    0.0000 C   0  0  0  0  0  0  0  0  0  0  0  0
    5.5022   -0.2084    0.0000 C   0  0  0  0  0  0  0  0  0  0  0  0
    7.2622   -2.2431    0.0000 C   0  0  0  0  0  0  0  0  0  0  0  0
    3.7320   -0.2189    0.0000 C   0  0  0  0  0  0  0  0  0  0  0  0
    4.5961   -1.7639    0.0000 C   0  0  0  0  0  0  0  0  0  0  0  0
    9.6580   -1.2431    0.0000 C   0  0  0  0  0  0  0  0  0  0  0  0
    3.7359    0.7811    0.0000 C   0  0  0  0  0  0  0  0  0  0  0  0
    2.8641   -0.7156    0.0000 C   0  0  0  0  0  0  0  0  0  0  0  0
    2.8718    1.2844    0.0000 C   0  0  0  0  0  0  0  0  0  0  0  0
    2.0000   -0.2122    0.0000 C   0  0  0  0  0  0  0  0  0  0  0  0
    2.0038    0.7878    0.0000 C   0  0  0  0  0  0  0  0  0  0  0  0
    4.6077    2.2777    0.0000 C   0  0  0  0  0  0  0  0  0  0  0  0
    7.2622   -2.8631    0.0000 H   0  0  0  0  0  0  0  0  0  0  0  0
    4.0604   -2.0760    0.0000 H   0  0  0  0  0  0  0  0  0  0  0  0
   10.1189   -1.6578    0.0000 H   0  0  0  0  0  0  0  0  0  0  0  0
   10.1189   -0.8283    0.0000 H   0  0  0  0  0  0  0  0  0  0  0  0
    2.8617   -1.3356    0.0000 H   0  0  0  0  0  0  0  0  0  0  0  0
    2.8742    1.9044    0.0000 H   0  0  0  0  0  0  0  0  0  0  0  0
    1.4619   -0.5202    0.0000 H   0  0  0  0  0  0  0  0  0  0  0  0
    7.7991    1.0669    0.0000 H   0  0  0  0  0  0  0  0  0  0  0  0
    1.4681    1.0998    0.0000 H   0  0  0  0  0  0  0  0  0  0  0  0
    5.2277    2.2753    0.0000 H   0  0  0  0  0  0  0  0  0  0  0  0
    4.6101    2.8977    0.0000 H   0  0  0  0  0  0  0  0  0  0  0  0
    3.9877    2.2801    0.0000 H   0  0  0  0  0  0  0  0  0  0  0  0
  1  8  1  0  0  0  0
  1 16  1  0  0  0  0
  2  9  1  0  0  0  0
  2 17  1  0  0  0  0
  3 11  1  0  0  0  0
  3 17  1  0  0  0  0
  4 10  1  0  0  0  0
  4 31  1  0  0  0  0
  5 13  2  0  0  0  0
  6 18  1  0  0  0  0
  6 23  1  0  0  0  0
  7  8  1  0  0  0  0
  7 10  2  0  0  0  0
  7 13  1  0  0  0  0
  8 14  2  0  0  0  0
  9 10  1  0  0  0  0
  9 11  2  0  0  0  0
 11 14  1  0  0  0  0
 12 13  1  0  0  0  0
 12 15  1  0  0  0  0
 12 16  2  0  0  0  0
 14 24  1  0  0  0  0
 15 18  1  0  0  0  0
 15 19  2  0  0  0  0
 16 25  1  0  0  0  0
 17 26  1  0  0  0  0
 17 27  1  0  0  0  0
 18 20  2  0  0  0  0
 19 21  1  0  0  0  0
 19 28  1  0  0  0  0
 20 22  1  0  0  0  0
 20 29  1  0  0  0  0
 21 22  2  0  0  0  0
 21 30  1  0  0  0  0
 22 32  1  0  0  0  0
 23 33  1  0  0  0  0
 23 34  1  0  0  0  0
 23 35  1  0  0  0  0
M  END
>  <PUBCHEM_COMPOUND_CID>
5491929

>  <PUBCHEM_COMPOUND_CANONICALIZED>
1

>  <PUBCHEM_CACTVS_COMPLEXITY>
503

>  <PUBCHEM_CACTVS_HBOND_ACCEPTOR>
6

>  <PUBCHEM_CACTVS_HBOND_DONOR>
1

>  <PUBCHEM_CACTVS_ROTATABLE_BOND>
2

>  <PUBCHEM_CACTVS_SUBSKEYS>
AAADccB4OAAAAAAAAAAAAAAAAAAAASAAAAAwYIAAAAAAAEiBQAAAGgAACAAADASgmAMyDoAABgCIAqBSAAACCAAkIAAIiAEGiMgdJzaGNRqgcWMl4BUPuYfK7PzOIQABCAAIQABCAAIQABCAAAAAAAAAAA==

>  <PUBCHEM_IUPAC_OPENEYE_NAME>
9-hydroxy-7-(2-methoxyphenyl)-[1,3]dioxolo[4,5-g]chromen-8-one

>  <PUBCHEM_IUPAC_CAS_NAME>
9-hydroxy-7-(2-methoxyphenyl)-[1,3]dioxolo[4,5-g][1]benzopyran-8-one

>  <PUBCHEM_IUPAC_NAME>
9-hydroxy-7-(2-methoxyphenyl)-[1,3]dioxolo[4,5-g]chromen-8-one

>  <PUBCHEM_IUPAC_SYSTEMATIC_NAME>
7-(2-methoxyphenyl)-9-oxidanyl-[1,3]dioxolo[4,5-g]chromen-8-one

>  <PUBCHEM_IUPAC_TRADITIONAL_NAME>
9-hydroxy-7-(2-methoxyphenyl)-[1,3]dioxolo[4,5-g]chromen-8-one

>  <PUBCHEM_IUPAC_INCHI>
InChI=1S/C17H12O6/c1-20-11-5-3-2-4-9(11)10-7-21-12-6-13-17(23-8-22-13)16(19)14(12)15(10)18/h2-7,19H,8H2,1H3

>  <PUBCHEM_IUPAC_INCHIKEY>
DWGZUNVIWVMPBQ-UHFFFAOYSA-N

>  <PUBCHEM_XLOGP3_AA>
3.2

>  <PUBCHEM_EXACT_MASS>
312.063

>  <PUBCHEM_MOLECULAR_FORMULA>
C17H12O6

>  <PUBCHEM_MOLECULAR_WEIGHT>
312.277

>  <PUBCHEM_OPENEYE_CAN_SMILES>
COC1=CC=CC=C1C2=COC3=CC4=C(C(=C3C2=O)O)OCO4

>  <PUBCHEM_OPENEYE_ISO_SMILES>
COC1=CC=CC=C1C2=COC3=CC4=C(C(=C3C2=O)O)OCO4

>  <PUBCHEM_CACTVS_TPSA>
74.2

>  <PUBCHEM_MONOISOTOPIC_WEIGHT>
312.063

>  <PUBCHEM_TOTAL_CHARGE>
0

>  <PUBCHEM_HEAVY_ATOM_COUNT>
23

>  <PUBCHEM_ATOM_DEF_STEREO_COUNT>
0

>  <PUBCHEM_ATOM_UDEF_STEREO_COUNT>
0

>  <PUBCHEM_BOND_DEF_STEREO_COUNT>
0

>  <PUBCHEM_BOND_UDEF_STEREO_COUNT>
0

>  <PUBCHEM_ISOTOPIC_ATOM_COUNT>
0

>  <PUBCHEM_COMPONENT_COUNT>
1

>  <PUBCHEM_CACTVS_TAUTO_COUNT>
4

>  <PUBCHEM_COORDINATE_TYPE>
1
5
255

>  <PUBCHEM_BONDANNOTATIONS>
1  16  8
1  8  8
11  14  8
12  13  8
12  16  8
15  18  8
15  19  8
18  20  8
19  21  8
20  22  8
21  22  8
7  10  8
7  13  8
7  8  8
8  14  8
9  10  8
9  11  8

$$$$
