5495928
 OpenBabel06101807152D

 51 54  0  0  0  0  0  0  0  0999 V2000
    4.2974   -3.6428    0.0000 O   0  0  0  0  0  0  0  0  0  0  0  0
    4.3217    0.5115    0.0000 O   0  0  0  0  0  0  0  0  0  0  0  0
    2.5357   -2.5336    0.0000 O   0  0  0  0  0  0  0  0  0  0  0  0
    6.9198   -0.9885    0.0000 O   0  0  0  0  0  0  0  0  0  0  0  0
    7.8240    0.5083    0.0000 O   0  0  0  0  0  0  0  0  0  0  0  0
    6.0659    3.5807    0.0000 O   0  0  0  0  0  0  0  0  0  0  0  0
    5.2370   -4.1853    0.0000 C   0  0  0  0  0  0  0  0  0  0  0  0
    5.2038   -2.0300    0.0000 C   0  0  0  0  0  0  0  0  0  0  0  0
    5.1877   -0.9885    0.0000 C   0  0  0  0  0  0  0  0  0  0  0  0
    4.3058   -2.5578    0.0000 C   0  0  0  0  0  0  0  0  0  0  0  0
    6.1725   -3.6355    0.0000 C   0  0  0  0  0  0  0  0  0  0  0  0
    4.3217   -0.4885    0.0000 C   0  0  0  0  0  0  0  0  0  0  0  0
    6.1557   -2.5507    0.0000 C   0  0  0  0  0  0  0  0  0  0  0  0
    6.0538    0.5115    0.0000 C   0  0  0  0  0  0  0  0  0  0  0  0
    6.0538   -0.4885    0.0000 C   0  0  0  0  0  0  0  0  0  0  0  0
    5.7404   -5.0493    0.0000 C   0  0  0  0  0  0  0  0  0  0  0  0
    4.7404   -5.0532    0.0000 C   0  0  0  0  0  0  0  0  0  0  0  0
    3.4037   -2.0370    0.0000 C   0  0  0  0  0  0  0  0  0  0  0  0
    5.1877    1.0115    0.0000 C   0  0  0  0  0  0  0  0  0  0  0  0
    3.4117   -0.9954    0.0000 C   0  0  0  0  0  0  0  0  0  0  0  0
    6.9638    1.0183    0.0000 C   0  0  0  0  0  0  0  0  0  0  0  0
    6.9718    2.0599    0.0000 C   0  0  0  0  0  0  0  0  0  0  0  0
    5.1717    2.0530    0.0000 C   0  0  0  0  0  0  0  0  0  0  0  0
    6.0697    2.5807    0.0000 C   0  0  0  0  0  0  0  0  0  0  0  0
    7.8397    2.5566    0.0000 C   0  0  0  0  0  0  0  0  0  0  0  0
    7.8436    3.5566    0.0000 C   0  0  0  0  0  0  0  0  0  0  0  0
    8.7115    4.0532    0.0000 C   0  0  0  0  0  0  0  0  0  0  0  0
    8.7154    5.0532    0.0000 C   0  0  0  0  0  0  0  0  0  0  0  0
    9.5756    3.5499    0.0000 C   0  0  0  0  0  0  0  0  0  0  0  0
    6.7129   -3.9393    0.0000 H   0  0  0  0  0  0  0  0  0  0  0  0
    6.6866   -2.2304    0.0000 H   0  0  0  0  0  0  0  0  0  0  0  0
    5.2046   -5.3614    0.0000 H   0  0  0  0  0  0  0  0  0  0  0  0
    6.0524   -5.5851    0.0000 H   0  0  0  0  0  0  0  0  0  0  0  0
    6.2761   -4.7373    0.0000 H   0  0  0  0  0  0  0  0  0  0  0  0
    4.2022   -4.7453    0.0000 H   0  0  0  0  0  0  0  0  0  0  0  0
    4.4324   -5.5913    0.0000 H   0  0  0  0  0  0  0  0  0  0  0  0
    5.2785   -5.3611    0.0000 H   0  0  0  0  0  0  0  0  0  0  0  0
    2.8784   -0.6792    0.0000 H   0  0  0  0  0  0  0  0  0  0  0  0
    4.6312    2.3567    0.0000 H   0  0  0  0  0  0  0  0  0  0  0  0
    8.0496    1.9731    0.0000 H   0  0  0  0  0  0  0  0  0  0  0  0
    8.4507    2.6619    0.0000 H   0  0  0  0  0  0  0  0  0  0  0  0
    7.3079    3.8686    0.0000 H   0  0  0  0  0  0  0  0  0  0  0  0
    2.0000   -2.2216    0.0000 H   0  0  0  0  0  0  0  0  0  0  0  0
    8.3644    0.8121    0.0000 H   0  0  0  0  0  0  0  0  0  0  0  0
    5.5277    3.8886    0.0000 H   0  0  0  0  0  0  0  0  0  0  0  0
    9.3354    5.0508    0.0000 H   0  0  0  0  0  0  0  0  0  0  0  0
    9.2636    3.0141    0.0000 H   0  0  0  0  0  0  0  0  0  0  0  0
   10.1114    3.2378    0.0000 H   0  0  0  0  0  0  0  0  0  0  0  0
    9.8877    4.0856    0.0000 H   0  0  0  0  0  0  0  0  0  0  0  0
    8.7178    5.6732    0.0000 H   0  0  0  0  0  0  0  0  0  0  0  0
    8.0954    5.0556    0.0000 H   0  0  0  0  0  0  0  0  0  0  0  0
  1  7  1  0  0  0  0
  1 10  1  0  0  0  0
  2 12  1  0  0  0  0
  2 19  1  0  0  0  0
  3 18  1  0  0  0  0
  3 43  1  0  0  0  0
  4 15  2  0  0  0  0
  5 21  1  0  0  0  0
  5 44  1  0  0  0  0
  6 24  1  0  0  0  0
  6 45  1  0  0  0  0
  7 11  1  0  0  0  0
  7 16  1  0  0  0  0
  7 17  1  0  0  0  0
  8  9  1  0  0  0  0
  8 10  2  0  0  0  0
  8 13  1  0  0  0  0
  9 12  2  0  0  0  0
  9 15  1  0  0  0  0
 10 18  1  0  0  0  0
 11 13  2  0  0  0  0
 11 30  1  0  0  0  0
 12 20  1  0  0  0  0
 13 31  1  0  0  0  0
 14 15  1  0  0  0  0
 14 19  2  0  0  0  0
 14 21  1  0  0  0  0
 16 32  1  0  0  0  0
 16 33  1  0  0  0  0
 16 34  1  0  0  0  0
 17 35  1  0  0  0  0
 17 36  1  0  0  0  0
 17 37  1  0  0  0  0
 18 20  2  0  0  0  0
 19 23  1  0  0  0  0
 20 38  1  0  0  0  0
 21 22  2  0  0  0  0
 22 24  1  0  0  0  0
 22 25  1  0  0  0  0
 23 24  2  0  0  0  0
 23 39  1  0  0  0  0
 25 26  1  0  0  0  0
 25 40  1  0  0  0  0
 25 41  1  0  0  0  0
 26 27  2  0  0  0  0
 26 42  1  0  0  0  0
 27 28  1  0  0  0  0
 27 29  1  0  0  0  0
 28 46  1  0  0  0  0
 28 50  1  0  0  0  0
 28 51  1  0  0  0  0
 29 47  1  0  0  0  0
 29 48  1  0  0  0  0
 29 49  1  0  0  0  0
M  END
>  <PUBCHEM_COMPOUND_CID>
5495928

>  <PUBCHEM_COMPOUND_CANONICALIZED>
1

>  <PUBCHEM_CACTVS_COMPLEXITY>
708

>  <PUBCHEM_CACTVS_HBOND_ACCEPTOR>
6

>  <PUBCHEM_CACTVS_HBOND_DONOR>
3

>  <PUBCHEM_CACTVS_ROTATABLE_BOND>
2

>  <PUBCHEM_CACTVS_SUBSKEYS>
AAADceB4OAAAAAAAAAAAAAAAAAAAAAAAAAA0YIEAAAAAAACRQAAAGgAACAAADESAmAAyBoAABgCIAqBSAAACCAAkIAAIiAEGiMgNJzaGNRqCeWOl4BULuQfK7PzOoQADCAAYQABCAAYQADCAAAAAAAAAAA==

>  <PUBCHEM_IUPAC_OPENEYE_NAME>
5,9,11-trihydroxy-3,3-dimethyl-10-(3-methylbut-2-enyl)pyrano[3,2-a]xanthen-12-one

>  <PUBCHEM_IUPAC_CAS_NAME>
5,9,11-trihydroxy-3,3-dimethyl-10-(3-methylbut-2-enyl)-12-pyrano[3,2-a]xanthenone

>  <PUBCHEM_IUPAC_NAME>
5,9,11-trihydroxy-3,3-dimethyl-10-(3-methylbut-2-enyl)pyrano[3,2-a]xanthen-12-one

>  <PUBCHEM_IUPAC_SYSTEMATIC_NAME>
3,3-dimethyl-10-(3-methylbut-2-enyl)-5,9,11-tris(oxidanyl)pyrano[3,2-a]xanthen-12-one

>  <PUBCHEM_IUPAC_TRADITIONAL_NAME>
5,9,11-trihydroxy-3,3-dimethyl-10-(3-methylbut-2-enyl)pyrano[3,2-a]xanthen-12-one

>  <PUBCHEM_IUPAC_INCHI>
InChI=1S/C23H22O6/c1-11(2)5-6-12-14(24)9-17-19(20(12)26)21(27)18-13-7-8-23(3,4)29-22(13)15(25)10-16(18)28-17/h5,7-10,24-26H,6H2,1-4H3

>  <PUBCHEM_IUPAC_INCHIKEY>
HVXHJNVYRXRHNX-UHFFFAOYSA-N

>  <PUBCHEM_XLOGP3_AA>
5.3

>  <PUBCHEM_EXACT_MASS>
394.142

>  <PUBCHEM_MOLECULAR_FORMULA>
C23H22O6

>  <PUBCHEM_MOLECULAR_WEIGHT>
394.423

>  <PUBCHEM_OPENEYE_CAN_SMILES>
CC(=CCC1=C(C=C2C(=C1O)C(=O)C3=C4C=CC(OC4=C(C=C3O2)O)(C)C)O)C

>  <PUBCHEM_OPENEYE_ISO_SMILES>
CC(=CCC1=C(C=C2C(=C1O)C(=O)C3=C4C=CC(OC4=C(C=C3O2)O)(C)C)O)C

>  <PUBCHEM_CACTVS_TPSA>
96.2

>  <PUBCHEM_MONOISOTOPIC_WEIGHT>
394.142

>  <PUBCHEM_TOTAL_CHARGE>
0

>  <PUBCHEM_HEAVY_ATOM_COUNT>
29

>  <PUBCHEM_ATOM_DEF_STEREO_COUNT>
0

>  <PUBCHEM_ATOM_UDEF_STEREO_COUNT>
0

>  <PUBCHEM_BOND_DEF_STEREO_COUNT>
0

>  <PUBCHEM_BOND_UDEF_STEREO_COUNT>
0

>  <PUBCHEM_ISOTOPIC_ATOM_COUNT>
0

>  <PUBCHEM_COMPONENT_COUNT>
1

>  <PUBCHEM_CACTVS_TAUTO_COUNT>
45

>  <PUBCHEM_COORDINATE_TYPE>
1
5
255

>  <PUBCHEM_BONDANNOTATIONS>
10  18  8
12  20  8
14  15  8
14  19  8
14  21  8
18  20  8
19  23  8
2  12  8
2  19  8
21  22  8
22  24  8
23  24  8
8  10  8
8  9  8
9  12  8
9  15  8

$$$$
