5495925
 OpenBabel06101807152D

 59 61  0  0  0  0  0  0  0  0999 V2000
    8.1301   -2.0152    0.0000 O   0  0  0  0  0  0  0  0  0  0  0  0
   11.6602    0.0090    0.0000 O   0  0  0  0  0  0  0  0  0  0  0  0
    6.3817    1.0194    0.0000 O   0  0  0  0  0  0  0  0  0  0  0  0
    4.6000   -2.0393    0.0000 O   0  0  0  0  0  0  0  0  0  0  0  0
    8.1301    0.9848    0.0000 O   0  0  0  0  0  0  0  0  0  0  0  0
   11.6602   -2.0393    0.0000 O   0  0  0  0  0  0  0  0  0  0  0  0
    8.9961   -0.5152    0.0000 C   0  0  0  0  0  0  0  0  0  0  0  0
    7.2641   -0.5152    0.0000 C   0  0  0  0  0  0  0  0  0  0  0  0
    9.8901    0.0195    0.0000 C   0  0  0  0  0  0  0  0  0  0  0  0
    8.9961   -1.5152    0.0000 C   0  0  0  0  0  0  0  0  0  0  0  0
    7.2641   -1.5152    0.0000 C   0  0  0  0  0  0  0  0  0  0  0  0
    8.1301   -0.0152    0.0000 C   0  0  0  0  0  0  0  0  0  0  0  0
    5.4641   -0.4944    0.0000 C   0  0  0  0  0  0  0  0  0  0  0  0
    6.3701    0.0195    0.0000 C   0  0  0  0  0  0  0  0  0  0  0  0
    9.8785    1.0194    0.0000 C   0  0  0  0  0  0  0  0  0  0  0  0
   10.7961   -0.4944    0.0000 C   0  0  0  0  0  0  0  0  0  0  0  0
    5.4641   -1.5360    0.0000 C   0  0  0  0  0  0  0  0  0  0  0  0
    6.3701   -2.0498    0.0000 C   0  0  0  0  0  0  0  0  0  0  0  0
    9.8901   -2.0498    0.0000 C   0  0  0  0  0  0  0  0  0  0  0  0
    4.6000    0.0090    0.0000 C   0  0  0  0  0  0  0  0  0  0  0  0
   10.7961   -1.5360    0.0000 C   0  0  0  0  0  0  0  0  0  0  0  0
   10.7387    1.5294    0.0000 C   0  0  0  0  0  0  0  0  0  0  0  0
    3.7320   -0.4877    0.0000 C   0  0  0  0  0  0  0  0  0  0  0  0
   10.7271    2.5293    0.0000 C   0  0  0  0  0  0  0  0  0  0  0  0
    2.8680    0.0157    0.0000 C   0  0  0  0  0  0  0  0  0  0  0  0
   11.5873    3.0393    0.0000 C   0  0  0  0  0  0  0  0  0  0  0  0
    9.8554    3.0193    0.0000 C   0  0  0  0  0  0  0  0  0  0  0  0
   12.5282   -0.4877    0.0000 C   0  0  0  0  0  0  0  0  0  0  0  0
    4.6038   -3.0393    0.0000 C   0  0  0  0  0  0  0  0  0  0  0  0
    2.0000   -0.4810    0.0000 C   0  0  0  0  0  0  0  0  0  0  0  0
    2.8718    1.0156    0.0000 C   0  0  0  0  0  0  0  0  0  0  0  0
    9.6597    1.5995    0.0000 H   0  0  0  0  0  0  0  0  0  0  0  0
    9.2692    0.9047    0.0000 H   0  0  0  0  0  0  0  0  0  0  0  0
    6.3773   -2.6698    0.0000 H   0  0  0  0  0  0  0  0  0  0  0  0
    5.0003    0.4824    0.0000 H   0  0  0  0  0  0  0  0  0  0  0  0
    4.2033    0.4855    0.0000 H   0  0  0  0  0  0  0  0  0  0  0  0
    9.8829   -2.6698    0.0000 H   0  0  0  0  0  0  0  0  0  0  0  0
   11.2792    1.2256    0.0000 H   0  0  0  0  0  0  0  0  0  0  0  0
    3.7296   -1.1077    0.0000 H   0  0  0  0  0  0  0  0  0  0  0  0
    5.8484    1.3356    0.0000 H   0  0  0  0  0  0  0  0  0  0  0  0
   11.6578   -2.6593    0.0000 H   0  0  0  0  0  0  0  0  0  0  0  0
   10.1592    3.5598    0.0000 H   0  0  0  0  0  0  0  0  0  0  0  0
    9.3149    3.3231    0.0000 H   0  0  0  0  0  0  0  0  0  0  0  0
    9.5516    2.4788    0.0000 H   0  0  0  0  0  0  0  0  0  0  0  0
   11.9035    2.5060    0.0000 H   0  0  0  0  0  0  0  0  0  0  0  0
   12.1206    3.3555    0.0000 H   0  0  0  0  0  0  0  0  0  0  0  0
   11.2711    3.5726    0.0000 H   0  0  0  0  0  0  0  0  0  0  0  0
   12.2203   -1.0258    0.0000 H   0  0  0  0  0  0  0  0  0  0  0  0
   13.0663   -0.7956    0.0000 H   0  0  0  0  0  0  0  0  0  0  0  0
   12.8361    0.0504    0.0000 H   0  0  0  0  0  0  0  0  0  0  0  0
    3.9838   -3.0417    0.0000 H   0  0  0  0  0  0  0  0  0  0  0  0
    4.6062   -3.6593    0.0000 H   0  0  0  0  0  0  0  0  0  0  0  0
    5.2238   -3.0369    0.0000 H   0  0  0  0  0  0  0  0  0  0  0  0
    1.6921    0.0571    0.0000 H   0  0  0  0  0  0  0  0  0  0  0  0
    3.4918    1.0133    0.0000 H   0  0  0  0  0  0  0  0  0  0  0  0
    2.8742    1.6356    0.0000 H   0  0  0  0  0  0  0  0  0  0  0  0
    2.2518    1.0180    0.0000 H   0  0  0  0  0  0  0  0  0  0  0  0
    1.4619   -0.7889    0.0000 H   0  0  0  0  0  0  0  0  0  0  0  0
    2.3079   -1.0191    0.0000 H   0  0  0  0  0  0  0  0  0  0  0  0
  1 10  1  0  0  0  0
  1 11  1  0  0  0  0
  2 16  1  0  0  0  0
  2 28  1  0  0  0  0
  3 14  1  0  0  0  0
  3 40  1  0  0  0  0
  4 17  1  0  0  0  0
  4 29  1  0  0  0  0
  5 12  2  0  0  0  0
  6 21  1  0  0  0  0
  6 41  1  0  0  0  0
  7  9  1  0  0  0  0
  7 10  2  0  0  0  0
  7 12  1  0  0  0  0
  8 11  1  0  0  0  0
  8 12  1  0  0  0  0
  8 14  2  0  0  0  0
  9 15  1  0  0  0  0
  9 16  2  0  0  0  0
 10 19  1  0  0  0  0
 11 18  2  0  0  0  0
 13 14  1  0  0  0  0
 13 17  2  0  0  0  0
 13 20  1  0  0  0  0
 15 22  1  0  0  0  0
 15 32  1  0  0  0  0
 15 33  1  0  0  0  0
 16 21  1  0  0  0  0
 17 18  1  0  0  0  0
 18 34  1  0  0  0  0
 19 21  2  0  0  0  0
 19 37  1  0  0  0  0
 20 23  1  0  0  0  0
 20 35  1  0  0  0  0
 20 36  1  0  0  0  0
 22 24  2  0  0  0  0
 22 38  1  0  0  0  0
 23 25  2  0  0  0  0
 23 39  1  0  0  0  0
 24 26  1  0  0  0  0
 24 27  1  0  0  0  0
 25 30  1  0  0  0  0
 25 31  1  0  0  0  0
 26 45  1  0  0  0  0
 26 46  1  0  0  0  0
 26 47  1  0  0  0  0
 27 42  1  0  0  0  0
 27 43  1  0  0  0  0
 27 44  1  0  0  0  0
 28 48  1  0  0  0  0
 28 49  1  0  0  0  0
 28 50  1  0  0  0  0
 29 51  1  0  0  0  0
 29 52  1  0  0  0  0
 29 53  1  0  0  0  0
 30 54  1  0  0  0  0
 30 58  1  0  0  0  0
 30 59  1  0  0  0  0
 31 55  1  0  0  0  0
 31 56  1  0  0  0  0
 31 57  1  0  0  0  0
M  END
>  <PUBCHEM_COMPOUND_CID>
5495925

>  <PUBCHEM_COMPOUND_CANONICALIZED>
1

>  <PUBCHEM_CACTVS_COMPLEXITY>
692

>  <PUBCHEM_CACTVS_HBOND_ACCEPTOR>
6

>  <PUBCHEM_CACTVS_HBOND_DONOR>
2

>  <PUBCHEM_CACTVS_ROTATABLE_BOND>
6

>  <PUBCHEM_CACTVS_SUBSKEYS>
AAADceB4OAAAAAAAAAAAAAAAAAAAAAAAAAA0YIAAAAAAAACRQAAAGgAACAAADASAmAIyBoAABgCIAqBSAAACCAAkIAAAiAEGiMgNJzaGNRqCeWOl4BULuQfK7PzOoQADCAAYQABCAAYQADCAAAAAAAAAAA==

>  <PUBCHEM_IUPAC_OPENEYE_NAME>
1,6-dihydroxy-3,7-dimethoxy-2,8-bis(3-methylbut-2-enyl)xanthen-9-one

>  <PUBCHEM_IUPAC_CAS_NAME>
1,6-dihydroxy-3,7-dimethoxy-2,8-bis(3-methylbut-2-enyl)-9-xanthenone

>  <PUBCHEM_IUPAC_NAME>
1,6-dihydroxy-3,7-dimethoxy-2,8-bis(3-methylbut-2-enyl)xanthen-9-one

>  <PUBCHEM_IUPAC_SYSTEMATIC_NAME>
2,6-dimethoxy-1,7-bis(3-methylbut-2-enyl)-3,8-bis(oxidanyl)xanthen-9-one

>  <PUBCHEM_IUPAC_TRADITIONAL_NAME>
1,6-dihydroxy-3,7-dimethoxy-2,8-bis(3-methylbut-2-enyl)xanthone

>  <PUBCHEM_IUPAC_INCHI>
InChI=1S/C25H28O6/c1-13(2)7-9-15-18(29-5)12-20-22(23(15)27)24(28)21-16(10-8-14(3)4)25(30-6)17(26)11-19(21)31-20/h7-8,11-12,26-27H,9-10H2,1-6H3

>  <PUBCHEM_IUPAC_INCHIKEY>
YRKKJHJIWCRNCW-UHFFFAOYSA-N

>  <PUBCHEM_XLOGP3_AA>
6.6

>  <PUBCHEM_EXACT_MASS>
424.189

>  <PUBCHEM_MOLECULAR_FORMULA>
C25H28O6

>  <PUBCHEM_MOLECULAR_WEIGHT>
424.493

>  <PUBCHEM_OPENEYE_CAN_SMILES>
CC(=CCC1=C(C=C2C(=C1O)C(=O)C3=C(C(=C(C=C3O2)O)OC)CC=C(C)C)OC)C

>  <PUBCHEM_OPENEYE_ISO_SMILES>
CC(=CCC1=C(C=C2C(=C1O)C(=O)C3=C(C(=C(C=C3O2)O)OC)CC=C(C)C)OC)C

>  <PUBCHEM_CACTVS_TPSA>
85.2

>  <PUBCHEM_MONOISOTOPIC_WEIGHT>
424.189

>  <PUBCHEM_TOTAL_CHARGE>
0

>  <PUBCHEM_HEAVY_ATOM_COUNT>
31

>  <PUBCHEM_ATOM_DEF_STEREO_COUNT>
0

>  <PUBCHEM_ATOM_UDEF_STEREO_COUNT>
0

>  <PUBCHEM_BOND_DEF_STEREO_COUNT>
0

>  <PUBCHEM_BOND_UDEF_STEREO_COUNT>
0

>  <PUBCHEM_ISOTOPIC_ATOM_COUNT>
0

>  <PUBCHEM_COMPONENT_COUNT>
1

>  <PUBCHEM_CACTVS_TAUTO_COUNT>
81

>  <PUBCHEM_COORDINATE_TYPE>
1
5
255

>  <PUBCHEM_BONDANNOTATIONS>
1  10  8
1  11  8
10  19  8
11  18  8
13  14  8
13  17  8
16  21  8
17  18  8
19  21  8
7  10  8
7  12  8
7  9  8
8  11  8
8  12  8
8  14  8
9  16  8

$$$$
