5513
 OpenBabel06101807152D

155164  0  0  1  0  0  0  0  0999 V2000
   14.3523    6.0022    0.0000 O   0  0  0  0  0  0  0  0  0  0  0  0
   12.9292   -2.2419    0.0000 O   0  0  0  0  0  0  0  0  0  0  0  0
   11.1972   -2.2419    0.0000 O   0  0  0  0  0  0  0  0  0  0  0  0
   12.9292   -4.2419    0.0000 O   0  0  0  0  0  0  0  0  0  0  0  0
   11.1972   -5.2419    0.0000 O   0  0  0  0  0  0  0  0  0  0  0  0
    9.4651   -4.2419    0.0000 O   0  0  0  0  0  0  0  0  0  0  0  0
    9.4651   -1.2419    0.0000 O   0  0  0  0  0  0  0  0  0  0  0  0
    8.5991   -2.7419    0.0000 O   0  0  0  0  0  0  0  0  0  0  0  0
    7.7331   -5.2419    0.0000 O   0  0  0  0  0  0  0  0  0  0  0  0
    6.0010   -4.2419    0.0000 O   0  0  0  0  0  0  0  0  0  0  0  0
    6.0010   -2.2419    0.0000 O   0  0  0  0  0  0  0  0  0  0  0  0
    6.4062   -6.3552    0.0000 O   0  0  0  0  0  0  0  0  0  0  0  0
    6.8671   -0.7419    0.0000 O   0  0  0  0  0  0  0  0  0  0  0  0
    5.1350   -2.7419    0.0000 O   0  0  0  0  0  0  0  0  0  0  0  0
    9.0187   -6.7739    0.0000 O   0  0  0  0  0  0  0  0  0  0  0  0
    8.3347   -8.6534    0.0000 O   0  0  0  0  0  0  0  0  0  0  0  0
    4.2690   -5.2419    0.0000 O   0  0  0  0  0  0  0  0  0  0  0  0
    6.3650   -9.0006    0.0000 O   0  0  0  0  0  0  0  0  0  0  0  0
    2.5369   -4.2419    0.0000 O   0  0  0  0  0  0  0  0  0  0  0  0
    2.5369   -2.2419    0.0000 O   0  0  0  0  0  0  0  0  0  0  0  0
    4.7374   -8.4082    0.0000 O   0  0  0  0  0  0  0  0  0  0  0  0
   14.3019    7.0832    0.0000 N   0  0  0  0  0  0  0  0  0  0  0  0
   12.9585    3.9550    0.0000 C   0  0  3  0  0  0  0  0  0  0  0  0
   13.8264    3.4583    0.0000 C   0  0  3  0  0  0  0  0  0  0  0  0
   13.1640    4.9276    0.0000 C   0  0  3  0  0  0  0  0  0  0  0  0
   13.8303    2.4583    0.0000 C   0  0  3  0  0  0  0  0  0  0  0  0
   12.9662    1.9550    0.0000 C   0  0  3  0  0  0  0  0  0  0  0  0
   14.1523    5.0345    0.0000 C   0  0  3  0  0  0  0  0  0  0  0  0
   12.9542    0.9134    0.0000 C   0  0  3  0  0  0  0  0  0  0  0  0
   14.5609    4.1282    0.0000 C   0  0  0  0  0  0  0  0  0  0  0  0
   12.0944    3.4516    0.0000 C   0  0  0  0  0  0  0  0  0  0  0  0
   12.7617    5.8302    0.0000 C   0  0  3  0  0  0  0  0  0  0  0  0
   12.0983    2.4517    0.0000 C   0  0  0  0  0  0  0  0  0  0  0  0
   13.8542    0.3891    0.0000 C   0  0  3  0  0  0  0  0  0  0  0  0
   14.7422    1.9550    0.0000 C   0  0  0  0  0  0  0  0  0  0  0  0
   13.4946    6.4930    0.0000 C   0  0  3  0  0  0  0  0  0  0  0  0
   14.7543    0.9134    0.0000 C   0  0  0  0  0  0  0  0  0  0  0  0
   12.0906    4.4516    0.0000 C   0  0  0  0  0  0  0  0  0  0  0  0
   12.0043    0.3891    0.0000 C   0  0  0  0  0  0  0  0  0  0  0  0
   13.8668   -0.6958    0.0000 C   0  0  0  0  0  0  0  0  0  0  0  0
   12.0901    1.4168    0.0000 C   0  0  0  0  0  0  0  0  0  0  0  0
   12.5799    6.8970    0.0000 C   0  0  0  0  0  0  0  0  0  0  0  0
   11.7833    6.0369    0.0000 C   0  0  0  0  0  0  0  0  0  0  0  0
   11.9917   -0.6958    0.0000 C   0  0  0  0  0  0  0  0  0  0  0  0
   12.9292   -1.2419    0.0000 C   0  0  3  0  0  0  0  0  0  0  0  0
   12.4724    7.8912    0.0000 C   0  0  0  0  0  0  0  0  0  0  0  0
   14.1944    8.0774    0.0000 C   0  0  0  0  0  0  0  0  0  0  0  0
   13.2796    8.4814    0.0000 C   0  0  3  0  0  0  0  0  0  0  0  0
   13.1721    9.4756    0.0000 C   0  0  0  0  0  0  0  0  0  0  0  0
   12.0632   -2.7419    0.0000 C   0  0  3  0  0  0  0  0  0  0  0  0
   12.0632   -3.7419    0.0000 C   0  0  3  0  0  0  0  0  0  0  0  0
   11.1972   -4.2419    0.0000 C   0  0  3  0  0  0  0  0  0  0  0  0
   10.3312   -2.7419    0.0000 C   0  0  3  0  0  0  0  0  0  0  0  0
   10.3312   -3.7419    0.0000 C   0  0  3  0  0  0  0  0  0  0  0  0
    9.4651   -2.2419    0.0000 C   0  0  0  0  0  0  0  0  0  0  0  0
    8.5991   -3.7419    0.0000 C   0  0  3  0  0  0  0  0  0  0  0  0
    7.7331   -4.2419    0.0000 C   0  0  3  0  0  0  0  0  0  0  0  0
    6.8671   -3.7419    0.0000 C   0  0  3  0  0  0  0  0  0  0  0  0
    7.7331   -2.2419    0.0000 C   0  0  3  0  0  0  0  0  0  0  0  0
    6.8671   -2.7419    0.0000 C   0  0  3  0  0  0  0  0  0  0  0  0
    7.7331   -1.2419    0.0000 C   0  0  0  0  0  0  0  0  0  0  0  0
    7.3910   -6.1816    0.0000 C   0  0  3  0  0  0  0  0  0  0  0  0
    5.1350   -3.7419    0.0000 C   0  0  3  0  0  0  0  0  0  0  0  0
    8.0339   -6.9476    0.0000 C   0  0  3  0  0  0  0  0  0  0  0  0
    7.6918   -7.8873    0.0000 C   0  0  3  0  0  0  0  0  0  0  0  0
    4.2690   -4.2419    0.0000 C   0  0  3  0  0  0  0  0  0  0  0  0
    6.0642   -7.2949    0.0000 C   0  0  3  0  0  0  0  0  0  0  0  0
    6.7070   -8.0610    0.0000 C   0  0  3  0  0  0  0  0  0  0  0  0
    3.4030   -3.7419    0.0000 C   0  0  3  0  0  0  0  0  0  0  0  0
    4.2690   -2.2419    0.0000 C   0  0  0  0  0  0  0  0  0  0  0  0
    3.4030   -2.7419    0.0000 C   0  0  3  0  0  0  0  0  0  0  0  0
    5.0794   -7.4685    0.0000 C   0  0  0  0  0  0  0  0  0  0  0  0
   14.6047    3.1166    0.0000 H   0  0  0  0  0  0  0  0  0  0  0  0
   12.3187    4.8380    0.0000 H   0  0  0  0  0  0  0  0  0  0  0  0
   14.5615    2.8918    0.0000 H   0  0  0  0  0  0  0  0  0  0  0  0
   13.7007    1.5272    0.0000 H   0  0  0  0  0  0  0  0  0  0  0  0
   14.9972    5.1277    0.0000 H   0  0  0  0  0  0  0  0  0  0  0  0
   14.9283    3.6288    0.0000 H   0  0  0  0  0  0  0  0  0  0  0  0
   15.0962    4.4411    0.0000 H   0  0  0  0  0  0  0  0  0  0  0  0
   11.8801    4.0334    0.0000 H   0  0  0  0  0  0  0  0  0  0  0  0
   11.4842    3.3416    0.0000 H   0  0  0  0  0  0  0  0  0  0  0  0
   12.2273    5.1692    0.0000 H   0  0  0  0  0  0  0  0  0  0  0  0
   11.4873    2.5570    0.0000 H   0  0  0  0  0  0  0  0  0  0  0  0
   11.8885    1.8682    0.0000 H   0  0  0  0  0  0  0  0  0  0  0  0
   14.5936   -0.0302    0.0000 H   0  0  0  0  0  0  0  0  0  0  0  0
   15.3543    1.8560    0.0000 H   0  0  0  0  0  0  0  0  0  0  0  0
   14.9445    2.5411    0.0000 H   0  0  0  0  0  0  0  0  0  0  0  0
   14.9701    0.3322    0.0000 H   0  0  0  0  0  0  0  0  0  0  0  0
   15.3639    1.0266    0.0000 H   0  0  0  0  0  0  0  0  0  0  0  0
   12.3985    4.9898    0.0000 H   0  0  0  0  0  0  0  0  0  0  0  0
   11.5524    4.7596    0.0000 H   0  0  0  0  0  0  0  0  0  0  0  0
   11.7826    3.9135    0.0000 H   0  0  0  0  0  0  0  0  0  0  0  0
   11.8020    0.9752    0.0000 H   0  0  0  0  0  0  0  0  0  0  0  0
   11.3922    0.2901    0.0000 H   0  0  0  0  0  0  0  0  0  0  0  0
   14.0826   -1.2770    0.0000 H   0  0  0  0  0  0  0  0  0  0  0  0
   14.4764   -0.5826    0.0000 H   0  0  0  0  0  0  0  0  0  0  0  0
   12.4021    1.9525    0.0000 H   0  0  0  0  0  0  0  0  0  0  0  0
   11.5543    1.7288    0.0000 H   0  0  0  0  0  0  0  0  0  0  0  0
   11.7780    0.8810    0.0000 H   0  0  0  0  0  0  0  0  0  0  0  0
   11.9613    6.9384    0.0000 H   0  0  0  0  0  0  0  0  0  0  0  0
   12.4317    6.2950    0.0000 H   0  0  0  0  0  0  0  0  0  0  0  0
   11.9114    6.6435    0.0000 H   0  0  0  0  0  0  0  0  0  0  0  0
   11.1766    6.1650    0.0000 H   0  0  0  0  0  0  0  0  0  0  0  0
   11.6551    5.4303    0.0000 H   0  0  0  0  0  0  0  0  0  0  0  0
   11.3821   -0.5826    0.0000 H   0  0  0  0  0  0  0  0  0  0  0  0
   11.7759   -1.2770    0.0000 H   0  0  0  0  0  0  0  0  0  0  0  0
   12.1923   -1.6655    0.0000 H   0  0  0  0  0  0  0  0  0  0  0  0
   14.8690    6.8327    0.0000 H   0  0  0  0  0  0  0  0  0  0  0  0
   12.1989    8.4476    0.0000 H   0  0  0  0  0  0  0  0  0  0  0  0
   11.8769    7.7185    0.0000 H   0  0  0  0  0  0  0  0  0  0  0  0
   14.8130    8.0360    0.0000 H   0  0  0  0  0  0  0  0  0  0  0  0
   14.3426    8.6794    0.0000 H   0  0  0  0  0  0  0  0  0  0  0  0
   13.9658    8.9831    0.0000 H   0  0  0  0  0  0  0  0  0  0  0  0
   13.7885    9.5422    0.0000 H   0  0  0  0  0  0  0  0  0  0  0  0
   13.1055   10.0920    0.0000 H   0  0  0  0  0  0  0  0  0  0  0  0
   12.5557    9.4090    0.0000 H   0  0  0  0  0  0  0  0  0  0  0  0
   12.7993   -3.1669    0.0000 H   0  0  0  0  0  0  0  0  0  0  0  0
   12.0632   -4.5919    0.0000 H   0  0  0  0  0  0  0  0  0  0  0  0
   10.4611   -4.6669    0.0000 H   0  0  0  0  0  0  0  0  0  0  0  0
   10.3312   -1.8919    0.0000 H   0  0  0  0  0  0  0  0  0  0  0  0
    9.5950   -3.3169    0.0000 H   0  0  0  0  0  0  0  0  0  0  0  0
   13.4662   -3.9319    0.0000 H   0  0  0  0  0  0  0  0  0  0  0  0
    8.8546   -2.1342    0.0000 H   0  0  0  0  0  0  0  0  0  0  0  0
    9.2531   -2.8245    0.0000 H   0  0  0  0  0  0  0  0  0  0  0  0
   11.7341   -5.5519    0.0000 H   0  0  0  0  0  0  0  0  0  0  0  0
    8.5991   -4.5919    0.0000 H   0  0  0  0  0  0  0  0  0  0  0  0
    8.9282   -0.9319    0.0000 H   0  0  0  0  0  0  0  0  0  0  0  0
    6.9970   -4.6669    0.0000 H   0  0  0  0  0  0  0  0  0  0  0  0
    6.1309   -3.3169    0.0000 H   0  0  0  0  0  0  0  0  0  0  0  0
    8.4692   -1.8169    0.0000 H   0  0  0  0  0  0  0  0  0  0  0  0
    6.8671   -1.8919    0.0000 H   0  0  0  0  0  0  0  0  0  0  0  0
    8.3437   -1.3496    0.0000 H   0  0  0  0  0  0  0  0  0  0  0  0
    7.9451   -0.6593    0.0000 H   0  0  0  0  0  0  0  0  0  0  0  0
    6.8447   -5.5304    0.0000 H   0  0  0  0  0  0  0  0  0  0  0  0
    6.0010   -1.6219    0.0000 H   0  0  0  0  0  0  0  0  0  0  0  0
    5.1350   -4.5919    0.0000 H   0  0  0  0  0  0  0  0  0  0  0  0
    8.5803   -7.5988    0.0000 H   0  0  0  0  0  0  0  0  0  0  0  0
    7.4011   -8.6861    0.0000 H   0  0  0  0  0  0  0  0  0  0  0  0
    3.5329   -4.6669    0.0000 H   0  0  0  0  0  0  0  0  0  0  0  0
    6.8671   -0.1219    0.0000 H   0  0  0  0  0  0  0  0  0  0  0  0
    5.5178   -6.6437    0.0000 H   0  0  0  0  0  0  0  0  0  0  0  0
    5.8699   -8.2086    0.0000 H   0  0  0  0  0  0  0  0  0  0  0  0
    2.6668   -3.3169    0.0000 H   0  0  0  0  0  0  0  0  0  0  0  0
    9.4173   -7.2489    0.0000 H   0  0  0  0  0  0  0  0  0  0  0  0
    4.6675   -1.7669    0.0000 H   0  0  0  0  0  0  0  0  0  0  0  0
    3.8705   -1.7669    0.0000 H   0  0  0  0  0  0  0  0  0  0  0  0
    3.4030   -1.8919    0.0000 H   0  0  0  0  0  0  0  0  0  0  0  0
    5.0794   -6.8485    0.0000 H   0  0  0  0  0  0  0  0  0  0  0  0
    4.4688   -7.3608    0.0000 H   0  0  0  0  0  0  0  0  0  0  0  0
    8.9453   -8.5457    0.0000 H   0  0  0  0  0  0  0  0  0  0  0  0
    3.7320   -5.5519    0.0000 H   0  0  0  0  0  0  0  0  0  0  0  0
    6.7635   -9.4756    0.0000 H   0  0  0  0  0  0  0  0  0  0  0  0
    2.0000   -3.9319    0.0000 H   0  0  0  0  0  0  0  0  0  0  0  0
    2.5369   -1.6219    0.0000 H   0  0  0  0  0  0  0  0  0  0  0  0
    4.1268   -8.5158    0.0000 H   0  0  0  0  0  0  0  0  0  0  0  0
  1 28  1  0  0  0  0
  1 36  1  0  0  0  0
  2 45  1  0  0  0  0
  2 50  1  0  0  0  0
  3 50  1  0  0  0  0
  3 53  1  0  0  0  0
  4 51  1  0  0  0  0
  4122  1  0  0  0  0
  5 52  1  0  0  0  0
  5125  1  0  0  0  0
  6 54  1  0  0  0  0
  6 56  1  0  0  0  0
  7 55  1  0  0  0  0
  7127  1  0  0  0  0
  8 56  1  0  0  0  0
  8 59  1  0  0  0  0
  9 57  1  0  0  0  0
  9 62  1  0  0  0  0
 10 58  1  0  0  0  0
 10 63  1  0  0  0  0
 11 60  1  0  0  0  0
 11135  1  0  0  0  0
 12 62  1  0  0  0  0
 12 67  1  0  0  0  0
 13 61  1  0  0  0  0
 13140  1  0  0  0  0
 14 63  1  0  0  0  0
 14 70  1  0  0  0  0
 15 64  1  0  0  0  0
 15144  1  0  0  0  0
 16 65  1  0  0  0  0
 16150  1  0  0  0  0
 17 66  1  0  0  0  0
 17151  1  0  0  0  0
 18 68  1  0  0  0  0
 18152  1  0  0  0  0
 19 69  1  0  0  0  0
 19153  1  0  0  0  0
 20 71  1  0  0  0  0
 20154  1  0  0  0  0
 21 72  1  0  0  0  0
 21155  1  0  0  0  0
 22 36  1  0  0  0  0
 22 47  1  0  0  0  0
 22108  1  0  0  0  0
 23 24  1  0  0  0  0
 23 25  1  0  0  0  0
 23 31  1  0  0  0  0
 23 38  1  0  0  0  0
 24 26  1  0  0  0  0
 24 30  1  0  0  0  0
 24 73  1  0  0  0  0
 25 28  1  0  0  0  0
 25 32  1  0  0  0  0
 25 74  1  0  0  0  0
 26 27  1  0  0  0  0
 26 35  1  0  0  0  0
 26 75  1  0  0  0  0
 27 29  1  0  0  0  0
 27 33  1  0  0  0  0
 27 76  1  0  0  0  0
 28 30  1  0  0  0  0
 28 77  1  0  0  0  0
 29 34  1  0  0  0  0
 29 39  1  0  0  0  0
 29 41  1  0  0  0  0
 30 78  1  0  0  0  0
 30 79  1  0  0  0  0
 31 33  1  0  0  0  0
 31 80  1  0  0  0  0
 31 81  1  0  0  0  0
 32 36  1  0  0  0  0
 32 43  1  0  0  0  0
 32 82  1  0  0  0  0
 33 83  1  0  0  0  0
 33 84  1  0  0  0  0
 34 37  1  0  0  0  0
 34 40  1  0  0  0  0
 34 85  1  0  0  0  0
 35 37  1  0  0  0  0
 35 86  1  0  0  0  0
 35 87  1  0  0  0  0
 36 42  1  0  0  0  0
 37 88  1  0  0  0  0
 37 89  1  0  0  0  0
 38 90  1  0  0  0  0
 38 91  1  0  0  0  0
 38 92  1  0  0  0  0
 39 44  1  0  0  0  0
 39 93  1  0  0  0  0
 39 94  1  0  0  0  0
 40 45  1  0  0  0  0
 40 95  1  0  0  0  0
 40 96  1  0  0  0  0
 41 97  1  0  0  0  0
 41 98  1  0  0  0  0
 41 99  1  0  0  0  0
 42 46  1  0  0  0  0
 42100  1  0  0  0  0
 42101  1  0  0  0  0
 43102  1  0  0  0  0
 43103  1  0  0  0  0
 43104  1  0  0  0  0
 44 45  1  0  0  0  0
 44105  1  0  0  0  0
 44106  1  0  0  0  0
 45107  1  0  0  0  0
 46 48  1  0  0  0  0
 46109  1  0  0  0  0
 46110  1  0  0  0  0
 47 48  1  0  0  0  0
 47111  1  0  0  0  0
 47112  1  0  0  0  0
 48 49  1  0  0  0  0
 48113  1  0  0  0  0
 49114  1  0  0  0  0
 49115  1  0  0  0  0
 49116  1  0  0  0  0
 50 51  1  0  0  0  0
 50117  1  0  0  0  0
 51 52  1  0  0  0  0
 51118  1  0  0  0  0
 52 54  1  0  0  0  0
 52119  1  0  0  0  0
 53 54  1  0  0  0  0
 53 55  1  0  0  0  0
 53120  1  0  0  0  0
 54121  1  0  0  0  0
 55123  1  0  0  0  0
 55124  1  0  0  0  0
 56 57  1  0  0  0  0
 56126  1  0  0  0  0
 57 58  1  0  0  0  0
 57128  1  0  0  0  0
 58 60  1  0  0  0  0
 58129  1  0  0  0  0
 59 60  1  0  0  0  0
 59 61  1  0  0  0  0
 59130  1  0  0  0  0
 60131  1  0  0  0  0
 61132  1  0  0  0  0
 61133  1  0  0  0  0
 62 64  1  0  0  0  0
 62134  1  0  0  0  0
 63 66  1  0  0  0  0
 63136  1  0  0  0  0
 64 65  1  0  0  0  0
 64137  1  0  0  0  0
 65 68  1  0  0  0  0
 65138  1  0  0  0  0
 66 69  1  0  0  0  0
 66139  1  0  0  0  0
 67 68  1  0  0  0  0
 67 72  1  0  0  0  0
 67141  1  0  0  0  0
 68142  1  0  0  0  0
 69 71  1  0  0  0  0
 69143  1  0  0  0  0
 70 71  1  0  0  0  0
 70145  1  0  0  0  0
 70146  1  0  0  0  0
 71147  1  0  0  0  0
 72148  1  0  0  0  0
 72149  1  0  0  0  0
M  END
>  <PUBCHEM_COMPOUND_CID>
5513

>  <PUBCHEM_COMPOUND_CANONICALIZED>
1

>  <PUBCHEM_CACTVS_COMPLEXITY>
1840

>  <PUBCHEM_CACTVS_HBOND_ACCEPTOR>
22

>  <PUBCHEM_CACTVS_HBOND_DONOR>
13

>  <PUBCHEM_CACTVS_ROTATABLE_BOND>
11

>  <PUBCHEM_CACTVS_SUBSKEYS>
AAADcfB+PgAAAAAAAAAAAAAAAAAAAaIAAAA8aNEiQAASAGDAAAAAHgAQCAAADxzxgAcCCALABgAAAAAAAAAAAAAAAAAAAIAIAAEREAIAgAAuQAAFEACHAAHw8PwPgAAAAAAAAADAAAYAACAAAYAADAAAAA==

>  <PUBCHEM_IUPAC_INCHI>
InChI=1S/C50H83NO21/c1-20-7-12-50(51-15-20)21(2)32-28(72-50)14-26-24-6-5-22-13-23(8-10-48(22,3)25(24)9-11-49(26,32)4)65-45-40(63)37(60)41(31(18-54)68-45)69-47-43(71-46-39(62)36(59)34(57)29(16-52)66-46)42(35(58)30(17-53)67-47)70-44-38(61)33(56)27(55)19-64-44/h20-47,51-63H,5-19H2,1-4H3

>  <PUBCHEM_IUPAC_INCHIKEY>
REJLGAUYTKNVJM-UHFFFAOYSA-N

>  <PUBCHEM_XLOGP3_AA>
-0.7

>  <PUBCHEM_EXACT_MASS>
1033.546

>  <PUBCHEM_MOLECULAR_FORMULA>
C50H83NO21

>  <PUBCHEM_MOLECULAR_WEIGHT>
1034.2

>  <PUBCHEM_OPENEYE_CAN_SMILES>
CC1CCC2(C(C3C(O2)CC4C3(CCC5C4CCC6C5(CCC(C6)OC7C(C(C(C(O7)CO)OC8C(C(C(C(O8)CO)O)OC9C(C(C(CO9)O)O)O)OC2C(C(C(C(O2)CO)O)O)O)O)O)C)C)C)NC1

>  <PUBCHEM_OPENEYE_ISO_SMILES>
CC1CCC2(C(C3C(O2)CC4C3(CCC5C4CCC6C5(CCC(C6)OC7C(C(C(C(O7)CO)OC8C(C(C(C(O8)CO)O)OC9C(C(C(CO9)O)O)O)OC2C(C(C(C(O2)CO)O)O)O)O)O)C)C)C)NC1

>  <PUBCHEM_CACTVS_TPSA>
338

>  <PUBCHEM_MONOISOTOPIC_WEIGHT>
1033.546

>  <PUBCHEM_TOTAL_CHARGE>
0

>  <PUBCHEM_HEAVY_ATOM_COUNT>
72

>  <PUBCHEM_ATOM_DEF_STEREO_COUNT>
0

>  <PUBCHEM_ATOM_UDEF_STEREO_COUNT>
31

>  <PUBCHEM_BOND_DEF_STEREO_COUNT>
0

>  <PUBCHEM_BOND_UDEF_STEREO_COUNT>
0

>  <PUBCHEM_ISOTOPIC_ATOM_COUNT>
0

>  <PUBCHEM_COMPONENT_COUNT>
1

>  <PUBCHEM_CACTVS_TAUTO_COUNT>
1

>  <PUBCHEM_COORDINATE_TYPE>
1
5
255

>  <PUBCHEM_BONDANNOTATIONS>
23  38  3
24  73  3
25  74  3
26  75  3
27  76  3
28  77  3
29  41  3
32  82  3
34  85  3
36  42  3
45  107  3
48  113  3
50  117  3
51  118  3
52  119  3
53  120  3
54  121  3
56  126  3
57  128  3
58  129  3
59  130  3
60  131  3
62  134  3
63  136  3
64  137  3
65  138  3
66  139  3
67  141  3
68  142  3
69  143  3
71  147  3

$$$$
