557594
 OpenBabel06101807152D

 26 26  0  0  1  0  0  0  0  0999 V2000
    5.0724    1.7322    0.0000 O   0  0  0  0  0  0  0  0  0  0  0  0
    2.8090   -2.2337    0.0000 O   0  0  0  0  0  0  0  0  0  0  0  0
    4.8913    0.0096    0.0000 C   0  0  0  0  0  0  0  0  0  0  0  0
    5.4791    0.8186    0.0000 C   0  0  3  0  0  0  0  0  0  0  0  0
    3.8968    0.1141    0.0000 C   0  0  0  0  0  0  0  0  0  0  0  0
    3.3090   -0.6949    0.0000 C   0  0  0  0  0  0  0  0  0  0  0  0
    6.4736    0.7141    0.0000 C   0  0  0  0  0  0  0  0  0  0  0  0
    2.3090   -0.6949    0.0000 C   0  0  0  0  0  0  0  0  0  0  0  0
    7.0614    1.5231    0.0000 C   0  0  0  0  0  0  0  0  0  0  0  0
    3.6180   -1.6460    0.0000 C   0  0  0  0  0  0  0  0  0  0  0  0
    6.8804   -0.1995    0.0000 C   0  0  0  0  0  0  0  0  0  0  0  0
    2.0000   -1.6460    0.0000 C   0  0  0  0  0  0  0  0  0  0  0  0
    4.7204   -0.5864    0.0000 H   0  0  0  0  0  0  0  0  0  0  0  0
    5.4486   -0.2622    0.0000 H   0  0  0  0  0  0  0  0  0  0  0  0
    4.6338    0.9075    0.0000 H   0  0  0  0  0  0  0  0  0  0  0  0
    4.0677    0.7101    0.0000 H   0  0  0  0  0  0  0  0  0  0  0  0
    3.3396    0.3859    0.0000 H   0  0  0  0  0  0  0  0  0  0  0  0
    1.9446   -0.1933    0.0000 H   0  0  0  0  0  0  0  0  0  0  0  0
    7.5630    1.1587    0.0000 H   0  0  0  0  0  0  0  0  0  0  0  0
    7.4258    2.0247    0.0000 H   0  0  0  0  0  0  0  0  0  0  0  0
    6.5598    1.8875    0.0000 H   0  0  0  0  0  0  0  0  0  0  0  0
    4.2077   -1.8376    0.0000 H   0  0  0  0  0  0  0  0  0  0  0  0
    5.4368    2.2337    0.0000 H   0  0  0  0  0  0  0  0  0  0  0  0
    6.5159   -0.7011    0.0000 H   0  0  0  0  0  0  0  0  0  0  0  0
    7.4970   -0.2643    0.0000 H   0  0  0  0  0  0  0  0  0  0  0  0
    1.4103   -1.8376    0.0000 H   0  0  0  0  0  0  0  0  0  0  0  0
  1  4  1  0  0  0  0
  1 23  1  0  0  0  0
  2 10  1  0  0  0  0
  2 12  1  0  0  0  0
  3  4  1  0  0  0  0
  3  5  1  0  0  0  0
  3 13  1  0  0  0  0
  3 14  1  0  0  0  0
  4  7  1  0  0  0  0
  4 15  1  0  0  0  0
  5  6  1  0  0  0  0
  5 16  1  0  0  0  0
  5 17  1  0  0  0  0
  6  8  1  0  0  0  0
  6 10  2  0  0  0  0
  7  9  1  0  0  0  0
  7 11  2  0  0  0  0
  8 12  2  0  0  0  0
  8 18  1  0  0  0  0
  9 19  1  0  0  0  0
  9 20  1  0  0  0  0
  9 21  1  0  0  0  0
 10 22  1  0  0  0  0
 11 24  1  0  0  0  0
 11 25  1  0  0  0  0
 12 26  1  0  0  0  0
M  END
>  <PUBCHEM_COMPOUND_CID>
557594

>  <PUBCHEM_COMPOUND_CANONICALIZED>
1

>  <PUBCHEM_CACTVS_COMPLEXITY>
154

>  <PUBCHEM_CACTVS_HBOND_ACCEPTOR>
2

>  <PUBCHEM_CACTVS_HBOND_DONOR>
1

>  <PUBCHEM_CACTVS_ROTATABLE_BOND>
4

>  <PUBCHEM_CACTVS_SUBSKEYS>
AAADccBwMAAAAAAAAAAAAAAAAAAAASAAAAAAAAAAAAAAAAABgAAAGgAACAAADBSgmAIyBIAABkCIAihSgAACCAAkIAAIiAEGCMgMNhIENQqCWSCkwBEIOYOI7OzOAAAAAAAAAAAAAAAAAAAAAAAAAAAAAA==

>  <PUBCHEM_IUPAC_OPENEYE_NAME>
5-(3-furyl)-2-methyl-pent-1-en-3-ol

>  <PUBCHEM_IUPAC_CAS_NAME>
5-(3-furanyl)-2-methyl-1-penten-3-ol

>  <PUBCHEM_IUPAC_NAME>
5-(furan-3-yl)-2-methylpent-1-en-3-ol

>  <PUBCHEM_IUPAC_SYSTEMATIC_NAME>
5-(furan-3-yl)-2-methyl-pent-1-en-3-ol

>  <PUBCHEM_IUPAC_TRADITIONAL_NAME>
5-(3-furyl)-2-methyl-pent-1-en-3-ol

>  <PUBCHEM_IUPAC_INCHI>
InChI=1S/C10H14O2/c1-8(2)10(11)4-3-9-5-6-12-7-9/h5-7,10-11H,1,3-4H2,2H3

>  <PUBCHEM_IUPAC_INCHIKEY>
YIVMCXYIUTUOOZ-UHFFFAOYSA-N

>  <PUBCHEM_XLOGP3_AA>
2.2

>  <PUBCHEM_EXACT_MASS>
166.099

>  <PUBCHEM_MOLECULAR_FORMULA>
C10H14O2

>  <PUBCHEM_MOLECULAR_WEIGHT>
166.22

>  <PUBCHEM_OPENEYE_CAN_SMILES>
CC(=C)C(CCC1=COC=C1)O

>  <PUBCHEM_OPENEYE_ISO_SMILES>
CC(=C)C(CCC1=COC=C1)O

>  <PUBCHEM_CACTVS_TPSA>
33.4

>  <PUBCHEM_MONOISOTOPIC_WEIGHT>
166.099

>  <PUBCHEM_TOTAL_CHARGE>
0

>  <PUBCHEM_HEAVY_ATOM_COUNT>
12

>  <PUBCHEM_ATOM_DEF_STEREO_COUNT>
0

>  <PUBCHEM_ATOM_UDEF_STEREO_COUNT>
1

>  <PUBCHEM_BOND_DEF_STEREO_COUNT>
0

>  <PUBCHEM_BOND_UDEF_STEREO_COUNT>
0

>  <PUBCHEM_ISOTOPIC_ATOM_COUNT>
0

>  <PUBCHEM_COMPONENT_COUNT>
1

>  <PUBCHEM_CACTVS_TAUTO_COUNT>
1

>  <PUBCHEM_COORDINATE_TYPE>
1
5
255

>  <PUBCHEM_BONDANNOTATIONS>
2  10  8
2  12  8
4  15  3
6  10  8
6  8  8
8  12  8

$$$$
