56642235
 OpenBabel06101807152D

 40 44  0  0  0  0  0  0  0  0999 V2000
    4.4997    3.7540    0.0000 O   0  0  0  0  0  0  0  0  0  0  0  0
    2.7684    0.5999    0.0000 O   0  0  0  0  0  0  0  0  0  0  0  0
    2.0314   -1.0672    0.0000 O   0  0  0  0  0  0  0  0  0  0  0  0
    6.2706    0.5968    0.0000 O   0  0  0  0  0  0  0  0  0  0  0  0
    5.3665   -0.9001    0.0000 O   0  0  0  0  0  0  0  0  0  0  0  0
    2.1904   -4.6684    0.0000 O   0  0  0  0  0  0  0  0  0  0  0  0
    5.4351    4.3038    0.0000 C   0  0  0  0  0  0  0  0  0  0  0  0
    5.4185    2.1484    0.0000 C   0  0  0  0  0  0  0  0  0  0  0  0
    4.5164    2.6692    0.0000 C   0  0  0  0  0  0  0  0  0  0  0  0
    4.5005    0.5999    0.0000 C   0  0  0  0  0  0  0  0  0  0  0  0
    3.6344    1.0999    0.0000 C   0  0  0  0  0  0  0  0  0  0  0  0
    6.3747    3.7613    0.0000 C   0  0  0  0  0  0  0  0  0  0  0  0
    5.4105    1.1068    0.0000 C   0  0  0  0  0  0  0  0  0  0  0  0
    3.6344   -0.9001    0.0000 C   0  0  0  0  0  0  0  0  0  0  0  0
    3.6184    2.1414    0.0000 C   0  0  0  0  0  0  0  0  0  0  0  0
    6.3664    2.6763    0.0000 C   0  0  0  0  0  0  0  0  0  0  0  0
    4.5005   -0.4001    0.0000 C   0  0  0  0  0  0  0  0  0  0  0  0
    5.9318    5.1717    0.0000 C   0  0  0  0  0  0  0  0  0  0  0  0
    4.9318    5.1679    0.0000 C   0  0  0  0  0  0  0  0  0  0  0  0
    3.4252   -1.8719    0.0000 C   0  0  0  0  0  0  0  0  0  0  0  0
    2.7684   -0.4001    0.0000 C   0  0  0  0  0  0  0  0  0  0  0  0
    2.4365   -1.9750    0.0000 C   0  0  0  0  0  0  0  0  0  0  0  0
    4.0460   -2.7006    0.0000 C   0  0  0  0  0  0  0  0  0  0  0  0
    2.0000   -2.9139    0.0000 C   0  0  0  0  0  0  0  0  0  0  0  0
    3.6313   -3.6495    0.0000 C   0  0  0  0  0  0  0  0  0  0  0  0
    2.6014   -3.7568    0.0000 C   0  0  0  0  0  0  0  0  0  0  0  0
    6.9129    4.0692    0.0000 H   0  0  0  0  0  0  0  0  0  0  0  0
    3.0779    2.4452    0.0000 H   0  0  0  0  0  0  0  0  0  0  0  0
    6.8997    2.3601    0.0000 H   0  0  0  0  0  0  0  0  0  0  0  0
    5.4675    5.4799    0.0000 H   0  0  0  0  0  0  0  0  0  0  0  0
    4.6197    5.7036    0.0000 H   0  0  0  0  0  0  0  0  0  0  0  0
    4.3960    4.8558    0.0000 H   0  0  0  0  0  0  0  0  0  0  0  0
    6.4699    4.8638    0.0000 H   0  0  0  0  0  0  0  0  0  0  0  0
    6.2397    5.7098    0.0000 H   0  0  0  0  0  0  0  0  0  0  0  0
    5.3936    5.4796    0.0000 H   0  0  0  0  0  0  0  0  0  0  0  0
    4.6619   -2.6292    0.0000 H   0  0  0  0  0  0  0  0  0  0  0  0
    1.3826   -2.9710    0.0000 H   0  0  0  0  0  0  0  0  0  0  0  0
    3.9972   -4.1500    0.0000 H   0  0  0  0  0  0  0  0  0  0  0  0
    6.8111    0.9006    0.0000 H   0  0  0  0  0  0  0  0  0  0  0  0
    2.5524   -5.1717    0.0000 H   0  0  0  0  0  0  0  0  0  0  0  0
  1  7  1  0  0  0  0
  1  9  1  0  0  0  0
  2 11  1  0  0  0  0
  2 21  1  0  0  0  0
  3 21  1  0  0  0  0
  3 22  1  0  0  0  0
  4 13  1  0  0  0  0
  4 39  1  0  0  0  0
  5 17  2  0  0  0  0
  6 26  1  0  0  0  0
  6 40  1  0  0  0  0
  7 12  1  0  0  0  0
  7 18  1  0  0  0  0
  7 19  1  0  0  0  0
  8  9  2  0  0  0  0
  8 13  1  0  0  0  0
  8 16  1  0  0  0  0
  9 15  1  0  0  0  0
 10 11  1  0  0  0  0
 10 13  2  0  0  0  0
 10 17  1  0  0  0  0
 11 15  2  0  0  0  0
 12 16  2  0  0  0  0
 12 27  1  0  0  0  0
 14 17  1  0  0  0  0
 14 20  1  0  0  0  0
 14 21  2  0  0  0  0
 15 28  1  0  0  0  0
 16 29  1  0  0  0  0
 18 33  1  0  0  0  0
 18 34  1  0  0  0  0
 18 35  1  0  0  0  0
 19 30  1  0  0  0  0
 19 31  1  0  0  0  0
 19 32  1  0  0  0  0
 20 22  2  0  0  0  0
 20 23  1  0  0  0  0
 22 24  1  0  0  0  0
 23 25  2  0  0  0  0
 23 36  1  0  0  0  0
 24 26  2  0  0  0  0
 24 37  1  0  0  0  0
 25 26  1  0  0  0  0
 25 38  1  0  0  0  0
M  END
>  <PUBCHEM_COMPOUND_CID>
56642235

>  <PUBCHEM_COMPOUND_CANONICALIZED>
1

>  <PUBCHEM_CACTVS_COMPLEXITY>
630

>  <PUBCHEM_CACTVS_HBOND_ACCEPTOR>
6

>  <PUBCHEM_CACTVS_HBOND_DONOR>
2

>  <PUBCHEM_CACTVS_ROTATABLE_BOND>
0

>  <PUBCHEM_CACTVS_SUBSKEYS>
AAADccB4OAAAAAAAAAAAAAAAAAAAASAAAAA0YIEAAAAAAEiR9AAAGgAACAAADESAmAAyDsAABkCIAqDSCAACCAAkIAAIiAEGCMgcJzaONRqie2Cl4BUMuYfL7PzOoAACCAAIAABAAAQQABAAAAAAAAAAAA==

>  <PUBCHEM_IUPAC_INCHI>
InChI=1S/C20H14O6/c1-20(2)6-5-11-13(26-20)8-14-16(17(11)22)18(23)15-10-4-3-9(21)7-12(10)24-19(15)25-14/h3-8,21-22H,1-2H3

>  <PUBCHEM_IUPAC_INCHIKEY>
KMXXMLCKSKZOPT-UHFFFAOYSA-N

>  <PUBCHEM_XLOGP3_AA>
4.5

>  <PUBCHEM_EXACT_MASS>
350.079

>  <PUBCHEM_MOLECULAR_FORMULA>
C20H14O6

>  <PUBCHEM_MOLECULAR_WEIGHT>
350.326

>  <PUBCHEM_OPENEYE_CAN_SMILES>
CC1(C=CC2=C(O1)C=C3C(=C2O)C(=O)C4=C(O3)OC5=C4C=CC(=C5)O)C

>  <PUBCHEM_OPENEYE_ISO_SMILES>
CC1(C=CC2=C(O1)C=C3C(=C2O)C(=O)C4=C(O3)OC5=C4C=CC(=C5)O)C

>  <PUBCHEM_CACTVS_TPSA>
89.1

>  <PUBCHEM_MONOISOTOPIC_WEIGHT>
350.079

>  <PUBCHEM_TOTAL_CHARGE>
0

>  <PUBCHEM_HEAVY_ATOM_COUNT>
26

>  <PUBCHEM_ATOM_DEF_STEREO_COUNT>
0

>  <PUBCHEM_ATOM_UDEF_STEREO_COUNT>
0

>  <PUBCHEM_BOND_DEF_STEREO_COUNT>
0

>  <PUBCHEM_BOND_UDEF_STEREO_COUNT>
0

>  <PUBCHEM_ISOTOPIC_ATOM_COUNT>
0

>  <PUBCHEM_COMPONENT_COUNT>
1

>  <PUBCHEM_CACTVS_TAUTO_COUNT>
15

>  <PUBCHEM_COORDINATE_TYPE>
1
5
255

>  <PUBCHEM_BONDANNOTATIONS>
10  11  8
10  13  8
10  17  8
11  15  8
14  17  8
14  20  8
14  21  8
2  11  8
2  21  8
20  22  8
20  23  8
22  24  8
23  25  8
24  26  8
25  26  8
3  21  8
3  22  8
8  13  8
8  9  8
9  15  8

$$$$
