57331045
 OpenBabel06101807152D

 52 55  0  0  1  0  0  0  0  0999 V2000
    5.1350   -2.4276    0.0000 O   0  0  0  0  0  0  0  0  0  0  0  0
    6.8671   -2.4276    0.0000 O   0  0  0  0  0  0  0  0  0  0  0  0
    5.1350   -5.4276    0.0000 O   0  0  0  0  0  0  0  0  0  0  0  0
    3.4030   -4.4276    0.0000 O   0  0  0  0  0  0  0  0  0  0  0  0
    6.8671   -4.4276    0.0000 O   0  0  0  0  0  0  0  0  0  0  0  0
    2.5369   -2.9276    0.0000 O   0  0  0  0  0  0  0  0  0  0  0  0
    3.4030   -1.4276    0.0000 O   0  0  0  0  0  0  0  0  0  0  0  0
    7.7331    2.0724    0.0000 O   0  0  0  0  0  0  0  0  0  0  0  0
    5.1350   -1.4276    0.0000 O   0  0  0  0  0  0  0  0  0  0  0  0
    5.1350    1.5724    0.0000 O   0  0  0  0  0  0  0  0  0  0  0  0
    5.1350    3.5724    0.0000 O   0  0  0  0  0  0  0  0  0  0  0  0
    5.9793    5.1039    0.0000 O   0  0  0  0  0  0  0  0  0  0  0  0
    9.5191    5.1175    0.0000 O   0  0  0  0  0  0  0  0  0  0  0  0
    5.1350   -4.4276    0.0000 C   0  0  1  0  0  0  0  0  0  0  0  0
    4.2690   -3.9276    0.0000 C   0  0  1  0  0  0  0  0  0  0  0  0
    6.0010   -3.9276    0.0000 C   0  0  2  0  0  0  0  0  0  0  0  0
    4.2690   -2.9276    0.0000 C   0  0  1  0  0  0  0  0  0  0  0  0
    6.0010   -2.9276    0.0000 C   0  0  1  0  0  0  0  0  0  0  0  0
    3.4030   -2.4276    0.0000 C   0  0  0  0  0  0  0  0  0  0  0  0
    6.8671   -1.4276    0.0000 C   0  0  0  0  0  0  0  0  0  0  0  0
    6.0010   -0.9276    0.0000 C   0  0  0  0  0  0  0  0  0  0  0  0
    7.7331   -0.9276    0.0000 C   0  0  0  0  0  0  0  0  0  0  0  0
    6.8671    0.5724    0.0000 C   0  0  0  0  0  0  0  0  0  0  0  0
    6.0010    0.0725    0.0000 C   0  0  0  0  0  0  0  0  0  0  0  0
    7.7331    0.0725    0.0000 C   0  0  0  0  0  0  0  0  0  0  0  0
    6.8671    1.5724    0.0000 C   0  0  0  0  0  0  0  0  0  0  0  0
    6.8671    3.5724    0.0000 C   0  0  0  0  0  0  0  0  0  0  0  0
    6.0010    2.0724    0.0000 C   0  0  0  0  0  0  0  0  0  0  0  0
    7.7331    3.0724    0.0000 C   0  0  0  0  0  0  0  0  0  0  0  0
    6.0010    3.0724    0.0000 C   0  0  0  0  0  0  0  0  0  0  0  0
    6.8510    4.6140    0.0000 C   0  0  0  0  0  0  0  0  0  0  0  0
    8.6431    3.5793    0.0000 C   0  0  0  0  0  0  0  0  0  0  0  0
    8.6511    4.6209    0.0000 C   0  0  0  0  0  0  0  0  0  0  0  0
    7.7490    5.1417    0.0000 C   0  0  0  0  0  0  0  0  0  0  0  0
    5.6720   -4.7376    0.0000 H   0  0  0  0  0  0  0  0  0  0  0  0
    3.7320   -3.6176    0.0000 H   0  0  0  0  0  0  0  0  0  0  0  0
    6.5380   -3.6176    0.0000 H   0  0  0  0  0  0  0  0  0  0  0  0
    4.2690   -2.3076    0.0000 H   0  0  0  0  0  0  0  0  0  0  0  0
    6.0010   -2.3076    0.0000 H   0  0  0  0  0  0  0  0  0  0  0  0
    5.6720   -5.7376    0.0000 H   0  0  0  0  0  0  0  0  0  0  0  0
    3.4030   -5.0476    0.0000 H   0  0  0  0  0  0  0  0  0  0  0  0
    7.4040   -4.1175    0.0000 H   0  0  0  0  0  0  0  0  0  0  0  0
    8.2700   -1.2376    0.0000 H   0  0  0  0  0  0  0  0  0  0  0  0
    2.0000   -2.6176    0.0000 H   0  0  0  0  0  0  0  0  0  0  0  0
    5.4641    0.3824    0.0000 H   0  0  0  0  0  0  0  0  0  0  0  0
    8.2700    0.3824    0.0000 H   0  0  0  0  0  0  0  0  0  0  0  0
    4.5981   -1.1176    0.0000 H   0  0  0  0  0  0  0  0  0  0  0  0
    9.1764    3.2631    0.0000 H   0  0  0  0  0  0  0  0  0  0  0  0
    7.7466    5.7617    0.0000 H   0  0  0  0  0  0  0  0  0  0  0  0
    4.5981    1.8824    0.0000 H   0  0  0  0  0  0  0  0  0  0  0  0
    5.9721    5.7239    0.0000 H   0  0  0  0  0  0  0  0  0  0  0  0
    9.5214    5.7376    0.0000 H   0  0  0  0  0  0  0  0  0  0  0  0
  1 17  1  0  0  0  0
  1 18  1  0  0  0  0
  2 20  1  0  0  0  0
  3 40  1  0  0  0  0
  4 41  1  0  0  0  0
  5 42  1  0  0  0  0
  6 19  1  0  0  0  0
  6 44  1  0  0  0  0
  7 19  2  0  0  0  0
  8 26  1  0  0  0  0
  8 29  1  0  0  0  0
  9 21  1  0  0  0  0
  9 47  1  0  0  0  0
 10 28  1  0  0  0  0
 10 50  1  0  0  0  0
 11 30  2  0  0  0  0
 12 31  1  0  0  0  0
 12 51  1  0  0  0  0
 13 33  1  0  0  0  0
 13 52  1  0  0  0  0
 14  3  1  0  0  0  0
 14 15  1  6  0  0  0
 14 35  1  0  0  0  0
 15  4  1  0  0  0  0
 15 17  1  6  0  0  0
 15 36  1  0  0  0  0
 16  5  1  0  0  0  0
 16 14  1  1  0  0  0
 16 37  1  0  0  0  0
 17 19  1  0  0  0  0
 17 38  1  6  0  0  0
 18  2  1  0  0  0  0
 18 16  1  6  0  0  0
 18 39  1  0  0  0  0
 20 21  2  0  0  0  0
 20 22  1  0  0  0  0
 21 24  1  0  0  0  0
 22 25  2  0  0  0  0
 22 43  1  0  0  0  0
 23 24  2  0  0  0  0
 23 25  1  0  0  0  0
 23 26  1  0  0  0  0
 24 45  1  0  0  0  0
 25 46  1  0  0  0  0
 26 28  2  0  0  0  0
 27 29  1  0  0  0  0
 27 30  1  0  0  0  0
 27 31  2  0  0  0  0
 28 30  1  0  0  0  0
 29 32  2  0  0  0  0
 31 34  1  0  0  0  0
 32 33  1  0  0  0  0
 32 48  1  0  0  0  0
 33 34  2  0  0  0  0
 34 49  1  0  0  0  0
M  END
>  <PUBCHEM_COMPOUND_CID>
57331045

>  <PUBCHEM_COMPOUND_CANONICALIZED>
1

>  <PUBCHEM_CACTVS_COMPLEXITY>
830

>  <PUBCHEM_CACTVS_HBOND_ACCEPTOR>
13

>  <PUBCHEM_CACTVS_HBOND_DONOR>
8

>  <PUBCHEM_CACTVS_ROTATABLE_BOND>
4

>  <PUBCHEM_CACTVS_SUBSKEYS>
AAADceB4PAAAAAAAAAAAAAAAAAAAAAAAAAA0YIEAAAAAAACBQAAAGgAACAAADBSwmAMwDoAABgCIAqDSCAICCAAkIAAIiAFGiMgdNzaGNR6ieWOl4BUPuQfK7LzOIAABCAAIQABAAAIQABCAAAAAAAAAAA==

>  <PUBCHEM_IUPAC_OPENEYE_NAME>
(2S,3S,4S,5R,6S)-3,4,5-trihydroxy-6-[2-hydroxy-4-(3,5,7-trihydroxy-4-oxo-chromen-2-yl)phenoxy]tetrahydropyran-2-carboxylic acid

>  <PUBCHEM_IUPAC_CAS_NAME>
(2S,3S,4S,5R,6S)-3,4,5-trihydroxy-6-[2-hydroxy-4-(3,5,7-trihydroxy-4-oxo-1-benzopyran-2-yl)phenoxy]-2-oxanecarboxylic acid

>  <PUBCHEM_IUPAC_NAME>
(2S,3S,4S,5R,6S)-3,4,5-trihydroxy-6-[2-hydroxy-4-(3,5,7-trihydroxy-4-oxochromen-2-yl)phenoxy]oxane-2-carboxylic acid

>  <PUBCHEM_IUPAC_SYSTEMATIC_NAME>
(2S,3S,4S,5R,6S)-3,4,5-tris(oxidanyl)-6-[2-oxidanyl-4-[3,5,7-tris(oxidanyl)-4-oxidanylidene-chromen-2-yl]phenoxy]oxane-2-carboxylic acid

>  <PUBCHEM_IUPAC_TRADITIONAL_NAME>
(2S,3S,4S,5R,6S)-3,4,5-trihydroxy-6-[2-hydroxy-4-(3,5,7-trihydroxy-4-keto-chromen-2-yl)phenoxy]tetrahydropyran-2-carboxylic acid

>  <PUBCHEM_IUPAC_INCHI>
InChI=1S/C21H18O13/c22-7-4-9(24)12-11(5-7)32-18(15(27)13(12)25)6-1-2-10(8(23)3-6)33-21-17(29)14(26)16(28)19(34-21)20(30)31/h1-5,14,16-17,19,21-24,26-29H,(H,30,31)/t14-,16-,17+,19-,21+/m0/s1

>  <PUBCHEM_IUPAC_INCHIKEY>
OUQZCILJSVDJFB-JENRNSKYSA-N

>  <PUBCHEM_XLOGP3_AA>
0.6

>  <PUBCHEM_EXACT_MASS>
478.075

>  <PUBCHEM_MOLECULAR_FORMULA>
C21H18O13

>  <PUBCHEM_MOLECULAR_WEIGHT>
478.362

>  <PUBCHEM_OPENEYE_CAN_SMILES>
C1=CC(=C(C=C1C2=C(C(=O)C3=C(C=C(C=C3O2)O)O)O)O)OC4C(C(C(C(O4)C(=O)O)O)O)O

>  <PUBCHEM_OPENEYE_ISO_SMILES>
C1=CC(=C(C=C1C2=C(C(=O)C3=C(C=C(C=C3O2)O)O)O)O)O[C@H]4[C@@H]([C@H]([C@@H]([C@H](O4)C(=O)O)O)O)O

>  <PUBCHEM_CACTVS_TPSA>
224

>  <PUBCHEM_MONOISOTOPIC_WEIGHT>
478.075

>  <PUBCHEM_TOTAL_CHARGE>
0

>  <PUBCHEM_HEAVY_ATOM_COUNT>
34

>  <PUBCHEM_ATOM_DEF_STEREO_COUNT>
5

>  <PUBCHEM_ATOM_UDEF_STEREO_COUNT>
0

>  <PUBCHEM_BOND_DEF_STEREO_COUNT>
0

>  <PUBCHEM_BOND_UDEF_STEREO_COUNT>
0

>  <PUBCHEM_ISOTOPIC_ATOM_COUNT>
0

>  <PUBCHEM_COMPONENT_COUNT>
1

>  <PUBCHEM_CACTVS_TAUTO_COUNT>
156

>  <PUBCHEM_COORDINATE_TYPE>
1
5
255

>  <PUBCHEM_BONDANNOTATIONS>
17  19  5
18  2  5
20  21  8
20  22  8
21  24  8
22  25  8
23  24  8
23  25  8
26  28  8
27  29  8
27  30  8
27  31  8
28  30  8
29  32  8
14  3  5
31  34  8
32  33  8
33  34  8
15  4  6
16  5  6
8  26  8
8  29  8

$$$$
