5743442
 OpenBabel06101807152D

108108  0  0  0  0  0  0  0  0999 V2000
    6.3301   -7.3450    0.0000 O   0  0  0  0  0  0  0  0  0  0  0  0
    4.5981   -7.3450    0.0000 O   0  0  0  0  0  0  0  0  0  0  0  0
    2.8660  -12.3450    0.0000 O   0  0  0  0  0  0  0  0  0  0  0  0
    4.5981  -13.3450    0.0000 O   0  0  0  0  0  0  0  0  0  0  0  0
   12.3923    3.1550    0.0000 C   0  0  0  0  0  0  0  0  0  0  0  0
   12.3923    4.1550    0.0000 C   0  0  0  0  0  0  0  0  0  0  0  0
   11.5263    2.6550    0.0000 C   0  0  0  0  0  0  0  0  0  0  0  0
   13.2583    4.6550    0.0000 C   0  0  0  0  0  0  0  0  0  0  0  0
   11.5263    1.6550    0.0000 C   0  0  0  0  0  0  0  0  0  0  0  0
   13.2583    5.6550    0.0000 C   0  0  0  0  0  0  0  0  0  0  0  0
   10.6603    1.1550    0.0000 C   0  0  0  0  0  0  0  0  0  0  0  0
   14.1244    6.1550    0.0000 C   0  0  0  0  0  0  0  0  0  0  0  0
   10.6603    0.1550    0.0000 C   0  0  0  0  0  0  0  0  0  0  0  0
   14.1244    7.1550    0.0000 C   0  0  0  0  0  0  0  0  0  0  0  0
    9.7942   -0.3450    0.0000 C   0  0  0  0  0  0  0  0  0  0  0  0
   14.9904    7.6550    0.0000 C   0  0  0  0  0  0  0  0  0  0  0  0
    9.7942   -1.3450    0.0000 C   0  0  0  0  0  0  0  0  0  0  0  0
   14.9904    8.6550    0.0000 C   0  0  0  0  0  0  0  0  0  0  0  0
    8.9282   -1.8450    0.0000 C   0  0  0  0  0  0  0  0  0  0  0  0
   15.8564    9.1550    0.0000 C   0  0  0  0  0  0  0  0  0  0  0  0
    8.9282   -2.8450    0.0000 C   0  0  0  0  0  0  0  0  0  0  0  0
   15.8564   10.1550    0.0000 C   0  0  0  0  0  0  0  0  0  0  0  0
    8.0622   -3.3450    0.0000 C   0  0  0  0  0  0  0  0  0  0  0  0
   16.7224   10.6550    0.0000 C   0  0  0  0  0  0  0  0  0  0  0  0
    8.0622   -4.3450    0.0000 C   0  0  0  0  0  0  0  0  0  0  0  0
   16.7224   11.6550    0.0000 C   0  0  0  0  0  0  0  0  0  0  0  0
    7.1962   -4.8450    0.0000 C   0  0  0  0  0  0  0  0  0  0  0  0
   17.5885   12.1550    0.0000 C   0  0  0  0  0  0  0  0  0  0  0  0
    7.1962   -5.8450    0.0000 C   0  0  0  0  0  0  0  0  0  0  0  0
   17.5885   13.1550    0.0000 C   0  0  0  0  0  0  0  0  0  0  0  0
    6.3301   -6.3450    0.0000 C   0  0  0  0  0  0  0  0  0  0  0  0
   18.4545   13.6550    0.0000 C   0  0  0  0  0  0  0  0  0  0  0  0
    5.4641   -7.8450    0.0000 C   0  0  0  0  0  0  0  0  0  0  0  0
    5.4641   -8.8450    0.0000 C   0  0  0  0  0  0  0  0  0  0  0  0
    4.5981   -9.3450    0.0000 C   0  0  0  0  0  0  0  0  0  0  0  0
    4.5981  -10.3450    0.0000 C   0  0  0  0  0  0  0  0  0  0  0  0
    3.7320  -10.8450    0.0000 C   0  0  0  0  0  0  0  0  0  0  0  0
    5.4641  -10.8450    0.0000 C   0  0  0  0  0  0  0  0  0  0  0  0
    3.7320  -11.8450    0.0000 C   0  0  0  0  0  0  0  0  0  0  0  0
    5.4641  -11.8450    0.0000 C   0  0  0  0  0  0  0  0  0  0  0  0
    4.5981  -12.3450    0.0000 C   0  0  0  0  0  0  0  0  0  0  0  0
    2.0000  -11.8450    0.0000 C   0  0  0  0  0  0  0  0  0  0  0  0
   12.6044    2.5724    0.0000 H   0  0  0  0  0  0  0  0  0  0  0  0
   13.0029    3.2627    0.0000 H   0  0  0  0  0  0  0  0  0  0  0  0
   12.1803    4.7376    0.0000 H   0  0  0  0  0  0  0  0  0  0  0  0
   11.7817    4.0473    0.0000 H   0  0  0  0  0  0  0  0  0  0  0  0
   11.3142    3.2376    0.0000 H   0  0  0  0  0  0  0  0  0  0  0  0
   10.9157    2.5473    0.0000 H   0  0  0  0  0  0  0  0  0  0  0  0
   13.4704    4.0724    0.0000 H   0  0  0  0  0  0  0  0  0  0  0  0
   13.8689    4.7627    0.0000 H   0  0  0  0  0  0  0  0  0  0  0  0
   11.7383    1.0724    0.0000 H   0  0  0  0  0  0  0  0  0  0  0  0
   12.1369    1.7627    0.0000 H   0  0  0  0  0  0  0  0  0  0  0  0
   13.0463    6.2376    0.0000 H   0  0  0  0  0  0  0  0  0  0  0  0
   12.6477    5.5473    0.0000 H   0  0  0  0  0  0  0  0  0  0  0  0
   10.4482    1.7376    0.0000 H   0  0  0  0  0  0  0  0  0  0  0  0
   10.0497    1.0473    0.0000 H   0  0  0  0  0  0  0  0  0  0  0  0
   14.3364    5.5724    0.0000 H   0  0  0  0  0  0  0  0  0  0  0  0
   14.7349    6.2627    0.0000 H   0  0  0  0  0  0  0  0  0  0  0  0
   10.8723   -0.4276    0.0000 H   0  0  0  0  0  0  0  0  0  0  0  0
   11.2708    0.2627    0.0000 H   0  0  0  0  0  0  0  0  0  0  0  0
   13.9123    7.7376    0.0000 H   0  0  0  0  0  0  0  0  0  0  0  0
   13.5138    7.0473    0.0000 H   0  0  0  0  0  0  0  0  0  0  0  0
    9.5822    0.2376    0.0000 H   0  0  0  0  0  0  0  0  0  0  0  0
    9.1836   -0.4527    0.0000 H   0  0  0  0  0  0  0  0  0  0  0  0
   15.2024    7.0724    0.0000 H   0  0  0  0  0  0  0  0  0  0  0  0
   15.6010    7.7627    0.0000 H   0  0  0  0  0  0  0  0  0  0  0  0
   10.0063   -1.9276    0.0000 H   0  0  0  0  0  0  0  0  0  0  0  0
   10.4048   -1.2373    0.0000 H   0  0  0  0  0  0  0  0  0  0  0  0
   14.7783    9.2376    0.0000 H   0  0  0  0  0  0  0  0  0  0  0  0
   14.3798    8.5473    0.0000 H   0  0  0  0  0  0  0  0  0  0  0  0
    8.7162   -1.2624    0.0000 H   0  0  0  0  0  0  0  0  0  0  0  0
    8.3176   -1.9527    0.0000 H   0  0  0  0  0  0  0  0  0  0  0  0
   16.0685    8.5724    0.0000 H   0  0  0  0  0  0  0  0  0  0  0  0
   16.4670    9.2627    0.0000 H   0  0  0  0  0  0  0  0  0  0  0  0
    9.1403   -3.4276    0.0000 H   0  0  0  0  0  0  0  0  0  0  0  0
    9.5388   -2.7373    0.0000 H   0  0  0  0  0  0  0  0  0  0  0  0
   15.6444   10.7376    0.0000 H   0  0  0  0  0  0  0  0  0  0  0  0
   15.2458   10.0473    0.0000 H   0  0  0  0  0  0  0  0  0  0  0  0
    7.8501   -2.7624    0.0000 H   0  0  0  0  0  0  0  0  0  0  0  0
    7.4516   -3.4527    0.0000 H   0  0  0  0  0  0  0  0  0  0  0  0
   16.9345   10.0724    0.0000 H   0  0  0  0  0  0  0  0  0  0  0  0
   17.3330   10.7627    0.0000 H   0  0  0  0  0  0  0  0  0  0  0  0
    8.2742   -4.9276    0.0000 H   0  0  0  0  0  0  0  0  0  0  0  0
    8.6728   -4.2373    0.0000 H   0  0  0  0  0  0  0  0  0  0  0  0
   16.5104   12.2376    0.0000 H   0  0  0  0  0  0  0  0  0  0  0  0
   16.1119   11.5473    0.0000 H   0  0  0  0  0  0  0  0  0  0  0  0
    6.9841   -4.2624    0.0000 H   0  0  0  0  0  0  0  0  0  0  0  0
    6.5856   -4.9527    0.0000 H   0  0  0  0  0  0  0  0  0  0  0  0
   17.8005   11.5724    0.0000 H   0  0  0  0  0  0  0  0  0  0  0  0
   18.1990   12.2627    0.0000 H   0  0  0  0  0  0  0  0  0  0  0  0
    7.4082   -6.4276    0.0000 H   0  0  0  0  0  0  0  0  0  0  0  0
    7.8067   -5.7373    0.0000 H   0  0  0  0  0  0  0  0  0  0  0  0
   17.3764   13.7376    0.0000 H   0  0  0  0  0  0  0  0  0  0  0  0
   16.9779   13.0473    0.0000 H   0  0  0  0  0  0  0  0  0  0  0  0
    6.1181   -5.7624    0.0000 H   0  0  0  0  0  0  0  0  0  0  0  0
    5.7196   -6.4527    0.0000 H   0  0  0  0  0  0  0  0  0  0  0  0
   18.7645   13.1181    0.0000 H   0  0  0  0  0  0  0  0  0  0  0  0
   18.9914   13.9650    0.0000 H   0  0  0  0  0  0  0  0  0  0  0  0
   18.1445   14.1919    0.0000 H   0  0  0  0  0  0  0  0  0  0  0  0
    6.0010   -9.1550    0.0000 H   0  0  0  0  0  0  0  0  0  0  0  0
    4.0611   -9.0350    0.0000 H   0  0  0  0  0  0  0  0  0  0  0  0
    3.1951  -10.5350    0.0000 H   0  0  0  0  0  0  0  0  0  0  0  0
    6.0010  -10.5350    0.0000 H   0  0  0  0  0  0  0  0  0  0  0  0
    6.0010  -12.1550    0.0000 H   0  0  0  0  0  0  0  0  0  0  0  0
    5.1350  -13.6550    0.0000 H   0  0  0  0  0  0  0  0  0  0  0  0
    2.3100  -11.3081    0.0000 H   0  0  0  0  0  0  0  0  0  0  0  0
    1.4631  -11.5350    0.0000 H   0  0  0  0  0  0  0  0  0  0  0  0
    1.6900  -12.3819    0.0000 H   0  0  0  0  0  0  0  0  0  0  0  0
  1 31  1  0  0  0  0
  1 33  1  0  0  0  0
  2 33  2  0  0  0  0
  3 39  1  0  0  0  0
  3 42  1  0  0  0  0
  4 41  1  0  0  0  0
  4105  1  0  0  0  0
  5  6  1  0  0  0  0
  5  7  1  0  0  0  0
  5 43  1  0  0  0  0
  5 44  1  0  0  0  0
  6  8  1  0  0  0  0
  6 45  1  0  0  0  0
  6 46  1  0  0  0  0
  7  9  1  0  0  0  0
  7 47  1  0  0  0  0
  7 48  1  0  0  0  0
  8 10  1  0  0  0  0
  8 49  1  0  0  0  0
  8 50  1  0  0  0  0
  9 11  1  0  0  0  0
  9 51  1  0  0  0  0
  9 52  1  0  0  0  0
 10 12  1  0  0  0  0
 10 53  1  0  0  0  0
 10 54  1  0  0  0  0
 11 13  1  0  0  0  0
 11 55  1  0  0  0  0
 11 56  1  0  0  0  0
 12 14  1  0  0  0  0
 12 57  1  0  0  0  0
 12 58  1  0  0  0  0
 13 15  1  0  0  0  0
 13 59  1  0  0  0  0
 13 60  1  0  0  0  0
 14 16  1  0  0  0  0
 14 61  1  0  0  0  0
 14 62  1  0  0  0  0
 15 17  1  0  0  0  0
 15 63  1  0  0  0  0
 15 64  1  0  0  0  0
 16 18  1  0  0  0  0
 16 65  1  0  0  0  0
 16 66  1  0  0  0  0
 17 19  1  0  0  0  0
 17 67  1  0  0  0  0
 17 68  1  0  0  0  0
 18 20  1  0  0  0  0
 18 69  1  0  0  0  0
 18 70  1  0  0  0  0
 19 21  1  0  0  0  0
 19 71  1  0  0  0  0
 19 72  1  0  0  0  0
 20 22  1  0  0  0  0
 20 73  1  0  0  0  0
 20 74  1  0  0  0  0
 21 23  1  0  0  0  0
 21 75  1  0  0  0  0
 21 76  1  0  0  0  0
 22 24  1  0  0  0  0
 22 77  1  0  0  0  0
 22 78  1  0  0  0  0
 23 25  1  0  0  0  0
 23 79  1  0  0  0  0
 23 80  1  0  0  0  0
 24 26  1  0  0  0  0
 24 81  1  0  0  0  0
 24 82  1  0  0  0  0
 25 27  1  0  0  0  0
 25 83  1  0  0  0  0
 25 84  1  0  0  0  0
 26 28  1  0  0  0  0
 26 85  1  0  0  0  0
 26 86  1  0  0  0  0
 27 29  1  0  0  0  0
 27 87  1  0  0  0  0
 27 88  1  0  0  0  0
 28 30  1  0  0  0  0
 28 89  1  0  0  0  0
 28 90  1  0  0  0  0
 29 31  1  0  0  0  0
 29 91  1  0  0  0  0
 29 92  1  0  0  0  0
 30 32  1  0  0  0  0
 30 93  1  0  0  0  0
 30 94  1  0  0  0  0
 31 95  1  0  0  0  0
 31 96  1  0  0  0  0
 32 97  1  0  0  0  0
 32 98  1  0  0  0  0
 32 99  1  0  0  0  0
 33 34  1  0  0  0  0
 34 35  2  0  0  0  0
 34100  1  0  0  0  0
 35 36  1  0  0  0  0
 35101  1  0  0  0  0
 36 37  2  0  0  0  0
 36 38  1  0  0  0  0
 37 39  1  0  0  0  0
 37102  1  0  0  0  0
 38 40  2  0  0  0  0
 38103  1  0  0  0  0
 39 41  2  0  0  0  0
 40 41  1  0  0  0  0
 40104  1  0  0  0  0
 42106  1  0  0  0  0
 42107  1  0  0  0  0
 42108  1  0  0  0  0
M  END
>  <PUBCHEM_COMPOUND_CID>
5743442

>  <PUBCHEM_COMPOUND_CANONICALIZED>
1

>  <PUBCHEM_CACTVS_COMPLEXITY>
604

>  <PUBCHEM_CACTVS_HBOND_ACCEPTOR>
4

>  <PUBCHEM_CACTVS_HBOND_DONOR>
1

>  <PUBCHEM_CACTVS_ROTATABLE_BOND>
31

>  <PUBCHEM_CACTVS_SUBSKEYS>
AAADcfB8OAAAAAAAAAAAAAAAAAAAAAAAAAAwAAAAAAAAAAABAAAAGgAACAAADASgmAIyDoAABgCIAiDSCAACCAAgIAAIiAAGiMgNJiKGMRqCcCMkwBELuYeAwLAOIAABAAAAQABAAAIAAACAAAAAAAAAAA==

>  <PUBCHEM_IUPAC_OPENEYE_NAME>
octacosyl (E)-3-(4-hydroxy-3-methoxy-phenyl)prop-2-enoate

>  <PUBCHEM_IUPAC_CAS_NAME>
(E)-3-(4-hydroxy-3-methoxyphenyl)-2-propenoic acid octacosyl ester

>  <PUBCHEM_IUPAC_NAME>
octacosyl (E)-3-(4-hydroxy-3-methoxyphenyl)prop-2-enoate

>  <PUBCHEM_IUPAC_SYSTEMATIC_NAME>
octacosyl (E)-3-(3-methoxy-4-oxidanyl-phenyl)prop-2-enoate

>  <PUBCHEM_IUPAC_TRADITIONAL_NAME>
(E)-3-(4-hydroxy-3-methoxy-phenyl)acrylic acid montanyl ester

>  <PUBCHEM_IUPAC_INCHI>
InChI=1S/C38H66O4/c1-3-4-5-6-7-8-9-10-11-12-13-14-15-16-17-18-19-20-21-22-23-24-25-26-27-28-33-42-38(40)32-30-35-29-31-36(39)37(34-35)41-2/h29-32,34,39H,3-28,33H2,1-2H3/b32-30+

>  <PUBCHEM_IUPAC_INCHIKEY>
PIGLOISSVVAGBD-NHQGMKOOSA-N

>  <PUBCHEM_XLOGP3>
16.1

>  <PUBCHEM_EXACT_MASS>
586.496

>  <PUBCHEM_MOLECULAR_FORMULA>
C38H66O4

>  <PUBCHEM_MOLECULAR_WEIGHT>
586.942

>  <PUBCHEM_OPENEYE_CAN_SMILES>
CCCCCCCCCCCCCCCCCCCCCCCCCCCCOC(=O)C=CC1=CC(=C(C=C1)O)OC

>  <PUBCHEM_OPENEYE_ISO_SMILES>
CCCCCCCCCCCCCCCCCCCCCCCCCCCCOC(=O)/C=C/C1=CC(=C(C=C1)O)OC

>  <PUBCHEM_CACTVS_TPSA>
55.8

>  <PUBCHEM_MONOISOTOPIC_WEIGHT>
586.496

>  <PUBCHEM_TOTAL_CHARGE>
0

>  <PUBCHEM_HEAVY_ATOM_COUNT>
42

>  <PUBCHEM_ATOM_DEF_STEREO_COUNT>
0

>  <PUBCHEM_ATOM_UDEF_STEREO_COUNT>
0

>  <PUBCHEM_BOND_DEF_STEREO_COUNT>
1

>  <PUBCHEM_BOND_UDEF_STEREO_COUNT>
0

>  <PUBCHEM_ISOTOPIC_ATOM_COUNT>
0

>  <PUBCHEM_COMPONENT_COUNT>
1

>  <PUBCHEM_CACTVS_TAUTO_COUNT>
5

>  <PUBCHEM_COORDINATE_TYPE>
1
5
255

>  <PUBCHEM_BONDANNOTATIONS>
36  37  8
36  38  8
37  39  8
38  40  8
39  41  8
40  41  8

$$$$
