5748611
 OpenBabel06101807152D

 38 40  0  0  0  0  0  0  0  0999 V2000
    6.3981   -0.6154    0.0000 O   0  0  0  0  0  0  0  0  0  0  0  0
    2.8680    1.4088    0.0000 O   0  0  0  0  0  0  0  0  0  0  0  0
    2.8680   -0.6395    0.0000 O   0  0  0  0  0  0  0  0  0  0  0  0
    4.6497    2.4192    0.0000 O   0  0  0  0  0  0  0  0  0  0  0  0
    8.1301    1.3846    0.0000 O   0  0  0  0  0  0  0  0  0  0  0  0
    6.3981    2.3846    0.0000 O   0  0  0  0  0  0  0  0  0  0  0  0
   10.7282   -2.1154    0.0000 O   0  0  0  0  0  0  0  0  0  0  0  0
    5.5320    0.8846    0.0000 C   0  0  0  0  0  0  0  0  0  0  0  0
    5.5320   -0.1154    0.0000 C   0  0  0  0  0  0  0  0  0  0  0  0
    7.2641   -0.1154    0.0000 C   0  0  0  0  0  0  0  0  0  0  0  0
    4.6381    1.4193    0.0000 C   0  0  0  0  0  0  0  0  0  0  0  0
    6.3981    1.3846    0.0000 C   0  0  0  0  0  0  0  0  0  0  0  0
    4.6381   -0.6501    0.0000 C   0  0  0  0  0  0  0  0  0  0  0  0
    7.2641    0.8846    0.0000 C   0  0  0  0  0  0  0  0  0  0  0  0
    3.7320    0.9054    0.0000 C   0  0  0  0  0  0  0  0  0  0  0  0
    3.7320   -0.1362    0.0000 C   0  0  0  0  0  0  0  0  0  0  0  0
    8.1301   -0.6154    0.0000 C   0  0  0  0  0  0  0  0  0  0  0  0
    8.1301   -1.6154    0.0000 C   0  0  0  0  0  0  0  0  0  0  0  0
    8.9962   -0.1154    0.0000 C   0  0  0  0  0  0  0  0  0  0  0  0
    8.9962   -2.1154    0.0000 C   0  0  0  0  0  0  0  0  0  0  0  0
    9.8622   -0.6154    0.0000 C   0  0  0  0  0  0  0  0  0  0  0  0
    9.8622   -1.6154    0.0000 C   0  0  0  0  0  0  0  0  0  0  0  0
    2.0000    0.9121    0.0000 C   0  0  0  0  0  0  0  0  0  0  0  0
    2.8718   -1.6395    0.0000 C   0  0  0  0  0  0  0  0  0  0  0  0
    4.6453   -1.2700    0.0000 H   0  0  0  0  0  0  0  0  0  0  0  0
    7.5932   -1.9254    0.0000 H   0  0  0  0  0  0  0  0  0  0  0  0
    8.9962    0.5046    0.0000 H   0  0  0  0  0  0  0  0  0  0  0  0
    8.9962   -2.7354    0.0000 H   0  0  0  0  0  0  0  0  0  0  0  0
   10.3991   -0.3054    0.0000 H   0  0  0  0  0  0  0  0  0  0  0  0
    4.1164    2.7354    0.0000 H   0  0  0  0  0  0  0  0  0  0  0  0
    8.1301    2.0046    0.0000 H   0  0  0  0  0  0  0  0  0  0  0  0
    1.6921    1.4502    0.0000 H   0  0  0  0  0  0  0  0  0  0  0  0
    1.4619    0.6042    0.0000 H   0  0  0  0  0  0  0  0  0  0  0  0
    2.3079    0.3740    0.0000 H   0  0  0  0  0  0  0  0  0  0  0  0
    2.2518   -1.6419    0.0000 H   0  0  0  0  0  0  0  0  0  0  0  0
    2.8742   -2.2595    0.0000 H   0  0  0  0  0  0  0  0  0  0  0  0
    3.4918   -1.6371    0.0000 H   0  0  0  0  0  0  0  0  0  0  0  0
   10.7282   -2.7354    0.0000 H   0  0  0  0  0  0  0  0  0  0  0  0
  1  9  1  0  0  0  0
  1 10  1  0  0  0  0
  2 15  1  0  0  0  0
  2 23  1  0  0  0  0
  3 16  1  0  0  0  0
  3 24  1  0  0  0  0
  4 11  1  0  0  0  0
  4 30  1  0  0  0  0
  5 14  1  0  0  0  0
  5 31  1  0  0  0  0
  6 12  2  0  0  0  0
  7 22  1  0  0  0  0
  7 38  1  0  0  0  0
  8  9  1  0  0  0  0
  8 11  2  0  0  0  0
  8 12  1  0  0  0  0
  9 13  2  0  0  0  0
 10 14  2  0  0  0  0
 10 17  1  0  0  0  0
 11 15  1  0  0  0  0
 12 14  1  0  0  0  0
 13 16  1  0  0  0  0
 13 25  1  0  0  0  0
 15 16  2  0  0  0  0
 17 18  2  0  0  0  0
 17 19  1  0  0  0  0
 18 20  1  0  0  0  0
 18 26  1  0  0  0  0
 19 21  2  0  0  0  0
 19 27  1  0  0  0  0
 20 22  2  0  0  0  0
 20 28  1  0  0  0  0
 21 22  1  0  0  0  0
 21 29  1  0  0  0  0
 23 32  1  0  0  0  0
 23 33  1  0  0  0  0
 23 34  1  0  0  0  0
 24 35  1  0  0  0  0
 24 36  1  0  0  0  0
 24 37  1  0  0  0  0
M  END
>  <PUBCHEM_COMPOUND_CID>
5748611

>  <PUBCHEM_COMPOUND_CANONICALIZED>
1

>  <PUBCHEM_CACTVS_COMPLEXITY>
509

>  <PUBCHEM_CACTVS_HBOND_ACCEPTOR>
7

>  <PUBCHEM_CACTVS_HBOND_DONOR>
3

>  <PUBCHEM_CACTVS_ROTATABLE_BOND>
3

>  <PUBCHEM_CACTVS_SUBSKEYS>
AAADccB4OAAAAAAAAAAAAAAAAAAAAAAAAAAwYIAAAAAAAACBQAAAGgAACAAADASAmAIyBoAABgCIAqBSAAICCAAkIAAIiAFGiMgNJzaGNRqCeWOl4BULuQfK7LzOIQABCAAIQABCAAIQABCAAAAAAAAAAA==

>  <PUBCHEM_IUPAC_OPENEYE_NAME>
3,5-dihydroxy-2-(4-hydroxyphenyl)-6,7-dimethoxy-chromen-4-one

>  <PUBCHEM_IUPAC_CAS_NAME>
3,5-dihydroxy-2-(4-hydroxyphenyl)-6,7-dimethoxy-1-benzopyran-4-one

>  <PUBCHEM_IUPAC_NAME>
3,5-dihydroxy-2-(4-hydroxyphenyl)-6,7-dimethoxychromen-4-one

>  <PUBCHEM_IUPAC_SYSTEMATIC_NAME>
2-(4-hydroxyphenyl)-6,7-dimethoxy-3,5-bis(oxidanyl)chromen-4-one

>  <PUBCHEM_IUPAC_TRADITIONAL_NAME>
3,5-dihydroxy-2-(4-hydroxyphenyl)-6,7-dimethoxy-chromone

>  <PUBCHEM_IUPAC_INCHI>
InChI=1S/C17H14O7/c1-22-11-7-10-12(14(20)17(11)23-2)13(19)15(21)16(24-10)8-3-5-9(18)6-4-8/h3-7,18,20-21H,1-2H3

>  <PUBCHEM_IUPAC_INCHIKEY>
KWMAWXWUGIEVDG-UHFFFAOYSA-N

>  <PUBCHEM_XLOGP3_AA>
2.8

>  <PUBCHEM_EXACT_MASS>
330.074

>  <PUBCHEM_MOLECULAR_FORMULA>
C17H14O7

>  <PUBCHEM_MOLECULAR_WEIGHT>
330.292

>  <PUBCHEM_OPENEYE_CAN_SMILES>
COC1=C(C(=C2C(=C1)OC(=C(C2=O)O)C3=CC=C(C=C3)O)O)OC

>  <PUBCHEM_OPENEYE_ISO_SMILES>
COC1=C(C(=C2C(=C1)OC(=C(C2=O)O)C3=CC=C(C=C3)O)O)OC

>  <PUBCHEM_CACTVS_TPSA>
105

>  <PUBCHEM_MONOISOTOPIC_WEIGHT>
330.074

>  <PUBCHEM_TOTAL_CHARGE>
0

>  <PUBCHEM_HEAVY_ATOM_COUNT>
24

>  <PUBCHEM_ATOM_DEF_STEREO_COUNT>
0

>  <PUBCHEM_ATOM_UDEF_STEREO_COUNT>
0

>  <PUBCHEM_BOND_DEF_STEREO_COUNT>
0

>  <PUBCHEM_BOND_UDEF_STEREO_COUNT>
0

>  <PUBCHEM_ISOTOPIC_ATOM_COUNT>
0

>  <PUBCHEM_COMPONENT_COUNT>
1

>  <PUBCHEM_CACTVS_TAUTO_COUNT>
53

>  <PUBCHEM_COORDINATE_TYPE>
1
5
255

>  <PUBCHEM_BONDANNOTATIONS>
1  10  8
1  9  8
10  14  8
11  15  8
12  14  8
13  16  8
15  16  8
17  18  8
17  19  8
18  20  8
19  21  8
20  22  8
21  22  8
8  11  8
8  12  8
8  9  8
9  13  8

$$$$
