5748431
 OpenBabel06101807152D

 98102  0  0  1  0  0  0  0  0999 V2000
    8.7331   -1.2389    0.0000 O   0  0  0  0  0  0  0  0  0  0  0  0
    6.0010   -2.2389    0.0000 O   0  0  0  0  0  0  0  0  0  0  0  0
    9.8985   -0.7606    0.0000 O   0  0  0  0  0  0  0  0  0  0  0  0
    8.6935    3.8467    0.0000 O   0  0  0  0  0  0  0  0  0  0  0  0
   11.2922    2.6025    0.0000 O   0  0  0  0  0  0  0  0  0  0  0  0
    8.7332   -3.2388    0.0000 O   0  0  0  0  0  0  0  0  0  0  0  0
    7.0010   -3.2388    0.0000 O   0  0  0  0  0  0  0  0  0  0  0  0
    4.2690   -2.2389    0.0000 O   0  0  0  0  0  0  0  0  0  0  0  0
    3.5523   -0.4024    0.0000 O   0  0  0  0  0  0  0  0  0  0  0  0
    5.7587    3.3730    0.0000 O   0  0  0  0  0  0  0  0  0  0  0  0
    6.6420    1.8832    0.0000 O   0  0  0  0  0  0  0  0  0  0  0  0
    6.0010   -4.2389    0.0000 O   0  0  0  0  0  0  0  0  0  0  0  0
    7.0591    4.4202    0.0000 O   0  0  0  0  0  0  0  0  0  0  0  0
    4.2690   -5.2389    0.0000 O   0  0  0  0  0  0  0  0  0  0  0  0
    2.5369   -4.2389    0.0000 O   0  0  0  0  0  0  0  0  0  0  0  0
    2.5369   -1.2389    0.0000 O   0  0  0  0  0  0  0  0  0  0  0  0
    7.8671   -0.7389    0.0000 C   0  0  3  0  0  0  0  0  0  0  0  0
    8.3671    0.1272    0.0000 C   0  0  1  0  0  0  0  0  0  0  0  0
    7.8671    0.9932    0.0000 C   0  0  1  0  0  0  0  0  0  0  0  0
    6.8671   -0.7389    0.0000 C   0  0  1  0  0  0  0  0  0  0  0  0
    8.3739    1.9032    0.0000 C   0  0  2  0  0  0  0  0  0  0  0  0
    7.8671   -1.7389    0.0000 C   0  0  1  0  0  0  0  0  0  0  0  0
    6.8671    0.9932    0.0000 C   0  0  0  0  0  0  0  0  0  0  0  0
    6.3671    0.1272    0.0000 C   0  0  0  0  0  0  0  0  0  0  0  0
    9.4155    1.9112    0.0000 C   0  0  1  0  0  0  0  0  0  0  0  0
    9.4086    0.1111    0.0000 C   0  0  0  0  0  0  0  0  0  0  0  0
    9.9363    1.0092    0.0000 C   0  0  0  0  0  0  0  0  0  0  0  0
    9.1331   -0.5156    0.0000 C   0  0  0  0  0  0  0  0  0  0  0  0
    6.0010   -1.2389    0.0000 C   0  0  2  0  0  0  0  0  0  0  0  0
    8.3624    2.9031    0.0000 C   0  0  1  0  0  0  0  0  0  0  0  0
    6.8671   -1.7389    0.0000 C   0  0  0  0  0  0  0  0  0  0  0  0
    7.5022    2.3932    0.0000 C   0  0  0  0  0  0  0  0  0  0  0  0
   10.3539    2.2569    0.0000 C   0  0  0  0  0  0  0  0  0  0  0  0
    7.8671   -2.7389    0.0000 C   0  0  0  0  0  0  0  0  0  0  0  0
    5.1350   -0.7389    0.0000 C   0  0  0  0  0  0  0  0  0  0  0  0
    7.4906    3.3931    0.0000 C   0  0  0  0  0  0  0  0  0  0  0  0
   10.6995    1.3185    0.0000 C   0  0  0  0  0  0  0  0  0  0  0  0
   10.0082    3.1952    0.0000 C   0  0  0  0  0  0  0  0  0  0  0  0
    5.1350   -2.7389    0.0000 C   0  0  2  0  0  0  0  0  0  0  0  0
    5.0305    0.2557    0.0000 C   0  0  0  0  0  0  0  0  0  0  0  0
    4.2215   -1.1456    0.0000 C   0  0  0  0  0  0  0  0  0  0  0  0
    6.6304    2.8831    0.0000 C   0  0  0  0  0  0  0  0  0  0  0  0
    8.0419    4.6053    0.0000 C   0  0  0  0  0  0  0  0  0  0  0  0
    5.1350   -3.7389    0.0000 C   0  0  1  0  0  0  0  0  0  0  0  0
    4.0523    0.4636    0.0000 C   0  0  0  0  0  0  0  0  0  0  0  0
    4.2690   -4.2389    0.0000 C   0  0  2  0  0  0  0  0  0  0  0  0
    3.4030   -2.7389    0.0000 C   0  0  1  0  0  0  0  0  0  0  0  0
    3.4030   -3.7389    0.0000 C   0  0  1  0  0  0  0  0  0  0  0  0
    8.3730    5.5489    0.0000 C   0  0  0  0  0  0  0  0  0  0  0  0
    2.5369   -2.2389    0.0000 C   0  0  0  0  0  0  0  0  0  0  0  0
    7.4364    1.7260    0.0000 H   0  0  0  0  0  0  0  0  0  0  0  0
    8.4040   -2.0488    0.0000 H   0  0  0  0  0  0  0  0  0  0  0  0
    6.9747    1.6038    0.0000 H   0  0  0  0  0  0  0  0  0  0  0  0
    6.2844    1.2052    0.0000 H   0  0  0  0  0  0  0  0  0  0  0  0
    5.8921    0.5257    0.0000 H   0  0  0  0  0  0  0  0  0  0  0  0
    5.8921   -0.2714    0.0000 H   0  0  0  0  0  0  0  0  0  0  0  0
   10.2148    1.6220    0.0000 H   0  0  0  0  0  0  0  0  0  0  0  0
   10.4092    0.6082    0.0000 H   0  0  0  0  0  0  0  0  0  0  0  0
   10.4123    1.4064    0.0000 H   0  0  0  0  0  0  0  0  0  0  0  0
    8.7346   -0.9906    0.0000 H   0  0  0  0  0  0  0  0  0  0  0  0
    9.6081   -0.9141    0.0000 H   0  0  0  0  0  0  0  0  0  0  0  0
    9.5316   -0.0407    0.0000 H   0  0  0  0  0  0  0  0  0  0  0  0
    5.4641   -1.5489    0.0000 H   0  0  0  0  0  0  0  0  0  0  0  0
    8.9741    2.8025    0.0000 H   0  0  0  0  0  0  0  0  0  0  0  0
    6.2471   -1.7389    0.0000 H   0  0  0  0  0  0  0  0  0  0  0  0
    6.8671   -2.3589    0.0000 H   0  0  0  0  0  0  0  0  0  0  0  0
    7.4871   -1.7389    0.0000 H   0  0  0  0  0  0  0  0  0  0  0  0
    7.8059    2.9336    0.0000 H   0  0  0  0  0  0  0  0  0  0  0  0
    6.9617    2.6969    0.0000 H   0  0  0  0  0  0  0  0  0  0  0  0
    7.1984    1.8527    0.0000 H   0  0  0  0  0  0  0  0  0  0  0  0
    7.8836    3.8726    0.0000 H   0  0  0  0  0  0  0  0  0  0  0  0
    7.0866    3.8634    0.0000 H   0  0  0  0  0  0  0  0  0  0  0  0
   10.1177    1.1042    0.0000 H   0  0  0  0  0  0  0  0  0  0  0  0
   10.9138    0.7367    0.0000 H   0  0  0  0  0  0  0  0  0  0  0  0
   11.2813    1.5328    0.0000 H   0  0  0  0  0  0  0  0  0  0  0  0
   10.5900    3.4095    0.0000 H   0  0  0  0  0  0  0  0  0  0  0  0
    9.7939    3.7770    0.0000 H   0  0  0  0  0  0  0  0  0  0  0  0
    9.4265    2.9809    0.0000 H   0  0  0  0  0  0  0  0  0  0  0  0
   11.7687    2.2058    0.0000 H   0  0  0  0  0  0  0  0  0  0  0  0
    5.1350   -2.1189    0.0000 H   0  0  0  0  0  0  0  0  0  0  0  0
    9.2700   -2.9289    0.0000 H   0  0  0  0  0  0  0  0  0  0  0  0
    5.4912    0.6705    0.0000 H   0  0  0  0  0  0  0  0  0  0  0  0
    4.0926   -1.7520    0.0000 H   0  0  0  0  0  0  0  0  0  0  0  0
    5.6720   -3.4289    0.0000 H   0  0  0  0  0  0  0  0  0  0  0  0
    3.8002    1.0300    0.0000 H   0  0  0  0  0  0  0  0  0  0  0  0
    4.8059   -4.5489    0.0000 H   0  0  0  0  0  0  0  0  0  0  0  0
    3.4030   -2.1189    0.0000 H   0  0  0  0  0  0  0  0  0  0  0  0
    2.8660   -3.4289    0.0000 H   0  0  0  0  0  0  0  0  0  0  0  0
    8.9580    5.3436    0.0000 H   0  0  0  0  0  0  0  0  0  0  0  0
    8.5783    6.1339    0.0000 H   0  0  0  0  0  0  0  0  0  0  0  0
    7.7880    5.7542    0.0000 H   0  0  0  0  0  0  0  0  0  0  0  0
    5.2254    3.0569    0.0000 H   0  0  0  0  0  0  0  0  0  0  0  0
    6.5380   -3.9289    0.0000 H   0  0  0  0  0  0  0  0  0  0  0  0
    1.9264   -2.1312    0.0000 H   0  0  0  0  0  0  0  0  0  0  0  0
    2.3249   -2.8215    0.0000 H   0  0  0  0  0  0  0  0  0  0  0  0
    3.7320   -5.5489    0.0000 H   0  0  0  0  0  0  0  0  0  0  0  0
    2.0000   -3.9289    0.0000 H   0  0  0  0  0  0  0  0  0  0  0  0
    2.0000   -0.9289    0.0000 H   0  0  0  0  0  0  0  0  0  0  0  0
  1 17  1  0  0  0  0
  1 22  1  0  0  0  0
  3 26  2  0  0  0  0
  4 43  1  0  0  0  0
  5 33  1  0  0  0  0
  5 79  1  0  0  0  0
  6 34  1  0  0  0  0
  6 81  1  0  0  0  0
  7 34  2  0  0  0  0
  8 39  1  0  0  0  0
  8 47  1  0  0  0  0
  9 41  1  0  0  0  0
  9 45  1  0  0  0  0
 10 42  1  0  0  0  0
 10 92  1  0  0  0  0
 11 42  2  0  0  0  0
 12 93  1  0  0  0  0
 13 43  2  0  0  0  0
 14 96  1  0  0  0  0
 15 97  1  0  0  0  0
 16 50  1  0  0  0  0
 16 98  1  0  0  0  0
 18 17  1  1  0  0  0
 18 26  1  0  0  0  0
 18 28  1  0  0  0  0
 19 18  1  1  0  0  0
 19 23  1  0  0  0  0
 19 51  1  0  0  0  0
 20 17  1  6  0  0  0
 20 24  1  0  0  0  0
 20 29  1  0  0  0  0
 20 31  1  0  0  0  0
 21 19  1  1  0  0  0
 21 30  1  0  0  0  0
 21 32  1  0  0  0  0
 22 17  1  1  0  0  0
 22 34  1  0  0  0  0
 22 52  1  0  0  0  0
 23 24  1  0  0  0  0
 23 53  1  0  0  0  0
 23 54  1  0  0  0  0
 24 55  1  0  0  0  0
 24 56  1  0  0  0  0
 25 21  1  1  0  0  0
 25 27  1  0  0  0  0
 25 33  1  0  0  0  0
 25 57  1  0  0  0  0
 26 27  1  0  0  0  0
 27 58  1  0  0  0  0
 27 59  1  0  0  0  0
 28 60  1  0  0  0  0
 28 61  1  0  0  0  0
 28 62  1  0  0  0  0
 29  2  1  0  0  0  0
 29 35  1  0  0  0  0
 29 63  1  6  0  0  0
 30  4  1  0  0  0  0
 30 36  1  0  0  0  0
 30 64  1  6  0  0  0
 31 65  1  0  0  0  0
 31 66  1  0  0  0  0
 31 67  1  0  0  0  0
 32 68  1  0  0  0  0
 32 69  1  0  0  0  0
 32 70  1  0  0  0  0
 33 37  1  0  0  0  0
 33 38  1  0  0  0  0
 35 40  1  0  0  0  0
 35 41  2  0  0  0  0
 36 42  1  0  0  0  0
 36 71  1  0  0  0  0
 36 72  1  0  0  0  0
 37 73  1  0  0  0  0
 37 74  1  0  0  0  0
 37 75  1  0  0  0  0
 38 76  1  0  0  0  0
 38 77  1  0  0  0  0
 38 78  1  0  0  0  0
 39  2  1  0  0  0  0
 39 44  1  6  0  0  0
 39 80  1  0  0  0  0
 40 45  2  0  0  0  0
 40 82  1  0  0  0  0
 41 83  1  0  0  0  0
 43 49  1  0  0  0  0
 44 12  1  0  0  0  0
 44 46  1  1  0  0  0
 44 84  1  0  0  0  0
 45 85  1  0  0  0  0
 46 14  1  0  0  0  0
 46 48  1  6  0  0  0
 46 86  1  0  0  0  0
 47 48  1  6  0  0  0
 47 50  1  0  0  0  0
 47 87  1  0  0  0  0
 48 15  1  0  0  0  0
 48 88  1  1  0  0  0
 49 89  1  0  0  0  0
 49 90  1  0  0  0  0
 49 91  1  0  0  0  0
 50 94  1  0  0  0  0
 50 95  1  0  0  0  0
M  END
>  <PUBCHEM_COMPOUND_CID>
5748431

>  <PUBCHEM_COMPOUND_CANONICALIZED>
1

>  <PUBCHEM_CACTVS_COMPLEXITY>
1350

>  <PUBCHEM_CACTVS_HBOND_ACCEPTOR>
16

>  <PUBCHEM_CACTVS_HBOND_DONOR>
7

>  <PUBCHEM_CACTVS_ROTATABLE_BOND>
12

>  <PUBCHEM_CACTVS_SUBSKEYS>
AAADcfB8PgAAAAAAAAAAAAAAEgAAASAAAAA0YIAAAAAAAADBgAAAGgAACAAAD1SwmAMyDIAABkCIAqjSiAICCAAkIAAIiAFGCMgdNxYENQ6iWSCl4BEPKYPK7vzvgAAAAAAAAACAAAYAADAAAAAAAAAAAA==

>  <PUBCHEM_IUPAC_OPENEYE_NAME>
(2S,2'S,4aR,5R,6R,8aR)-5-[(1R)-1-acetoxy-2-carboxy-ethyl]-2-[(S)-3-furyl-[(2R,3R,4S,5S,6R)-3,4,5-trihydroxy-6-(hydroxymethyl)tetrahydropyran-2-yl]oxy-methyl]-6-(1-hydroxy-1-methyl-ethyl)-2,5,8a-trimethyl-8-oxo-spiro[decalin-1,3'-oxirane]-2'-carboxylic acid

>  <PUBCHEM_IUPAC_CAS_NAME>
(2'S,3S,4aR,7R,8R,8aR)-8-[(1R)-1-acetyloxy-2-carboxyethyl]-3-[(S)-3-furanyl-[[(2R,3R,4S,5S,6R)-3,4,5-trihydroxy-6-(hydroxymethyl)-2-oxanyl]oxy]methyl]-7-(2-hydroxypropan-2-yl)-3,4a,8-trimethyl-5-oxo-2'-spiro[2,6,7,8a-tetrahydro-1H-naphthalene-4,3'-oxirane]carboxylic acid

>  <PUBCHEM_IUPAC_NAME>
(2'S,3S,4aR,7R,8R,8aR)-8-[(1R)-1-acetyloxy-2-carboxyethyl]-3-[(S)-furan-3-yl-[(2R,3R,4S,5S,6R)-3,4,5-trihydroxy-6-(hydroxymethyl)oxan-2-yl]oxymethyl]-7-(2-hydroxypropan-2-yl)-3,4a,8-trimethyl-5-oxospiro[2,6,7,8a-tetrahydro-1H-naphthalene-4,3'-oxirane]-2'-carboxylic acid

>  <PUBCHEM_IUPAC_SYSTEMATIC_NAME>
(2'S,3S,4aR,7R,8R,8aR)-8-[(1R)-1-acetyloxy-3-oxidanyl-3-oxidanylidene-propyl]-3-[(S)-furan-3-yl-[(2R,3R,4S,5S,6R)-6-(hydroxymethyl)-3,4,5-tris(oxidanyl)oxan-2-yl]oxy-methyl]-3,4a,8-trimethyl-5-oxidanylidene-7-(2-oxidanylpropan-2-yl)spiro[2,6,7,8a-tetrahydro-1H-naphthalene-4,3'-oxirane]-2'-carboxylic acid

>  <PUBCHEM_IUPAC_TRADITIONAL_NAME>
(2S,2'S,4aR,5R,6R,8aR)-5-[(1R)-1-acetoxy-2-carboxy-ethyl]-2-[(S)-3-furyl-[(2R,3R,4S,5S,6R)-3,4,5-trihydroxy-6-methylol-tetrahydropyran-2-yl]oxy-methyl]-6-(1-hydroxy-1-methyl-ethyl)-8-keto-2,5,8a-trimethyl-spiro[decalin-1,3'-oxirane]-2'-carboxylic acid

>  <PUBCHEM_IUPAC_INCHI>
InChI=1S/C34H48O16/c1-15(36)47-21(12-22(38)39)32(5)18-7-9-31(4,34(27(50-34)28(43)44)33(18,6)20(37)11-19(32)30(2,3)45)26(16-8-10-46-14-16)49-29-25(42)24(41)23(40)17(13-35)48-29/h8,10,14,17-19,21,23-27,29,35,40-42,45H,7,9,11-13H2,1-6H3,(H,38,39)(H,43,44)/t17-,18-,19+,21-,23-,24+,25-,26+,27-,29+,31+,32-,33+,34?/m1/s1

>  <PUBCHEM_IUPAC_INCHIKEY>
MUZNNCNJBAPYJF-UNWTYGGYSA-N

>  <PUBCHEM_XLOGP3_AA>
-0.6

>  <PUBCHEM_EXACT_MASS>
712.294

>  <PUBCHEM_MOLECULAR_FORMULA>
C34H48O16

>  <PUBCHEM_MOLECULAR_WEIGHT>
712.742

>  <PUBCHEM_OPENEYE_CAN_SMILES>
CC(=O)OC(CC(=O)O)C1(C2CCC(C3(C2(C(=O)CC1C(C)(C)O)C)C(O3)C(=O)O)(C)C(C4=COC=C4)OC5C(C(C(C(O5)CO)O)O)O)C

>  <PUBCHEM_OPENEYE_ISO_SMILES>
CC(=O)O[C@H](CC(=O)O)[C@@]1([C@H]2CC[C@@](C3([C@@]2(C(=O)C[C@H]1C(C)(C)O)C)[C@H](O3)C(=O)O)(C)[C@H](C4=COC=C4)O[C@H]5[C@@H]([C@H]([C@@H]([C@H](O5)CO)O)O)O)C

>  <PUBCHEM_CACTVS_TPSA>
263

>  <PUBCHEM_MONOISOTOPIC_WEIGHT>
712.294

>  <PUBCHEM_TOTAL_CHARGE>
0

>  <PUBCHEM_HEAVY_ATOM_COUNT>
50

>  <PUBCHEM_ATOM_DEF_STEREO_COUNT>
13

>  <PUBCHEM_ATOM_UDEF_STEREO_COUNT>
1

>  <PUBCHEM_BOND_DEF_STEREO_COUNT>
0

>  <PUBCHEM_BOND_UDEF_STEREO_COUNT>
0

>  <PUBCHEM_ISOTOPIC_ATOM_COUNT>
0

>  <PUBCHEM_COMPONENT_COUNT>
1

>  <PUBCHEM_CACTVS_TAUTO_COUNT>
2

>  <PUBCHEM_COORDINATE_TYPE>
1
5
255

>  <PUBCHEM_BONDANNOTATIONS>
17  1  3
44  12  6
46  14  5
48  15  6
18  28  6
19  51  5
29  2  5
39  2  5
20  31  5
21  32  6
22  34  6
25  57  5
35  40  8
35  41  8
30  4  5
40  45  8
47  50  5
9  41  8
9  45  8

$$$$
