57509382
 OpenBabel06101807152D

 94 99  0  0  1  0  0  0  0  0999 V2000
    6.0010    0.5724    0.0000 O   0  0  0  0  0  0  0  0  0  0  0  0
    4.2690    0.5724    0.0000 O   0  0  0  0  0  0  0  0  0  0  0  0
    6.0010   -1.4276    0.0000 O   0  0  0  0  0  0  0  0  0  0  0  0
    6.8671    3.0724    0.0000 O   0  0  0  0  0  0  0  0  0  0  0  0
    5.1350   -2.9276    0.0000 O   0  0  0  0  0  0  0  0  0  0  0  0
    4.2690   -2.4276    0.0000 O   0  0  0  0  0  0  0  0  0  0  0  0
    2.5369   -1.4276    0.0000 O   0  0  0  0  0  0  0  0  0  0  0  0
    4.2690    1.5724    0.0000 O   0  0  0  0  0  0  0  0  0  0  0  0
    7.7331    1.5724    0.0000 O   0  0  0  0  0  0  0  0  0  0  0  0
    4.2690    3.5724    0.0000 O   0  0  0  0  0  0  0  0  0  0  0  0
    7.7331   -2.4276    0.0000 O   0  0  0  0  0  0  0  0  0  0  0  0
    7.7331   -4.4276    0.0000 O   0  0  0  0  0  0  0  0  0  0  0  0
    6.0010   -5.4276    0.0000 O   0  0  0  0  0  0  0  0  0  0  0  0
    2.5369    1.5724    0.0000 O   0  0  0  0  0  0  0  0  0  0  0  0
    5.1350    5.0724    0.0000 O   0  0  0  0  0  0  0  0  0  0  0  0
    3.4030   -3.9276    0.0000 O   0  0  0  0  0  0  0  0  0  0  0  0
   10.3312    2.0724    0.0000 O   0  0  0  0  0  0  0  0  0  0  0  0
    7.7331    3.5724    0.0000 O   0  0  0  0  0  0  0  0  0  0  0  0
    8.5773    5.1039    0.0000 O   0  0  0  0  0  0  0  0  0  0  0  0
   12.1171    5.1175    0.0000 O   0  0  0  0  0  0  0  0  0  0  0  0
    9.4651   -2.4276    0.0000 O   0  0  0  0  0  0  0  0  0  0  0  0
    5.1350   -0.9276    0.0000 C   0  0  3  0  0  0  0  0  0  0  0  0
    5.1350    0.0725    0.0000 C   0  0  3  0  0  0  0  0  0  0  0  0
    4.2690   -1.4276    0.0000 C   0  0  3  0  0  0  0  0  0  0  0  0
    3.4030   -0.9276    0.0000 C   0  0  3  0  0  0  0  0  0  0  0  0
    6.0010    1.5724    0.0000 C   0  0  3  0  0  0  0  0  0  0  0  0
    3.4030    0.0725    0.0000 C   0  0  3  0  0  0  0  0  0  0  0  0
    5.1350    2.0724    0.0000 C   0  0  3  0  0  0  0  0  0  0  0  0
    6.0010   -2.4276    0.0000 C   0  0  3  0  0  0  0  0  0  0  0  0
    5.1350    3.0724    0.0000 C   0  0  3  0  0  0  0  0  0  0  0  0
    6.8671    2.0724    0.0000 C   0  0  3  0  0  0  0  0  0  0  0  0
    6.8671   -2.9276    0.0000 C   0  0  3  0  0  0  0  0  0  0  0  0
    6.0010    3.5724    0.0000 C   0  0  3  0  0  0  0  0  0  0  0  0
    6.8671   -3.9276    0.0000 C   0  0  3  0  0  0  0  0  0  0  0  0
    6.0010   -4.4276    0.0000 C   0  0  3  0  0  0  0  0  0  0  0  0
    5.1350   -3.9276    0.0000 C   0  0  3  0  0  0  0  0  0  0  0  0
    2.5369    0.5724    0.0000 C   0  0  0  0  0  0  0  0  0  0  0  0
    6.0010    4.5724    0.0000 C   0  0  0  0  0  0  0  0  0  0  0  0
    4.2690   -4.4276    0.0000 C   0  0  0  0  0  0  0  0  0  0  0  0
    8.5991    2.0724    0.0000 C   0  0  0  0  0  0  0  0  0  0  0  0
    9.4651    1.5724    0.0000 C   0  0  0  0  0  0  0  0  0  0  0  0
    8.5991    3.0724    0.0000 C   0  0  0  0  0  0  0  0  0  0  0  0
    9.4651    3.5724    0.0000 C   0  0  0  0  0  0  0  0  0  0  0  0
    9.4651    0.5724    0.0000 C   0  0  0  0  0  0  0  0  0  0  0  0
   10.3312    3.0724    0.0000 C   0  0  0  0  0  0  0  0  0  0  0  0
    9.4491    4.6140    0.0000 C   0  0  0  0  0  0  0  0  0  0  0  0
   11.2412    3.5793    0.0000 C   0  0  0  0  0  0  0  0  0  0  0  0
   10.3312    0.0725    0.0000 C   0  0  0  0  0  0  0  0  0  0  0  0
    8.5991    0.0725    0.0000 C   0  0  0  0  0  0  0  0  0  0  0  0
   10.3471    5.1417    0.0000 C   0  0  0  0  0  0  0  0  0  0  0  0
   11.2492    4.6209    0.0000 C   0  0  0  0  0  0  0  0  0  0  0  0
   10.3312   -0.9276    0.0000 C   0  0  0  0  0  0  0  0  0  0  0  0
    8.5991   -0.9276    0.0000 C   0  0  0  0  0  0  0  0  0  0  0  0
    9.4651   -1.4276    0.0000 C   0  0  0  0  0  0  0  0  0  0  0  0
    5.1350   -1.5476    0.0000 H   0  0  0  0  0  0  0  0  0  0  0  0
    5.1350    0.6924    0.0000 H   0  0  0  0  0  0  0  0  0  0  0  0
    3.7320   -1.7376    0.0000 H   0  0  0  0  0  0  0  0  0  0  0  0
    2.8660   -0.6176    0.0000 H   0  0  0  0  0  0  0  0  0  0  0  0
    6.5380    1.2624    0.0000 H   0  0  0  0  0  0  0  0  0  0  0  0
    3.4030    0.6924    0.0000 H   0  0  0  0  0  0  0  0  0  0  0  0
    4.5981    2.3824    0.0000 H   0  0  0  0  0  0  0  0  0  0  0  0
    6.5380   -2.1176    0.0000 H   0  0  0  0  0  0  0  0  0  0  0  0
    5.1350    3.6924    0.0000 H   0  0  0  0  0  0  0  0  0  0  0  0
    7.4040    2.3824    0.0000 H   0  0  0  0  0  0  0  0  0  0  0  0
    7.4040   -3.2376    0.0000 H   0  0  0  0  0  0  0  0  0  0  0  0
    6.5380    3.8824    0.0000 H   0  0  0  0  0  0  0  0  0  0  0  0
    6.8671   -4.5476    0.0000 H   0  0  0  0  0  0  0  0  0  0  0  0
    5.4641   -4.7376    0.0000 H   0  0  0  0  0  0  0  0  0  0  0  0
    4.5981   -3.6176    0.0000 H   0  0  0  0  0  0  0  0  0  0  0  0
    1.9264    0.6801    0.0000 H   0  0  0  0  0  0  0  0  0  0  0  0
    2.3249   -0.0102    0.0000 H   0  0  0  0  0  0  0  0  0  0  0  0
    3.7320   -2.7376    0.0000 H   0  0  0  0  0  0  0  0  0  0  0  0
    6.6116    4.4648    0.0000 H   0  0  0  0  0  0  0  0  0  0  0  0
    6.2131    5.1551    0.0000 H   0  0  0  0  0  0  0  0  0  0  0  0
    2.0000   -1.1176    0.0000 H   0  0  0  0  0  0  0  0  0  0  0  0
    3.8705   -4.9025    0.0000 H   0  0  0  0  0  0  0  0  0  0  0  0
    4.6675   -4.9025    0.0000 H   0  0  0  0  0  0  0  0  0  0  0  0
    3.7320    1.8824    0.0000 H   0  0  0  0  0  0  0  0  0  0  0  0
    4.2690    4.1924    0.0000 H   0  0  0  0  0  0  0  0  0  0  0  0
    8.2700   -2.7376    0.0000 H   0  0  0  0  0  0  0  0  0  0  0  0
    7.7331   -5.0476    0.0000 H   0  0  0  0  0  0  0  0  0  0  0  0
    5.4641   -5.7376    0.0000 H   0  0  0  0  0  0  0  0  0  0  0  0
    2.0000    1.8824    0.0000 H   0  0  0  0  0  0  0  0  0  0  0  0
    5.1350    5.6924    0.0000 H   0  0  0  0  0  0  0  0  0  0  0  0
    2.8660   -4.2376    0.0000 H   0  0  0  0  0  0  0  0  0  0  0  0
   11.7745    3.2631    0.0000 H   0  0  0  0  0  0  0  0  0  0  0  0
   10.8681    0.3824    0.0000 H   0  0  0  0  0  0  0  0  0  0  0  0
    8.0622    0.3824    0.0000 H   0  0  0  0  0  0  0  0  0  0  0  0
   10.3447    5.7617    0.0000 H   0  0  0  0  0  0  0  0  0  0  0  0
   10.8681   -1.2376    0.0000 H   0  0  0  0  0  0  0  0  0  0  0  0
    8.0622   -1.2376    0.0000 H   0  0  0  0  0  0  0  0  0  0  0  0
    8.5702    5.7239    0.0000 H   0  0  0  0  0  0  0  0  0  0  0  0
   12.1195    5.7376    0.0000 H   0  0  0  0  0  0  0  0  0  0  0  0
   10.0021   -2.7376    0.0000 H   0  0  0  0  0  0  0  0  0  0  0  0
  1 23  1  0  0  0  0
  1 26  1  0  0  0  0
  2 23  1  0  0  0  0
  2 27  1  0  0  0  0
  3 22  1  0  0  0  0
  3 29  1  0  0  0  0
  4 31  1  0  0  0  0
  4 33  1  0  0  0  0
  5 29  1  0  0  0  0
  5 36  1  0  0  0  0
  6 24  1  0  0  0  0
  6 72  1  0  0  0  0
  7 25  1  0  0  0  0
  7 75  1  0  0  0  0
  8 28  1  0  0  0  0
  8 78  1  0  0  0  0
  9 31  1  0  0  0  0
  9 40  1  0  0  0  0
 10 30  1  0  0  0  0
 10 79  1  0  0  0  0
 11 32  1  0  0  0  0
 11 80  1  0  0  0  0
 12 34  1  0  0  0  0
 12 81  1  0  0  0  0
 13 35  1  0  0  0  0
 13 82  1  0  0  0  0
 14 37  1  0  0  0  0
 14 83  1  0  0  0  0
 15 38  1  0  0  0  0
 15 84  1  0  0  0  0
 16 39  1  0  0  0  0
 16 85  1  0  0  0  0
 17 41  1  0  0  0  0
 17 45  1  0  0  0  0
 18 42  2  0  0  0  0
 19 46  1  0  0  0  0
 19 92  1  0  0  0  0
 20 51  1  0  0  0  0
 20 93  1  0  0  0  0
 21 54  1  0  0  0  0
 21 94  1  0  0  0  0
 22 23  1  0  0  0  0
 22 24  1  0  0  0  0
 22 55  1  0  0  0  0
 23 56  1  0  0  0  0
 24 25  1  0  0  0  0
 24 57  1  0  0  0  0
 25 27  1  0  0  0  0
 25 58  1  0  0  0  0
 26 28  1  0  0  0  0
 26 31  1  0  0  0  0
 26 59  1  0  0  0  0
 27 37  1  0  0  0  0
 27 60  1  0  0  0  0
 28 30  1  0  0  0  0
 28 61  1  0  0  0  0
 29 32  1  0  0  0  0
 29 62  1  0  0  0  0
 30 33  1  0  0  0  0
 30 63  1  0  0  0  0
 31 64  1  0  0  0  0
 32 34  1  0  0  0  0
 32 65  1  0  0  0  0
 33 38  1  0  0  0  0
 33 66  1  0  0  0  0
 34 35  1  0  0  0  0
 34 67  1  0  0  0  0
 35 36  1  0  0  0  0
 35 68  1  0  0  0  0
 36 39  1  0  0  0  0
 36 69  1  0  0  0  0
 37 70  1  0  0  0  0
 37 71  1  0  0  0  0
 38 73  1  0  0  0  0
 38 74  1  0  0  0  0
 39 76  1  0  0  0  0
 39 77  1  0  0  0  0
 40 41  2  0  0  0  0
 40 42  1  0  0  0  0
 41 44  1  0  0  0  0
 42 43  1  0  0  0  0
 43 45  1  0  0  0  0
 43 46  2  0  0  0  0
 44 48  2  0  0  0  0
 44 49  1  0  0  0  0
 45 47  2  0  0  0  0
 46 50  1  0  0  0  0
 47 51  1  0  0  0  0
 47 86  1  0  0  0  0
 48 52  1  0  0  0  0
 48 87  1  0  0  0  0
 49 53  2  0  0  0  0
 49 88  1  0  0  0  0
 50 51  2  0  0  0  0
 50 89  1  0  0  0  0
 52 54  2  0  0  0  0
 52 90  1  0  0  0  0
 53 54  1  0  0  0  0
 53 91  1  0  0  0  0
M  END
>  <PUBCHEM_COMPOUND_CID>
57509382

>  <PUBCHEM_COMPOUND_CANONICALIZED>
1

>  <PUBCHEM_CACTVS_COMPLEXITY>
1300

>  <PUBCHEM_CACTVS_HBOND_ACCEPTOR>
21

>  <PUBCHEM_CACTVS_HBOND_DONOR>
13

>  <PUBCHEM_CACTVS_ROTATABLE_BOND>
10

>  <PUBCHEM_CACTVS_SUBSKEYS>
AAADcfB8PgAAAAAAAAAAAAAAAAAAAAAAAAA0aJECAAAAAACBQAAAGgAACAAADBSwmAMwDoAABgCIAqBSAAICCAAkIAAIiAFGCMgdNzaGNR6ieWCl4BUPuQfI7KzOIAAACAAIAABAAAAQABAAAAAAAAAAAA==

>  <PUBCHEM_IUPAC_OPENEYE_NAME>
3-[3-[4,5-dihydroxy-6-(hydroxymethyl)-3-[3,4,5-trihydroxy-6-(hydroxymethyl)tetrahydropyran-2-yl]oxy-tetrahydropyran-2-yl]oxy-4,5-dihydroxy-6-(hydroxymethyl)tetrahydropyran-2-yl]oxy-5,7-dihydroxy-2-(4-hydroxyphenyl)chromen-4-one

>  <PUBCHEM_IUPAC_CAS_NAME>
3-[[3-[[4,5-dihydroxy-6-(hydroxymethyl)-3-[[3,4,5-trihydroxy-6-(hydroxymethyl)-2-oxanyl]oxy]-2-oxanyl]oxy]-4,5-dihydroxy-6-(hydroxymethyl)-2-oxanyl]oxy]-5,7-dihydroxy-2-(4-hydroxyphenyl)-1-benzopyran-4-one

>  <PUBCHEM_IUPAC_NAME>
3-[3-[4,5-dihydroxy-6-(hydroxymethyl)-3-[3,4,5-trihydroxy-6-(hydroxymethyl)oxan-2-yl]oxyoxan-2-yl]oxy-4,5-dihydroxy-6-(hydroxymethyl)oxan-2-yl]oxy-5,7-dihydroxy-2-(4-hydroxyphenyl)chromen-4-one

>  <PUBCHEM_IUPAC_SYSTEMATIC_NAME>
3-[6-(hydroxymethyl)-3-[6-(hydroxymethyl)-3-[6-(hydroxymethyl)-3,4,5-tris(oxidanyl)oxan-2-yl]oxy-4,5-bis(oxidanyl)oxan-2-yl]oxy-4,5-bis(oxidanyl)oxan-2-yl]oxy-2-(4-hydroxyphenyl)-5,7-bis(oxidanyl)chromen-4-one

>  <PUBCHEM_IUPAC_TRADITIONAL_NAME>
3-[3-[4,5-dihydroxy-6-methylol-3-(3,4,5-trihydroxy-6-methylol-tetrahydropyran-2-yl)oxy-tetrahydropyran-2-yl]oxy-4,5-dihydroxy-6-methylol-tetrahydropyran-2-yl]oxy-5,7-dihydroxy-2-(4-hydroxyphenyl)chromone

>  <PUBCHEM_IUPAC_INCHI>
InChI=1S/C33H40O21/c34-7-15-19(40)23(44)26(47)31(49-15)53-29-24(45)20(41)17(9-36)51-33(29)54-30-25(46)21(42)16(8-35)50-32(30)52-28-22(43)18-13(39)5-12(38)6-14(18)48-27(28)10-1-3-11(37)4-2-10/h1-6,15-17,19-21,23-26,29-42,44-47H,7-9H2

>  <PUBCHEM_IUPAC_INCHIKEY>
MGAFCXOXRHSKIA-UHFFFAOYSA-N

>  <PUBCHEM_XLOGP3_AA>
-2.5

>  <PUBCHEM_EXACT_MASS>
772.206

>  <PUBCHEM_MOLECULAR_FORMULA>
C33H40O21

>  <PUBCHEM_MOLECULAR_WEIGHT>
772.662

>  <PUBCHEM_OPENEYE_CAN_SMILES>
C1=CC(=CC=C1C2=C(C(=O)C3=C(C=C(C=C3O2)O)O)OC4C(C(C(C(O4)CO)O)O)OC5C(C(C(C(O5)CO)O)O)OC6C(C(C(C(O6)CO)O)O)O)O

>  <PUBCHEM_OPENEYE_ISO_SMILES>
C1=CC(=CC=C1C2=C(C(=O)C3=C(C=C(C=C3O2)O)O)OC4C(C(C(C(O4)CO)O)O)OC5C(C(C(C(O5)CO)O)O)OC6C(C(C(C(O6)CO)O)O)O)O

>  <PUBCHEM_CACTVS_TPSA>
345

>  <PUBCHEM_MONOISOTOPIC_WEIGHT>
772.206

>  <PUBCHEM_TOTAL_CHARGE>
0

>  <PUBCHEM_HEAVY_ATOM_COUNT>
54

>  <PUBCHEM_ATOM_DEF_STEREO_COUNT>
0

>  <PUBCHEM_ATOM_UDEF_STEREO_COUNT>
15

>  <PUBCHEM_BOND_DEF_STEREO_COUNT>
0

>  <PUBCHEM_BOND_UDEF_STEREO_COUNT>
0

>  <PUBCHEM_ISOTOPIC_ATOM_COUNT>
0

>  <PUBCHEM_COMPONENT_COUNT>
1

>  <PUBCHEM_CACTVS_TAUTO_COUNT>
57

>  <PUBCHEM_COORDINATE_TYPE>
1
5
255

>  <PUBCHEM_BONDANNOTATIONS>
23  1  3
26  1  3
30  10  3
32  11  3
34  12  3
35  13  3
17  41  8
17  45  8
27  37  3
22  3  3
29  3  3
33  38  3
36  39  3
40  41  8
40  42  8
42  43  8
43  45  8
43  46  8
44  48  8
44  49  8
45  47  8
46  50  8
47  51  8
48  52  8
49  53  8
50  51  8
52  54  8
53  54  8
24  6  3
25  7  3
28  8  3
31  9  3

$$$$
