57501028
 OpenBabel06101807152D

 18 17  0  0  0  0  0  0  0  0999 V2000
    5.1350    0.0000    0.0000 S   0  0  0  0  0  0  0  0  0  0  0  0
    2.5369    1.5000    0.0000 O   0  0  0  0  0  0  0  0  0  0  0  0
    4.2690    0.5000    0.0000 C   0  0  0  0  0  0  0  0  0  0  0  0
    3.4030    0.0000    0.0000 C   0  0  0  0  0  0  0  0  0  0  0  0
    3.4030   -1.0000    0.0000 C   0  0  0  0  0  0  0  0  0  0  0  0
    2.5369   -1.5000    0.0000 C   0  0  0  0  0  0  0  0  0  0  0  0
    2.5369    0.5000    0.0000 C   0  0  0  0  0  0  0  0  0  0  0  0
    6.0010    0.5000    0.0000 C   0  0  0  0  0  0  0  0  0  0  0  0
    4.6675    0.9749    0.0000 H   0  0  0  0  0  0  0  0  0  0  0  0
    3.8705    0.9749    0.0000 H   0  0  0  0  0  0  0  0  0  0  0  0
    3.9399   -1.3100    0.0000 H   0  0  0  0  0  0  0  0  0  0  0  0
    2.2269   -0.9631    0.0000 H   0  0  0  0  0  0  0  0  0  0  0  0
    2.0000   -1.8100    0.0000 H   0  0  0  0  0  0  0  0  0  0  0  0
    2.8469   -2.0369    0.0000 H   0  0  0  0  0  0  0  0  0  0  0  0
    2.0000    0.1900    0.0000 H   0  0  0  0  0  0  0  0  0  0  0  0
    6.3110   -0.0369    0.0000 H   0  0  0  0  0  0  0  0  0  0  0  0
    6.5380    0.8100    0.0000 H   0  0  0  0  0  0  0  0  0  0  0  0
    5.6910    1.0369    0.0000 H   0  0  0  0  0  0  0  0  0  0  0  0
  1  3  1  0  0  0  0
  1  8  1  0  0  0  0
  2  7  2  0  0  0  0
  3  4  1  0  0  0  0
  3  9  1  0  0  0  0
  3 10  1  0  0  0  0
  4  5  2  0  0  0  0
  4  7  1  0  0  0  0
  5  6  1  0  0  0  0
  5 11  1  0  0  0  0
  6 12  1  0  0  0  0
  6 13  1  0  0  0  0
  6 14  1  0  0  0  0
  7 15  1  0  0  0  0
  8 16  1  0  0  0  0
  8 17  1  0  0  0  0
  8 18  1  0  0  0  0
M  END
>  <PUBCHEM_COMPOUND_CID>
57501028

>  <PUBCHEM_COMPOUND_CANONICALIZED>
1

>  <PUBCHEM_CACTVS_COMPLEXITY>
96.7

>  <PUBCHEM_CACTVS_HBOND_ACCEPTOR>
2

>  <PUBCHEM_CACTVS_HBOND_DONOR>
0

>  <PUBCHEM_CACTVS_ROTATABLE_BOND>
3

>  <PUBCHEM_CACTVS_SUBSKEYS>
AAADccBgIABAAAAAAAAAAAAAAAAAAAAAAAAAAAAAAAAAAAAAAAAAGgQAAAAADACkwAKCAAAAAAiIAihSgAAAAAAAABAACAEAAEAAAAAgAQAAAAAAAAAAAYAAAAAAAAAAAAAAAAAAAAAAAAAAAAAAAAAAAA==

>  <PUBCHEM_IUPAC_OPENEYE_NAME>
(E)-2-(methylsulfanylmethyl)but-2-enal

>  <PUBCHEM_IUPAC_CAS_NAME>
(E)-2-[(methylthio)methyl]-2-butenal

>  <PUBCHEM_IUPAC_NAME>
(E)-2-(methylsulfanylmethyl)but-2-enal

>  <PUBCHEM_IUPAC_SYSTEMATIC_NAME>
(E)-2-(methylsulfanylmethyl)but-2-enal

>  <PUBCHEM_IUPAC_TRADITIONAL_NAME>
(E)-2-[(methylthio)methyl]but-2-enal

>  <PUBCHEM_IUPAC_INCHI>
InChI=1S/C6H10OS/c1-3-6(4-7)5-8-2/h3-4H,5H2,1-2H3/b6-3+

>  <PUBCHEM_IUPAC_INCHIKEY>
IBSLHWQWKUNIJE-ZZXKWVIFSA-N

>  <PUBCHEM_XLOGP3_AA>
1

>  <PUBCHEM_EXACT_MASS>
130.045

>  <PUBCHEM_MOLECULAR_FORMULA>
C6H10OS

>  <PUBCHEM_MOLECULAR_WEIGHT>
130.205

>  <PUBCHEM_OPENEYE_CAN_SMILES>
CC=C(CSC)C=O

>  <PUBCHEM_OPENEYE_ISO_SMILES>
C/C=C(/CSC)\C=O

>  <PUBCHEM_CACTVS_TPSA>
42.4

>  <PUBCHEM_MONOISOTOPIC_WEIGHT>
130.045

>  <PUBCHEM_TOTAL_CHARGE>
0

>  <PUBCHEM_HEAVY_ATOM_COUNT>
8

>  <PUBCHEM_ATOM_DEF_STEREO_COUNT>
0

>  <PUBCHEM_ATOM_UDEF_STEREO_COUNT>
0

>  <PUBCHEM_BOND_DEF_STEREO_COUNT>
1

>  <PUBCHEM_BOND_UDEF_STEREO_COUNT>
0

>  <PUBCHEM_ISOTOPIC_ATOM_COUNT>
0

>  <PUBCHEM_COMPONENT_COUNT>
1

>  <PUBCHEM_CACTVS_TAUTO_COUNT>
1

>  <PUBCHEM_COORDINATE_TYPE>
1
5
255

$$$$
