5791138
 OpenBabel06101807152D

 20 20  0  0  0  0  0  0  0  0999 V2000
    2.8660   -2.4050    0.0000 O   0  0  0  0  0  0  0  0  0  0  0  0
    2.8660    0.5950    0.0000 C   0  0  0  0  0  0  0  0  0  0  0  0
    2.0000    0.0950    0.0000 C   0  0  0  0  0  0  0  0  0  0  0  0
    3.7320    0.0950    0.0000 C   0  0  0  0  0  0  0  0  0  0  0  0
    2.8660    1.5950    0.0000 C   0  0  0  0  0  0  0  0  0  0  0  0
    2.0000   -0.9050    0.0000 C   0  0  0  0  0  0  0  0  0  0  0  0
    3.7320   -0.9050    0.0000 C   0  0  0  0  0  0  0  0  0  0  0  0
    2.8660   -1.4050    0.0000 C   0  0  0  0  0  0  0  0  0  0  0  0
    3.7320    2.0950    0.0000 C   0  0  0  0  0  0  0  0  0  0  0  0
    4.5981    1.5950    0.0000 C   0  0  0  0  0  0  0  0  0  0  0  0
    1.4631    0.4050    0.0000 H   0  0  0  0  0  0  0  0  0  0  0  0
    4.2690    0.4050    0.0000 H   0  0  0  0  0  0  0  0  0  0  0  0
    2.3291    1.9050    0.0000 H   0  0  0  0  0  0  0  0  0  0  0  0
    1.4631   -1.2150    0.0000 H   0  0  0  0  0  0  0  0  0  0  0  0
    4.2690   -1.2150    0.0000 H   0  0  0  0  0  0  0  0  0  0  0  0
    3.7320    2.7150    0.0000 H   0  0  0  0  0  0  0  0  0  0  0  0
    4.2881    1.0581    0.0000 H   0  0  0  0  0  0  0  0  0  0  0  0
    5.1350    1.2850    0.0000 H   0  0  0  0  0  0  0  0  0  0  0  0
    4.9081    2.1319    0.0000 H   0  0  0  0  0  0  0  0  0  0  0  0
    2.3291   -2.7150    0.0000 H   0  0  0  0  0  0  0  0  0  0  0  0
  1  8  1  0  0  0  0
  1 20  1  0  0  0  0
  2  3  2  0  0  0  0
  2  4  1  0  0  0  0
  2  5  1  0  0  0  0
  3  6  1  0  0  0  0
  3 11  1  0  0  0  0
  4  7  2  0  0  0  0
  4 12  1  0  0  0  0
  5  9  2  0  0  0  0
  5 13  1  0  0  0  0
  6  8  2  0  0  0  0
  6 14  1  0  0  0  0
  7  8  1  0  0  0  0
  7 15  1  0  0  0  0
  9 10  1  0  0  0  0
  9 16  1  0  0  0  0
 10 17  1  0  0  0  0
 10 18  1  0  0  0  0
 10 19  1  0  0  0  0
M  END
>  <PUBCHEM_COMPOUND_CID>
5791138

>  <PUBCHEM_COMPOUND_CANONICALIZED>
1

>  <PUBCHEM_CACTVS_COMPLEXITY>
110

>  <PUBCHEM_CACTVS_HBOND_ACCEPTOR>
1

>  <PUBCHEM_CACTVS_HBOND_DONOR>
1

>  <PUBCHEM_CACTVS_ROTATABLE_BOND>
1

>  <PUBCHEM_CACTVS_SUBSKEYS>
AAADccBwIAAAAAAAAAAAAAAAAAAAAAAAAAAwAAAAAAAAAAABAAAAGgAACAAADASAmAAyBoAAAgCAAiBCAAACAAAgIAAIiAAGCIgIJiKCERKAcAAkwBEImAeAwAAOIAAAAAAAAABAAAAAAAAAAAAAAAAAAA==

>  <PUBCHEM_IUPAC_OPENEYE_NAME>
4-[(Z)-prop-1-enyl]phenol

>  <PUBCHEM_IUPAC_CAS_NAME>
4-[(Z)-prop-1-enyl]phenol

>  <PUBCHEM_IUPAC_NAME>
4-[(Z)-prop-1-enyl]phenol

>  <PUBCHEM_IUPAC_SYSTEMATIC_NAME>
4-[(Z)-prop-1-enyl]phenol

>  <PUBCHEM_IUPAC_TRADITIONAL_NAME>
4-[(Z)-prop-1-enyl]phenol

>  <PUBCHEM_IUPAC_INCHI>
InChI=1S/C9H10O/c1-2-3-8-4-6-9(10)7-5-8/h2-7,10H,1H3/b3-2-

>  <PUBCHEM_IUPAC_INCHIKEY>
UMFCIIBZHQXRCJ-IHWYPQMZSA-N

>  <PUBCHEM_XLOGP3>
2.6

>  <PUBCHEM_EXACT_MASS>
134.073

>  <PUBCHEM_MOLECULAR_FORMULA>
C9H10O

>  <PUBCHEM_MOLECULAR_WEIGHT>
134.178

>  <PUBCHEM_OPENEYE_CAN_SMILES>
CC=CC1=CC=C(C=C1)O

>  <PUBCHEM_OPENEYE_ISO_SMILES>
C/C=C\C1=CC=C(C=C1)O

>  <PUBCHEM_CACTVS_TPSA>
20.2

>  <PUBCHEM_MONOISOTOPIC_WEIGHT>
134.073

>  <PUBCHEM_TOTAL_CHARGE>
0

>  <PUBCHEM_HEAVY_ATOM_COUNT>
10

>  <PUBCHEM_ATOM_DEF_STEREO_COUNT>
0

>  <PUBCHEM_ATOM_UDEF_STEREO_COUNT>
0

>  <PUBCHEM_BOND_DEF_STEREO_COUNT>
1

>  <PUBCHEM_BOND_UDEF_STEREO_COUNT>
0

>  <PUBCHEM_ISOTOPIC_ATOM_COUNT>
0

>  <PUBCHEM_COMPONENT_COUNT>
1

>  <PUBCHEM_CACTVS_TAUTO_COUNT>
3

>  <PUBCHEM_COORDINATE_TYPE>
1
5
255

>  <PUBCHEM_BONDANNOTATIONS>
2  3  8
2  4  8
3  6  8
4  7  8
6  8  8
7  8  8

$$$$
