58047283
 OpenBabel06101807152D

 23 24  0  0  1  0  0  0  0  0999 V2000
    5.5443   -1.1824    0.0000 O   0  0  0  0  0  0  0  0  0  0  0  0
    5.5443    0.4271    0.0000 C   0  0  3  0  0  0  0  0  0  0  0  0
    4.5981    0.1224    0.0000 C   0  0  0  0  0  0  0  0  0  0  0  0
    6.1279   -0.3776    0.0000 C   0  0  0  0  0  0  0  0  0  0  0  0
    4.5981   -0.8776    0.0000 C   0  0  0  0  0  0  0  0  0  0  0  0
    5.8550    1.3776    0.0000 C   0  0  0  0  0  0  0  0  0  0  0  0
    3.7320    0.6224    0.0000 C   0  0  0  0  0  0  0  0  0  0  0  0
    3.7320   -1.3776    0.0000 C   0  0  0  0  0  0  0  0  0  0  0  0
    2.8660   -0.8776    0.0000 C   0  0  0  0  0  0  0  0  0  0  0  0
    2.8660    0.1224    0.0000 C   0  0  0  0  0  0  0  0  0  0  0  0
    2.0000   -1.3776    0.0000 C   0  0  0  0  0  0  0  0  0  0  0  0
    5.1068    0.8665    0.0000 H   0  0  0  0  0  0  0  0  0  0  0  0
    6.5888   -0.7924    0.0000 H   0  0  0  0  0  0  0  0  0  0  0  0
    6.5888    0.0371    0.0000 H   0  0  0  0  0  0  0  0  0  0  0  0
    6.4443    1.1850    0.0000 H   0  0  0  0  0  0  0  0  0  0  0  0
    6.0476    1.9670    0.0000 H   0  0  0  0  0  0  0  0  0  0  0  0
    5.2656    1.5702    0.0000 H   0  0  0  0  0  0  0  0  0  0  0  0
    3.7320    1.2424    0.0000 H   0  0  0  0  0  0  0  0  0  0  0  0
    3.7320   -1.9976    0.0000 H   0  0  0  0  0  0  0  0  0  0  0  0
    2.3291    0.4324    0.0000 H   0  0  0  0  0  0  0  0  0  0  0  0
    1.6900   -0.8407    0.0000 H   0  0  0  0  0  0  0  0  0  0  0  0
    1.4631   -1.6876    0.0000 H   0  0  0  0  0  0  0  0  0  0  0  0
    2.3100   -1.9146    0.0000 H   0  0  0  0  0  0  0  0  0  0  0  0
  1  4  1  0  0  0  0
  1  5  1  0  0  0  0
  2  3  1  0  0  0  0
  2  4  1  0  0  0  0
  2  6  1  0  0  0  0
  2 12  1  0  0  0  0
  3  5  2  0  0  0  0
  3  7  1  0  0  0  0
  4 13  1  0  0  0  0
  4 14  1  0  0  0  0
  5  8  1  0  0  0  0
  6 15  1  0  0  0  0
  6 16  1  0  0  0  0
  6 17  1  0  0  0  0
  7 10  2  0  0  0  0
  7 18  1  0  0  0  0
  8  9  2  0  0  0  0
  8 19  1  0  0  0  0
  9 10  1  0  0  0  0
  9 11  1  0  0  0  0
 10 20  1  0  0  0  0
 11 21  1  0  0  0  0
 11 22  1  0  0  0  0
 11 23  1  0  0  0  0
M  END
>  <PUBCHEM_COMPOUND_CID>
58047283

>  <PUBCHEM_COMPOUND_CANONICALIZED>
1

>  <PUBCHEM_CACTVS_COMPLEXITY>
144

>  <PUBCHEM_CACTVS_HBOND_ACCEPTOR>
1

>  <PUBCHEM_CACTVS_HBOND_DONOR>
0

>  <PUBCHEM_CACTVS_ROTATABLE_BOND>
0

>  <PUBCHEM_CACTVS_SUBSKEYS>
AAADccBwIAAAAAAAAAAAAAAAAAAAASAAAAAwAAAAAAAAAEgBAAAAGgAAAAAADQSgmAIyBoAABACAAiBCAAACCAAgIAAIiAAGCIgMJiKEMRqCOCCkwBEIqAeAwPAOwAABAAAIAACAAAIAABAAAAAAAAAAAA==

>  <PUBCHEM_IUPAC_OPENEYE_NAME>
3,6-dimethyl-2,3-dihydrobenzofuran

>  <PUBCHEM_IUPAC_CAS_NAME>
3,6-dimethyl-2,3-dihydrobenzofuran

>  <PUBCHEM_IUPAC_NAME>
3,6-dimethyl-2,3-dihydro-1-benzofuran

>  <PUBCHEM_IUPAC_SYSTEMATIC_NAME>
3,6-dimethyl-2,3-dihydro-1-benzofuran

>  <PUBCHEM_IUPAC_TRADITIONAL_NAME>
3,6-dimethylcoumaran

>  <PUBCHEM_IUPAC_INCHI>
InChI=1S/C10H12O/c1-7-3-4-9-8(2)6-11-10(9)5-7/h3-5,8H,6H2,1-2H3

>  <PUBCHEM_IUPAC_INCHIKEY>
NUGFZCHRZRZHLK-UHFFFAOYSA-N

>  <PUBCHEM_XLOGP3_AA>
2.6

>  <PUBCHEM_EXACT_MASS>
148.089

>  <PUBCHEM_MOLECULAR_FORMULA>
C10H12O

>  <PUBCHEM_MOLECULAR_WEIGHT>
148.205

>  <PUBCHEM_OPENEYE_CAN_SMILES>
CC1COC2=C1C=CC(=C2)C

>  <PUBCHEM_OPENEYE_ISO_SMILES>
CC1COC2=C1C=CC(=C2)C

>  <PUBCHEM_CACTVS_TPSA>
9.2

>  <PUBCHEM_MONOISOTOPIC_WEIGHT>
148.089

>  <PUBCHEM_TOTAL_CHARGE>
0

>  <PUBCHEM_HEAVY_ATOM_COUNT>
11

>  <PUBCHEM_ATOM_DEF_STEREO_COUNT>
0

>  <PUBCHEM_ATOM_UDEF_STEREO_COUNT>
1

>  <PUBCHEM_BOND_DEF_STEREO_COUNT>
0

>  <PUBCHEM_BOND_UDEF_STEREO_COUNT>
0

>  <PUBCHEM_ISOTOPIC_ATOM_COUNT>
0

>  <PUBCHEM_COMPONENT_COUNT>
1

>  <PUBCHEM_CACTVS_TAUTO_COUNT>
1

>  <PUBCHEM_COORDINATE_TYPE>
1
5
255

>  <PUBCHEM_BONDANNOTATIONS>
2  6  3
3  5  8
3  7  8
5  8  8
7  10  8
8  9  8
9  10  8

$$$$
