58114415
 OpenBabel06101807152D

 41 43  0  0  1  0  0  0  0  0999 V2000
    5.1350   -0.6296    0.0000 O   0  0  0  0  0  0  0  0  0  0  0  0
    6.8671   -0.6296    0.0000 O   0  0  0  0  0  0  0  0  0  0  0  0
    5.1350   -3.6296    0.0000 O   0  0  0  0  0  0  0  0  0  0  0  0
    3.4030   -2.6296    0.0000 O   0  0  0  0  0  0  0  0  0  0  0  0
    6.8671   -2.6296    0.0000 O   0  0  0  0  0  0  0  0  0  0  0  0
    2.5369   -1.1296    0.0000 O   0  0  0  0  0  0  0  0  0  0  0  0
    7.7331    0.8704    0.0000 O   0  0  0  0  0  0  0  0  0  0  0  0
    5.1350    0.3704    0.0000 O   0  0  0  0  0  0  0  0  0  0  0  0
    5.1350    2.3704    0.0000 O   0  0  0  0  0  0  0  0  0  0  0  0
    6.0010    1.8704    0.0000 N   0  0  0  0  0  0  0  0  0  0  0  0
    5.1350   -2.6296    0.0000 C   0  0  3  0  0  0  0  0  0  0  0  0
    4.2690   -2.1296    0.0000 C   0  0  3  0  0  0  0  0  0  0  0  0
    6.0010   -2.1296    0.0000 C   0  0  3  0  0  0  0  0  0  0  0  0
    4.2690   -1.1296    0.0000 C   0  0  3  0  0  0  0  0  0  0  0  0
    6.0010   -1.1296    0.0000 C   0  0  3  0  0  0  0  0  0  0  0  0
    3.4030   -0.6296    0.0000 C   0  0  0  0  0  0  0  0  0  0  0  0
    6.8671    0.3704    0.0000 C   0  0  3  0  0  0  0  0  0  0  0  0
    6.0010    0.8704    0.0000 C   0  0  0  0  0  0  0  0  0  0  0  0
    7.7331    1.8704    0.0000 C   0  0  0  0  0  0  0  0  0  0  0  0
    6.8671    2.3704    0.0000 C   0  0  0  0  0  0  0  0  0  0  0  0
    8.6431    2.3772    0.0000 C   0  0  0  0  0  0  0  0  0  0  0  0
    6.8510    3.4119    0.0000 C   0  0  0  0  0  0  0  0  0  0  0  0
    8.6511    3.4188    0.0000 C   0  0  0  0  0  0  0  0  0  0  0  0
    7.7490    3.9396    0.0000 C   0  0  0  0  0  0  0  0  0  0  0  0
    5.6720   -2.9396    0.0000 H   0  0  0  0  0  0  0  0  0  0  0  0
    4.2690   -2.7496    0.0000 H   0  0  0  0  0  0  0  0  0  0  0  0
    6.5380   -1.8196    0.0000 H   0  0  0  0  0  0  0  0  0  0  0  0
    4.2690   -0.5096    0.0000 H   0  0  0  0  0  0  0  0  0  0  0  0
    6.0010   -0.5096    0.0000 H   0  0  0  0  0  0  0  0  0  0  0  0
    3.8015   -0.1547    0.0000 H   0  0  0  0  0  0  0  0  0  0  0  0
    3.0044   -0.1547    0.0000 H   0  0  0  0  0  0  0  0  0  0  0  0
    6.3301    0.0604    0.0000 H   0  0  0  0  0  0  0  0  0  0  0  0
    4.5981   -3.9396    0.0000 H   0  0  0  0  0  0  0  0  0  0  0  0
    3.4030   -3.2496    0.0000 H   0  0  0  0  0  0  0  0  0  0  0  0
    6.8671   -3.2496    0.0000 H   0  0  0  0  0  0  0  0  0  0  0  0
    2.0000   -0.8196    0.0000 H   0  0  0  0  0  0  0  0  0  0  0  0
    9.1764    2.0610    0.0000 H   0  0  0  0  0  0  0  0  0  0  0  0
    6.3105    3.7156    0.0000 H   0  0  0  0  0  0  0  0  0  0  0  0
    9.1892    3.7267    0.0000 H   0  0  0  0  0  0  0  0  0  0  0  0
    7.7466    4.5596    0.0000 H   0  0  0  0  0  0  0  0  0  0  0  0
    5.1350    2.9904    0.0000 H   0  0  0  0  0  0  0  0  0  0  0  0
  1 14  1  0  0  0  0
  1 15  1  0  0  0  0
  2 15  1  0  0  0  0
  2 17  1  0  0  0  0
  3 11  1  0  0  0  0
  3 33  1  0  0  0  0
  4 12  1  0  0  0  0
  4 34  1  0  0  0  0
  5 13  1  0  0  0  0
  5 35  1  0  0  0  0
  6 16  1  0  0  0  0
  6 36  1  0  0  0  0
  7 17  1  0  0  0  0
  7 19  1  0  0  0  0
  8 18  2  0  0  0  0
  9 10  1  0  0  0  0
  9 41  1  0  0  0  0
 10 18  1  0  0  0  0
 10 20  1  0  0  0  0
 11 12  1  0  0  0  0
 11 13  1  0  0  0  0
 11 25  1  0  0  0  0
 12 14  1  0  0  0  0
 12 26  1  0  0  0  0
 13 15  1  0  0  0  0
 13 27  1  0  0  0  0
 14 16  1  0  0  0  0
 14 28  1  0  0  0  0
 15 29  1  0  0  0  0
 16 30  1  0  0  0  0
 16 31  1  0  0  0  0
 17 18  1  0  0  0  0
 17 32  1  0  0  0  0
 19 20  1  0  0  0  0
 19 21  2  0  0  0  0
 20 22  2  0  0  0  0
 21 23  1  0  0  0  0
 21 37  1  0  0  0  0
 22 24  1  0  0  0  0
 22 38  1  0  0  0  0
 23 24  2  0  0  0  0
 23 39  1  0  0  0  0
 24 40  1  0  0  0  0
M  END
>  <PUBCHEM_COMPOUND_CID>
58114415

>  <PUBCHEM_COMPOUND_CANONICALIZED>
1

>  <PUBCHEM_CACTVS_COMPLEXITY>
464

>  <PUBCHEM_CACTVS_HBOND_ACCEPTOR>
9

>  <PUBCHEM_CACTVS_HBOND_DONOR>
5

>  <PUBCHEM_CACTVS_ROTATABLE_BOND>
3

>  <PUBCHEM_CACTVS_SUBSKEYS>
AAADceByPAAAAAAAAAAAAAAAAAAAAAAAAAA8SIAAAAAAAACxAAAAHgAECAAACByxkAMwzoIQBgCIACVSUAKCCAAhIgAoiABHbIgfNiLEsZ+neCjlxBHf6AfQYAwAAAAAAAAAEAAAAAAAAAAgAAAAAAAAAA==

>  <PUBCHEM_IUPAC_OPENEYE_NAME>
4-hydroxy-2-[3,4,5-trihydroxy-6-(hydroxymethyl)tetrahydropyran-2-yl]oxy-1,4-benzoxazin-3-one

>  <PUBCHEM_IUPAC_CAS_NAME>
4-hydroxy-2-[[3,4,5-trihydroxy-6-(hydroxymethyl)-2-oxanyl]oxy]-1,4-benzoxazin-3-one

>  <PUBCHEM_IUPAC_NAME>
4-hydroxy-2-[3,4,5-trihydroxy-6-(hydroxymethyl)oxan-2-yl]oxy-1,4-benzoxazin-3-one

>  <PUBCHEM_IUPAC_SYSTEMATIC_NAME>
2-[6-(hydroxymethyl)-3,4,5-tris(oxidanyl)oxan-2-yl]oxy-4-oxidanyl-1,4-benzoxazin-3-one

>  <PUBCHEM_IUPAC_TRADITIONAL_NAME>
4-hydroxy-2-(3,4,5-trihydroxy-6-methylol-tetrahydropyran-2-yl)oxy-1,4-benzoxazin-3-one

>  <PUBCHEM_IUPAC_INCHI>
InChI=1S/C14H17NO9/c16-5-8-9(17)10(18)11(19)13(23-8)24-14-12(20)15(21)6-3-1-2-4-7(6)22-14/h1-4,8-11,13-14,16-19,21H,5H2

>  <PUBCHEM_IUPAC_INCHIKEY>
OUSLYTBGQGKTME-UHFFFAOYSA-N

>  <PUBCHEM_XLOGP3_AA>
-1.6

>  <PUBCHEM_EXACT_MASS>
343.09

>  <PUBCHEM_MOLECULAR_FORMULA>
C14H17NO9

>  <PUBCHEM_MOLECULAR_WEIGHT>
343.288

>  <PUBCHEM_OPENEYE_CAN_SMILES>
C1=CC=C2C(=C1)N(C(=O)C(O2)OC3C(C(C(C(O3)CO)O)O)O)O

>  <PUBCHEM_OPENEYE_ISO_SMILES>
C1=CC=C2C(=C1)N(C(=O)C(O2)OC3C(C(C(C(O3)CO)O)O)O)O

>  <PUBCHEM_CACTVS_TPSA>
149

>  <PUBCHEM_MONOISOTOPIC_WEIGHT>
343.09

>  <PUBCHEM_TOTAL_CHARGE>
0

>  <PUBCHEM_HEAVY_ATOM_COUNT>
24

>  <PUBCHEM_ATOM_DEF_STEREO_COUNT>
0

>  <PUBCHEM_ATOM_UDEF_STEREO_COUNT>
6

>  <PUBCHEM_BOND_DEF_STEREO_COUNT>
0

>  <PUBCHEM_BOND_UDEF_STEREO_COUNT>
0

>  <PUBCHEM_ISOTOPIC_ATOM_COUNT>
0

>  <PUBCHEM_COMPONENT_COUNT>
1

>  <PUBCHEM_CACTVS_TAUTO_COUNT>
2

>  <PUBCHEM_COORDINATE_TYPE>
1
5
255

>  <PUBCHEM_BONDANNOTATIONS>
14  16  3
19  20  8
19  21  8
15  2  3
17  2  3
20  22  8
21  23  8
22  24  8
23  24  8
11  3  3
12  4  3
13  5  3

$$$$
