5843505
 OpenBabel06101807152D

 56 60  0  0  1  0  0  0  0  0999 V2000
    3.6636    0.9135    0.0000 O   0  0  0  0  0  0  0  0  0  0  0  0
    6.6412   -1.0681    0.0000 O   0  0  0  0  0  0  0  0  0  0  0  0
    8.0248    0.0459    0.0000 O   0  0  0  0  0  0  0  0  0  0  0  0
    2.0000    0.2749    0.0000 O   0  0  0  0  0  0  0  0  0  0  0  0
    4.5772    0.5068    0.0000 C   0  0  3  0  0  0  0  0  0  0  0  0
    5.4432    0.0068    0.0000 C   0  0  3  0  0  0  0  0  0  0  0  0
    4.5772    1.5068    0.0000 C   0  0  3  0  0  0  0  0  0  0  0  0
    5.4432    2.0068    0.0000 C   0  0  3  0  0  0  0  0  0  0  0  0
    5.0432    0.6068    0.0000 C   0  0  0  0  0  0  0  0  0  0  0  0
    5.0432    1.4068    0.0000 C   0  0  0  0  0  0  0  0  0  0  0  0
    6.3092    0.5068    0.0000 C   0  0  0  0  0  0  0  0  0  0  0  0
    4.4727   -0.4877    0.0000 C   0  0  0  0  0  0  0  0  0  0  0  0
    6.3092    1.5068    0.0000 C   0  0  0  0  0  0  0  0  0  0  0  0
    3.7112    2.0068    0.0000 C   0  0  0  0  0  0  0  0  0  0  0  0
    5.6524   -0.9650    0.0000 C   0  0  0  0  0  0  0  0  0  0  0  0
    3.4945   -0.6957    0.0000 C   0  0  0  0  0  0  0  0  0  0  0  0
    7.0463   -0.1603    0.0000 C   0  0  0  0  0  0  0  0  0  0  0  0
    5.1815   -1.2510    0.0000 C   0  0  0  0  0  0  0  0  0  0  0  0
    2.9945    0.1704    0.0000 C   0  0  0  0  0  0  0  0  0  0  0  0
    3.7112    3.0068    0.0000 C   0  0  0  0  0  0  0  0  0  0  0  0
    4.9846   -1.7093    0.0000 C   0  0  0  0  0  0  0  0  0  0  0  0
    4.8673   -2.2441    0.0000 C   0  0  0  0  0  0  0  0  0  0  0  0
    3.1574   -1.6812    0.0000 C   0  0  0  0  0  0  0  0  0  0  0  0
    3.8484   -2.4607    0.0000 C   0  0  0  0  0  0  0  0  0  0  0  0
    2.8452    3.5068    0.0000 C   0  0  0  0  0  0  0  0  0  0  0  0
    5.4556   -2.5915    0.0000 C   0  0  0  0  0  0  0  0  0  0  0  0
    6.4550   -2.6246    0.0000 C   0  0  0  0  0  0  0  0  0  0  0  0
    6.9260   -3.5068    0.0000 C   0  0  0  0  0  0  0  0  0  0  0  0
    4.5772    2.3568    0.0000 H   0  0  0  0  0  0  0  0  0  0  0  0
    5.4432    2.8568    0.0000 H   0  0  0  0  0  0  0  0  0  0  0  0
    4.4562    0.8063    0.0000 H   0  0  0  0  0  0  0  0  0  0  0  0
    5.6366    0.7864    0.0000 H   0  0  0  0  0  0  0  0  0  0  0  0
    4.6654    1.8984    0.0000 H   0  0  0  0  0  0  0  0  0  0  0  0
    5.6366    1.2271    0.0000 H   0  0  0  0  0  0  0  0  0  0  0  0
    6.8462    1.8168    0.0000 H   0  0  0  0  0  0  0  0  0  0  0  0
    3.1006    2.1144    0.0000 H   0  0  0  0  0  0  0  0  0  0  0  0
    3.4991    1.4242    0.0000 H   0  0  0  0  0  0  0  0  0  0  0  0
    5.7319   -1.5364    0.0000 H   0  0  0  0  0  0  0  0  0  0  0  0
    5.5569   -0.7576    0.0000 H   0  0  0  0  0  0  0  0  0  0  0  0
    4.3218    2.8991    0.0000 H   0  0  0  0  0  0  0  0  0  0  0  0
    3.9232    3.5894    0.0000 H   0  0  0  0  0  0  0  0  0  0  0  0
    4.3779   -1.5815    0.0000 H   0  0  0  0  0  0  0  0  0  0  0  0
    4.8905   -2.8637    0.0000 H   0  0  0  0  0  0  0  0  0  0  0  0
    5.4817   -2.3272    0.0000 H   0  0  0  0  0  0  0  0  0  0  0  0
    2.5495   -1.8031    0.0000 H   0  0  0  0  0  0  0  0  0  0  0  0
    3.6545   -3.0496    0.0000 H   0  0  0  0  0  0  0  0  0  0  0  0
    3.1552    4.0437    0.0000 H   0  0  0  0  0  0  0  0  0  0  0  0
    2.3082    3.8168    0.0000 H   0  0  0  0  0  0  0  0  0  0  0  0
    2.5351    2.9698    0.0000 H   0  0  0  0  0  0  0  0  0  0  0  0
    4.8663   -2.7841    0.0000 H   0  0  0  0  0  0  0  0  0  0  0  0
    5.5429   -3.2053    0.0000 H   0  0  0  0  0  0  0  0  0  0  0  0
    7.0444   -2.4320    0.0000 H   0  0  0  0  0  0  0  0  0  0  0  0
    6.3677   -2.0108    0.0000 H   0  0  0  0  0  0  0  0  0  0  0  0
    6.3791   -3.7988    0.0000 H   0  0  0  0  0  0  0  0  0  0  0  0
    7.2180   -4.0537    0.0000 H   0  0  0  0  0  0  0  0  0  0  0  0
    7.4730   -3.2148    0.0000 H   0  0  0  0  0  0  0  0  0  0  0  0
  1  5  1  0  0  0  0
  1 19  1  0  0  0  0
  2 15  1  0  0  0  0
  2 17  1  0  0  0  0
  3 17  2  0  0  0  0
  4 19  2  0  0  0  0
  5  6  1  0  0  0  0
  5  7  1  0  0  0  0
  5 12  1  0  0  0  0
  6  9  1  0  0  0  0
  6 11  1  0  0  0  0
  6 15  1  0  0  0  0
  7  8  1  0  0  0  0
  7 14  1  0  0  0  0
  7 29  1  0  0  0  0
  8 10  1  0  0  0  0
  8 13  1  0  0  0  0
  8 30  1  0  0  0  0
  9 10  1  0  0  0  0
  9 31  1  0  0  0  0
  9 32  1  0  0  0  0
 10 33  1  0  0  0  0
 10 34  1  0  0  0  0
 11 13  2  0  0  0  0
 11 17  1  0  0  0  0
 12 16  2  0  0  0  0
 12 18  1  0  0  0  0
 13 35  1  0  0  0  0
 14 20  1  0  0  0  0
 14 36  1  0  0  0  0
 14 37  1  0  0  0  0
 15 21  2  0  0  0  0
 16 19  1  0  0  0  0
 16 23  1  0  0  0  0
 18 22  1  0  0  0  0
 18 38  1  0  0  0  0
 18 39  1  0  0  0  0
 20 25  1  0  0  0  0
 20 40  1  0  0  0  0
 20 41  1  0  0  0  0
 21 26  1  0  0  0  0
 21 42  1  0  0  0  0
 22 24  1  0  0  0  0
 22 43  1  0  0  0  0
 22 44  1  0  0  0  0
 23 24  2  0  0  0  0
 23 45  1  0  0  0  0
 24 46  1  0  0  0  0
 25 47  1  0  0  0  0
 25 48  1  0  0  0  0
 25 49  1  0  0  0  0
 26 27  1  0  0  0  0
 26 50  1  0  0  0  0
 26 51  1  0  0  0  0
 27 28  1  0  0  0  0
 27 52  1  0  0  0  0
 27 53  1  0  0  0  0
 28 54  1  0  0  0  0
 28 55  1  0  0  0  0
 28 56  1  0  0  0  0
M  END
>  <PUBCHEM_COMPOUND_CID>
5843505

>  <PUBCHEM_COMPOUND_CANONICALIZED>
1

>  <PUBCHEM_CACTVS_COMPLEXITY>
873

>  <PUBCHEM_CACTVS_HBOND_ACCEPTOR>
4

>  <PUBCHEM_CACTVS_HBOND_DONOR>
0

>  <PUBCHEM_CACTVS_ROTATABLE_BOND>
4

>  <PUBCHEM_CACTVS_SUBSKEYS>
AAADceB4OAAAAAAAAAAAAAAAAAAAASIAAAAwQIEAAAAAAEAAAAAAGgAAAAAAD0SAgAACCAAABACIAiDSCAAACAAgIAAICAEAAEgIBBIAIQACEAAFwAAIoYPKyPCPgAAAAAAAAACAAAYAADAAAAAAAAAAAA==

>  <PUBCHEM_IUPAC_INCHI>
InChI=1S/C24H28O4/c1-3-5-11-20-23-13-12-15(14-19(23)22(26)27-20)17(8-4-2)24(23)18-10-7-6-9-16(18)21(25)28-24/h6,9,11,14-15,17H,3-5,7-8,10,12-13H2,1-2H3/b20-11-

>  <PUBCHEM_IUPAC_INCHIKEY>
DZMFTLLDUYBHLI-JAIQZWGSSA-N

>  <PUBCHEM_XLOGP3_AA>
4.8

>  <PUBCHEM_EXACT_MASS>
380.199

>  <PUBCHEM_MOLECULAR_FORMULA>
C24H28O4

>  <PUBCHEM_MOLECULAR_WEIGHT>
380.484

>  <PUBCHEM_OPENEYE_CAN_SMILES>
CCCC=C1C23CCC(C=C2C(=O)O1)C(C34C5=C(C=CCC5)C(=O)O4)CCC

>  <PUBCHEM_OPENEYE_ISO_SMILES>
CCC/C=C\1/C23CCC(C=C2C(=O)O1)C(C34C5=C(C=CCC5)C(=O)O4)CCC

>  <PUBCHEM_CACTVS_TPSA>
52.6

>  <PUBCHEM_MONOISOTOPIC_WEIGHT>
380.199

>  <PUBCHEM_TOTAL_CHARGE>
0

>  <PUBCHEM_HEAVY_ATOM_COUNT>
28

>  <PUBCHEM_ATOM_DEF_STEREO_COUNT>
0

>  <PUBCHEM_ATOM_UDEF_STEREO_COUNT>
4

>  <PUBCHEM_BOND_DEF_STEREO_COUNT>
1

>  <PUBCHEM_BOND_UDEF_STEREO_COUNT>
0

>  <PUBCHEM_ISOTOPIC_ATOM_COUNT>
0

>  <PUBCHEM_COMPONENT_COUNT>
1

>  <PUBCHEM_CACTVS_TAUTO_COUNT>
1

>  <PUBCHEM_COORDINATE_TYPE>
1
5
255

>  <PUBCHEM_BONDANNOTATIONS>
5  1  3
6  9  3
7  29  3
8  30  3

$$$$
