58897707
 OpenBabel06101807152D

 83 86  0  0  1  0  0  0  0  0999 V2000
    5.2710   -3.7737    0.0000 O   0  0  0  0  0  0  0  0  0  0  0  0
    2.5357   -3.2776    0.0000 O   0  0  0  0  0  0  0  0  0  0  0  0
    7.9288   -0.2252    0.0000 C   0  0  3  0  0  0  0  0  0  0  0  0
    7.9288   -1.2252    0.0000 C   0  0  3  0  0  0  0  0  0  0  0  0
    7.0628   -1.7252    0.0000 C   0  0  3  0  0  0  0  0  0  0  0  0
    6.1968   -1.2252    0.0000 C   0  0  3  0  0  0  0  0  0  0  0  0
    5.2868   -1.7321    0.0000 C   0  0  3  0  0  0  0  0  0  0  0  0
    8.8750    0.0795    0.0000 C   0  0  3  0  0  0  0  0  0  0  0  0
    5.2787   -2.7737    0.0000 C   0  0  3  0  0  0  0  0  0  0  0  0
    7.0628    0.2748    0.0000 C   0  0  0  0  0  0  0  0  0  0  0  0
    6.1968   -0.2252    0.0000 C   0  0  0  0  0  0  0  0  0  0  0  0
    8.8750   -1.5300    0.0000 C   0  0  0  0  0  0  0  0  0  0  0  0
    7.0789   -2.7668    0.0000 C   0  0  0  0  0  0  0  0  0  0  0  0
    9.4586   -0.7252    0.0000 C   0  0  0  0  0  0  0  0  0  0  0  0
    6.1808   -3.2945    0.0000 C   0  0  0  0  0  0  0  0  0  0  0  0
    4.3599   -1.1680    0.0000 C   0  0  0  0  0  0  0  0  0  0  0  0
    7.9288    0.7748    0.0000 C   0  0  0  0  0  0  0  0  0  0  0  0
    9.1857    1.0300    0.0000 C   0  0  3  0  0  0  0  0  0  0  0  0
    4.3433   -3.3234    0.0000 C   0  0  0  0  0  0  0  0  0  0  0  0
    5.2945   -0.7321    0.0000 C   0  0  0  0  0  0  0  0  0  0  0  0
    3.4120   -1.6960    0.0000 C   0  0  0  0  0  0  0  0  0  0  0  0
    3.4037   -2.7809    0.0000 C   0  0  3  0  0  0  0  0  0  0  0  0
   10.1642    1.2362    0.0000 C   0  0  0  0  0  0  0  0  0  0  0  0
    8.5179    1.7743    0.0000 C   0  0  0  0  0  0  0  0  0  0  0  0
   10.4749    2.1868    0.0000 C   0  0  0  0  0  0  0  0  0  0  0  0
   11.4534    2.3930    0.0000 C   0  0  3  0  0  0  0  0  0  0  0  0
   11.7640    3.3435    0.0000 C   0  0  0  0  0  0  0  0  0  0  0  0
   12.1212    1.6487    0.0000 C   0  0  0  0  0  0  0  0  0  0  0  0
   12.7425    3.5497    0.0000 C   0  0  0  0  0  0  0  0  0  0  0  0
   11.0962    4.0878    0.0000 C   0  0  0  0  0  0  0  0  0  0  0  0
   13.0997    1.8549    0.0000 C   0  0  0  0  0  0  0  0  0  0  0  0
    7.9944   -1.8418    0.0000 H   0  0  0  0  0  0  0  0  0  0  0  0
    7.6021   -2.0311    0.0000 H   0  0  0  0  0  0  0  0  0  0  0  0
    6.7337   -0.9152    0.0000 H   0  0  0  0  0  0  0  0  0  0  0  0
    9.4875    0.1757    0.0000 H   0  0  0  0  0  0  0  0  0  0  0  0
    7.4613    0.7497    0.0000 H   0  0  0  0  0  0  0  0  0  0  0  0
    6.6643    0.7497    0.0000 H   0  0  0  0  0  0  0  0  0  0  0  0
    5.9847    0.3574    0.0000 H   0  0  0  0  0  0  0  0  0  0  0  0
    5.5862   -0.3329    0.0000 H   0  0  0  0  0  0  0  0  0  0  0  0
    8.6240   -2.0969    0.0000 H   0  0  0  0  0  0  0  0  0  0  0  0
    9.4124   -1.8392    0.0000 H   0  0  0  0  0  0  0  0  0  0  0  0
    7.2969   -3.3472    0.0000 H   0  0  0  0  0  0  0  0  0  0  0  0
    7.6880   -2.6512    0.0000 H   0  0  0  0  0  0  0  0  0  0  0  0
    9.9195   -1.1400    0.0000 H   0  0  0  0  0  0  0  0  0  0  0  0
    9.9195   -0.3105    0.0000 H   0  0  0  0  0  0  0  0  0  0  0  0
    5.7835   -3.7705    0.0000 H   0  0  0  0  0  0  0  0  0  0  0  0
    6.5818   -3.7674    0.0000 H   0  0  0  0  0  0  0  0  0  0  0  0
    4.7681   -0.7014    0.0000 H   0  0  0  0  0  0  0  0  0  0  0  0
    3.9700   -0.6860    0.0000 H   0  0  0  0  0  0  0  0  0  0  0  0
    8.5488    0.7748    0.0000 H   0  0  0  0  0  0  0  0  0  0  0  0
    7.9288    1.3948    0.0000 H   0  0  0  0  0  0  0  0  0  0  0  0
    7.3088    0.7748    0.0000 H   0  0  0  0  0  0  0  0  0  0  0  0
    9.3783    1.6193    0.0000 H   0  0  0  0  0  0  0  0  0  0  0  0
    3.9460   -3.7994    0.0000 H   0  0  0  0  0  0  0  0  0  0  0  0
    4.7443   -3.7963    0.0000 H   0  0  0  0  0  0  0  0  0  0  0  0
    5.9145   -0.7369    0.0000 H   0  0  0  0  0  0  0  0  0  0  0  0
    5.2993   -0.1121    0.0000 H   0  0  0  0  0  0  0  0  0  0  0  0
    4.6745   -0.7273    0.0000 H   0  0  0  0  0  0  0  0  0  0  0  0
    3.2075   -1.1107    0.0000 H   0  0  0  0  0  0  0  0  0  0  0  0
    2.8004   -1.7973    0.0000 H   0  0  0  0  0  0  0  0  0  0  0  0
    3.4025   -3.4009    0.0000 H   0  0  0  0  0  0  0  0  0  0  0  0
    5.8056   -4.0878    0.0000 H   0  0  0  0  0  0  0  0  0  0  0  0
   10.1848    0.6166    0.0000 H   0  0  0  0  0  0  0  0  0  0  0  0
   10.7780    1.1489    0.0000 H   0  0  0  0  0  0  0  0  0  0  0  0
    8.9793    2.1884    0.0000 H   0  0  0  0  0  0  0  0  0  0  0  0
    8.1038    2.2358    0.0000 H   0  0  0  0  0  0  0  0  0  0  0  0
    8.0564    1.3602    0.0000 H   0  0  0  0  0  0  0  0  0  0  0  0
   10.4543    2.8064    0.0000 H   0  0  0  0  0  0  0  0  0  0  0  0
    9.8611    2.2741    0.0000 H   0  0  0  0  0  0  0  0  0  0  0  0
    2.0000   -2.9655    0.0000 H   0  0  0  0  0  0  0  0  0  0  0  0
   12.0601    2.5208    0.0000 H   0  0  0  0  0  0  0  0  0  0  0  0
   11.9567    3.9328    0.0000 H   0  0  0  0  0  0  0  0  0  0  0  0
   11.5949    1.3210    0.0000 H   0  0  0  0  0  0  0  0  0  0  0  0
   12.3525    1.0734    0.0000 H   0  0  0  0  0  0  0  0  0  0  0  0
   12.8704    2.9430    0.0000 H   0  0  0  0  0  0  0  0  0  0  0  0
   13.3492    3.6776    0.0000 H   0  0  0  0  0  0  0  0  0  0  0  0
   12.6147    4.1564    0.0000 H   0  0  0  0  0  0  0  0  0  0  0  0
   11.5577    4.5018    0.0000 H   0  0  0  0  0  0  0  0  0  0  0  0
   10.6821    4.5493    0.0000 H   0  0  0  0  0  0  0  0  0  0  0  0
   10.6347    3.6737    0.0000 H   0  0  0  0  0  0  0  0  0  0  0  0
   13.2276    1.2482    0.0000 H   0  0  0  0  0  0  0  0  0  0  0  0
   13.7064    1.9827    0.0000 H   0  0  0  0  0  0  0  0  0  0  0  0
   12.9719    2.4616    0.0000 H   0  0  0  0  0  0  0  0  0  0  0  0
  1  9  1  0  0  0  0
  1 62  1  0  0  0  0
  2 22  1  0  0  0  0
  2 70  1  0  0  0  0
  3  4  1  0  0  0  0
  3  8  1  0  0  0  0
  3 10  1  0  0  0  0
  3 17  1  0  0  0  0
  4  5  1  0  0  0  0
  4 12  1  0  0  0  0
  4 32  1  0  0  0  0
  5  6  1  0  0  0  0
  5 13  1  0  0  0  0
  5 33  1  0  0  0  0
  6  7  1  0  0  0  0
  6 11  1  0  0  0  0
  6 34  1  0  0  0  0
  7  9  1  0  0  0  0
  7 16  1  0  0  0  0
  7 20  1  0  0  0  0
  8 14  1  0  0  0  0
  8 18  1  0  0  0  0
  8 35  1  0  0  0  0
  9 15  1  0  0  0  0
  9 19  1  0  0  0  0
 10 11  1  0  0  0  0
 10 36  1  0  0  0  0
 10 37  1  0  0  0  0
 11 38  1  0  0  0  0
 11 39  1  0  0  0  0
 12 14  1  0  0  0  0
 12 40  1  0  0  0  0
 12 41  1  0  0  0  0
 13 15  1  0  0  0  0
 13 42  1  0  0  0  0
 13 43  1  0  0  0  0
 14 44  1  0  0  0  0
 14 45  1  0  0  0  0
 15 46  1  0  0  0  0
 15 47  1  0  0  0  0
 16 21  1  0  0  0  0
 16 48  1  0  0  0  0
 16 49  1  0  0  0  0
 17 50  1  0  0  0  0
 17 51  1  0  0  0  0
 17 52  1  0  0  0  0
 18 23  1  0  0  0  0
 18 24  1  0  0  0  0
 18 53  1  0  0  0  0
 19 22  1  0  0  0  0
 19 54  1  0  0  0  0
 19 55  1  0  0  0  0
 20 56  1  0  0  0  0
 20 57  1  0  0  0  0
 20 58  1  0  0  0  0
 21 22  1  0  0  0  0
 21 59  1  0  0  0  0
 21 60  1  0  0  0  0
 22 61  1  0  0  0  0
 23 25  1  0  0  0  0
 23 63  1  0  0  0  0
 23 64  1  0  0  0  0
 24 65  1  0  0  0  0
 24 66  1  0  0  0  0
 24 67  1  0  0  0  0
 25 26  1  0  0  0  0
 25 68  1  0  0  0  0
 25 69  1  0  0  0  0
 26 27  1  0  0  0  0
 26 28  1  0  0  0  0
 26 71  1  0  0  0  0
 27 29  1  0  0  0  0
 27 30  1  0  0  0  0
 27 72  1  0  0  0  0
 28 31  1  0  0  0  0
 28 73  1  0  0  0  0
 28 74  1  0  0  0  0
 29 75  1  0  0  0  0
 29 76  1  0  0  0  0
 29 77  1  0  0  0  0
 30 78  1  0  0  0  0
 30 79  1  0  0  0  0
 30 80  1  0  0  0  0
 31 81  1  0  0  0  0
 31 82  1  0  0  0  0
 31 83  1  0  0  0  0
M  END
>  <PUBCHEM_COMPOUND_CID>
58897707

>  <PUBCHEM_COMPOUND_CANONICALIZED>
1

>  <PUBCHEM_CACTVS_COMPLEXITY>
630

>  <PUBCHEM_CACTVS_HBOND_ACCEPTOR>
2

>  <PUBCHEM_CACTVS_HBOND_DONOR>
2

>  <PUBCHEM_CACTVS_ROTATABLE_BOND>
6

>  <PUBCHEM_CACTVS_SUBSKEYS>
AAADcfB4MAAAAAAAAAAAAAAAAAAAAYAAAAAwYMAAAAAAAGDAAAAAGgAACAAAD1SggAICAAAAAgAAAAAAAAAAAAAAAAAAAAAAAAAAEAIAAAAAQAAFAAAAAAGA4PQPgAAAAAAAAADAAAYQADAAAQAACAAAAA==

>  <PUBCHEM_IUPAC_OPENEYE_NAME>
17-(4-ethyl-1,5-dimethyl-hexyl)-10,13-dimethyl-1,2,3,4,6,7,8,9,11,12,14,15,16,17-tetradecahydrocyclopenta[a]phenanthrene-3,5-diol

>  <PUBCHEM_IUPAC_CAS_NAME>
17-(5-ethyl-6-methylheptan-2-yl)-10,13-dimethyl-1,2,3,4,6,7,8,9,11,12,14,15,16,17-tetradecahydrocyclopenta[a]phenanthrene-3,5-diol

>  <PUBCHEM_IUPAC_NAME>
17-(5-ethyl-6-methylheptan-2-yl)-10,13-dimethyl-1,2,3,4,6,7,8,9,11,12,14,15,16,17-tetradecahydrocyclopenta[a]phenanthrene-3,5-diol

>  <PUBCHEM_IUPAC_SYSTEMATIC_NAME>
17-(5-ethyl-6-methyl-heptan-2-yl)-10,13-dimethyl-1,2,3,4,6,7,8,9,11,12,14,15,16,17-tetradecahydrocyclopenta[a]phenanthrene-3,5-diol

>  <PUBCHEM_IUPAC_TRADITIONAL_NAME>
17-(4-ethyl-1,5-dimethyl-hexyl)-10,13-dimethyl-1,2,3,4,6,7,8,9,11,12,14,15,16,17-tetradecahydrocyclopenta[a]phenanthrene-3,5-diol

>  <PUBCHEM_IUPAC_INCHI>
InChI=1S/C29H52O2/c1-7-21(19(2)3)9-8-20(4)24-10-11-25-23-13-17-29(31)18-22(30)12-16-28(29,6)26(23)14-15-27(24,25)5/h19-26,30-31H,7-18H2,1-6H3

>  <PUBCHEM_IUPAC_INCHIKEY>
MJZYBROJFJAPOE-UHFFFAOYSA-N

>  <PUBCHEM_XLOGP3_AA>
8.7

>  <PUBCHEM_EXACT_MASS>
432.397

>  <PUBCHEM_MOLECULAR_FORMULA>
C29H52O2

>  <PUBCHEM_MOLECULAR_WEIGHT>
432.733

>  <PUBCHEM_OPENEYE_CAN_SMILES>
CCC(CCC(C)C1CCC2C1(CCC3C2CCC4(C3(CCC(C4)O)C)O)C)C(C)C

>  <PUBCHEM_OPENEYE_ISO_SMILES>
CCC(CCC(C)C1CCC2C1(CCC3C2CCC4(C3(CCC(C4)O)C)O)C)C(C)C

>  <PUBCHEM_CACTVS_TPSA>
40.5

>  <PUBCHEM_MONOISOTOPIC_WEIGHT>
432.397

>  <PUBCHEM_TOTAL_CHARGE>
0

>  <PUBCHEM_HEAVY_ATOM_COUNT>
31

>  <PUBCHEM_ATOM_DEF_STEREO_COUNT>
0

>  <PUBCHEM_ATOM_UDEF_STEREO_COUNT>
10

>  <PUBCHEM_BOND_DEF_STEREO_COUNT>
0

>  <PUBCHEM_BOND_UDEF_STEREO_COUNT>
0

>  <PUBCHEM_ISOTOPIC_ATOM_COUNT>
0

>  <PUBCHEM_COMPONENT_COUNT>
1

>  <PUBCHEM_CACTVS_TAUTO_COUNT>
1

>  <PUBCHEM_COORDINATE_TYPE>
1
5
255

>  <PUBCHEM_BONDANNOTATIONS>
9  1  3
18  24  3
22  2  3
26  25  3
3  17  3
4  12  3
5  13  3
6  11  3
7  20  3
8  14  3

$$$$
