5901827
 OpenBabel06101807152D

105109  0  0  1  0  0  0  0  0999 V2000
   11.2957    4.6679    0.0000 O   0  0  0  0  0  0  0  0  0  0  0  0
   12.3739    3.6539    0.0000 O   0  0  0  0  0  0  0  0  0  0  0  0
    9.5407   -0.2530    0.0000 O   0  0  0  0  0  0  0  0  0  0  0  0
   13.4321    1.5062    0.0000 O   0  0  0  0  0  0  0  0  0  0  0  0
    6.8671   -1.8984    0.0000 O   0  0  0  0  0  0  0  0  0  0  0  0
    5.0597   -0.8456    0.0000 O   0  0  0  0  0  0  0  0  0  0  0  0
    5.1350   -1.8984    0.0000 O   0  0  0  0  0  0  0  0  0  0  0  0
   16.1377    4.4524    0.0000 O   0  0  0  0  0  0  0  0  0  0  0  0
    6.8671   -3.8984    0.0000 O   0  0  0  0  0  0  0  0  0  0  0  0
    5.1350   -4.8984    0.0000 O   0  0  0  0  0  0  0  0  0  0  0  0
    3.4030   -3.8984    0.0000 O   0  0  0  0  0  0  0  0  0  0  0  0
    2.5369   -2.3984    0.0000 O   0  0  0  0  0  0  0  0  0  0  0  0
   17.4134    3.2808    0.0000 O   0  0  0  0  0  0  0  0  0  0  0  0
    9.5754    2.7468    0.0000 C   0  0  3  0  0  0  0  0  0  0  0  0
   10.4356    2.2368    0.0000 C   0  0  3  0  0  0  0  0  0  0  0  0
    8.7037    2.2568    0.0000 C   0  0  3  0  0  0  0  0  0  0  0  0
   11.1803    2.8953    0.0000 C   0  0  3  0  0  0  0  0  0  0  0  0
    8.6921    1.2569    0.0000 C   0  0  3  0  0  0  0  0  0  0  0  0
    9.7959    3.7161    0.0000 C   0  0  0  0  0  0  0  0  0  0  0  0
   10.7857    3.8077    0.0000 C   0  0  3  0  0  0  0  0  0  0  0  0
   10.4241    1.2369    0.0000 C   0  0  0  0  0  0  0  0  0  0  0  0
    9.5523    0.7469    0.0000 C   0  0  0  0  0  0  0  0  0  0  0  0
    7.7920    0.7326    0.0000 C   0  0  3  0  0  0  0  0  0  0  0  0
    8.7152    3.2568    0.0000 C   0  0  0  0  0  0  0  0  0  0  0  0
    7.8160    2.8018    0.0000 C   0  0  0  0  0  0  0  0  0  0  0  0
   11.2958    1.7268    0.0000 C   0  0  0  0  0  0  0  0  0  0  0  0
   12.1564    2.6778    0.0000 C   0  0  3  0  0  0  0  0  0  0  0  0
    8.6806    0.2570    0.0000 C   0  0  0  0  0  0  0  0  0  0  0  0
    6.8920    1.2569    0.0000 C   0  0  0  0  0  0  0  0  0  0  0  0
    6.9040    2.2985    0.0000 C   0  0  0  0  0  0  0  0  0  0  0  0
    5.9421    0.7326    0.0000 C   0  0  0  0  0  0  0  0  0  0  0  0
    7.8046   -0.3523    0.0000 C   0  0  0  0  0  0  0  0  0  0  0  0
   11.9388    1.7018    0.0000 C   0  0  0  0  0  0  0  0  0  0  0  0
   13.1324    2.4603    0.0000 C   0  0  0  0  0  0  0  0  0  0  0  0
    6.8671   -0.8984    0.0000 C   0  0  0  0  0  0  0  0  0  0  0  0
    5.9295   -0.3523    0.0000 C   0  0  0  0  0  0  0  0  0  0  0  0
    4.9422    0.7480    0.0000 C   0  0  0  0  0  0  0  0  0  0  0  0
    5.4555    1.6062    0.0000 C   0  0  0  0  0  0  0  0  0  0  0  0
   13.8088    3.1968    0.0000 C   0  0  0  0  0  0  0  0  0  0  0  0
   14.7849    2.9793    0.0000 C   0  0  0  0  0  0  0  0  0  0  0  0
    6.0010   -2.3984    0.0000 C   0  0  3  0  0  0  0  0  0  0  0  0
   15.4613    3.7158    0.0000 C   0  0  0  0  0  0  0  0  0  0  0  0
    6.0010   -3.3984    0.0000 C   0  0  3  0  0  0  0  0  0  0  0  0
    5.1350   -3.8984    0.0000 C   0  0  3  0  0  0  0  0  0  0  0  0
    4.2690   -2.3984    0.0000 C   0  0  3  0  0  0  0  0  0  0  0  0
    4.2690   -3.3984    0.0000 C   0  0  3  0  0  0  0  0  0  0  0  0
   16.1978    3.0394    0.0000 C   0  0  0  0  0  0  0  0  0  0  0  0
   14.7247    4.3922    0.0000 C   0  0  0  0  0  0  0  0  0  0  0  0
    3.4030   -1.8984    0.0000 C   0  0  0  0  0  0  0  0  0  0  0  0
   17.1137    4.2348    0.0000 C   0  0  0  0  0  0  0  0  0  0  0  0
   17.7901    4.9714    0.0000 C   0  0  0  0  0  0  0  0  0  0  0  0
    9.2370    1.9407    0.0000 H   0  0  0  0  0  0  0  0  0  0  0  0
   11.5754    3.3731    0.0000 H   0  0  0  0  0  0  0  0  0  0  0  0
    9.8039    4.3361    0.0000 H   0  0  0  0  0  0  0  0  0  0  0  0
    9.1802    3.7893    0.0000 H   0  0  0  0  0  0  0  0  0  0  0  0
   10.4543    4.3317    0.0000 H   0  0  0  0  0  0  0  0  0  0  0  0
   10.6294    0.6519    0.0000 H   0  0  0  0  0  0  0  0  0  0  0  0
   11.0358    1.3375    0.0000 H   0  0  0  0  0  0  0  0  0  0  0  0
    8.3314    0.4268    0.0000 H   0  0  0  0  0  0  0  0  0  0  0  0
    9.0314    3.7901    0.0000 H   0  0  0  0  0  0  0  0  0  0  0  0
    8.1819    3.5730    0.0000 H   0  0  0  0  0  0  0  0  0  0  0  0
    8.3991    2.7235    0.0000 H   0  0  0  0  0  0  0  0  0  0  0  0
    8.2260    3.2669    0.0000 H   0  0  0  0  0  0  0  0  0  0  0  0
    7.4279    3.2854    0.0000 H   0  0  0  0  0  0  0  0  0  0  0  0
   10.9796    1.1935    0.0000 H   0  0  0  0  0  0  0  0  0  0  0  0
   11.8291    1.4106    0.0000 H   0  0  0  0  0  0  0  0  0  0  0  0
   11.6120    2.2602    0.0000 H   0  0  0  0  0  0  0  0  0  0  0  0
    8.0606    0.2641    0.0000 H   0  0  0  0  0  0  0  0  0  0  0  0
    8.6734   -0.3630    0.0000 H   0  0  0  0  0  0  0  0  0  0  0  0
    9.3005    0.2498    0.0000 H   0  0  0  0  0  0  0  0  0  0  0  0
    6.3719    2.6167    0.0000 H   0  0  0  0  0  0  0  0  0  0  0  0
    8.3439   -0.6582    0.0000 H   0  0  0  0  0  0  0  0  0  0  0  0
   10.9919    5.2084    0.0000 H   0  0  0  0  0  0  0  0  0  0  0  0
   11.3337    1.8366    0.0000 H   0  0  0  0  0  0  0  0  0  0  0  0
   11.8040    1.0966    0.0000 H   0  0  0  0  0  0  0  0  0  0  0  0
   12.5440    1.5669    0.0000 H   0  0  0  0  0  0  0  0  0  0  0  0
   12.9654    3.8396    0.0000 H   0  0  0  0  0  0  0  0  0  0  0  0
    5.9971    1.9079    0.0000 H   0  0  0  0  0  0  0  0  0  0  0  0
    5.1538    2.1479    0.0000 H   0  0  0  0  0  0  0  0  0  0  0  0
    4.9518    1.3680    0.0000 H   0  0  0  0  0  0  0  0  0  0  0  0
    4.3223    0.7576    0.0000 H   0  0  0  0  0  0  0  0  0  0  0  0
    4.9138    1.3046    0.0000 H   0  0  0  0  0  0  0  0  0  0  0  0
    4.9326    0.1281    0.0000 H   0  0  0  0  0  0  0  0  0  0  0  0
   13.6230    3.7883    0.0000 H   0  0  0  0  0  0  0  0  0  0  0  0
   14.9707    2.3878    0.0000 H   0  0  0  0  0  0  0  0  0  0  0  0
    6.0010   -1.7784    0.0000 H   0  0  0  0  0  0  0  0  0  0  0  0
    6.0010   -4.0184    0.0000 H   0  0  0  0  0  0  0  0  0  0  0  0
    4.5981   -4.2084    0.0000 H   0  0  0  0  0  0  0  0  0  0  0  0
    4.2690   -1.7784    0.0000 H   0  0  0  0  0  0  0  0  0  0  0  0
    3.7320   -3.0884    0.0000 H   0  0  0  0  0  0  0  0  0  0  0  0
   15.7784    2.5828    0.0000 H   0  0  0  0  0  0  0  0  0  0  0  0
   16.6545    2.6201    0.0000 H   0  0  0  0  0  0  0  0  0  0  0  0
   15.1441    4.8489    0.0000 H   0  0  0  0  0  0  0  0  0  0  0  0
   14.2681    4.8116    0.0000 H   0  0  0  0  0  0  0  0  0  0  0  0
   14.3054    3.9356    0.0000 H   0  0  0  0  0  0  0  0  0  0  0  0
   16.6172    3.4961    0.0000 H   0  0  0  0  0  0  0  0  0  0  0  0
    6.8671   -4.5184    0.0000 H   0  0  0  0  0  0  0  0  0  0  0  0
    3.8015   -1.4235    0.0000 H   0  0  0  0  0  0  0  0  0  0  0  0
    3.0044   -1.4235    0.0000 H   0  0  0  0  0  0  0  0  0  0  0  0
    4.5981   -5.2084    0.0000 H   0  0  0  0  0  0  0  0  0  0  0  0
    3.4030   -4.5184    0.0000 H   0  0  0  0  0  0  0  0  0  0  0  0
    2.0000   -2.0884    0.0000 H   0  0  0  0  0  0  0  0  0  0  0  0
   18.2468    4.5520    0.0000 H   0  0  0  0  0  0  0  0  0  0  0  0
   18.2095    5.4280    0.0000 H   0  0  0  0  0  0  0  0  0  0  0  0
   17.3335    5.3907    0.0000 H   0  0  0  0  0  0  0  0  0  0  0  0
  1 20  1  0  0  0  0
  1 73  1  0  0  0  0
  2 27  1  0  0  0  0
  2 77  1  0  0  0  0
  3 22  2  0  0  0  0
  4 34  2  0  0  0  0
  5 35  1  0  0  0  0
  5 41  1  0  0  0  0
  6 36  2  0  0  0  0
  7 41  1  0  0  0  0
  7 45  1  0  0  0  0
  8 42  1  0  0  0  0
  8 50  1  0  0  0  0
  9 43  1  0  0  0  0
  9 97  1  0  0  0  0
 10 44  1  0  0  0  0
 10100  1  0  0  0  0
 11 46  1  0  0  0  0
 11101  1  0  0  0  0
 12 49  1  0  0  0  0
 12102  1  0  0  0  0
 13 50  2  0  0  0  0
 14 15  1  0  0  0  0
 14 16  1  0  0  0  0
 14 19  1  0  0  0  0
 14 24  1  0  0  0  0
 15 17  1  0  0  0  0
 15 21  1  0  0  0  0
 15 26  1  0  0  0  0
 16 18  1  0  0  0  0
 16 25  1  0  0  0  0
 16 52  1  0  0  0  0
 17 20  1  0  0  0  0
 17 27  1  0  0  0  0
 17 53  1  0  0  0  0
 18 22  1  0  0  0  0
 18 23  1  0  0  0  0
 18 28  1  0  0  0  0
 19 20  1  0  0  0  0
 19 54  1  0  0  0  0
 19 55  1  0  0  0  0
 20 56  1  0  0  0  0
 21 22  1  0  0  0  0
 21 57  1  0  0  0  0
 21 58  1  0  0  0  0
 23 29  1  0  0  0  0
 23 32  1  0  0  0  0
 23 59  1  0  0  0  0
 24 60  1  0  0  0  0
 24 61  1  0  0  0  0
 24 62  1  0  0  0  0
 25 30  1  0  0  0  0
 25 63  1  0  0  0  0
 25 64  1  0  0  0  0
 26 65  1  0  0  0  0
 26 66  1  0  0  0  0
 26 67  1  0  0  0  0
 27 33  1  0  0  0  0
 27 34  1  0  0  0  0
 28 68  1  0  0  0  0
 28 69  1  0  0  0  0
 28 70  1  0  0  0  0
 29 30  2  0  0  0  0
 29 31  1  0  0  0  0
 30 71  1  0  0  0  0
 31 36  1  0  0  0  0
 31 37  1  0  0  0  0
 31 38  1  0  0  0  0
 32 35  2  0  0  0  0
 32 72  1  0  0  0  0
 33 74  1  0  0  0  0
 33 75  1  0  0  0  0
 33 76  1  0  0  0  0
 34 39  1  0  0  0  0
 35 36  1  0  0  0  0
 37 80  1  0  0  0  0
 37 81  1  0  0  0  0
 37 83  1  0  0  0  0
 38 78  1  0  0  0  0
 38 79  1  0  0  0  0
 38 82  1  0  0  0  0
 39 40  2  0  0  0  0
 39 84  1  0  0  0  0
 40 42  1  0  0  0  0
 40 85  1  0  0  0  0
 41 43  1  0  0  0  0
 41 86  1  0  0  0  0
 42 47  1  0  0  0  0
 42 48  1  0  0  0  0
 43 44  1  0  0  0  0
 43 87  1  0  0  0  0
 44 46  1  0  0  0  0
 44 88  1  0  0  0  0
 45 46  1  0  0  0  0
 45 49  1  0  0  0  0
 45 89  1  0  0  0  0
 46 90  1  0  0  0  0
 47 91  1  0  0  0  0
 47 92  1  0  0  0  0
 47 96  1  0  0  0  0
 48 93  1  0  0  0  0
 48 94  1  0  0  0  0
 48 95  1  0  0  0  0
 49 98  1  0  0  0  0
 49 99  1  0  0  0  0
 50 51  1  0  0  0  0
 51103  1  0  0  0  0
 51104  1  0  0  0  0
 51105  1  0  0  0  0
M  END
>  <PUBCHEM_COMPOUND_CID>
5901827

>  <PUBCHEM_COMPOUND_CANONICALIZED>
1

>  <PUBCHEM_CACTVS_COMPLEXITY>
1580

>  <PUBCHEM_CACTVS_HBOND_ACCEPTOR>
13

>  <PUBCHEM_CACTVS_HBOND_DONOR>
6

>  <PUBCHEM_CACTVS_ROTATABLE_BOND>
9

>  <PUBCHEM_CACTVS_SUBSKEYS>
AAADcfB8PAAAAAAAAAAAAAAAAAAAAYAAAAA0QIEAAAAAAGCAAAAAGgAACAAAD1SwgAMCCAAABgCIAqDSCAIACAAgIAAICAFAAEgRFBIAIQQiUAAFwAAPIYPK7PzPgAAAAAAAAACAAAQAACAAAYAADAAAAA==

>  <PUBCHEM_IUPAC_OPENEYE_NAME>
[(E)-5-hydroxy-5-[16-hydroxy-4,4,9,13,14-pentamethyl-3,11-dioxo-2-[3,4,5-trihydroxy-6-(hydroxymethyl)tetrahydropyran-2-yl]oxy-8,10,12,15,16,17-hexahydro-7H-cyclopenta[a]phenanthren-17-yl]-1,1-dimethyl-4-oxo-hex-2-enyl] acetate

>  <PUBCHEM_IUPAC_CAS_NAME>
acetic acid [(E)-6-hydroxy-6-[16-hydroxy-4,4,9,13,14-pentamethyl-3,11-dioxo-2-[[3,4,5-trihydroxy-6-(hydroxymethyl)-2-oxanyl]oxy]-8,10,12,15,16,17-hexahydro-7H-cyclopenta[a]phenanthren-17-yl]-2-methyl-5-oxohept-3-en-2-yl] ester

>  <PUBCHEM_IUPAC_NAME>
[(E)-6-hydroxy-6-[16-hydroxy-4,4,9,13,14-pentamethyl-3,11-dioxo-2-[3,4,5-trihydroxy-6-(hydroxymethyl)oxan-2-yl]oxy-8,10,12,15,16,17-hexahydro-7H-cyclopenta[a]phenanthren-17-yl]-2-methyl-5-oxohept-3-en-2-yl] acetate

>  <PUBCHEM_IUPAC_SYSTEMATIC_NAME>
[(E)-6-[2-[6-(hydroxymethyl)-3,4,5-tris(oxidanyl)oxan-2-yl]oxy-4,4,9,13,14-pentamethyl-16-oxidanyl-3,11-bis(oxidanylidene)-8,10,12,15,16,17-hexahydro-7H-cyclopenta[a]phenanthren-17-yl]-2-methyl-6-oxidanyl-5-oxidanylidene-hept-3-en-2-yl] ethanoate

>  <PUBCHEM_IUPAC_TRADITIONAL_NAME>
acetic acid [(E)-5-hydroxy-5-[16-hydroxy-3,11-diketo-4,4,9,13,14-pentamethyl-2-(3,4,5-trihydroxy-6-methylol-tetrahydropyran-2-yl)oxy-8,10,12,15,16,17-hexahydro-7H-cyclopenta[a]phenanthren-17-yl]-4-keto-1,1-dimethyl-hex-2-enyl] ester

>  <PUBCHEM_IUPAC_INCHI>
InChI=1S/C38H54O13/c1-18(40)51-33(2,3)13-12-25(42)38(9,48)30-21(41)15-35(6)24-11-10-19-20(37(24,8)26(43)16-36(30,35)7)14-22(31(47)34(19,4)5)49-32-29(46)28(45)27(44)23(17-39)50-32/h10,12-14,20-21,23-24,27-30,32,39,41,44-46,48H,11,15-17H2,1-9H3/b13-12+

>  <PUBCHEM_IUPAC_INCHIKEY>
QKEJRKXVLGOJMB-OUKQBFOZSA-N

>  <PUBCHEM_XLOGP3_AA>
1.4

>  <PUBCHEM_EXACT_MASS>
718.356

>  <PUBCHEM_MOLECULAR_FORMULA>
C38H54O13

>  <PUBCHEM_MOLECULAR_WEIGHT>
718.837

>  <PUBCHEM_OPENEYE_CAN_SMILES>
CC(=O)OC(C)(C)C=CC(=O)C(C)(C1C(CC2(C1(CC(=O)C3(C2CC=C4C3C=C(C(=O)C4(C)C)OC5C(C(C(C(O5)CO)O)O)O)C)C)C)O)O

>  <PUBCHEM_OPENEYE_ISO_SMILES>
CC(=O)OC(C)(C)/C=C/C(=O)C(C)(C1C(CC2(C1(CC(=O)C3(C2CC=C4C3C=C(C(=O)C4(C)C)OC5C(C(C(C(O5)CO)O)O)O)C)C)C)O)O

>  <PUBCHEM_CACTVS_TPSA>
217

>  <PUBCHEM_MONOISOTOPIC_WEIGHT>
718.356

>  <PUBCHEM_TOTAL_CHARGE>
0

>  <PUBCHEM_HEAVY_ATOM_COUNT>
51

>  <PUBCHEM_ATOM_DEF_STEREO_COUNT>
0

>  <PUBCHEM_ATOM_UDEF_STEREO_COUNT>
13

>  <PUBCHEM_BOND_DEF_STEREO_COUNT>
1

>  <PUBCHEM_BOND_UDEF_STEREO_COUNT>
0

>  <PUBCHEM_ISOTOPIC_ATOM_COUNT>
0

>  <PUBCHEM_COMPONENT_COUNT>
1

>  <PUBCHEM_CACTVS_TAUTO_COUNT>
8

>  <PUBCHEM_COORDINATE_TYPE>
1
5
255

>  <PUBCHEM_BONDANNOTATIONS>
20  1  3
44  10  3
46  11  3
14  24  3
15  26  3
16  25  3
17  27  3
18  28  3
27  2  3
23  32  3
45  49  3
41  5  3
43  9  3

$$$$
