591228
 OpenBabel06101807152D

 30 31  0  0  1  0  0  0  0  0999 V2000
    7.3479    1.0878    0.0000 O   0  0  0  0  0  0  0  0  0  0  0  0
    2.0000    0.0000    0.0000 O   0  0  0  0  0  0  0  0  0  0  0  0
    5.0000    0.0000    0.0000 C   0  0  3  0  0  0  0  0  0  0  0  0
    4.5000   -0.8660    0.0000 C   0  0  3  0  0  0  0  0  0  0  0  0
    5.5878   -0.8090    0.0000 C   0  0  0  0  0  0  0  0  0  0  0  0
    5.5878    0.8090    0.0000 C   0  0  0  0  0  0  0  0  0  0  0  0
    4.5000    0.8660    0.0000 C   0  0  0  0  0  0  0  0  0  0  0  0
    6.5388   -0.5000    0.0000 C   0  0  0  0  0  0  0  0  0  0  0  0
    3.5000   -0.8660    0.0000 C   0  0  0  0  0  0  0  0  0  0  0  0
    6.5388    0.5000    0.0000 C   0  0  0  0  0  0  0  0  0  0  0  0
    5.0000   -1.7320    0.0000 C   0  0  0  0  0  0  0  0  0  0  0  0
    3.5000    0.8660    0.0000 C   0  0  0  0  0  0  0  0  0  0  0  0
    3.0000    0.0000    0.0000 C   0  0  0  0  0  0  0  0  0  0  0  0
    5.0000    1.7320    0.0000 C   0  0  0  0  0  0  0  0  0  0  0  0
    4.1900   -1.4030    0.0000 H   0  0  0  0  0  0  0  0  0  0  0  0
    5.0508   -1.1190    0.0000 H   0  0  0  0  0  0  0  0  0  0  0  0
    5.8400   -1.3754    0.0000 H   0  0  0  0  0  0  0  0  0  0  0  0
    5.8400    1.3754    0.0000 H   0  0  0  0  0  0  0  0  0  0  0  0
    5.0508    1.1190    0.0000 H   0  0  0  0  0  0  0  0  0  0  0  0
    6.6678   -1.1064    0.0000 H   0  0  0  0  0  0  0  0  0  0  0  0
    7.1554   -0.4352    0.0000 H   0  0  0  0  0  0  0  0  0  0  0  0
    2.9174   -1.0781    0.0000 H   0  0  0  0  0  0  0  0  0  0  0  0
    3.6077   -1.4766    0.0000 H   0  0  0  0  0  0  0  0  0  0  0  0
    4.4631   -2.0420    0.0000 H   0  0  0  0  0  0  0  0  0  0  0  0
    5.3100   -2.2690    0.0000 H   0  0  0  0  0  0  0  0  0  0  0  0
    5.5369   -1.4220    0.0000 H   0  0  0  0  0  0  0  0  0  0  0  0
    3.1900    1.4030    0.0000 H   0  0  0  0  0  0  0  0  0  0  0  0
    5.5369    1.4220    0.0000 H   0  0  0  0  0  0  0  0  0  0  0  0
    5.3100    2.2690    0.0000 H   0  0  0  0  0  0  0  0  0  0  0  0
    4.4631    2.0420    0.0000 H   0  0  0  0  0  0  0  0  0  0  0  0
  1 10  2  0  0  0  0
  2 13  2  0  0  0  0
  3  4  1  0  0  0  0
  3  5  1  0  0  0  0
  3  6  1  0  0  0  0
  3  7  1  0  0  0  0
  4  9  1  0  0  0  0
  4 11  1  0  0  0  0
  4 15  1  0  0  0  0
  5  8  1  0  0  0  0
  5 16  1  0  0  0  0
  5 17  1  0  0  0  0
  6 10  1  0  0  0  0
  6 18  1  0  0  0  0
  6 19  1  0  0  0  0
  7 12  2  0  0  0  0
  7 14  1  0  0  0  0
  8 10  1  0  0  0  0
  8 20  1  0  0  0  0
  8 21  1  0  0  0  0
  9 13  1  0  0  0  0
  9 22  1  0  0  0  0
  9 23  1  0  0  0  0
 11 24  1  0  0  0  0
 11 25  1  0  0  0  0
 11 26  1  0  0  0  0
 12 13  1  0  0  0  0
 12 27  1  0  0  0  0
 14 28  1  0  0  0  0
 14 29  1  0  0  0  0
 14 30  1  0  0  0  0
M  END
>  <PUBCHEM_COMPOUND_CID>
591228

>  <PUBCHEM_COMPOUND_CANONICALIZED>
1

>  <PUBCHEM_CACTVS_COMPLEXITY>
327

>  <PUBCHEM_CACTVS_HBOND_ACCEPTOR>
2

>  <PUBCHEM_CACTVS_HBOND_DONOR>
0

>  <PUBCHEM_CACTVS_ROTATABLE_BOND>
0

>  <PUBCHEM_CACTVS_SUBSKEYS>
AAADceBwMAAAAAAAAAAAAAAAAAAAAYAAAAAgAAAAAAAAAAAAAAAAGgAAAAAADwSAgAACAAAAAACIAqBSAAAAAAAgAAAACAEAAEgAABIAAQAAAAAAgAAIAQMIiMCPgAAAAAAAAAAAAAAAAAAAAAAAAAAAAA==

>  <PUBCHEM_IUPAC_OPENEYE_NAME>
6,10-dimethylspiro[4.5]dec-9-ene-3,8-dione

>  <PUBCHEM_IUPAC_CAS_NAME>
6,10-dimethylspiro[4.5]dec-9-ene-3,8-dione

>  <PUBCHEM_IUPAC_NAME>
6,10-dimethylspiro[4.5]dec-9-ene-3,8-dione

>  <PUBCHEM_IUPAC_SYSTEMATIC_NAME>
6,10-dimethylspiro[4.5]dec-9-ene-3,8-dione

>  <PUBCHEM_IUPAC_TRADITIONAL_NAME>
6,10-dimethylspiro[4.5]dec-9-ene-3,8-quinone

>  <PUBCHEM_IUPAC_INCHI>
InChI=1S/C12H16O2/c1-8-5-11(14)6-9(2)12(8)4-3-10(13)7-12/h5,9H,3-4,6-7H2,1-2H3

>  <PUBCHEM_IUPAC_INCHIKEY>
OGDKSKNHHSXJNA-UHFFFAOYSA-N

>  <PUBCHEM_XLOGP3_AA>
0.9

>  <PUBCHEM_EXACT_MASS>
192.115

>  <PUBCHEM_MOLECULAR_FORMULA>
C12H16O2

>  <PUBCHEM_MOLECULAR_WEIGHT>
192.258

>  <PUBCHEM_OPENEYE_CAN_SMILES>
CC1CC(=O)C=C(C12CCC(=O)C2)C

>  <PUBCHEM_OPENEYE_ISO_SMILES>
CC1CC(=O)C=C(C12CCC(=O)C2)C

>  <PUBCHEM_CACTVS_TPSA>
34.1

>  <PUBCHEM_MONOISOTOPIC_WEIGHT>
192.115

>  <PUBCHEM_TOTAL_CHARGE>
0

>  <PUBCHEM_HEAVY_ATOM_COUNT>
14

>  <PUBCHEM_ATOM_DEF_STEREO_COUNT>
0

>  <PUBCHEM_ATOM_UDEF_STEREO_COUNT>
2

>  <PUBCHEM_BOND_DEF_STEREO_COUNT>
0

>  <PUBCHEM_BOND_UDEF_STEREO_COUNT>
0

>  <PUBCHEM_ISOTOPIC_ATOM_COUNT>
0

>  <PUBCHEM_COMPONENT_COUNT>
1

>  <PUBCHEM_CACTVS_TAUTO_COUNT>
15

>  <PUBCHEM_COORDINATE_TYPE>
1
5
255

>  <PUBCHEM_BONDANNOTATIONS>
3  4  3
4  11  3

$$$$
