591897
 OpenBabel06101807152D

 36 38  0  0  1  0  0  0  0  0999 V2000
    5.3781   -1.8627    0.0000 O   0  0  0  0  0  0  0  0  0  0  0  0
    8.2596    0.4190    0.0000 O   0  0  0  0  0  0  0  0  0  0  0  0
    2.3090   -2.5350    0.0000 O   0  0  0  0  0  0  0  0  0  0  0  0
    6.1871   -1.2749    0.0000 C   0  0  3  0  0  0  0  0  0  0  0  0
    5.8781   -0.3238    0.0000 C   0  0  0  0  0  0  0  0  0  0  0  0
    4.8781   -0.3238    0.0000 C   0  0  0  0  0  0  0  0  0  0  0  0
    4.5691   -1.2749    0.0000 C   0  0  3  0  0  0  0  0  0  0  0  0
    7.1382   -0.9659    0.0000 C   0  0  0  0  0  0  0  0  0  0  0  0
    6.7749   -2.0839    0.0000 C   0  0  0  0  0  0  0  0  0  0  0  0
    3.6180   -1.5839    0.0000 C   0  0  0  0  0  0  0  0  0  0  0  0
    7.3461    0.0123    0.0000 C   0  0  0  0  0  0  0  0  0  0  0  0
    2.8090   -0.9961    0.0000 C   0  0  0  0  0  0  0  0  0  0  0  0
    3.3090   -2.5350    0.0000 C   0  0  0  0  0  0  0  0  0  0  0  0
    6.6770    0.7554    0.0000 C   0  0  0  0  0  0  0  0  0  0  0  0
    7.1770    1.6214    0.0000 C   0  0  0  0  0  0  0  0  0  0  0  0
    2.0000   -1.5839    0.0000 C   0  0  0  0  0  0  0  0  0  0  0  0
    8.1551    1.4135    0.0000 C   0  0  0  0  0  0  0  0  0  0  0  0
    6.7702    2.5350    0.0000 C   0  0  0  0  0  0  0  0  0  0  0  0
    6.4846   -0.1949    0.0000 H   0  0  0  0  0  0  0  0  0  0  0  0
    5.8133    0.2928    0.0000 H   0  0  0  0  0  0  0  0  0  0  0  0
    4.9429    0.2928    0.0000 H   0  0  0  0  0  0  0  0  0  0  0  0
    4.2717   -0.1949    0.0000 H   0  0  0  0  0  0  0  0  0  0  0  0
    4.4361   -2.1144    0.0000 H   0  0  0  0  0  0  0  0  0  0  0  0
    7.2245   -1.5798    0.0000 H   0  0  0  0  0  0  0  0  0  0  0  0
    7.7578   -0.9875    0.0000 H   0  0  0  0  0  0  0  0  0  0  0  0
    6.2733   -2.4484    0.0000 H   0  0  0  0  0  0  0  0  0  0  0  0
    7.1393   -2.5855    0.0000 H   0  0  0  0  0  0  0  0  0  0  0  0
    7.2765   -1.7195    0.0000 H   0  0  0  0  0  0  0  0  0  0  0  0
    2.8090   -0.3761    0.0000 H   0  0  0  0  0  0  0  0  0  0  0  0
    3.6734   -3.0366    0.0000 H   0  0  0  0  0  0  0  0  0  0  0  0
    6.0604    0.6906    0.0000 H   0  0  0  0  0  0  0  0  0  0  0  0
    1.4103   -1.3923    0.0000 H   0  0  0  0  0  0  0  0  0  0  0  0
    8.6159    1.8284    0.0000 H   0  0  0  0  0  0  0  0  0  0  0  0
    7.3366    2.7872    0.0000 H   0  0  0  0  0  0  0  0  0  0  0  0
    6.5180    3.1014    0.0000 H   0  0  0  0  0  0  0  0  0  0  0  0
    6.2038    2.2828    0.0000 H   0  0  0  0  0  0  0  0  0  0  0  0
  1  4  1  0  0  0  0
  1  7  1  0  0  0  0
  2 11  1  0  0  0  0
  2 17  1  0  0  0  0
  3 13  1  0  0  0  0
  3 16  1  0  0  0  0
  4  5  1  0  0  0  0
  4  8  1  0  0  0  0
  4  9  1  0  0  0  0
  5  6  1  0  0  0  0
  5 19  1  0  0  0  0
  5 20  1  0  0  0  0
  6  7  1  0  0  0  0
  6 21  1  0  0  0  0
  6 22  1  0  0  0  0
  7 10  1  0  0  0  0
  7 23  1  0  0  0  0
  8 11  1  0  0  0  0
  8 24  1  0  0  0  0
  8 25  1  0  0  0  0
  9 26  1  0  0  0  0
  9 27  1  0  0  0  0
  9 28  1  0  0  0  0
 10 12  1  0  0  0  0
 10 13  2  0  0  0  0
 11 14  2  0  0  0  0
 12 16  2  0  0  0  0
 12 29  1  0  0  0  0
 13 30  1  0  0  0  0
 14 15  1  0  0  0  0
 14 31  1  0  0  0  0
 15 17  2  0  0  0  0
 15 18  1  0  0  0  0
 16 32  1  0  0  0  0
 17 33  1  0  0  0  0
 18 34  1  0  0  0  0
 18 35  1  0  0  0  0
 18 36  1  0  0  0  0
M  END
>  <PUBCHEM_COMPOUND_CID>
591897

>  <PUBCHEM_COMPOUND_CANONICALIZED>
1

>  <PUBCHEM_CACTVS_COMPLEXITY>
294

>  <PUBCHEM_CACTVS_HBOND_ACCEPTOR>
3

>  <PUBCHEM_CACTVS_HBOND_DONOR>
0

>  <PUBCHEM_CACTVS_ROTATABLE_BOND>
3

>  <PUBCHEM_CACTVS_SUBSKEYS>
AAADceBwMAAAAAAAAAAAAAAAAAAAASJEgAAAAAAAAAAAAAAB4AAAGgAAAAAADFSgmAIyBIAABECIAqhSgAACCAAkIAAIiAEGCMgMJzaENRqCGSCl4BEIqYfKyPCOAAAAAAAAAAAAAAAAAAAAAAAAAAAAAA==

>  <PUBCHEM_IUPAC_OPENEYE_NAME>
2-[[5-(3-furyl)-2-methyl-tetrahydrofuran-2-yl]methyl]-4-methyl-furan

>  <PUBCHEM_IUPAC_CAS_NAME>
2-[[5-(3-furanyl)-2-methyl-2-oxolanyl]methyl]-4-methylfuran

>  <PUBCHEM_IUPAC_NAME>
2-[[5-(furan-3-yl)-2-methyloxolan-2-yl]methyl]-4-methylfuran

>  <PUBCHEM_IUPAC_SYSTEMATIC_NAME>
2-[[5-(furan-3-yl)-2-methyl-oxolan-2-yl]methyl]-4-methyl-furan

>  <PUBCHEM_IUPAC_TRADITIONAL_NAME>
2-[[5-(3-furyl)-2-methyl-tetrahydrofuran-2-yl]methyl]-4-methyl-furan

>  <PUBCHEM_IUPAC_INCHI>
InChI=1S/C15H18O3/c1-11-7-13(17-9-11)8-15(2)5-3-14(18-15)12-4-6-16-10-12/h4,6-7,9-10,14H,3,5,8H2,1-2H3

>  <PUBCHEM_IUPAC_INCHIKEY>
LMSPQIDVRZANSJ-UHFFFAOYSA-N

>  <PUBCHEM_XLOGP3_AA>
2.8

>  <PUBCHEM_EXACT_MASS>
246.126

>  <PUBCHEM_MOLECULAR_FORMULA>
C15H18O3

>  <PUBCHEM_MOLECULAR_WEIGHT>
246.306

>  <PUBCHEM_OPENEYE_CAN_SMILES>
CC1=COC(=C1)CC2(CCC(O2)C3=COC=C3)C

>  <PUBCHEM_OPENEYE_ISO_SMILES>
CC1=COC(=C1)CC2(CCC(O2)C3=COC=C3)C

>  <PUBCHEM_CACTVS_TPSA>
35.5

>  <PUBCHEM_MONOISOTOPIC_WEIGHT>
246.126

>  <PUBCHEM_TOTAL_CHARGE>
0

>  <PUBCHEM_HEAVY_ATOM_COUNT>
18

>  <PUBCHEM_ATOM_DEF_STEREO_COUNT>
0

>  <PUBCHEM_ATOM_UDEF_STEREO_COUNT>
2

>  <PUBCHEM_BOND_DEF_STEREO_COUNT>
0

>  <PUBCHEM_BOND_UDEF_STEREO_COUNT>
0

>  <PUBCHEM_ISOTOPIC_ATOM_COUNT>
0

>  <PUBCHEM_COMPONENT_COUNT>
1

>  <PUBCHEM_CACTVS_TAUTO_COUNT>
1

>  <PUBCHEM_COORDINATE_TYPE>
1
5
255

>  <PUBCHEM_BONDANNOTATIONS>
10  12  8
10  13  8
11  14  8
12  16  8
14  15  8
15  17  8
2  11  8
2  17  8
3  13  8
3  16  8
4  9  3
7  23  3

$$$$
