59383825
 OpenBabel06101807152D

 69 73  0  0  1  0  0  0  0  0999 V2000
    8.4497   -1.6796    0.0000 O   0  0  0  0  0  0  0  0  0  0  0  0
    4.8811   -0.6850    0.0000 O   0  0  0  0  0  0  0  0  0  0  0  0
    5.8517   -2.1796    0.0000 O   0  0  0  0  0  0  0  0  0  0  0  0
    2.6598   -2.0123    0.0000 O   0  0  0  0  0  0  0  0  0  0  0  0
    3.8642   -3.0644    0.0000 O   0  0  0  0  0  0  0  0  0  0  0  0
    6.7177   -3.6796    0.0000 O   0  0  0  0  0  0  0  0  0  0  0  0
    8.4497   -4.6796    0.0000 O   0  0  0  0  0  0  0  0  0  0  0  0
   10.1818   -1.6796    0.0000 O   0  0  0  0  0  0  0  0  0  0  0  0
   10.1818   -3.6796    0.0000 O   0  0  0  0  0  0  0  0  0  0  0  0
    2.5369    0.1568    0.0000 O   0  0  0  0  0  0  0  0  0  0  0  0
   11.9378    1.3829    0.0000 O   0  0  0  0  0  0  0  0  0  0  0  0
    8.4356    1.3996    0.0000 O   0  0  0  0  0  0  0  0  0  0  0  0
    9.3455    2.8930    0.0000 O   0  0  0  0  0  0  0  0  0  0  0  0
   15.4057    2.3696    0.0000 O   0  0  0  0  0  0  0  0  0  0  0  0
   15.4134    4.3696    0.0000 O   0  0  0  0  0  0  0  0  0  0  0  0
    3.4030   -1.3432    0.0000 C   0  0  3  0  0  0  0  0  0  0  0  0
    7.5837   -2.1796    0.0000 C   0  0  3  0  0  0  0  0  0  0  0  0
    4.0721   -2.0863    0.0000 C   0  0  3  0  0  0  0  0  0  0  0  0
    7.5837   -3.1796    0.0000 C   0  0  3  0  0  0  0  0  0  0  0  0
    4.9856   -1.6796    0.0000 C   0  0  3  0  0  0  0  0  0  0  0  0
    8.4497   -3.6796    0.0000 C   0  0  3  0  0  0  0  0  0  0  0  0
    9.3158   -3.1796    0.0000 C   0  0  3  0  0  0  0  0  0  0  0  0
    3.9030   -0.4771    0.0000 C   0  0  0  0  0  0  0  0  0  0  0  0
    6.7177   -1.6796    0.0000 C   0  0  0  0  0  0  0  0  0  0  0  0
    9.3158   -2.1796    0.0000 C   0  0  3  0  0  0  0  0  0  0  0  0
    2.5369   -0.8432    0.0000 C   0  0  0  0  0  0  0  0  0  0  0  0
   10.1818   -0.6796    0.0000 C   0  0  0  0  0  0  0  0  0  0  0  0
   11.0819   -0.1553    0.0000 C   0  0  0  0  0  0  0  0  0  0  0  0
    9.2817   -0.1553    0.0000 C   0  0  0  0  0  0  0  0  0  0  0  0
   11.0698    0.8863    0.0000 C   0  0  0  0  0  0  0  0  0  0  0  0
    9.2938    0.8863    0.0000 C   0  0  0  0  0  0  0  0  0  0  0  0
   10.2057    1.3896    0.0000 C   0  0  0  0  0  0  0  0  0  0  0  0
   10.2096    2.3896    0.0000 C   0  0  0  0  0  0  0  0  0  0  0  0
   11.9416    2.3829    0.0000 C   0  0  0  0  0  0  0  0  0  0  0  0
   11.0775    2.8863    0.0000 C   0  0  0  0  0  0  0  0  0  0  0  0
   12.8096    2.8796    0.0000 C   0  0  0  0  0  0  0  0  0  0  0  0
   13.6736    2.3763    0.0000 C   0  0  0  0  0  0  0  0  0  0  0  0
   12.8134    3.8796    0.0000 C   0  0  0  0  0  0  0  0  0  0  0  0
   14.5416    2.8729    0.0000 C   0  0  0  0  0  0  0  0  0  0  0  0
   13.6814    4.3762    0.0000 C   0  0  0  0  0  0  0  0  0  0  0  0
   14.5454    3.8729    0.0000 C   0  0  0  0  0  0  0  0  0  0  0  0
    7.5837   -1.5596    0.0000 H   0  0  0  0  0  0  0  0  0  0  0  0
    3.4732   -2.2468    0.0000 H   0  0  0  0  0  0  0  0  0  0  0  0
    7.0468   -2.8696    0.0000 H   0  0  0  0  0  0  0  0  0  0  0  0
    4.9532   -2.2987    0.0000 H   0  0  0  0  0  0  0  0  0  0  0  0
    7.9128   -3.9896    0.0000 H   0  0  0  0  0  0  0  0  0  0  0  0
    9.8527   -2.8696    0.0000 H   0  0  0  0  0  0  0  0  0  0  0  0
    4.0946    0.1125    0.0000 H   0  0  0  0  0  0  0  0  0  0  0  0
    3.3366   -0.2250    0.0000 H   0  0  0  0  0  0  0  0  0  0  0  0
    7.1162   -1.2046    0.0000 H   0  0  0  0  0  0  0  0  0  0  0  0
    6.3192   -1.2046    0.0000 H   0  0  0  0  0  0  0  0  0  0  0  0
    9.3158   -1.5596    0.0000 H   0  0  0  0  0  0  0  0  0  0  0  0
    1.9264   -0.7355    0.0000 H   0  0  0  0  0  0  0  0  0  0  0  0
    2.3249   -1.4258    0.0000 H   0  0  0  0  0  0  0  0  0  0  0  0
    2.0702   -1.8207    0.0000 H   0  0  0  0  0  0  0  0  0  0  0  0
    3.2745   -3.2560    0.0000 H   0  0  0  0  0  0  0  0  0  0  0  0
    6.7177   -4.2996    0.0000 H   0  0  0  0  0  0  0  0  0  0  0  0
    7.9128   -4.9896    0.0000 H   0  0  0  0  0  0  0  0  0  0  0  0
   10.1818   -4.2996    0.0000 H   0  0  0  0  0  0  0  0  0  0  0  0
    2.0000    0.4668    0.0000 H   0  0  0  0  0  0  0  0  0  0  0  0
   11.6212   -0.4611    0.0000 H   0  0  0  0  0  0  0  0  0  0  0  0
    8.7424   -0.4611    0.0000 H   0  0  0  0  0  0  0  0  0  0  0  0
   11.0799    3.5063    0.0000 H   0  0  0  0  0  0  0  0  0  0  0  0
    7.8939    1.0979    0.0000 H   0  0  0  0  0  0  0  0  0  0  0  0
   13.6713    1.7563    0.0000 H   0  0  0  0  0  0  0  0  0  0  0  0
   12.2777    4.1916    0.0000 H   0  0  0  0  0  0  0  0  0  0  0  0
   13.6837    4.9962    0.0000 H   0  0  0  0  0  0  0  0  0  0  0  0
   15.9438    2.6775    0.0000 H   0  0  0  0  0  0  0  0  0  0  0  0
   15.4158    4.9896    0.0000 H   0  0  0  0  0  0  0  0  0  0  0  0
  1 17  1  0  0  0  0
  1 25  1  0  0  0  0
  2 20  1  0  0  0  0
  2 23  1  0  0  0  0
  3 20  1  0  0  0  0
  3 24  1  0  0  0  0
  4 16  1  0  0  0  0
  4 55  1  0  0  0  0
  5 18  1  0  0  0  0
  5 56  1  0  0  0  0
  6 19  1  0  0  0  0
  6 57  1  0  0  0  0
  7 21  1  0  0  0  0
  7 58  1  0  0  0  0
  8 25  1  0  0  0  0
  8 27  1  0  0  0  0
  9 22  1  0  0  0  0
  9 59  1  0  0  0  0
 10 26  1  0  0  0  0
 10 60  1  0  0  0  0
 11 30  1  0  0  0  0
 11 34  1  0  0  0  0
 12 31  1  0  0  0  0
 12 64  1  0  0  0  0
 13 33  2  0  0  0  0
 14 39  1  0  0  0  0
 14 68  1  0  0  0  0
 15 41  1  0  0  0  0
 15 69  1  0  0  0  0
 16 18  1  0  0  0  0
 16 23  1  0  0  0  0
 16 26  1  0  0  0  0
 17 19  1  0  0  0  0
 17 24  1  0  0  0  0
 17 42  1  0  0  0  0
 18 20  1  0  0  0  0
 18 43  1  0  0  0  0
 19 21  1  0  0  0  0
 19 44  1  0  0  0  0
 20 45  1  0  0  0  0
 21 22  1  0  0  0  0
 21 46  1  0  0  0  0
 22 25  1  0  0  0  0
 22 47  1  0  0  0  0
 23 48  1  0  0  0  0
 23 49  1  0  0  0  0
 24 50  1  0  0  0  0
 24 51  1  0  0  0  0
 25 52  1  0  0  0  0
 26 53  1  0  0  0  0
 26 54  1  0  0  0  0
 27 28  1  0  0  0  0
 27 29  2  0  0  0  0
 28 30  2  0  0  0  0
 28 61  1  0  0  0  0
 29 31  1  0  0  0  0
 29 62  1  0  0  0  0
 30 32  1  0  0  0  0
 31 32  2  0  0  0  0
 32 33  1  0  0  0  0
 33 35  1  0  0  0  0
 34 35  2  0  0  0  0
 34 36  1  0  0  0  0
 35 63  1  0  0  0  0
 36 37  2  0  0  0  0
 36 38  1  0  0  0  0
 37 39  1  0  0  0  0
 37 65  1  0  0  0  0
 38 40  2  0  0  0  0
 38 66  1  0  0  0  0
 39 41  2  0  0  0  0
 40 41  1  0  0  0  0
 40 67  1  0  0  0  0
M  END
>  <PUBCHEM_COMPOUND_CID>
59383825

>  <PUBCHEM_COMPOUND_CANONICALIZED>
1

>  <PUBCHEM_CACTVS_COMPLEXITY>
963

>  <PUBCHEM_CACTVS_HBOND_ACCEPTOR>
15

>  <PUBCHEM_CACTVS_HBOND_DONOR>
9

>  <PUBCHEM_CACTVS_ROTATABLE_BOND>
7

>  <PUBCHEM_CACTVS_SUBSKEYS>
AAADceB4PAAAAAAAAAAAAAAAAAAAASAAAAA0YIEAAAAAAACBQAAAGgAACAAADFSwmAMwDoAABgCIAqBSAAACCAAkIAAIiAEGiMgdNzaGNRqieWGl4BUPuQfI7LzOIAABCAAIQABAAAIQABCAAAAAAAAAAA==

>  <PUBCHEM_IUPAC_OPENEYE_NAME>
7-[6-[[3,4-dihydroxy-4-(hydroxymethyl)tetrahydrofuran-2-yl]oxymethyl]-3,4,5-trihydroxy-tetrahydropyran-2-yl]oxy-2-(3,4-dihydroxyphenyl)-5-hydroxy-chromen-4-one

>  <PUBCHEM_IUPAC_CAS_NAME>
7-[[6-[[3,4-dihydroxy-4-(hydroxymethyl)-2-oxolanyl]oxymethyl]-3,4,5-trihydroxy-2-oxanyl]oxy]-2-(3,4-dihydroxyphenyl)-5-hydroxy-1-benzopyran-4-one

>  <PUBCHEM_IUPAC_NAME>
7-[6-[[3,4-dihydroxy-4-(hydroxymethyl)oxolan-2-yl]oxymethyl]-3,4,5-trihydroxyoxan-2-yl]oxy-2-(3,4-dihydroxyphenyl)-5-hydroxychromen-4-one

>  <PUBCHEM_IUPAC_SYSTEMATIC_NAME>
2-[3,4-bis(oxidanyl)phenyl]-7-[6-[[4-(hydroxymethyl)-3,4-bis(oxidanyl)oxolan-2-yl]oxymethyl]-3,4,5-tris(oxidanyl)oxan-2-yl]oxy-5-oxidanyl-chromen-4-one

>  <PUBCHEM_IUPAC_TRADITIONAL_NAME>
7-[6-[(3,4-dihydroxy-4-methylol-tetrahydrofuran-2-yl)oxymethyl]-3,4,5-trihydroxy-tetrahydropyran-2-yl]oxy-2-(3,4-dihydroxyphenyl)-5-hydroxy-chromone

>  <PUBCHEM_IUPAC_INCHI>
InChI=1S/C26H28O15/c27-8-26(36)9-38-25(23(26)35)37-7-18-20(32)21(33)22(34)24(41-18)39-11-4-14(30)19-15(31)6-16(40-17(19)5-11)10-1-2-12(28)13(29)3-10/h1-6,18,20-25,27-30,32-36H,7-9H2

>  <PUBCHEM_IUPAC_INCHIKEY>
CNKAEXQTIMWDBP-UHFFFAOYSA-N

>  <PUBCHEM_XLOGP3_AA>
-1.3

>  <PUBCHEM_EXACT_MASS>
580.143

>  <PUBCHEM_MOLECULAR_FORMULA>
C26H28O15

>  <PUBCHEM_MOLECULAR_WEIGHT>
580.495

>  <PUBCHEM_OPENEYE_CAN_SMILES>
C1C(C(C(O1)OCC2C(C(C(C(O2)OC3=CC(=C4C(=C3)OC(=CC4=O)C5=CC(=C(C=C5)O)O)O)O)O)O)O)(CO)O

>  <PUBCHEM_OPENEYE_ISO_SMILES>
C1C(C(C(O1)OCC2C(C(C(C(O2)OC3=CC(=C4C(=C3)OC(=CC4=O)C5=CC(=C(C=C5)O)O)O)O)O)O)O)(CO)O

>  <PUBCHEM_CACTVS_TPSA>
245

>  <PUBCHEM_MONOISOTOPIC_WEIGHT>
580.143

>  <PUBCHEM_TOTAL_CHARGE>
0

>  <PUBCHEM_HEAVY_ATOM_COUNT>
41

>  <PUBCHEM_ATOM_DEF_STEREO_COUNT>
0

>  <PUBCHEM_ATOM_UDEF_STEREO_COUNT>
8

>  <PUBCHEM_BOND_DEF_STEREO_COUNT>
0

>  <PUBCHEM_BOND_UDEF_STEREO_COUNT>
0

>  <PUBCHEM_ISOTOPIC_ATOM_COUNT>
0

>  <PUBCHEM_COMPONENT_COUNT>
1

>  <PUBCHEM_CACTVS_TAUTO_COUNT>
68

>  <PUBCHEM_COORDINATE_TYPE>
1
5
255

>  <PUBCHEM_BONDANNOTATIONS>
11  30  8
11  34  8
17  24  3
27  28  8
27  29  8
28  30  8
29  31  8
20  3  3
30  32  8
31  32  8
32  33  8
33  35  8
34  35  8
36  37  8
36  38  8
37  39  8
38  40  8
39  41  8
16  4  3
40  41  8
18  5  3
19  6  3
21  7  3
25  8  3
22  9  3

$$$$
