59492121
 OpenBabel06101807152D

 69 72  0  0  1  0  0  0  0  0999 V2000
   10.3312   -1.6796    0.0000 O   0  0  0  0  0  0  0  0  0  0  0  0
    8.5991   -3.6796    0.0000 O   0  0  0  0  0  0  0  0  0  0  0  0
   10.3312   -4.6796    0.0000 O   0  0  0  0  0  0  0  0  0  0  0  0
   12.0632   -1.6796    0.0000 O   0  0  0  0  0  0  0  0  0  0  0  0
   12.0632   -3.6796    0.0000 O   0  0  0  0  0  0  0  0  0  0  0  0
    7.7331   -2.1796    0.0000 O   0  0  0  0  0  0  0  0  0  0  0  0
    4.6350   -2.5456    0.0000 O   0  0  0  0  0  0  0  0  0  0  0  0
    6.8671   -0.6796    0.0000 O   0  0  0  0  0  0  0  0  0  0  0  0
   13.8192    1.3829    0.0000 O   0  0  0  0  0  0  0  0  0  0  0  0
   10.3170    1.3996    0.0000 O   0  0  0  0  0  0  0  0  0  0  0  0
    2.5369   -1.1796    0.0000 O   0  0  0  0  0  0  0  0  0  0  0  0
    3.4030   -2.6796    0.0000 O   0  0  0  0  0  0  0  0  0  0  0  0
   11.2269    2.8930    0.0000 O   0  0  0  0  0  0  0  0  0  0  0  0
   17.2948    4.3696    0.0000 O   0  0  0  0  0  0  0  0  0  0  0  0
    9.4651   -3.1796    0.0000 C   0  0  3  0  0  0  0  0  0  0  0  0
   10.3312   -3.6796    0.0000 C   0  0  3  0  0  0  0  0  0  0  0  0
    9.4651   -2.1796    0.0000 C   0  0  3  0  0  0  0  0  0  0  0  0
   11.1972   -3.1796    0.0000 C   0  0  3  0  0  0  0  0  0  0  0  0
   11.1972   -2.1796    0.0000 C   0  0  3  0  0  0  0  0  0  0  0  0
    8.5991   -1.6796    0.0000 C   0  0  0  0  0  0  0  0  0  0  0  0
    5.1350   -1.6796    0.0000 C   0  0  3  0  0  0  0  0  0  0  0  0
   12.0632   -0.6796    0.0000 C   0  0  0  0  0  0  0  0  0  0  0  0
    6.0010   -2.1796    0.0000 C   0  0  0  0  0  0  0  0  0  0  0  0
    6.8671   -1.6796    0.0000 C   0  0  0  0  0  0  0  0  0  0  0  0
    4.2690   -1.1796    0.0000 C   0  0  0  0  0  0  0  0  0  0  0  0
   12.9633   -0.1553    0.0000 C   0  0  0  0  0  0  0  0  0  0  0  0
   11.1632   -0.1553    0.0000 C   0  0  0  0  0  0  0  0  0  0  0  0
    5.6350   -0.8135    0.0000 C   0  0  0  0  0  0  0  0  0  0  0  0
   12.9512    0.8863    0.0000 C   0  0  0  0  0  0  0  0  0  0  0  0
   12.0871    1.3896    0.0000 C   0  0  0  0  0  0  0  0  0  0  0  0
   11.1752    0.8863    0.0000 C   0  0  0  0  0  0  0  0  0  0  0  0
    3.4030   -1.6796    0.0000 C   0  0  0  0  0  0  0  0  0  0  0  0
   12.0910    2.3896    0.0000 C   0  0  0  0  0  0  0  0  0  0  0  0
   13.8230    2.3829    0.0000 C   0  0  0  0  0  0  0  0  0  0  0  0
   12.9589    2.8863    0.0000 C   0  0  0  0  0  0  0  0  0  0  0  0
   14.6910    2.8796    0.0000 C   0  0  0  0  0  0  0  0  0  0  0  0
   15.5551    2.3763    0.0000 C   0  0  0  0  0  0  0  0  0  0  0  0
   14.6948    3.8796    0.0000 C   0  0  0  0  0  0  0  0  0  0  0  0
   16.4230    2.8729    0.0000 C   0  0  0  0  0  0  0  0  0  0  0  0
   15.5628    4.3762    0.0000 C   0  0  0  0  0  0  0  0  0  0  0  0
   16.4269    3.8729    0.0000 C   0  0  0  0  0  0  0  0  0  0  0  0
    9.4651   -3.7996    0.0000 H   0  0  0  0  0  0  0  0  0  0  0  0
   10.8681   -3.9896    0.0000 H   0  0  0  0  0  0  0  0  0  0  0  0
    9.4651   -1.5596    0.0000 H   0  0  0  0  0  0  0  0  0  0  0  0
   11.7341   -2.8696    0.0000 H   0  0  0  0  0  0  0  0  0  0  0  0
   11.1972   -1.5596    0.0000 H   0  0  0  0  0  0  0  0  0  0  0  0
    8.9976   -1.2046    0.0000 H   0  0  0  0  0  0  0  0  0  0  0  0
    8.2006   -1.2046    0.0000 H   0  0  0  0  0  0  0  0  0  0  0  0
    8.5991   -4.2996    0.0000 H   0  0  0  0  0  0  0  0  0  0  0  0
    9.7942   -4.9896    0.0000 H   0  0  0  0  0  0  0  0  0  0  0  0
   12.0632   -4.2996    0.0000 H   0  0  0  0  0  0  0  0  0  0  0  0
    5.6025   -2.6545    0.0000 H   0  0  0  0  0  0  0  0  0  0  0  0
    6.3996   -2.6545    0.0000 H   0  0  0  0  0  0  0  0  0  0  0  0
    4.6675   -0.7046    0.0000 H   0  0  0  0  0  0  0  0  0  0  0  0
    3.8705   -0.7046    0.0000 H   0  0  0  0  0  0  0  0  0  0  0  0
   13.5026   -0.4611    0.0000 H   0  0  0  0  0  0  0  0  0  0  0  0
    6.1720   -1.1235    0.0000 H   0  0  0  0  0  0  0  0  0  0  0  0
    5.9450   -0.2766    0.0000 H   0  0  0  0  0  0  0  0  0  0  0  0
    5.0981   -0.5035    0.0000 H   0  0  0  0  0  0  0  0  0  0  0  0
   10.6238   -0.4611    0.0000 H   0  0  0  0  0  0  0  0  0  0  0  0
    4.9450   -3.0825    0.0000 H   0  0  0  0  0  0  0  0  0  0  0  0
   12.9613    3.5063    0.0000 H   0  0  0  0  0  0  0  0  0  0  0  0
    9.7753    1.0979    0.0000 H   0  0  0  0  0  0  0  0  0  0  0  0
    2.0000   -1.4896    0.0000 H   0  0  0  0  0  0  0  0  0  0  0  0
   15.5527    1.7563    0.0000 H   0  0  0  0  0  0  0  0  0  0  0  0
   14.1591    4.1916    0.0000 H   0  0  0  0  0  0  0  0  0  0  0  0
   16.9588    2.5608    0.0000 H   0  0  0  0  0  0  0  0  0  0  0  0
   15.5652    4.9962    0.0000 H   0  0  0  0  0  0  0  0  0  0  0  0
   17.2972    4.9896    0.0000 H   0  0  0  0  0  0  0  0  0  0  0  0
  1 17  1  0  0  0  0
  1 19  1  0  0  0  0
  2 15  1  0  0  0  0
  2 49  1  0  0  0  0
  3 16  1  0  0  0  0
  3 50  1  0  0  0  0
  4 19  1  0  0  0  0
  4 22  1  0  0  0  0
  5 18  1  0  0  0  0
  5 51  1  0  0  0  0
  6 20  1  0  0  0  0
  6 24  1  0  0  0  0
  7 21  1  0  0  0  0
  7 61  1  0  0  0  0
  8 24  2  0  0  0  0
  9 29  1  0  0  0  0
  9 34  1  0  0  0  0
 10 31  1  0  0  0  0
 10 63  1  0  0  0  0
 11 32  1  0  0  0  0
 11 64  1  0  0  0  0
 12 32  2  0  0  0  0
 13 33  2  0  0  0  0
 14 41  1  0  0  0  0
 14 69  1  0  0  0  0
 15 16  1  0  0  0  0
 15 17  1  0  0  0  0
 15 42  1  0  0  0  0
 16 18  1  0  0  0  0
 16 43  1  0  0  0  0
 17 20  1  0  0  0  0
 17 44  1  0  0  0  0
 18 19  1  0  0  0  0
 18 45  1  0  0  0  0
 19 46  1  0  0  0  0
 20 47  1  0  0  0  0
 20 48  1  0  0  0  0
 21 23  1  0  0  0  0
 21 25  1  0  0  0  0
 21 28  1  0  0  0  0
 22 26  1  0  0  0  0
 22 27  2  0  0  0  0
 23 24  1  0  0  0  0
 23 52  1  0  0  0  0
 23 53  1  0  0  0  0
 25 32  1  0  0  0  0
 25 54  1  0  0  0  0
 25 55  1  0  0  0  0
 26 29  2  0  0  0  0
 26 56  1  0  0  0  0
 27 31  1  0  0  0  0
 27 60  1  0  0  0  0
 28 57  1  0  0  0  0
 28 58  1  0  0  0  0
 28 59  1  0  0  0  0
 29 30  1  0  0  0  0
 30 31  2  0  0  0  0
 30 33  1  0  0  0  0
 33 35  1  0  0  0  0
 34 35  2  0  0  0  0
 34 36  1  0  0  0  0
 35 62  1  0  0  0  0
 36 37  2  0  0  0  0
 36 38  1  0  0  0  0
 37 39  1  0  0  0  0
 37 65  1  0  0  0  0
 38 40  2  0  0  0  0
 38 66  1  0  0  0  0
 39 41  2  0  0  0  0
 39 67  1  0  0  0  0
 40 41  1  0  0  0  0
 40 68  1  0  0  0  0
M  END
>  <PUBCHEM_COMPOUND_CID>
59492121

>  <PUBCHEM_COMPOUND_CANONICALIZED>
1

>  <PUBCHEM_CACTVS_COMPLEXITY>
993

>  <PUBCHEM_CACTVS_HBOND_ACCEPTOR>
14

>  <PUBCHEM_CACTVS_HBOND_DONOR>
7

>  <PUBCHEM_CACTVS_ROTATABLE_BOND>
10

>  <PUBCHEM_CACTVS_SUBSKEYS>
AAADceB4PAAAAAAAAAAAAAAAAAAAAAAAAAA0YIEAAAAAAACBQAAAGgAACAAADFSwmAMyDoAABgCIAqDSCAACCAAkIAAIiAEGCMgdNzaGNRqieWCl4BUPuQfI7qzOIAAACAAIAABAAAAQABAAAAAAAAAAAA==

>  <PUBCHEM_IUPAC_OPENEYE_NAME>
3-hydroxy-3-methyl-5-oxo-5-[[3,4,5-trihydroxy-6-[5-hydroxy-2-(4-hydroxyphenyl)-4-oxo-chromen-7-yl]oxy-tetrahydropyran-2-yl]methoxy]pentanoic acid

>  <PUBCHEM_IUPAC_CAS_NAME>
3-hydroxy-3-methyl-5-oxo-5-[[3,4,5-trihydroxy-6-[[5-hydroxy-2-(4-hydroxyphenyl)-4-oxo-1-benzopyran-7-yl]oxy]-2-oxanyl]methoxy]pentanoic acid

>  <PUBCHEM_IUPAC_NAME>
3-hydroxy-3-methyl-5-oxo-5-[[3,4,5-trihydroxy-6-[5-hydroxy-2-(4-hydroxyphenyl)-4-oxochromen-7-yl]oxyoxan-2-yl]methoxy]pentanoic acid

>  <PUBCHEM_IUPAC_SYSTEMATIC_NAME>
5-[[6-[2-(4-hydroxyphenyl)-5-oxidanyl-4-oxidanylidene-chromen-7-yl]oxy-3,4,5-tris(oxidanyl)oxan-2-yl]methoxy]-3-methyl-3-oxidanyl-5-oxidanylidene-pentanoic acid

>  <PUBCHEM_IUPAC_TRADITIONAL_NAME>
3-hydroxy-5-keto-3-methyl-5-[[3,4,5-trihydroxy-6-[5-hydroxy-2-(4-hydroxyphenyl)-4-keto-chromen-7-yl]oxy-tetrahydropyran-2-yl]methoxy]valeric acid

>  <PUBCHEM_IUPAC_INCHI>
InChI=1S/C27H28O14/c1-27(37,9-20(31)32)10-21(33)38-11-19-23(34)24(35)25(36)26(41-19)39-14-6-15(29)22-16(30)8-17(40-18(22)7-14)12-2-4-13(28)5-3-12/h2-8,19,23-26,28-29,34-37H,9-11H2,1H3,(H,31,32)

>  <PUBCHEM_IUPAC_INCHIKEY>
WWGLAVUKYJELNJ-UHFFFAOYSA-N

>  <PUBCHEM_XLOGP3_AA>
-0.1

>  <PUBCHEM_EXACT_MASS>
576.148

>  <PUBCHEM_MOLECULAR_FORMULA>
C27H28O14

>  <PUBCHEM_MOLECULAR_WEIGHT>
576.507

>  <PUBCHEM_OPENEYE_CAN_SMILES>
CC(CC(=O)O)(CC(=O)OCC1C(C(C(C(O1)OC2=CC(=C3C(=C2)OC(=CC3=O)C4=CC=C(C=C4)O)O)O)O)O)O

>  <PUBCHEM_OPENEYE_ISO_SMILES>
CC(CC(=O)O)(CC(=O)OCC1C(C(C(C(O1)OC2=CC(=C3C(=C2)OC(=CC3=O)C4=CC=C(C=C4)O)O)O)O)O)O

>  <PUBCHEM_CACTVS_TPSA>
230

>  <PUBCHEM_MONOISOTOPIC_WEIGHT>
576.148

>  <PUBCHEM_TOTAL_CHARGE>
0

>  <PUBCHEM_HEAVY_ATOM_COUNT>
41

>  <PUBCHEM_ATOM_DEF_STEREO_COUNT>
0

>  <PUBCHEM_ATOM_UDEF_STEREO_COUNT>
6

>  <PUBCHEM_BOND_DEF_STEREO_COUNT>
0

>  <PUBCHEM_BOND_UDEF_STEREO_COUNT>
0

>  <PUBCHEM_ISOTOPIC_ATOM_COUNT>
0

>  <PUBCHEM_COMPONENT_COUNT>
1

>  <PUBCHEM_CACTVS_TAUTO_COUNT>
24

>  <PUBCHEM_COORDINATE_TYPE>
1
5
255

>  <PUBCHEM_BONDANNOTATIONS>
17  20  3
15  2  3
22  26  8
22  27  8
26  29  8
27  31  8
29  30  8
16  3  3
30  31  8
30  33  8
33  35  8
34  35  8
36  37  8
36  38  8
37  39  8
38  40  8
39  41  8
19  4  3
40  41  8
18  5  3
21  7  3
9  29  8
9  34  8

$$$$
