59620302
 OpenBabel06101807152D

 26 27  0  0  0  0  0  0  0  0999 V2000
    2.0000    1.0173    0.0000 O   0  0  0  0  0  0  0  0  0  0  0  0
    2.0000   -0.9827    0.0000 O   0  0  0  0  0  0  0  0  0  0  0  0
    5.4804   -2.0173    0.0000 O   0  0  0  0  0  0  0  0  0  0  0  0
    6.3981   -0.5035    0.0000 N   0  0  0  0  0  0  0  0  0  0  0  0
    4.5981   -0.4827    0.0000 C   0  0  0  0  0  0  0  0  0  0  0  0
    4.5981    0.5173    0.0000 C   0  0  0  0  0  0  0  0  0  0  0  0
    5.4920   -1.0174    0.0000 C   0  0  0  0  0  0  0  0  0  0  0  0
    3.7320    1.0173    0.0000 C   0  0  0  0  0  0  0  0  0  0  0  0
    3.7320   -0.9827    0.0000 C   0  0  0  0  0  0  0  0  0  0  0  0
    5.4920    1.0520    0.0000 C   0  0  0  0  0  0  0  0  0  0  0  0
    2.8660    0.5173    0.0000 C   0  0  0  0  0  0  0  0  0  0  0  0
    6.3981    0.5381    0.0000 C   0  0  0  0  0  0  0  0  0  0  0  0
    2.8660   -0.4827    0.0000 C   0  0  0  0  0  0  0  0  0  0  0  0
    7.2622   -1.0068    0.0000 C   0  0  0  0  0  0  0  0  0  0  0  0
    2.0000    2.0173    0.0000 C   0  0  0  0  0  0  0  0  0  0  0  0
    3.7320    1.6373    0.0000 H   0  0  0  0  0  0  0  0  0  0  0  0
    3.7320   -1.6027    0.0000 H   0  0  0  0  0  0  0  0  0  0  0  0
    5.4848    1.6719    0.0000 H   0  0  0  0  0  0  0  0  0  0  0  0
    6.9338    0.8502    0.0000 H   0  0  0  0  0  0  0  0  0  0  0  0
    6.9501   -1.5426    0.0000 H   0  0  0  0  0  0  0  0  0  0  0  0
    7.7979   -1.3189    0.0000 H   0  0  0  0  0  0  0  0  0  0  0  0
    7.5742   -0.4711    0.0000 H   0  0  0  0  0  0  0  0  0  0  0  0
    2.0000   -1.6027    0.0000 H   0  0  0  0  0  0  0  0  0  0  0  0
    2.6200    2.0173    0.0000 H   0  0  0  0  0  0  0  0  0  0  0  0
    2.0000    2.6373    0.0000 H   0  0  0  0  0  0  0  0  0  0  0  0
    1.3800    2.0173    0.0000 H   0  0  0  0  0  0  0  0  0  0  0  0
  1 11  1  0  0  0  0
  1 15  1  0  0  0  0
  2 13  1  0  0  0  0
  2 23  1  0  0  0  0
  3  7  2  0  0  0  0
  4  7  1  0  0  0  0
  4 12  1  0  0  0  0
  4 14  1  0  0  0  0
  5  6  1  0  0  0  0
  5  7  1  0  0  0  0
  5  9  2  0  0  0  0
  6  8  2  0  0  0  0
  6 10  1  0  0  0  0
  8 11  1  0  0  0  0
  8 16  1  0  0  0  0
  9 13  1  0  0  0  0
  9 17  1  0  0  0  0
 10 12  2  0  0  0  0
 10 18  1  0  0  0  0
 11 13  2  0  0  0  0
 12 19  1  0  0  0  0
 14 20  1  0  0  0  0
 14 21  1  0  0  0  0
 14 22  1  0  0  0  0
 15 24  1  0  0  0  0
 15 25  1  0  0  0  0
 15 26  1  0  0  0  0
M  END
>  <PUBCHEM_COMPOUND_CID>
59620302

>  <PUBCHEM_COMPOUND_CANONICALIZED>
1

>  <PUBCHEM_CACTVS_COMPLEXITY>
290

>  <PUBCHEM_CACTVS_HBOND_ACCEPTOR>
3

>  <PUBCHEM_CACTVS_HBOND_DONOR>
1

>  <PUBCHEM_CACTVS_ROTATABLE_BOND>
1

>  <PUBCHEM_CACTVS_SUBSKEYS>
AAADccByMAAAAAAAAAAAAAAAAAAAAAAAAAAwQAAAAAAAAACBAAAAHgAACAAADATBmAYyBoMABgCIAiFWUACCCAAkIgAIiAEOjMgNJjKGtRuEcStkwhELuYe63JLOoAABAAAQQABAAAIAACCAAAAAAAAAAA==

>  <PUBCHEM_IUPAC_OPENEYE_NAME>
7-hydroxy-6-methoxy-2-methyl-isoquinolin-1-one

>  <PUBCHEM_IUPAC_CAS_NAME>
7-hydroxy-6-methoxy-2-methyl-1-isoquinolinone

>  <PUBCHEM_IUPAC_NAME>
7-hydroxy-6-methoxy-2-methylisoquinolin-1-one

>  <PUBCHEM_IUPAC_SYSTEMATIC_NAME>
6-methoxy-2-methyl-7-oxidanyl-isoquinolin-1-one

>  <PUBCHEM_IUPAC_TRADITIONAL_NAME>
7-hydroxy-6-methoxy-2-methyl-isocarbostyril

>  <PUBCHEM_IUPAC_INCHI>
InChI=1S/C11H11NO3/c1-12-4-3-7-5-10(15-2)9(13)6-8(7)11(12)14/h3-6,13H,1-2H3

>  <PUBCHEM_IUPAC_INCHIKEY>
SBFSGQVISGZPJH-UHFFFAOYSA-N

>  <PUBCHEM_XLOGP3_AA>
1.1

>  <PUBCHEM_EXACT_MASS>
205.074

>  <PUBCHEM_MOLECULAR_FORMULA>
C11H11NO3

>  <PUBCHEM_MOLECULAR_WEIGHT>
205.213

>  <PUBCHEM_OPENEYE_CAN_SMILES>
CN1C=CC2=CC(=C(C=C2C1=O)O)OC

>  <PUBCHEM_OPENEYE_ISO_SMILES>
CN1C=CC2=CC(=C(C=C2C1=O)O)OC

>  <PUBCHEM_CACTVS_TPSA>
49.8

>  <PUBCHEM_MONOISOTOPIC_WEIGHT>
205.074

>  <PUBCHEM_TOTAL_CHARGE>
0

>  <PUBCHEM_HEAVY_ATOM_COUNT>
15

>  <PUBCHEM_ATOM_DEF_STEREO_COUNT>
0

>  <PUBCHEM_ATOM_UDEF_STEREO_COUNT>
0

>  <PUBCHEM_BOND_DEF_STEREO_COUNT>
0

>  <PUBCHEM_BOND_UDEF_STEREO_COUNT>
0

>  <PUBCHEM_ISOTOPIC_ATOM_COUNT>
0

>  <PUBCHEM_COMPONENT_COUNT>
1

>  <PUBCHEM_CACTVS_TAUTO_COUNT>
3

>  <PUBCHEM_COORDINATE_TYPE>
1
5
255

>  <PUBCHEM_BONDANNOTATIONS>
10  12  8
11  13  8
4  12  8
4  7  8
5  6  8
5  7  8
5  9  8
6  10  8
6  8  8
8  11  8
9  13  8

$$$$
