59728532
 OpenBabel06101807152D

 78 80  0  0  1  0  0  0  0  0999 V2000
   10.6603    0.4050    0.0000 O   0  0  0  0  0  0  0  0  0  0  0  0
    9.7942    3.9050    0.0000 O   0  0  0  0  0  0  0  0  0  0  0  0
    5.4641    0.4050    0.0000 O   0  0  0  0  0  0  0  0  0  0  0  0
    5.4641    2.4050    0.0000 O   0  0  0  0  0  0  0  0  0  0  0  0
   13.2583    4.9050    0.0000 O   0  0  0  0  0  0  0  0  0  0  0  0
    3.7320   -0.5950    0.0000 O   0  0  0  0  0  0  0  0  0  0  0  0
   14.9904    3.9050    0.0000 O   0  0  0  0  0  0  0  0  0  0  0  0
    7.1962   -0.5950    0.0000 O   0  0  0  0  0  0  0  0  0  0  0  0
    2.8660   -4.0950    0.0000 O   0  0  0  0  0  0  0  0  0  0  0  0
    4.5981   -5.0950    0.0000 O   0  0  0  0  0  0  0  0  0  0  0  0
    9.7942    1.9050    0.0000 C   0  0  3  0  0  0  0  0  0  0  0  0
   10.6603    2.4050    0.0000 C   0  0  3  0  0  0  0  0  0  0  0  0
    8.9282    2.4050    0.0000 C   0  0  0  0  0  0  0  0  0  0  0  0
   11.5263    1.9050    0.0000 C   0  0  0  0  0  0  0  0  0  0  0  0
    9.7942    0.9050    0.0000 C   0  0  0  0  0  0  0  0  0  0  0  0
   10.6603    3.4050    0.0000 C   0  0  0  0  0  0  0  0  0  0  0  0
    8.0622    1.9050    0.0000 C   0  0  0  0  0  0  0  0  0  0  0  0
   12.3923    2.4050    0.0000 C   0  0  0  0  0  0  0  0  0  0  0  0
    7.1962    2.4050    0.0000 C   0  0  0  0  0  0  0  0  0  0  0  0
    8.0622    0.9050    0.0000 C   0  0  0  0  0  0  0  0  0  0  0  0
   12.3923    3.4050    0.0000 C   0  0  0  0  0  0  0  0  0  0  0  0
   13.2583    1.9050    0.0000 C   0  0  0  0  0  0  0  0  0  0  0  0
    6.3301    1.9050    0.0000 C   0  0  0  0  0  0  0  0  0  0  0  0
    6.3301    0.9050    0.0000 C   0  0  0  0  0  0  0  0  0  0  0  0
    7.1962    0.4050    0.0000 C   0  0  0  0  0  0  0  0  0  0  0  0
    5.4641   -0.5950    0.0000 C   0  0  3  0  0  0  0  0  0  0  0  0
   13.2583    3.9050    0.0000 C   0  0  0  0  0  0  0  0  0  0  0  0
   14.1244    2.4050    0.0000 C   0  0  0  0  0  0  0  0  0  0  0  0
    4.5981   -1.0950    0.0000 C   0  0  3  0  0  0  0  0  0  0  0  0
   14.1244    3.4050    0.0000 C   0  0  0  0  0  0  0  0  0  0  0  0
    6.3301   -1.0950    0.0000 C   0  0  0  0  0  0  0  0  0  0  0  0
    4.5981   -2.0950    0.0000 C   0  0  0  0  0  0  0  0  0  0  0  0
    3.7320   -2.5950    0.0000 C   0  0  0  0  0  0  0  0  0  0  0  0
    5.4641   -2.5950    0.0000 C   0  0  0  0  0  0  0  0  0  0  0  0
    5.4641    3.4050    0.0000 C   0  0  0  0  0  0  0  0  0  0  0  0
    3.7320   -3.5950    0.0000 C   0  0  0  0  0  0  0  0  0  0  0  0
    5.4641   -3.5950    0.0000 C   0  0  0  0  0  0  0  0  0  0  0  0
   14.1244    5.4050    0.0000 C   0  0  0  0  0  0  0  0  0  0  0  0
    4.5981   -4.0950    0.0000 C   0  0  0  0  0  0  0  0  0  0  0  0
    2.0000   -3.5950    0.0000 C   0  0  0  0  0  0  0  0  0  0  0  0
    9.2573    1.5950    0.0000 H   0  0  0  0  0  0  0  0  0  0  0  0
   11.1972    2.7150    0.0000 H   0  0  0  0  0  0  0  0  0  0  0  0
    9.3267    2.8800    0.0000 H   0  0  0  0  0  0  0  0  0  0  0  0
    8.5297    2.8800    0.0000 H   0  0  0  0  0  0  0  0  0  0  0  0
   11.1278    1.4300    0.0000 H   0  0  0  0  0  0  0  0  0  0  0  0
   11.9248    1.4300    0.0000 H   0  0  0  0  0  0  0  0  0  0  0  0
    9.1836    1.0127    0.0000 H   0  0  0  0  0  0  0  0  0  0  0  0
    9.5822    0.3224    0.0000 H   0  0  0  0  0  0  0  0  0  0  0  0
   11.2708    3.2973    0.0000 H   0  0  0  0  0  0  0  0  0  0  0  0
   10.8723    3.9876    0.0000 H   0  0  0  0  0  0  0  0  0  0  0  0
    7.1962    3.0250    0.0000 H   0  0  0  0  0  0  0  0  0  0  0  0
    8.5991    0.5950    0.0000 H   0  0  0  0  0  0  0  0  0  0  0  0
   11.8554    3.7150    0.0000 H   0  0  0  0  0  0  0  0  0  0  0  0
   13.2583    1.2850    0.0000 H   0  0  0  0  0  0  0  0  0  0  0  0
   10.6603   -0.2150    0.0000 H   0  0  0  0  0  0  0  0  0  0  0  0
    9.7942    4.5250    0.0000 H   0  0  0  0  0  0  0  0  0  0  0  0
    7.1962   -0.2150    0.0000 H   0  0  0  0  0  0  0  0  0  0  0  0
    6.0010   -0.2850    0.0000 H   0  0  0  0  0  0  0  0  0  0  0  0
   14.6613    2.0950    0.0000 H   0  0  0  0  0  0  0  0  0  0  0  0
    4.5981   -0.4750    0.0000 H   0  0  0  0  0  0  0  0  0  0  0  0
    5.9316   -1.5700    0.0000 H   0  0  0  0  0  0  0  0  0  0  0  0
    6.7287   -1.5700    0.0000 H   0  0  0  0  0  0  0  0  0  0  0  0
    3.1951   -2.2850    0.0000 H   0  0  0  0  0  0  0  0  0  0  0  0
    6.0010   -2.2850    0.0000 H   0  0  0  0  0  0  0  0  0  0  0  0
    3.7320    0.0250    0.0000 H   0  0  0  0  0  0  0  0  0  0  0  0
    6.0841    3.4050    0.0000 H   0  0  0  0  0  0  0  0  0  0  0  0
    5.4641    4.0250    0.0000 H   0  0  0  0  0  0  0  0  0  0  0  0
    4.8441    3.4050    0.0000 H   0  0  0  0  0  0  0  0  0  0  0  0
   15.5273    3.5950    0.0000 H   0  0  0  0  0  0  0  0  0  0  0  0
    6.0010   -3.9050    0.0000 H   0  0  0  0  0  0  0  0  0  0  0  0
    7.7331   -0.9050    0.0000 H   0  0  0  0  0  0  0  0  0  0  0  0
   14.4344    4.8681    0.0000 H   0  0  0  0  0  0  0  0  0  0  0  0
   14.6613    5.7150    0.0000 H   0  0  0  0  0  0  0  0  0  0  0  0
   13.8144    5.9419    0.0000 H   0  0  0  0  0  0  0  0  0  0  0  0
    5.1350   -5.4050    0.0000 H   0  0  0  0  0  0  0  0  0  0  0  0
    2.3100   -3.0581    0.0000 H   0  0  0  0  0  0  0  0  0  0  0  0
    1.4631   -3.2850    0.0000 H   0  0  0  0  0  0  0  0  0  0  0  0
    1.6900   -4.1319    0.0000 H   0  0  0  0  0  0  0  0  0  0  0  0
  1 15  1  0  0  0  0
  1 55  1  0  0  0  0
  2 16  1  0  0  0  0
  2 56  1  0  0  0  0
  3 24  1  0  0  0  0
  3 26  1  0  0  0  0
  4 23  1  0  0  0  0
  4 35  1  0  0  0  0
  5 27  1  0  0  0  0
  5 38  1  0  0  0  0
  6 29  1  0  0  0  0
  6 65  1  0  0  0  0
  7 30  1  0  0  0  0
  7 69  1  0  0  0  0
  8 31  1  0  0  0  0
  8 71  1  0  0  0  0
  9 36  1  0  0  0  0
  9 40  1  0  0  0  0
 10 39  1  0  0  0  0
 10 75  1  0  0  0  0
 11 12  1  0  0  0  0
 11 13  1  0  0  0  0
 11 15  1  0  0  0  0
 11 41  1  0  0  0  0
 12 14  1  0  0  0  0
 12 16  1  0  0  0  0
 12 42  1  0  0  0  0
 13 17  1  0  0  0  0
 13 43  1  0  0  0  0
 13 44  1  0  0  0  0
 14 18  1  0  0  0  0
 14 45  1  0  0  0  0
 14 46  1  0  0  0  0
 15 47  1  0  0  0  0
 15 48  1  0  0  0  0
 16 49  1  0  0  0  0
 16 50  1  0  0  0  0
 17 19  2  0  0  0  0
 17 20  1  0  0  0  0
 18 21  2  0  0  0  0
 18 22  1  0  0  0  0
 19 23  1  0  0  0  0
 19 51  1  0  0  0  0
 20 25  2  0  0  0  0
 20 52  1  0  0  0  0
 21 27  1  0  0  0  0
 21 53  1  0  0  0  0
 22 28  2  0  0  0  0
 22 54  1  0  0  0  0
 23 24  2  0  0  0  0
 24 25  1  0  0  0  0
 25 57  1  0  0  0  0
 26 29  1  0  0  0  0
 26 31  1  0  0  0  0
 26 58  1  0  0  0  0
 27 30  2  0  0  0  0
 28 30  1  0  0  0  0
 28 59  1  0  0  0  0
 29 32  1  0  0  0  0
 29 60  1  0  0  0  0
 31 61  1  0  0  0  0
 31 62  1  0  0  0  0
 32 33  2  0  0  0  0
 32 34  1  0  0  0  0
 33 36  1  0  0  0  0
 33 63  1  0  0  0  0
 34 37  2  0  0  0  0
 34 64  1  0  0  0  0
 35 66  1  0  0  0  0
 35 67  1  0  0  0  0
 35 68  1  0  0  0  0
 36 39  2  0  0  0  0
 37 39  1  0  0  0  0
 37 70  1  0  0  0  0
 38 72  1  0  0  0  0
 38 73  1  0  0  0  0
 38 74  1  0  0  0  0
 40 76  1  0  0  0  0
 40 77  1  0  0  0  0
 40 78  1  0  0  0  0
M  END
>  <PUBCHEM_COMPOUND_CID>
59728532

>  <PUBCHEM_COMPOUND_CANONICALIZED>
1

>  <PUBCHEM_CACTVS_COMPLEXITY>
697

>  <PUBCHEM_CACTVS_HBOND_ACCEPTOR>
10

>  <PUBCHEM_CACTVS_HBOND_DONOR>
6

>  <PUBCHEM_CACTVS_ROTATABLE_BOND>
15

>  <PUBCHEM_CACTVS_SUBSKEYS>
AAADcfB4PAAAAAAAAAAAAAAAAAAAAAAAAAAwYMAAAAAAAAABUAAAGgAACAAADRSgmAIyBoAABgCAAiBCAAACCAAgIAAIiAAGiIgNNiKGMRqCeCOlwBELuAfA4PwOoAABAAAAQABAAAIAAACAAAAAAAAAAA==

>  <PUBCHEM_IUPAC_OPENEYE_NAME>
2-[[4-[2-hydroxy-2-(4-hydroxy-3-methoxy-phenyl)-1-(hydroxymethyl)ethoxy]-3-methoxy-phenyl]methyl]-3-[(4-hydroxy-3-methoxy-phenyl)methyl]butane-1,4-diol

>  <PUBCHEM_IUPAC_CAS_NAME>
2-[[4-[1,3-dihydroxy-1-(4-hydroxy-3-methoxyphenyl)propan-2-yl]oxy-3-methoxyphenyl]methyl]-3-[(4-hydroxy-3-methoxyphenyl)methyl]butane-1,4-diol

>  <PUBCHEM_IUPAC_NAME>
2-[[4-[1,3-dihydroxy-1-(4-hydroxy-3-methoxyphenyl)propan-2-yl]oxy-3-methoxyphenyl]methyl]-3-[(4-hydroxy-3-methoxyphenyl)methyl]butane-1,4-diol

>  <PUBCHEM_IUPAC_SYSTEMATIC_NAME>
2-[[3-methoxy-4-[1-(3-methoxy-4-oxidanyl-phenyl)-1,3-bis(oxidanyl)propan-2-yl]oxy-phenyl]methyl]-3-[(3-methoxy-4-oxidanyl-phenyl)methyl]butane-1,4-diol

>  <PUBCHEM_IUPAC_TRADITIONAL_NAME>
2-[4-[2-hydroxy-2-(4-hydroxy-3-methoxy-phenyl)-1-methylol-ethoxy]-3-methoxy-benzyl]-3-vanillyl-butane-1,4-diol

>  <PUBCHEM_IUPAC_INCHI>
InChI=1S/C30H38O10/c1-37-26-12-18(4-7-23(26)34)10-21(15-31)22(16-32)11-19-5-9-25(28(13-19)39-3)40-29(17-33)30(36)20-6-8-24(35)27(14-20)38-2/h4-9,12-14,21-22,29-36H,10-11,15-17H2,1-3H3

>  <PUBCHEM_IUPAC_INCHIKEY>
XPALWKWOFOYYIV-UHFFFAOYSA-N

>  <PUBCHEM_XLOGP3_AA>
2.7

>  <PUBCHEM_EXACT_MASS>
558.246

>  <PUBCHEM_MOLECULAR_FORMULA>
C30H38O10

>  <PUBCHEM_MOLECULAR_WEIGHT>
558.624

>  <PUBCHEM_OPENEYE_CAN_SMILES>
COC1=C(C=CC(=C1)CC(CO)C(CC2=CC(=C(C=C2)OC(CO)C(C3=CC(=C(C=C3)O)OC)O)OC)CO)O

>  <PUBCHEM_OPENEYE_ISO_SMILES>
COC1=C(C=CC(=C1)CC(CO)C(CC2=CC(=C(C=C2)OC(CO)C(C3=CC(=C(C=C3)O)OC)O)OC)CO)O

>  <PUBCHEM_CACTVS_TPSA>
158

>  <PUBCHEM_MONOISOTOPIC_WEIGHT>
558.246

>  <PUBCHEM_TOTAL_CHARGE>
0

>  <PUBCHEM_HEAVY_ATOM_COUNT>
40

>  <PUBCHEM_ATOM_DEF_STEREO_COUNT>
0

>  <PUBCHEM_ATOM_UDEF_STEREO_COUNT>
4

>  <PUBCHEM_BOND_DEF_STEREO_COUNT>
0

>  <PUBCHEM_BOND_UDEF_STEREO_COUNT>
0

>  <PUBCHEM_ISOTOPIC_ATOM_COUNT>
0

>  <PUBCHEM_COMPONENT_COUNT>
1

>  <PUBCHEM_CACTVS_TAUTO_COUNT>
8

>  <PUBCHEM_COORDINATE_TYPE>
1
5
255

>  <PUBCHEM_BONDANNOTATIONS>
11  13  3
12  14  3
17  19  8
17  20  8
18  21  8
18  22  8
19  23  8
20  25  8
21  27  8
22  28  8
23  24  8
24  25  8
26  31  3
27  30  8
28  30  8
32  33  8
32  34  8
33  36  8
34  37  8
36  39  8
37  39  8
29  6  3

$$$$
