60207170
 OpenBabel06101807152D

 16 12  0  0  0  0  0  0  0  0999 V2000
    0.2869    0.2869    0.0000 Al  0  0  0  0  0 15  0  0  0  0  0  0
    3.6108    0.5369    0.0000 C   0  0  0  0  0  0  0  0  0  0  0  0
    3.6108    3.6108    0.0000 C   0  0  0  0  0  0  0  0  0  0  0  0
    0.5369    3.3239    0.0000 C   0  0  0  0  0  0  0  0  0  0  0  0
    4.1477    0.8469    0.0000 H   0  0  0  0  0  0  0  0  0  0  0  0
    3.0739    0.2269    0.0000 H   0  0  0  0  0  0  0  0  0  0  0  0
    3.3008    1.0739    0.0000 H   0  0  0  0  0  0  0  0  0  0  0  0
    3.9208    0.0000    0.0000 H   0  0  0  0  0  0  0  0  0  0  0  0
    4.1477    3.9208    0.0000 H   0  0  0  0  0  0  0  0  0  0  0  0
    3.0739    3.3008    0.0000 H   0  0  0  0  0  0  0  0  0  0  0  0
    3.3008    4.1477    0.0000 H   0  0  0  0  0  0  0  0  0  0  0  0
    3.9208    3.0739    0.0000 H   0  0  0  0  0  0  0  0  0  0  0  0
    1.0739    3.6339    0.0000 H   0  0  0  0  0  0  0  0  0  0  0  0
    0.0000    3.0139    0.0000 H   0  0  0  0  0  0  0  0  0  0  0  0
    0.2269    3.8608    0.0000 H   0  0  0  0  0  0  0  0  0  0  0  0
    0.8469    2.7869    0.0000 H   0  0  0  0  0  0  0  0  0  0  0  0
  2  5  1  0  0  0  0
  2  6  1  0  0  0  0
  2  7  1  0  0  0  0
  2  8  1  0  0  0  0
  3  9  1  0  0  0  0
  3 10  1  0  0  0  0
  3 11  1  0  0  0  0
  3 12  1  0  0  0  0
  4 13  1  0  0  0  0
  4 14  1  0  0  0  0
  4 15  1  0  0  0  0
  4 16  1  0  0  0  0
M  END
>  <PUBCHEM_COMPOUND_CID>
60207170

>  <PUBCHEM_COMPOUND_CANONICALIZED>
1

>  <PUBCHEM_CACTVS_COMPLEXITY>
0

>  <PUBCHEM_CACTVS_HBOND_ACCEPTOR>
0

>  <PUBCHEM_CACTVS_HBOND_DONOR>
0

>  <PUBCHEM_CACTVS_ROTATABLE_BOND>
0

>  <PUBCHEM_CACTVS_SUBSKEYS>
AAADccBAAAAAABAAAAAAAAAAAAAAAAAAAAAAAAAAAAAAAAAAAAAAEAAAAAAAAAAAAAACAAAAAAAAAAAAAAAAAAAAAAAAAAAAAAAAAAAAAAAAAAAAAAAAAAAAAAAAAAAAAAAAAAAAAAAAAAAAAAAAAAAAAA==

>  <PUBCHEM_IUPAC_OPENEYE_NAME>
aluminum;methane

>  <PUBCHEM_IUPAC_CAS_NAME>
aluminum;methane

>  <PUBCHEM_IUPAC_NAME>
aluminum;methane

>  <PUBCHEM_IUPAC_SYSTEMATIC_NAME>
aluminum;methane

>  <PUBCHEM_IUPAC_TRADITIONAL_NAME>
aluminum;methane

>  <PUBCHEM_IUPAC_INCHI>
InChI=1S/3CH4.Al/h3*1H4;

>  <PUBCHEM_IUPAC_INCHIKEY>
SERFXIDXLAJMRQ-UHFFFAOYSA-N

>  <PUBCHEM_EXACT_MASS>
75.075

>  <PUBCHEM_MOLECULAR_FORMULA>
C3H12Al

>  <PUBCHEM_MOLECULAR_WEIGHT>
75.111

>  <PUBCHEM_OPENEYE_CAN_SMILES>
C.C.C.[Al]

>  <PUBCHEM_OPENEYE_ISO_SMILES>
C.C.C.[Al]

>  <PUBCHEM_CACTVS_TPSA>
0

>  <PUBCHEM_MONOISOTOPIC_WEIGHT>
75.075

>  <PUBCHEM_TOTAL_CHARGE>
0

>  <PUBCHEM_HEAVY_ATOM_COUNT>
4

>  <PUBCHEM_ATOM_DEF_STEREO_COUNT>
0

>  <PUBCHEM_ATOM_UDEF_STEREO_COUNT>
0

>  <PUBCHEM_BOND_DEF_STEREO_COUNT>
0

>  <PUBCHEM_BOND_UDEF_STEREO_COUNT>
0

>  <PUBCHEM_ISOTOPIC_ATOM_COUNT>
0

>  <PUBCHEM_COMPONENT_COUNT>
4

>  <PUBCHEM_CACTVS_TAUTO_COUNT>
1

>  <PUBCHEM_COORDINATE_TYPE>
1
5
255

$$$$
