6079067
 OpenBabel06101807152D

 46 48  0  0  1  0  0  0  0  0999 V2000
    8.6793   -1.0501    0.0000 O   0  0  0  0  0  0  0  0  0  0  0  0
    6.8671   -2.2454    0.0000 O   0  0  0  0  0  0  0  0  0  0  0  0
    8.3221    2.2542    0.0000 O   0  0  0  0  0  0  0  0  0  0  0  0
    9.9685    1.7161    0.0000 O   0  0  0  0  0  0  0  0  0  0  0  0
   12.2629   -1.9774    0.0000 O   0  0  0  0  0  0  0  0  0  0  0  0
   13.2629   -0.2454    0.0000 O   0  0  0  0  0  0  0  0  0  0  0  0
    2.5369    0.2546    0.0000 O   0  0  0  0  0  0  0  0  0  0  0  0
    3.4030    1.7546    0.0000 O   0  0  0  0  0  0  0  0  0  0  0  0
    8.6793    0.5593    0.0000 C   0  0  3  0  0  0  0  0  0  0  0  0
    9.2629   -0.2454    0.0000 C   0  0  3  0  0  0  0  0  0  0  0  0
    7.7331    0.2546    0.0000 C   0  0  0  0  0  0  0  0  0  0  0  0
    7.7331   -0.7454    0.0000 C   0  0  0  0  0  0  0  0  0  0  0  0
   10.2629   -0.2454    0.0000 C   0  0  0  0  0  0  0  0  0  0  0  0
    6.8671    0.7546    0.0000 C   0  0  0  0  0  0  0  0  0  0  0  0
    8.9900    1.5098    0.0000 C   0  0  0  0  0  0  0  0  0  0  0  0
    6.8671   -1.2454    0.0000 C   0  0  0  0  0  0  0  0  0  0  0  0
    6.0010    0.2546    0.0000 C   0  0  0  0  0  0  0  0  0  0  0  0
   10.7629   -1.1114    0.0000 C   0  0  0  0  0  0  0  0  0  0  0  0
    6.0010   -0.7454    0.0000 C   0  0  0  0  0  0  0  0  0  0  0  0
   10.7629    0.6206    0.0000 C   0  0  0  0  0  0  0  0  0  0  0  0
   11.7629   -1.1114    0.0000 C   0  0  0  0  0  0  0  0  0  0  0  0
   11.7629    0.6206    0.0000 C   0  0  0  0  0  0  0  0  0  0  0  0
   12.2629   -0.2454    0.0000 C   0  0  0  0  0  0  0  0  0  0  0  0
    5.1350    0.7546    0.0000 C   0  0  0  0  0  0  0  0  0  0  0  0
    6.0010   -2.7454    0.0000 C   0  0  0  0  0  0  0  0  0  0  0  0
    4.2690    0.2546    0.0000 C   0  0  0  0  0  0  0  0  0  0  0  0
   11.7629   -2.8435    0.0000 C   0  0  0  0  0  0  0  0  0  0  0  0
    3.4030    0.7546    0.0000 C   0  0  0  0  0  0  0  0  0  0  0  0
    8.0796    1.1617    0.0000 H   0  0  0  0  0  0  0  0  0  0  0  0
    9.6491   -1.0026    0.0000 H   0  0  0  0  0  0  0  0  0  0  0  0
    6.8671    1.3746    0.0000 H   0  0  0  0  0  0  0  0  0  0  0  0
   10.4529   -1.6484    0.0000 H   0  0  0  0  0  0  0  0  0  0  0  0
    5.4641   -1.0554    0.0000 H   0  0  0  0  0  0  0  0  0  0  0  0
   10.4529    1.1576    0.0000 H   0  0  0  0  0  0  0  0  0  0  0  0
   12.0729    1.1576    0.0000 H   0  0  0  0  0  0  0  0  0  0  0  0
    5.1350    1.3746    0.0000 H   0  0  0  0  0  0  0  0  0  0  0  0
    8.5147    2.8435    0.0000 H   0  0  0  0  0  0  0  0  0  0  0  0
    5.6910   -2.2085    0.0000 H   0  0  0  0  0  0  0  0  0  0  0  0
    5.4641   -3.0554    0.0000 H   0  0  0  0  0  0  0  0  0  0  0  0
    6.3110   -3.2823    0.0000 H   0  0  0  0  0  0  0  0  0  0  0  0
    4.2690   -0.3654    0.0000 H   0  0  0  0  0  0  0  0  0  0  0  0
   13.5729    0.2915    0.0000 H   0  0  0  0  0  0  0  0  0  0  0  0
   11.2260   -2.5335    0.0000 H   0  0  0  0  0  0  0  0  0  0  0  0
   11.4529   -3.3804    0.0000 H   0  0  0  0  0  0  0  0  0  0  0  0
   12.2999   -3.1535    0.0000 H   0  0  0  0  0  0  0  0  0  0  0  0
    2.0000    0.5646    0.0000 H   0  0  0  0  0  0  0  0  0  0  0  0
  1 10  1  0  0  0  0
  1 12  1  0  0  0  0
  2 16  1  0  0  0  0
  2 25  1  0  0  0  0
  3 15  1  0  0  0  0
  3 37  1  0  0  0  0
  4 15  2  0  0  0  0
  5 21  1  0  0  0  0
  5 27  1  0  0  0  0
  6 23  1  0  0  0  0
  6 42  1  0  0  0  0
  7 28  1  0  0  0  0
  7 46  1  0  0  0  0
  8 28  2  0  0  0  0
  9 10  1  0  0  0  0
  9 11  1  0  0  0  0
  9 15  1  0  0  0  0
  9 29  1  0  0  0  0
 10 13  1  0  0  0  0
 10 30  1  0  0  0  0
 11 12  2  0  0  0  0
 11 14  1  0  0  0  0
 12 16  1  0  0  0  0
 13 18  2  0  0  0  0
 13 20  1  0  0  0  0
 14 17  2  0  0  0  0
 14 31  1  0  0  0  0
 16 19  2  0  0  0  0
 17 19  1  0  0  0  0
 17 24  1  0  0  0  0
 18 21  1  0  0  0  0
 18 32  1  0  0  0  0
 19 33  1  0  0  0  0
 20 22  2  0  0  0  0
 20 34  1  0  0  0  0
 21 23  2  0  0  0  0
 22 23  1  0  0  0  0
 22 35  1  0  0  0  0
 24 26  2  0  0  0  0
 24 36  1  0  0  0  0
 25 38  1  0  0  0  0
 25 39  1  0  0  0  0
 25 40  1  0  0  0  0
 26 28  1  0  0  0  0
 26 41  1  0  0  0  0
 27 43  1  0  0  0  0
 27 44  1  0  0  0  0
 27 45  1  0  0  0  0
M  END
>  <PUBCHEM_COMPOUND_CID>
6079067

>  <PUBCHEM_COMPOUND_CANONICALIZED>
1

>  <PUBCHEM_CACTVS_COMPLEXITY>
605

>  <PUBCHEM_CACTVS_HBOND_ACCEPTOR>
8

>  <PUBCHEM_CACTVS_HBOND_DONOR>
3

>  <PUBCHEM_CACTVS_ROTATABLE_BOND>
6

>  <PUBCHEM_CACTVS_SUBSKEYS>
AAADceB4PAAAAAAAAAAAAAAAAAAAASAAAAAwYAAAAAAAAEgBQAAAGgAACAAADRSgmAIyDoAABgCIAiDSCAACCAAgIAAIiAEGiMgNJjaGNRqCeCOl4BELuYfK7PzOoAADAAAIQABAAAYAABCAAAAAAAAAAA==

>  <PUBCHEM_IUPAC_OPENEYE_NAME>
5-[(E)-2-carboxyvinyl]-2-(4-hydroxy-3-methoxy-phenyl)-7-methoxy-2,3-dihydrobenzofuran-3-carboxylic acid

>  <PUBCHEM_IUPAC_CAS_NAME>
5-[(E)-2-carboxyethenyl]-2-(4-hydroxy-3-methoxyphenyl)-7-methoxy-2,3-dihydrobenzofuran-3-carboxylic acid

>  <PUBCHEM_IUPAC_NAME>
5-[(E)-2-carboxyethenyl]-2-(4-hydroxy-3-methoxyphenyl)-7-methoxy-2,3-dihydro-1-benzofuran-3-carboxylic acid

>  <PUBCHEM_IUPAC_SYSTEMATIC_NAME>
7-methoxy-2-(3-methoxy-4-oxidanyl-phenyl)-5-[(E)-3-oxidanyl-3-oxidanylidene-prop-1-enyl]-2,3-dihydro-1-benzofuran-3-carboxylic acid

>  <PUBCHEM_IUPAC_TRADITIONAL_NAME>
5-[(E)-2-carboxyvinyl]-2-(4-hydroxy-3-methoxy-phenyl)-7-methoxy-coumaran-3-carboxylic acid

>  <PUBCHEM_IUPAC_INCHI>
InChI=1S/C20H18O8/c1-26-14-9-11(4-5-13(14)21)18-17(20(24)25)12-7-10(3-6-16(22)23)8-15(27-2)19(12)28-18/h3-9,17-18,21H,1-2H3,(H,22,23)(H,24,25)/b6-3+

>  <PUBCHEM_IUPAC_INCHIKEY>
JTHPLBUVRLOJBB-ZZXKWVIFSA-N

>  <PUBCHEM_XLOGP3_AA>
2.2

>  <PUBCHEM_EXACT_MASS>
386.1

>  <PUBCHEM_MOLECULAR_FORMULA>
C20H18O8

>  <PUBCHEM_MOLECULAR_WEIGHT>
386.356

>  <PUBCHEM_OPENEYE_CAN_SMILES>
COC1=CC(=CC2=C1OC(C2C(=O)O)C3=CC(=C(C=C3)O)OC)C=CC(=O)O

>  <PUBCHEM_OPENEYE_ISO_SMILES>
COC1=CC(=CC2=C1OC(C2C(=O)O)C3=CC(=C(C=C3)O)OC)/C=C/C(=O)O

>  <PUBCHEM_CACTVS_TPSA>
123

>  <PUBCHEM_MONOISOTOPIC_WEIGHT>
386.1

>  <PUBCHEM_TOTAL_CHARGE>
0

>  <PUBCHEM_HEAVY_ATOM_COUNT>
28

>  <PUBCHEM_ATOM_DEF_STEREO_COUNT>
0

>  <PUBCHEM_ATOM_UDEF_STEREO_COUNT>
2

>  <PUBCHEM_BOND_DEF_STEREO_COUNT>
1

>  <PUBCHEM_BOND_UDEF_STEREO_COUNT>
0

>  <PUBCHEM_ISOTOPIC_ATOM_COUNT>
0

>  <PUBCHEM_COMPONENT_COUNT>
1

>  <PUBCHEM_CACTVS_TAUTO_COUNT>
3

>  <PUBCHEM_COORDINATE_TYPE>
1
5
255

>  <PUBCHEM_BONDANNOTATIONS>
10  30  3
11  12  8
11  14  8
12  16  8
13  18  8
13  20  8
14  17  8
16  19  8
17  19  8
18  21  8
20  22  8
21  23  8
22  23  8
9  29  3

$$$$
