608115
 OpenBabel06101807152D

 34 35  0  0  0  0  0  0  0  0999 V2000
    2.0000    1.2550    0.0000 O   0  0  0  0  0  0  0  0  0  0  0  0
    5.4920   -0.7797    0.0000 C   0  0  0  0  0  0  0  0  0  0  0  0
    5.4804   -1.7796    0.0000 C   0  0  0  0  0  0  0  0  0  0  0  0
    4.5981   -0.2450    0.0000 C   0  0  0  0  0  0  0  0  0  0  0  0
    4.5981    0.7550    0.0000 C   0  0  0  0  0  0  0  0  0  0  0  0
    5.4920    1.2896    0.0000 C   0  0  0  0  0  0  0  0  0  0  0  0
    6.3981   -0.2658    0.0000 C   0  0  0  0  0  0  0  0  0  0  0  0
    3.7320   -0.7450    0.0000 C   0  0  0  0  0  0  0  0  0  0  0  0
    6.3406   -2.2896    0.0000 C   0  0  0  0  0  0  0  0  0  0  0  0
    4.6087   -2.2696    0.0000 C   0  0  0  0  0  0  0  0  0  0  0  0
    6.3981    0.7758    0.0000 C   0  0  0  0  0  0  0  0  0  0  0  0
    3.7320    1.2550    0.0000 C   0  0  0  0  0  0  0  0  0  0  0  0
    2.8660   -0.2450    0.0000 C   0  0  0  0  0  0  0  0  0  0  0  0
    2.8660    0.7550    0.0000 C   0  0  0  0  0  0  0  0  0  0  0  0
    5.4804    2.2896    0.0000 C   0  0  0  0  0  0  0  0  0  0  0  0
    2.0000   -0.7450    0.0000 C   0  0  0  0  0  0  0  0  0  0  0  0
    6.0209   -1.4758    0.0000 H   0  0  0  0  0  0  0  0  0  0  0  0
    6.9338   -0.5779    0.0000 H   0  0  0  0  0  0  0  0  0  0  0  0
    3.7320   -1.3650    0.0000 H   0  0  0  0  0  0  0  0  0  0  0  0
    6.0244   -2.8229    0.0000 H   0  0  0  0  0  0  0  0  0  0  0  0
    6.8740   -2.6058    0.0000 H   0  0  0  0  0  0  0  0  0  0  0  0
    6.6568   -1.7563    0.0000 H   0  0  0  0  0  0  0  0  0  0  0  0
    4.3049   -1.7291    0.0000 H   0  0  0  0  0  0  0  0  0  0  0  0
    4.0682   -2.5733    0.0000 H   0  0  0  0  0  0  0  0  0  0  0  0
    4.9125   -2.8100    0.0000 H   0  0  0  0  0  0  0  0  0  0  0  0
    6.9338    1.0879    0.0000 H   0  0  0  0  0  0  0  0  0  0  0  0
    3.7320    1.8750    0.0000 H   0  0  0  0  0  0  0  0  0  0  0  0
    6.1004    2.2968    0.0000 H   0  0  0  0  0  0  0  0  0  0  0  0
    5.4733    2.9095    0.0000 H   0  0  0  0  0  0  0  0  0  0  0  0
    4.8605    2.2824    0.0000 H   0  0  0  0  0  0  0  0  0  0  0  0
    1.6900   -0.2081    0.0000 H   0  0  0  0  0  0  0  0  0  0  0  0
    1.4631   -1.0550    0.0000 H   0  0  0  0  0  0  0  0  0  0  0  0
    2.3100   -1.2820    0.0000 H   0  0  0  0  0  0  0  0  0  0  0  0
    2.0000    1.8750    0.0000 H   0  0  0  0  0  0  0  0  0  0  0  0
  1 14  1  0  0  0  0
  1 34  1  0  0  0  0
  2  3  1  0  0  0  0
  2  4  2  0  0  0  0
  2  7  1  0  0  0  0
  3  9  1  0  0  0  0
  3 10  1  0  0  0  0
  3 17  1  0  0  0  0
  4  5  1  0  0  0  0
  4  8  1  0  0  0  0
  5  6  2  0  0  0  0
  5 12  1  0  0  0  0
  6 11  1  0  0  0  0
  6 15  1  0  0  0  0
  7 11  2  0  0  0  0
  7 18  1  0  0  0  0
  8 13  2  0  0  0  0
  8 19  1  0  0  0  0
  9 20  1  0  0  0  0
  9 21  1  0  0  0  0
  9 22  1  0  0  0  0
 10 23  1  0  0  0  0
 10 24  1  0  0  0  0
 10 25  1  0  0  0  0
 11 26  1  0  0  0  0
 12 14  2  0  0  0  0
 12 27  1  0  0  0  0
 13 14  1  0  0  0  0
 13 16  1  0  0  0  0
 15 28  1  0  0  0  0
 15 29  1  0  0  0  0
 15 30  1  0  0  0  0
 16 31  1  0  0  0  0
 16 32  1  0  0  0  0
 16 33  1  0  0  0  0
M  END
>  <PUBCHEM_COMPOUND_CID>
608115

>  <PUBCHEM_COMPOUND_CANONICALIZED>
1

>  <PUBCHEM_CACTVS_COMPLEXITY>
236

>  <PUBCHEM_CACTVS_HBOND_ACCEPTOR>
1

>  <PUBCHEM_CACTVS_HBOND_DONOR>
1

>  <PUBCHEM_CACTVS_ROTATABLE_BOND>
1

>  <PUBCHEM_CACTVS_SUBSKEYS>
AAADceBwIAAAAAAAAAAAAAAAAAAAAAAAAAAwYAAAAAAAAADBUAAAGgAACAAADQSAmAAyBsAAAgCAAiBCAAACAAAgIAAIiAAGCIgIJiKCERKAcAAkwBEImAeAwPAO4AADAAAYAADAAAYAADAAAAAAAAAAAA==

>  <PUBCHEM_IUPAC_OPENEYE_NAME>
5-isopropyl-3,8-dimethyl-naphthalen-2-ol

>  <PUBCHEM_IUPAC_CAS_NAME>
3,8-dimethyl-5-propan-2-yl-2-naphthalenol

>  <PUBCHEM_IUPAC_NAME>
3,8-dimethyl-5-propan-2-ylnaphthalen-2-ol

>  <PUBCHEM_IUPAC_SYSTEMATIC_NAME>
3,8-dimethyl-5-propan-2-yl-naphthalen-2-ol

>  <PUBCHEM_IUPAC_TRADITIONAL_NAME>
5-isopropyl-3,8-dimethyl-2-naphthol

>  <PUBCHEM_IUPAC_INCHI>
InChI=1S/C15H18O/c1-9(2)12-6-5-10(3)13-8-15(16)11(4)7-14(12)13/h5-9,16H,1-4H3

>  <PUBCHEM_IUPAC_INCHIKEY>
RIWNMJBJRPCUBX-UHFFFAOYSA-N

>  <PUBCHEM_XLOGP3_AA>
4.7

>  <PUBCHEM_EXACT_MASS>
214.136

>  <PUBCHEM_MOLECULAR_FORMULA>
C15H18O

>  <PUBCHEM_MOLECULAR_WEIGHT>
214.308

>  <PUBCHEM_OPENEYE_CAN_SMILES>
CC1=C2C=C(C(=CC2=C(C=C1)C(C)C)C)O

>  <PUBCHEM_OPENEYE_ISO_SMILES>
CC1=C2C=C(C(=CC2=C(C=C1)C(C)C)C)O

>  <PUBCHEM_CACTVS_TPSA>
20.2

>  <PUBCHEM_MONOISOTOPIC_WEIGHT>
214.136

>  <PUBCHEM_TOTAL_CHARGE>
0

>  <PUBCHEM_HEAVY_ATOM_COUNT>
16

>  <PUBCHEM_ATOM_DEF_STEREO_COUNT>
0

>  <PUBCHEM_ATOM_UDEF_STEREO_COUNT>
0

>  <PUBCHEM_BOND_DEF_STEREO_COUNT>
0

>  <PUBCHEM_BOND_UDEF_STEREO_COUNT>
0

>  <PUBCHEM_ISOTOPIC_ATOM_COUNT>
0

>  <PUBCHEM_COMPONENT_COUNT>
1

>  <PUBCHEM_CACTVS_TAUTO_COUNT>
18

>  <PUBCHEM_COORDINATE_TYPE>
1
5
255

>  <PUBCHEM_BONDANNOTATIONS>
12  14  8
13  14  8
2  4  8
2  7  8
4  5  8
4  8  8
5  12  8
5  6  8
6  11  8
7  11  8
8  13  8

$$$$
