60962
 OpenBabel06101807152D

 18 17  0  0  0  0  0  0  0  0999 V2000
    4.8059    2.1200    0.0000 Cl  0  0  0  0  0  0  0  0  0  0  0  0
    1.4030    3.6200    0.0000 N   0  0  0  0  0  0  0  0  0  0  0  0
    2.2690    4.1200    0.0000 N   0  0  0  0  0  0  0  0  0  0  0  0
    1.4030    2.6200    0.0000 C   0  0  0  0  0  0  0  0  0  0  0  0
    0.5369    2.1200    0.0000 C   0  0  0  0  0  0  0  0  0  0  0  0
    2.2690    2.1200    0.0000 C   0  0  0  0  0  0  0  0  0  0  0  0
    0.5369    1.1200    0.0000 C   0  0  0  0  0  0  0  0  0  0  0  0
    2.2690    1.1200    0.0000 C   0  0  0  0  0  0  0  0  0  0  0  0
    1.4030    0.6200    0.0000 C   0  0  0  0  0  0  0  0  0  0  0  0
    0.0000    2.4300    0.0000 H   0  0  0  0  0  0  0  0  0  0  0  0
    2.8059    2.4300    0.0000 H   0  0  0  0  0  0  0  0  0  0  0  0
    0.0000    0.8100    0.0000 H   0  0  0  0  0  0  0  0  0  0  0  0
    2.8059    0.8100    0.0000 H   0  0  0  0  0  0  0  0  0  0  0  0
    1.4030    0.0000    0.0000 H   0  0  0  0  0  0  0  0  0  0  0  0
    0.8660    3.9300    0.0000 H   0  0  0  0  0  0  0  0  0  0  0  0
    2.2690    4.7400    0.0000 H   0  0  0  0  0  0  0  0  0  0  0  0
    2.8059    3.8100    0.0000 H   0  0  0  0  0  0  0  0  0  0  0  0
    5.8059    2.1200    0.0000 H   0  0  0  0  0  0  0  0  0  0  0  0
  1 18  1  0  0  0  0
  2  3  1  0  0  0  0
  2  4  1  0  0  0  0
  2 15  1  0  0  0  0
  3 16  1  0  0  0  0
  3 17  1  0  0  0  0
  4  5  2  0  0  0  0
  4  6  1  0  0  0  0
  5  7  1  0  0  0  0
  5 10  1  0  0  0  0
  6  8  2  0  0  0  0
  6 11  1  0  0  0  0
  7  9  2  0  0  0  0
  7 12  1  0  0  0  0
  8  9  1  0  0  0  0
  8 13  1  0  0  0  0
  9 14  1  0  0  0  0
M  END
>  <PUBCHEM_COMPOUND_CID>
60962

>  <PUBCHEM_COMPOUND_CANONICALIZED>
1

>  <PUBCHEM_CACTVS_COMPLEXITY>
57.5

>  <PUBCHEM_CACTVS_HBOND_ACCEPTOR>
2

>  <PUBCHEM_CACTVS_HBOND_DONOR>
3

>  <PUBCHEM_CACTVS_ROTATABLE_BOND>
1

>  <PUBCHEM_CACTVS_SUBSKEYS>
AAADccBjAAAEAAAAAAAAAAAAAAAAAAAAAAAwAAAAAAAAAAABAAAAHAAYAAAACAiBEAAwwIBiAACAACRCQACCBAAgAgIYqAAAZIgIICKAkZGAIABgkAAIyAcQAAAAAAAAAAAAAAAAAAAAAAAAAAAAAAAAAA==

>  <PUBCHEM_IUPAC_OPENEYE_NAME>
phenylhydrazine;hydrochloride

>  <PUBCHEM_IUPAC_CAS_NAME>
phenylhydrazine;hydrochloride

>  <PUBCHEM_IUPAC_NAME>
phenylhydrazine;hydrochloride

>  <PUBCHEM_IUPAC_SYSTEMATIC_NAME>
phenyldiazane;hydrochloride

>  <PUBCHEM_IUPAC_TRADITIONAL_NAME>
phenylhydrazine;hydrochloride

>  <PUBCHEM_IUPAC_INCHI>
InChI=1S/C6H8N2.ClH/c7-8-6-4-2-1-3-5-6;/h1-5,8H,7H2;1H

>  <PUBCHEM_IUPAC_INCHIKEY>
JOVOSQBPPZZESK-UHFFFAOYSA-N

>  <PUBCHEM_EXACT_MASS>
144.045

>  <PUBCHEM_MOLECULAR_FORMULA>
C6H9ClN2

>  <PUBCHEM_MOLECULAR_WEIGHT>
144.602

>  <PUBCHEM_OPENEYE_CAN_SMILES>
C1=CC=C(C=C1)NN.Cl

>  <PUBCHEM_OPENEYE_ISO_SMILES>
C1=CC=C(C=C1)NN.Cl

>  <PUBCHEM_CACTVS_TPSA>
38

>  <PUBCHEM_MONOISOTOPIC_WEIGHT>
144.045

>  <PUBCHEM_TOTAL_CHARGE>
0

>  <PUBCHEM_HEAVY_ATOM_COUNT>
9

>  <PUBCHEM_ATOM_DEF_STEREO_COUNT>
0

>  <PUBCHEM_ATOM_UDEF_STEREO_COUNT>
0

>  <PUBCHEM_BOND_DEF_STEREO_COUNT>
0

>  <PUBCHEM_BOND_UDEF_STEREO_COUNT>
0

>  <PUBCHEM_ISOTOPIC_ATOM_COUNT>
0

>  <PUBCHEM_COMPONENT_COUNT>
2

>  <PUBCHEM_CACTVS_TAUTO_COUNT>
1

>  <PUBCHEM_COORDINATE_TYPE>
1
5
255

>  <PUBCHEM_BONDANNOTATIONS>
4  5  8
4  6  8
5  7  8
6  8  8
7  9  8
8  9  8

$$$$
