610097
 OpenBabel06101807152D

 28 29  0  0  0  0  0  0  0  0999 V2000
    2.0000    1.0173    0.0000 O   0  0  0  0  0  0  0  0  0  0  0  0
    2.0000   -0.9827    0.0000 O   0  0  0  0  0  0  0  0  0  0  0  0
    5.4804   -2.0173    0.0000 O   0  0  0  0  0  0  0  0  0  0  0  0
    6.3981   -0.5035    0.0000 N   0  0  0  0  0  0  0  0  0  0  0  0
    5.4920    1.0520    0.0000 C   0  0  0  0  0  0  0  0  0  0  0  0
    4.5981    0.5173    0.0000 C   0  0  0  0  0  0  0  0  0  0  0  0
    6.3981    0.5381    0.0000 C   0  0  0  0  0  0  0  0  0  0  0  0
    4.5981   -0.4827    0.0000 C   0  0  0  0  0  0  0  0  0  0  0  0
    3.7320    1.0173    0.0000 C   0  0  0  0  0  0  0  0  0  0  0  0
    5.4920   -1.0174    0.0000 C   0  0  0  0  0  0  0  0  0  0  0  0
    3.7320   -0.9827    0.0000 C   0  0  0  0  0  0  0  0  0  0  0  0
    2.8660    0.5173    0.0000 C   0  0  0  0  0  0  0  0  0  0  0  0
    2.8660   -0.4827    0.0000 C   0  0  0  0  0  0  0  0  0  0  0  0
    2.0000    2.0173    0.0000 C   0  0  0  0  0  0  0  0  0  0  0  0
    2.0000   -1.9827    0.0000 C   0  0  0  0  0  0  0  0  0  0  0  0
    5.8856    1.5310    0.0000 H   0  0  0  0  0  0  0  0  0  0  0  0
    5.0874    1.5218    0.0000 H   0  0  0  0  0  0  0  0  0  0  0  0
    7.0089    0.4320    0.0000 H   0  0  0  0  0  0  0  0  0  0  0  0
    6.6071    1.1218    0.0000 H   0  0  0  0  0  0  0  0  0  0  0  0
    3.7320    1.6373    0.0000 H   0  0  0  0  0  0  0  0  0  0  0  0
    6.9338   -0.8156    0.0000 H   0  0  0  0  0  0  0  0  0  0  0  0
    3.7320   -1.6027    0.0000 H   0  0  0  0  0  0  0  0  0  0  0  0
    2.6200    2.0173    0.0000 H   0  0  0  0  0  0  0  0  0  0  0  0
    2.0000    2.6373    0.0000 H   0  0  0  0  0  0  0  0  0  0  0  0
    1.3800    2.0173    0.0000 H   0  0  0  0  0  0  0  0  0  0  0  0
    1.3800   -1.9827    0.0000 H   0  0  0  0  0  0  0  0  0  0  0  0
    2.0000   -2.6027    0.0000 H   0  0  0  0  0  0  0  0  0  0  0  0
    2.6200   -1.9827    0.0000 H   0  0  0  0  0  0  0  0  0  0  0  0
  1 12  1  0  0  0  0
  1 14  1  0  0  0  0
  2 13  1  0  0  0  0
  2 15  1  0  0  0  0
  3 10  2  0  0  0  0
  4  7  1  0  0  0  0
  4 10  1  0  0  0  0
  4 21  1  0  0  0  0
  5  6  1  0  0  0  0
  5  7  1  0  0  0  0
  5 16  1  0  0  0  0
  5 17  1  0  0  0  0
  6  8  1  0  0  0  0
  6  9  2  0  0  0  0
  7 18  1  0  0  0  0
  7 19  1  0  0  0  0
  8 10  1  0  0  0  0
  8 11  2  0  0  0  0
  9 12  1  0  0  0  0
  9 20  1  0  0  0  0
 11 13  1  0  0  0  0
 11 22  1  0  0  0  0
 12 13  2  0  0  0  0
 14 23  1  0  0  0  0
 14 24  1  0  0  0  0
 14 25  1  0  0  0  0
 15 26  1  0  0  0  0
 15 27  1  0  0  0  0
 15 28  1  0  0  0  0
M  END
>  <PUBCHEM_COMPOUND_CID>
610097

>  <PUBCHEM_COMPOUND_CANONICALIZED>
1

>  <PUBCHEM_CACTVS_COMPLEXITY>
244

>  <PUBCHEM_CACTVS_HBOND_ACCEPTOR>
3

>  <PUBCHEM_CACTVS_HBOND_DONOR>
1

>  <PUBCHEM_CACTVS_ROTATABLE_BOND>
2

>  <PUBCHEM_CACTVS_SUBSKEYS>
AAADccByMAAAAAAAAAAAAAAAAAAAAAAAAAA8QAAAAAAAAACxAAAAHgAQAAAADATBmAYyBoLABACIAiFSEACCCAAkIAAAiIEOjMgNJjKEtRuEMSpk1hGKqYe63bLOoAABAAAQQABAAAIAACCAAAAAAAAAAA==

>  <PUBCHEM_IUPAC_OPENEYE_NAME>
6,7-dimethoxy-3,4-dihydro-2H-isoquinolin-1-one

>  <PUBCHEM_IUPAC_CAS_NAME>
6,7-dimethoxy-3,4-dihydro-2H-isoquinolin-1-one

>  <PUBCHEM_IUPAC_NAME>
6,7-dimethoxy-3,4-dihydro-2H-isoquinolin-1-one

>  <PUBCHEM_IUPAC_SYSTEMATIC_NAME>
6,7-dimethoxy-3,4-dihydro-2H-isoquinolin-1-one

>  <PUBCHEM_IUPAC_TRADITIONAL_NAME>
6,7-dimethoxy-3,4-dihydroisocarbostyril

>  <PUBCHEM_IUPAC_INCHI>
InChI=1S/C11H13NO3/c1-14-9-5-7-3-4-12-11(13)8(7)6-10(9)15-2/h5-6H,3-4H2,1-2H3,(H,12,13)

>  <PUBCHEM_IUPAC_INCHIKEY>
MQKFSXLBPPCAGR-UHFFFAOYSA-N

>  <PUBCHEM_XLOGP3_AA>
1.2

>  <PUBCHEM_EXACT_MASS>
207.09

>  <PUBCHEM_MOLECULAR_FORMULA>
C11H13NO3

>  <PUBCHEM_MOLECULAR_WEIGHT>
207.229

>  <PUBCHEM_OPENEYE_CAN_SMILES>
COC1=C(C=C2C(=C1)CCNC2=O)OC

>  <PUBCHEM_OPENEYE_ISO_SMILES>
COC1=C(C=C2C(=C1)CCNC2=O)OC

>  <PUBCHEM_CACTVS_TPSA>
47.6

>  <PUBCHEM_MONOISOTOPIC_WEIGHT>
207.09

>  <PUBCHEM_TOTAL_CHARGE>
0

>  <PUBCHEM_HEAVY_ATOM_COUNT>
15

>  <PUBCHEM_ATOM_DEF_STEREO_COUNT>
0

>  <PUBCHEM_ATOM_UDEF_STEREO_COUNT>
0

>  <PUBCHEM_BOND_DEF_STEREO_COUNT>
0

>  <PUBCHEM_BOND_UDEF_STEREO_COUNT>
0

>  <PUBCHEM_ISOTOPIC_ATOM_COUNT>
0

>  <PUBCHEM_COMPONENT_COUNT>
1

>  <PUBCHEM_CACTVS_TAUTO_COUNT>
2

>  <PUBCHEM_COORDINATE_TYPE>
1
5
255

>  <PUBCHEM_BONDANNOTATIONS>
11  13  8
12  13  8
6  8  8
6  9  8
8  11  8
9  12  8

$$$$
