6122988
 OpenBabel06101807152D

 43 43  0  0  1  0  0  0  0  0999 V2000
    6.0010   -0.3450    0.0000 S   0  0  0  0  0  0  0  0  0  0  0  0
    8.5991    1.1550    0.0000 S   0  0  0  0  0  0  0  0  0  0  0  0
    4.2690   -0.3450    0.0000 O   0  0  0  0  0  0  0  0  0  0  0  0
    4.2690   -3.3450    0.0000 O   0  0  0  0  0  0  0  0  0  0  0  0
    2.5369   -2.3450    0.0000 O   0  0  0  0  0  0  0  0  0  0  0  0
    6.0010   -2.3450    0.0000 O   0  0  0  0  0  0  0  0  0  0  0  0
    2.5369    0.6550    0.0000 O   0  0  0  0  0  0  0  0  0  0  0  0
    4.2690    2.6550    0.0000 O   0  0  0  0  0  0  0  0  0  0  0  0
    7.7331    0.6550    0.0000 O   0  0  0  0  0  0  0  0  0  0  0  0
    8.0991    2.0210    0.0000 O   0  0  0  0  0  0  0  0  0  0  0  0
    9.4651    1.6550    0.0000 O   0  0  0  0  0  0  0  0  0  0  0  0
    9.0991    0.2890    0.0000 O   0  0  0  0  0  0  0  0  0  0  0  0
    6.8671    1.1550    0.0000 N   0  0  0  0  0  0  0  0  0  0  0  0
    4.2690   -2.3450    0.0000 C   0  0  3  0  0  0  0  0  0  0  0  0
    3.4030   -1.8450    0.0000 C   0  0  3  0  0  0  0  0  0  0  0  0
    5.1350   -1.8450    0.0000 C   0  0  3  0  0  0  0  0  0  0  0  0
    3.4030   -0.8450    0.0000 C   0  0  3  0  0  0  0  0  0  0  0  0
    5.1350   -0.8450    0.0000 C   0  0  3  0  0  0  0  0  0  0  0  0
    2.5369   -0.3450    0.0000 C   0  0  0  0  0  0  0  0  0  0  0  0
    6.0010    0.6550    0.0000 C   0  0  0  0  0  0  0  0  0  0  0  0
    5.1350    1.1550    0.0000 C   0  0  0  0  0  0  0  0  0  0  0  0
    5.1350    2.1550    0.0000 C   0  0  3  0  0  0  0  0  0  0  0  0
    6.0010    2.6550    0.0000 C   0  0  0  0  0  0  0  0  0  0  0  0
    6.0010    3.6550    0.0000 C   0  0  0  0  0  0  0  0  0  0  0  0
    4.8059   -2.6550    0.0000 H   0  0  0  0  0  0  0  0  0  0  0  0
    3.4030   -2.4650    0.0000 H   0  0  0  0  0  0  0  0  0  0  0  0
    5.6720   -1.5350    0.0000 H   0  0  0  0  0  0  0  0  0  0  0  0
    3.4030   -0.2250    0.0000 H   0  0  0  0  0  0  0  0  0  0  0  0
    5.1350   -0.2250    0.0000 H   0  0  0  0  0  0  0  0  0  0  0  0
    1.9264   -0.2373    0.0000 H   0  0  0  0  0  0  0  0  0  0  0  0
    2.3249   -0.9276    0.0000 H   0  0  0  0  0  0  0  0  0  0  0  0
    3.7320   -3.6550    0.0000 H   0  0  0  0  0  0  0  0  0  0  0  0
    2.0000   -2.0350    0.0000 H   0  0  0  0  0  0  0  0  0  0  0  0
    6.5380   -2.0350    0.0000 H   0  0  0  0  0  0  0  0  0  0  0  0
    4.5244    1.2627    0.0000 H   0  0  0  0  0  0  0  0  0  0  0  0
    4.9230    0.5724    0.0000 H   0  0  0  0  0  0  0  0  0  0  0  0
    2.0000    0.9650    0.0000 H   0  0  0  0  0  0  0  0  0  0  0  0
    5.1350    2.7750    0.0000 H   0  0  0  0  0  0  0  0  0  0  0  0
    6.5380    2.3450    0.0000 H   0  0  0  0  0  0  0  0  0  0  0  0
    4.2690    3.2750    0.0000 H   0  0  0  0  0  0  0  0  0  0  0  0
    6.5380    3.9650    0.0000 H   0  0  0  0  0  0  0  0  0  0  0  0
    5.4641    3.9650    0.0000 H   0  0  0  0  0  0  0  0  0  0  0  0
    8.4091    2.5580    0.0000 H   0  0  0  0  0  0  0  0  0  0  0  0
  1 18  1  0  0  0  0
  1 20  1  0  0  0  0
  2  9  1  0  0  0  0
  2 10  1  0  0  0  0
  2 11  2  0  0  0  0
  2 12  2  0  0  0  0
  3 17  1  0  0  0  0
  3 18  1  0  0  0  0
  4 14  1  0  0  0  0
  4 32  1  0  0  0  0
  5 15  1  0  0  0  0
  5 33  1  0  0  0  0
  6 16  1  0  0  0  0
  6 34  1  0  0  0  0
  7 19  1  0  0  0  0
  7 37  1  0  0  0  0
  8 22  1  0  0  0  0
  8 40  1  0  0  0  0
  9 13  1  0  0  0  0
 10 43  1  0  0  0  0
 13 20  2  0  0  0  0
 14 15  1  0  0  0  0
 14 16  1  0  0  0  0
 14 25  1  0  0  0  0
 15 17  1  0  0  0  0
 15 26  1  0  0  0  0
 16 18  1  0  0  0  0
 16 27  1  0  0  0  0
 17 19  1  0  0  0  0
 17 28  1  0  0  0  0
 18 29  1  0  0  0  0
 19 30  1  0  0  0  0
 19 31  1  0  0  0  0
 20 21  1  0  0  0  0
 21 22  1  0  0  0  0
 21 35  1  0  0  0  0
 21 36  1  0  0  0  0
 22 23  1  0  0  0  0
 22 38  1  0  0  0  0
 23 24  2  0  0  0  0
 23 39  1  0  0  0  0
 24 41  1  0  0  0  0
 24 42  1  0  0  0  0
M  END
>  <PUBCHEM_COMPOUND_CID>
6122988

>  <PUBCHEM_COMPOUND_CANONICALIZED>
1

>  <PUBCHEM_CACTVS_COMPLEXITY>
548

>  <PUBCHEM_CACTVS_HBOND_ACCEPTOR>
12

>  <PUBCHEM_CACTVS_HBOND_DONOR>
6

>  <PUBCHEM_CACTVS_ROTATABLE_BOND>
8

>  <PUBCHEM_CACTVS_SUBSKEYS>
AAADceByPABgAAAAAAAAAAAAAAAAAAAAAAAkAAAAAAAAAAAAAAAAHgQECAAACBSlwAKAAAAQBoigACBiADAAAAAgABAIAAAwAAgBFAIgAQACQAAFgAAjEAHAYAQAAAAAAAAAAAAAAAAAAAAAAAAAAAAAAA==

>  <PUBCHEM_IUPAC_OPENEYE_NAME>
[3,4,5-trihydroxy-6-(hydroxymethyl)tetrahydropyran-2-yl] (1Z)-3-hydroxy-N-sulfooxy-pent-4-enimidothioate

>  <PUBCHEM_IUPAC_CAS_NAME>
(1Z)-3-hydroxy-N-sulfooxy-4-pentenimidothioic acid [3,4,5-trihydroxy-6-(hydroxymethyl)-2-oxanyl] ester

>  <PUBCHEM_IUPAC_NAME>
[3,4,5-trihydroxy-6-(hydroxymethyl)oxan-2-yl] (1Z)-3-hydroxy-N-sulfooxypent-4-enimidothioate

>  <PUBCHEM_IUPAC_SYSTEMATIC_NAME>
[6-(hydroxymethyl)-3,4,5-tris(oxidanyl)oxan-2-yl] (1Z)-3-oxidanyl-N-sulfooxy-pent-4-enimidothioate

>  <PUBCHEM_IUPAC_TRADITIONAL_NAME>
(1Z)-3-hydroxy-N-sulfoxy-pent-4-enimidothioic acid (3,4,5-trihydroxy-6-methylol-tetrahydropyran-2-yl) ester

>  <PUBCHEM_IUPAC_INCHI>
InChI=1S/C11H19NO10S2/c1-2-5(14)3-7(12-22-24(18,19)20)23-11-10(17)9(16)8(15)6(4-13)21-11/h2,5-6,8-11,13-17H,1,3-4H2,(H,18,19,20)/b12-7-

>  <PUBCHEM_IUPAC_INCHIKEY>
MYHSVHWQEVDFQT-GHXNOFRVSA-N

>  <PUBCHEM_XLOGP3_AA>
-1.9

>  <PUBCHEM_EXACT_MASS>
389.045

>  <PUBCHEM_MOLECULAR_FORMULA>
C11H19NO10S2

>  <PUBCHEM_MOLECULAR_WEIGHT>
389.39

>  <PUBCHEM_OPENEYE_CAN_SMILES>
C=CC(CC(=NOS(=O)(=O)O)SC1C(C(C(C(O1)CO)O)O)O)O

>  <PUBCHEM_OPENEYE_ISO_SMILES>
C=CC(C/C(=N/OS(=O)(=O)O)/SC1C(C(C(C(O1)CO)O)O)O)O

>  <PUBCHEM_CACTVS_TPSA>
220

>  <PUBCHEM_MONOISOTOPIC_WEIGHT>
389.045

>  <PUBCHEM_TOTAL_CHARGE>
0

>  <PUBCHEM_HEAVY_ATOM_COUNT>
24

>  <PUBCHEM_ATOM_DEF_STEREO_COUNT>
0

>  <PUBCHEM_ATOM_UDEF_STEREO_COUNT>
6

>  <PUBCHEM_BOND_DEF_STEREO_COUNT>
1

>  <PUBCHEM_BOND_UDEF_STEREO_COUNT>
0

>  <PUBCHEM_ISOTOPIC_ATOM_COUNT>
0

>  <PUBCHEM_COMPONENT_COUNT>
1

>  <PUBCHEM_CACTVS_TAUTO_COUNT>
2

>  <PUBCHEM_COORDINATE_TYPE>
1
5
255

>  <PUBCHEM_BONDANNOTATIONS>
18  1  3
17  19  3
14  4  3
15  5  3
16  6  3
22  8  3

$$$$
