61275
 OpenBabel06101807152D

 27 27  0  0  1  0  0  0  0  0999 V2000
    4.5981   -0.7500    0.0000 O   0  0  0  0  0  0  0  0  0  0  0  0
    3.7320   -0.2500    0.0000 C   0  0  3  0  0  0  0  0  0  0  0  0
    3.7320    0.7500    0.0000 C   0  0  0  0  0  0  0  0  0  0  0  0
    4.5981    1.2500    0.0000 C   0  0  0  0  0  0  0  0  0  0  0  0
    5.4641   -0.2500    0.0000 C   0  0  0  0  0  0  0  0  0  0  0  0
    2.8660   -0.7500    0.0000 C   0  0  0  0  0  0  0  0  0  0  0  0
    5.4641    0.7500    0.0000 C   0  0  0  0  0  0  0  0  0  0  0  0
    2.8660   -1.7500    0.0000 C   0  0  0  0  0  0  0  0  0  0  0  0
    4.5981    2.2500    0.0000 C   0  0  0  0  0  0  0  0  0  0  0  0
    2.0000   -2.2500    0.0000 C   0  0  0  0  0  0  0  0  0  0  0  0
    3.7320   -2.2500    0.0000 C   0  0  0  0  0  0  0  0  0  0  0  0
    3.7320   -1.1000    0.0000 H   0  0  0  0  0  0  0  0  0  0  0  0
    3.5200    1.3326    0.0000 H   0  0  0  0  0  0  0  0  0  0  0  0
    3.1215    0.6423    0.0000 H   0  0  0  0  0  0  0  0  0  0  0  0
    2.3291   -0.4400    0.0000 H   0  0  0  0  0  0  0  0  0  0  0  0
    5.6762   -0.8326    0.0000 H   0  0  0  0  0  0  0  0  0  0  0  0
    6.0747   -0.1423    0.0000 H   0  0  0  0  0  0  0  0  0  0  0  0
    6.0010    1.0600    0.0000 H   0  0  0  0  0  0  0  0  0  0  0  0
    5.2181    2.2500    0.0000 H   0  0  0  0  0  0  0  0  0  0  0  0
    4.5981    2.8700    0.0000 H   0  0  0  0  0  0  0  0  0  0  0  0
    3.9781    2.2500    0.0000 H   0  0  0  0  0  0  0  0  0  0  0  0
    1.6900   -1.7131    0.0000 H   0  0  0  0  0  0  0  0  0  0  0  0
    1.4631   -2.5600    0.0000 H   0  0  0  0  0  0  0  0  0  0  0  0
    2.3100   -2.7869    0.0000 H   0  0  0  0  0  0  0  0  0  0  0  0
    3.4220   -2.7869    0.0000 H   0  0  0  0  0  0  0  0  0  0  0  0
    4.2690   -2.5600    0.0000 H   0  0  0  0  0  0  0  0  0  0  0  0
    4.0420   -1.7131    0.0000 H   0  0  0  0  0  0  0  0  0  0  0  0
  1  2  1  0  0  0  0
  1  5  1  0  0  0  0
  2  3  1  0  0  0  0
  2  6  1  0  0  0  0
  2 12  1  0  0  0  0
  3  4  1  0  0  0  0
  3 13  1  0  0  0  0
  3 14  1  0  0  0  0
  4  7  2  0  0  0  0
  4  9  1  0  0  0  0
  5  7  1  0  0  0  0
  5 16  1  0  0  0  0
  5 17  1  0  0  0  0
  6  8  2  0  0  0  0
  6 15  1  0  0  0  0
  7 18  1  0  0  0  0
  8 10  1  0  0  0  0
  8 11  1  0  0  0  0
  9 19  1  0  0  0  0
  9 20  1  0  0  0  0
  9 21  1  0  0  0  0
 10 22  1  0  0  0  0
 10 23  1  0  0  0  0
 10 24  1  0  0  0  0
 11 25  1  0  0  0  0
 11 26  1  0  0  0  0
 11 27  1  0  0  0  0
M  END
>  <PUBCHEM_COMPOUND_CID>
61275

>  <PUBCHEM_COMPOUND_CANONICALIZED>
1

>  <PUBCHEM_CACTVS_COMPLEXITY>
185

>  <PUBCHEM_CACTVS_HBOND_ACCEPTOR>
1

>  <PUBCHEM_CACTVS_HBOND_DONOR>
0

>  <PUBCHEM_CACTVS_ROTATABLE_BOND>
1

>  <PUBCHEM_CACTVS_SUBSKEYS>
AAADceBwIAAAAAAAAAAAAAAAAAAAAAAAAAAgAAAAAAAAAAAAAAAAGgAAAAAADBSggAICAAAABACAAiBCAAAAAAAgAAAACAAAAAgABAIAIQACEAAEwAAIIAIAAAAAAAAAAAAAAAAAAAAAAAAAAAAAAAAAAA==

>  <PUBCHEM_IUPAC_OPENEYE_NAME>
4-methyl-2-(2-methylprop-1-enyl)-3,6-dihydro-2H-pyran

>  <PUBCHEM_IUPAC_CAS_NAME>
4-methyl-2-(2-methylprop-1-enyl)-3,6-dihydro-2H-pyran

>  <PUBCHEM_IUPAC_NAME>
4-methyl-2-(2-methylprop-1-enyl)-3,6-dihydro-2H-pyran

>  <PUBCHEM_IUPAC_SYSTEMATIC_NAME>
4-methyl-2-(2-methylprop-1-enyl)-3,6-dihydro-2H-pyran

>  <PUBCHEM_IUPAC_TRADITIONAL_NAME>
4-methyl-2-(2-methylprop-1-enyl)-3,6-dihydro-2H-pyran

>  <PUBCHEM_IUPAC_INCHI>
InChI=1S/C10H16O/c1-8(2)6-10-7-9(3)4-5-11-10/h4,6,10H,5,7H2,1-3H3

>  <PUBCHEM_IUPAC_INCHIKEY>
FRISMOQHTLZZRP-UHFFFAOYSA-N

>  <PUBCHEM_XLOGP3_AA>
2.2

>  <PUBCHEM_EXACT_MASS>
152.12

>  <PUBCHEM_MOLECULAR_FORMULA>
C10H16O

>  <PUBCHEM_MOLECULAR_WEIGHT>
152.237

>  <PUBCHEM_OPENEYE_CAN_SMILES>
CC1=CCOC(C1)C=C(C)C

>  <PUBCHEM_OPENEYE_ISO_SMILES>
CC1=CCOC(C1)C=C(C)C

>  <PUBCHEM_CACTVS_TPSA>
9.2

>  <PUBCHEM_MONOISOTOPIC_WEIGHT>
152.12

>  <PUBCHEM_TOTAL_CHARGE>
0

>  <PUBCHEM_HEAVY_ATOM_COUNT>
11

>  <PUBCHEM_ATOM_DEF_STEREO_COUNT>
0

>  <PUBCHEM_ATOM_UDEF_STEREO_COUNT>
1

>  <PUBCHEM_BOND_DEF_STEREO_COUNT>
0

>  <PUBCHEM_BOND_UDEF_STEREO_COUNT>
0

>  <PUBCHEM_ISOTOPIC_ATOM_COUNT>
0

>  <PUBCHEM_COMPONENT_COUNT>
1

>  <PUBCHEM_CACTVS_TAUTO_COUNT>
1

>  <PUBCHEM_COORDINATE_TYPE>
1
5
255

>  <PUBCHEM_BONDANNOTATIONS>
2  12  3

$$$$
