6148082
 OpenBabel06101807152D

 42 43  0  0  1  0  0  0  0  0999 V2000
    5.1350   -1.6550    0.0000 O   0  0  0  0  0  0  0  0  0  0  0  0
    6.8671   -1.6550    0.0000 O   0  0  0  0  0  0  0  0  0  0  0  0
    5.1350   -4.6550    0.0000 O   0  0  0  0  0  0  0  0  0  0  0  0
    3.4030   -3.6550    0.0000 O   0  0  0  0  0  0  0  0  0  0  0  0
    6.8671   -3.6550    0.0000 O   0  0  0  0  0  0  0  0  0  0  0  0
    2.5369   -2.1550    0.0000 O   0  0  0  0  0  0  0  0  0  0  0  0
    8.5991   -0.6550    0.0000 O   0  0  0  0  0  0  0  0  0  0  0  0
    8.5991    4.3450    0.0000 O   0  0  0  0  0  0  0  0  0  0  0  0
    6.8671    4.3450    0.0000 O   0  0  0  0  0  0  0  0  0  0  0  0
    5.1350   -3.6550    0.0000 C   0  0  3  0  0  0  0  0  0  0  0  0
    4.2690   -3.1550    0.0000 C   0  0  3  0  0  0  0  0  0  0  0  0
    6.0010   -3.1550    0.0000 C   0  0  3  0  0  0  0  0  0  0  0  0
    4.2690   -2.1550    0.0000 C   0  0  3  0  0  0  0  0  0  0  0  0
    6.0010   -2.1550    0.0000 C   0  0  3  0  0  0  0  0  0  0  0  0
    3.4030   -1.6550    0.0000 C   0  0  0  0  0  0  0  0  0  0  0  0
    6.8671   -0.6550    0.0000 C   0  0  0  0  0  0  0  0  0  0  0  0
    7.7331   -0.1550    0.0000 C   0  0  0  0  0  0  0  0  0  0  0  0
    6.0010   -0.1550    0.0000 C   0  0  0  0  0  0  0  0  0  0  0  0
    7.7331    0.8450    0.0000 C   0  0  0  0  0  0  0  0  0  0  0  0
    6.0010    0.8450    0.0000 C   0  0  0  0  0  0  0  0  0  0  0  0
    6.8671    1.3450    0.0000 C   0  0  0  0  0  0  0  0  0  0  0  0
    6.8671    2.3450    0.0000 C   0  0  0  0  0  0  0  0  0  0  0  0
    7.7331    2.8450    0.0000 C   0  0  0  0  0  0  0  0  0  0  0  0
    7.7331    3.8450    0.0000 C   0  0  0  0  0  0  0  0  0  0  0  0
    5.8711   -4.0800    0.0000 H   0  0  0  0  0  0  0  0  0  0  0  0
    4.2690   -4.0050    0.0000 H   0  0  0  0  0  0  0  0  0  0  0  0
    6.7372   -2.7300    0.0000 H   0  0  0  0  0  0  0  0  0  0  0  0
    4.2690   -1.3050    0.0000 H   0  0  0  0  0  0  0  0  0  0  0  0
    6.0010   -1.3050    0.0000 H   0  0  0  0  0  0  0  0  0  0  0  0
    3.8015   -1.1800    0.0000 H   0  0  0  0  0  0  0  0  0  0  0  0
    3.0044   -1.1800    0.0000 H   0  0  0  0  0  0  0  0  0  0  0  0
    4.5981   -4.9650    0.0000 H   0  0  0  0  0  0  0  0  0  0  0  0
    3.4030   -4.2750    0.0000 H   0  0  0  0  0  0  0  0  0  0  0  0
    6.8671   -4.2750    0.0000 H   0  0  0  0  0  0  0  0  0  0  0  0
    2.0000   -1.8450    0.0000 H   0  0  0  0  0  0  0  0  0  0  0  0
    5.4641   -0.4650    0.0000 H   0  0  0  0  0  0  0  0  0  0  0  0
    8.2700    1.1550    0.0000 H   0  0  0  0  0  0  0  0  0  0  0  0
    5.4641    1.1550    0.0000 H   0  0  0  0  0  0  0  0  0  0  0  0
    9.1360   -0.3450    0.0000 H   0  0  0  0  0  0  0  0  0  0  0  0
    6.3301    2.6550    0.0000 H   0  0  0  0  0  0  0  0  0  0  0  0
    8.2700    2.5350    0.0000 H   0  0  0  0  0  0  0  0  0  0  0  0
    8.5991    4.9650    0.0000 H   0  0  0  0  0  0  0  0  0  0  0  0
  1 13  1  0  0  0  0
  1 14  1  0  0  0  0
  2 14  1  0  0  0  0
  2 16  1  0  0  0  0
  3 10  1  0  0  0  0
  3 32  1  0  0  0  0
  4 11  1  0  0  0  0
  4 33  1  0  0  0  0
  5 12  1  0  0  0  0
  5 34  1  0  0  0  0
  6 15  1  0  0  0  0
  6 35  1  0  0  0  0
  7 17  1  0  0  0  0
  7 39  1  0  0  0  0
  8 24  1  0  0  0  0
  8 42  1  0  0  0  0
  9 24  2  0  0  0  0
 10 11  1  0  0  0  0
 10 12  1  0  0  0  0
 10 25  1  0  0  0  0
 11 13  1  0  0  0  0
 11 26  1  0  0  0  0
 12 14  1  0  0  0  0
 12 27  1  0  0  0  0
 13 15  1  0  0  0  0
 13 28  1  0  0  0  0
 14 29  1  0  0  0  0
 15 30  1  0  0  0  0
 15 31  1  0  0  0  0
 16 17  2  0  0  0  0
 16 18  1  0  0  0  0
 17 19  1  0  0  0  0
 18 20  2  0  0  0  0
 18 36  1  0  0  0  0
 19 21  2  0  0  0  0
 19 37  1  0  0  0  0
 20 21  1  0  0  0  0
 20 38  1  0  0  0  0
 21 22  1  0  0  0  0
 22 23  2  0  0  0  0
 22 40  1  0  0  0  0
 23 24  1  0  0  0  0
 23 41  1  0  0  0  0
M  END
>  <PUBCHEM_COMPOUND_CID>
6148082

>  <PUBCHEM_COMPOUND_CANONICALIZED>
1

>  <PUBCHEM_CACTVS_COMPLEXITY>
454

>  <PUBCHEM_CACTVS_HBOND_ACCEPTOR>
9

>  <PUBCHEM_CACTVS_HBOND_DONOR>
6

>  <PUBCHEM_CACTVS_ROTATABLE_BOND>
5

>  <PUBCHEM_CACTVS_SUBSKEYS>
AAADceBwPAAAAAAAAAAAAAAAAAAAAAAAAAA0QAAAAAAAAAABAAAAGgAACAAADBSwmAMwDoAABgCIAiDSCAACCAAgIAAIiAAGiMgdNiKGMRqieCOlwBEPuYfA4BwOIAABAAAAQABAAAIAAACAAAAAAAAAAA==

>  <PUBCHEM_IUPAC_OPENEYE_NAME>
(E)-3-[3-hydroxy-4-[3,4,5-trihydroxy-6-(hydroxymethyl)tetrahydropyran-2-yl]oxy-phenyl]prop-2-enoic acid

>  <PUBCHEM_IUPAC_CAS_NAME>
(E)-3-[3-hydroxy-4-[[3,4,5-trihydroxy-6-(hydroxymethyl)-2-oxanyl]oxy]phenyl]-2-propenoic acid

>  <PUBCHEM_IUPAC_NAME>
(E)-3-[3-hydroxy-4-[3,4,5-trihydroxy-6-(hydroxymethyl)oxan-2-yl]oxyphenyl]prop-2-enoic acid

>  <PUBCHEM_IUPAC_SYSTEMATIC_NAME>
(E)-3-[4-[6-(hydroxymethyl)-3,4,5-tris(oxidanyl)oxan-2-yl]oxy-3-oxidanyl-phenyl]prop-2-enoic acid

>  <PUBCHEM_IUPAC_TRADITIONAL_NAME>
(E)-3-[3-hydroxy-4-(3,4,5-trihydroxy-6-methylol-tetrahydropyran-2-yl)oxy-phenyl]acrylic acid

>  <PUBCHEM_IUPAC_INCHI>
InChI=1S/C15H18O9/c16-6-10-12(20)13(21)14(22)15(24-10)23-9-3-1-7(5-8(9)17)2-4-11(18)19/h1-5,10,12-17,20-22H,6H2,(H,18,19)/b4-2+

>  <PUBCHEM_IUPAC_INCHIKEY>
OHEYCHKLBCPRLZ-DUXPYHPUSA-N

>  <PUBCHEM_XLOGP3>
-1.4

>  <PUBCHEM_EXACT_MASS>
342.095

>  <PUBCHEM_MOLECULAR_FORMULA>
C15H18O9

>  <PUBCHEM_MOLECULAR_WEIGHT>
342.3

>  <PUBCHEM_OPENEYE_CAN_SMILES>
C1=CC(=C(C=C1C=CC(=O)O)O)OC2C(C(C(C(O2)CO)O)O)O

>  <PUBCHEM_OPENEYE_ISO_SMILES>
C1=CC(=C(C=C1/C=C/C(=O)O)O)OC2C(C(C(C(O2)CO)O)O)O

>  <PUBCHEM_CACTVS_TPSA>
157

>  <PUBCHEM_MONOISOTOPIC_WEIGHT>
342.095

>  <PUBCHEM_TOTAL_CHARGE>
0

>  <PUBCHEM_HEAVY_ATOM_COUNT>
24

>  <PUBCHEM_ATOM_DEF_STEREO_COUNT>
0

>  <PUBCHEM_ATOM_UDEF_STEREO_COUNT>
5

>  <PUBCHEM_BOND_DEF_STEREO_COUNT>
1

>  <PUBCHEM_BOND_UDEF_STEREO_COUNT>
0

>  <PUBCHEM_ISOTOPIC_ATOM_COUNT>
0

>  <PUBCHEM_COMPONENT_COUNT>
1

>  <PUBCHEM_CACTVS_TAUTO_COUNT>
3

>  <PUBCHEM_COORDINATE_TYPE>
1
5
255

>  <PUBCHEM_BONDANNOTATIONS>
10  25  3
11  26  3
12  27  3
13  28  3
14  29  3
16  17  8
16  18  8
17  19  8
18  20  8
19  21  8
20  21  8

$$$$
