618370
 OpenBabel06101807152D

 33 35  0  0  0  0  0  0  0  0999 V2000
    3.9061   -1.5693    0.0000 O   0  0  0  0  0  0  0  0  0  0  0  0
    5.6500    1.5069    0.0000 O   0  0  0  0  0  0  0  0  0  0  0  0
    5.6660   -2.5346    0.0000 O   0  0  0  0  0  0  0  0  0  0  0  0
    6.5442    3.0346    0.0000 O   0  0  0  0  0  0  0  0  0  0  0  0
    3.0000   -1.0554    0.0000 C   0  0  0  0  0  0  0  0  0  0  0  0
    4.8000   -0.0346    0.0000 C   0  0  0  0  0  0  0  0  0  0  0  0
    4.8000   -1.0346    0.0000 C   0  0  0  0  0  0  0  0  0  0  0  0
    3.0000   -0.0138    0.0000 C   0  0  0  0  0  0  0  0  0  0  0  0
    2.0000   -1.0593    0.0000 C   0  0  0  0  0  0  0  0  0  0  0  0
    2.5033   -1.9234    0.0000 C   0  0  0  0  0  0  0  0  0  0  0  0
    3.9061    0.5000    0.0000 C   0  0  0  0  0  0  0  0  0  0  0  0
    5.6660    0.4654    0.0000 C   0  0  0  0  0  0  0  0  0  0  0  0
    5.6660   -1.5346    0.0000 C   0  0  0  0  0  0  0  0  0  0  0  0
    6.5320   -0.0346    0.0000 C   0  0  0  0  0  0  0  0  0  0  0  0
    6.5320   -1.0346    0.0000 C   0  0  0  0  0  0  0  0  0  0  0  0
    7.4420    0.4722    0.0000 C   0  0  0  0  0  0  0  0  0  0  0  0
    7.4501    1.5138    0.0000 C   0  0  0  0  0  0  0  0  0  0  0  0
    6.5480    2.0346    0.0000 C   0  0  0  0  0  0  0  0  0  0  0  0
    6.5320   -3.0346    0.0000 C   0  0  0  0  0  0  0  0  0  0  0  0
    2.4643    0.2983    0.0000 H   0  0  0  0  0  0  0  0  0  0  0  0
    1.9652   -1.6155    0.0000 H   0  0  0  0  0  0  0  0  0  0  0  0
    2.1954   -2.4615    0.0000 H   0  0  0  0  0  0  0  0  0  0  0  0
    3.0415   -2.2313    0.0000 H   0  0  0  0  0  0  0  0  0  0  0  0
    1.9976   -0.4393    0.0000 H   0  0  0  0  0  0  0  0  0  0  0  0
    1.3800   -1.0617    0.0000 H   0  0  0  0  0  0  0  0  0  0  0  0
    2.0024   -1.6793    0.0000 H   0  0  0  0  0  0  0  0  0  0  0  0
    3.9132    1.1200    0.0000 H   0  0  0  0  0  0  0  0  0  0  0  0
    7.0690   -1.3446    0.0000 H   0  0  0  0  0  0  0  0  0  0  0  0
    7.9754    0.1560    0.0000 H   0  0  0  0  0  0  0  0  0  0  0  0
    7.9882    1.8218    0.0000 H   0  0  0  0  0  0  0  0  0  0  0  0
    6.2220   -3.5716    0.0000 H   0  0  0  0  0  0  0  0  0  0  0  0
    7.0690   -3.3446    0.0000 H   0  0  0  0  0  0  0  0  0  0  0  0
    6.8420   -2.4977    0.0000 H   0  0  0  0  0  0  0  0  0  0  0  0
  1  5  1  0  0  0  0
  1  7  1  0  0  0  0
  2 12  1  0  0  0  0
  2 18  1  0  0  0  0
  3 13  1  0  0  0  0
  3 19  1  0  0  0  0
  4 18  2  0  0  0  0
  5  8  1  0  0  0  0
  5  9  1  0  0  0  0
  5 10  1  0  0  0  0
  6  7  1  0  0  0  0
  6 11  1  0  0  0  0
  6 12  2  0  0  0  0
  7 13  2  0  0  0  0
  8 11  2  0  0  0  0
  8 20  1  0  0  0  0
  9 24  1  0  0  0  0
  9 25  1  0  0  0  0
  9 26  1  0  0  0  0
 10 21  1  0  0  0  0
 10 22  1  0  0  0  0
 10 23  1  0  0  0  0
 11 27  1  0  0  0  0
 12 14  1  0  0  0  0
 13 15  1  0  0  0  0
 14 15  2  0  0  0  0
 14 16  1  0  0  0  0
 15 28  1  0  0  0  0
 16 17  2  0  0  0  0
 16 29  1  0  0  0  0
 17 18  1  0  0  0  0
 17 30  1  0  0  0  0
 19 31  1  0  0  0  0
 19 32  1  0  0  0  0
 19 33  1  0  0  0  0
M  END
>  <PUBCHEM_COMPOUND_CID>
618370

>  <PUBCHEM_COMPOUND_CANONICALIZED>
1

>  <PUBCHEM_CACTVS_COMPLEXITY>
437

>  <PUBCHEM_CACTVS_HBOND_ACCEPTOR>
4

>  <PUBCHEM_CACTVS_HBOND_DONOR>
0

>  <PUBCHEM_CACTVS_ROTATABLE_BOND>
1

>  <PUBCHEM_CACTVS_SUBSKEYS>
AAADccBwOAAAAAAAAAAAAAAAAAAAAAAAAAAwQIAAAAAAAACBAAAAGgAAAAAADESAmAIyDoAABACIAiDSCAACCAAgIAAIiAAGiMgNJyKEMRqCOiKlwBUKqYfA4HwOIQADCAAIQABCAAYQABCAAAAAAAAAAA==

>  <PUBCHEM_IUPAC_OPENEYE_NAME>
6-methoxy-8,8-dimethyl-pyrano[2,3-f]chromen-2-one

>  <PUBCHEM_IUPAC_CAS_NAME>
6-methoxy-8,8-dimethyl-2-pyrano[2,3-f][1]benzopyranone

>  <PUBCHEM_IUPAC_NAME>
6-methoxy-8,8-dimethylpyrano[2,3-f]chromen-2-one

>  <PUBCHEM_IUPAC_SYSTEMATIC_NAME>
6-methoxy-8,8-dimethyl-pyrano[2,3-f]chromen-2-one

>  <PUBCHEM_IUPAC_TRADITIONAL_NAME>
6-methoxy-8,8-dimethyl-pyrano[2,3-f]chromen-2-one

>  <PUBCHEM_IUPAC_INCHI>
InChI=1S/C15H14O4/c1-15(2)7-6-10-13-9(4-5-12(16)18-13)8-11(17-3)14(10)19-15/h4-8H,1-3H3

>  <PUBCHEM_IUPAC_INCHIKEY>
UOFNVZWWIXXTMZ-UHFFFAOYSA-N

>  <PUBCHEM_XLOGP3_AA>
2.8

>  <PUBCHEM_EXACT_MASS>
258.089

>  <PUBCHEM_MOLECULAR_FORMULA>
C15H14O4

>  <PUBCHEM_MOLECULAR_WEIGHT>
258.273

>  <PUBCHEM_OPENEYE_CAN_SMILES>
CC1(C=CC2=C3C(=CC(=C2O1)OC)C=CC(=O)O3)C

>  <PUBCHEM_OPENEYE_ISO_SMILES>
CC1(C=CC2=C3C(=CC(=C2O1)OC)C=CC(=O)O3)C

>  <PUBCHEM_CACTVS_TPSA>
44.8

>  <PUBCHEM_MONOISOTOPIC_WEIGHT>
258.089

>  <PUBCHEM_TOTAL_CHARGE>
0

>  <PUBCHEM_HEAVY_ATOM_COUNT>
19

>  <PUBCHEM_ATOM_DEF_STEREO_COUNT>
0

>  <PUBCHEM_ATOM_UDEF_STEREO_COUNT>
0

>  <PUBCHEM_BOND_DEF_STEREO_COUNT>
0

>  <PUBCHEM_BOND_UDEF_STEREO_COUNT>
0

>  <PUBCHEM_ISOTOPIC_ATOM_COUNT>
0

>  <PUBCHEM_COMPONENT_COUNT>
1

>  <PUBCHEM_CACTVS_TAUTO_COUNT>
1

>  <PUBCHEM_COORDINATE_TYPE>
1
5
255

>  <PUBCHEM_BONDANNOTATIONS>
12  14  8
13  15  8
14  15  8
14  16  8
16  17  8
17  18  8
2  12  8
2  18  8
6  12  8
6  7  8
7  13  8

$$$$
