619168
 OpenBabel06101807152D

 80 84  0  0  1  0  0  0  0  0999 V2000
   10.0571    0.4932    0.0000 O   0  0  0  0  0  0  0  0  0  0  0  0
    9.2027   -1.0134    0.0000 O   0  0  0  0  0  0  0  0  0  0  0  0
    5.6591   -1.0410    0.0000 C   0  0  3  0  0  0  0  0  0  0  0  0
    4.7931   -0.5410    0.0000 C   0  0  3  0  0  0  0  0  0  0  0  0
    3.8831   -1.0478    0.0000 C   0  0  3  0  0  0  0  0  0  0  0  0
    6.5251   -0.5410    0.0000 C   0  0  3  0  0  0  0  0  0  0  0  0
    3.8751   -2.0894    0.0000 C   0  0  3  0  0  0  0  0  0  0  0  0
    5.6752   -2.0825    0.0000 C   0  0  0  0  0  0  0  0  0  0  0  0
    6.5251    0.4590    0.0000 C   0  0  0  0  0  0  0  0  0  0  0  0
    4.7771   -2.6102    0.0000 C   0  0  0  0  0  0  0  0  0  0  0  0
    2.9396   -2.6391    0.0000 C   0  0  0  0  0  0  0  0  0  0  0  0
    7.4191    0.9937    0.0000 C   0  0  3  0  0  0  0  0  0  0  0  0
    4.7931    0.4590    0.0000 C   0  0  0  0  0  0  0  0  0  0  0  0
    7.4191   -1.0756    0.0000 C   0  0  0  0  0  0  0  0  0  0  0  0
    2.9562   -0.4837    0.0000 C   0  0  0  0  0  0  0  0  0  0  0  0
    8.3252    0.4799    0.0000 C   0  0  3  0  0  0  0  0  0  0  0  0
    6.3019   -1.8070    0.0000 C   0  0  0  0  0  0  0  0  0  0  0  0
    8.3252   -0.5618    0.0000 C   0  0  0  0  0  0  0  0  0  0  0  0
    5.6591    0.9590    0.0000 C   0  0  0  0  0  0  0  0  0  0  0  0
    3.8908   -0.0478    0.0000 C   0  0  0  0  0  0  0  0  0  0  0  0
    2.0000   -2.0966    0.0000 C   0  0  0  0  0  0  0  0  0  0  0  0
    6.8672   -1.4806    0.0000 C   0  0  0  0  0  0  0  0  0  0  0  0
    2.0084   -1.0117    0.0000 C   0  0  0  0  0  0  0  0  0  0  0  0
    7.3940    2.0784    0.0000 C   0  0  0  0  0  0  0  0  0  0  0  0
    9.2689    1.0151    0.0000 C   0  0  0  0  0  0  0  0  0  0  0  0
    8.3252    2.6353    0.0000 C   0  0  0  0  0  0  0  0  0  0  0  0
    9.2689    2.1001    0.0000 C   0  0  0  0  0  0  0  0  0  0  0  0
    2.4430   -3.5071    0.0000 C   0  0  0  0  0  0  0  0  0  0  0  0
    3.4430   -3.5032    0.0000 C   0  0  0  0  0  0  0  0  0  0  0  0
    9.1950   -0.0135    0.0000 C   0  0  0  0  0  0  0  0  0  0  0  0
    8.8151    3.5071    0.0000 C   0  0  0  0  0  0  0  0  0  0  0  0
    7.8152    3.4955    0.0000 C   0  0  0  0  0  0  0  0  0  0  0  0
    5.3300   -0.2310    0.0000 H   0  0  0  0  0  0  0  0  0  0  0  0
    3.8774   -2.7094    0.0000 H   0  0  0  0  0  0  0  0  0  0  0  0
    5.8932   -2.6629    0.0000 H   0  0  0  0  0  0  0  0  0  0  0  0
    6.2843   -1.9670    0.0000 H   0  0  0  0  0  0  0  0  0  0  0  0
    4.3798   -3.0862    0.0000 H   0  0  0  0  0  0  0  0  0  0  0  0
    5.1781   -3.0831    0.0000 H   0  0  0  0  0  0  0  0  0  0  0  0
    7.9512    1.3119    0.0000 H   0  0  0  0  0  0  0  0  0  0  0  0
    4.5810    1.0416    0.0000 H   0  0  0  0  0  0  0  0  0  0  0  0
    4.1825    0.3514    0.0000 H   0  0  0  0  0  0  0  0  0  0  0  0
    7.0145   -1.5454    0.0000 H   0  0  0  0  0  0  0  0  0  0  0  0
    7.8127   -1.5546    0.0000 H   0  0  0  0  0  0  0  0  0  0  0  0
    3.3645   -0.0171    0.0000 H   0  0  0  0  0  0  0  0  0  0  0  0
    2.5663   -0.0017    0.0000 H   0  0  0  0  0  0  0  0  0  0  0  0
    8.5342   -1.1455    0.0000 H   0  0  0  0  0  0  0  0  0  0  0  0
    8.9360   -0.4557    0.0000 H   0  0  0  0  0  0  0  0  0  0  0  0
    5.8270   -2.2055    0.0000 H   0  0  0  0  0  0  0  0  0  0  0  0
    6.7004   -2.2820    0.0000 H   0  0  0  0  0  0  0  0  0  0  0  0
    6.7768   -1.4085    0.0000 H   0  0  0  0  0  0  0  0  0  0  0  0
    5.6591    1.5790    0.0000 H   0  0  0  0  0  0  0  0  0  0  0  0
    4.5108   -0.0526    0.0000 H   0  0  0  0  0  0  0  0  0  0  0  0
    3.8956    0.5721    0.0000 H   0  0  0  0  0  0  0  0  0  0  0  0
    3.2708   -0.0431    0.0000 H   0  0  0  0  0  0  0  0  0  0  0  0
    1.3900   -1.9858    0.0000 H   0  0  0  0  0  0  0  0  0  0  0  0
    1.7864   -2.6787    0.0000 H   0  0  0  0  0  0  0  0  0  0  0  0
    6.2847   -1.6927    0.0000 H   0  0  0  0  0  0  0  0  0  0  0  0
    7.0794   -2.0632    0.0000 H   0  0  0  0  0  0  0  0  0  0  0  0
    7.4498   -1.2685    0.0000 H   0  0  0  0  0  0  0  0  0  0  0  0
    1.8038   -0.4264    0.0000 H   0  0  0  0  0  0  0  0  0  0  0  0
    1.3967   -1.1131    0.0000 H   0  0  0  0  0  0  0  0  0  0  0  0
    7.1715    2.6571    0.0000 H   0  0  0  0  0  0  0  0  0  0  0  0
    6.7858    1.9582    0.0000 H   0  0  0  0  0  0  0  0  0  0  0  0
    9.4780    0.4314    0.0000 H   0  0  0  0  0  0  0  0  0  0  0  0
    9.8798    1.1212    0.0000 H   0  0  0  0  0  0  0  0  0  0  0  0
    9.8798    1.9940    0.0000 H   0  0  0  0  0  0  0  0  0  0  0  0
    9.4780    2.6838    0.0000 H   0  0  0  0  0  0  0  0  0  0  0  0
    2.9072   -3.8153    0.0000 H   0  0  0  0  0  0  0  0  0  0  0  0
    3.7550   -4.0390    0.0000 H   0  0  0  0  0  0  0  0  0  0  0  0
    3.9787   -3.1912    0.0000 H   0  0  0  0  0  0  0  0  0  0  0  0
    1.9048   -3.1992    0.0000 H   0  0  0  0  0  0  0  0  0  0  0  0
    2.1350   -4.0452    0.0000 H   0  0  0  0  0  0  0  0  0  0  0  0
    2.9811   -3.8150    0.0000 H   0  0  0  0  0  0  0  0  0  0  0  0
    9.3556    3.2033    0.0000 H   0  0  0  0  0  0  0  0  0  0  0  0
    9.1189    4.0476    0.0000 H   0  0  0  0  0  0  0  0  0  0  0  0
    8.2746    3.8108    0.0000 H   0  0  0  0  0  0  0  0  0  0  0  0
    8.3485    3.8117    0.0000 H   0  0  0  0  0  0  0  0  0  0  0  0
    7.4990    4.0288    0.0000 H   0  0  0  0  0  0  0  0  0  0  0  0
    7.2818    3.1793    0.0000 H   0  0  0  0  0  0  0  0  0  0  0  0
   10.5965    0.1874    0.0000 H   0  0  0  0  0  0  0  0  0  0  0  0
  1 30  1  0  0  0  0
  1 80  1  0  0  0  0
  2 30  2  0  0  0  0
  3  4  1  0  0  0  0
  3  6  1  0  0  0  0
  3  8  1  0  0  0  0
  3 17  1  0  0  0  0
  4  5  1  0  0  0  0
  4 13  1  0  0  0  0
  4 33  1  0  0  0  0
  5  7  1  0  0  0  0
  5 15  1  0  0  0  0
  5 20  1  0  0  0  0
  6  9  1  0  0  0  0
  6 14  1  0  0  0  0
  6 22  1  0  0  0  0
  7 10  1  0  0  0  0
  7 11  1  0  0  0  0
  7 34  1  0  0  0  0
  8 10  1  0  0  0  0
  8 35  1  0  0  0  0
  8 36  1  0  0  0  0
  9 12  1  0  0  0  0
  9 19  2  0  0  0  0
 10 37  1  0  0  0  0
 10 38  1  0  0  0  0
 11 21  1  0  0  0  0
 11 28  1  0  0  0  0
 11 29  1  0  0  0  0
 12 16  1  0  0  0  0
 12 24  1  0  0  0  0
 12 39  1  0  0  0  0
 13 19  1  0  0  0  0
 13 40  1  0  0  0  0
 13 41  1  0  0  0  0
 14 18  1  0  0  0  0
 14 42  1  0  0  0  0
 14 43  1  0  0  0  0
 15 23  1  0  0  0  0
 15 44  1  0  0  0  0
 15 45  1  0  0  0  0
 16 18  1  0  0  0  0
 16 25  1  0  0  0  0
 16 30  1  0  0  0  0
 17 48  1  0  0  0  0
 17 49  1  0  0  0  0
 17 50  1  0  0  0  0
 18 46  1  0  0  0  0
 18 47  1  0  0  0  0
 19 51  1  0  0  0  0
 20 52  1  0  0  0  0
 20 53  1  0  0  0  0
 20 54  1  0  0  0  0
 21 23  1  0  0  0  0
 21 55  1  0  0  0  0
 21 56  1  0  0  0  0
 22 57  1  0  0  0  0
 22 58  1  0  0  0  0
 22 59  1  0  0  0  0
 23 60  1  0  0  0  0
 23 61  1  0  0  0  0
 24 26  1  0  0  0  0
 24 62  1  0  0  0  0
 24 63  1  0  0  0  0
 25 27  1  0  0  0  0
 25 64  1  0  0  0  0
 25 65  1  0  0  0  0
 26 27  1  0  0  0  0
 26 31  1  0  0  0  0
 26 32  1  0  0  0  0
 27 66  1  0  0  0  0
 27 67  1  0  0  0  0
 28 71  1  0  0  0  0
 28 72  1  0  0  0  0
 28 73  1  0  0  0  0
 29 68  1  0  0  0  0
 29 69  1  0  0  0  0
 29 70  1  0  0  0  0
 31 74  1  0  0  0  0
 31 75  1  0  0  0  0
 31 76  1  0  0  0  0
 32 77  1  0  0  0  0
 32 78  1  0  0  0  0
 32 79  1  0  0  0  0
M  END
>  <PUBCHEM_COMPOUND_CID>
619168

>  <PUBCHEM_COMPOUND_CANONICALIZED>
1

>  <PUBCHEM_CACTVS_COMPLEXITY>
851

>  <PUBCHEM_CACTVS_HBOND_ACCEPTOR>
2

>  <PUBCHEM_CACTVS_HBOND_DONOR>
1

>  <PUBCHEM_CACTVS_ROTATABLE_BOND>
1

>  <PUBCHEM_CACTVS_SUBSKEYS>
AAADcfB4MAAAAAAAAAAAAAAAAAAAAAAAAAAwYMGCAAAAAADAAAAAGgAACAAADwCAgAACCAAAAgCIAiDSCAAAAAAgAAAACAEAAAgAABIAAQAAQAAEgAAIAAOIyPCPgAAAAAAAAACAAAQAACAAAAAAAAAAAA==

>  <PUBCHEM_IUPAC_OPENEYE_NAME>
2,2,6a,6b,9,9,12a-heptamethyl-1,3,4,5,6,6a,7,8,8a,10,11,12,13,14b-tetradecahydropicene-4a-carboxylic acid

>  <PUBCHEM_IUPAC_CAS_NAME>
2,2,6a,6b,9,9,12a-heptamethyl-1,3,4,5,6,6a,7,8,8a,10,11,12,13,14b-tetradecahydropicene-4a-carboxylic acid

>  <PUBCHEM_IUPAC_NAME>
2,2,6a,6b,9,9,12a-heptamethyl-1,3,4,5,6,6a,7,8,8a,10,11,12,13,14b-tetradecahydropicene-4a-carboxylic acid

>  <PUBCHEM_IUPAC_SYSTEMATIC_NAME>
2,2,6a,6b,9,9,12a-heptamethyl-1,3,4,5,6,6a,7,8,8a,10,11,12,13,14b-tetradecahydropicene-4a-carboxylic acid

>  <PUBCHEM_IUPAC_TRADITIONAL_NAME>
2,2,6a,6b,9,9,12a-heptamethyl-1,3,4,5,6,6a,7,8,8a,10,11,12,13,14b-tetradecahydropicene-4a-carboxylic acid

>  <PUBCHEM_IUPAC_INCHI>
InChI=1S/C30H48O2/c1-25(2)15-17-30(24(31)32)18-16-28(6)20(21(30)19-25)9-10-23-27(5)13-8-12-26(3,4)22(27)11-14-29(23,28)7/h9,21-23H,8,10-19H2,1-7H3,(H,31,32)

>  <PUBCHEM_IUPAC_INCHIKEY>
MXEMKMNFLXVQBW-UHFFFAOYSA-N

>  <PUBCHEM_XLOGP3_AA>
9

>  <PUBCHEM_EXACT_MASS>
440.365

>  <PUBCHEM_MOLECULAR_FORMULA>
C30H48O2

>  <PUBCHEM_MOLECULAR_WEIGHT>
440.712

>  <PUBCHEM_OPENEYE_CAN_SMILES>
CC1(CCC2(CCC3(C(=CCC4C3(CCC5C4(CCCC5(C)C)C)C)C2C1)C)C(=O)O)C

>  <PUBCHEM_OPENEYE_ISO_SMILES>
CC1(CCC2(CCC3(C(=CCC4C3(CCC5C4(CCCC5(C)C)C)C)C2C1)C)C(=O)O)C

>  <PUBCHEM_CACTVS_TPSA>
37.3

>  <PUBCHEM_MONOISOTOPIC_WEIGHT>
440.365

>  <PUBCHEM_TOTAL_CHARGE>
0

>  <PUBCHEM_HEAVY_ATOM_COUNT>
32

>  <PUBCHEM_ATOM_DEF_STEREO_COUNT>
0

>  <PUBCHEM_ATOM_UDEF_STEREO_COUNT>
7

>  <PUBCHEM_BOND_DEF_STEREO_COUNT>
0

>  <PUBCHEM_BOND_UDEF_STEREO_COUNT>
0

>  <PUBCHEM_ISOTOPIC_ATOM_COUNT>
0

>  <PUBCHEM_COMPONENT_COUNT>
1

>  <PUBCHEM_CACTVS_TAUTO_COUNT>
1

>  <PUBCHEM_COORDINATE_TYPE>
1
5
255

>  <PUBCHEM_BONDANNOTATIONS>
12  24  3
16  30  3
3  17  3
4  13  3
5  20  3
6  22  3
7  10  3

$$$$
