619567
 OpenBabel06101807152D

 32 36  0  0  1  0  0  0  0  0999 V2000
    2.0000   -1.8708    0.0000 O   0  0  0  0  0  0  0  0  0  0  0  0
    3.4519   -2.7090    0.0000 O   0  0  0  0  0  0  0  0  0  0  0  0
    4.5518    1.8725    0.0000 N   0  0  0  0  0  0  0  0  0  0  0  0
    5.4178    1.3725    0.0000 C   0  0  0  0  0  0  0  0  0  0  0  0
    4.9169    2.7968    0.0000 C   0  0  0  0  0  0  0  0  0  0  0  0
    3.6857    1.3725    0.0000 C   0  0  0  0  0  0  0  0  0  0  0  0
    5.9105    2.8164    0.0000 C   0  0  0  0  0  0  0  0  0  0  0  0
    6.3117    1.9072    0.0000 C   0  0  0  0  0  0  0  0  0  0  0  0
    5.4178    0.3725    0.0000 C   0  0  0  0  0  0  0  0  0  0  0  0
    3.6857    0.3725    0.0000 C   0  0  0  0  0  0  0  0  0  0  0  0
    4.5518   -0.1275    0.0000 C   0  0  0  0  0  0  0  0  0  0  0  0
    7.2178    1.3933    0.0000 C   0  0  0  0  0  0  0  0  0  0  0  0
    6.3117   -0.1622    0.0000 C   0  0  0  0  0  0  0  0  0  0  0  0
    2.7757   -0.1344    0.0000 C   0  0  0  0  0  0  0  0  0  0  0  0
    4.5678   -1.1690    0.0000 C   0  0  0  0  0  0  0  0  0  0  0  0
    7.2178    0.3517    0.0000 C   0  0  0  0  0  0  0  0  0  0  0  0
    2.7677   -1.1760    0.0000 C   0  0  0  0  0  0  0  0  0  0  0  0
    3.6698   -1.6968    0.0000 C   0  0  0  0  0  0  0  0  0  0  0  0
    2.4220   -2.8164    0.0000 C   0  0  0  0  0  0  0  0  0  0  0  0
    4.9863    3.4129    0.0000 H   0  0  0  0  0  0  0  0  0  0  0  0
    4.3153    2.9467    0.0000 H   0  0  0  0  0  0  0  0  0  0  0  0
    3.4737    1.9551    0.0000 H   0  0  0  0  0  0  0  0  0  0  0  0
    3.0752    1.2648    0.0000 H   0  0  0  0  0  0  0  0  0  0  0  0
    6.5057    2.9899    0.0000 H   0  0  0  0  0  0  0  0  0  0  0  0
    5.8168    3.4293    0.0000 H   0  0  0  0  0  0  0  0  0  0  0  0
    7.7535    1.7054    0.0000 H   0  0  0  0  0  0  0  0  0  0  0  0
    6.3046   -0.7821    0.0000 H   0  0  0  0  0  0  0  0  0  0  0  0
    2.2424    0.1818    0.0000 H   0  0  0  0  0  0  0  0  0  0  0  0
    5.1083   -1.4728    0.0000 H   0  0  0  0  0  0  0  0  0  0  0  0
    7.7535    0.0396    0.0000 H   0  0  0  0  0  0  0  0  0  0  0  0
    1.8324   -3.0081    0.0000 H   0  0  0  0  0  0  0  0  0  0  0  0
    2.5507   -3.4229    0.0000 H   0  0  0  0  0  0  0  0  0  0  0  0
  1 17  1  0  0  0  0
  1 19  1  0  0  0  0
  2 18  1  0  0  0  0
  2 19  1  0  0  0  0
  3  4  1  0  0  0  0
  3  5  1  0  0  0  0
  3  6  1  0  0  0  0
  4  8  2  0  0  0  0
  4  9  1  0  0  0  0
  5  7  1  0  0  0  0
  5 20  1  0  0  0  0
  5 21  1  0  0  0  0
  6 10  1  0  0  0  0
  6 22  1  0  0  0  0
  6 23  1  0  0  0  0
  7  8  1  0  0  0  0
  7 24  1  0  0  0  0
  7 25  1  0  0  0  0
  8 12  1  0  0  0  0
  9 11  1  0  0  0  0
  9 13  2  0  0  0  0
 10 11  1  0  0  0  0
 10 14  2  0  0  0  0
 11 15  2  0  0  0  0
 12 16  2  0  0  0  0
 12 26  1  0  0  0  0
 13 16  1  0  0  0  0
 13 27  1  0  0  0  0
 14 17  1  0  0  0  0
 14 28  1  0  0  0  0
 15 18  1  0  0  0  0
 15 29  1  0  0  0  0
 16 30  1  0  0  0  0
 17 18  2  0  0  0  0
 19 31  1  0  0  0  0
 19 32  1  0  0  0  0
M  END
>  <PUBCHEM_COMPOUND_CID>
619567

>  <PUBCHEM_COMPOUND_CANONICALIZED>
1

>  <PUBCHEM_CACTVS_COMPLEXITY>
374

>  <PUBCHEM_CACTVS_HBOND_ACCEPTOR>
3

>  <PUBCHEM_CACTVS_HBOND_DONOR>
0

>  <PUBCHEM_CACTVS_ROTATABLE_BOND>
0

>  <PUBCHEM_CACTVS_SUBSKEYS>
AAADccB6MAAAAAAAAAAAAAAAAAAAAWJAAAA8YIAAAAAAAFixQAAAHgAAAAAADAzBmAcwzoMABACAAiRCQACCCAAhIAAIiAAOzIgdJiLEsZukMCpkwBHO6Aew0PMOoAADAAASQABAAAYAACSAAAAAAAAAAA==

>  <PUBCHEM_IUPAC_INCHI>
InChI=1S/C16H13NO2/c1-2-10-4-5-17-8-11-6-14-15(19-9-18-14)7-13(11)12(3-1)16(10)17/h1-3,6-7H,4-5,8-9H2

>  <PUBCHEM_IUPAC_INCHIKEY>
NWJBCDNATQJZOD-UHFFFAOYSA-N

>  <PUBCHEM_XLOGP3_AA>
3.1

>  <PUBCHEM_EXACT_MASS>
251.095

>  <PUBCHEM_MOLECULAR_FORMULA>
C16H13NO2

>  <PUBCHEM_MOLECULAR_WEIGHT>
251.285

>  <PUBCHEM_OPENEYE_CAN_SMILES>
C1CN2CC3=CC4=C(C=C3C5=C2C1=CC=C5)OCO4

>  <PUBCHEM_OPENEYE_ISO_SMILES>
C1CN2CC3=CC4=C(C=C3C5=C2C1=CC=C5)OCO4

>  <PUBCHEM_CACTVS_TPSA>
21.7

>  <PUBCHEM_MONOISOTOPIC_WEIGHT>
251.095

>  <PUBCHEM_TOTAL_CHARGE>
0

>  <PUBCHEM_HEAVY_ATOM_COUNT>
19

>  <PUBCHEM_ATOM_DEF_STEREO_COUNT>
0

>  <PUBCHEM_ATOM_UDEF_STEREO_COUNT>
0

>  <PUBCHEM_BOND_DEF_STEREO_COUNT>
0

>  <PUBCHEM_BOND_UDEF_STEREO_COUNT>
0

>  <PUBCHEM_ISOTOPIC_ATOM_COUNT>
0

>  <PUBCHEM_COMPONENT_COUNT>
1

>  <PUBCHEM_CACTVS_TAUTO_COUNT>
1

>  <PUBCHEM_COORDINATE_TYPE>
1
5
255

>  <PUBCHEM_BONDANNOTATIONS>
10  11  8
10  14  8
11  15  8
12  16  8
13  16  8
14  17  8
15  18  8
17  18  8
4  8  8
4  9  8
8  12  8
9  13  8

$$$$
