623685
 OpenBabel06101807152D

 38 39  0  0  0  0  0  0  0  0999 V2000
    2.8660    1.0000    0.0000 O   0  0  0  0  0  0  0  0  0  0  0  0
    2.8660   -1.0000    0.0000 O   0  0  0  0  0  0  0  0  0  0  0  0
    6.3465   -2.0346    0.0000 O   0  0  0  0  0  0  0  0  0  0  0  0
    3.7320   -2.5000    0.0000 O   0  0  0  0  0  0  0  0  0  0  0  0
    4.5981    1.0000    0.0000 C   0  0  0  0  0  0  0  0  0  0  0  0
    4.5981    2.0000    0.0000 C   0  0  0  0  0  0  0  0  0  0  0  0
    5.4641    0.5000    0.0000 C   0  0  0  0  0  0  0  0  0  0  0  0
    5.4641   -0.5000    0.0000 C   0  0  0  0  0  0  0  0  0  0  0  0
    3.7320    0.5000    0.0000 C   0  0  0  0  0  0  0  0  0  0  0  0
    4.5981   -1.0000    0.0000 C   0  0  0  0  0  0  0  0  0  0  0  0
    6.3580    1.0347    0.0000 C   0  0  0  0  0  0  0  0  0  0  0  0
    3.7320   -0.5000    0.0000 C   0  0  0  0  0  0  0  0  0  0  0  0
    3.7320    2.5000    0.0000 C   0  0  0  0  0  0  0  0  0  0  0  0
    5.4641    2.5000    0.0000 C   0  0  0  0  0  0  0  0  0  0  0  0
    6.3580   -1.0347    0.0000 C   0  0  0  0  0  0  0  0  0  0  0  0
    7.2641    0.5208    0.0000 C   0  0  0  0  0  0  0  0  0  0  0  0
    7.2641   -0.5208    0.0000 C   0  0  0  0  0  0  0  0  0  0  0  0
    8.1282    1.0241    0.0000 C   0  0  0  0  0  0  0  0  0  0  0  0
    4.5981   -2.0000    0.0000 C   0  0  0  0  0  0  0  0  0  0  0  0
    2.0000    0.5000    0.0000 C   0  0  0  0  0  0  0  0  0  0  0  0
    4.5981    2.6200    0.0000 H   0  0  0  0  0  0  0  0  0  0  0  0
    6.3509    1.6546    0.0000 H   0  0  0  0  0  0  0  0  0  0  0  0
    4.0420    3.0369    0.0000 H   0  0  0  0  0  0  0  0  0  0  0  0
    3.1951    2.8100    0.0000 H   0  0  0  0  0  0  0  0  0  0  0  0
    3.4220    1.9631    0.0000 H   0  0  0  0  0  0  0  0  0  0  0  0
    5.7741    1.9631    0.0000 H   0  0  0  0  0  0  0  0  0  0  0  0
    6.0010    2.8100    0.0000 H   0  0  0  0  0  0  0  0  0  0  0  0
    5.1541    3.0369    0.0000 H   0  0  0  0  0  0  0  0  0  0  0  0
    7.7998   -0.8329    0.0000 H   0  0  0  0  0  0  0  0  0  0  0  0
    8.4403    0.4884    0.0000 H   0  0  0  0  0  0  0  0  0  0  0  0
    8.6639    1.3362    0.0000 H   0  0  0  0  0  0  0  0  0  0  0  0
    7.8161    1.5599    0.0000 H   0  0  0  0  0  0  0  0  0  0  0  0
    5.1350   -2.3100    0.0000 H   0  0  0  0  0  0  0  0  0  0  0  0
    2.3291   -0.6900    0.0000 H   0  0  0  0  0  0  0  0  0  0  0  0
    6.8798   -2.3508    0.0000 H   0  0  0  0  0  0  0  0  0  0  0  0
    1.6900    1.0369    0.0000 H   0  0  0  0  0  0  0  0  0  0  0  0
    1.4631    0.1900    0.0000 H   0  0  0  0  0  0  0  0  0  0  0  0
    2.3100   -0.0369    0.0000 H   0  0  0  0  0  0  0  0  0  0  0  0
  1  9  1  0  0  0  0
  1 20  1  0  0  0  0
  2 12  1  0  0  0  0
  2 34  1  0  0  0  0
  3 15  1  0  0  0  0
  3 35  1  0  0  0  0
  4 19  2  0  0  0  0
  5  6  1  0  0  0  0
  5  7  1  0  0  0  0
  5  9  2  0  0  0  0
  6 13  1  0  0  0  0
  6 14  1  0  0  0  0
  6 21  1  0  0  0  0
  7  8  2  0  0  0  0
  7 11  1  0  0  0  0
  8 10  1  0  0  0  0
  8 15  1  0  0  0  0
  9 12  1  0  0  0  0
 10 12  2  0  0  0  0
 10 19  1  0  0  0  0
 11 16  2  0  0  0  0
 11 22  1  0  0  0  0
 13 23  1  0  0  0  0
 13 24  1  0  0  0  0
 13 25  1  0  0  0  0
 14 26  1  0  0  0  0
 14 27  1  0  0  0  0
 14 28  1  0  0  0  0
 15 17  2  0  0  0  0
 16 17  1  0  0  0  0
 16 18  1  0  0  0  0
 17 29  1  0  0  0  0
 18 30  1  0  0  0  0
 18 31  1  0  0  0  0
 18 32  1  0  0  0  0
 19 33  1  0  0  0  0
 20 36  1  0  0  0  0
 20 37  1  0  0  0  0
 20 38  1  0  0  0  0
M  END
>  <PUBCHEM_COMPOUND_CID>
623685

>  <PUBCHEM_COMPOUND_CANONICALIZED>
1

>  <PUBCHEM_CACTVS_COMPLEXITY>
343

>  <PUBCHEM_CACTVS_HBOND_ACCEPTOR>
4

>  <PUBCHEM_CACTVS_HBOND_DONOR>
2

>  <PUBCHEM_CACTVS_ROTATABLE_BOND>
3

>  <PUBCHEM_CACTVS_SUBSKEYS>
AAADceB4OAAAAAAAAAAAAAAAAAAAAAAAAAAwYAAAAAAAAADBUAAAGgAACAAADQSgmAIyBsAABgCIAihSgAACCAAkIAAAiAEGiMgNJjaGNRqAcWMk4BELuQfK6PyO4AADAAAYQADAAAYAADCAAAAAAAAAAA==

>  <PUBCHEM_IUPAC_OPENEYE_NAME>
2,8-dihydroxy-4-isopropyl-3-methoxy-6-methyl-naphthalene-1-carbaldehyde

>  <PUBCHEM_IUPAC_CAS_NAME>
2,8-dihydroxy-3-methoxy-6-methyl-4-propan-2-yl-1-naphthalenecarboxaldehyde

>  <PUBCHEM_IUPAC_NAME>
2,8-dihydroxy-3-methoxy-6-methyl-4-propan-2-ylnaphthalene-1-carbaldehyde

>  <PUBCHEM_IUPAC_SYSTEMATIC_NAME>
3-methoxy-6-methyl-2,8-bis(oxidanyl)-4-propan-2-yl-naphthalene-1-carbaldehyde

>  <PUBCHEM_IUPAC_TRADITIONAL_NAME>
2,8-dihydroxy-4-isopropyl-3-methoxy-6-methyl-naphthalene-1-carbaldehyde

>  <PUBCHEM_IUPAC_INCHI>
InChI=1S/C16H18O4/c1-8(2)13-10-5-9(3)6-12(18)14(10)11(7-17)15(19)16(13)20-4/h5-8,18-19H,1-4H3

>  <PUBCHEM_IUPAC_INCHIKEY>
XOXRFBVTHNRDNY-UHFFFAOYSA-N

>  <PUBCHEM_XLOGP3_AA>
3.9

>  <PUBCHEM_EXACT_MASS>
274.121

>  <PUBCHEM_MOLECULAR_FORMULA>
C16H18O4

>  <PUBCHEM_MOLECULAR_WEIGHT>
274.316

>  <PUBCHEM_OPENEYE_CAN_SMILES>
CC1=CC(=C2C(=C1)C(=C(C(=C2C=O)O)OC)C(C)C)O

>  <PUBCHEM_OPENEYE_ISO_SMILES>
CC1=CC(=C2C(=C1)C(=C(C(=C2C=O)O)OC)C(C)C)O

>  <PUBCHEM_CACTVS_TPSA>
66.8

>  <PUBCHEM_MONOISOTOPIC_WEIGHT>
274.121

>  <PUBCHEM_TOTAL_CHARGE>
0

>  <PUBCHEM_HEAVY_ATOM_COUNT>
20

>  <PUBCHEM_ATOM_DEF_STEREO_COUNT>
0

>  <PUBCHEM_ATOM_UDEF_STEREO_COUNT>
0

>  <PUBCHEM_BOND_DEF_STEREO_COUNT>
0

>  <PUBCHEM_BOND_UDEF_STEREO_COUNT>
0

>  <PUBCHEM_ISOTOPIC_ATOM_COUNT>
0

>  <PUBCHEM_COMPONENT_COUNT>
1

>  <PUBCHEM_CACTVS_TAUTO_COUNT>
246

>  <PUBCHEM_COORDINATE_TYPE>
1
5
255

>  <PUBCHEM_BONDANNOTATIONS>
10  12  8
11  16  8
15  17  8
16  17  8
5  7  8
5  9  8
7  11  8
7  8  8
8  10  8
8  15  8
9  12  8

$$$$
