6255462
 OpenBabel06101807152D

 32 33  0  0  0  0  0  0  0  0999 V2000
    4.5981    3.8100    0.0000 O   0  0  0  0  0  0  0  0  0  0  0  0
    5.4641   -3.6900    0.0000 O   0  0  0  0  0  0  0  0  0  0  0  0
    2.0000   -3.6900    0.0000 O   0  0  0  0  0  0  0  0  0  0  0  0
    3.7320   -1.6900    0.0000 C   0  0  0  0  0  0  0  0  0  0  0  0
    4.5981    0.8100    0.0000 C   0  0  0  0  0  0  0  0  0  0  0  0
    3.7320   -0.6900    0.0000 C   0  0  0  0  0  0  0  0  0  0  0  0
    4.5981   -0.1900    0.0000 C   0  0  0  0  0  0  0  0  0  0  0  0
    2.8660   -2.1900    0.0000 C   0  0  0  0  0  0  0  0  0  0  0  0
    4.5981   -2.1900    0.0000 C   0  0  0  0  0  0  0  0  0  0  0  0
    5.4641    1.3100    0.0000 C   0  0  0  0  0  0  0  0  0  0  0  0
    3.7320    1.3100    0.0000 C   0  0  0  0  0  0  0  0  0  0  0  0
    4.5981    2.8100    0.0000 C   0  0  0  0  0  0  0  0  0  0  0  0
    5.4641    2.3100    0.0000 C   0  0  0  0  0  0  0  0  0  0  0  0
    3.7320    2.3100    0.0000 C   0  0  0  0  0  0  0  0  0  0  0  0
    4.5981   -3.1900    0.0000 C   0  0  0  0  0  0  0  0  0  0  0  0
    2.8660   -3.1900    0.0000 C   0  0  0  0  0  0  0  0  0  0  0  0
    3.7320   -3.6900    0.0000 C   0  0  0  0  0  0  0  0  0  0  0  0
    5.4641    4.3100    0.0000 C   0  0  0  0  0  0  0  0  0  0  0  0
    3.1951   -0.3800    0.0000 H   0  0  0  0  0  0  0  0  0  0  0  0
    5.1350   -0.5000    0.0000 H   0  0  0  0  0  0  0  0  0  0  0  0
    2.3291   -1.8800    0.0000 H   0  0  0  0  0  0  0  0  0  0  0  0
    5.1350   -1.8800    0.0000 H   0  0  0  0  0  0  0  0  0  0  0  0
    6.0010    1.0000    0.0000 H   0  0  0  0  0  0  0  0  0  0  0  0
    3.1951    1.0000    0.0000 H   0  0  0  0  0  0  0  0  0  0  0  0
    6.0010    2.6200    0.0000 H   0  0  0  0  0  0  0  0  0  0  0  0
    3.1951    2.6200    0.0000 H   0  0  0  0  0  0  0  0  0  0  0  0
    3.7320   -4.3100    0.0000 H   0  0  0  0  0  0  0  0  0  0  0  0
    5.4641   -4.3100    0.0000 H   0  0  0  0  0  0  0  0  0  0  0  0
    2.0000   -4.3100    0.0000 H   0  0  0  0  0  0  0  0  0  0  0  0
    5.7741    3.7731    0.0000 H   0  0  0  0  0  0  0  0  0  0  0  0
    6.0010    4.6200    0.0000 H   0  0  0  0  0  0  0  0  0  0  0  0
    5.1541    4.8469    0.0000 H   0  0  0  0  0  0  0  0  0  0  0  0
  1 12  1  0  0  0  0
  1 18  1  0  0  0  0
  2 15  1  0  0  0  0
  2 28  1  0  0  0  0
  3 16  1  0  0  0  0
  3 29  1  0  0  0  0
  4  6  1  0  0  0  0
  4  8  2  0  0  0  0
  4  9  1  0  0  0  0
  5  7  1  0  0  0  0
  5 10  2  0  0  0  0
  5 11  1  0  0  0  0
  6  7  2  0  0  0  0
  6 19  1  0  0  0  0
  7 20  1  0  0  0  0
  8 16  1  0  0  0  0
  8 21  1  0  0  0  0
  9 15  2  0  0  0  0
  9 22  1  0  0  0  0
 10 13  1  0  0  0  0
 10 23  1  0  0  0  0
 11 14  2  0  0  0  0
 11 24  1  0  0  0  0
 12 13  2  0  0  0  0
 12 14  1  0  0  0  0
 13 25  1  0  0  0  0
 14 26  1  0  0  0  0
 15 17  1  0  0  0  0
 16 17  2  0  0  0  0
 17 27  1  0  0  0  0
 18 30  1  0  0  0  0
 18 31  1  0  0  0  0
 18 32  1  0  0  0  0
M  END
>  <PUBCHEM_COMPOUND_CID>
6255462

>  <PUBCHEM_COMPOUND_CANONICALIZED>
1

>  <PUBCHEM_CACTVS_COMPLEXITY>
259

>  <PUBCHEM_CACTVS_HBOND_ACCEPTOR>
3

>  <PUBCHEM_CACTVS_HBOND_DONOR>
2

>  <PUBCHEM_CACTVS_ROTATABLE_BOND>
3

>  <PUBCHEM_CACTVS_SUBSKEYS>
AAADccBwMAAAAAAAAAAAAAAAAAAAAAAAAAAwYAAAAAAAAAABQAAAGgAACAAADASAmAIyBoAABgCAAiBCAAACCAAgIAAIiAAGCIgMJyKGMRqAcCAlwBUIuAeA4BQOIAABCAAAAABAAAIQAAAAAAAAAAAAAA==

>  <PUBCHEM_IUPAC_OPENEYE_NAME>
5-[(E)-2-(4-methoxyphenyl)vinyl]benzene-1,3-diol

>  <PUBCHEM_IUPAC_CAS_NAME>
5-[(E)-2-(4-methoxyphenyl)ethenyl]benzene-1,3-diol

>  <PUBCHEM_IUPAC_NAME>
5-[(E)-2-(4-methoxyphenyl)ethenyl]benzene-1,3-diol

>  <PUBCHEM_IUPAC_SYSTEMATIC_NAME>
5-[(E)-2-(4-methoxyphenyl)ethenyl]benzene-1,3-diol

>  <PUBCHEM_IUPAC_TRADITIONAL_NAME>
5-[(E)-2-(4-methoxyphenyl)vinyl]resorcinol

>  <PUBCHEM_IUPAC_INCHI>
InChI=1S/C15H14O3/c1-18-15-6-4-11(5-7-15)2-3-12-8-13(16)10-14(17)9-12/h2-10,16-17H,1H3/b3-2+

>  <PUBCHEM_IUPAC_INCHIKEY>
IHVRWFJGOIWMGC-NSCUHMNNSA-N

>  <PUBCHEM_XLOGP3_AA>
3.5

>  <PUBCHEM_EXACT_MASS>
242.094

>  <PUBCHEM_MOLECULAR_FORMULA>
C15H14O3

>  <PUBCHEM_MOLECULAR_WEIGHT>
242.274

>  <PUBCHEM_OPENEYE_CAN_SMILES>
COC1=CC=C(C=C1)C=CC2=CC(=CC(=C2)O)O

>  <PUBCHEM_OPENEYE_ISO_SMILES>
COC1=CC=C(C=C1)/C=C/C2=CC(=CC(=C2)O)O

>  <PUBCHEM_CACTVS_TPSA>
49.7

>  <PUBCHEM_MONOISOTOPIC_WEIGHT>
242.094

>  <PUBCHEM_TOTAL_CHARGE>
0

>  <PUBCHEM_HEAVY_ATOM_COUNT>
18

>  <PUBCHEM_ATOM_DEF_STEREO_COUNT>
0

>  <PUBCHEM_ATOM_UDEF_STEREO_COUNT>
0

>  <PUBCHEM_BOND_DEF_STEREO_COUNT>
1

>  <PUBCHEM_BOND_UDEF_STEREO_COUNT>
0

>  <PUBCHEM_ISOTOPIC_ATOM_COUNT>
0

>  <PUBCHEM_COMPONENT_COUNT>
1

>  <PUBCHEM_CACTVS_TAUTO_COUNT>
5

>  <PUBCHEM_COORDINATE_TYPE>
1
5
255

>  <PUBCHEM_BONDANNOTATIONS>
10  13  8
11  14  8
12  13  8
12  14  8
15  17  8
16  17  8
4  8  8
4  9  8
5  10  8
5  11  8
8  16  8
9  15  8

$$$$
