627910
 OpenBabel06101807152D

 39 42  0  0  0  0  0  0  0  0999 V2000
   11.4043   -1.5547    0.0000 O   0  0  0  0  0  0  0  0  0  0  0  0
    2.5836    0.0547    0.0000 O   0  0  0  0  0  0  0  0  0  0  0  0
    2.5836   -1.5547    0.0000 O   0  0  0  0  0  0  0  0  0  0  0  0
    9.5920    1.2500    0.0000 O   0  0  0  0  0  0  0  0  0  0  0  0
    7.8600    1.2500    0.0000 O   0  0  0  0  0  0  0  0  0  0  0  0
    6.1279    1.2500    0.0000 O   0  0  0  0  0  0  0  0  0  0  0  0
    8.7260   -0.2500    0.0000 C   0  0  0  0  0  0  0  0  0  0  0  0
   10.4580   -0.2500    0.0000 C   0  0  0  0  0  0  0  0  0  0  0  0
    9.5920    0.2500    0.0000 C   0  0  0  0  0  0  0  0  0  0  0  0
    6.9939   -0.2500    0.0000 C   0  0  0  0  0  0  0  0  0  0  0  0
    5.2619   -0.2500    0.0000 C   0  0  0  0  0  0  0  0  0  0  0  0
   10.4580   -1.2500    0.0000 C   0  0  0  0  0  0  0  0  0  0  0  0
    7.8600    0.2500    0.0000 C   0  0  0  0  0  0  0  0  0  0  0  0
    6.1279    0.2500    0.0000 C   0  0  0  0  0  0  0  0  0  0  0  0
    8.7260   -1.2500    0.0000 C   0  0  0  0  0  0  0  0  0  0  0  0
    3.5298   -0.2500    0.0000 C   0  0  0  0  0  0  0  0  0  0  0  0
    3.5298   -1.2500    0.0000 C   0  0  0  0  0  0  0  0  0  0  0  0
    4.3958    0.2500    0.0000 C   0  0  0  0  0  0  0  0  0  0  0  0
    9.5920   -1.7500    0.0000 C   0  0  0  0  0  0  0  0  0  0  0  0
    5.2619   -1.2500    0.0000 C   0  0  0  0  0  0  0  0  0  0  0  0
   11.4043    0.0547    0.0000 C   0  0  0  0  0  0  0  0  0  0  0  0
    4.3958   -1.7500    0.0000 C   0  0  0  0  0  0  0  0  0  0  0  0
    2.0000   -0.7500    0.0000 C   0  0  0  0  0  0  0  0  0  0  0  0
   11.9879   -0.7500    0.0000 C   0  0  0  0  0  0  0  0  0  0  0  0
   10.4580    1.7500    0.0000 C   0  0  0  0  0  0  0  0  0  0  0  0
    6.5954   -0.7249    0.0000 H   0  0  0  0  0  0  0  0  0  0  0  0
    7.3925   -0.7249    0.0000 H   0  0  0  0  0  0  0  0  0  0  0  0
    8.1890   -1.5600    0.0000 H   0  0  0  0  0  0  0  0  0  0  0  0
    4.3958    0.8700    0.0000 H   0  0  0  0  0  0  0  0  0  0  0  0
    9.5920   -2.3700    0.0000 H   0  0  0  0  0  0  0  0  0  0  0  0
    5.7988   -1.5600    0.0000 H   0  0  0  0  0  0  0  0  0  0  0  0
   11.5969    0.6441    0.0000 H   0  0  0  0  0  0  0  0  0  0  0  0
    4.3958   -2.3700    0.0000 H   0  0  0  0  0  0  0  0  0  0  0  0
    1.5391   -0.3353    0.0000 H   0  0  0  0  0  0  0  0  0  0  0  0
    1.5391   -1.1647    0.0000 H   0  0  0  0  0  0  0  0  0  0  0  0
   12.6079   -0.7500    0.0000 H   0  0  0  0  0  0  0  0  0  0  0  0
   10.7680    1.2131    0.0000 H   0  0  0  0  0  0  0  0  0  0  0  0
   10.9950    2.0600    0.0000 H   0  0  0  0  0  0  0  0  0  0  0  0
   10.1480    2.2869    0.0000 H   0  0  0  0  0  0  0  0  0  0  0  0
  1 12  1  0  0  0  0
  1 24  1  0  0  0  0
  2 16  1  0  0  0  0
  2 23  1  0  0  0  0
  3 17  1  0  0  0  0
  3 23  1  0  0  0  0
  4  9  1  0  0  0  0
  4 25  1  0  0  0  0
  5 13  2  0  0  0  0
  6 14  2  0  0  0  0
  7  9  2  0  0  0  0
  7 13  1  0  0  0  0
  7 15  1  0  0  0  0
  8  9  1  0  0  0  0
  8 12  2  0  0  0  0
  8 21  1  0  0  0  0
 10 13  1  0  0  0  0
 10 14  1  0  0  0  0
 10 26  1  0  0  0  0
 10 27  1  0  0  0  0
 11 14  1  0  0  0  0
 11 18  2  0  0  0  0
 11 20  1  0  0  0  0
 12 19  1  0  0  0  0
 15 19  2  0  0  0  0
 15 28  1  0  0  0  0
 16 17  2  0  0  0  0
 16 18  1  0  0  0  0
 17 22  1  0  0  0  0
 18 29  1  0  0  0  0
 19 30  1  0  0  0  0
 20 22  2  0  0  0  0
 20 31  1  0  0  0  0
 21 24  2  0  0  0  0
 21 32  1  0  0  0  0
 22 33  1  0  0  0  0
 23 34  1  0  0  0  0
 23 35  1  0  0  0  0
 24 36  1  0  0  0  0
 25 37  1  0  0  0  0
 25 38  1  0  0  0  0
 25 39  1  0  0  0  0
M  END
>  <PUBCHEM_COMPOUND_CID>
627910

>  <PUBCHEM_COMPOUND_CANONICALIZED>
1

>  <PUBCHEM_CACTVS_COMPLEXITY>
520

>  <PUBCHEM_CACTVS_HBOND_ACCEPTOR>
6

>  <PUBCHEM_CACTVS_HBOND_DONOR>
0

>  <PUBCHEM_CACTVS_ROTATABLE_BOND>
5

>  <PUBCHEM_CACTVS_SUBSKEYS>
AAADccB4OAAAAAAAAAAAAAAAAAAAASJAAAAwYAAAAAAAAEgB9AAAGgAAAAAADASgmAMyDsAABECIAqhSgAACCAAkIAAIiAEGiMgdJzaMNRqiOWKl4BUOqYfK7vzuIAADCAAIQABAAAYQABCAAAAAAAAAAA==

>  <PUBCHEM_IUPAC_OPENEYE_NAME>
1-(1,3-benzodioxol-5-yl)-3-(4-methoxybenzofuran-5-yl)propane-1,3-dione

>  <PUBCHEM_IUPAC_CAS_NAME>
1-(1,3-benzodioxol-5-yl)-3-(4-methoxy-5-benzofuranyl)propane-1,3-dione

>  <PUBCHEM_IUPAC_NAME>
1-(1,3-benzodioxol-5-yl)-3-(4-methoxy-1-benzofuran-5-yl)propane-1,3-dione

>  <PUBCHEM_IUPAC_SYSTEMATIC_NAME>
1-(1,3-benzodioxol-5-yl)-3-(4-methoxy-1-benzofuran-5-yl)propane-1,3-dione

>  <PUBCHEM_IUPAC_TRADITIONAL_NAME>
1-(1,3-benzodioxol-5-yl)-3-(4-methoxybenzofuran-5-yl)propane-1,3-dione

>  <PUBCHEM_IUPAC_INCHI>
InChI=1S/C19H14O6/c1-22-19-12(3-5-16-13(19)6-7-23-16)15(21)9-14(20)11-2-4-17-18(8-11)25-10-24-17/h2-8H,9-10H2,1H3

>  <PUBCHEM_IUPAC_INCHIKEY>
SDJBCBKWKASUCJ-UHFFFAOYSA-N

>  <PUBCHEM_XLOGP3_AA>
3.3

>  <PUBCHEM_EXACT_MASS>
338.079

>  <PUBCHEM_MOLECULAR_FORMULA>
C19H14O6

>  <PUBCHEM_MOLECULAR_WEIGHT>
338.315

>  <PUBCHEM_OPENEYE_CAN_SMILES>
COC1=C(C=CC2=C1C=CO2)C(=O)CC(=O)C3=CC4=C(C=C3)OCO4

>  <PUBCHEM_OPENEYE_ISO_SMILES>
COC1=C(C=CC2=C1C=CO2)C(=O)CC(=O)C3=CC4=C(C=C3)OCO4

>  <PUBCHEM_CACTVS_TPSA>
75

>  <PUBCHEM_MONOISOTOPIC_WEIGHT>
338.079

>  <PUBCHEM_TOTAL_CHARGE>
0

>  <PUBCHEM_HEAVY_ATOM_COUNT>
25

>  <PUBCHEM_ATOM_DEF_STEREO_COUNT>
0

>  <PUBCHEM_ATOM_UDEF_STEREO_COUNT>
0

>  <PUBCHEM_BOND_DEF_STEREO_COUNT>
0

>  <PUBCHEM_BOND_UDEF_STEREO_COUNT>
0

>  <PUBCHEM_ISOTOPIC_ATOM_COUNT>
0

>  <PUBCHEM_COMPONENT_COUNT>
1

>  <PUBCHEM_CACTVS_TAUTO_COUNT>
3

>  <PUBCHEM_COORDINATE_TYPE>
1
5
255

>  <PUBCHEM_BONDANNOTATIONS>
1  12  8
1  24  8
11  18  8
11  20  8
12  19  8
15  19  8
16  17  8
16  18  8
17  22  8
20  22  8
21  24  8
7  15  8
7  9  8
8  12  8
8  21  8
8  9  8

$$$$
