631170
 OpenBabel06101807152D

 43 45  0  0  0  0  0  0  0  0999 V2000
    6.3981   -0.2723    0.0000 O   0  0  0  0  0  0  0  0  0  0  0  0
    4.6497    2.7623    0.0000 O   0  0  0  0  0  0  0  0  0  0  0  0
    2.8680   -0.2964    0.0000 O   0  0  0  0  0  0  0  0  0  0  0  0
    8.9962   -2.7723    0.0000 O   0  0  0  0  0  0  0  0  0  0  0  0
    6.3981    2.7277    0.0000 O   0  0  0  0  0  0  0  0  0  0  0  0
   10.7282   -1.7723    0.0000 O   0  0  0  0  0  0  0  0  0  0  0  0
    5.5320    1.2277    0.0000 C   0  0  0  0  0  0  0  0  0  0  0  0
    5.5320    0.2277    0.0000 C   0  0  0  0  0  0  0  0  0  0  0  0
    7.2641    0.2277    0.0000 C   0  0  0  0  0  0  0  0  0  0  0  0
    8.1301   -0.2723    0.0000 C   0  0  0  0  0  0  0  0  0  0  0  0
    4.6381    1.7624    0.0000 C   0  0  0  0  0  0  0  0  0  0  0  0
    6.3981    1.7277    0.0000 C   0  0  0  0  0  0  0  0  0  0  0  0
    7.2641    1.2277    0.0000 C   0  0  0  0  0  0  0  0  0  0  0  0
    4.6381   -0.3069    0.0000 C   0  0  0  0  0  0  0  0  0  0  0  0
    3.7320    0.2069    0.0000 C   0  0  0  0  0  0  0  0  0  0  0  0
    3.7320    1.2485    0.0000 C   0  0  0  0  0  0  0  0  0  0  0  0
    8.1301   -1.2723    0.0000 C   0  0  0  0  0  0  0  0  0  0  0  0
    8.9962    0.2277    0.0000 C   0  0  0  0  0  0  0  0  0  0  0  0
    8.9962   -1.7723    0.0000 C   0  0  0  0  0  0  0  0  0  0  0  0
    9.8622   -1.2723    0.0000 C   0  0  0  0  0  0  0  0  0  0  0  0
    9.8622   -0.2723    0.0000 C   0  0  0  0  0  0  0  0  0  0  0  0
    3.7895    3.2723    0.0000 C   0  0  0  0  0  0  0  0  0  0  0  0
    2.0000    0.2002    0.0000 C   0  0  0  0  0  0  0  0  0  0  0  0
    8.1301   -3.2723    0.0000 C   0  0  0  0  0  0  0  0  0  0  0  0
   11.5942   -1.2723    0.0000 C   0  0  0  0  0  0  0  0  0  0  0  0
    7.8010    1.5377    0.0000 H   0  0  0  0  0  0  0  0  0  0  0  0
    4.6453   -0.9269    0.0000 H   0  0  0  0  0  0  0  0  0  0  0  0
    3.1963    1.5606    0.0000 H   0  0  0  0  0  0  0  0  0  0  0  0
    7.5932   -1.5823    0.0000 H   0  0  0  0  0  0  0  0  0  0  0  0
    8.9962    0.8477    0.0000 H   0  0  0  0  0  0  0  0  0  0  0  0
   10.3991    0.0377    0.0000 H   0  0  0  0  0  0  0  0  0  0  0  0
    4.1057    3.8056    0.0000 H   0  0  0  0  0  0  0  0  0  0  0  0
    3.2562    3.5885    0.0000 H   0  0  0  0  0  0  0  0  0  0  0  0
    3.4733    2.7390    0.0000 H   0  0  0  0  0  0  0  0  0  0  0  0
    2.3079    0.7383    0.0000 H   0  0  0  0  0  0  0  0  0  0  0  0
    1.4619    0.5081    0.0000 H   0  0  0  0  0  0  0  0  0  0  0  0
    1.6921   -0.3379    0.0000 H   0  0  0  0  0  0  0  0  0  0  0  0
    7.8201   -2.7354    0.0000 H   0  0  0  0  0  0  0  0  0  0  0  0
    7.5932   -3.5823    0.0000 H   0  0  0  0  0  0  0  0  0  0  0  0
    8.4401   -3.8092    0.0000 H   0  0  0  0  0  0  0  0  0  0  0  0
   11.9042   -1.8092    0.0000 H   0  0  0  0  0  0  0  0  0  0  0  0
   12.1312   -0.9623    0.0000 H   0  0  0  0  0  0  0  0  0  0  0  0
   11.2842   -0.7354    0.0000 H   0  0  0  0  0  0  0  0  0  0  0  0
  1  8  1  0  0  0  0
  1  9  1  0  0  0  0
  2 11  1  0  0  0  0
  2 22  1  0  0  0  0
  3 15  1  0  0  0  0
  3 23  1  0  0  0  0
  4 19  1  0  0  0  0
  4 24  1  0  0  0  0
  5 12  2  0  0  0  0
  6 20  1  0  0  0  0
  6 25  1  0  0  0  0
  7  8  2  0  0  0  0
  7 11  1  0  0  0  0
  7 12  1  0  0  0  0
  8 14  1  0  0  0  0
  9 10  1  0  0  0  0
  9 13  2  0  0  0  0
 10 17  2  0  0  0  0
 10 18  1  0  0  0  0
 11 16  2  0  0  0  0
 12 13  1  0  0  0  0
 13 26  1  0  0  0  0
 14 15  2  0  0  0  0
 14 27  1  0  0  0  0
 15 16  1  0  0  0  0
 16 28  1  0  0  0  0
 17 19  1  0  0  0  0
 17 29  1  0  0  0  0
 18 21  2  0  0  0  0
 18 30  1  0  0  0  0
 19 20  2  0  0  0  0
 20 21  1  0  0  0  0
 21 31  1  0  0  0  0
 22 32  1  0  0  0  0
 22 33  1  0  0  0  0
 22 34  1  0  0  0  0
 23 35  1  0  0  0  0
 23 36  1  0  0  0  0
 23 37  1  0  0  0  0
 24 38  1  0  0  0  0
 24 39  1  0  0  0  0
 24 40  1  0  0  0  0
 25 41  1  0  0  0  0
 25 42  1  0  0  0  0
 25 43  1  0  0  0  0
M  END
>  <PUBCHEM_COMPOUND_CID>
631170

>  <PUBCHEM_COMPOUND_CANONICALIZED>
1

>  <PUBCHEM_CACTVS_COMPLEXITY>
504

>  <PUBCHEM_CACTVS_HBOND_ACCEPTOR>
6

>  <PUBCHEM_CACTVS_HBOND_DONOR>
0

>  <PUBCHEM_CACTVS_ROTATABLE_BOND>
5

>  <PUBCHEM_CACTVS_SUBSKEYS>
AAADceB4OAAAAAAAAAAAAAAAAAAAAAAAAAAwYIAAAAAAAACBQAAAGgAAAAAADASAmAIyBoAABACIAqBSAAACCAAkIAAIiAEGiMgNJzaENRqCOWKl4BUKqQfI7LzOIAABCAAIQABAAAIQABCAAAAAAAAAAA==

>  <PUBCHEM_IUPAC_OPENEYE_NAME>
2-(3,4-dimethoxyphenyl)-5,7-dimethoxy-chromen-4-one

>  <PUBCHEM_IUPAC_CAS_NAME>
2-(3,4-dimethoxyphenyl)-5,7-dimethoxy-1-benzopyran-4-one

>  <PUBCHEM_IUPAC_NAME>
2-(3,4-dimethoxyphenyl)-5,7-dimethoxychromen-4-one

>  <PUBCHEM_IUPAC_SYSTEMATIC_NAME>
2-(3,4-dimethoxyphenyl)-5,7-dimethoxy-chromen-4-one

>  <PUBCHEM_IUPAC_TRADITIONAL_NAME>
2-(3,4-dimethoxyphenyl)-5,7-dimethoxy-chromone

>  <PUBCHEM_IUPAC_INCHI>
InChI=1S/C19H18O6/c1-21-12-8-17(24-4)19-13(20)10-15(25-18(19)9-12)11-5-6-14(22-2)16(7-11)23-3/h5-10H,1-4H3

>  <PUBCHEM_IUPAC_INCHIKEY>
CLXVBVLQKLQNRQ-UHFFFAOYSA-N

>  <PUBCHEM_XLOGP3>
2.1

>  <PUBCHEM_EXACT_MASS>
342.11

>  <PUBCHEM_MOLECULAR_FORMULA>
C19H18O6

>  <PUBCHEM_MOLECULAR_WEIGHT>
342.347

>  <PUBCHEM_OPENEYE_CAN_SMILES>
COC1=C(C=C(C=C1)C2=CC(=O)C3=C(C=C(C=C3O2)OC)OC)OC

>  <PUBCHEM_OPENEYE_ISO_SMILES>
COC1=C(C=C(C=C1)C2=CC(=O)C3=C(C=C(C=C3O2)OC)OC)OC

>  <PUBCHEM_CACTVS_TPSA>
63.2

>  <PUBCHEM_MONOISOTOPIC_WEIGHT>
342.11

>  <PUBCHEM_TOTAL_CHARGE>
0

>  <PUBCHEM_HEAVY_ATOM_COUNT>
25

>  <PUBCHEM_ATOM_DEF_STEREO_COUNT>
0

>  <PUBCHEM_ATOM_UDEF_STEREO_COUNT>
0

>  <PUBCHEM_BOND_DEF_STEREO_COUNT>
0

>  <PUBCHEM_BOND_UDEF_STEREO_COUNT>
0

>  <PUBCHEM_ISOTOPIC_ATOM_COUNT>
0

>  <PUBCHEM_COMPONENT_COUNT>
1

>  <PUBCHEM_CACTVS_TAUTO_COUNT>
1

>  <PUBCHEM_COORDINATE_TYPE>
1
5
255

>  <PUBCHEM_BONDANNOTATIONS>
1  8  8
1  9  8
10  17  8
10  18  8
11  16  8
12  13  8
14  15  8
15  16  8
17  19  8
18  21  8
19  20  8
20  21  8
7  11  8
7  12  8
7  8  8
8  14  8
9  13  8

$$$$
