6324952
 OpenBabel06101807152D

 57 60  0  0  1  0  0  0  0  0999 V2000
    4.2690   -1.1907    0.0000 O   0  0  0  0  0  0  0  0  0  0  0  0
    6.0010   -3.1907    0.0000 O   0  0  0  0  0  0  0  0  0  0  0  0
    6.0010   -1.1907    0.0000 O   0  0  0  0  0  0  0  0  0  0  0  0
    4.2690   -4.1907    0.0000 O   0  0  0  0  0  0  0  0  0  0  0  0
    2.5369   -3.1907    0.0000 O   0  0  0  0  0  0  0  0  0  0  0  0
    6.8671    1.3093    0.0000 O   0  0  0  0  0  0  0  0  0  0  0  0
    5.1350   -4.6907    0.0000 O   0  0  0  0  0  0  0  0  0  0  0  0
    4.2690   -0.1907    0.0000 O   0  0  0  0  0  0  0  0  0  0  0  0
    3.3648    1.3062    0.0000 O   0  0  0  0  0  0  0  0  0  0  0  0
    5.1229    4.3786    0.0000 O   0  0  0  0  0  0  0  0  0  0  0  0
   10.3312    0.3093    0.0000 O   0  0  0  0  0  0  0  0  0  0  0  0
   10.3312   -1.6907    0.0000 O   0  0  0  0  0  0  0  0  0  0  0  0
    4.2690   -3.1907    0.0000 C   0  0  2  0  0  0  0  0  0  0  0  0
    3.4030   -2.6907    0.0000 C   0  0  2  0  0  0  0  0  0  0  0  0
    5.1350   -2.6907    0.0000 C   0  0  2  0  0  0  0  0  0  0  0  0
    3.4030   -1.6907    0.0000 C   0  0  2  0  0  0  0  0  0  0  0  0
    5.1350   -1.6907    0.0000 C   0  0  1  0  0  0  0  0  0  0  0  0
    2.5369   -1.1907    0.0000 C   0  0  0  0  0  0  0  0  0  0  0  0
    6.0010   -0.1907    0.0000 C   0  0  0  0  0  0  0  0  0  0  0  0
    6.0010   -4.1907    0.0000 C   0  0  0  0  0  0  0  0  0  0  0  0
    6.8671    0.3093    0.0000 C   0  0  0  0  0  0  0  0  0  0  0  0
    5.1350    0.3093    0.0000 C   0  0  0  0  0  0  0  0  0  0  0  0
    5.1350    1.3093    0.0000 C   0  0  0  0  0  0  0  0  0  0  0  0
    6.0010    1.8093    0.0000 C   0  0  0  0  0  0  0  0  0  0  0  0
    7.7331   -0.1907    0.0000 C   0  0  0  0  0  0  0  0  0  0  0  0
    6.8671   -4.6907    0.0000 C   0  0  0  0  0  0  0  0  0  0  0  0
    4.2250    1.8162    0.0000 C   0  0  0  0  0  0  0  0  0  0  0  0
    6.0171    2.8508    0.0000 C   0  0  0  0  0  0  0  0  0  0  0  0
    8.5991    0.3093    0.0000 C   0  0  0  0  0  0  0  0  0  0  0  0
    7.7331   -1.1907    0.0000 C   0  0  0  0  0  0  0  0  0  0  0  0
    4.2170    2.8578    0.0000 C   0  0  0  0  0  0  0  0  0  0  0  0
    5.1191    3.3786    0.0000 C   0  0  0  0  0  0  0  0  0  0  0  0
    9.4651   -0.1907    0.0000 C   0  0  0  0  0  0  0  0  0  0  0  0
    8.5991   -1.6907    0.0000 C   0  0  0  0  0  0  0  0  0  0  0  0
    9.4651   -1.1907    0.0000 C   0  0  0  0  0  0  0  0  0  0  0  0
    4.8059   -3.5007    0.0000 H   0  0  0  0  0  0  0  0  0  0  0  0
    3.4030   -3.3107    0.0000 H   0  0  0  0  0  0  0  0  0  0  0  0
    5.6720   -2.3807    0.0000 H   0  0  0  0  0  0  0  0  0  0  0  0
    3.4030   -1.0707    0.0000 H   0  0  0  0  0  0  0  0  0  0  0  0
    5.1350   -1.0707    0.0000 H   0  0  0  0  0  0  0  0  0  0  0  0
    2.8469   -0.6537    0.0000 H   0  0  0  0  0  0  0  0  0  0  0  0
    2.0000   -0.8807    0.0000 H   0  0  0  0  0  0  0  0  0  0  0  0
    2.2269   -1.7276    0.0000 H   0  0  0  0  0  0  0  0  0  0  0  0
    3.7320   -4.5007    0.0000 H   0  0  0  0  0  0  0  0  0  0  0  0
    2.0000   -2.8807    0.0000 H   0  0  0  0  0  0  0  0  0  0  0  0
    6.5571   -5.2276    0.0000 H   0  0  0  0  0  0  0  0  0  0  0  0
    7.4040   -5.0007    0.0000 H   0  0  0  0  0  0  0  0  0  0  0  0
    7.1771   -4.1537    0.0000 H   0  0  0  0  0  0  0  0  0  0  0  0
    6.5576    3.1546    0.0000 H   0  0  0  0  0  0  0  0  0  0  0  0
    8.5991    0.9293    0.0000 H   0  0  0  0  0  0  0  0  0  0  0  0
    7.1962   -1.5007    0.0000 H   0  0  0  0  0  0  0  0  0  0  0  0
    3.6788    3.1657    0.0000 H   0  0  0  0  0  0  0  0  0  0  0  0
    8.5991   -2.3107    0.0000 H   0  0  0  0  0  0  0  0  0  0  0  0
    2.8243    1.6100    0.0000 H   0  0  0  0  0  0  0  0  0  0  0  0
    4.5872    4.6907    0.0000 H   0  0  0  0  0  0  0  0  0  0  0  0
   10.3312    0.9293    0.0000 H   0  0  0  0  0  0  0  0  0  0  0  0
   10.8681   -1.3807    0.0000 H   0  0  0  0  0  0  0  0  0  0  0  0
  1 16  1  0  0  0  0
  1 17  1  0  0  0  0
  2 20  1  0  0  0  0
  3 19  1  0  0  0  0
  4 44  1  0  0  0  0
  5 45  1  0  0  0  0
  6 21  1  0  0  0  0
  6 24  1  0  0  0  0
  7 20  2  0  0  0  0
  8 22  2  0  0  0  0
  9 27  1  0  0  0  0
  9 54  1  0  0  0  0
 10 32  1  0  0  0  0
 10 55  1  0  0  0  0
 11 33  1  0  0  0  0
 11 56  1  0  0  0  0
 12 35  1  0  0  0  0
 12 57  1  0  0  0  0
 13  4  1  0  0  0  0
 13 14  1  1  0  0  0
 13 36  1  0  0  0  0
 14  5  1  0  0  0  0
 14 16  1  6  0  0  0
 14 37  1  0  0  0  0
 15  2  1  0  0  0  0
 15 13  1  1  0  0  0
 15 38  1  0  0  0  0
 16 18  1  0  0  0  0
 16 39  1  1  0  0  0
 17  3  1  0  0  0  0
 17 15  1  6  0  0  0
 17 40  1  0  0  0  0
 18 41  1  0  0  0  0
 18 42  1  0  0  0  0
 18 43  1  0  0  0  0
 19 21  2  0  0  0  0
 19 22  1  0  0  0  0
 20 26  1  0  0  0  0
 21 25  1  0  0  0  0
 22 23  1  0  0  0  0
 23 24  1  0  0  0  0
 23 27  2  0  0  0  0
 24 28  2  0  0  0  0
 25 29  2  0  0  0  0
 25 30  1  0  0  0  0
 26 46  1  0  0  0  0
 26 47  1  0  0  0  0
 26 48  1  0  0  0  0
 27 31  1  0  0  0  0
 28 32  1  0  0  0  0
 28 49  1  0  0  0  0
 29 33  1  0  0  0  0
 29 50  1  0  0  0  0
 30 34  2  0  0  0  0
 30 51  1  0  0  0  0
 31 32  2  0  0  0  0
 31 52  1  0  0  0  0
 33 35  2  0  0  0  0
 34 35  1  0  0  0  0
 34 53  1  0  0  0  0
M  END
>  <PUBCHEM_COMPOUND_CID>
6324952

>  <PUBCHEM_COMPOUND_CANONICALIZED>
1

>  <PUBCHEM_CACTVS_COMPLEXITY>
844

>  <PUBCHEM_CACTVS_HBOND_ACCEPTOR>
12

>  <PUBCHEM_CACTVS_HBOND_DONOR>
6

>  <PUBCHEM_CACTVS_ROTATABLE_BOND>
5

>  <PUBCHEM_CACTVS_SUBSKEYS>
AAADceB4PAAAAAAAAAAAAAAAAAAAAAAAAAA0YIEAAAAAAACBQAAAGgAACAAADBSwmAMyDoAABgCIAqDSCAICCAAkIAAIiAFGiMgdNzaGNR6ieWGl4BUPuQfI7LzOIAABCAAIQABAAAIQABCAAAAAAAAAAA==

>  <PUBCHEM_IUPAC_OPENEYE_NAME>
[(2S,3R,4R,5R,6S)-2-[2-(3,4-dihydroxyphenyl)-5,7-dihydroxy-4-oxo-chromen-3-yl]oxy-4,5-dihydroxy-6-methyl-tetrahydropyran-3-yl] acetate

>  <PUBCHEM_IUPAC_CAS_NAME>
acetic acid [(2S,3R,4R,5R,6S)-2-[[2-(3,4-dihydroxyphenyl)-5,7-dihydroxy-4-oxo-1-benzopyran-3-yl]oxy]-4,5-dihydroxy-6-methyl-3-oxanyl] ester

>  <PUBCHEM_IUPAC_NAME>
[(2S,3R,4R,5R,6S)-2-[2-(3,4-dihydroxyphenyl)-5,7-dihydroxy-4-oxochromen-3-yl]oxy-4,5-dihydroxy-6-methyloxan-3-yl] acetate

>  <PUBCHEM_IUPAC_SYSTEMATIC_NAME>
[(2S,3R,4R,5R,6S)-2-[2-[3,4-bis(oxidanyl)phenyl]-5,7-bis(oxidanyl)-4-oxidanylidene-chromen-3-yl]oxy-6-methyl-4,5-bis(oxidanyl)oxan-3-yl] ethanoate

>  <PUBCHEM_IUPAC_TRADITIONAL_NAME>
acetic acid [(2S,3R,4R,5R,6S)-2-[2-(3,4-dihydroxyphenyl)-5,7-dihydroxy-4-keto-chromen-3-yl]oxy-4,5-dihydroxy-6-methyl-tetrahydropyran-3-yl] ester

>  <PUBCHEM_IUPAC_INCHI>
InChI=1S/C23H22O12/c1-8-17(29)19(31)22(33-9(2)24)23(32-8)35-21-18(30)16-14(28)6-11(25)7-15(16)34-20(21)10-3-4-12(26)13(27)5-10/h3-8,17,19,22-23,25-29,31H,1-2H3/t8-,17-,19+,22+,23-/m0/s1

>  <PUBCHEM_IUPAC_INCHIKEY>
QYSPPPJDISHVRH-ZKLNTULWSA-N

>  <PUBCHEM_XLOGP3_AA>
1.4

>  <PUBCHEM_EXACT_MASS>
490.111

>  <PUBCHEM_MOLECULAR_FORMULA>
C23H22O12

>  <PUBCHEM_MOLECULAR_WEIGHT>
490.417

>  <PUBCHEM_OPENEYE_CAN_SMILES>
CC1C(C(C(C(O1)OC2=C(OC3=CC(=CC(=C3C2=O)O)O)C4=CC(=C(C=C4)O)O)OC(=O)C)O)O

>  <PUBCHEM_OPENEYE_ISO_SMILES>
C[C@H]1[C@@H]([C@H]([C@H]([C@@H](O1)OC2=C(OC3=CC(=CC(=C3C2=O)O)O)C4=CC(=C(C=C4)O)O)OC(=O)C)O)O

>  <PUBCHEM_CACTVS_TPSA>
192

>  <PUBCHEM_MONOISOTOPIC_WEIGHT>
490.111

>  <PUBCHEM_TOTAL_CHARGE>
0

>  <PUBCHEM_HEAVY_ATOM_COUNT>
35

>  <PUBCHEM_ATOM_DEF_STEREO_COUNT>
5

>  <PUBCHEM_ATOM_UDEF_STEREO_COUNT>
0

>  <PUBCHEM_BOND_DEF_STEREO_COUNT>
0

>  <PUBCHEM_BOND_UDEF_STEREO_COUNT>
0

>  <PUBCHEM_ISOTOPIC_ATOM_COUNT>
0

>  <PUBCHEM_COMPONENT_COUNT>
1

>  <PUBCHEM_CACTVS_TAUTO_COUNT>
162

>  <PUBCHEM_COORDINATE_TYPE>
1
5
255

>  <PUBCHEM_BONDANNOTATIONS>
16  18  6
19  21  8
19  22  8
15  2  6
22  23  8
23  24  8
23  27  8
24  28  8
25  29  8
25  30  8
27  31  8
28  32  8
29  33  8
17  3  5
30  34  8
31  32  8
33  35  8
34  35  8
13  4  6
14  5  5
6  21  8
6  24  8

$$$$
