6328145
 OpenBabel06101807152D

  1  0  0  0  0  0  0  0  0  0999 V2000
    2.0000    0.0000    0.0000 Fr  0  0  0  0  0 15  0  0  0  0  0  0
M  RAD  1   1   2
M  END
>  <PUBCHEM_COMPOUND_CID>
6328145

>  <PUBCHEM_COMPOUND_CANONICALIZED>
1

>  <PUBCHEM_CACTVS_COMPLEXITY>
0

>  <PUBCHEM_CACTVS_HBOND_ACCEPTOR>
0

>  <PUBCHEM_CACTVS_HBOND_DONOR>
0

>  <PUBCHEM_CACTVS_ROTATABLE_BOND>
0

>  <PUBCHEM_CACTVS_SUBSKEYS>
AAADcQAAAAAAAAAAAAAAAAAAAAAAAAAAAAAAAAAAAAAAAAAAAAAAAAAAAAAAAAAAAAAAAAAAAAAAAAAAAAAAAAAAAAAAAAAAAAAAAAAAAAAAAAAAAAAAAAAAAAAAAAAAAAAAAAAAAAAAAAAAAAAAAAAAAA==

>  <PUBCHEM_IUPAC_OPENEYE_NAME>
francium

>  <PUBCHEM_IUPAC_CAS_NAME>
francium

>  <PUBCHEM_IUPAC_NAME>
francium

>  <PUBCHEM_IUPAC_SYSTEMATIC_NAME>
francium

>  <PUBCHEM_IUPAC_TRADITIONAL_NAME>
francium

>  <PUBCHEM_IUPAC_INCHI>
InChI=1S/Fr

>  <PUBCHEM_IUPAC_INCHIKEY>
KLMCZVJOEAUDNE-UHFFFAOYSA-N

>  <PUBCHEM_EXACT_MASS>
223.02

>  <PUBCHEM_MOLECULAR_FORMULA>
Fr

>  <PUBCHEM_MOLECULAR_WEIGHT>
223.02

>  <PUBCHEM_OPENEYE_CAN_SMILES>
[Fr]

>  <PUBCHEM_OPENEYE_ISO_SMILES>
[Fr]

>  <PUBCHEM_CACTVS_TPSA>
0

>  <PUBCHEM_MONOISOTOPIC_WEIGHT>
223.02

>  <PUBCHEM_TOTAL_CHARGE>
0

>  <PUBCHEM_HEAVY_ATOM_COUNT>
1

>  <PUBCHEM_ATOM_DEF_STEREO_COUNT>
0

>  <PUBCHEM_ATOM_UDEF_STEREO_COUNT>
0

>  <PUBCHEM_BOND_DEF_STEREO_COUNT>
0

>  <PUBCHEM_BOND_UDEF_STEREO_COUNT>
0

>  <PUBCHEM_ISOTOPIC_ATOM_COUNT>
0

>  <PUBCHEM_COMPONENT_COUNT>
1

>  <PUBCHEM_CACTVS_TAUTO_COUNT>
1

>  <PUBCHEM_COORDINATE_TYPE>
1
5
255

$$$$
