636472
 OpenBabel06101807152D

 33 36  0  0  0  0  0  0  0  0999 V2000
    6.3198    2.1296    0.0000 O   0  0  0  0  0  0  0  0  0  0  0  0
    4.5877    1.1296    0.0000 O   0  0  0  0  0  0  0  0  0  0  0  0
    6.3198   -0.8704    0.0000 C   0  0  0  0  0  0  0  0  0  0  0  0
    5.4538   -0.3704    0.0000 C   0  0  0  0  0  0  0  0  0  0  0  0
    6.3037   -1.9119    0.0000 C   0  0  0  0  0  0  0  0  0  0  0  0
    4.5943   -0.8651    0.0000 C   0  0  0  0  0  0  0  0  0  0  0  0
    7.1858   -0.3704    0.0000 C   0  0  0  0  0  0  0  0  0  0  0  0
    5.4538    0.6296    0.0000 C   0  0  0  0  0  0  0  0  0  0  0  0
    5.4266   -2.3746    0.0000 C   0  0  0  0  0  0  0  0  0  0  0  0
    4.5809   -1.8568    0.0000 C   0  0  0  0  0  0  0  0  0  0  0  0
    3.7320   -0.3587    0.0000 C   0  0  0  0  0  0  0  0  0  0  0  0
    7.1858    0.6296    0.0000 C   0  0  0  0  0  0  0  0  0  0  0  0
    7.2018   -2.4396    0.0000 C   0  0  0  0  0  0  0  0  0  0  0  0
    8.0958   -0.8772    0.0000 C   0  0  0  0  0  0  0  0  0  0  0  0
    6.3198    1.1296    0.0000 C   0  0  0  0  0  0  0  0  0  0  0  0
    8.1038   -1.9188    0.0000 C   0  0  0  0  0  0  0  0  0  0  0  0
    3.7394    0.6412    0.0000 C   0  0  0  0  0  0  0  0  0  0  0  0
    2.8623   -0.8523    0.0000 C   0  0  0  0  0  0  0  0  0  0  0  0
    2.8771    1.1476    0.0000 C   0  0  0  0  0  0  0  0  0  0  0  0
    2.0000   -0.3459    0.0000 C   0  0  0  0  0  0  0  0  0  0  0  0
    2.0074    0.6540    0.0000 C   0  0  0  0  0  0  0  0  0  0  0  0
    4.0379   -2.1561    0.0000 H   0  0  0  0  0  0  0  0  0  0  0  0
    5.4068   -2.9943    0.0000 H   0  0  0  0  0  0  0  0  0  0  0  0
    7.7228    0.9396    0.0000 H   0  0  0  0  0  0  0  0  0  0  0  0
    7.1994   -3.0596    0.0000 H   0  0  0  0  0  0  0  0  0  0  0  0
    8.6291   -0.5610    0.0000 H   0  0  0  0  0  0  0  0  0  0  0  0
    8.6420   -2.2267    0.0000 H   0  0  0  0  0  0  0  0  0  0  0  0
    4.2786    0.9472    0.0000 H   0  0  0  0  0  0  0  0  0  0  0  0
    2.8577   -1.4723    0.0000 H   0  0  0  0  0  0  0  0  0  0  0  0
    2.8817    1.7676    0.0000 H   0  0  0  0  0  0  0  0  0  0  0  0
    1.4608   -0.6519    0.0000 H   0  0  0  0  0  0  0  0  0  0  0  0
    1.4728    0.9680    0.0000 H   0  0  0  0  0  0  0  0  0  0  0  0
    6.8567    2.4396    0.0000 H   0  0  0  0  0  0  0  0  0  0  0  0
  1 15  1  0  0  0  0
  1 33  1  0  0  0  0
  2  8  2  0  0  0  0
  3  4  1  0  0  0  0
  3  5  2  0  0  0  0
  3  7  1  0  0  0  0
  4  6  2  0  0  0  0
  4  8  1  0  0  0  0
  5  9  1  0  0  0  0
  5 13  1  0  0  0  0
  6 10  1  0  0  0  0
  6 11  1  0  0  0  0
  7 12  1  0  0  0  0
  7 14  2  0  0  0  0
  8 15  1  0  0  0  0
  9 10  2  0  0  0  0
  9 23  1  0  0  0  0
 10 22  1  0  0  0  0
 11 17  2  0  0  0  0
 11 18  1  0  0  0  0
 12 15  2  0  0  0  0
 12 24  1  0  0  0  0
 13 16  2  0  0  0  0
 13 25  1  0  0  0  0
 14 16  1  0  0  0  0
 14 26  1  0  0  0  0
 16 27  1  0  0  0  0
 17 19  1  0  0  0  0
 17 28  1  0  0  0  0
 18 20  2  0  0  0  0
 18 29  1  0  0  0  0
 19 21  2  0  0  0  0
 19 30  1  0  0  0  0
 20 21  1  0  0  0  0
 20 31  1  0  0  0  0
 21 32  1  0  0  0  0
M  END
>  <PUBCHEM_COMPOUND_CID>
636472

>  <PUBCHEM_COMPOUND_CANONICALIZED>
1

>  <PUBCHEM_CACTVS_COMPLEXITY>
447

>  <PUBCHEM_CACTVS_HBOND_ACCEPTOR>
2

>  <PUBCHEM_CACTVS_HBOND_DONOR>
1

>  <PUBCHEM_CACTVS_ROTATABLE_BOND>
1

>  <PUBCHEM_CACTVS_SUBSKEYS>
AAADccB4MAAAAAAAAAAAAAAAAAAAAAAAAAAwYMEAAAAAAADBVAAAGgAACAAADASAmAAwAMAAAgCIAqBSAAICAAAkIAAIiAFAAMgIIDKAFRCAYQAkwAEIiYeIyPCOwAACAAAQAACAAAQAACAAAAAAAAAAAA==

>  <PUBCHEM_IUPAC_OPENEYE_NAME>
2-hydroxy-9-phenyl-phenalen-1-one

>  <PUBCHEM_IUPAC_CAS_NAME>
2-hydroxy-9-phenyl-1-phenalenone

>  <PUBCHEM_IUPAC_NAME>
2-hydroxy-9-phenylphenalen-1-one

>  <PUBCHEM_IUPAC_SYSTEMATIC_NAME>
2-oxidanyl-9-phenyl-phenalen-1-one

>  <PUBCHEM_IUPAC_TRADITIONAL_NAME>
2-hydroxy-9-phenyl-phenalen-1-one

>  <PUBCHEM_IUPAC_INCHI>
InChI=1S/C19H12O2/c20-16-11-14-8-4-7-13-9-10-15(12-5-2-1-3-6-12)18(17(13)14)19(16)21/h1-11,20H

>  <PUBCHEM_IUPAC_INCHIKEY>
ACJJXELQAJQSLK-UHFFFAOYSA-N

>  <PUBCHEM_XLOGP3_AA>
4.7

>  <PUBCHEM_EXACT_MASS>
272.084

>  <PUBCHEM_MOLECULAR_FORMULA>
C19H12O2

>  <PUBCHEM_MOLECULAR_WEIGHT>
272.303

>  <PUBCHEM_OPENEYE_CAN_SMILES>
C1=CC=C(C=C1)C2=C3C4=C(C=CC=C4C=C(C3=O)O)C=C2

>  <PUBCHEM_OPENEYE_ISO_SMILES>
C1=CC=C(C=C1)C2=C3C4=C(C=CC=C4C=C(C3=O)O)C=C2

>  <PUBCHEM_CACTVS_TPSA>
37.3

>  <PUBCHEM_MONOISOTOPIC_WEIGHT>
272.084

>  <PUBCHEM_TOTAL_CHARGE>
0

>  <PUBCHEM_HEAVY_ATOM_COUNT>
21

>  <PUBCHEM_ATOM_DEF_STEREO_COUNT>
0

>  <PUBCHEM_ATOM_UDEF_STEREO_COUNT>
0

>  <PUBCHEM_BOND_DEF_STEREO_COUNT>
0

>  <PUBCHEM_BOND_UDEF_STEREO_COUNT>
0

>  <PUBCHEM_ISOTOPIC_ATOM_COUNT>
0

>  <PUBCHEM_COMPONENT_COUNT>
1

>  <PUBCHEM_CACTVS_TAUTO_COUNT>
2

>  <PUBCHEM_COORDINATE_TYPE>
1
5
255

>  <PUBCHEM_BONDANNOTATIONS>
11  17  8
11  18  8
13  16  8
14  16  8
17  19  8
18  20  8
19  21  8
20  21  8
3  4  8
3  5  8
3  7  8
4  6  8
5  13  8
5  9  8
6  10  8
7  14  8
9  10  8

$$$$
