6365142
 OpenBabel06101807152D

 48 47  0  0  0  0  0  0  0  0999 V2000
    2.5369    0.4400    0.0000 O   0  0  0  0  0  0  0  0  0  0  0  0
    3.4030   -1.0600    0.0000 O   0  0  0  0  0  0  0  0  0  0  0  0
   12.9292    0.4400    0.0000 C   0  0  0  0  0  0  0  0  0  0  0  0
   12.0632   -0.0600    0.0000 C   0  0  0  0  0  0  0  0  0  0  0  0
   13.7953   -0.0600    0.0000 C   0  0  0  0  0  0  0  0  0  0  0  0
   11.1972    0.4400    0.0000 C   0  0  0  0  0  0  0  0  0  0  0  0
   14.6613    0.4400    0.0000 C   0  0  0  0  0  0  0  0  0  0  0  0
   10.3312   -0.0600    0.0000 C   0  0  0  0  0  0  0  0  0  0  0  0
    6.8671   -0.0600    0.0000 C   0  0  0  0  0  0  0  0  0  0  0  0
   15.5273   -0.0600    0.0000 C   0  0  0  0  0  0  0  0  0  0  0  0
    6.0010    0.4400    0.0000 C   0  0  0  0  0  0  0  0  0  0  0  0
    7.7331    0.4400    0.0000 C   0  0  0  0  0  0  0  0  0  0  0  0
    5.1350   -0.0600    0.0000 C   0  0  0  0  0  0  0  0  0  0  0  0
    9.4651    0.4400    0.0000 C   0  0  0  0  0  0  0  0  0  0  0  0
    8.5991   -0.0600    0.0000 C   0  0  0  0  0  0  0  0  0  0  0  0
   16.3933    0.4400    0.0000 C   0  0  0  0  0  0  0  0  0  0  0  0
    4.2690    0.4400    0.0000 C   0  0  0  0  0  0  0  0  0  0  0  0
    3.4030   -0.0600    0.0000 C   0  0  0  0  0  0  0  0  0  0  0  0
   13.3278    0.9149    0.0000 H   0  0  0  0  0  0  0  0  0  0  0  0
   12.5307    0.9149    0.0000 H   0  0  0  0  0  0  0  0  0  0  0  0
   11.6647   -0.5349    0.0000 H   0  0  0  0  0  0  0  0  0  0  0  0
   12.4617   -0.5349    0.0000 H   0  0  0  0  0  0  0  0  0  0  0  0
   13.3967   -0.5349    0.0000 H   0  0  0  0  0  0  0  0  0  0  0  0
   14.1938   -0.5349    0.0000 H   0  0  0  0  0  0  0  0  0  0  0  0
   11.5957    0.9149    0.0000 H   0  0  0  0  0  0  0  0  0  0  0  0
   10.7987    0.9149    0.0000 H   0  0  0  0  0  0  0  0  0  0  0  0
   15.0598    0.9149    0.0000 H   0  0  0  0  0  0  0  0  0  0  0  0
   14.2628    0.9149    0.0000 H   0  0  0  0  0  0  0  0  0  0  0  0
    9.9326   -0.5349    0.0000 H   0  0  0  0  0  0  0  0  0  0  0  0
   10.7297   -0.5349    0.0000 H   0  0  0  0  0  0  0  0  0  0  0  0
    6.4685   -0.5349    0.0000 H   0  0  0  0  0  0  0  0  0  0  0  0
    7.2656   -0.5349    0.0000 H   0  0  0  0  0  0  0  0  0  0  0  0
   15.1288   -0.5349    0.0000 H   0  0  0  0  0  0  0  0  0  0  0  0
   15.9258   -0.5349    0.0000 H   0  0  0  0  0  0  0  0  0  0  0  0
    6.3996    0.9149    0.0000 H   0  0  0  0  0  0  0  0  0  0  0  0
    5.6025    0.9149    0.0000 H   0  0  0  0  0  0  0  0  0  0  0  0
    8.1316    0.9149    0.0000 H   0  0  0  0  0  0  0  0  0  0  0  0
    7.3346    0.9149    0.0000 H   0  0  0  0  0  0  0  0  0  0  0  0
    4.7365   -0.5349    0.0000 H   0  0  0  0  0  0  0  0  0  0  0  0
    5.5335   -0.5349    0.0000 H   0  0  0  0  0  0  0  0  0  0  0  0
    9.4651    1.0600    0.0000 H   0  0  0  0  0  0  0  0  0  0  0  0
    8.5991   -0.6800    0.0000 H   0  0  0  0  0  0  0  0  0  0  0  0
    4.6675    0.9149    0.0000 H   0  0  0  0  0  0  0  0  0  0  0  0
    3.8705    0.9149    0.0000 H   0  0  0  0  0  0  0  0  0  0  0  0
   16.7033   -0.0969    0.0000 H   0  0  0  0  0  0  0  0  0  0  0  0
   16.9303    0.7500    0.0000 H   0  0  0  0  0  0  0  0  0  0  0  0
   16.0833    0.9769    0.0000 H   0  0  0  0  0  0  0  0  0  0  0  0
    2.0000    0.1300    0.0000 H   0  0  0  0  0  0  0  0  0  0  0  0
  1 18  1  0  0  0  0
  1 48  1  0  0  0  0
  2 18  2  0  0  0  0
  3  4  1  0  0  0  0
  3  5  1  0  0  0  0
  3 19  1  0  0  0  0
  3 20  1  0  0  0  0
  4  6  1  0  0  0  0
  4 21  1  0  0  0  0
  4 22  1  0  0  0  0
  5  7  1  0  0  0  0
  5 23  1  0  0  0  0
  5 24  1  0  0  0  0
  6  8  1  0  0  0  0
  6 25  1  0  0  0  0
  6 26  1  0  0  0  0
  7 10  1  0  0  0  0
  7 27  1  0  0  0  0
  7 28  1  0  0  0  0
  8 14  1  0  0  0  0
  8 29  1  0  0  0  0
  8 30  1  0  0  0  0
  9 11  1  0  0  0  0
  9 12  1  0  0  0  0
  9 31  1  0  0  0  0
  9 32  1  0  0  0  0
 10 16  1  0  0  0  0
 10 33  1  0  0  0  0
 10 34  1  0  0  0  0
 11 13  1  0  0  0  0
 11 35  1  0  0  0  0
 11 36  1  0  0  0  0
 12 15  1  0  0  0  0
 12 37  1  0  0  0  0
 12 38  1  0  0  0  0
 13 17  1  0  0  0  0
 13 39  1  0  0  0  0
 13 40  1  0  0  0  0
 14 15  2  0  0  0  0
 14 41  1  0  0  0  0
 15 42  1  0  0  0  0
 16 45  1  0  0  0  0
 16 46  1  0  0  0  0
 16 47  1  0  0  0  0
 17 18  1  0  0  0  0
 17 43  1  0  0  0  0
 17 44  1  0  0  0  0
M  END
>  <PUBCHEM_COMPOUND_CID>
6365142

>  <PUBCHEM_COMPOUND_CANONICALIZED>
1

>  <PUBCHEM_CACTVS_COMPLEXITY>
209

>  <PUBCHEM_CACTVS_HBOND_ACCEPTOR>
2

>  <PUBCHEM_CACTVS_HBOND_DONOR>
1

>  <PUBCHEM_CACTVS_ROTATABLE_BOND>
13

>  <PUBCHEM_CACTVS_SUBSKEYS>
AAADceB4MAAAAAAAAAAAAAAAAAAAAAAAAAAAAAAAAAAAAAAAAAAAGgAACAAACACAgAACCAAAAgCIACDSCAAAAAAgAAAICAEAAAgAABIAAQAAQAAEgAAIAAOIyKCAAAAAAAAAAAAAAAAAAAAAAAAAAAAAAA==

>  <PUBCHEM_IUPAC_OPENEYE_NAME>
(E)-hexadec-7-enoic acid

>  <PUBCHEM_IUPAC_CAS_NAME>
(E)-7-hexadecenoic acid

>  <PUBCHEM_IUPAC_NAME>
(E)-hexadec-7-enoic acid

>  <PUBCHEM_IUPAC_SYSTEMATIC_NAME>
(E)-hexadec-7-enoic acid

>  <PUBCHEM_IUPAC_TRADITIONAL_NAME>
(E)-hexadec-7-enoic acid

>  <PUBCHEM_IUPAC_INCHI>
InChI=1S/C16H30O2/c1-2-3-4-5-6-7-8-9-10-11-12-13-14-15-16(17)18/h9-10H,2-8,11-15H2,1H3,(H,17,18)/b10-9+

>  <PUBCHEM_IUPAC_INCHIKEY>
PJHOFUXBXJNUAC-MDZDMXLPSA-N

>  <PUBCHEM_XLOGP3>
6.4

>  <PUBCHEM_EXACT_MASS>
254.225

>  <PUBCHEM_MOLECULAR_FORMULA>
C16H30O2

>  <PUBCHEM_MOLECULAR_WEIGHT>
254.414

>  <PUBCHEM_OPENEYE_CAN_SMILES>
CCCCCCCCC=CCCCCCC(=O)O

>  <PUBCHEM_OPENEYE_ISO_SMILES>
CCCCCCCC/C=C/CCCCCC(=O)O

>  <PUBCHEM_CACTVS_TPSA>
37.3

>  <PUBCHEM_MONOISOTOPIC_WEIGHT>
254.225

>  <PUBCHEM_TOTAL_CHARGE>
0

>  <PUBCHEM_HEAVY_ATOM_COUNT>
18

>  <PUBCHEM_ATOM_DEF_STEREO_COUNT>
0

>  <PUBCHEM_ATOM_UDEF_STEREO_COUNT>
0

>  <PUBCHEM_BOND_DEF_STEREO_COUNT>
1

>  <PUBCHEM_BOND_UDEF_STEREO_COUNT>
0

>  <PUBCHEM_ISOTOPIC_ATOM_COUNT>
0

>  <PUBCHEM_COMPONENT_COUNT>
1

>  <PUBCHEM_CACTVS_TAUTO_COUNT>
1

>  <PUBCHEM_COORDINATE_TYPE>
1
5
255

$$$$
