638190
 OpenBabel06101807152D

 45 46  0  0  0  0  0  0  0  0999 V2000
    4.2690    5.6550    0.0000 O   0  0  0  0  0  0  0  0  0  0  0  0
    2.5369    4.6550    0.0000 O   0  0  0  0  0  0  0  0  0  0  0  0
    7.7331    1.6550    0.0000 O   0  0  0  0  0  0  0  0  0  0  0  0
    8.5991    0.1550    0.0000 O   0  0  0  0  0  0  0  0  0  0  0  0
    8.5991   -5.8450    0.0000 O   0  0  0  0  0  0  0  0  0  0  0  0
    6.0010    2.6550    0.0000 C   0  0  0  0  0  0  0  0  0  0  0  0
    5.1350    3.1550    0.0000 C   0  0  0  0  0  0  0  0  0  0  0  0
    6.0010    1.6550    0.0000 C   0  0  0  0  0  0  0  0  0  0  0  0
    5.1350    4.1550    0.0000 C   0  0  0  0  0  0  0  0  0  0  0  0
    4.2690    2.6550    0.0000 C   0  0  0  0  0  0  0  0  0  0  0  0
    4.2690    4.6550    0.0000 C   0  0  0  0  0  0  0  0  0  0  0  0
    6.8671    1.1550    0.0000 C   0  0  0  0  0  0  0  0  0  0  0  0
    3.4030    3.1550    0.0000 C   0  0  0  0  0  0  0  0  0  0  0  0
    3.4030    4.1550    0.0000 C   0  0  0  0  0  0  0  0  0  0  0  0
    6.8671    0.1550    0.0000 C   0  0  0  0  0  0  0  0  0  0  0  0
    7.7331   -0.3450    0.0000 C   0  0  0  0  0  0  0  0  0  0  0  0
    8.5991   -2.8450    0.0000 C   0  0  0  0  0  0  0  0  0  0  0  0
    7.7331   -1.3450    0.0000 C   0  0  0  0  0  0  0  0  0  0  0  0
    8.5991   -1.8450    0.0000 C   0  0  0  0  0  0  0  0  0  0  0  0
    7.7331   -3.3450    0.0000 C   0  0  0  0  0  0  0  0  0  0  0  0
    9.4651   -3.3450    0.0000 C   0  0  0  0  0  0  0  0  0  0  0  0
    5.1350    6.1550    0.0000 C   0  0  0  0  0  0  0  0  0  0  0  0
    7.7331   -4.3450    0.0000 C   0  0  0  0  0  0  0  0  0  0  0  0
    9.4651   -4.3450    0.0000 C   0  0  0  0  0  0  0  0  0  0  0  0
    8.5991   -4.8450    0.0000 C   0  0  0  0  0  0  0  0  0  0  0  0
    6.6116    2.5473    0.0000 H   0  0  0  0  0  0  0  0  0  0  0  0
    6.2131    3.2376    0.0000 H   0  0  0  0  0  0  0  0  0  0  0  0
    5.3905    1.7627    0.0000 H   0  0  0  0  0  0  0  0  0  0  0  0
    5.7890    1.0724    0.0000 H   0  0  0  0  0  0  0  0  0  0  0  0
    5.6720    4.4650    0.0000 H   0  0  0  0  0  0  0  0  0  0  0  0
    4.2690    2.0350    0.0000 H   0  0  0  0  0  0  0  0  0  0  0  0
    2.8660    2.8450    0.0000 H   0  0  0  0  0  0  0  0  0  0  0  0
    6.3301   -0.1550    0.0000 H   0  0  0  0  0  0  0  0  0  0  0  0
    7.1962   -1.6550    0.0000 H   0  0  0  0  0  0  0  0  0  0  0  0
    9.1360   -1.5350    0.0000 H   0  0  0  0  0  0  0  0  0  0  0  0
    2.0000    4.3450    0.0000 H   0  0  0  0  0  0  0  0  0  0  0  0
    7.1962   -3.0350    0.0000 H   0  0  0  0  0  0  0  0  0  0  0  0
   10.0021   -3.0350    0.0000 H   0  0  0  0  0  0  0  0  0  0  0  0
    5.4450    5.6181    0.0000 H   0  0  0  0  0  0  0  0  0  0  0  0
    5.6720    6.4650    0.0000 H   0  0  0  0  0  0  0  0  0  0  0  0
    4.8250    6.6919    0.0000 H   0  0  0  0  0  0  0  0  0  0  0  0
    7.1962   -4.6550    0.0000 H   0  0  0  0  0  0  0  0  0  0  0  0
   10.0021   -4.6550    0.0000 H   0  0  0  0  0  0  0  0  0  0  0  0
    9.1360   -0.1550    0.0000 H   0  0  0  0  0  0  0  0  0  0  0  0
    9.1360   -6.1550    0.0000 H   0  0  0  0  0  0  0  0  0  0  0  0
  1 11  1  0  0  0  0
  1 22  1  0  0  0  0
  2 14  1  0  0  0  0
  2 36  1  0  0  0  0
  3 12  2  0  0  0  0
  4 16  1  0  0  0  0
  4 44  1  0  0  0  0
  5 25  1  0  0  0  0
  5 45  1  0  0  0  0
  6  7  1  0  0  0  0
  6  8  1  0  0  0  0
  6 26  1  0  0  0  0
  6 27  1  0  0  0  0
  7  9  2  0  0  0  0
  7 10  1  0  0  0  0
  8 12  1  0  0  0  0
  8 28  1  0  0  0  0
  8 29  1  0  0  0  0
  9 11  1  0  0  0  0
  9 30  1  0  0  0  0
 10 13  2  0  0  0  0
 10 31  1  0  0  0  0
 11 14  2  0  0  0  0
 12 15  1  0  0  0  0
 13 14  1  0  0  0  0
 13 32  1  0  0  0  0
 15 16  2  0  0  0  0
 15 33  1  0  0  0  0
 16 18  1  0  0  0  0
 17 19  1  0  0  0  0
 17 20  2  0  0  0  0
 17 21  1  0  0  0  0
 18 19  2  0  0  0  0
 18 34  1  0  0  0  0
 19 35  1  0  0  0  0
 20 23  1  0  0  0  0
 20 37  1  0  0  0  0
 21 24  2  0  0  0  0
 21 38  1  0  0  0  0
 22 39  1  0  0  0  0
 22 40  1  0  0  0  0
 22 41  1  0  0  0  0
 23 25  2  0  0  0  0
 23 42  1  0  0  0  0
 24 25  1  0  0  0  0
 24 43  1  0  0  0  0
M  END
>  <PUBCHEM_COMPOUND_CID>
638190

>  <PUBCHEM_COMPOUND_CANONICALIZED>
1

>  <PUBCHEM_CACTVS_COMPLEXITY>
477

>  <PUBCHEM_CACTVS_HBOND_ACCEPTOR>
5

>  <PUBCHEM_CACTVS_HBOND_DONOR>
3

>  <PUBCHEM_CACTVS_ROTATABLE_BOND>
7

>  <PUBCHEM_CACTVS_SUBSKEYS>
AAADceB4OAAAAAAAAAAAAAAAAAAAAAAAAAAwYAAAAAAAAAABQAAAGgAACAAADASAmAIyBoAABgCIAqBSAAACCAAgIAAIiAEGiMgNJjKGMRqAcCMkwBELuQeIyLCOIAABAAAAQABAAAIAAACAAAAAAAAAAA==

>  <PUBCHEM_IUPAC_OPENEYE_NAME>
(4Z,6E)-5-hydroxy-1-(4-hydroxy-3-methoxy-phenyl)-7-(4-hydroxyphenyl)hepta-4,6-dien-3-one

>  <PUBCHEM_IUPAC_CAS_NAME>
(4Z,6E)-5-hydroxy-1-(4-hydroxy-3-methoxyphenyl)-7-(4-hydroxyphenyl)-3-hepta-4,6-dienone

>  <PUBCHEM_IUPAC_NAME>
(4Z,6E)-5-hydroxy-1-(4-hydroxy-3-methoxyphenyl)-7-(4-hydroxyphenyl)hepta-4,6-dien-3-one

>  <PUBCHEM_IUPAC_SYSTEMATIC_NAME>
(4Z,6E)-7-(4-hydroxyphenyl)-1-(3-methoxy-4-oxidanyl-phenyl)-5-oxidanyl-hepta-4,6-dien-3-one

>  <PUBCHEM_IUPAC_TRADITIONAL_NAME>
(4Z,6E)-5-hydroxy-1-(4-hydroxy-3-methoxy-phenyl)-7-(4-hydroxyphenyl)hepta-4,6-dien-3-one

>  <PUBCHEM_IUPAC_INCHI>
InChI=1S/C20H20O5/c1-25-20-12-15(6-11-19(20)24)5-10-18(23)13-17(22)9-4-14-2-7-16(21)8-3-14/h2-4,6-9,11-13,21-22,24H,5,10H2,1H3/b9-4+,17-13-

>  <PUBCHEM_IUPAC_INCHIKEY>
VZZQQZMZDJETCS-GUKRZAEASA-N

>  <PUBCHEM_XLOGP3_AA>
3.8

>  <PUBCHEM_EXACT_MASS>
340.131

>  <PUBCHEM_MOLECULAR_FORMULA>
C20H20O5

>  <PUBCHEM_MOLECULAR_WEIGHT>
340.375

>  <PUBCHEM_OPENEYE_CAN_SMILES>
COC1=C(C=CC(=C1)CCC(=O)C=C(C=CC2=CC=C(C=C2)O)O)O

>  <PUBCHEM_OPENEYE_ISO_SMILES>
COC1=C(C=CC(=C1)CCC(=O)/C=C(/C=C/C2=CC=C(C=C2)O)\O)O

>  <PUBCHEM_CACTVS_TPSA>
87

>  <PUBCHEM_MONOISOTOPIC_WEIGHT>
340.131

>  <PUBCHEM_TOTAL_CHARGE>
0

>  <PUBCHEM_HEAVY_ATOM_COUNT>
25

>  <PUBCHEM_ATOM_DEF_STEREO_COUNT>
0

>  <PUBCHEM_ATOM_UDEF_STEREO_COUNT>
0

>  <PUBCHEM_BOND_DEF_STEREO_COUNT>
2

>  <PUBCHEM_BOND_UDEF_STEREO_COUNT>
0

>  <PUBCHEM_ISOTOPIC_ATOM_COUNT>
0

>  <PUBCHEM_COMPONENT_COUNT>
1

>  <PUBCHEM_CACTVS_TAUTO_COUNT>
69

>  <PUBCHEM_COORDINATE_TYPE>
1
5
255

>  <PUBCHEM_BONDANNOTATIONS>
10  13  8
11  14  8
13  14  8
17  20  8
17  21  8
20  23  8
21  24  8
23  25  8
24  25  8
7  10  8
7  9  8
9  11  8

$$$$
