6384266
 OpenBabel06101807152D

192193  0  0  1  0  0  0  0  0999 V2000
   11.6603   10.2500    0.0000 O   0  0  0  0  0  0  0  0  0  0  0  0
    3.8660  -10.2500    0.0000 O   0  0  0  0  0  0  0  0  0  0  0  0
   13.3923   10.2500    0.0000 O   0  0  0  0  0  0  0  0  0  0  0  0
    5.5981  -10.2500    0.0000 O   0  0  0  0  0  0  0  0  0  0  0  0
    3.0000   -7.7500    0.0000 C   0  0  0  0  0  0  0  0  0  0  0  0
   10.7942    7.7500    0.0000 C   0  0  0  0  0  0  0  0  0  0  0  0
   10.7942    8.7500    0.0000 C   0  0  0  0  0  0  0  0  0  0  0  0
    3.0000   -8.7500    0.0000 C   0  0  0  0  0  0  0  0  0  0  0  0
    3.8660   -9.2500    0.0000 C   0  0  3  0  0  0  0  0  0  0  0  0
   11.6603    9.2500    0.0000 C   0  0  3  0  0  0  0  0  0  0  0  0
   11.6603    7.2500    0.0000 C   0  0  0  0  0  0  0  0  0  0  0  0
    3.8660   -7.2500    0.0000 C   0  0  0  0  0  0  0  0  0  0  0  0
   12.5263    8.7500    0.0000 C   0  0  0  0  0  0  0  0  0  0  0  0
    4.7320   -8.7500    0.0000 C   0  0  0  0  0  0  0  0  0  0  0  0
   12.5263    7.7500    0.0000 C   0  0  0  0  0  0  0  0  0  0  0  0
    4.7320   -7.7500    0.0000 C   0  0  0  0  0  0  0  0  0  0  0  0
    2.0000   -7.7500    0.0000 C   0  0  0  0  0  0  0  0  0  0  0  0
    2.5000   -6.8840    0.0000 C   0  0  0  0  0  0  0  0  0  0  0  0
    9.7942    7.7500    0.0000 C   0  0  0  0  0  0  0  0  0  0  0  0
   10.2942    6.8840    0.0000 C   0  0  0  0  0  0  0  0  0  0  0  0
   11.6603    6.2500    0.0000 C   0  0  0  0  0  0  0  0  0  0  0  0
    3.8660   -6.2500    0.0000 C   0  0  0  0  0  0  0  0  0  0  0  0
    5.5981   -7.2500    0.0000 C   0  0  0  0  0  0  0  0  0  0  0  0
   13.3923    7.2500    0.0000 C   0  0  0  0  0  0  0  0  0  0  0  0
   12.5263   10.7500    0.0000 C   0  0  0  0  0  0  0  0  0  0  0  0
    4.7320  -10.7500    0.0000 C   0  0  0  0  0  0  0  0  0  0  0  0
   10.7942    5.7500    0.0000 C   0  0  0  0  0  0  0  0  0  0  0  0
    4.7320   -5.7500    0.0000 C   0  0  0  0  0  0  0  0  0  0  0  0
   12.5263   11.7500    0.0000 C   0  0  0  0  0  0  0  0  0  0  0  0
    4.7320  -11.7500    0.0000 C   0  0  0  0  0  0  0  0  0  0  0  0
   13.3923   12.2500    0.0000 C   0  0  0  0  0  0  0  0  0  0  0  0
    5.5981  -12.2500    0.0000 C   0  0  0  0  0  0  0  0  0  0  0  0
   10.7942    4.7500    0.0000 C   0  0  0  0  0  0  0  0  0  0  0  0
    4.7320   -4.7500    0.0000 C   0  0  0  0  0  0  0  0  0  0  0  0
    5.5981  -13.2500    0.0000 C   0  0  0  0  0  0  0  0  0  0  0  0
   13.3923   13.2500    0.0000 C   0  0  0  0  0  0  0  0  0  0  0  0
   14.2583   13.7500    0.0000 C   0  0  0  0  0  0  0  0  0  0  0  0
    6.4641  -13.7500    0.0000 C   0  0  0  0  0  0  0  0  0  0  0  0
   14.2583   14.7500    0.0000 C   0  0  0  0  0  0  0  0  0  0  0  0
    6.4641  -14.7500    0.0000 C   0  0  0  0  0  0  0  0  0  0  0  0
    3.8660   -4.2500    0.0000 C   0  0  0  0  0  0  0  0  0  0  0  0
   11.6603    4.2500    0.0000 C   0  0  0  0  0  0  0  0  0  0  0  0
    9.9282    4.2500    0.0000 C   0  0  0  0  0  0  0  0  0  0  0  0
    5.5981   -4.2500    0.0000 C   0  0  0  0  0  0  0  0  0  0  0  0
    7.3301  -15.2500    0.0000 C   0  0  0  0  0  0  0  0  0  0  0  0
   15.1244   15.2500    0.0000 C   0  0  0  0  0  0  0  0  0  0  0  0
   15.1244   16.2500    0.0000 C   0  0  0  0  0  0  0  0  0  0  0  0
    7.3301  -16.2500    0.0000 C   0  0  0  0  0  0  0  0  0  0  0  0
   15.9904   16.7500    0.0000 C   0  0  0  0  0  0  0  0  0  0  0  0
    8.1962  -16.7500    0.0000 C   0  0  0  0  0  0  0  0  0  0  0  0
   15.9904   17.7500    0.0000 C   0  0  0  0  0  0  0  0  0  0  0  0
    8.1962  -17.7500    0.0000 C   0  0  0  0  0  0  0  0  0  0  0  0
    9.9282    3.2500    0.0000 C   0  0  0  0  0  0  0  0  0  0  0  0
    5.5981   -3.2500    0.0000 C   0  0  0  0  0  0  0  0  0  0  0  0
   16.8564   18.2500    0.0000 C   0  0  0  0  0  0  0  0  0  0  0  0
    9.0622  -18.2500    0.0000 C   0  0  0  0  0  0  0  0  0  0  0  0
    9.0622  -19.2500    0.0000 C   0  0  0  0  0  0  0  0  0  0  0  0
   16.8564   19.2500    0.0000 C   0  0  0  0  0  0  0  0  0  0  0  0
   17.7224   19.7500    0.0000 C   0  0  0  0  0  0  0  0  0  0  0  0
    9.9282  -19.7500    0.0000 C   0  0  0  0  0  0  0  0  0  0  0  0
    6.4641   -2.7500    0.0000 C   0  0  0  0  0  0  0  0  0  0  0  0
    9.0622    2.7500    0.0000 C   0  0  0  0  0  0  0  0  0  0  0  0
    9.9282  -20.7500    0.0000 C   0  0  0  0  0  0  0  0  0  0  0  0
   17.7224   20.7500    0.0000 C   0  0  0  0  0  0  0  0  0  0  0  0
    9.0622    1.7500    0.0000 C   0  0  0  0  0  0  0  0  0  0  0  0
    6.4641   -1.7500    0.0000 C   0  0  0  0  0  0  0  0  0  0  0  0
   10.7942  -21.2500    0.0000 C   0  0  0  0  0  0  0  0  0  0  0  0
   18.5885   21.2500    0.0000 C   0  0  0  0  0  0  0  0  0  0  0  0
    5.5981   -1.2500    0.0000 C   0  0  0  0  0  0  0  0  0  0  0  0
    9.9282    1.2500    0.0000 C   0  0  0  0  0  0  0  0  0  0  0  0
    8.1962    1.2500    0.0000 C   0  0  0  0  0  0  0  0  0  0  0  0
    7.3301   -1.2500    0.0000 C   0  0  0  0  0  0  0  0  0  0  0  0
   18.5885   22.2500    0.0000 C   0  0  0  0  0  0  0  0  0  0  0  0
   10.7942  -22.2500    0.0000 C   0  0  0  0  0  0  0  0  0  0  0  0
    8.1962    0.2500    0.0000 C   0  0  0  0  0  0  0  0  0  0  0  0
    7.3301   -0.2500    0.0000 C   0  0  0  0  0  0  0  0  0  0  0  0
    2.3894   -8.6423    0.0000 H   0  0  0  0  0  0  0  0  0  0  0  0
    2.7880   -9.3326    0.0000 H   0  0  0  0  0  0  0  0  0  0  0  0
   10.5822    9.3326    0.0000 H   0  0  0  0  0  0  0  0  0  0  0  0
   10.1836    8.6423    0.0000 H   0  0  0  0  0  0  0  0  0  0  0  0
    4.4030   -9.5600    0.0000 H   0  0  0  0  0  0  0  0  0  0  0  0
   12.1972    9.5600    0.0000 H   0  0  0  0  0  0  0  0  0  0  0  0
   13.1369    8.6423    0.0000 H   0  0  0  0  0  0  0  0  0  0  0  0
   12.7383    9.3326    0.0000 H   0  0  0  0  0  0  0  0  0  0  0  0
    4.9441   -9.3326    0.0000 H   0  0  0  0  0  0  0  0  0  0  0  0
    5.3426   -8.6423    0.0000 H   0  0  0  0  0  0  0  0  0  0  0  0
    9.7573    7.1940    0.0000 H   0  0  0  0  0  0  0  0  0  0  0  0
    9.9842    6.3470    0.0000 H   0  0  0  0  0  0  0  0  0  0  0  0
   10.8312    6.5740    0.0000 H   0  0  0  0  0  0  0  0  0  0  0  0
    9.7942    8.3700    0.0000 H   0  0  0  0  0  0  0  0  0  0  0  0
    2.0000   -7.1300    0.0000 H   0  0  0  0  0  0  0  0  0  0  0  0
    1.3800   -7.7500    0.0000 H   0  0  0  0  0  0  0  0  0  0  0  0
    9.1742    7.7500    0.0000 H   0  0  0  0  0  0  0  0  0  0  0  0
    9.7942    7.1300    0.0000 H   0  0  0  0  0  0  0  0  0  0  0  0
    3.0369   -6.5740    0.0000 H   0  0  0  0  0  0  0  0  0  0  0  0
    2.1900   -6.3470    0.0000 H   0  0  0  0  0  0  0  0  0  0  0  0
    1.9631   -7.1940    0.0000 H   0  0  0  0  0  0  0  0  0  0  0  0
    2.0000   -8.3700    0.0000 H   0  0  0  0  0  0  0  0  0  0  0  0
   12.1972    5.9400    0.0000 H   0  0  0  0  0  0  0  0  0  0  0  0
    3.3291   -5.9400    0.0000 H   0  0  0  0  0  0  0  0  0  0  0  0
   13.0823    6.7131    0.0000 H   0  0  0  0  0  0  0  0  0  0  0  0
   13.9292    6.9400    0.0000 H   0  0  0  0  0  0  0  0  0  0  0  0
   13.7023    7.7869    0.0000 H   0  0  0  0  0  0  0  0  0  0  0  0
    5.9081   -7.7869    0.0000 H   0  0  0  0  0  0  0  0  0  0  0  0
    6.1350   -6.9400    0.0000 H   0  0  0  0  0  0  0  0  0  0  0  0
    5.2881   -6.7131    0.0000 H   0  0  0  0  0  0  0  0  0  0  0  0
    5.2690   -6.0600    0.0000 H   0  0  0  0  0  0  0  0  0  0  0  0
   10.2573    6.0600    0.0000 H   0  0  0  0  0  0  0  0  0  0  0  0
    4.1215  -11.6423    0.0000 H   0  0  0  0  0  0  0  0  0  0  0  0
    4.5200  -12.3326    0.0000 H   0  0  0  0  0  0  0  0  0  0  0  0
   12.3142   12.3326    0.0000 H   0  0  0  0  0  0  0  0  0  0  0  0
   11.9157   11.6423    0.0000 H   0  0  0  0  0  0  0  0  0  0  0  0
   13.6044   11.6674    0.0000 H   0  0  0  0  0  0  0  0  0  0  0  0
   14.0029   12.3577    0.0000 H   0  0  0  0  0  0  0  0  0  0  0  0
    6.2087  -12.3577    0.0000 H   0  0  0  0  0  0  0  0  0  0  0  0
    5.8101  -11.6674    0.0000 H   0  0  0  0  0  0  0  0  0  0  0  0
   13.1803   13.8326    0.0000 H   0  0  0  0  0  0  0  0  0  0  0  0
   12.7817   13.1423    0.0000 H   0  0  0  0  0  0  0  0  0  0  0  0
    4.9875  -13.1423    0.0000 H   0  0  0  0  0  0  0  0  0  0  0  0
    5.3860  -13.8326    0.0000 H   0  0  0  0  0  0  0  0  0  0  0  0
    7.0747  -13.8577    0.0000 H   0  0  0  0  0  0  0  0  0  0  0  0
    6.6762  -13.1674    0.0000 H   0  0  0  0  0  0  0  0  0  0  0  0
   14.4704   13.1674    0.0000 H   0  0  0  0  0  0  0  0  0  0  0  0
   14.8689   13.8577    0.0000 H   0  0  0  0  0  0  0  0  0  0  0  0
    5.8535  -14.6423    0.0000 H   0  0  0  0  0  0  0  0  0  0  0  0
    6.2520  -15.3326    0.0000 H   0  0  0  0  0  0  0  0  0  0  0  0
   14.0463   15.3326    0.0000 H   0  0  0  0  0  0  0  0  0  0  0  0
   13.6477   14.6423    0.0000 H   0  0  0  0  0  0  0  0  0  0  0  0
   11.3503    3.7131    0.0000 H   0  0  0  0  0  0  0  0  0  0  0  0
   12.1972    3.9400    0.0000 H   0  0  0  0  0  0  0  0  0  0  0  0
   11.9703    4.7869    0.0000 H   0  0  0  0  0  0  0  0  0  0  0  0
    4.1760   -3.7131    0.0000 H   0  0  0  0  0  0  0  0  0  0  0  0
    3.3291   -3.9400    0.0000 H   0  0  0  0  0  0  0  0  0  0  0  0
    3.5560   -4.7869    0.0000 H   0  0  0  0  0  0  0  0  0  0  0  0
    9.3913    4.5600    0.0000 H   0  0  0  0  0  0  0  0  0  0  0  0
    6.1350   -4.5600    0.0000 H   0  0  0  0  0  0  0  0  0  0  0  0
   15.3364   14.6674    0.0000 H   0  0  0  0  0  0  0  0  0  0  0  0
   15.7349   15.3577    0.0000 H   0  0  0  0  0  0  0  0  0  0  0  0
    7.9407  -15.3577    0.0000 H   0  0  0  0  0  0  0  0  0  0  0  0
    7.5422  -14.6674    0.0000 H   0  0  0  0  0  0  0  0  0  0  0  0
   14.9123   16.8326    0.0000 H   0  0  0  0  0  0  0  0  0  0  0  0
   14.5138   16.1423    0.0000 H   0  0  0  0  0  0  0  0  0  0  0  0
    6.7196  -16.1423    0.0000 H   0  0  0  0  0  0  0  0  0  0  0  0
    7.1181  -16.8326    0.0000 H   0  0  0  0  0  0  0  0  0  0  0  0
   16.2024   16.1674    0.0000 H   0  0  0  0  0  0  0  0  0  0  0  0
   16.6010   16.8577    0.0000 H   0  0  0  0  0  0  0  0  0  0  0  0
    8.8067  -16.8577    0.0000 H   0  0  0  0  0  0  0  0  0  0  0  0
    8.4082  -16.1674    0.0000 H   0  0  0  0  0  0  0  0  0  0  0  0
    7.5856  -17.6423    0.0000 H   0  0  0  0  0  0  0  0  0  0  0  0
    7.9841  -18.3326    0.0000 H   0  0  0  0  0  0  0  0  0  0  0  0
   15.7783   18.3326    0.0000 H   0  0  0  0  0  0  0  0  0  0  0  0
   15.3798   17.6423    0.0000 H   0  0  0  0  0  0  0  0  0  0  0  0
   10.4651    2.9400    0.0000 H   0  0  0  0  0  0  0  0  0  0  0  0
    5.0611   -2.9400    0.0000 H   0  0  0  0  0  0  0  0  0  0  0  0
    9.6728  -18.3577    0.0000 H   0  0  0  0  0  0  0  0  0  0  0  0
    9.2742  -17.6674    0.0000 H   0  0  0  0  0  0  0  0  0  0  0  0
   17.0685   17.6674    0.0000 H   0  0  0  0  0  0  0  0  0  0  0  0
   17.4670   18.3577    0.0000 H   0  0  0  0  0  0  0  0  0  0  0  0
    8.4516  -19.1423    0.0000 H   0  0  0  0  0  0  0  0  0  0  0  0
    8.8501  -19.8326    0.0000 H   0  0  0  0  0  0  0  0  0  0  0  0
   16.6444   19.8326    0.0000 H   0  0  0  0  0  0  0  0  0  0  0  0
   16.2458   19.1423    0.0000 H   0  0  0  0  0  0  0  0  0  0  0  0
   10.5388  -19.8577    0.0000 H   0  0  0  0  0  0  0  0  0  0  0  0
   10.1403  -19.1674    0.0000 H   0  0  0  0  0  0  0  0  0  0  0  0
   17.9345   19.1674    0.0000 H   0  0  0  0  0  0  0  0  0  0  0  0
   18.3330   19.8577    0.0000 H   0  0  0  0  0  0  0  0  0  0  0  0
    7.0010   -3.0600    0.0000 H   0  0  0  0  0  0  0  0  0  0  0  0
    8.5252    3.0600    0.0000 H   0  0  0  0  0  0  0  0  0  0  0  0
   17.5104   21.3326    0.0000 H   0  0  0  0  0  0  0  0  0  0  0  0
   17.1119   20.6423    0.0000 H   0  0  0  0  0  0  0  0  0  0  0  0
    9.3176  -20.6423    0.0000 H   0  0  0  0  0  0  0  0  0  0  0  0
    9.7162  -21.3326    0.0000 H   0  0  0  0  0  0  0  0  0  0  0  0
   18.8005   20.6674    0.0000 H   0  0  0  0  0  0  0  0  0  0  0  0
   19.1990   21.3577    0.0000 H   0  0  0  0  0  0  0  0  0  0  0  0
   11.4048  -21.3577    0.0000 H   0  0  0  0  0  0  0  0  0  0  0  0
   11.0063  -20.6674    0.0000 H   0  0  0  0  0  0  0  0  0  0  0  0
    5.9081   -0.7131    0.0000 H   0  0  0  0  0  0  0  0  0  0  0  0
    5.0611   -0.9400    0.0000 H   0  0  0  0  0  0  0  0  0  0  0  0
    5.2881   -1.7869    0.0000 H   0  0  0  0  0  0  0  0  0  0  0  0
    9.6182    0.7131    0.0000 H   0  0  0  0  0  0  0  0  0  0  0  0
   10.4651    0.9400    0.0000 H   0  0  0  0  0  0  0  0  0  0  0  0
   10.2382    1.7869    0.0000 H   0  0  0  0  0  0  0  0  0  0  0  0
   19.2085   22.2500    0.0000 H   0  0  0  0  0  0  0  0  0  0  0  0
   18.5885   22.8700    0.0000 H   0  0  0  0  0  0  0  0  0  0  0  0
   17.9685   22.2500    0.0000 H   0  0  0  0  0  0  0  0  0  0  0  0
   10.1742  -22.2500    0.0000 H   0  0  0  0  0  0  0  0  0  0  0  0
   10.7942  -22.8700    0.0000 H   0  0  0  0  0  0  0  0  0  0  0  0
   11.4142  -22.2500    0.0000 H   0  0  0  0  0  0  0  0  0  0  0  0
    7.8671   -1.5600    0.0000 H   0  0  0  0  0  0  0  0  0  0  0  0
    7.6592    1.5600    0.0000 H   0  0  0  0  0  0  0  0  0  0  0  0
    6.7932    0.0600    0.0000 H   0  0  0  0  0  0  0  0  0  0  0  0
    8.7331   -0.0600    0.0000 H   0  0  0  0  0  0  0  0  0  0  0  0
  1 10  1  0  0  0  0
  1 25  1  0  0  0  0
  2  9  1  0  0  0  0
  2 26  1  0  0  0  0
  3 25  2  0  0  0  0
  4 26  2  0  0  0  0
  5  8  1  0  0  0  0
  5 12  1  0  0  0  0
  5 17  1  0  0  0  0
  5 18  1  0  0  0  0
  6  7  1  0  0  0  0
  6 11  1  0  0  0  0
  6 19  1  0  0  0  0
  6 20  1  0  0  0  0
  7 10  1  0  0  0  0
  7 79  1  0  0  0  0
  7 80  1  0  0  0  0
  8  9  1  0  0  0  0
  8 77  1  0  0  0  0
  8 78  1  0  0  0  0
  9 14  1  0  0  0  0
  9 81  1  0  0  0  0
 10 13  1  0  0  0  0
 10 82  1  0  0  0  0
 11 15  2  0  0  0  0
 11 21  1  0  0  0  0
 12 16  2  0  0  0  0
 12 22  1  0  0  0  0
 13 15  1  0  0  0  0
 13 83  1  0  0  0  0
 13 84  1  0  0  0  0
 14 16  1  0  0  0  0
 14 85  1  0  0  0  0
 14 86  1  0  0  0  0
 15 24  1  0  0  0  0
 16 23  1  0  0  0  0
 17 91  1  0  0  0  0
 17 92  1  0  0  0  0
 17 98  1  0  0  0  0
 18 95  1  0  0  0  0
 18 96  1  0  0  0  0
 18 97  1  0  0  0  0
 19 90  1  0  0  0  0
 19 93  1  0  0  0  0
 19 94  1  0  0  0  0
 20 87  1  0  0  0  0
 20 88  1  0  0  0  0
 20 89  1  0  0  0  0
 21 27  2  0  0  0  0
 21 99  1  0  0  0  0
 22 28  2  0  0  0  0
 22100  1  0  0  0  0
 23104  1  0  0  0  0
 23105  1  0  0  0  0
 23106  1  0  0  0  0
 24101  1  0  0  0  0
 24102  1  0  0  0  0
 24103  1  0  0  0  0
 25 29  1  0  0  0  0
 26 30  1  0  0  0  0
 27 33  1  0  0  0  0
 27108  1  0  0  0  0
 28 34  1  0  0  0  0
 28107  1  0  0  0  0
 29 31  1  0  0  0  0
 29111  1  0  0  0  0
 29112  1  0  0  0  0
 30 32  1  0  0  0  0
 30109  1  0  0  0  0
 30110  1  0  0  0  0
 31 36  1  0  0  0  0
 31113  1  0  0  0  0
 31114  1  0  0  0  0
 32 35  1  0  0  0  0
 32115  1  0  0  0  0
 32116  1  0  0  0  0
 33 42  1  0  0  0  0
 33 43  2  0  0  0  0
 34 41  1  0  0  0  0
 34 44  2  0  0  0  0
 35 38  1  0  0  0  0
 35119  1  0  0  0  0
 35120  1  0  0  0  0
 36 37  1  0  0  0  0
 36117  1  0  0  0  0
 36118  1  0  0  0  0
 37 39  1  0  0  0  0
 37123  1  0  0  0  0
 37124  1  0  0  0  0
 38 40  1  0  0  0  0
 38121  1  0  0  0  0
 38122  1  0  0  0  0
 39 46  1  0  0  0  0
 39127  1  0  0  0  0
 39128  1  0  0  0  0
 40 45  1  0  0  0  0
 40125  1  0  0  0  0
 40126  1  0  0  0  0
 41132  1  0  0  0  0
 41133  1  0  0  0  0
 41134  1  0  0  0  0
 42129  1  0  0  0  0
 42130  1  0  0  0  0
 42131  1  0  0  0  0
 43 53  1  0  0  0  0
 43135  1  0  0  0  0
 44 54  1  0  0  0  0
 44136  1  0  0  0  0
 45 48  1  0  0  0  0
 45139  1  0  0  0  0
 45140  1  0  0  0  0
 46 47  1  0  0  0  0
 46137  1  0  0  0  0
 46138  1  0  0  0  0
 47 49  1  0  0  0  0
 47141  1  0  0  0  0
 47142  1  0  0  0  0
 48 50  1  0  0  0  0
 48143  1  0  0  0  0
 48144  1  0  0  0  0
 49 51  1  0  0  0  0
 49145  1  0  0  0  0
 49146  1  0  0  0  0
 50 52  1  0  0  0  0
 50147  1  0  0  0  0
 50148  1  0  0  0  0
 51 55  1  0  0  0  0
 51151  1  0  0  0  0
 51152  1  0  0  0  0
 52 56  1  0  0  0  0
 52149  1  0  0  0  0
 52150  1  0  0  0  0
 53 62  2  0  0  0  0
 53153  1  0  0  0  0
 54 61  2  0  0  0  0
 54154  1  0  0  0  0
 55 58  1  0  0  0  0
 55157  1  0  0  0  0
 55158  1  0  0  0  0
 56 57  1  0  0  0  0
 56155  1  0  0  0  0
 56156  1  0  0  0  0
 57 60  1  0  0  0  0
 57159  1  0  0  0  0
 57160  1  0  0  0  0
 58 59  1  0  0  0  0
 58161  1  0  0  0  0
 58162  1  0  0  0  0
 59 64  1  0  0  0  0
 59165  1  0  0  0  0
 59166  1  0  0  0  0
 60 63  1  0  0  0  0
 60163  1  0  0  0  0
 60164  1  0  0  0  0
 61 66  1  0  0  0  0
 61167  1  0  0  0  0
 62 65  1  0  0  0  0
 62168  1  0  0  0  0
 63 67  1  0  0  0  0
 63171  1  0  0  0  0
 63172  1  0  0  0  0
 64 68  1  0  0  0  0
 64169  1  0  0  0  0
 64170  1  0  0  0  0
 65 70  1  0  0  0  0
 65 71  2  0  0  0  0
 66 69  1  0  0  0  0
 66 72  2  0  0  0  0
 67 74  1  0  0  0  0
 67175  1  0  0  0  0
 67176  1  0  0  0  0
 68 73  1  0  0  0  0
 68173  1  0  0  0  0
 68174  1  0  0  0  0
 69177  1  0  0  0  0
 69178  1  0  0  0  0
 69179  1  0  0  0  0
 70180  1  0  0  0  0
 70181  1  0  0  0  0
 70182  1  0  0  0  0
 71 75  1  0  0  0  0
 71190  1  0  0  0  0
 72 76  1  0  0  0  0
 72189  1  0  0  0  0
 73183  1  0  0  0  0
 73184  1  0  0  0  0
 73185  1  0  0  0  0
 74186  1  0  0  0  0
 74187  1  0  0  0  0
 74188  1  0  0  0  0
 75 76  2  0  0  0  0
 75192  1  0  0  0  0
 76191  1  0  0  0  0
M  END
>  <PUBCHEM_COMPOUND_CID>
6384266

>  <PUBCHEM_COMPOUND_CANONICALIZED>
1

>  <PUBCHEM_CACTVS_COMPLEXITY>
1850

>  <PUBCHEM_CACTVS_HBOND_ACCEPTOR>
4

>  <PUBCHEM_CACTVS_HBOND_DONOR>
0

>  <PUBCHEM_CACTVS_ROTATABLE_BOND>
42

>  <PUBCHEM_CACTVS_SUBSKEYS>
AAADcfB8OAAAAAAAAAAAAAAAAAAAAAAAAAAgQAAAAAAAAAAAAAAAGgAAAAAADhSggAICCAAABACIAiDSCAAAAAAgAAAICAEAAAgIABIAAQACAAAEwAAIgAOIyOCPAAAAAAAAAAAAAAAAAAAAAAAAAAAAAA==

>  <PUBCHEM_IUPAC_OPENEYE_NAME>
[4-[(1E,3E,5E,7E,9E,11E,13E,15E,17E)-18-(4-hexadecanoyloxy-2,6,6-trimethyl-cyclohexen-1-yl)-3,7,12,16-tetramethyl-octadeca-1,3,5,7,9,11,13,15,17-nonaenyl]-3,5,5-trimethyl-cyclohex-3-en-1-yl] hexadecanoate

>  <PUBCHEM_IUPAC_CAS_NAME>
hexadecanoic acid [3,5,5-trimethyl-4-[(1E,3E,5E,7E,9E,11E,13E,15E,17E)-3,7,12,16-tetramethyl-18-[2,6,6-trimethyl-4-(1-oxohexadecoxy)-1-cyclohexenyl]octadeca-1,3,5,7,9,11,13,15,17-nonaenyl]-1-cyclohex-3-enyl] ester

>  <PUBCHEM_IUPAC_NAME>
[4-[(1E,3E,5E,7E,9E,11E,13E,15E,17E)-18-(4-hexadecanoyloxy-2,6,6-trimethylcyclohexen-1-yl)-3,7,12,16-tetramethyloctadeca-1,3,5,7,9,11,13,15,17-nonaenyl]-3,5,5-trimethylcyclohex-3-en-1-yl] hexadecanoate

>  <PUBCHEM_IUPAC_SYSTEMATIC_NAME>
[4-[(1E,3E,5E,7E,9E,11E,13E,15E,17E)-18-(4-hexadecanoyloxy-2,6,6-trimethyl-cyclohexen-1-yl)-3,7,12,16-tetramethyl-octadeca-1,3,5,7,9,11,13,15,17-nonaenyl]-3,5,5-trimethyl-cyclohex-3-en-1-yl] hexadecanoate

>  <PUBCHEM_IUPAC_TRADITIONAL_NAME>
palmitic acid [4-[(1E,3E,5E,7E,9E,11E,13E,15E,17E)-18-(4-hexadecanoyloxy-2,6,6-trimethyl-cyclohexen-1-yl)-3,7,12,16-tetramethyl-octadeca-1,3,5,7,9,11,13,15,17-nonaenyl]-3,5,5-trimethyl-cyclohex-3-en-1-yl] ester

>  <PUBCHEM_IUPAC_INCHI>
InChI=1S/C72H116O4/c1-13-15-17-19-21-23-25-27-29-31-33-35-37-49-69(73)75-65-55-63(7)67(71(9,10)57-65)53-51-61(5)47-41-45-59(3)43-39-40-44-60(4)46-42-48-62(6)52-54-68-64(8)56-66(58-72(68,11)12)76-70(74)50-38-36-34-32-30-28-26-24-22-20-18-16-14-2/h39-48,51-54,65-66H,13-38,49-50,55-58H2,1-12H3/b40-39+,45-41+,46-42+,53-51+,54-52+,59-43+,60-44+,61-47+,62-48+

>  <PUBCHEM_IUPAC_INCHIKEY>
XACHQDDXHDTRLX-HZXCUAKRSA-N

>  <PUBCHEM_XLOGP3_AA>
26.7

>  <PUBCHEM_EXACT_MASS>
1044.887

>  <PUBCHEM_MOLECULAR_FORMULA>
C72H116O4

>  <PUBCHEM_MOLECULAR_WEIGHT>
1045.716

>  <PUBCHEM_OPENEYE_CAN_SMILES>
CCCCCCCCCCCCCCCC(=O)OC1CC(=C(C(C1)(C)C)C=CC(=CC=CC(=CC=CC=C(C)C=CC=C(C)C=CC2=C(CC(CC2(C)C)OC(=O)CCCCCCCCCCCCCCC)C)C)C)C

>  <PUBCHEM_OPENEYE_ISO_SMILES>
CCCCCCCCCCCCCCCC(=O)OC1CC(C(=C(C1)C)/C=C/C(=C/C=C/C(=C/C=C/C=C(/C=C/C=C(/C=C/C2=C(CC(CC2(C)C)OC(=O)CCCCCCCCCCCCCCC)C)\C)\C)/C)/C)(C)C

>  <PUBCHEM_CACTVS_TPSA>
52.6

>  <PUBCHEM_MONOISOTOPIC_WEIGHT>
1044.887

>  <PUBCHEM_TOTAL_CHARGE>
0

>  <PUBCHEM_HEAVY_ATOM_COUNT>
76

>  <PUBCHEM_ATOM_DEF_STEREO_COUNT>
0

>  <PUBCHEM_ATOM_UDEF_STEREO_COUNT>
2

>  <PUBCHEM_BOND_DEF_STEREO_COUNT>
9

>  <PUBCHEM_BOND_UDEF_STEREO_COUNT>
0

>  <PUBCHEM_ISOTOPIC_ATOM_COUNT>
0

>  <PUBCHEM_COMPONENT_COUNT>
1

>  <PUBCHEM_CACTVS_TAUTO_COUNT>
1

>  <PUBCHEM_COORDINATE_TYPE>
1
5
255

>  <PUBCHEM_BONDANNOTATIONS>
10  1  3
9  2  3

$$$$
