638628
 OpenBabel06101807152D

 22 24  0  0  0  0  0  0  0  0999 V2000
    2.0000   -0.7881    0.0000 O   0  0  0  0  0  0  0  0  0  0  0  0
    2.9176   -2.3019    0.0000 O   0  0  0  0  0  0  0  0  0  0  0  0
    5.5321   -0.7673    0.0000 N   0  0  0  0  0  0  0  0  0  0  0  0
    3.8000    0.2327    0.0000 C   0  0  0  0  0  0  0  0  0  0  0  0
    4.6660    0.7327    0.0000 C   0  0  0  0  0  0  0  0  0  0  0  0
    3.8000   -0.7673    0.0000 C   0  0  0  0  0  0  0  0  0  0  0  0
    5.5321    0.2327    0.0000 C   0  0  0  0  0  0  0  0  0  0  0  0
    4.6500    1.7742    0.0000 C   0  0  0  0  0  0  0  0  0  0  0  0
    2.9061    0.7673    0.0000 C   0  0  0  0  0  0  0  0  0  0  0  0
    4.6660   -1.2673    0.0000 C   0  0  0  0  0  0  0  0  0  0  0  0
    6.4421    0.7395    0.0000 C   0  0  0  0  0  0  0  0  0  0  0  0
    2.9061   -1.3020    0.0000 C   0  0  0  0  0  0  0  0  0  0  0  0
    5.5480    2.3019    0.0000 C   0  0  0  0  0  0  0  0  0  0  0  0
    6.4501    1.7811    0.0000 C   0  0  0  0  0  0  0  0  0  0  0  0
    2.0000    0.2535    0.0000 C   0  0  0  0  0  0  0  0  0  0  0  0
    4.1095    2.0779    0.0000 H   0  0  0  0  0  0  0  0  0  0  0  0
    2.9132    1.3873    0.0000 H   0  0  0  0  0  0  0  0  0  0  0  0
    4.6660   -1.8873    0.0000 H   0  0  0  0  0  0  0  0  0  0  0  0
    6.9754    0.4233    0.0000 H   0  0  0  0  0  0  0  0  0  0  0  0
    5.5456    2.9219    0.0000 H   0  0  0  0  0  0  0  0  0  0  0  0
    6.9882    2.0890    0.0000 H   0  0  0  0  0  0  0  0  0  0  0  0
    1.4643    0.5655    0.0000 H   0  0  0  0  0  0  0  0  0  0  0  0
  1 12  1  0  0  0  0
  1 15  1  0  0  0  0
  2 12  2  0  0  0  0
  3  7  1  0  0  0  0
  3 10  2  0  0  0  0
  4  5  1  0  0  0  0
  4  6  2  0  0  0  0
  4  9  1  0  0  0  0
  5  7  1  0  0  0  0
  5  8  2  0  0  0  0
  6 10  1  0  0  0  0
  6 12  1  0  0  0  0
  7 11  2  0  0  0  0
  8 13  1  0  0  0  0
  8 16  1  0  0  0  0
  9 15  2  0  0  0  0
  9 17  1  0  0  0  0
 10 18  1  0  0  0  0
 11 14  1  0  0  0  0
 11 19  1  0  0  0  0
 13 14  2  0  0  0  0
 13 20  1  0  0  0  0
 14 21  1  0  0  0  0
 15 22  1  0  0  0  0
M  END
>  <PUBCHEM_COMPOUND_CID>
638628

>  <PUBCHEM_COMPOUND_CANONICALIZED>
1

>  <PUBCHEM_CACTVS_COMPLEXITY>
300

>  <PUBCHEM_CACTVS_HBOND_ACCEPTOR>
3

>  <PUBCHEM_CACTVS_HBOND_DONOR>
0

>  <PUBCHEM_CACTVS_ROTATABLE_BOND>
0

>  <PUBCHEM_CACTVS_SUBSKEYS>
AAADcYByMAAAAAAAAAAAAAAAAAAAAAAAAAA8QIAAAAAAAACx8AAAHgAAAAAADAjhngY8yPIIFACoAzT3TACCiCA1IiAI2CE4bNgIJvrAtZmEMYhmwAHI6ceY2eOegAAAAAACAAAAAAAAAAQAAAAAAAAAAA==

>  <PUBCHEM_IUPAC_OPENEYE_NAME>
pyrano[3,4-c]quinolin-4-one

>  <PUBCHEM_IUPAC_CAS_NAME>
4-pyrano[3,4-c]quinolinone

>  <PUBCHEM_IUPAC_NAME>
pyrano[3,4-c]quinolin-4-one

>  <PUBCHEM_IUPAC_SYSTEMATIC_NAME>
pyrano[3,4-c]quinolin-4-one

>  <PUBCHEM_IUPAC_TRADITIONAL_NAME>
pyrano[3,4-c]quinolin-4-one

>  <PUBCHEM_IUPAC_INCHI>
InChI=1S/C12H7NO2/c14-12-10-7-13-11-4-2-1-3-9(11)8(10)5-6-15-12/h1-7H

>  <PUBCHEM_IUPAC_INCHIKEY>
NOAIRJZXLSKGPM-UHFFFAOYSA-N

>  <PUBCHEM_XLOGP3_AA>
2.2

>  <PUBCHEM_EXACT_MASS>
197.048

>  <PUBCHEM_MOLECULAR_FORMULA>
C12H7NO2

>  <PUBCHEM_MOLECULAR_WEIGHT>
197.193

>  <PUBCHEM_OPENEYE_CAN_SMILES>
C1=CC=C2C(=C1)C3=C(C=N2)C(=O)OC=C3

>  <PUBCHEM_OPENEYE_ISO_SMILES>
C1=CC=C2C(=C1)C3=C(C=N2)C(=O)OC=C3

>  <PUBCHEM_CACTVS_TPSA>
39.2

>  <PUBCHEM_MONOISOTOPIC_WEIGHT>
197.048

>  <PUBCHEM_TOTAL_CHARGE>
0

>  <PUBCHEM_HEAVY_ATOM_COUNT>
15

>  <PUBCHEM_ATOM_DEF_STEREO_COUNT>
0

>  <PUBCHEM_ATOM_UDEF_STEREO_COUNT>
0

>  <PUBCHEM_BOND_DEF_STEREO_COUNT>
0

>  <PUBCHEM_BOND_UDEF_STEREO_COUNT>
0

>  <PUBCHEM_ISOTOPIC_ATOM_COUNT>
0

>  <PUBCHEM_COMPONENT_COUNT>
1

>  <PUBCHEM_CACTVS_TAUTO_COUNT>
1

>  <PUBCHEM_COORDINATE_TYPE>
1
5
255

>  <PUBCHEM_BONDANNOTATIONS>
1  12  8
1  15  8
11  14  8
13  14  8
3  10  8
3  7  8
4  5  8
4  6  8
4  9  8
5  7  8
5  8  8
6  10  8
6  12  8
7  11  8
8  13  8
9  15  8

$$$$
