641375
 OpenBabel06101807152D

 41 43  0  0  0  0  0  0  0  0999 V2000
    6.0812    0.4943    0.0000 O   0  0  0  0  0  0  0  0  0  0  0  0
    9.6648   -0.4330    0.0000 O   0  0  0  0  0  0  0  0  0  0  0  0
    9.6648    3.0311    0.0000 O   0  0  0  0  0  0  0  0  0  0  0  0
    2.5369    0.2990    0.0000 O   0  0  0  0  0  0  0  0  0  0  0  0
    7.6648    1.2990    0.0000 C   0  0  0  0  0  0  0  0  0  0  0  0
    8.1648    0.4330    0.0000 C   0  0  0  0  0  0  0  0  0  0  0  0
    6.6648    1.2990    0.0000 C   0  0  0  0  0  0  0  0  0  0  0  0
    7.6648   -0.4330    0.0000 C   0  0  0  0  0  0  0  0  0  0  0  0
    5.1350    1.7990    0.0000 C   0  0  0  0  0  0  0  0  0  0  0  0
    6.0812    2.1038    0.0000 C   0  0  0  0  0  0  0  0  0  0  0  0
    5.1350    0.7990    0.0000 C   0  0  0  0  0  0  0  0  0  0  0  0
    9.1648    0.4330    0.0000 C   0  0  0  0  0  0  0  0  0  0  0  0
    8.1648    2.1651    0.0000 C   0  0  0  0  0  0  0  0  0  0  0  0
    8.1648   -1.2990    0.0000 C   0  0  0  0  0  0  0  0  0  0  0  0
    9.1648    2.1651    0.0000 C   0  0  0  0  0  0  0  0  0  0  0  0
    9.6648    1.2990    0.0000 C   0  0  0  0  0  0  0  0  0  0  0  0
    4.2690    2.2990    0.0000 C   0  0  0  0  0  0  0  0  0  0  0  0
    4.2690    0.2990    0.0000 C   0  0  0  0  0  0  0  0  0  0  0  0
    7.6648   -2.1651    0.0000 C   0  0  0  0  0  0  0  0  0  0  0  0
    3.4030    0.7990    0.0000 C   0  0  0  0  0  0  0  0  0  0  0  0
    3.4030    1.7990    0.0000 C   0  0  0  0  0  0  0  0  0  0  0  0
    8.1648   -3.0311    0.0000 C   0  0  0  0  0  0  0  0  0  0  0  0
    6.6648   -2.1651    0.0000 C   0  0  0  0  0  0  0  0  0  0  0  0
    7.1899   -0.0345    0.0000 H   0  0  0  0  0  0  0  0  0  0  0  0
    7.1899   -0.8315    0.0000 H   0  0  0  0  0  0  0  0  0  0  0  0
    6.2738    2.6931    0.0000 H   0  0  0  0  0  0  0  0  0  0  0  0
    7.8548    2.7020    0.0000 H   0  0  0  0  0  0  0  0  0  0  0  0
    8.7848   -1.2990    0.0000 H   0  0  0  0  0  0  0  0  0  0  0  0
   10.2848    1.2990    0.0000 H   0  0  0  0  0  0  0  0  0  0  0  0
    4.2690    2.9190    0.0000 H   0  0  0  0  0  0  0  0  0  0  0  0
    4.2690   -0.3210    0.0000 H   0  0  0  0  0  0  0  0  0  0  0  0
    2.8660    2.1090    0.0000 H   0  0  0  0  0  0  0  0  0  0  0  0
    6.6648   -1.5451    0.0000 H   0  0  0  0  0  0  0  0  0  0  0  0
    6.0448   -2.1651    0.0000 H   0  0  0  0  0  0  0  0  0  0  0  0
    6.6648   -2.7851    0.0000 H   0  0  0  0  0  0  0  0  0  0  0  0
    7.6279   -3.3411    0.0000 H   0  0  0  0  0  0  0  0  0  0  0  0
    8.4748   -3.5680    0.0000 H   0  0  0  0  0  0  0  0  0  0  0  0
    8.7018   -2.7211    0.0000 H   0  0  0  0  0  0  0  0  0  0  0  0
   10.2848   -0.4330    0.0000 H   0  0  0  0  0  0  0  0  0  0  0  0
   10.2848    3.0311    0.0000 H   0  0  0  0  0  0  0  0  0  0  0  0
    2.0000    0.6090    0.0000 H   0  0  0  0  0  0  0  0  0  0  0  0
  1  7  1  0  0  0  0
  1 11  1  0  0  0  0
  2 12  1  0  0  0  0
  2 39  1  0  0  0  0
  3 15  1  0  0  0  0
  3 40  1  0  0  0  0
  4 20  1  0  0  0  0
  4 41  1  0  0  0  0
  5  6  1  0  0  0  0
  5  7  1  0  0  0  0
  5 13  2  0  0  0  0
  6  8  1  0  0  0  0
  6 12  2  0  0  0  0
  7 10  2  0  0  0  0
  8 14  1  0  0  0  0
  8 24  1  0  0  0  0
  8 25  1  0  0  0  0
  9 10  1  0  0  0  0
  9 11  2  0  0  0  0
  9 17  1  0  0  0  0
 10 26  1  0  0  0  0
 11 18  1  0  0  0  0
 12 16  1  0  0  0  0
 13 15  1  0  0  0  0
 13 27  1  0  0  0  0
 14 19  2  0  0  0  0
 14 28  1  0  0  0  0
 15 16  2  0  0  0  0
 16 29  1  0  0  0  0
 17 21  2  0  0  0  0
 17 30  1  0  0  0  0
 18 20  2  0  0  0  0
 18 31  1  0  0  0  0
 19 22  1  0  0  0  0
 19 23  1  0  0  0  0
 20 21  1  0  0  0  0
 21 32  1  0  0  0  0
 22 36  1  0  0  0  0
 22 37  1  0  0  0  0
 22 38  1  0  0  0  0
 23 33  1  0  0  0  0
 23 34  1  0  0  0  0
 23 35  1  0  0  0  0
M  END
>  <PUBCHEM_COMPOUND_CID>
641375

>  <PUBCHEM_COMPOUND_CANONICALIZED>
1

>  <PUBCHEM_CACTVS_COMPLEXITY>
431

>  <PUBCHEM_CACTVS_HBOND_ACCEPTOR>
4

>  <PUBCHEM_CACTVS_HBOND_DONOR>
3

>  <PUBCHEM_CACTVS_ROTATABLE_BOND>
3

>  <PUBCHEM_CACTVS_SUBSKEYS>
AAADceB4OAAAAAAAAAAAAAAAAAAAASAAAAAwYAAAAAAAAEgB9AAAGgAACAAADASAmAAyBsAABkCIAqBSAAACCAAkIAAIiAEGCMgMJzaGNRqCeWCl4BUIuYfK7PzOoAABCAAYAABAAAIQADAAAAAAAAAAAA==

>  <PUBCHEM_IUPAC_OPENEYE_NAME>
5-(6-hydroxybenzofuran-2-yl)-4-(3-methylbut-2-enyl)benzene-1,3-diol

>  <PUBCHEM_IUPAC_CAS_NAME>
5-(6-hydroxy-2-benzofuranyl)-4-(3-methylbut-2-enyl)benzene-1,3-diol

>  <PUBCHEM_IUPAC_NAME>
5-(6-hydroxy-1-benzofuran-2-yl)-4-(3-methylbut-2-enyl)benzene-1,3-diol

>  <PUBCHEM_IUPAC_SYSTEMATIC_NAME>
4-(3-methylbut-2-enyl)-5-(6-oxidanyl-1-benzofuran-2-yl)benzene-1,3-diol

>  <PUBCHEM_IUPAC_TRADITIONAL_NAME>
5-(6-hydroxybenzofuran-2-yl)-4-(3-methylbut-2-enyl)resorcinol

>  <PUBCHEM_IUPAC_INCHI>
InChI=1S/C19H18O4/c1-11(2)3-6-15-16(8-14(21)9-17(15)22)19-7-12-4-5-13(20)10-18(12)23-19/h3-5,7-10,20-22H,6H2,1-2H3

>  <PUBCHEM_IUPAC_INCHIKEY>
KDDIWXQFRQYXCG-UHFFFAOYSA-N

>  <PUBCHEM_XLOGP3_AA>
4.8

>  <PUBCHEM_EXACT_MASS>
310.121

>  <PUBCHEM_MOLECULAR_FORMULA>
C19H18O4

>  <PUBCHEM_MOLECULAR_WEIGHT>
310.349

>  <PUBCHEM_OPENEYE_CAN_SMILES>
CC(=CCC1=C(C=C(C=C1C2=CC3=C(O2)C=C(C=C3)O)O)O)C

>  <PUBCHEM_OPENEYE_ISO_SMILES>
CC(=CCC1=C(C=C(C=C1C2=CC3=C(O2)C=C(C=C3)O)O)O)C

>  <PUBCHEM_CACTVS_TPSA>
73.8

>  <PUBCHEM_MONOISOTOPIC_WEIGHT>
310.121

>  <PUBCHEM_TOTAL_CHARGE>
0

>  <PUBCHEM_HEAVY_ATOM_COUNT>
23

>  <PUBCHEM_ATOM_DEF_STEREO_COUNT>
0

>  <PUBCHEM_ATOM_UDEF_STEREO_COUNT>
0

>  <PUBCHEM_BOND_DEF_STEREO_COUNT>
0

>  <PUBCHEM_BOND_UDEF_STEREO_COUNT>
0

>  <PUBCHEM_ISOTOPIC_ATOM_COUNT>
0

>  <PUBCHEM_COMPONENT_COUNT>
1

>  <PUBCHEM_CACTVS_TAUTO_COUNT>
44

>  <PUBCHEM_COORDINATE_TYPE>
1
5
255

>  <PUBCHEM_BONDANNOTATIONS>
1  11  8
1  7  8
11  18  8
12  16  8
13  15  8
15  16  8
17  21  8
18  20  8
20  21  8
5  13  8
5  6  8
6  12  8
7  10  8
9  10  8
9  11  8
9  17  8

$$$$
