6424827
 OpenBabel06101807152D

 26 28  0  0  1  0  0  0  0  0999 V2000
    5.7021   -0.0328    0.0000 S   0  0  0  0  0  0  0  0  0  0  0  0
    6.5111    1.5550    0.0000 S   0  0  0  0  0  0  0  0  0  0  0  0
    6.3388   -1.1508    0.0000 O   0  0  0  0  0  0  0  0  0  0  0  0
    4.7511   -1.9598    0.0000 N   0  0  0  0  0  0  0  0  0  0  0  0
    4.7511    1.2762    0.0000 N   0  0  0  0  0  0  0  0  0  0  0  0
    4.7511   -0.3418    0.0000 C   0  0  3  0  0  0  0  0  0  0  0  0
    3.8000   -0.6508    0.0000 C   0  0  0  0  0  0  0  0  0  0  0  0
    4.1633    0.4672    0.0000 C   0  0  0  0  0  0  0  0  0  0  0  0
    5.3388   -1.1508    0.0000 C   0  0  0  0  0  0  0  0  0  0  0  0
    3.8000   -1.6508    0.0000 C   0  0  0  0  0  0  0  0  0  0  0  0
    2.9061   -0.1162    0.0000 C   0  0  0  0  0  0  0  0  0  0  0  0
    5.7021    0.9672    0.0000 C   0  0  0  0  0  0  0  0  0  0  0  0
    2.9061   -2.1855    0.0000 C   0  0  0  0  0  0  0  0  0  0  0  0
    2.0000   -0.6300    0.0000 C   0  0  0  0  0  0  0  0  0  0  0  0
    2.0000   -1.6716    0.0000 C   0  0  0  0  0  0  0  0  0  0  0  0
    6.4066    2.5495    0.0000 C   0  0  0  0  0  0  0  0  0  0  0  0
    3.7025    0.8821    0.0000 H   0  0  0  0  0  0  0  0  0  0  0  0
    3.7025    0.0523    0.0000 H   0  0  0  0  0  0  0  0  0  0  0  0
    4.9427   -2.5495    0.0000 H   0  0  0  0  0  0  0  0  0  0  0  0
    2.9132    0.5038    0.0000 H   0  0  0  0  0  0  0  0  0  0  0  0
    2.9132   -2.8054    0.0000 H   0  0  0  0  0  0  0  0  0  0  0  0
    1.4643   -0.3180    0.0000 H   0  0  0  0  0  0  0  0  0  0  0  0
    1.4643   -1.9837    0.0000 H   0  0  0  0  0  0  0  0  0  0  0  0
    7.0232    2.6143    0.0000 H   0  0  0  0  0  0  0  0  0  0  0  0
    6.3418    3.1661    0.0000 H   0  0  0  0  0  0  0  0  0  0  0  0
    5.7900    2.4847    0.0000 H   0  0  0  0  0  0  0  0  0  0  0  0
  1  6  1  0  0  0  0
  1 12  1  0  0  0  0
  2 12  1  0  0  0  0
  2 16  1  0  0  0  0
  3  9  2  0  0  0  0
  4  9  1  0  0  0  0
  4 10  1  0  0  0  0
  4 19  1  0  0  0  0
  5  8  1  0  0  0  0
  5 12  2  0  0  0  0
  6  7  1  0  0  0  0
  6  8  1  0  0  0  0
  6  9  1  0  0  0  0
  7 10  1  0  0  0  0
  7 11  2  0  0  0  0
  8 17  1  0  0  0  0
  8 18  1  0  0  0  0
 10 13  2  0  0  0  0
 11 14  1  0  0  0  0
 11 20  1  0  0  0  0
 13 15  1  0  0  0  0
 13 21  1  0  0  0  0
 14 15  2  0  0  0  0
 14 22  1  0  0  0  0
 15 23  1  0  0  0  0
 16 24  1  0  0  0  0
 16 25  1  0  0  0  0
 16 26  1  0  0  0  0
M  END
>  <PUBCHEM_COMPOUND_CID>
6424827

>  <PUBCHEM_COMPOUND_CANONICALIZED>
1

>  <PUBCHEM_CACTVS_COMPLEXITY>
358

>  <PUBCHEM_CACTVS_HBOND_ACCEPTOR>
4

>  <PUBCHEM_CACTVS_HBOND_DONOR>
1

>  <PUBCHEM_CACTVS_ROTATABLE_BOND>
1

>  <PUBCHEM_CACTVS_SUBSKEYS>
AAADccBzIABgAAAAAAAAAAAAAAAAAWIAAAAwAAAAAAAAAFgBAAAAHgQQAAAADAjB2ASywILAAAioAiVSVACCEQAhAhAIiAEAZIgIIDrg1ZGEIAhglADIyAcciMCOgAAAAAACAAAAAAAAAAQAAAAAAAAAAA==

>  <PUBCHEM_IUPAC_OPENEYE_NAME>
2-methylsulfanylspiro[4H-thiazole-5,3'-indoline]-2'-one

>  <PUBCHEM_IUPAC_CAS_NAME>
2'-(methylthio)-2-spiro[1H-indole-3,5'-4H-thiazole]one

>  <PUBCHEM_IUPAC_NAME>
2'-methylsulfanylspiro[1H-indole-3,5'-4H-1,3-thiazole]-2-one

>  <PUBCHEM_IUPAC_SYSTEMATIC_NAME>
2'-methylsulfanylspiro[1H-indole-3,5'-4H-1,3-thiazole]-2-one

>  <PUBCHEM_IUPAC_TRADITIONAL_NAME>
2-(methylthio)spiro[2-thiazoline-5,3'-indoline]-2'-one

>  <PUBCHEM_IUPAC_INCHI>
InChI=1S/C11H10N2OS2/c1-15-10-12-6-11(16-10)7-4-2-3-5-8(7)13-9(11)14/h2-5H,6H2,1H3,(H,13,14)

>  <PUBCHEM_IUPAC_INCHIKEY>
FUHQSEOSBHASCH-UHFFFAOYSA-N

>  <PUBCHEM_XLOGP3_AA>
1.8

>  <PUBCHEM_EXACT_MASS>
250.023

>  <PUBCHEM_MOLECULAR_FORMULA>
C11H10N2OS2

>  <PUBCHEM_MOLECULAR_WEIGHT>
250.334

>  <PUBCHEM_OPENEYE_CAN_SMILES>
CSC1=NCC2(S1)C3=CC=CC=C3NC2=O

>  <PUBCHEM_OPENEYE_ISO_SMILES>
CSC1=NCC2(S1)C3=CC=CC=C3NC2=O

>  <PUBCHEM_CACTVS_TPSA>
92.1

>  <PUBCHEM_MONOISOTOPIC_WEIGHT>
250.023

>  <PUBCHEM_TOTAL_CHARGE>
0

>  <PUBCHEM_HEAVY_ATOM_COUNT>
16

>  <PUBCHEM_ATOM_DEF_STEREO_COUNT>
0

>  <PUBCHEM_ATOM_UDEF_STEREO_COUNT>
1

>  <PUBCHEM_BOND_DEF_STEREO_COUNT>
0

>  <PUBCHEM_BOND_UDEF_STEREO_COUNT>
0

>  <PUBCHEM_ISOTOPIC_ATOM_COUNT>
0

>  <PUBCHEM_COMPONENT_COUNT>
1

>  <PUBCHEM_CACTVS_TAUTO_COUNT>
2

>  <PUBCHEM_COORDINATE_TYPE>
1
5
255

>  <PUBCHEM_BONDANNOTATIONS>
10  13  8
11  14  8
13  15  8
14  15  8
6  8  3
7  10  8
7  11  8

$$$$
