6427110
 OpenBabel06101807152D

 29 28  0  0  0  0  0  0  0  0999 V2000
    5.4641    0.4400    0.0000 C   0  0  0  0  0  0  0  0  0  0  0  0
    6.3301   -0.0600    0.0000 C   0  0  0  0  0  0  0  0  0  0  0  0
    4.5981   -0.0600    0.0000 C   0  0  0  0  0  0  0  0  0  0  0  0
    7.1962    0.4400    0.0000 C   0  0  0  0  0  0  0  0  0  0  0  0
    8.0622   -0.0600    0.0000 C   0  0  0  0  0  0  0  0  0  0  0  0
    4.5981   -1.0600    0.0000 C   0  0  0  0  0  0  0  0  0  0  0  0
    3.7320    0.4400    0.0000 C   0  0  0  0  0  0  0  0  0  0  0  0
    8.9282    0.4400    0.0000 C   0  0  0  0  0  0  0  0  0  0  0  0
    8.0622   -1.0600    0.0000 C   0  0  0  0  0  0  0  0  0  0  0  0
    2.8660   -0.0600    0.0000 C   0  0  0  0  0  0  0  0  0  0  0  0
    2.0000    0.4400    0.0000 C   0  0  0  0  0  0  0  0  0  0  0  0
    5.8626    0.9149    0.0000 H   0  0  0  0  0  0  0  0  0  0  0  0
    5.0656    0.9149    0.0000 H   0  0  0  0  0  0  0  0  0  0  0  0
    5.9316   -0.5349    0.0000 H   0  0  0  0  0  0  0  0  0  0  0  0
    6.7287   -0.5349    0.0000 H   0  0  0  0  0  0  0  0  0  0  0  0
    7.1962    1.0600    0.0000 H   0  0  0  0  0  0  0  0  0  0  0  0
    3.9781   -1.0600    0.0000 H   0  0  0  0  0  0  0  0  0  0  0  0
    4.5981   -1.6800    0.0000 H   0  0  0  0  0  0  0  0  0  0  0  0
    5.2181   -1.0600    0.0000 H   0  0  0  0  0  0  0  0  0  0  0  0
    3.7320    1.0600    0.0000 H   0  0  0  0  0  0  0  0  0  0  0  0
    9.2382   -0.0969    0.0000 H   0  0  0  0  0  0  0  0  0  0  0  0
    9.4651    0.7500    0.0000 H   0  0  0  0  0  0  0  0  0  0  0  0
    8.6182    0.9769    0.0000 H   0  0  0  0  0  0  0  0  0  0  0  0
    7.4422   -1.0600    0.0000 H   0  0  0  0  0  0  0  0  0  0  0  0
    8.0622   -1.6800    0.0000 H   0  0  0  0  0  0  0  0  0  0  0  0
    8.6822   -1.0600    0.0000 H   0  0  0  0  0  0  0  0  0  0  0  0
    2.8660   -0.6800    0.0000 H   0  0  0  0  0  0  0  0  0  0  0  0
    2.0000    1.0600    0.0000 H   0  0  0  0  0  0  0  0  0  0  0  0
    1.4631    0.1300    0.0000 H   0  0  0  0  0  0  0  0  0  0  0  0
  1  2  1  0  0  0  0
  1  3  1  0  0  0  0
  1 12  1  0  0  0  0
  1 13  1  0  0  0  0
  2  4  1  0  0  0  0
  2 14  1  0  0  0  0
  2 15  1  0  0  0  0
  3  6  1  0  0  0  0
  3  7  2  0  0  0  0
  4  5  2  0  0  0  0
  4 16  1  0  0  0  0
  5  8  1  0  0  0  0
  5  9  1  0  0  0  0
  6 17  1  0  0  0  0
  6 18  1  0  0  0  0
  6 19  1  0  0  0  0
  7 10  1  0  0  0  0
  7 20  1  0  0  0  0
  8 21  1  0  0  0  0
  8 22  1  0  0  0  0
  8 23  1  0  0  0  0
  9 24  1  0  0  0  0
  9 25  1  0  0  0  0
  9 26  1  0  0  0  0
 10 11  2  0  0  0  0
 10 27  1  0  0  0  0
 11 28  1  0  0  0  0
 11 29  1  0  0  0  0
M  END
>  <PUBCHEM_COMPOUND_CID>
6427110

>  <PUBCHEM_COMPOUND_CANONICALIZED>
1

>  <PUBCHEM_CACTVS_COMPLEXITY>
167

>  <PUBCHEM_CACTVS_HBOND_ACCEPTOR>
0

>  <PUBCHEM_CACTVS_HBOND_DONOR>
0

>  <PUBCHEM_CACTVS_ROTATABLE_BOND>
4

>  <PUBCHEM_CACTVS_SUBSKEYS>
AAADceBwAAAAAAAAAAAAAAAAAAAAAAAAAAAAAAAAAAAAAAAAAAAAGAAAAAAADACAAAACAAAAAACAAiBCAAAAAAAgAAAICAAAAAgIAAIAAQAAAAAAgAAIgAIAAAAAAAAAAAAAAAAAAAAAAAAAAAAAAAAAAA==

>  <PUBCHEM_IUPAC_OPENEYE_NAME>
(3E)-4,8-dimethylnona-1,3,7-triene

>  <PUBCHEM_IUPAC_CAS_NAME>
(3E)-4,8-dimethylnona-1,3,7-triene

>  <PUBCHEM_IUPAC_NAME>
(3E)-4,8-dimethylnona-1,3,7-triene

>  <PUBCHEM_IUPAC_SYSTEMATIC_NAME>
(3E)-4,8-dimethylnona-1,3,7-triene

>  <PUBCHEM_IUPAC_TRADITIONAL_NAME>
(3E)-4,8-dimethylnona-1,3,7-triene

>  <PUBCHEM_IUPAC_INCHI>
InChI=1S/C11H18/c1-5-7-11(4)9-6-8-10(2)3/h5,7-8H,1,6,9H2,2-4H3/b11-7+

>  <PUBCHEM_IUPAC_INCHIKEY>
LUKZREJJLWEWQM-YRNVUSSQSA-N

>  <PUBCHEM_XLOGP3_AA>
4.6

>  <PUBCHEM_EXACT_MASS>
150.141

>  <PUBCHEM_MOLECULAR_FORMULA>
C11H18

>  <PUBCHEM_MOLECULAR_WEIGHT>
150.265

>  <PUBCHEM_OPENEYE_CAN_SMILES>
CC(=CCCC(=CC=C)C)C

>  <PUBCHEM_OPENEYE_ISO_SMILES>
CC(=CCC/C(=C/C=C)/C)C

>  <PUBCHEM_CACTVS_TPSA>
0

>  <PUBCHEM_MONOISOTOPIC_WEIGHT>
150.141

>  <PUBCHEM_TOTAL_CHARGE>
0

>  <PUBCHEM_HEAVY_ATOM_COUNT>
11

>  <PUBCHEM_ATOM_DEF_STEREO_COUNT>
0

>  <PUBCHEM_ATOM_UDEF_STEREO_COUNT>
0

>  <PUBCHEM_BOND_DEF_STEREO_COUNT>
1

>  <PUBCHEM_BOND_UDEF_STEREO_COUNT>
0

>  <PUBCHEM_ISOTOPIC_ATOM_COUNT>
0

>  <PUBCHEM_COMPONENT_COUNT>
1

>  <PUBCHEM_CACTVS_TAUTO_COUNT>
1

>  <PUBCHEM_COORDINATE_TYPE>
1
5
255

$$$$
