6429196
 OpenBabel06101807152D

 29 29  0  0  1  0  0  0  0  0999 V2000
    3.7320    1.2500    0.0000 O   0  0  0  0  0  0  0  0  0  0  0  0
    4.5981    2.7500    0.0000 O   0  0  0  0  0  0  0  0  0  0  0  0
    4.5981   -1.2500    0.0000 C   0  0  2  0  0  0  0  0  0  0  0  0
    4.5981   -0.2500    0.0000 C   0  0  0  0  0  0  0  0  0  0  0  0
    3.7320    0.2500    0.0000 C   0  0  2  0  0  0  0  0  0  0  0  0
    3.7320   -1.7500    0.0000 C   0  0  0  0  0  0  0  0  0  0  0  0
    2.8660   -0.2500    0.0000 C   0  0  0  0  0  0  0  0  0  0  0  0
    2.8660   -1.2500    0.0000 C   0  0  0  0  0  0  0  0  0  0  0  0
    5.4641   -1.7500    0.0000 C   0  0  0  0  0  0  0  0  0  0  0  0
    2.0000    0.2500    0.0000 C   0  0  0  0  0  0  0  0  0  0  0  0
    5.4641   -2.7500    0.0000 C   0  0  0  0  0  0  0  0  0  0  0  0
    6.3301   -1.2500    0.0000 C   0  0  0  0  0  0  0  0  0  0  0  0
    4.5981    1.7500    0.0000 C   0  0  0  0  0  0  0  0  0  0  0  0
    4.5981   -1.8700    0.0000 H   0  0  0  0  0  0  0  0  0  0  0  0
    5.2087   -0.3577    0.0000 H   0  0  0  0  0  0  0  0  0  0  0  0
    4.8101    0.3326    0.0000 H   0  0  0  0  0  0  0  0  0  0  0  0
    4.2690    0.5600    0.0000 H   0  0  0  0  0  0  0  0  0  0  0  0
    3.3335   -2.2250    0.0000 H   0  0  0  0  0  0  0  0  0  0  0  0
    4.1306   -2.2250    0.0000 H   0  0  0  0  0  0  0  0  0  0  0  0
    2.3291   -1.5600    0.0000 H   0  0  0  0  0  0  0  0  0  0  0  0
    2.3100    0.7869    0.0000 H   0  0  0  0  0  0  0  0  0  0  0  0
    1.4631    0.5600    0.0000 H   0  0  0  0  0  0  0  0  0  0  0  0
    1.6900   -0.2869    0.0000 H   0  0  0  0  0  0  0  0  0  0  0  0
    4.8441   -2.7500    0.0000 H   0  0  0  0  0  0  0  0  0  0  0  0
    5.4641   -3.3700    0.0000 H   0  0  0  0  0  0  0  0  0  0  0  0
    6.0841   -2.7500    0.0000 H   0  0  0  0  0  0  0  0  0  0  0  0
    6.8671   -1.5600    0.0000 H   0  0  0  0  0  0  0  0  0  0  0  0
    6.3301   -0.6300    0.0000 H   0  0  0  0  0  0  0  0  0  0  0  0
    5.1350    1.4400    0.0000 H   0  0  0  0  0  0  0  0  0  0  0  0
  1 13  1  0  0  0  0
  2 13  2  0  0  0  0
  3  4  1  0  0  0  0
  3  6  1  0  0  0  0
  3  9  1  0  0  0  0
  3 14  1  6  0  0  0
  4  5  1  0  0  0  0
  4 15  1  0  0  0  0
  4 16  1  0  0  0  0
  5  1  1  0  0  0  0
  5  7  1  0  0  0  0
  5 17  1  1  0  0  0
  6  8  1  0  0  0  0
  6 18  1  0  0  0  0
  6 19  1  0  0  0  0
  7  8  2  0  0  0  0
  7 10  1  0  0  0  0
  8 20  1  0  0  0  0
  9 11  1  0  0  0  0
  9 12  2  0  0  0  0
 10 21  1  0  0  0  0
 10 22  1  0  0  0  0
 10 23  1  0  0  0  0
 11 24  1  0  0  0  0
 11 25  1  0  0  0  0
 11 26  1  0  0  0  0
 12 27  1  0  0  0  0
 12 28  1  0  0  0  0
 13 29  1  0  0  0  0
M  END
>  <PUBCHEM_COMPOUND_CID>
6429196

>  <PUBCHEM_COMPOUND_CANONICALIZED>
1

>  <PUBCHEM_CACTVS_COMPLEXITY>
241

>  <PUBCHEM_CACTVS_HBOND_ACCEPTOR>
2

>  <PUBCHEM_CACTVS_HBOND_DONOR>
0

>  <PUBCHEM_CACTVS_ROTATABLE_BOND>
3

>  <PUBCHEM_CACTVS_SUBSKEYS>
AAADceBwMAAAAAAAAAAAAAAAAAAAAAAAAAAgAAAAAAAAAAAAAAAAGgAAAAAADRSggAMCCAAABACIAiBCiAAAAAAgAAAACAAAAAgABAIAIQAAEAAEgAAIIAOAgAAOAAAAAAAAAAAAAAAAAAAAAAAAAAAAAA==

>  <PUBCHEM_IUPAC_OPENEYE_NAME>
[(1R,5S)-5-isopropenyl-2-methyl-cyclohex-2-en-1-yl] formate

>  <PUBCHEM_IUPAC_CAS_NAME>
formic acid [(1R,5S)-2-methyl-5-(1-methylethenyl)-1-cyclohex-2-enyl] ester

>  <PUBCHEM_IUPAC_NAME>
[(1R,5S)-2-methyl-5-prop-1-en-2-ylcyclohex-2-en-1-yl] formate

>  <PUBCHEM_IUPAC_SYSTEMATIC_NAME>
[(1R,5S)-2-methyl-5-prop-1-en-2-yl-cyclohex-2-en-1-yl] methanoate

>  <PUBCHEM_IUPAC_TRADITIONAL_NAME>
formic acid [(1R,5S)-5-isopropenyl-2-methyl-cyclohex-2-en-1-yl] ester

>  <PUBCHEM_IUPAC_INCHI>
InChI=1S/C11H16O2/c1-8(2)10-5-4-9(3)11(6-10)13-7-12/h4,7,10-11H,1,5-6H2,2-3H3/t10-,11+/m0/s1

>  <PUBCHEM_IUPAC_INCHIKEY>
BPBPWBGJZQBEKD-WDEREUQCSA-N

>  <PUBCHEM_XLOGP3_AA>
2.6

>  <PUBCHEM_EXACT_MASS>
180.115

>  <PUBCHEM_MOLECULAR_FORMULA>
C11H16O2

>  <PUBCHEM_MOLECULAR_WEIGHT>
180.247

>  <PUBCHEM_OPENEYE_CAN_SMILES>
CC1=CCC(CC1OC=O)C(=C)C

>  <PUBCHEM_OPENEYE_ISO_SMILES>
CC1=CC[C@@H](C[C@H]1OC=O)C(=C)C

>  <PUBCHEM_CACTVS_TPSA>
26.3

>  <PUBCHEM_MONOISOTOPIC_WEIGHT>
180.115

>  <PUBCHEM_TOTAL_CHARGE>
0

>  <PUBCHEM_HEAVY_ATOM_COUNT>
13

>  <PUBCHEM_ATOM_DEF_STEREO_COUNT>
2

>  <PUBCHEM_ATOM_UDEF_STEREO_COUNT>
0

>  <PUBCHEM_BOND_DEF_STEREO_COUNT>
0

>  <PUBCHEM_BOND_UDEF_STEREO_COUNT>
0

>  <PUBCHEM_ISOTOPIC_ATOM_COUNT>
0

>  <PUBCHEM_COMPONENT_COUNT>
1

>  <PUBCHEM_CACTVS_TAUTO_COUNT>
1

>  <PUBCHEM_COORDINATE_TYPE>
1
5
255

>  <PUBCHEM_BONDANNOTATIONS>
5  1  6
3  9  5

$$$$
