6431456
 OpenBabel06101807152D

 42 43  0  0  1  0  0  0  0  0999 V2000
    2.3100   -0.2450    0.0000 O   0  0  0  0  0  0  0  0  0  0  0  0
    5.0420   -0.2450    0.0000 C   0  0  3  0  0  0  0  0  0  0  0  0
    5.0420    0.7550    0.0000 C   0  0  3  0  0  0  0  0  0  0  0  0
    5.9360   -0.7797    0.0000 C   0  0  2  0  0  0  0  0  0  0  0  0
    4.1760   -0.7450    0.0000 C   0  0  0  0  0  0  0  0  0  0  0  0
    3.3100   -0.2450    0.0000 C   0  0  3  0  0  0  0  0  0  0  0  0
    4.1760    1.2550    0.0000 C   0  0  0  0  0  0  0  0  0  0  0  0
    3.3100    0.7550    0.0000 C   0  0  0  0  0  0  0  0  0  0  0  0
    6.8421   -0.2658    0.0000 C   0  0  0  0  0  0  0  0  0  0  0  0
    5.9244   -1.7796    0.0000 C   0  0  0  0  0  0  0  0  0  0  0  0
    5.9360    1.2896    0.0000 C   0  0  0  0  0  0  0  0  0  0  0  0
    6.8421    0.7758    0.0000 C   0  0  0  0  0  0  0  0  0  0  0  0
    2.8100   -1.1110    0.0000 C   0  0  0  0  0  0  0  0  0  0  0  0
    6.7846   -2.2896    0.0000 C   0  0  0  0  0  0  0  0  0  0  0  0
    5.0527   -2.2696    0.0000 C   0  0  0  0  0  0  0  0  0  0  0  0
    5.9244    2.2896    0.0000 C   0  0  0  0  0  0  0  0  0  0  0  0
    5.0355   -1.0950    0.0000 H   0  0  0  0  0  0  0  0  0  0  0  0
    5.0355    1.6050    0.0000 H   0  0  0  0  0  0  0  0  0  0  0  0
    6.4699   -1.0948    0.0000 H   0  0  0  0  0  0  0  0  0  0  0  0
    3.7775   -1.2200    0.0000 H   0  0  0  0  0  0  0  0  0  0  0  0
    4.5746   -1.2200    0.0000 H   0  0  0  0  0  0  0  0  0  0  0  0
    4.5746    1.7299    0.0000 H   0  0  0  0  0  0  0  0  0  0  0  0
    3.7775    1.7299    0.0000 H   0  0  0  0  0  0  0  0  0  0  0  0
    3.0980    1.3376    0.0000 H   0  0  0  0  0  0  0  0  0  0  0  0
    2.6994    0.6473    0.0000 H   0  0  0  0  0  0  0  0  0  0  0  0
    7.0511   -0.8495    0.0000 H   0  0  0  0  0  0  0  0  0  0  0  0
    7.4529   -0.1597    0.0000 H   0  0  0  0  0  0  0  0  0  0  0  0
    5.3911   -1.4634    0.0000 H   0  0  0  0  0  0  0  0  0  0  0  0
    7.3778    1.0879    0.0000 H   0  0  0  0  0  0  0  0  0  0  0  0
    2.2731   -0.8010    0.0000 H   0  0  0  0  0  0  0  0  0  0  0  0
    2.5000   -1.6480    0.0000 H   0  0  0  0  0  0  0  0  0  0  0  0
    3.3469   -1.4210    0.0000 H   0  0  0  0  0  0  0  0  0  0  0  0
    6.4684   -2.8229    0.0000 H   0  0  0  0  0  0  0  0  0  0  0  0
    7.3179   -2.6058    0.0000 H   0  0  0  0  0  0  0  0  0  0  0  0
    7.1008   -1.7563    0.0000 H   0  0  0  0  0  0  0  0  0  0  0  0
    4.7489   -1.7291    0.0000 H   0  0  0  0  0  0  0  0  0  0  0  0
    4.5122   -2.5733    0.0000 H   0  0  0  0  0  0  0  0  0  0  0  0
    5.3564   -2.8100    0.0000 H   0  0  0  0  0  0  0  0  0  0  0  0
    6.5444    2.2968    0.0000 H   0  0  0  0  0  0  0  0  0  0  0  0
    5.9173    2.9095    0.0000 H   0  0  0  0  0  0  0  0  0  0  0  0
    5.3045    2.2824    0.0000 H   0  0  0  0  0  0  0  0  0  0  0  0
    2.0000    0.2919    0.0000 H   0  0  0  0  0  0  0  0  0  0  0  0
  1  6  1  0  0  0  0
  1 42  1  0  0  0  0
  2  3  1  0  0  0  0
  2  5  1  0  0  0  0
  2 17  1  0  0  0  0
  3  7  1  0  0  0  0
  3 11  1  0  0  0  0
  3 18  1  0  0  0  0
  4  2  1  1  0  0  0
  4  9  1  0  0  0  0
  4 10  1  0  0  0  0
  4 19  1  0  0  0  0
  5  6  1  0  0  0  0
  5 20  1  0  0  0  0
  5 21  1  0  0  0  0
  6  8  1  0  0  0  0
  6 13  1  0  0  0  0
  7  8  1  0  0  0  0
  7 22  1  0  0  0  0
  7 23  1  0  0  0  0
  8 24  1  0  0  0  0
  8 25  1  0  0  0  0
  9 12  1  0  0  0  0
  9 26  1  0  0  0  0
  9 27  1  0  0  0  0
 10 14  1  0  0  0  0
 10 15  1  0  0  0  0
 10 28  1  0  0  0  0
 11 12  2  0  0  0  0
 11 16  1  0  0  0  0
 12 29  1  0  0  0  0
 13 30  1  0  0  0  0
 13 31  1  0  0  0  0
 13 32  1  0  0  0  0
 14 33  1  0  0  0  0
 14 34  1  0  0  0  0
 14 35  1  0  0  0  0
 15 36  1  0  0  0  0
 15 37  1  0  0  0  0
 15 38  1  0  0  0  0
 16 39  1  0  0  0  0
 16 40  1  0  0  0  0
 16 41  1  0  0  0  0
M  END
>  <PUBCHEM_COMPOUND_CID>
6431456

>  <PUBCHEM_COMPOUND_CANONICALIZED>
1

>  <PUBCHEM_CACTVS_COMPLEXITY>
292

>  <PUBCHEM_CACTVS_HBOND_ACCEPTOR>
1

>  <PUBCHEM_CACTVS_HBOND_DONOR>
1

>  <PUBCHEM_CACTVS_ROTATABLE_BOND>
1

>  <PUBCHEM_CACTVS_SUBSKEYS>
AAADceBwIAAAAAAAAAAAAAAAAAAAAAAAAAAwQAAAAAAAAACAAAAAGgAACAAADUSAgAACAAAAAgCAAiBCAAAAAAAgAAAACAAAAAgAAAIAAQAAQAAEgAAIAAOAwPAOgAAAAAAAAADAAAYAACAAAAAAAAAAAA==

>  <PUBCHEM_IUPAC_OPENEYE_NAME>
(8R)-8-isopropyl-2,5-dimethyl-3,4,4a,7,8,8a-hexahydro-1H-naphthalen-2-ol

>  <PUBCHEM_IUPAC_CAS_NAME>
(8R)-2,5-dimethyl-8-propan-2-yl-3,4,4a,7,8,8a-hexahydro-1H-naphthalen-2-ol

>  <PUBCHEM_IUPAC_NAME>
(8R)-2,5-dimethyl-8-propan-2-yl-3,4,4a,7,8,8a-hexahydro-1H-naphthalen-2-ol

>  <PUBCHEM_IUPAC_SYSTEMATIC_NAME>
(8R)-2,5-dimethyl-8-propan-2-yl-3,4,4a,7,8,8a-hexahydro-1H-naphthalen-2-ol

>  <PUBCHEM_IUPAC_TRADITIONAL_NAME>
(8R)-8-isopropyl-2,5-dimethyl-3,4,4a,7,8,8a-hexahydro-1H-naphthalen-2-ol

>  <PUBCHEM_IUPAC_INCHI>
InChI=1S/C15H26O/c1-10(2)12-6-5-11(3)13-7-8-15(4,16)9-14(12)13/h5,10,12-14,16H,6-9H2,1-4H3/t12-,13?,14?,15?/m1/s1

>  <PUBCHEM_IUPAC_INCHIKEY>
ISOIDIYKQYJGMC-AUXXQLBISA-N

>  <PUBCHEM_XLOGP3_AA>
3.3

>  <PUBCHEM_EXACT_MASS>
222.198

>  <PUBCHEM_MOLECULAR_FORMULA>
C15H26O

>  <PUBCHEM_MOLECULAR_WEIGHT>
222.372

>  <PUBCHEM_OPENEYE_CAN_SMILES>
CC1=CCC(C2C1CCC(C2)(C)O)C(C)C

>  <PUBCHEM_OPENEYE_ISO_SMILES>
CC1=CC[C@@H](C2C1CCC(C2)(C)O)C(C)C

>  <PUBCHEM_CACTVS_TPSA>
20.2

>  <PUBCHEM_MONOISOTOPIC_WEIGHT>
222.198

>  <PUBCHEM_TOTAL_CHARGE>
0

>  <PUBCHEM_HEAVY_ATOM_COUNT>
16

>  <PUBCHEM_ATOM_DEF_STEREO_COUNT>
1

>  <PUBCHEM_ATOM_UDEF_STEREO_COUNT>
3

>  <PUBCHEM_BOND_DEF_STEREO_COUNT>
0

>  <PUBCHEM_BOND_UDEF_STEREO_COUNT>
0

>  <PUBCHEM_ISOTOPIC_ATOM_COUNT>
0

>  <PUBCHEM_COMPONENT_COUNT>
1

>  <PUBCHEM_CACTVS_TAUTO_COUNT>
1

>  <PUBCHEM_COORDINATE_TYPE>
1
5
255

>  <PUBCHEM_BONDANNOTATIONS>
2  17  3
3  18  3
4  10  6
6  13  3

$$$$
