6433206
 OpenBabel06101807152D

 19 18  0  0  1  0  0  0  0  0999 V2000
    2.8660   -0.0600    0.0000 S   0  0  3  0  0  0  0  0  0  0  0  0
    8.9282   -0.5600    0.0000 S   0  0  0  0  0  0  0  0  0  0  0  0
    2.8660   -1.0600    0.0000 O   0  0  0  0  0  0  0  0  0  0  0  0
    7.1962    0.4400    0.0000 N   0  0  0  0  0  0  0  0  0  0  0  0
    5.4641    0.4400    0.0000 C   0  0  0  0  0  0  0  0  0  0  0  0
    6.3301   -0.0600    0.0000 C   0  0  0  0  0  0  0  0  0  0  0  0
    4.5981   -0.0600    0.0000 C   0  0  0  0  0  0  0  0  0  0  0  0
    3.7320    0.4400    0.0000 C   0  0  0  0  0  0  0  0  0  0  0  0
    2.0000    0.4400    0.0000 C   0  0  0  0  0  0  0  0  0  0  0  0
    8.0622   -0.0600    0.0000 C   0  0  0  0  0  0  0  0  0  0  0  0
    5.8626    0.9149    0.0000 H   0  0  0  0  0  0  0  0  0  0  0  0
    5.0656    0.9149    0.0000 H   0  0  0  0  0  0  0  0  0  0  0  0
    5.9316   -0.5349    0.0000 H   0  0  0  0  0  0  0  0  0  0  0  0
    6.7287   -0.5349    0.0000 H   0  0  0  0  0  0  0  0  0  0  0  0
    4.5981   -0.6800    0.0000 H   0  0  0  0  0  0  0  0  0  0  0  0
    3.7320    1.0600    0.0000 H   0  0  0  0  0  0  0  0  0  0  0  0
    2.3100    0.9769    0.0000 H   0  0  0  0  0  0  0  0  0  0  0  0
    1.4631    0.7500    0.0000 H   0  0  0  0  0  0  0  0  0  0  0  0
    1.6900   -0.0969    0.0000 H   0  0  0  0  0  0  0  0  0  0  0  0
  1  3  2  0  0  0  0
  1  8  1  0  0  0  0
  1  9  1  0  0  0  0
  2 10  2  0  0  0  0
  4  6  1  0  0  0  0
  4 10  2  0  0  0  0
  5  6  1  0  0  0  0
  5  7  1  0  0  0  0
  5 11  1  0  0  0  0
  5 12  1  0  0  0  0
  6 13  1  0  0  0  0
  6 14  1  0  0  0  0
  7  8  2  0  0  0  0
  7 15  1  0  0  0  0
  8 16  1  0  0  0  0
  9 17  1  0  0  0  0
  9 18  1  0  0  0  0
  9 19  1  0  0  0  0
M  END
>  <PUBCHEM_COMPOUND_CID>
6433206

>  <PUBCHEM_COMPOUND_CANONICALIZED>
1

>  <PUBCHEM_CACTVS_COMPLEXITY>
182

>  <PUBCHEM_CACTVS_HBOND_ACCEPTOR>
4

>  <PUBCHEM_CACTVS_HBOND_DONOR>
0

>  <PUBCHEM_CACTVS_ROTATABLE_BOND>
4

>  <PUBCHEM_CACTVS_SUBSKEYS>
AAADccBiIABgAAAAAAAAAAAAAAAAAAAAAAAAAAAAAAAAAAAAAAAAHAQAAAAACADFQASCAAIAAAqkACBCBEAAAAAgAAAIAAAAAAgAAAAAAQAAAAAAAAAAAAAAAAAAAAAAAAAAAAAAAAAAAAAAAAAAAAAAAA==

>  <PUBCHEM_IUPAC_OPENEYE_NAME>
(E)-4-isothiocyanato-1-methylsulfinyl-but-1-ene

>  <PUBCHEM_IUPAC_CAS_NAME>
(E)-4-isothiocyanato-1-methylsulfinyl-1-butene

>  <PUBCHEM_IUPAC_NAME>
(E)-4-isothiocyanato-1-methylsulfinylbut-1-ene

>  <PUBCHEM_IUPAC_SYSTEMATIC_NAME>
(E)-4-isothiocyanato-1-methylsulfinyl-but-1-ene

>  <PUBCHEM_IUPAC_TRADITIONAL_NAME>
(E)-4-isothiocyanato-1-methylsulfinyl-but-1-ene

>  <PUBCHEM_IUPAC_INCHI>
InChI=1S/C6H9NOS2/c1-10(8)5-3-2-4-7-6-9/h3,5H,2,4H2,1H3/b5-3+

>  <PUBCHEM_IUPAC_INCHIKEY>
QKGJFQMGPDVOQE-HWKANZROSA-N

>  <PUBCHEM_XLOGP3_AA>
1.5

>  <PUBCHEM_EXACT_MASS>
175.013

>  <PUBCHEM_MOLECULAR_FORMULA>
C6H9NOS2

>  <PUBCHEM_MOLECULAR_WEIGHT>
175.264

>  <PUBCHEM_OPENEYE_CAN_SMILES>
CS(=O)C=CCCN=C=S

>  <PUBCHEM_OPENEYE_ISO_SMILES>
CS(=O)/C=C/CCN=C=S

>  <PUBCHEM_CACTVS_TPSA>
80.7

>  <PUBCHEM_MONOISOTOPIC_WEIGHT>
175.013

>  <PUBCHEM_TOTAL_CHARGE>
0

>  <PUBCHEM_HEAVY_ATOM_COUNT>
10

>  <PUBCHEM_ATOM_DEF_STEREO_COUNT>
0

>  <PUBCHEM_ATOM_UDEF_STEREO_COUNT>
1

>  <PUBCHEM_BOND_DEF_STEREO_COUNT>
1

>  <PUBCHEM_BOND_UDEF_STEREO_COUNT>
0

>  <PUBCHEM_ISOTOPIC_ATOM_COUNT>
0

>  <PUBCHEM_COMPONENT_COUNT>
1

>  <PUBCHEM_CACTVS_TAUTO_COUNT>
1

>  <PUBCHEM_COORDINATE_TYPE>
1
5
255

>  <PUBCHEM_BONDANNOTATIONS>
1  9  3

$$$$
