643304
 OpenBabel06101807152D

 28 30  0  0  0  0  0  0  0  0999 V2000
    7.6255    1.0936    0.0000 O   0  0  0  0  0  0  0  0  0  0  0  0
    5.9721    1.6098    0.0000 O   0  0  0  0  0  0  0  0  0  0  0  0
    4.5274    0.2754    0.0000 N   0  0  0  0  0  0  0  0  0  0  0  0
    5.0274   -1.2635    0.0000 C   0  0  0  0  0  0  0  0  0  0  0  0
    5.3364   -0.3124    0.0000 C   0  0  0  0  0  0  0  0  0  0  0  0
    4.0274   -1.2635    0.0000 C   0  0  0  0  0  0  0  0  0  0  0  0
    3.7183   -0.3124    0.0000 C   0  0  0  0  0  0  0  0  0  0  0  0
    6.3518   -0.0801    0.0000 C   0  0  0  0  0  0  0  0  0  0  0  0
    5.7123   -2.0482    0.0000 C   0  0  0  0  0  0  0  0  0  0  0  0
    3.3424   -2.0482    0.0000 C   0  0  0  0  0  0  0  0  0  0  0  0
    2.7029   -0.0801    0.0000 C   0  0  0  0  0  0  0  0  0  0  0  0
    7.0547   -0.8488    0.0000 C   0  0  0  0  0  0  0  0  0  0  0  0
    6.7328   -1.8395    0.0000 C   0  0  0  0  0  0  0  0  0  0  0  0
    2.3219   -1.8395    0.0000 C   0  0  0  0  0  0  0  0  0  0  0  0
    2.0000   -0.8488    0.0000 C   0  0  0  0  0  0  0  0  0  0  0  0
    6.6498    0.8744    0.0000 C   0  0  0  0  0  0  0  0  0  0  0  0
    7.9235    2.0482    0.0000 C   0  0  0  0  0  0  0  0  0  0  0  0
    4.5274    0.8954    0.0000 H   0  0  0  0  0  0  0  0  0  0  0  0
    5.5139   -2.6356    0.0000 H   0  0  0  0  0  0  0  0  0  0  0  0
    3.5408   -2.6356    0.0000 H   0  0  0  0  0  0  0  0  0  0  0  0
    2.5182    0.5117    0.0000 H   0  0  0  0  0  0  0  0  0  0  0  0
    7.6607   -0.7176    0.0000 H   0  0  0  0  0  0  0  0  0  0  0  0
    7.1459   -2.3018    0.0000 H   0  0  0  0  0  0  0  0  0  0  0  0
    1.9088   -2.3018    0.0000 H   0  0  0  0  0  0  0  0  0  0  0  0
    1.3940   -0.7176    0.0000 H   0  0  0  0  0  0  0  0  0  0  0  0
    8.5153    1.8634    0.0000 H   0  0  0  0  0  0  0  0  0  0  0  0
    8.1082    2.6400    0.0000 H   0  0  0  0  0  0  0  0  0  0  0  0
    7.3316    2.2330    0.0000 H   0  0  0  0  0  0  0  0  0  0  0  0
  1 16  1  0  0  0  0
  1 17  1  0  0  0  0
  2 16  2  0  0  0  0
  3  5  1  0  0  0  0
  3  7  1  0  0  0  0
  3 18  1  0  0  0  0
  4  5  2  0  0  0  0
  4  6  1  0  0  0  0
  4  9  1  0  0  0  0
  5  8  1  0  0  0  0
  6  7  1  0  0  0  0
  6 10  2  0  0  0  0
  7 11  2  0  0  0  0
  8 12  2  0  0  0  0
  8 16  1  0  0  0  0
  9 13  2  0  0  0  0
  9 19  1  0  0  0  0
 10 14  1  0  0  0  0
 10 20  1  0  0  0  0
 11 15  1  0  0  0  0
 11 21  1  0  0  0  0
 12 13  1  0  0  0  0
 12 22  1  0  0  0  0
 13 23  1  0  0  0  0
 14 15  2  0  0  0  0
 14 24  1  0  0  0  0
 15 25  1  0  0  0  0
 17 26  1  0  0  0  0
 17 27  1  0  0  0  0
 17 28  1  0  0  0  0
M  END
>  <PUBCHEM_COMPOUND_CID>
643304

>  <PUBCHEM_COMPOUND_CANONICALIZED>
1

>  <PUBCHEM_CACTVS_COMPLEXITY>
305

>  <PUBCHEM_CACTVS_HBOND_ACCEPTOR>
2

>  <PUBCHEM_CACTVS_HBOND_DONOR>
1

>  <PUBCHEM_CACTVS_ROTATABLE_BOND>
2

>  <PUBCHEM_CACTVS_SUBSKEYS>
AAADccByMAAAAAAAAAAAAAAAAAAAAWAAAAAwYAAAAAAAAFgB/AAAHgAQAAAADAiBngIyyPLJlACoAyTyTACCgCAlAiAImSEwbNgIJvrAtZmEMYhm0AHI6ceYyPCOgAACAAACAAAAAAQAAAQAAAAAAAAAAA==

>  <PUBCHEM_IUPAC_OPENEYE_NAME>
methyl 9H-carbazole-1-carboxylate

>  <PUBCHEM_IUPAC_CAS_NAME>
9H-carbazole-1-carboxylic acid methyl ester

>  <PUBCHEM_IUPAC_NAME>
methyl 9H-carbazole-1-carboxylate

>  <PUBCHEM_IUPAC_SYSTEMATIC_NAME>
methyl 9H-carbazole-1-carboxylate

>  <PUBCHEM_IUPAC_TRADITIONAL_NAME>
9H-carbazole-1-carboxylic acid methyl ester

>  <PUBCHEM_IUPAC_INCHI>
InChI=1S/C14H11NO2/c1-17-14(16)11-7-4-6-10-9-5-2-3-8-12(9)15-13(10)11/h2-8,15H,1H3

>  <PUBCHEM_IUPAC_INCHIKEY>
XOGIKWSCTIFLGT-UHFFFAOYSA-N

>  <PUBCHEM_XLOGP3_AA>
3.2

>  <PUBCHEM_EXACT_MASS>
225.079

>  <PUBCHEM_MOLECULAR_FORMULA>
C14H11NO2

>  <PUBCHEM_MOLECULAR_WEIGHT>
225.247

>  <PUBCHEM_OPENEYE_CAN_SMILES>
COC(=O)C1=CC=CC2=C1NC3=CC=CC=C23

>  <PUBCHEM_OPENEYE_ISO_SMILES>
COC(=O)C1=CC=CC2=C1NC3=CC=CC=C23

>  <PUBCHEM_CACTVS_TPSA>
42.1

>  <PUBCHEM_MONOISOTOPIC_WEIGHT>
225.079

>  <PUBCHEM_TOTAL_CHARGE>
0

>  <PUBCHEM_HEAVY_ATOM_COUNT>
17

>  <PUBCHEM_ATOM_DEF_STEREO_COUNT>
0

>  <PUBCHEM_ATOM_UDEF_STEREO_COUNT>
0

>  <PUBCHEM_BOND_DEF_STEREO_COUNT>
0

>  <PUBCHEM_BOND_UDEF_STEREO_COUNT>
0

>  <PUBCHEM_ISOTOPIC_ATOM_COUNT>
0

>  <PUBCHEM_COMPONENT_COUNT>
1

>  <PUBCHEM_CACTVS_TAUTO_COUNT>
4

>  <PUBCHEM_COORDINATE_TYPE>
1
5
255

>  <PUBCHEM_BONDANNOTATIONS>
10  14  8
11  15  8
12  13  8
14  15  8
3  5  8
3  7  8
4  5  8
4  6  8
4  9  8
5  8  8
6  10  8
6  7  8
7  11  8
8  12  8
9  13  8

$$$$
