6436484
 OpenBabel06101807152D

 26 27  0  0  0  0  0  0  0  0999 V2000
    7.2764    0.3647    0.0000 O   0  0  0  0  0  0  0  0  0  0  0  0
    7.2764   -1.2447    0.0000 O   0  0  0  0  0  0  0  0  0  0  0  0
    5.4641    1.5600    0.0000 O   0  0  0  0  0  0  0  0  0  0  0  0
    6.3301    0.0600    0.0000 C   0  0  0  0  0  0  0  0  0  0  0  0
    6.3301   -0.9400    0.0000 C   0  0  0  0  0  0  0  0  0  0  0  0
    5.4641    0.5600    0.0000 C   0  0  0  0  0  0  0  0  0  0  0  0
    4.5981   -0.9400    0.0000 C   0  0  0  0  0  0  0  0  0  0  0  0
    5.4641   -1.4400    0.0000 C   0  0  0  0  0  0  0  0  0  0  0  0
    4.5981    0.0600    0.0000 C   0  0  0  0  0  0  0  0  0  0  0  0
    7.8600   -0.4400    0.0000 C   0  0  0  0  0  0  0  0  0  0  0  0
    3.7320   -1.4400    0.0000 C   0  0  0  0  0  0  0  0  0  0  0  0
    2.8660   -0.9400    0.0000 C   0  0  0  0  0  0  0  0  0  0  0  0
    4.5981    2.0600    0.0000 C   0  0  0  0  0  0  0  0  0  0  0  0
    2.0000   -1.4400    0.0000 C   0  0  0  0  0  0  0  0  0  0  0  0
    5.4641   -2.0600    0.0000 H   0  0  0  0  0  0  0  0  0  0  0  0
    4.0611    0.3700    0.0000 H   0  0  0  0  0  0  0  0  0  0  0  0
    8.3208   -0.8547    0.0000 H   0  0  0  0  0  0  0  0  0  0  0  0
    8.3208   -0.0253    0.0000 H   0  0  0  0  0  0  0  0  0  0  0  0
    3.7320   -2.0600    0.0000 H   0  0  0  0  0  0  0  0  0  0  0  0
    2.8660   -0.3200    0.0000 H   0  0  0  0  0  0  0  0  0  0  0  0
    4.9081    2.5969    0.0000 H   0  0  0  0  0  0  0  0  0  0  0  0
    4.0611    2.3700    0.0000 H   0  0  0  0  0  0  0  0  0  0  0  0
    4.2881    1.5231    0.0000 H   0  0  0  0  0  0  0  0  0  0  0  0
    1.6900   -0.9031    0.0000 H   0  0  0  0  0  0  0  0  0  0  0  0
    1.4631   -1.7500    0.0000 H   0  0  0  0  0  0  0  0  0  0  0  0
    2.3100   -1.9769    0.0000 H   0  0  0  0  0  0  0  0  0  0  0  0
  1  4  1  0  0  0  0
  1 10  1  0  0  0  0
  2  5  1  0  0  0  0
  2 10  1  0  0  0  0
  3  6  1  0  0  0  0
  3 13  1  0  0  0  0
  4  5  2  0  0  0  0
  4  6  1  0  0  0  0
  5  8  1  0  0  0  0
  6  9  2  0  0  0  0
  7  8  2  0  0  0  0
  7  9  1  0  0  0  0
  7 11  1  0  0  0  0
  8 15  1  0  0  0  0
  9 16  1  0  0  0  0
 10 17  1  0  0  0  0
 10 18  1  0  0  0  0
 11 12  2  0  0  0  0
 11 19  1  0  0  0  0
 12 14  1  0  0  0  0
 12 20  1  0  0  0  0
 13 21  1  0  0  0  0
 13 22  1  0  0  0  0
 13 23  1  0  0  0  0
 14 24  1  0  0  0  0
 14 25  1  0  0  0  0
 14 26  1  0  0  0  0
M  END
>  <PUBCHEM_COMPOUND_CID>
6436484

>  <PUBCHEM_COMPOUND_CANONICALIZED>
1

>  <PUBCHEM_CACTVS_COMPLEXITY>
215

>  <PUBCHEM_CACTVS_HBOND_ACCEPTOR>
3

>  <PUBCHEM_CACTVS_HBOND_DONOR>
0

>  <PUBCHEM_CACTVS_ROTATABLE_BOND>
2

>  <PUBCHEM_CACTVS_SUBSKEYS>
AAADccBwMAAAAAAAAAAAAAAAAAAAASAAAAAwAAAAAAAAAEgBAAAAGgAAAAAADASAmAMyDoAABACAAiBCAAACCAAgIAAIiAAGiIgdJyKEMRqgMCIlwBUOqAeA4BwOIAABCAAAQABAAAIQAACAAAAAAAAAAA==

>  <PUBCHEM_IUPAC_OPENEYE_NAME>
4-methoxy-6-[(E)-prop-1-enyl]-1,3-benzodioxole

>  <PUBCHEM_IUPAC_CAS_NAME>
4-methoxy-6-[(E)-prop-1-enyl]-1,3-benzodioxole

>  <PUBCHEM_IUPAC_NAME>
4-methoxy-6-[(E)-prop-1-enyl]-1,3-benzodioxole

>  <PUBCHEM_IUPAC_SYSTEMATIC_NAME>
4-methoxy-6-[(E)-prop-1-enyl]-1,3-benzodioxole

>  <PUBCHEM_IUPAC_TRADITIONAL_NAME>
4-methoxy-6-[(E)-prop-1-enyl]-1,3-benzodioxole

>  <PUBCHEM_IUPAC_INCHI>
InChI=1S/C11H12O3/c1-3-4-8-5-9(12-2)11-10(6-8)13-7-14-11/h3-6H,7H2,1-2H3/b4-3+

>  <PUBCHEM_IUPAC_INCHIKEY>
DHUZAAUGHUHIDS-ONEGZZNKSA-N

>  <PUBCHEM_XLOGP3_AA>
2.7

>  <PUBCHEM_EXACT_MASS>
192.079

>  <PUBCHEM_MOLECULAR_FORMULA>
C11H12O3

>  <PUBCHEM_MOLECULAR_WEIGHT>
192.214

>  <PUBCHEM_OPENEYE_CAN_SMILES>
CC=CC1=CC2=C(C(=C1)OC)OCO2

>  <PUBCHEM_OPENEYE_ISO_SMILES>
C/C=C/C1=CC2=C(C(=C1)OC)OCO2

>  <PUBCHEM_CACTVS_TPSA>
27.7

>  <PUBCHEM_MONOISOTOPIC_WEIGHT>
192.079

>  <PUBCHEM_TOTAL_CHARGE>
0

>  <PUBCHEM_HEAVY_ATOM_COUNT>
14

>  <PUBCHEM_ATOM_DEF_STEREO_COUNT>
0

>  <PUBCHEM_ATOM_UDEF_STEREO_COUNT>
0

>  <PUBCHEM_BOND_DEF_STEREO_COUNT>
1

>  <PUBCHEM_BOND_UDEF_STEREO_COUNT>
0

>  <PUBCHEM_ISOTOPIC_ATOM_COUNT>
0

>  <PUBCHEM_COMPONENT_COUNT>
1

>  <PUBCHEM_CACTVS_TAUTO_COUNT>
1

>  <PUBCHEM_COORDINATE_TYPE>
1
5
255

>  <PUBCHEM_BONDANNOTATIONS>
4  5  8
4  6  8
5  8  8
6  9  8
7  8  8
7  9  8

$$$$
