6436803
 OpenBabel06101807152D

 63 64  0  0  1  0  0  0  0  0999 V2000
   11.8353    3.8418    0.0000 O   0  0  0  0  0  0  0  0  0  0  0  0
   10.7476    6.1897    0.0000 O   0  0  0  0  0  0  0  0  0  0  0  0
   13.5954    4.1206    0.0000 O   0  0  0  0  0  0  0  0  0  0  0  0
    3.0827   -6.1897    0.0000 O   0  0  0  0  0  0  0  0  0  0  0  0
    8.9163    2.8334    0.0000 C   0  0  0  0  0  0  0  0  0  0  0  0
    9.8674    3.1425    0.0000 C   0  0  2  0  0  0  0  0  0  0  0  0
    8.7084    1.8553    0.0000 C   0  0  0  0  0  0  0  0  0  0  0  0
    7.7573    1.5463    0.0000 C   0  0  0  0  0  0  0  0  0  0  0  0
    7.5494    0.5681    0.0000 C   0  0  0  0  0  0  0  0  0  0  0  0
   10.6105    2.4733    0.0000 C   0  0  0  0  0  0  0  0  0  0  0  0
   10.0753    4.1206    0.0000 C   0  0  0  0  0  0  0  0  0  0  0  0
    6.3905   -0.7190    0.0000 C   0  0  0  0  0  0  0  0  0  0  0  0
    6.5984    0.2591    0.0000 C   0  0  0  0  0  0  0  0  0  0  0  0
    5.4394   -1.0280    0.0000 C   0  0  0  0  0  0  0  0  0  0  0  0
   11.0263    4.4296    0.0000 C   0  0  0  0  0  0  0  0  0  0  0  0
    8.2926   -0.1010    0.0000 C   0  0  0  0  0  0  0  0  0  0  0  0
    5.2315   -2.0062    0.0000 C   0  0  0  0  0  0  0  0  0  0  0  0
    4.2804   -2.3152    0.0000 C   0  0  0  0  0  0  0  0  0  0  0  0
    4.0725   -3.2934    0.0000 C   0  0  0  0  0  0  0  0  0  0  0  0
   11.3353    5.3807    0.0000 C   0  0  0  0  0  0  0  0  0  0  0  0
    3.1215   -3.6024    0.0000 C   0  0  0  0  0  0  0  0  0  0  0  0
    5.9746   -2.6753    0.0000 C   0  0  0  0  0  0  0  0  0  0  0  0
   12.3353    5.3807    0.0000 C   0  0  0  0  0  0  0  0  0  0  0  0
   12.6444    4.4296    0.0000 C   0  0  0  0  0  0  0  0  0  0  0  0
    2.9136   -4.5805    0.0000 C   0  0  0  0  0  0  0  0  0  0  0  0
   12.9231    6.1897    0.0000 C   0  0  0  0  0  0  0  0  0  0  0  0
    2.0000   -4.9873    0.0000 C   0  0  0  0  0  0  0  0  0  0  0  0
    3.5827   -5.3237    0.0000 C   0  0  0  0  0  0  0  0  0  0  0  0
    2.1045   -5.9818    0.0000 C   0  0  0  0  0  0  0  0  0  0  0  0
    8.8300    3.4474    0.0000 H   0  0  0  0  0  0  0  0  0  0  0  0
    8.2967    2.8551    0.0000 H   0  0  0  0  0  0  0  0  0  0  0  0
    9.7384    2.5360    0.0000 H   0  0  0  0  0  0  0  0  0  0  0  0
    8.7947    1.2413    0.0000 H   0  0  0  0  0  0  0  0  0  0  0  0
    9.3280    1.8337    0.0000 H   0  0  0  0  0  0  0  0  0  0  0  0
    7.6710    2.1602    0.0000 H   0  0  0  0  0  0  0  0  0  0  0  0
    7.1377    1.5679    0.0000 H   0  0  0  0  0  0  0  0  0  0  0  0
   10.1956    2.0126    0.0000 H   0  0  0  0  0  0  0  0  0  0  0  0
   11.0712    2.0585    0.0000 H   0  0  0  0  0  0  0  0  0  0  0  0
   11.0254    2.9341    0.0000 H   0  0  0  0  0  0  0  0  0  0  0  0
    9.6145    4.5355    0.0000 H   0  0  0  0  0  0  0  0  0  0  0  0
    6.4767   -1.3330    0.0000 H   0  0  0  0  0  0  0  0  0  0  0  0
    7.0101   -0.7407    0.0000 H   0  0  0  0  0  0  0  0  0  0  0  0
    6.1376    0.6740    0.0000 H   0  0  0  0  0  0  0  0  0  0  0  0
    5.3531   -0.4141    0.0000 H   0  0  0  0  0  0  0  0  0  0  0  0
    4.8198   -1.0064    0.0000 H   0  0  0  0  0  0  0  0  0  0  0  0
    7.8777   -0.5618    0.0000 H   0  0  0  0  0  0  0  0  0  0  0  0
    8.7533   -0.5159    0.0000 H   0  0  0  0  0  0  0  0  0  0  0  0
    8.7074    0.3598    0.0000 H   0  0  0  0  0  0  0  0  0  0  0  0
    4.1588   -3.9073    0.0000 H   0  0  0  0  0  0  0  0  0  0  0  0
    4.6921   -3.3150    0.0000 H   0  0  0  0  0  0  0  0  0  0  0  0
    3.8197   -1.9004    0.0000 H   0  0  0  0  0  0  0  0  0  0  0  0
    3.0352   -2.9884    0.0000 H   0  0  0  0  0  0  0  0  0  0  0  0
    2.5018   -3.5807    0.0000 H   0  0  0  0  0  0  0  0  0  0  0  0
    5.5598   -3.1361    0.0000 H   0  0  0  0  0  0  0  0  0  0  0  0
    6.4354   -3.0902    0.0000 H   0  0  0  0  0  0  0  0  0  0  0  0
    6.3895   -2.2146    0.0000 H   0  0  0  0  0  0  0  0  0  0  0  0
   13.4247    5.8253    0.0000 H   0  0  0  0  0  0  0  0  0  0  0  0
   13.2876    6.6913    0.0000 H   0  0  0  0  0  0  0  0  0  0  0  0
   12.4215    6.5541    0.0000 H   0  0  0  0  0  0  0  0  0  0  0  0
    1.4631   -4.6773    0.0000 H   0  0  0  0  0  0  0  0  0  0  0  0
    4.1993   -5.2589    0.0000 H   0  0  0  0  0  0  0  0  0  0  0  0
    1.6438   -6.3966    0.0000 H   0  0  0  0  0  0  0  0  0  0  0  0
   13.7243    3.5142    0.0000 H   0  0  0  0  0  0  0  0  0  0  0  0
  1 15  1  0  0  0  0
  1 24  1  0  0  0  0
  2 20  2  0  0  0  0
  3 24  1  0  0  0  0
  3 63  1  0  0  0  0
  4 28  1  0  0  0  0
  4 29  1  0  0  0  0
  5  6  1  0  0  0  0
  5  7  1  0  0  0  0
  5 30  1  0  0  0  0
  5 31  1  0  0  0  0
  6 10  1  0  0  0  0
  6 11  1  0  0  0  0
  6 32  1  6  0  0  0
  7  8  1  0  0  0  0
  7 33  1  0  0  0  0
  7 34  1  0  0  0  0
  8  9  1  0  0  0  0
  8 35  1  0  0  0  0
  8 36  1  0  0  0  0
  9 13  2  0  0  0  0
  9 16  1  0  0  0  0
 10 37  1  0  0  0  0
 10 38  1  0  0  0  0
 10 39  1  0  0  0  0
 11 15  2  0  0  0  0
 11 40  1  0  0  0  0
 12 13  1  0  0  0  0
 12 14  1  0  0  0  0
 12 41  1  0  0  0  0
 12 42  1  0  0  0  0
 13 43  1  0  0  0  0
 14 17  1  0  0  0  0
 14 44  1  0  0  0  0
 14 45  1  0  0  0  0
 15 20  1  0  0  0  0
 16 46  1  0  0  0  0
 16 47  1  0  0  0  0
 16 48  1  0  0  0  0
 17 18  2  0  0  0  0
 17 22  1  0  0  0  0
 18 19  1  0  0  0  0
 18 51  1  0  0  0  0
 19 21  1  0  0  0  0
 19 49  1  0  0  0  0
 19 50  1  0  0  0  0
 20 23  1  0  0  0  0
 21 25  1  0  0  0  0
 21 52  1  0  0  0  0
 21 53  1  0  0  0  0
 22 54  1  0  0  0  0
 22 55  1  0  0  0  0
 22 56  1  0  0  0  0
 23 24  2  0  0  0  0
 23 26  1  0  0  0  0
 25 27  1  0  0  0  0
 25 28  2  0  0  0  0
 26 57  1  0  0  0  0
 26 58  1  0  0  0  0
 26 59  1  0  0  0  0
 27 29  2  0  0  0  0
 27 60  1  0  0  0  0
 28 61  1  0  0  0  0
 29 62  1  0  0  0  0
M  END
>  <PUBCHEM_COMPOUND_CID>
6436803

>  <PUBCHEM_COMPOUND_CANONICALIZED>
1

>  <PUBCHEM_CACTVS_COMPLEXITY>
681

>  <PUBCHEM_CACTVS_HBOND_ACCEPTOR>
4

>  <PUBCHEM_CACTVS_HBOND_DONOR>
1

>  <PUBCHEM_CACTVS_ROTATABLE_BOND>
11

>  <PUBCHEM_CACTVS_SUBSKEYS>
AAADcfB4OAAAAAAAAAAAAAAAAAAAASIAAAAAAAAAAAAAAAABgAAAGgAACAAADQSgmAIyDIAABkCIAqhSgAICCAAkIAAIiAFGCMgcJhIENQ6CGSCkwBEMKYOIyEAOAAAAAAAAAAAAAAAAAAAAAAAAAAAAAA==

>  <PUBCHEM_IUPAC_OPENEYE_NAME>
(2Z)-2-[(2S,6E,10E)-13-(3-furyl)-2,6,10-trimethyl-trideca-6,10-dienylidene]-5-hydroxy-4-methyl-furan-3-one

>  <PUBCHEM_IUPAC_CAS_NAME>
(2Z)-2-[(2S,6E,10E)-13-(3-furanyl)-2,6,10-trimethyltrideca-6,10-dienylidene]-5-hydroxy-4-methyl-3-furanone

>  <PUBCHEM_IUPAC_NAME>
(2Z)-2-[(2S,6E,10E)-13-(furan-3-yl)-2,6,10-trimethyltrideca-6,10-dienylidene]-5-hydroxy-4-methylfuran-3-one

>  <PUBCHEM_IUPAC_SYSTEMATIC_NAME>
(2Z)-2-[(2S,6E,10E)-13-(furan-3-yl)-2,6,10-trimethyl-trideca-6,10-dienylidene]-4-methyl-5-oxidanyl-furan-3-one

>  <PUBCHEM_IUPAC_TRADITIONAL_NAME>
(2Z)-2-[(2S,6E,10E)-13-(3-furyl)-2,6,10-trimethyl-trideca-6,10-dienylidene]-5-hydroxy-4-methyl-furan-3-one

>  <PUBCHEM_IUPAC_INCHI>
InChI=1S/C25H34O4/c1-18(8-5-9-19(2)11-7-13-22-14-15-28-17-22)10-6-12-20(3)16-23-24(26)21(4)25(27)29-23/h8,11,14-17,20,27H,5-7,9-10,12-13H2,1-4H3/b18-8+,19-11+,23-16-/t20-/m0/s1

>  <PUBCHEM_IUPAC_INCHIKEY>
ANZOQWIGJHLCBC-CHVWLSOJSA-N

>  <PUBCHEM_XLOGP3_AA>
7.2

>  <PUBCHEM_EXACT_MASS>
398.246

>  <PUBCHEM_MOLECULAR_FORMULA>
C25H34O4

>  <PUBCHEM_MOLECULAR_WEIGHT>
398.543

>  <PUBCHEM_OPENEYE_CAN_SMILES>
CC1=C(OC(=CC(C)CCCC(=CCCC(=CCCC2=COC=C2)C)C)C1=O)O

>  <PUBCHEM_OPENEYE_ISO_SMILES>
CC1=C(O/C(=C\[C@@H](C)CCC/C(=C/CC/C(=C/CCC2=COC=C2)/C)/C)/C1=O)O

>  <PUBCHEM_CACTVS_TPSA>
59.7

>  <PUBCHEM_MONOISOTOPIC_WEIGHT>
398.246

>  <PUBCHEM_TOTAL_CHARGE>
0

>  <PUBCHEM_HEAVY_ATOM_COUNT>
29

>  <PUBCHEM_ATOM_DEF_STEREO_COUNT>
1

>  <PUBCHEM_ATOM_UDEF_STEREO_COUNT>
0

>  <PUBCHEM_BOND_DEF_STEREO_COUNT>
3

>  <PUBCHEM_BOND_UDEF_STEREO_COUNT>
0

>  <PUBCHEM_ISOTOPIC_ATOM_COUNT>
0

>  <PUBCHEM_COMPONENT_COUNT>
1

>  <PUBCHEM_CACTVS_TAUTO_COUNT>
8

>  <PUBCHEM_COORDINATE_TYPE>
1
5
255

>  <PUBCHEM_BONDANNOTATIONS>
25  27  8
25  28  8
27  29  8
4  28  8
4  29  8
6  10  5

$$$$
