6436818
 OpenBabel06101807152D

 58 59  0  0  1  0  0  0  0  0999 V2000
    6.2664   -3.1925    0.0000 O   0  0  0  0  0  0  0  0  0  0  0  0
    5.3139   -0.2718    0.0000 O   0  0  0  0  0  0  0  0  0  0  0  0
   10.2937   -1.8898    0.0000 O   0  0  0  0  0  0  0  0  0  0  0  0
    4.5122   -3.4723    0.0000 O   0  0  0  0  0  0  0  0  0  0  0  0
    5.8492    1.3755    0.0000 O   0  0  0  0  0  0  0  0  0  0  0  0
   10.8289   -0.2425    0.0000 O   0  0  0  0  0  0  0  0  0  0  0  0
    2.4608    0.6553    0.0000 O   0  0  0  0  0  0  0  0  0  0  0  0
    2.7881    3.2807    0.0000 O   0  0  0  0  0  0  0  0  0  0  0  0
    6.2650   -1.5808    0.0000 C   0  0  3  0  0  0  0  0  0  0  0  0
    6.2650   -0.5808    0.0000 C   0  0  3  0  0  0  0  0  0  0  0  0
    6.8528   -2.3898    0.0000 C   0  0  3  0  0  0  0  0  0  0  0  0
    6.8528    0.2282    0.0000 C   0  0  0  0  0  0  0  0  0  0  0  0
    5.3204   -1.8904    0.0000 C   0  0  0  0  0  0  0  0  0  0  0  0
    7.8038   -2.6988    0.0000 C   0  0  0  0  0  0  0  0  0  0  0  0
    7.8038    0.5372    0.0000 C   0  0  0  0  0  0  0  0  0  0  0  0
    8.7549   -2.3898    0.0000 C   0  0  0  0  0  0  0  0  0  0  0  0
    5.3212   -2.8845    0.0000 C   0  0  0  0  0  0  0  0  0  0  0  0
    9.3427   -1.5808    0.0000 C   0  0  3  0  0  0  0  0  0  0  0  0
    9.3427   -0.5808    0.0000 C   0  0  0  0  0  0  0  0  0  0  0  0
    8.7549    0.2282    0.0000 C   0  0  0  0  0  0  0  0  0  0  0  0
    4.5103   -1.3040    0.0000 C   0  0  0  0  0  0  0  0  0  0  0  0
    7.8038    1.5372    0.0000 C   0  0  0  0  0  0  0  0  0  0  0  0
    9.3427   -3.1988    0.0000 C   0  0  0  0  0  0  0  0  0  0  0  0
    5.1060    0.7064    0.0000 C   0  0  0  0  0  0  0  0  0  0  0  0
    4.1550    1.0154    0.0000 C   0  0  0  0  0  0  0  0  0  0  0  0
   11.0369   -1.2207    0.0000 C   0  0  0  0  0  0  0  0  0  0  0  0
    3.4118    0.3463    0.0000 C   0  0  0  0  0  0  0  0  0  0  0  0
    3.9470    1.9935    0.0000 C   0  0  0  0  0  0  0  0  0  0  0  0
   11.9879   -1.5297    0.0000 C   0  0  0  0  0  0  0  0  0  0  0  0
    2.9960    2.3026    0.0000 C   0  0  0  0  0  0  0  0  0  0  0  0
    5.7629   -1.2170    0.0000 H   0  0  0  0  0  0  0  0  0  0  0  0
    6.0734    0.0089    0.0000 H   0  0  0  0  0  0  0  0  0  0  0  0
    7.0436   -2.9797    0.0000 H   0  0  0  0  0  0  0  0  0  0  0  0
    6.8528    0.8482    0.0000 H   0  0  0  0  0  0  0  0  0  0  0  0
    7.2172   -0.2734    0.0000 H   0  0  0  0  0  0  0  0  0  0  0  0
    7.8038   -3.3188    0.0000 H   0  0  0  0  0  0  0  0  0  0  0  0
    9.8442   -1.2164    0.0000 H   0  0  0  0  0  0  0  0  0  0  0  0
    9.9323   -0.7724    0.0000 H   0  0  0  0  0  0  0  0  0  0  0  0
    8.7530   -0.7724    0.0000 H   0  0  0  0  0  0  0  0  0  0  0  0
    9.1193    0.7298    0.0000 H   0  0  0  0  0  0  0  0  0  0  0  0
    4.5741   -0.6873    0.0000 H   0  0  0  0  0  0  0  0  0  0  0  0
    3.9444   -1.5572    0.0000 H   0  0  0  0  0  0  0  0  0  0  0  0
    8.4238    1.5372    0.0000 H   0  0  0  0  0  0  0  0  0  0  0  0
    7.8038    2.1572    0.0000 H   0  0  0  0  0  0  0  0  0  0  0  0
    7.1838    1.5372    0.0000 H   0  0  0  0  0  0  0  0  0  0  0  0
    8.8411   -3.5632    0.0000 H   0  0  0  0  0  0  0  0  0  0  0  0
    9.7071   -3.7004    0.0000 H   0  0  0  0  0  0  0  0  0  0  0  0
    9.8442   -2.8344    0.0000 H   0  0  0  0  0  0  0  0  0  0  0  0
    3.1207   -0.2012    0.0000 H   0  0  0  0  0  0  0  0  0  0  0  0
    3.9004   -0.0354    0.0000 H   0  0  0  0  0  0  0  0  0  0  0  0
    4.4078    2.4084    0.0000 H   0  0  0  0  0  0  0  0  0  0  0  0
   11.7963   -2.1194    0.0000 H   0  0  0  0  0  0  0  0  0  0  0  0
   12.5776   -1.7213    0.0000 H   0  0  0  0  0  0  0  0  0  0  0  0
   12.1795   -0.9400    0.0000 H   0  0  0  0  0  0  0  0  0  0  0  0
    2.3764    2.2809    0.0000 H   0  0  0  0  0  0  0  0  0  0  0  0
    2.9097    1.6886    0.0000 H   0  0  0  0  0  0  0  0  0  0  0  0
    2.0000    0.2404    0.0000 H   0  0  0  0  0  0  0  0  0  0  0  0
    2.1984    3.4723    0.0000 H   0  0  0  0  0  0  0  0  0  0  0  0
  1 11  1  0  0  0  0
  1 17  1  0  0  0  0
  2 10  1  0  0  0  0
  2 24  1  0  0  0  0
  3 18  1  0  0  0  0
  3 26  1  0  0  0  0
  4 17  2  0  0  0  0
  5 24  2  0  0  0  0
  6 26  2  0  0  0  0
  7 27  1  0  0  0  0
  7 57  1  0  0  0  0
  8 30  1  0  0  0  0
  8 58  1  0  0  0  0
  9 10  1  0  0  0  0
  9 11  1  0  0  0  0
  9 13  1  0  0  0  0
  9 31  1  0  0  0  0
 10 12  1  0  0  0  0
 10 32  1  0  0  0  0
 11 14  1  0  0  0  0
 11 33  1  0  0  0  0
 12 15  1  0  0  0  0
 12 34  1  0  0  0  0
 12 35  1  0  0  0  0
 13 17  1  0  0  0  0
 13 21  2  0  0  0  0
 14 16  2  0  0  0  0
 14 36  1  0  0  0  0
 15 20  2  0  0  0  0
 15 22  1  0  0  0  0
 16 18  1  0  0  0  0
 16 23  1  0  0  0  0
 18 19  1  0  0  0  0
 18 37  1  0  0  0  0
 19 20  1  0  0  0  0
 19 38  1  0  0  0  0
 19 39  1  0  0  0  0
 20 40  1  0  0  0  0
 21 41  1  0  0  0  0
 21 42  1  0  0  0  0
 22 43  1  0  0  0  0
 22 44  1  0  0  0  0
 22 45  1  0  0  0  0
 23 46  1  0  0  0  0
 23 47  1  0  0  0  0
 23 48  1  0  0  0  0
 24 25  1  0  0  0  0
 25 27  1  0  0  0  0
 25 28  2  0  0  0  0
 26 29  1  0  0  0  0
 27 49  1  0  0  0  0
 27 50  1  0  0  0  0
 28 30  1  0  0  0  0
 28 51  1  0  0  0  0
 29 52  1  0  0  0  0
 29 53  1  0  0  0  0
 29 54  1  0  0  0  0
 30 55  1  0  0  0  0
 30 56  1  0  0  0  0
M  END
>  <PUBCHEM_COMPOUND_CID>
6436818

>  <PUBCHEM_COMPOUND_CANONICALIZED>
1

>  <PUBCHEM_CACTVS_COMPLEXITY>
804

>  <PUBCHEM_CACTVS_HBOND_ACCEPTOR>
8

>  <PUBCHEM_CACTVS_HBOND_DONOR>
2

>  <PUBCHEM_CACTVS_ROTATABLE_BOND>
7

>  <PUBCHEM_CACTVS_SUBSKEYS>
AAADceB4PAAAAAAAAAAAAAAAAAAAASAAAAAAAAAAAAAAAACAAAAAGgAACAAADRSggAICCAAABgCIAiDSCAAAAAAgAAAACAEAAEgAFBYAIQACUAAF4AAIMYPKyCCOAAAAAAAAAAAAAAAAAAAAAAAAAAAAAA==

>  <PUBCHEM_IUPAC_OPENEYE_NAME>
[(6Z,10Z)-9-acetoxy-6,10-dimethyl-3-methylene-2-oxo-3a,4,5,8,9,11a-hexahydrocyclodeca[b]furan-4-yl] (E)-4-hydroxy-2-(hydroxymethyl)but-2-enoate

>  <PUBCHEM_IUPAC_CAS_NAME>
(E)-4-hydroxy-2-(hydroxymethyl)-2-butenoic acid [(6Z,10Z)-9-acetyloxy-6,10-dimethyl-3-methylene-2-oxo-3a,4,5,8,9,11a-hexahydrocyclodeca[b]furan-4-yl] ester

>  <PUBCHEM_IUPAC_NAME>
[(6Z,10Z)-9-acetyloxy-6,10-dimethyl-3-methylidene-2-oxo-3a,4,5,8,9,11a-hexahydrocyclodeca[b]furan-4-yl] (E)-4-hydroxy-2-(hydroxymethyl)but-2-enoate

>  <PUBCHEM_IUPAC_SYSTEMATIC_NAME>
[(6Z,10Z)-9-acetyloxy-6,10-dimethyl-3-methylidene-2-oxidanylidene-3a,4,5,8,9,11a-hexahydrocyclodeca[b]furan-4-yl] (E)-2-(hydroxymethyl)-4-oxidanyl-but-2-enoate

>  <PUBCHEM_IUPAC_TRADITIONAL_NAME>
(E)-4-hydroxy-2-methylol-but-2-enoic acid [(6Z,10Z)-9-acetoxy-2-keto-6,10-dimethyl-3-methylene-3a,4,5,8,9,11a-hexahydrocyclodeca[b]furan-4-yl] ester

>  <PUBCHEM_IUPAC_INCHI>
InChI=1S/C22H28O8/c1-12-5-6-17(28-15(4)25)13(2)10-19-20(14(3)21(26)29-19)18(9-12)30-22(27)16(11-24)7-8-23/h5,7,10,17-20,23-24H,3,6,8-9,11H2,1-2,4H3/b12-5-,13-10-,16-7+

>  <PUBCHEM_IUPAC_INCHIKEY>
XYPJAWWDSQFSQA-CTCACOSFSA-N

>  <PUBCHEM_XLOGP3_AA>
0.6

>  <PUBCHEM_EXACT_MASS>
420.178

>  <PUBCHEM_MOLECULAR_FORMULA>
C22H28O8

>  <PUBCHEM_MOLECULAR_WEIGHT>
420.458

>  <PUBCHEM_OPENEYE_CAN_SMILES>
CC1=CCC(C(=CC2C(C(C1)OC(=O)C(=CCO)CO)C(=C)C(=O)O2)C)OC(=O)C

>  <PUBCHEM_OPENEYE_ISO_SMILES>
C/C/1=C/CC(/C(=C\C2C(C(C1)OC(=O)/C(=C/CO)/CO)C(=C)C(=O)O2)/C)OC(=O)C

>  <PUBCHEM_CACTVS_TPSA>
119

>  <PUBCHEM_MONOISOTOPIC_WEIGHT>
420.178

>  <PUBCHEM_TOTAL_CHARGE>
0

>  <PUBCHEM_HEAVY_ATOM_COUNT>
30

>  <PUBCHEM_ATOM_DEF_STEREO_COUNT>
0

>  <PUBCHEM_ATOM_UDEF_STEREO_COUNT>
4

>  <PUBCHEM_BOND_DEF_STEREO_COUNT>
3

>  <PUBCHEM_BOND_UDEF_STEREO_COUNT>
0

>  <PUBCHEM_ISOTOPIC_ATOM_COUNT>
0

>  <PUBCHEM_COMPONENT_COUNT>
1

>  <PUBCHEM_CACTVS_TAUTO_COUNT>
1

>  <PUBCHEM_COORDINATE_TYPE>
1
5
255

>  <PUBCHEM_BONDANNOTATIONS>
11  14  3
10  2  3
18  3  3
9  13  3

$$$$
