6439771
 OpenBabel06101807152D

 34 34  0  0  0  0  0  0  0  0999 V2000
    6.3301   -2.5950    0.0000 O   0  0  0  0  0  0  0  0  0  0  0  0
    2.8660   -2.5950    0.0000 O   0  0  0  0  0  0  0  0  0  0  0  0
    4.5981   -3.5950    0.0000 O   0  0  0  0  0  0  0  0  0  0  0  0
    6.3301    2.4050    0.0000 O   0  0  0  0  0  0  0  0  0  0  0  0
    4.5981    2.4050    0.0000 O   0  0  0  0  0  0  0  0  0  0  0  0
    4.5981   -0.5950    0.0000 C   0  0  0  0  0  0  0  0  0  0  0  0
    5.4641   -2.0950    0.0000 C   0  0  0  0  0  0  0  0  0  0  0  0
    3.7320   -2.0950    0.0000 C   0  0  0  0  0  0  0  0  0  0  0  0
    3.7320   -1.0950    0.0000 C   0  0  0  0  0  0  0  0  0  0  0  0
    5.4641   -1.0950    0.0000 C   0  0  0  0  0  0  0  0  0  0  0  0
    4.5981   -2.5950    0.0000 C   0  0  0  0  0  0  0  0  0  0  0  0
    4.5981    0.4050    0.0000 C   0  0  0  0  0  0  0  0  0  0  0  0
    5.4641    0.9050    0.0000 C   0  0  0  0  0  0  0  0  0  0  0  0
    5.4641    1.9050    0.0000 C   0  0  0  0  0  0  0  0  0  0  0  0
    6.3301    3.4050    0.0000 C   0  0  0  0  0  0  0  0  0  0  0  0
    7.1962   -2.0950    0.0000 C   0  0  0  0  0  0  0  0  0  0  0  0
    2.0000   -2.0950    0.0000 C   0  0  0  0  0  0  0  0  0  0  0  0
    7.1962    3.9050    0.0000 C   0  0  0  0  0  0  0  0  0  0  0  0
    3.1951   -0.7850    0.0000 H   0  0  0  0  0  0  0  0  0  0  0  0
    6.0010   -0.7850    0.0000 H   0  0  0  0  0  0  0  0  0  0  0  0
    4.0611    0.7150    0.0000 H   0  0  0  0  0  0  0  0  0  0  0  0
    6.0010    0.5950    0.0000 H   0  0  0  0  0  0  0  0  0  0  0  0
    6.1181    3.9876    0.0000 H   0  0  0  0  0  0  0  0  0  0  0  0
    5.7196    3.2973    0.0000 H   0  0  0  0  0  0  0  0  0  0  0  0
    4.0611   -3.9050    0.0000 H   0  0  0  0  0  0  0  0  0  0  0  0
    7.5062   -2.6319    0.0000 H   0  0  0  0  0  0  0  0  0  0  0  0
    7.7331   -1.7850    0.0000 H   0  0  0  0  0  0  0  0  0  0  0  0
    6.8862   -1.5581    0.0000 H   0  0  0  0  0  0  0  0  0  0  0  0
    2.3100   -1.5581    0.0000 H   0  0  0  0  0  0  0  0  0  0  0  0
    1.4631   -1.7850    0.0000 H   0  0  0  0  0  0  0  0  0  0  0  0
    1.6900   -2.6319    0.0000 H   0  0  0  0  0  0  0  0  0  0  0  0
    7.5062    3.3681    0.0000 H   0  0  0  0  0  0  0  0  0  0  0  0
    7.7331    4.2150    0.0000 H   0  0  0  0  0  0  0  0  0  0  0  0
    6.8862    4.4419    0.0000 H   0  0  0  0  0  0  0  0  0  0  0  0
  1  7  1  0  0  0  0
  1 16  1  0  0  0  0
  2  8  1  0  0  0  0
  2 17  1  0  0  0  0
  3 11  1  0  0  0  0
  3 25  1  0  0  0  0
  4 14  1  0  0  0  0
  4 15  1  0  0  0  0
  5 14  2  0  0  0  0
  6  9  2  0  0  0  0
  6 10  1  0  0  0  0
  6 12  1  0  0  0  0
  7 10  2  0  0  0  0
  7 11  1  0  0  0  0
  8  9  1  0  0  0  0
  8 11  2  0  0  0  0
  9 19  1  0  0  0  0
 10 20  1  0  0  0  0
 12 13  2  0  0  0  0
 12 21  1  0  0  0  0
 13 14  1  0  0  0  0
 13 22  1  0  0  0  0
 15 18  1  0  0  0  0
 15 23  1  0  0  0  0
 15 24  1  0  0  0  0
 16 26  1  0  0  0  0
 16 27  1  0  0  0  0
 16 28  1  0  0  0  0
 17 29  1  0  0  0  0
 17 30  1  0  0  0  0
 17 31  1  0  0  0  0
 18 32  1  0  0  0  0
 18 33  1  0  0  0  0
 18 34  1  0  0  0  0
M  END
>  <PUBCHEM_COMPOUND_CID>
6439771

>  <PUBCHEM_COMPOUND_CANONICALIZED>
1

>  <PUBCHEM_CACTVS_COMPLEXITY>
275

>  <PUBCHEM_CACTVS_HBOND_ACCEPTOR>
5

>  <PUBCHEM_CACTVS_HBOND_DONOR>
1

>  <PUBCHEM_CACTVS_ROTATABLE_BOND>
6

>  <PUBCHEM_CACTVS_SUBSKEYS>
AAADceBwOAAAAAAAAAAAAAAAAAAAAAAAAAAwAAAAAAAAAAABAAAAGgAACAAADASgmAIyDoAABgCIAiDSCAACCAAgIAAIiAAGiMgNJyKGMRqCcCMlwBULuYeA4BwOIAABCAAAQABAAAIQAACAAAAAAAAAAA==

>  <PUBCHEM_IUPAC_OPENEYE_NAME>
ethyl (E)-3-(4-hydroxy-3,5-dimethoxy-phenyl)prop-2-enoate

>  <PUBCHEM_IUPAC_CAS_NAME>
(E)-3-(4-hydroxy-3,5-dimethoxyphenyl)-2-propenoic acid ethyl ester

>  <PUBCHEM_IUPAC_NAME>
ethyl (E)-3-(4-hydroxy-3,5-dimethoxyphenyl)prop-2-enoate

>  <PUBCHEM_IUPAC_SYSTEMATIC_NAME>
ethyl (E)-3-(3,5-dimethoxy-4-oxidanyl-phenyl)prop-2-enoate

>  <PUBCHEM_IUPAC_TRADITIONAL_NAME>
(E)-3-(4-hydroxy-3,5-dimethoxy-phenyl)acrylic acid ethyl ester

>  <PUBCHEM_IUPAC_INCHI>
InChI=1S/C13H16O5/c1-4-18-12(14)6-5-9-7-10(16-2)13(15)11(8-9)17-3/h5-8,15H,4H2,1-3H3/b6-5+

>  <PUBCHEM_IUPAC_INCHIKEY>
DMQNLOWHFHPWEA-AATRIKPKSA-N

>  <PUBCHEM_XLOGP3_AA>
2.2

>  <PUBCHEM_EXACT_MASS>
252.1

>  <PUBCHEM_MOLECULAR_FORMULA>
C13H16O5

>  <PUBCHEM_MOLECULAR_WEIGHT>
252.266

>  <PUBCHEM_OPENEYE_CAN_SMILES>
CCOC(=O)C=CC1=CC(=C(C(=C1)OC)O)OC

>  <PUBCHEM_OPENEYE_ISO_SMILES>
CCOC(=O)/C=C/C1=CC(=C(C(=C1)OC)O)OC

>  <PUBCHEM_CACTVS_TPSA>
65

>  <PUBCHEM_MONOISOTOPIC_WEIGHT>
252.1

>  <PUBCHEM_TOTAL_CHARGE>
0

>  <PUBCHEM_HEAVY_ATOM_COUNT>
18

>  <PUBCHEM_ATOM_DEF_STEREO_COUNT>
0

>  <PUBCHEM_ATOM_UDEF_STEREO_COUNT>
0

>  <PUBCHEM_BOND_DEF_STEREO_COUNT>
1

>  <PUBCHEM_BOND_UDEF_STEREO_COUNT>
0

>  <PUBCHEM_ISOTOPIC_ATOM_COUNT>
0

>  <PUBCHEM_COMPONENT_COUNT>
1

>  <PUBCHEM_CACTVS_TAUTO_COUNT>
3

>  <PUBCHEM_COORDINATE_TYPE>
1
5
255

>  <PUBCHEM_BONDANNOTATIONS>
6  10  8
6  9  8
7  10  8
7  11  8
8  11  8
8  9  8

$$$$
