6440462
 OpenBabel06101807152D

 54 55  0  0  0  0  0  0  0  0999 V2000
    2.5369    0.2500    0.0000 O   0  0  0  0  0  0  0  0  0  0  0  0
    6.0010    0.2500    0.0000 O   0  0  0  0  0  0  0  0  0  0  0  0
    6.0010    3.2500    0.0000 C   0  0  0  0  0  0  0  0  0  0  0  0
    5.1350    2.7500    0.0000 C   0  0  0  0  0  0  0  0  0  0  0  0
    4.2690    1.2500    0.0000 C   0  0  0  0  0  0  0  0  0  0  0  0
    6.0010    4.2500    0.0000 C   0  0  0  0  0  0  0  0  0  0  0  0
    4.2690    0.2500    0.0000 C   0  0  0  0  0  0  0  0  0  0  0  0
    5.1350    1.7500    0.0000 C   0  0  0  0  0  0  0  0  0  0  0  0
    3.4030   -0.2500    0.0000 C   0  0  0  0  0  0  0  0  0  0  0  0
    5.1350   -0.2500    0.0000 C   0  0  0  0  0  0  0  0  0  0  0  0
    4.2690    3.2500    0.0000 C   0  0  0  0  0  0  0  0  0  0  0  0
    6.8671    4.7500    0.0000 C   0  0  0  0  0  0  0  0  0  0  0  0
    4.2690   -1.7500    0.0000 C   0  0  0  0  0  0  0  0  0  0  0  0
    3.4030   -1.2500    0.0000 C   0  0  0  0  0  0  0  0  0  0  0  0
    5.1350   -1.2500    0.0000 C   0  0  0  0  0  0  0  0  0  0  0  0
    6.8671    5.7500    0.0000 C   0  0  0  0  0  0  0  0  0  0  0  0
    4.2690   -2.7500    0.0000 C   0  0  0  0  0  0  0  0  0  0  0  0
    7.7331    6.2500    0.0000 C   0  0  0  0  0  0  0  0  0  0  0  0
    6.0010    6.2500    0.0000 C   0  0  0  0  0  0  0  0  0  0  0  0
    3.4030   -3.2500    0.0000 C   0  0  0  0  0  0  0  0  0  0  0  0
    3.4030   -4.2500    0.0000 C   0  0  0  0  0  0  0  0  0  0  0  0
    2.5369   -4.7500    0.0000 C   0  0  0  0  0  0  0  0  0  0  0  0
    4.2690   -4.7500    0.0000 C   0  0  0  0  0  0  0  0  0  0  0  0
    2.5369   -5.7500    0.0000 C   0  0  0  0  0  0  0  0  0  0  0  0
    4.2690   -5.7500    0.0000 C   0  0  0  0  0  0  0  0  0  0  0  0
    3.4030   -6.2500    0.0000 C   0  0  0  0  0  0  0  0  0  0  0  0
    6.2131    2.6674    0.0000 H   0  0  0  0  0  0  0  0  0  0  0  0
    6.6116    3.3577    0.0000 H   0  0  0  0  0  0  0  0  0  0  0  0
    4.0569    1.8326    0.0000 H   0  0  0  0  0  0  0  0  0  0  0  0
    3.6584    1.1423    0.0000 H   0  0  0  0  0  0  0  0  0  0  0  0
    5.7890    4.8326    0.0000 H   0  0  0  0  0  0  0  0  0  0  0  0
    5.3905    4.1423    0.0000 H   0  0  0  0  0  0  0  0  0  0  0  0
    5.6720    1.4400    0.0000 H   0  0  0  0  0  0  0  0  0  0  0  0
    4.5790    3.7869    0.0000 H   0  0  0  0  0  0  0  0  0  0  0  0
    3.7320    3.5600    0.0000 H   0  0  0  0  0  0  0  0  0  0  0  0
    3.9590    2.7131    0.0000 H   0  0  0  0  0  0  0  0  0  0  0  0
    7.4040    4.4400    0.0000 H   0  0  0  0  0  0  0  0  0  0  0  0
    2.8660   -1.5600    0.0000 H   0  0  0  0  0  0  0  0  0  0  0  0
    5.6720   -1.5600    0.0000 H   0  0  0  0  0  0  0  0  0  0  0  0
    4.8059   -3.0600    0.0000 H   0  0  0  0  0  0  0  0  0  0  0  0
    8.0431    5.7131    0.0000 H   0  0  0  0  0  0  0  0  0  0  0  0
    8.2700    6.5600    0.0000 H   0  0  0  0  0  0  0  0  0  0  0  0
    7.4231    6.7869    0.0000 H   0  0  0  0  0  0  0  0  0  0  0  0
    6.3110    6.7869    0.0000 H   0  0  0  0  0  0  0  0  0  0  0  0
    5.4641    6.5600    0.0000 H   0  0  0  0  0  0  0  0  0  0  0  0
    5.6910    5.7131    0.0000 H   0  0  0  0  0  0  0  0  0  0  0  0
    2.8660   -2.9400    0.0000 H   0  0  0  0  0  0  0  0  0  0  0  0
    2.0000   -0.0600    0.0000 H   0  0  0  0  0  0  0  0  0  0  0  0
    6.5380   -0.0600    0.0000 H   0  0  0  0  0  0  0  0  0  0  0  0
    2.0000   -4.4400    0.0000 H   0  0  0  0  0  0  0  0  0  0  0  0
    4.8059   -4.4400    0.0000 H   0  0  0  0  0  0  0  0  0  0  0  0
    2.0000   -6.0600    0.0000 H   0  0  0  0  0  0  0  0  0  0  0  0
    4.8059   -6.0600    0.0000 H   0  0  0  0  0  0  0  0  0  0  0  0
    3.4030   -6.8700    0.0000 H   0  0  0  0  0  0  0  0  0  0  0  0
  1  9  1  0  0  0  0
  1 48  1  0  0  0  0
  2 10  1  0  0  0  0
  2 49  1  0  0  0  0
  3  4  1  0  0  0  0
  3  6  1  0  0  0  0
  3 27  1  0  0  0  0
  3 28  1  0  0  0  0
  4  8  2  0  0  0  0
  4 11  1  0  0  0  0
  5  7  1  0  0  0  0
  5  8  1  0  0  0  0
  5 29  1  0  0  0  0
  5 30  1  0  0  0  0
  6 12  1  0  0  0  0
  6 31  1  0  0  0  0
  6 32  1  0  0  0  0
  7  9  2  0  0  0  0
  7 10  1  0  0  0  0
  8 33  1  0  0  0  0
  9 14  1  0  0  0  0
 10 15  2  0  0  0  0
 11 34  1  0  0  0  0
 11 35  1  0  0  0  0
 11 36  1  0  0  0  0
 12 16  2  0  0  0  0
 12 37  1  0  0  0  0
 13 14  2  0  0  0  0
 13 15  1  0  0  0  0
 13 17  1  0  0  0  0
 14 38  1  0  0  0  0
 15 39  1  0  0  0  0
 16 18  1  0  0  0  0
 16 19  1  0  0  0  0
 17 20  2  0  0  0  0
 17 40  1  0  0  0  0
 18 41  1  0  0  0  0
 18 42  1  0  0  0  0
 18 43  1  0  0  0  0
 19 44  1  0  0  0  0
 19 45  1  0  0  0  0
 19 46  1  0  0  0  0
 20 21  1  0  0  0  0
 20 47  1  0  0  0  0
 21 22  2  0  0  0  0
 21 23  1  0  0  0  0
 22 24  1  0  0  0  0
 22 50  1  0  0  0  0
 23 25  2  0  0  0  0
 23 51  1  0  0  0  0
 24 26  2  0  0  0  0
 24 52  1  0  0  0  0
 25 26  1  0  0  0  0
 25 53  1  0  0  0  0
 26 54  1  0  0  0  0
M  END
>  <PUBCHEM_COMPOUND_CID>
6440462

>  <PUBCHEM_COMPOUND_CANONICALIZED>
1

>  <PUBCHEM_CACTVS_COMPLEXITY>
480

>  <PUBCHEM_CACTVS_HBOND_ACCEPTOR>
2

>  <PUBCHEM_CACTVS_HBOND_DONOR>
2

>  <PUBCHEM_CACTVS_ROTATABLE_BOND>
7

>  <PUBCHEM_CACTVS_SUBSKEYS>
AAADceB4MAAAAAAAAAAAAAAAAAAAAAAAAAAwYAAAAAAAAAABQAAAGgAACAAADASAmAAyBoAAAgCAAiBCAAACAAAgIAAIiAAGCIgIJyKCERKAcAAlwBUImAeA4PQOQAABCAAIAACAAAIQABAAAAAAAAAAAA==

>  <PUBCHEM_IUPAC_OPENEYE_NAME>
2-[(2E)-3,7-dimethylocta-2,6-dienyl]-5-[(E)-styryl]benzene-1,3-diol

>  <PUBCHEM_IUPAC_CAS_NAME>
2-[(2E)-3,7-dimethylocta-2,6-dienyl]-5-[(E)-2-phenylethenyl]benzene-1,3-diol

>  <PUBCHEM_IUPAC_NAME>
2-[(2E)-3,7-dimethylocta-2,6-dienyl]-5-[(E)-2-phenylethenyl]benzene-1,3-diol

>  <PUBCHEM_IUPAC_SYSTEMATIC_NAME>
2-[(2E)-3,7-dimethylocta-2,6-dienyl]-5-[(E)-2-phenylethenyl]benzene-1,3-diol

>  <PUBCHEM_IUPAC_TRADITIONAL_NAME>
2-[(2E)-3,7-dimethylocta-2,6-dienyl]-5-[(E)-styryl]resorcinol

>  <PUBCHEM_IUPAC_INCHI>
InChI=1S/C24H28O2/c1-18(2)8-7-9-19(3)12-15-22-23(25)16-21(17-24(22)26)14-13-20-10-5-4-6-11-20/h4-6,8,10-14,16-17,25-26H,7,9,15H2,1-3H3/b14-13+,19-12+

>  <PUBCHEM_IUPAC_INCHIKEY>
YPGQBVBJFQCVKA-ORSZPIRQSA-N

>  <PUBCHEM_XLOGP3_AA>
7.3

>  <PUBCHEM_EXACT_MASS>
348.209

>  <PUBCHEM_MOLECULAR_FORMULA>
C24H28O2

>  <PUBCHEM_MOLECULAR_WEIGHT>
348.486

>  <PUBCHEM_OPENEYE_CAN_SMILES>
CC(=CCCC(=CCC1=C(C=C(C=C1O)C=CC2=CC=CC=C2)O)C)C

>  <PUBCHEM_OPENEYE_ISO_SMILES>
CC(=CCC/C(=C/CC1=C(C=C(C=C1O)/C=C/C2=CC=CC=C2)O)/C)C

>  <PUBCHEM_CACTVS_TPSA>
40.5

>  <PUBCHEM_MONOISOTOPIC_WEIGHT>
348.209

>  <PUBCHEM_TOTAL_CHARGE>
0

>  <PUBCHEM_HEAVY_ATOM_COUNT>
26

>  <PUBCHEM_ATOM_DEF_STEREO_COUNT>
0

>  <PUBCHEM_ATOM_UDEF_STEREO_COUNT>
0

>  <PUBCHEM_BOND_DEF_STEREO_COUNT>
2

>  <PUBCHEM_BOND_UDEF_STEREO_COUNT>
0

>  <PUBCHEM_ISOTOPIC_ATOM_COUNT>
0

>  <PUBCHEM_COMPONENT_COUNT>
1

>  <PUBCHEM_CACTVS_TAUTO_COUNT>
5

>  <PUBCHEM_COORDINATE_TYPE>
1
5
255

>  <PUBCHEM_BONDANNOTATIONS>
10  15  8
13  14  8
13  15  8
21  22  8
21  23  8
22  24  8
23  25  8
24  26  8
25  26  8
7  10  8
7  9  8
9  14  8

$$$$
