6440527
 OpenBabel06101807152D

 39 39  0  0  1  0  0  0  0  0999 V2000
    5.1350    0.4400    0.0000 C   0  0  1  0  0  0  0  0  0  0  0  0
    4.2690   -0.0600    0.0000 C   0  0  0  0  0  0  0  0  0  0  0  0
    5.1350    1.4400    0.0000 C   0  0  0  0  0  0  0  0  0  0  0  0
    4.2690   -1.0600    0.0000 C   0  0  0  0  0  0  0  0  0  0  0  0
    6.0010   -0.0600    0.0000 C   0  0  0  0  0  0  0  0  0  0  0  0
    3.4030   -1.5600    0.0000 C   0  0  0  0  0  0  0  0  0  0  0  0
    4.2690    1.9400    0.0000 C   0  0  0  0  0  0  0  0  0  0  0  0
    3.4030    0.4400    0.0000 C   0  0  0  0  0  0  0  0  0  0  0  0
    3.4030    1.4400    0.0000 C   0  0  0  0  0  0  0  0  0  0  0  0
    2.5369   -0.0600    0.0000 C   0  0  0  0  0  0  0  0  0  0  0  0
    2.5369   -1.0600    0.0000 C   0  0  0  0  0  0  0  0  0  0  0  0
    6.8671    0.4400    0.0000 C   0  0  0  0  0  0  0  0  0  0  0  0
    3.4030   -2.5600    0.0000 C   0  0  0  0  0  0  0  0  0  0  0  0
    2.5369    1.9400    0.0000 C   0  0  0  0  0  0  0  0  0  0  0  0
    6.0010   -1.0600    0.0000 C   0  0  0  0  0  0  0  0  0  0  0  0
    5.1350   -0.1800    0.0000 H   0  0  0  0  0  0  0  0  0  0  0  0
    4.0569    0.5226    0.0000 H   0  0  0  0  0  0  0  0  0  0  0  0
    3.6584   -0.1677    0.0000 H   0  0  0  0  0  0  0  0  0  0  0  0
    5.7456    1.3323    0.0000 H   0  0  0  0  0  0  0  0  0  0  0  0
    5.3471    2.0226    0.0000 H   0  0  0  0  0  0  0  0  0  0  0  0
    4.4810   -1.6426    0.0000 H   0  0  0  0  0  0  0  0  0  0  0  0
    4.8796   -0.9523    0.0000 H   0  0  0  0  0  0  0  0  0  0  0  0
    4.2690    2.5600    0.0000 H   0  0  0  0  0  0  0  0  0  0  0  0
    3.6150   -0.1426    0.0000 H   0  0  0  0  0  0  0  0  0  0  0  0
    4.0135    0.5477    0.0000 H   0  0  0  0  0  0  0  0  0  0  0  0
    2.3249    0.5226    0.0000 H   0  0  0  0  0  0  0  0  0  0  0  0
    1.9264   -0.1677    0.0000 H   0  0  0  0  0  0  0  0  0  0  0  0
    2.0000   -1.3700    0.0000 H   0  0  0  0  0  0  0  0  0  0  0  0
    7.1771   -0.0969    0.0000 H   0  0  0  0  0  0  0  0  0  0  0  0
    7.4040    0.7500    0.0000 H   0  0  0  0  0  0  0  0  0  0  0  0
    6.5571    0.9769    0.0000 H   0  0  0  0  0  0  0  0  0  0  0  0
    2.7830   -2.5600    0.0000 H   0  0  0  0  0  0  0  0  0  0  0  0
    3.4030   -3.1800    0.0000 H   0  0  0  0  0  0  0  0  0  0  0  0
    4.0230   -2.5600    0.0000 H   0  0  0  0  0  0  0  0  0  0  0  0
    2.8469    2.4769    0.0000 H   0  0  0  0  0  0  0  0  0  0  0  0
    2.0000    2.2500    0.0000 H   0  0  0  0  0  0  0  0  0  0  0  0
    2.2269    1.4031    0.0000 H   0  0  0  0  0  0  0  0  0  0  0  0
    5.4641   -1.3700    0.0000 H   0  0  0  0  0  0  0  0  0  0  0  0
    6.5380   -1.3700    0.0000 H   0  0  0  0  0  0  0  0  0  0  0  0
  1  2  1  0  0  0  0
  1  3  1  0  0  0  0
  1  5  1  0  0  0  0
  1 16  1  6  0  0  0
  2  4  1  0  0  0  0
  2 17  1  0  0  0  0
  2 18  1  0  0  0  0
  3  7  1  0  0  0  0
  3 19  1  0  0  0  0
  3 20  1  0  0  0  0
  4  6  1  0  0  0  0
  4 21  1  0  0  0  0
  4 22  1  0  0  0  0
  5 12  1  0  0  0  0
  5 15  2  0  0  0  0
  6 11  2  0  0  0  0
  6 13  1  0  0  0  0
  7  9  2  0  0  0  0
  7 23  1  0  0  0  0
  8  9  1  0  0  0  0
  8 10  1  0  0  0  0
  8 24  1  0  0  0  0
  8 25  1  0  0  0  0
  9 14  1  0  0  0  0
 10 11  1  0  0  0  0
 10 26  1  0  0  0  0
 10 27  1  0  0  0  0
 11 28  1  0  0  0  0
 12 29  1  0  0  0  0
 12 30  1  0  0  0  0
 12 31  1  0  0  0  0
 13 32  1  0  0  0  0
 13 33  1  0  0  0  0
 13 34  1  0  0  0  0
 14 35  1  0  0  0  0
 14 36  1  0  0  0  0
 14 37  1  0  0  0  0
 15 38  1  0  0  0  0
 15 39  1  0  0  0  0
M  END
>  <PUBCHEM_COMPOUND_CID>
6440527

>  <PUBCHEM_COMPOUND_CANONICALIZED>
1

>  <PUBCHEM_CACTVS_COMPLEXITY>
278

>  <PUBCHEM_CACTVS_HBOND_ACCEPTOR>
0

>  <PUBCHEM_CACTVS_HBOND_DONOR>
0

>  <PUBCHEM_CACTVS_ROTATABLE_BOND>
1

>  <PUBCHEM_CACTVS_SUBSKEYS>
AAADceBwAAAAAAAAAAAAAAAAAAAAAAAAAAAAAAAAAAAAAACAAAAAGAAAAAAADQCAAAACAAAAAACAAiBCAAAAAAAgAAAACAAAAAgAAAIAAQAAAAAAgAAIAAMAgAAOAAAAAAAAAAAAAAAAAAAAAAAAAAAAAA==

>  <PUBCHEM_IUPAC_OPENEYE_NAME>
(1Z,5Z,8S)-8-isopropenyl-1,5-dimethyl-cyclodeca-1,5-diene

>  <PUBCHEM_IUPAC_CAS_NAME>
(1Z,5Z,8S)-1,5-dimethyl-8-(1-methylethenyl)cyclodeca-1,5-diene

>  <PUBCHEM_IUPAC_NAME>
(1Z,5Z,8S)-1,5-dimethyl-8-prop-1-en-2-ylcyclodeca-1,5-diene

>  <PUBCHEM_IUPAC_SYSTEMATIC_NAME>
(1Z,5Z,8S)-1,5-dimethyl-8-prop-1-en-2-yl-cyclodeca-1,5-diene

>  <PUBCHEM_IUPAC_TRADITIONAL_NAME>
(1Z,5Z,8S)-8-isopropenyl-1,5-dimethyl-cyclodeca-1,5-diene

>  <PUBCHEM_IUPAC_INCHI>
InChI=1S/C15H24/c1-12(2)15-10-8-13(3)6-5-7-14(4)9-11-15/h6,9,15H,1,5,7-8,10-11H2,2-4H3/b13-6-,14-9-/t15-/m0/s1

>  <PUBCHEM_IUPAC_INCHIKEY>
XMRKUJJDDKYUHV-ZCGSDFCLSA-N

>  <PUBCHEM_XLOGP3_AA>
4.7

>  <PUBCHEM_EXACT_MASS>
204.188

>  <PUBCHEM_MOLECULAR_FORMULA>
C15H24

>  <PUBCHEM_MOLECULAR_WEIGHT>
204.357

>  <PUBCHEM_OPENEYE_CAN_SMILES>
CC1=CCCC(=CCC(CC1)C(=C)C)C

>  <PUBCHEM_OPENEYE_ISO_SMILES>
C/C/1=C/CC/C(=C\C[C@H](CC1)C(=C)C)/C

>  <PUBCHEM_CACTVS_TPSA>
0

>  <PUBCHEM_MONOISOTOPIC_WEIGHT>
204.188

>  <PUBCHEM_TOTAL_CHARGE>
0

>  <PUBCHEM_HEAVY_ATOM_COUNT>
15

>  <PUBCHEM_ATOM_DEF_STEREO_COUNT>
1

>  <PUBCHEM_ATOM_UDEF_STEREO_COUNT>
0

>  <PUBCHEM_BOND_DEF_STEREO_COUNT>
2

>  <PUBCHEM_BOND_UDEF_STEREO_COUNT>
0

>  <PUBCHEM_ISOTOPIC_ATOM_COUNT>
0

>  <PUBCHEM_COMPONENT_COUNT>
1

>  <PUBCHEM_CACTVS_TAUTO_COUNT>
1

>  <PUBCHEM_COORDINATE_TYPE>
1
5
255

>  <PUBCHEM_BONDANNOTATIONS>
1  5  5

$$$$
