6440490
 OpenBabel06101807152D

100 99  0  0  0  0  0  0  0  0999 V2000
   20.1865   -4.2500    0.0000 C   0  0  0  0  0  0  0  0  0  0  0  0
    5.4641    4.2500    0.0000 C   0  0  0  0  0  0  0  0  0  0  0  0
   19.3205   -4.7500    0.0000 C   0  0  0  0  0  0  0  0  0  0  0  0
    6.3301    4.7500    0.0000 C   0  0  0  0  0  0  0  0  0  0  0  0
   17.5885   -4.7500    0.0000 C   0  0  0  0  0  0  0  0  0  0  0  0
    8.0622    4.7500    0.0000 C   0  0  0  0  0  0  0  0  0  0  0  0
   16.7224   -4.2500    0.0000 C   0  0  0  0  0  0  0  0  0  0  0  0
    8.9282    4.2500    0.0000 C   0  0  0  0  0  0  0  0  0  0  0  0
   21.0526   -4.7500    0.0000 C   0  0  0  0  0  0  0  0  0  0  0  0
    4.5981    4.7500    0.0000 C   0  0  0  0  0  0  0  0  0  0  0  0
   18.4545   -4.2500    0.0000 C   0  0  0  0  0  0  0  0  0  0  0  0
    7.1962    4.2500    0.0000 C   0  0  0  0  0  0  0  0  0  0  0  0
   15.8564   -4.7500    0.0000 C   0  0  0  0  0  0  0  0  0  0  0  0
    9.7942    4.7500    0.0000 C   0  0  0  0  0  0  0  0  0  0  0  0
   19.3205   -5.7500    0.0000 C   0  0  0  0  0  0  0  0  0  0  0  0
    6.3301    5.7500    0.0000 C   0  0  0  0  0  0  0  0  0  0  0  0
   21.9186   -4.2500    0.0000 C   0  0  0  0  0  0  0  0  0  0  0  0
    3.7320    4.2500    0.0000 C   0  0  0  0  0  0  0  0  0  0  0  0
   22.7846   -4.7500    0.0000 C   0  0  0  0  0  0  0  0  0  0  0  0
    2.8660    4.7500    0.0000 C   0  0  0  0  0  0  0  0  0  0  0  0
   15.8564   -5.7500    0.0000 C   0  0  0  0  0  0  0  0  0  0  0  0
    9.7942    5.7500    0.0000 C   0  0  0  0  0  0  0  0  0  0  0  0
   14.9904   -4.2500    0.0000 C   0  0  0  0  0  0  0  0  0  0  0  0
   10.6603    4.2500    0.0000 C   0  0  0  0  0  0  0  0  0  0  0  0
   23.6506   -4.2500    0.0000 C   0  0  0  0  0  0  0  0  0  0  0  0
   22.7846   -5.7500    0.0000 C   0  0  0  0  0  0  0  0  0  0  0  0
    2.0000    4.2500    0.0000 C   0  0  0  0  0  0  0  0  0  0  0  0
    2.8660    5.7500    0.0000 C   0  0  0  0  0  0  0  0  0  0  0  0
   14.9904   -3.2500    0.0000 C   0  0  0  0  0  0  0  0  0  0  0  0
   10.6603    3.2500    0.0000 C   0  0  0  0  0  0  0  0  0  0  0  0
   14.1244   -2.7500    0.0000 C   0  0  0  0  0  0  0  0  0  0  0  0
   11.5263    2.7500    0.0000 C   0  0  0  0  0  0  0  0  0  0  0  0
   14.1244   -1.7500    0.0000 C   0  0  0  0  0  0  0  0  0  0  0  0
   11.5263    1.7500    0.0000 C   0  0  0  0  0  0  0  0  0  0  0  0
   13.2583   -1.2500    0.0000 C   0  0  0  0  0  0  0  0  0  0  0  0
   12.3923    1.2500    0.0000 C   0  0  0  0  0  0  0  0  0  0  0  0
   14.9904   -1.2500    0.0000 C   0  0  0  0  0  0  0  0  0  0  0  0
   10.6603    1.2500    0.0000 C   0  0  0  0  0  0  0  0  0  0  0  0
   13.2583   -0.2500    0.0000 C   0  0  0  0  0  0  0  0  0  0  0  0
   12.3923    0.2500    0.0000 C   0  0  0  0  0  0  0  0  0  0  0  0
   20.5851   -3.7750    0.0000 H   0  0  0  0  0  0  0  0  0  0  0  0
   19.7880   -3.7750    0.0000 H   0  0  0  0  0  0  0  0  0  0  0  0
    5.0656    3.7750    0.0000 H   0  0  0  0  0  0  0  0  0  0  0  0
    5.8626    3.7750    0.0000 H   0  0  0  0  0  0  0  0  0  0  0  0
    8.4607    5.2250    0.0000 H   0  0  0  0  0  0  0  0  0  0  0  0
    7.6636    5.2250    0.0000 H   0  0  0  0  0  0  0  0  0  0  0  0
   17.1899   -5.2250    0.0000 H   0  0  0  0  0  0  0  0  0  0  0  0
   17.9870   -5.2250    0.0000 H   0  0  0  0  0  0  0  0  0  0  0  0
    8.5297    3.7750    0.0000 H   0  0  0  0  0  0  0  0  0  0  0  0
    9.3267    3.7750    0.0000 H   0  0  0  0  0  0  0  0  0  0  0  0
   17.1210   -3.7750    0.0000 H   0  0  0  0  0  0  0  0  0  0  0  0
   16.3239   -3.7750    0.0000 H   0  0  0  0  0  0  0  0  0  0  0  0
   20.6540   -5.2250    0.0000 H   0  0  0  0  0  0  0  0  0  0  0  0
   21.4511   -5.2250    0.0000 H   0  0  0  0  0  0  0  0  0  0  0  0
    4.9966    5.2250    0.0000 H   0  0  0  0  0  0  0  0  0  0  0  0
    4.1996    5.2250    0.0000 H   0  0  0  0  0  0  0  0  0  0  0  0
   18.4545   -3.6300    0.0000 H   0  0  0  0  0  0  0  0  0  0  0  0
    7.1962    3.6300    0.0000 H   0  0  0  0  0  0  0  0  0  0  0  0
   18.7005   -5.7500    0.0000 H   0  0  0  0  0  0  0  0  0  0  0  0
   19.3205   -6.3700    0.0000 H   0  0  0  0  0  0  0  0  0  0  0  0
   19.9405   -5.7500    0.0000 H   0  0  0  0  0  0  0  0  0  0  0  0
    6.9501    5.7500    0.0000 H   0  0  0  0  0  0  0  0  0  0  0  0
    6.3301    6.3700    0.0000 H   0  0  0  0  0  0  0  0  0  0  0  0
    5.7101    5.7500    0.0000 H   0  0  0  0  0  0  0  0  0  0  0  0
    3.7320    3.6300    0.0000 H   0  0  0  0  0  0  0  0  0  0  0  0
   21.9186   -3.6300    0.0000 H   0  0  0  0  0  0  0  0  0  0  0  0
   10.4142    5.7500    0.0000 H   0  0  0  0  0  0  0  0  0  0  0  0
    9.7942    6.3700    0.0000 H   0  0  0  0  0  0  0  0  0  0  0  0
    9.1742    5.7500    0.0000 H   0  0  0  0  0  0  0  0  0  0  0  0
   15.2364   -5.7500    0.0000 H   0  0  0  0  0  0  0  0  0  0  0  0
   15.8564   -6.3700    0.0000 H   0  0  0  0  0  0  0  0  0  0  0  0
   16.4764   -5.7500    0.0000 H   0  0  0  0  0  0  0  0  0  0  0  0
   11.1972    4.5600    0.0000 H   0  0  0  0  0  0  0  0  0  0  0  0
   14.4534   -4.5600    0.0000 H   0  0  0  0  0  0  0  0  0  0  0  0
   23.9606   -4.7869    0.0000 H   0  0  0  0  0  0  0  0  0  0  0  0
   24.1876   -3.9400    0.0000 H   0  0  0  0  0  0  0  0  0  0  0  0
   23.3406   -3.7131    0.0000 H   0  0  0  0  0  0  0  0  0  0  0  0
   22.1646   -5.7500    0.0000 H   0  0  0  0  0  0  0  0  0  0  0  0
   22.7846   -6.3700    0.0000 H   0  0  0  0  0  0  0  0  0  0  0  0
   23.4046   -5.7500    0.0000 H   0  0  0  0  0  0  0  0  0  0  0  0
    1.6900    4.7869    0.0000 H   0  0  0  0  0  0  0  0  0  0  0  0
    1.4631    3.9400    0.0000 H   0  0  0  0  0  0  0  0  0  0  0  0
    2.3100    3.7131    0.0000 H   0  0  0  0  0  0  0  0  0  0  0  0
    3.4860    5.7500    0.0000 H   0  0  0  0  0  0  0  0  0  0  0  0
    2.8660    6.3700    0.0000 H   0  0  0  0  0  0  0  0  0  0  0  0
    2.2460    5.7500    0.0000 H   0  0  0  0  0  0  0  0  0  0  0  0
   15.5273   -2.9400    0.0000 H   0  0  0  0  0  0  0  0  0  0  0  0
   10.1233    2.9400    0.0000 H   0  0  0  0  0  0  0  0  0  0  0  0
   12.0632    3.0600    0.0000 H   0  0  0  0  0  0  0  0  0  0  0  0
   13.5874   -3.0600    0.0000 H   0  0  0  0  0  0  0  0  0  0  0  0
   12.9292    1.5600    0.0000 H   0  0  0  0  0  0  0  0  0  0  0  0
   12.7214   -1.5600    0.0000 H   0  0  0  0  0  0  0  0  0  0  0  0
   10.3503    1.7869    0.0000 H   0  0  0  0  0  0  0  0  0  0  0  0
   15.3004   -1.7869    0.0000 H   0  0  0  0  0  0  0  0  0  0  0  0
   15.5273   -0.9400    0.0000 H   0  0  0  0  0  0  0  0  0  0  0  0
   14.6804   -0.7131    0.0000 H   0  0  0  0  0  0  0  0  0  0  0  0
   10.1233    0.9400    0.0000 H   0  0  0  0  0  0  0  0  0  0  0  0
   10.9703    0.7131    0.0000 H   0  0  0  0  0  0  0  0  0  0  0  0
   13.7953    0.0600    0.0000 H   0  0  0  0  0  0  0  0  0  0  0  0
   11.8554   -0.0600    0.0000 H   0  0  0  0  0  0  0  0  0  0  0  0
  1  3  1  0  0  0  0
  1  9  1  0  0  0  0
  1 41  1  0  0  0  0
  1 42  1  0  0  0  0
  2  4  1  0  0  0  0
  2 10  1  0  0  0  0
  2 43  1  0  0  0  0
  2 44  1  0  0  0  0
  3 11  2  0  0  0  0
  3 15  1  0  0  0  0
  4 12  2  0  0  0  0
  4 16  1  0  0  0  0
  5  7  1  0  0  0  0
  5 11  1  0  0  0  0
  5 47  1  0  0  0  0
  5 48  1  0  0  0  0
  6  8  1  0  0  0  0
  6 12  1  0  0  0  0
  6 45  1  0  0  0  0
  6 46  1  0  0  0  0
  7 13  1  0  0  0  0
  7 51  1  0  0  0  0
  7 52  1  0  0  0  0
  8 14  1  0  0  0  0
  8 49  1  0  0  0  0
  8 50  1  0  0  0  0
  9 17  1  0  0  0  0
  9 53  1  0  0  0  0
  9 54  1  0  0  0  0
 10 18  1  0  0  0  0
 10 55  1  0  0  0  0
 10 56  1  0  0  0  0
 11 57  1  0  0  0  0
 12 58  1  0  0  0  0
 13 21  1  0  0  0  0
 13 23  2  0  0  0  0
 14 22  1  0  0  0  0
 14 24  2  0  0  0  0
 15 59  1  0  0  0  0
 15 60  1  0  0  0  0
 15 61  1  0  0  0  0
 16 62  1  0  0  0  0
 16 63  1  0  0  0  0
 16 64  1  0  0  0  0
 17 19  2  0  0  0  0
 17 66  1  0  0  0  0
 18 20  2  0  0  0  0
 18 65  1  0  0  0  0
 19 25  1  0  0  0  0
 19 26  1  0  0  0  0
 20 27  1  0  0  0  0
 20 28  1  0  0  0  0
 21 70  1  0  0  0  0
 21 71  1  0  0  0  0
 21 72  1  0  0  0  0
 22 67  1  0  0  0  0
 22 68  1  0  0  0  0
 22 69  1  0  0  0  0
 23 29  1  0  0  0  0
 23 74  1  0  0  0  0
 24 30  1  0  0  0  0
 24 73  1  0  0  0  0
 25 75  1  0  0  0  0
 25 76  1  0  0  0  0
 25 77  1  0  0  0  0
 26 78  1  0  0  0  0
 26 79  1  0  0  0  0
 26 80  1  0  0  0  0
 27 81  1  0  0  0  0
 27 82  1  0  0  0  0
 27 83  1  0  0  0  0
 28 84  1  0  0  0  0
 28 85  1  0  0  0  0
 28 86  1  0  0  0  0
 29 31  2  0  0  0  0
 29 87  1  0  0  0  0
 30 32  2  0  0  0  0
 30 88  1  0  0  0  0
 31 33  1  0  0  0  0
 31 90  1  0  0  0  0
 32 34  1  0  0  0  0
 32 89  1  0  0  0  0
 33 35  2  0  0  0  0
 33 37  1  0  0  0  0
 34 36  2  0  0  0  0
 34 38  1  0  0  0  0
 35 39  1  0  0  0  0
 35 92  1  0  0  0  0
 36 40  1  0  0  0  0
 36 91  1  0  0  0  0
 37 94  1  0  0  0  0
 37 95  1  0  0  0  0
 37 96  1  0  0  0  0
 38 93  1  0  0  0  0
 38 97  1  0  0  0  0
 38 98  1  0  0  0  0
 39 40  2  0  0  0  0
 39 99  1  0  0  0  0
 40100  1  0  0  0  0
M  END
>  <PUBCHEM_COMPOUND_CID>
6440490

>  <PUBCHEM_COMPOUND_CANONICALIZED>
1

>  <PUBCHEM_CACTVS_COMPLEXITY>
967

>  <PUBCHEM_CACTVS_HBOND_ACCEPTOR>
0

>  <PUBCHEM_CACTVS_HBOND_DONOR>
0

>  <PUBCHEM_CACTVS_ROTATABLE_BOND>
18

>  <PUBCHEM_CACTVS_SUBSKEYS>
AAADcfB8AAAAAAAAAAAAAAAAAAAAAAAAAAAAAAAAAAAAAAAAAAAAGAAAAAAADACAAAACAAAAAACAAiBCAAAAAAAgAAAICAAAAAgIAAIAAQAAAAAAgAAIgAIAAAAAAAAAAAAAAAAAAAAAAAAAAAAAAAAAAA==

>  <PUBCHEM_IUPAC_OPENEYE_NAME>
(6E,10Z,12E,14E,16E,18E,20E,22Z,26E)-2,6,10,14,19,23,27,31-octamethyldotriaconta-2,6,10,12,14,16,18,20,22,26,30-undecaene

>  <PUBCHEM_IUPAC_CAS_NAME>
(6E,10Z,12E,14E,16E,18E,20E,22Z,26E)-2,6,10,14,19,23,27,31-octamethyldotriaconta-2,6,10,12,14,16,18,20,22,26,30-undecaene

>  <PUBCHEM_IUPAC_NAME>
(6E,10Z,12E,14E,16E,18E,20E,22Z,26E)-2,6,10,14,19,23,27,31-octamethyldotriaconta-2,6,10,12,14,16,18,20,22,26,30-undecaene

>  <PUBCHEM_IUPAC_SYSTEMATIC_NAME>
(6E,10Z,12E,14E,16E,18E,20E,22Z,26E)-2,6,10,14,19,23,27,31-octamethyldotriaconta-2,6,10,12,14,16,18,20,22,26,30-undecaene

>  <PUBCHEM_IUPAC_TRADITIONAL_NAME>
(6E,10Z,12E,14E,16E,18E,20E,22Z,26E)-2,6,10,14,19,23,27,31-octamethyldotriaconta-2,6,10,12,14,16,18,20,22,26,30-undecaene

>  <PUBCHEM_IUPAC_INCHI>
InChI=1S/C40H60/c1-33(2)19-13-23-37(7)27-17-31-39(9)29-15-25-35(5)21-11-12-22-36(6)26-16-30-40(10)32-18-28-38(8)24-14-20-34(3)4/h11-12,15-16,19-22,25-30H,13-14,17-18,23-24,31-32H2,1-10H3/b12-11+,25-15+,26-16+,35-21+,36-22+,37-27+,38-28+,39-29-,40-30-

>  <PUBCHEM_IUPAC_INCHIKEY>
BIWLELKAFXRPDE-ZURBLSRNSA-N

>  <PUBCHEM_XLOGP3_AA>
15.5

>  <PUBCHEM_EXACT_MASS>
540.47

>  <PUBCHEM_MOLECULAR_FORMULA>
C40H60

>  <PUBCHEM_MOLECULAR_WEIGHT>
540.92

>  <PUBCHEM_OPENEYE_CAN_SMILES>
CC(=CCCC(=CCCC(=CC=CC(=CC=CC=C(C)C=CC=C(C)CCC=C(C)CCC=C(C)C)C)C)C)C

>  <PUBCHEM_OPENEYE_ISO_SMILES>
CC(=CCC/C(=C/CC/C(=C\C=C\C(=C\C=C\C=C(\C=C\C=C(/CC/C=C(/CCC=C(C)C)\C)\C)/C)\C)/C)/C)C

>  <PUBCHEM_CACTVS_TPSA>
0

>  <PUBCHEM_MONOISOTOPIC_WEIGHT>
540.47

>  <PUBCHEM_TOTAL_CHARGE>
0

>  <PUBCHEM_HEAVY_ATOM_COUNT>
40

>  <PUBCHEM_ATOM_DEF_STEREO_COUNT>
0

>  <PUBCHEM_ATOM_UDEF_STEREO_COUNT>
0

>  <PUBCHEM_BOND_DEF_STEREO_COUNT>
9

>  <PUBCHEM_BOND_UDEF_STEREO_COUNT>
0

>  <PUBCHEM_ISOTOPIC_ATOM_COUNT>
0

>  <PUBCHEM_COMPONENT_COUNT>
1

>  <PUBCHEM_CACTVS_TAUTO_COUNT>
1

>  <PUBCHEM_COORDINATE_TYPE>
1
5
255

$$$$
