6441501
 OpenBabel06101807152D

330344  0  0  1  0  0  0  0  0999 V2000
   21.1860   14.0622    0.0000 O   0  0  0  0  0  0  0  0  0  0  0  0
    6.8612    4.1280    0.0000 O   0  0  0  0  0  0  0  0  0  0  0  0
   23.8613    6.3100    0.0000 O   0  0  0  0  0  0  0  0  0  0  0  0
   12.2132   10.3416    0.0000 O   0  0  0  0  0  0  0  0  0  0  0  0
   22.0859   15.6645    0.0000 O   0  0  0  0  0  0  0  0  0  0  0  0
    5.0237    4.0991    0.0000 O   0  0  0  0  0  0  0  0  0  0  0  0
   23.9014   16.7034    0.0000 O   0  0  0  0  0  0  0  0  0  0  0  0
    3.2123    5.1449    0.0000 O   0  0  0  0  0  0  0  0  0  0  0  0
   21.4621   15.3629    0.0000 O   0  0  0  0  0  0  0  0  0  0  0  0
    5.5983    3.7118    0.0000 O   0  0  0  0  0  0  0  0  0  0  0  0
   21.4305    8.7337    0.0000 O   0  0  0  0  0  0  0  0  0  0  0  0
   12.8458    7.8815    0.0000 O   0  0  0  0  0  0  0  0  0  0  0  0
   22.1293    6.3100    0.0000 O   0  0  0  0  0  0  0  0  0  0  0  0
   13.0735   11.8449    0.0000 O   0  0  0  0  0  0  0  0  0  0  0  0
   23.8613    4.3100    0.0000 O   0  0  0  0  0  0  0  0  0  0  0  0
   10.4773   11.3349    0.0000 O   0  0  0  0  0  0  0  0  0  0  0  0
   22.9519   17.1645    0.0000 O   0  0  0  0  0  0  0  0  0  0  0  0
    3.2917    4.0924    0.0000 O   0  0  0  0  0  0  0  0  0  0  0  0
   25.6334   16.6900    0.0000 O   0  0  0  0  0  0  0  0  0  0  0  0
    2.3520    6.6482    0.0000 O   0  0  0  0  0  0  0  0  0  0  0  0
   22.1293    3.3100    0.0000 O   0  0  0  0  0  0  0  0  0  0  0  0
   10.4696   13.3349    0.0000 O   0  0  0  0  0  0  0  0  0  0  0  0
   20.3972    4.3100    0.0000 O   0  0  0  0  0  0  0  0  0  0  0  0
   12.1978   14.3416    0.0000 O   0  0  0  0  0  0  0  0  0  0  0  0
   24.7273    5.8100    0.0000 O   0  0  0  0  0  0  0  0  0  0  0  0
    9.6055   12.8316    0.0000 O   0  0  0  0  0  0  0  0  0  0  0  0
   20.3972    7.3100    0.0000 O   0  0  0  0  0  0  0  0  0  0  0  0
   14.8017   12.8516    0.0000 O   0  0  0  0  0  0  0  0  0  0  0  0
   19.5312    5.8100    0.0000 O   0  0  0  0  0  0  0  0  0  0  0  0
   14.5735   14.1168    0.0000 O   0  0  0  0  0  0  0  0  0  0  0  0
   21.2632    2.8100    0.0000 O   0  0  0  0  0  0  0  0  0  0  0  0
   13.5204   15.4600    0.0000 O   0  0  0  0  0  0  0  0  0  0  0  0
   25.5934    3.3100    0.0000 O   0  0  0  0  0  0  0  0  0  0  0  0
    8.7492   10.3283    0.0000 O   0  0  0  0  0  0  0  0  0  0  0  0
   27.3254    4.3100    0.0000 O   0  0  0  0  0  0  0  0  0  0  0  0
    7.0133   11.3216    0.0000 O   0  0  0  0  0  0  0  0  0  0  0  0
   27.3254    6.3100    0.0000 O   0  0  0  0  0  0  0  0  0  0  0  0
    7.0056   13.3216    0.0000 O   0  0  0  0  0  0  0  0  0  0  0  0
   18.6652    3.3100    0.0000 O   0  0  0  0  0  0  0  0  0  0  0  0
   10.9064   15.8687    0.0000 O   0  0  0  0  0  0  0  0  0  0  0  0
   18.6652    1.3100    0.0000 O   0  0  0  0  0  0  0  0  0  0  0  0
   11.5831   17.7507    0.0000 O   0  0  0  0  0  0  0  0  0  0  0  0
   26.4594    7.8100    0.0000 O   0  0  0  0  0  0  0  0  0  0  0  0
    7.8658   14.8249    0.0000 O   0  0  0  0  0  0  0  0  0  0  0  0
   20.3972    0.3100    0.0000 O   0  0  0  0  0  0  0  0  0  0  0  0
   13.5514   18.1056    0.0000 O   0  0  0  0  0  0  0  0  0  0  0  0
   22.1293    0.3100    0.0000 O   0  0  0  0  0  0  0  0  0  0  0  0
   15.4886   15.8149    0.0000 O   0  0  0  0  0  0  0  0  0  0  0  0
   22.9603   11.0102    0.0000 C   0  0  2  0  0  0  0  0  0  0  0  0
    8.6054    7.1972    0.0000 C   0  0  2  0  0  0  0  0  0  0  0  0
   23.8243   10.5069    0.0000 C   0  0  3  0  0  0  0  0  0  0  0  0
    8.6054    8.1972    0.0000 C   0  0  1  0  0  0  0  0  0  0  0  0
   23.8364    9.4653    0.0000 C   0  0  2  0  0  0  0  0  0  0  0  0
    9.4993    8.7319    0.0000 C   0  0  2  0  0  0  0  0  0  0  0  0
   22.9641   12.0102    0.0000 C   0  0  1  0  0  0  0  0  0  0  0  0
    7.7393    6.6972    0.0000 C   0  0  1  0  0  0  0  0  0  0  0  0
   22.9363    8.9410    0.0000 C   0  0  3  0  0  0  0  0  0  0  0  0
   10.4054    8.2180    0.0000 C   0  0  1  0  0  0  0  0  0  0  0  0
   22.0483   10.5069    0.0000 C   0  0  0  0  0  0  0  0  0  0  0  0
    9.4993    6.6626    0.0000 C   0  0  0  0  0  0  0  0  0  0  0  0
   23.8321   12.5069    0.0000 C   0  0  0  0  0  0  0  0  0  0  0  0
    6.8733    7.1972    0.0000 C   0  0  0  0  0  0  0  0  0  0  0  0
   23.8521   13.5483    0.0000 C   0  0  3  0  0  0  0  0  0  0  0  0
    5.9633    6.6904    0.0000 C   0  0  1  0  0  0  0  0  0  0  0  0
   22.9561   14.0795    0.0000 C   0  0  1  0  0  0  0  0  0  0  0  0
    5.9553    5.6488    0.0000 C   0  0  1  0  0  0  0  0  0  0  0  0
   22.0363    9.4653    0.0000 C   0  0  0  0  0  0  0  0  0  0  0  0
   10.4054    7.1764    0.0000 C   0  0  0  0  0  0  0  0  0  0  0  0
   22.9238    7.8561    0.0000 C   0  0  2  0  0  0  0  0  0  0  0  0
   11.3492    8.7533    0.0000 C   0  0  2  0  0  0  0  0  0  0  0  0
   22.0561   12.5206    0.0000 C   0  0  0  0  0  0  0  0  0  0  0  0
    7.7554    5.6557    0.0000 C   0  0  0  0  0  0  0  0  0  0  0  0
   24.6923   11.0035    0.0000 C   0  0  0  0  0  0  0  0  0  0  0  0
    7.7393    8.6972    0.0000 C   0  0  0  0  0  0  0  0  0  0  0  0
   24.7863    8.9410    0.0000 C   0  0  0  0  0  0  0  0  0  0  0  0
    9.4742    9.8166    0.0000 C   0  0  0  0  0  0  0  0  0  0  0  0
   22.0520   13.5622    0.0000 C   0  0  1  0  0  0  0  0  0  0  0  0
    6.8574    5.1280    0.0000 C   0  0  1  0  0  0  0  0  0  0  0  0
   21.9761   11.1877    0.0000 C   0  0  0  0  0  0  0  0  0  0  0  0
    8.9475    6.2576    0.0000 C   0  0  0  0  0  0  0  0  0  0  0  0
   23.8613    7.3100    0.0000 C   0  0  2  0  0  0  0  0  0  0  0  0
   11.3492    9.8383    0.0000 C   0  0  2  0  0  0  0  0  0  0  0  0
   24.6961   12.0035    0.0000 C   0  0  0  0  0  0  0  0  0  0  0  0
    6.8733    8.1972    0.0000 C   0  0  0  0  0  0  0  0  0  0  0  0
   24.7005    9.9687    0.0000 C   0  0  0  0  0  0  0  0  0  0  0  0
    8.6294    9.2252    0.0000 C   0  0  0  0  0  0  0  0  0  0  0  0
   24.8061   14.0653    0.0000 C   0  0  0  0  0  0  0  0  0  0  0  0
    5.0365    7.2545    0.0000 C   0  0  0  0  0  0  0  0  0  0  0  0
   24.7988    7.8561    0.0000 C   0  0  0  0  0  0  0  0  0  0  0  0
   10.4054   10.3735    0.0000 C   0  0  0  0  0  0  0  0  0  0  0  0
   21.9786   11.8404    0.0000 C   0  0  0  0  0  0  0  0  0  0  0  0
    8.3821    5.9312    0.0000 C   0  0  0  0  0  0  0  0  0  0  0  0
   22.9519   15.1645    0.0000 C   0  0  2  0  0  0  0  0  0  0  0  0
    5.0198    5.0991    0.0000 C   0  0  2  0  0  0  0  0  0  0  0  0
   24.8270   15.1501    0.0000 C   0  0  0  0  0  0  0  0  0  0  0  0
    4.0886    6.7265    0.0000 C   0  0  0  0  0  0  0  0  0  0  0  0
   23.8937   15.7034    0.0000 C   0  0  1  0  0  0  0  0  0  0  0  0
    4.0802    5.6416    0.0000 C   0  0  1  0  0  0  0  0  0  0  0  0
   22.0959   14.5895    0.0000 C   0  0  0  0  0  0  0  0  0  0  0  0
    5.9476    4.6488    0.0000 C   0  0  0  0  0  0  0  0  0  0  0  0
   21.9238    7.8638    0.0000 C   0  0  0  0  0  0  0  0  0  0  0  0
   12.3491    8.7494    0.0000 C   0  0  0  0  0  0  0  0  0  0  0  0
   22.4171    6.9940    0.0000 C   0  0  0  0  0  0  0  0  0  0  0  0
   11.8458    7.8853    0.0000 C   0  0  0  0  0  0  0  0  0  0  0  0
   25.8268   15.1346    0.0000 C   0  0  0  0  0  0  0  0  0  0  0  0
   25.3403   16.0083    0.0000 C   0  0  0  0  0  0  0  0  0  0  0  0
    3.5986    7.5983    0.0000 C   0  0  0  0  0  0  0  0  0  0  0  0
    3.0886    6.7381    0.0000 C   0  0  0  0  0  0  0  0  0  0  0  0
   22.9953    5.8100    0.0000 C   0  0  2  0  0  0  0  0  0  0  0  0
   12.2094   11.3416    0.0000 C   0  0  2  0  0  0  0  0  0  0  0  0
   22.0859   16.6645    0.0000 C   0  0  0  0  0  0  0  0  0  0  0  0
    4.1596    3.5957    0.0000 C   0  0  0  0  0  0  0  0  0  0  0  0
   22.9953    4.8100    0.0000 C   0  0  1  0  0  0  0  0  0  0  0  0
   11.3414   11.8383    0.0000 C   0  0  1  0  0  0  0  0  0  0  0  0
   24.7712   17.1967    0.0000 C   0  0  0  0  0  0  0  0  0  0  0  0
    2.3482    5.6482    0.0000 C   0  0  0  0  0  0  0  0  0  0  0  0
   22.1293    4.3100    0.0000 C   0  0  2  0  0  0  0  0  0  0  0  0
   11.3376   12.8383    0.0000 C   0  0  2  0  0  0  0  0  0  0  0  0
   21.2632    5.8100    0.0000 C   0  0  1  0  0  0  0  0  0  0  0  0
   13.0696   12.8449    0.0000 C   0  0  1  0  0  0  0  0  0  0  0  0
   21.2632    4.8100    0.0000 C   0  0  1  0  0  0  0  0  0  0  0  0
   12.2017   13.3416    0.0000 C   0  0  1  0  0  0  0  0  0  0  0  0
   21.2199   17.1645    0.0000 C   0  0  0  0  0  0  0  0  0  0  0  0
    4.1635    2.5957    0.0000 C   0  0  0  0  0  0  0  0  0  0  0  0
   24.7789   18.1966    0.0000 C   0  0  0  0  0  0  0  0  0  0  0  0
    1.4802    5.1516    0.0000 C   0  0  0  0  0  0  0  0  0  0  0  0
   24.7273    4.8100    0.0000 C   0  0  2  0  0  0  0  0  0  0  0  0
    9.6094   11.8316    0.0000 C   0  0  2  0  0  0  0  0  0  0  0  0
   20.3972    6.3100    0.0000 C   0  0  0  0  0  0  0  0  0  0  0  0
   13.9337   13.3483    0.0000 C   0  0  0  0  0  0  0  0  0  0  0  0
   23.9168   18.7033    0.0000 C   0  0  0  0  0  0  0  0  0  0  0  0
    1.4764    4.1516    0.0000 C   0  0  0  0  0  0  0  0  0  0  0  0
   25.6488   18.6899    0.0000 C   0  0  0  0  0  0  0  0  0  0  0  0
    0.6161    5.6549    0.0000 C   0  0  0  0  0  0  0  0  0  0  0  0
   25.5934    4.3100    0.0000 C   0  0  1  0  0  0  0  0  0  0  0  0
    8.7453   11.3283    0.0000 C   0  0  1  0  0  0  0  0  0  0  0  0
   20.3972    3.3100    0.0000 C   0  0  2  0  0  0  0  0  0  0  0  0
   12.5362   15.2826    0.0000 C   0  0  2  0  0  0  0  0  0  0  0  0
   26.4594    4.8100    0.0000 C   0  0  2  0  0  0  0  0  0  0  0  0
    7.8774   11.8249    0.0000 C   0  0  2  0  0  0  0  0  0  0  0  0
   25.6565   19.6899    0.0000 C   0  0  0  0  0  0  0  0  0  0  0  0
    0.6200    6.6549    0.0000 C   0  0  0  0  0  0  0  0  0  0  0  0
   25.5934    6.3100    0.0000 C   0  0  1  0  0  0  0  0  0  0  0  0
    8.7376   13.3282    0.0000 C   0  0  1  0  0  0  0  0  0  0  0  0
   26.4594    5.8100    0.0000 C   0  0  1  0  0  0  0  0  0  0  0  0
    7.8735   12.8249    0.0000 C   0  0  1  0  0  0  0  0  0  0  0  0
   19.5312    2.8100    0.0000 C   0  0  1  0  0  0  0  0  0  0  0  0
   11.8905   16.0462    0.0000 C   0  0  1  0  0  0  0  0  0  0  0  0
   19.5312    1.8100    0.0000 C   0  0  2  0  0  0  0  0  0  0  0  0
   12.2289   16.9872    0.0000 C   0  0  2  0  0  0  0  0  0  0  0  0
   21.2632    1.8100    0.0000 C   0  0  1  0  0  0  0  0  0  0  0  0
   13.8587   16.4010    0.0000 C   0  0  1  0  0  0  0  0  0  0  0  0
   25.5934    7.3100    0.0000 C   0  0  0  0  0  0  0  0  0  0  0  0
    8.7338   14.3282    0.0000 C   0  0  0  0  0  0  0  0  0  0  0  0
   20.3972    1.3100    0.0000 C   0  0  1  0  0  0  0  0  0  0  0  0
   13.2130   17.1646    0.0000 C   0  0  1  0  0  0  0  0  0  0  0  0
   22.1293    1.3100    0.0000 C   0  0  0  0  0  0  0  0  0  0  0  0
   14.8429   16.5785    0.0000 C   0  0  0  0  0  0  0  0  0  0  0  0
   24.5621   10.0847    0.0000 H   0  0  0  0  0  0  0  0  0  0  0  0
    9.3447    7.7779    0.0000 H   0  0  0  0  0  0  0  0  0  0  0  0
   22.1969    8.5217    0.0000 H   0  0  0  0  0  0  0  0  0  0  0  0
   11.1398    7.7902    0.0000 H   0  0  0  0  0  0  0  0  0  0  0  0
   21.8460   11.0930    0.0000 H   0  0  0  0  0  0  0  0  0  0  0  0
   21.4363   10.4079    0.0000 H   0  0  0  0  0  0  0  0  0  0  0  0
    9.0947    6.1928    0.0000 H   0  0  0  0  0  0  0  0  0  0  0  0
    9.8929    6.1836    0.0000 H   0  0  0  0  0  0  0  0  0  0  0  0
   24.5782   13.1064    0.0000 H   0  0  0  0  0  0  0  0  0  0  0  0
    5.9797    7.5402    0.0000 H   0  0  0  0  0  0  0  0  0  0  0  0
   21.4267    9.5785    0.0000 H   0  0  0  0  0  0  0  0  0  0  0  0
   21.8205    8.8841    0.0000 H   0  0  0  0  0  0  0  0  0  0  0  0
   10.6144    6.5927    0.0000 H   0  0  0  0  0  0  0  0  0  0  0  0
   11.0162    7.2825    0.0000 H   0  0  0  0  0  0  0  0  0  0  0  0
   21.4448   12.6243    0.0000 H   0  0  0  0  0  0  0  0  0  0  0  0
   21.8493   11.9361    0.0000 H   0  0  0  0  0  0  0  0  0  0  0  0
    7.9734    5.0753    0.0000 H   0  0  0  0  0  0  0  0  0  0  0  0
    8.3645    5.7712    0.0000 H   0  0  0  0  0  0  0  0  0  0  0  0
   24.9021   10.4201    0.0000 H   0  0  0  0  0  0  0  0  0  0  0  0
   25.3033   11.1089    0.0000 H   0  0  0  0  0  0  0  0  0  0  0  0
    8.1379    9.1722    0.0000 H   0  0  0  0  0  0  0  0  0  0  0  0
    7.3408    9.1722    0.0000 H   0  0  0  0  0  0  0  0  0  0  0  0
   25.3983    8.8420    0.0000 H   0  0  0  0  0  0  0  0  0  0  0  0
   24.9886    9.5271    0.0000 H   0  0  0  0  0  0  0  0  0  0  0  0
    9.2517   10.3953    0.0000 H   0  0  0  0  0  0  0  0  0  0  0  0
    8.8660    9.6964    0.0000 H   0  0  0  0  0  0  0  0  0  0  0  0
   21.5157   13.2512    0.0000 H   0  0  0  0  0  0  0  0  0  0  0  0
    7.3961    4.8211    0.0000 H   0  0  0  0  0  0  0  0  0  0  0  0
   22.0861   11.7978    0.0000 H   0  0  0  0  0  0  0  0  0  0  0  0
   21.3660   11.2977    0.0000 H   0  0  0  0  0  0  0  0  0  0  0  0
   21.8661   10.5775    0.0000 H   0  0  0  0  0  0  0  0  0  0  0  0
    8.3649    6.0455    0.0000 H   0  0  0  0  0  0  0  0  0  0  0  0
    9.1596    5.6750    0.0000 H   0  0  0  0  0  0  0  0  0  0  0  0
    9.5301    6.4697    0.0000 H   0  0  0  0  0  0  0  0  0  0  0  0
   24.3988    7.0010    0.0000 H   0  0  0  0  0  0  0  0  0  0  0  0
   11.8867    9.5293    0.0000 H   0  0  0  0  0  0  0  0  0  0  0  0
   25.2343   12.3115    0.0000 H   0  0  0  0  0  0  0  0  0  0  0  0
    6.3364    8.5072    0.0000 H   0  0  0  0  0  0  0  0  0  0  0  0
   25.0125    9.4329    0.0000 H   0  0  0  0  0  0  0  0  0  0  0  0
   25.2362   10.2807    0.0000 H   0  0  0  0  0  0  0  0  0  0  0  0
   24.3884   10.5044    0.0000 H   0  0  0  0  0  0  0  0  0  0  0  0
    8.9353    9.7645    0.0000 H   0  0  0  0  0  0  0  0  0  0  0  0
    8.0901    9.5311    0.0000 H   0  0  0  0  0  0  0  0  0  0  0  0
    8.3236    8.6859    0.0000 H   0  0  0  0  0  0  0  0  0  0  0  0
   25.0038   13.4776    0.0000 H   0  0  0  0  0  0  0  0  0  0  0  0
   25.4188   14.1596    0.0000 H   0  0  0  0  0  0  0  0  0  0  0  0
    5.4447    7.7211    0.0000 H   0  0  0  0  0  0  0  0  0  0  0  0
    4.6465    7.7365    0.0000 H   0  0  0  0  0  0  0  0  0  0  0  0
   25.0146    7.2749    0.0000 H   0  0  0  0  0  0  0  0  0  0  0  0
   25.4084    7.9693    0.0000 H   0  0  0  0  0  0  0  0  0  0  0  0
   10.7990   10.8525    0.0000 H   0  0  0  0  0  0  0  0  0  0  0  0
   10.0008   10.8433    0.0000 H   0  0  0  0  0  0  0  0  0  0  0  0
   21.8733   12.4514    0.0000 H   0  0  0  0  0  0  0  0  0  0  0  0
   21.3676   11.7351    0.0000 H   0  0  0  0  0  0  0  0  0  0  0  0
   22.0839   11.2294    0.0000 H   0  0  0  0  0  0  0  0  0  0  0  0
    7.9072    5.5327    0.0000 H   0  0  0  0  0  0  0  0  0  0  0  0
    8.7806    5.4562    0.0000 H   0  0  0  0  0  0  0  0  0  0  0  0
    8.8571    6.3297    0.0000 H   0  0  0  0  0  0  0  0  0  0  0  0
   22.9531   15.7845    0.0000 H   0  0  0  0  0  0  0  0  0  0  0  0
    4.4835    4.7880    0.0000 H   0  0  0  0  0  0  0  0  0  0  0  0
   24.4336   16.0082    0.0000 H   0  0  0  0  0  0  0  0  0  0  0  0
    4.0790    5.0216    0.0000 H   0  0  0  0  0  0  0  0  0  0  0  0
   21.5000   14.4186    0.0000 H   0  0  0  0  0  0  0  0  0  0  0  0
   22.4999   15.0598    0.0000 H   0  0  0  0  0  0  0  0  0  0  0  0
    6.3952    4.2199    0.0000 H   0  0  0  0  0  0  0  0  0  0  0  0
    5.3378    4.7612    0.0000 H   0  0  0  0  0  0  0  0  0  0  0  0
   21.3396    7.6563    0.0000 H   0  0  0  0  0  0  0  0  0  0  0  0
   22.0268    7.2524    0.0000 H   0  0  0  0  0  0  0  0  0  0  0  0
   12.9326    8.9592    0.0000 H   0  0  0  0  0  0  0  0  0  0  0  0
   12.2438    9.3604    0.0000 H   0  0  0  0  0  0  0  0  0  0  0  0
   21.8826    7.3081    0.0000 H   0  0  0  0  0  0  0  0  0  0  0  0
   22.1030    6.4594    0.0000 H   0  0  0  0  0  0  0  0  0  0  0  0
   22.9516    6.6798    0.0000 H   0  0  0  0  0  0  0  0  0  0  0  0
   11.3077    7.5774    0.0000 H   0  0  0  0  0  0  0  0  0  0  0  0
   12.1537    7.3472    0.0000 H   0  0  0  0  0  0  0  0  0  0  0  0
   12.3839    8.1933    0.0000 H   0  0  0  0  0  0  0  0  0  0  0  0
   20.6491   13.7522    0.0000 H   0  0  0  0  0  0  0  0  0  0  0  0
    7.3993    3.8200    0.0000 H   0  0  0  0  0  0  0  0  0  0  0  0
   25.8173   14.5147    0.0000 H   0  0  0  0  0  0  0  0  0  0  0  0
   26.4468   15.1251    0.0000 H   0  0  0  0  0  0  0  0  0  0  0  0
   25.8364   15.7546    0.0000 H   0  0  0  0  0  0  0  0  0  0  0  0
   25.8723   15.6900    0.0000 H   0  0  0  0  0  0  0  0  0  0  0  0
   25.6585   16.5404    0.0000 H   0  0  0  0  0  0  0  0  0  0  0  0
   24.8082   16.3265    0.0000 H   0  0  0  0  0  0  0  0  0  0  0  0
    4.1391    7.9020    0.0000 H   0  0  0  0  0  0  0  0  0  0  0  0
    3.2949    8.1388    0.0000 H   0  0  0  0  0  0  0  0  0  0  0  0
    3.0581    7.2945    0.0000 H   0  0  0  0  0  0  0  0  0  0  0  0
    3.0958    7.3580    0.0000 H   0  0  0  0  0  0  0  0  0  0  0  0
    2.4687    6.7453    0.0000 H   0  0  0  0  0  0  0  0  0  0  0  0
    3.0815    6.1181    0.0000 H   0  0  0  0  0  0  0  0  0  0  0  0
   20.8503   15.2623    0.0000 H   0  0  0  0  0  0  0  0  0  0  0  0
    5.9932    3.2338    0.0000 H   0  0  0  0  0  0  0  0  0  0  0  0
   22.9953    6.4300    0.0000 H   0  0  0  0  0  0  0  0  0  0  0  0
   11.6737   11.0295    0.0000 H   0  0  0  0  0  0  0  0  0  0  0  0
   20.8105    8.7385    0.0000 H   0  0  0  0  0  0  0  0  0  0  0  0
   13.4658    7.8791    0.0000 H   0  0  0  0  0  0  0  0  0  0  0  0
   23.5322    5.1200    0.0000 H   0  0  0  0  0  0  0  0  0  0  0  0
   10.8033   12.1462    0.0000 H   0  0  0  0  0  0  0  0  0  0  0  0
   22.6662    4.0000    0.0000 H   0  0  0  0  0  0  0  0  0  0  0  0
   11.3352   13.4583    0.0000 H   0  0  0  0  0  0  0  0  0  0  0  0
   21.2632    6.4300    0.0000 H   0  0  0  0  0  0  0  0  0  0  0  0
   13.6078   12.5370    0.0000 H   0  0  0  0  0  0  0  0  0  0  0  0
   20.7263    5.1200    0.0000 H   0  0  0  0  0  0  0  0  0  0  0  0
   12.7374   13.6537    0.0000 H   0  0  0  0  0  0  0  0  0  0  0  0
   21.5299   17.7014    0.0000 H   0  0  0  0  0  0  0  0  0  0  0  0
   20.6830   17.4745    0.0000 H   0  0  0  0  0  0  0  0  0  0  0  0
   20.9099   16.6276    0.0000 H   0  0  0  0  0  0  0  0  0  0  0  0
    3.5435    2.5934    0.0000 H   0  0  0  0  0  0  0  0  0  0  0  0
    4.1659    1.9758    0.0000 H   0  0  0  0  0  0  0  0  0  0  0  0
    4.7835    2.5981    0.0000 H   0  0  0  0  0  0  0  0  0  0  0  0
   24.7273    4.1900    0.0000 H   0  0  0  0  0  0  0  0  0  0  0  0
    9.6118   11.2116    0.0000 H   0  0  0  0  0  0  0  0  0  0  0  0
   22.6662    3.0000    0.0000 H   0  0  0  0  0  0  0  0  0  0  0  0
   10.4673   13.9549    0.0000 H   0  0  0  0  0  0  0  0  0  0  0  0
   24.2309   19.2378    0.0000 H   0  0  0  0  0  0  0  0  0  0  0  0
   23.3823   19.0174    0.0000 H   0  0  0  0  0  0  0  0  0  0  0  0
   23.6027   18.1688    0.0000 H   0  0  0  0  0  0  0  0  0  0  0  0
    0.8564    4.1540    0.0000 H   0  0  0  0  0  0  0  0  0  0  0  0
    1.4740    3.5316    0.0000 H   0  0  0  0  0  0  0  0  0  0  0  0
    2.0964    4.1492    0.0000 H   0  0  0  0  0  0  0  0  0  0  0  0
   26.1833   18.3758    0.0000 H   0  0  0  0  0  0  0  0  0  0  0  0
    0.0780    5.3470    0.0000 H   0  0  0  0  0  0  0  0  0  0  0  0
   26.1303    4.0000    0.0000 H   0  0  0  0  0  0  0  0  0  0  0  0
    8.2096   11.0162    0.0000 H   0  0  0  0  0  0  0  0  0  0  0  0
   19.8603    3.6200    0.0000 H   0  0  0  0  0  0  0  0  0  0  0  0
   11.9261   15.1726    0.0000 H   0  0  0  0  0  0  0  0  0  0  0  0
   26.9963    5.1200    0.0000 H   0  0  0  0  0  0  0  0  0  0  0  0
    7.3392   12.1328    0.0000 H   0  0  0  0  0  0  0  0  0  0  0  0
   26.2765   19.6851    0.0000 H   0  0  0  0  0  0  0  0  0  0  0  0
   25.6613   20.3099    0.0000 H   0  0  0  0  0  0  0  0  0  0  0  0
   25.0365   19.6947    0.0000 H   0  0  0  0  0  0  0  0  0  0  0  0
    1.2400    6.6525    0.0000 H   0  0  0  0  0  0  0  0  0  0  0  0
    0.6224    7.2749    0.0000 H   0  0  0  0  0  0  0  0  0  0  0  0
    0.0000    6.6573    0.0000 H   0  0  0  0  0  0  0  0  0  0  0  0
   25.0564    6.6200    0.0000 H   0  0  0  0  0  0  0  0  0  0  0  0
    9.2733   13.6403    0.0000 H   0  0  0  0  0  0  0  0  0  0  0  0
   19.8603    7.6200    0.0000 H   0  0  0  0  0  0  0  0  0  0  0  0
   14.8041   12.2316    0.0000 H   0  0  0  0  0  0  0  0  0  0  0  0
   26.4594    6.4300    0.0000 H   0  0  0  0  0  0  0  0  0  0  0  0
    7.8711   13.4449    0.0000 H   0  0  0  0  0  0  0  0  0  0  0  0
   20.0933    3.4300    0.0000 H   0  0  0  0  0  0  0  0  0  0  0  0
   11.4901   16.5196    0.0000 H   0  0  0  0  0  0  0  0  0  0  0  0
   25.0564    3.0000    0.0000 H   0  0  0  0  0  0  0  0  0  0  0  0
    8.2134   10.0162    0.0000 H   0  0  0  0  0  0  0  0  0  0  0  0
   19.5312    1.1900    0.0000 H   0  0  0  0  0  0  0  0  0  0  0  0
   12.4387   17.5706    0.0000 H   0  0  0  0  0  0  0  0  0  0  0  0
   21.8002    2.1200    0.0000 H   0  0  0  0  0  0  0  0  0  0  0  0
   14.2591   15.9276    0.0000 H   0  0  0  0  0  0  0  0  0  0  0  0
   25.3813    7.8926    0.0000 H   0  0  0  0  0  0  0  0  0  0  0  0
   24.9828    7.2023    0.0000 H   0  0  0  0  0  0  0  0  0  0  0  0
    9.3447   14.2229    0.0000 H   0  0  0  0  0  0  0  0  0  0  0  0
    8.9436   14.9117    0.0000 H   0  0  0  0  0  0  0  0  0  0  0  0
   20.9341    1.0000    0.0000 H   0  0  0  0  0  0  0  0  0  0  0  0
   13.8232   17.2746    0.0000 H   0  0  0  0  0  0  0  0  0  0  0  0
   27.8624    4.6200    0.0000 H   0  0  0  0  0  0  0  0  0  0  0  0
    6.4752   11.6295    0.0000 H   0  0  0  0  0  0  0  0  0  0  0  0
   27.3254    6.9300    0.0000 H   0  0  0  0  0  0  0  0  0  0  0  0
    6.4698   13.0095    0.0000 H   0  0  0  0  0  0  0  0  0  0  0  0
   18.1282    3.0000    0.0000 H   0  0  0  0  0  0  0  0  0  0  0  0
   10.5060   16.3421    0.0000 H   0  0  0  0  0  0  0  0  0  0  0  0
   22.7398    1.2023    0.0000 H   0  0  0  0  0  0  0  0  0  0  0  0
   22.3413    1.8926    0.0000 H   0  0  0  0  0  0  0  0  0  0  0  0
   15.3786   16.8905    0.0000 H   0  0  0  0  0  0  0  0  0  0  0  0
   14.6286   17.1603    0.0000 H   0  0  0  0  0  0  0  0  0  0  0  0
   18.6652    0.6900    0.0000 H   0  0  0  0  0  0  0  0  0  0  0  0
   11.7929   18.3341    0.0000 H   0  0  0  0  0  0  0  0  0  0  0  0
   26.4594    8.4300    0.0000 H   0  0  0  0  0  0  0  0  0  0  0  0
    7.8634   15.4449    0.0000 H   0  0  0  0  0  0  0  0  0  0  0  0
   19.8603    0.0000    0.0000 H   0  0  0  0  0  0  0  0  0  0  0  0
   14.1616   18.2156    0.0000 H   0  0  0  0  0  0  0  0  0  0  0  0
   22.6662    0.0000    0.0000 H   0  0  0  0  0  0  0  0  0  0  0  0
   16.0988   15.9249    0.0000 H   0  0  0  0  0  0  0  0  0  0  0  0
  1235  1  0  0  0  0
  2236  1  0  0  0  0
  5111  1  0  0  0  0
  6112  1  0  0  0  0
  7115  1  0  0  0  0
  8116  1  0  0  0  0
  9 99  1  0  0  0  0
  9249  1  0  0  0  0
 10100  1  0  0  0  0
 10250  1  0  0  0  0
 11101  1  0  0  0  0
 11253  1  0  0  0  0
 12102  1  0  0  0  0
 12254  1  0  0  0  0
 13109  1  0  0  0  0
 13119  1  0  0  0  0
 14110  1  0  0  0  0
 14120  1  0  0  0  0
 17111  2  0  0  0  0
 18112  2  0  0  0  0
 19115  2  0  0  0  0
 20116  2  0  0  0  0
 21271  1  0  0  0  0
 22272  1  0  0  0  0
 25127  1  0  0  0  0
 25143  1  0  0  0  0
 26128  1  0  0  0  0
 26144  1  0  0  0  0
 27129  1  0  0  0  0
 27295  1  0  0  0  0
 28130  1  0  0  0  0
 28296  1  0  0  0  0
 29129  2  0  0  0  0
 30130  2  0  0  0  0
 31137  1  0  0  0  0
 31151  1  0  0  0  0
 32138  1  0  0  0  0
 32152  1  0  0  0  0
 33301  1  0  0  0  0
 34302  1  0  0  0  0
 35313  1  0  0  0  0
 36314  1  0  0  0  0
 37315  1  0  0  0  0
 38316  1  0  0  0  0
 39317  1  0  0  0  0
 40318  1  0  0  0  0
 41323  1  0  0  0  0
 42324  1  0  0  0  0
 43153  1  0  0  0  0
 43325  1  0  0  0  0
 44154  1  0  0  0  0
 44326  1  0  0  0  0
 45327  1  0  0  0  0
 46328  1  0  0  0  0
 47157  1  0  0  0  0
 47329  1  0  0  0  0
 48158  1  0  0  0  0
 48330  1  0  0  0  0
 49 51  1  6  0  0  0
 49 59  1  0  0  0  0
 49 79  1  0  0  0  0
 50 52  1  6  0  0  0
 50 60  1  0  0  0  0
 50 80  1  0  0  0  0
 51 73  1  0  0  0  0
 51159  1  0  0  0  0
 52 54  1  6  0  0  0
 52 74  1  0  0  0  0
 52160  1  0  0  0  0
 53 51  1  1  0  0  0
 53 57  1  0  0  0  0
 53 75  1  0  0  0  0
 53 85  1  0  0  0  0
 54 58  1  6  0  0  0
 54 76  1  0  0  0  0
 54 86  1  0  0  0  0
 55 49  1  6  0  0  0
 55 61  1  0  0  0  0
 55 71  1  0  0  0  0
 55 91  1  0  0  0  0
 56 50  1  6  0  0  0
 56 62  1  0  0  0  0
 56 72  1  0  0  0  0
 56 92  1  0  0  0  0
 57 67  1  0  0  0  0
 57161  1  0  0  0  0
 58 68  1  0  0  0  0
 58 70  1  6  0  0  0
 58162  1  0  0  0  0
 59 67  1  0  0  0  0
 59163  1  0  0  0  0
 59164  1  0  0  0  0
 60 68  1  0  0  0  0
 60165  1  0  0  0  0
 60166  1  0  0  0  0
 61 63  1  0  0  0  0
 61 83  2  0  0  0  0
 62 64  1  0  0  0  0
 62 84  2  0  0  0  0
 63 87  1  0  0  0  0
 63167  1  0  0  0  0
 64 66  1  6  0  0  0
 64 88  1  0  0  0  0
 64168  1  0  0  0  0
 65 63  1  6  0  0  0
 65 99  1  0  0  0  0
 66 78  1  1  0  0  0
 66100  1  0  0  0  0
 67169  1  0  0  0  0
 67170  1  0  0  0  0
 68171  1  0  0  0  0
 68172  1  0  0  0  0
 69 57  1  1  0  0  0
 69101  1  0  0  0  0
 69103  1  0  0  0  0
 70 82  1  1  0  0  0
 70102  1  0  0  0  0
 70104  1  0  0  0  0
 71 77  1  0  0  0  0
 71173  1  0  0  0  0
 71174  1  0  0  0  0
 72 78  1  0  0  0  0
 72175  1  0  0  0  0
 72176  1  0  0  0  0
 73 83  1  0  0  0  0
 73177  1  0  0  0  0
 73178  1  0  0  0  0
 74 84  1  0  0  0  0
 74179  1  0  0  0  0
 74180  1  0  0  0  0
 75 89  1  0  0  0  0
 75181  1  0  0  0  0
 75182  1  0  0  0  0
 76 90  1  0  0  0  0
 76183  1  0  0  0  0
 76184  1  0  0  0  0
 77  1  1  0  0  0  0
 77 65  1  6  0  0  0
 77185  1  0  0  0  0
 78  2  1  0  0  0  0
 78186  1  6  0  0  0
 79187  1  0  0  0  0
 79188  1  0  0  0  0
 79189  1  0  0  0  0
 80190  1  0  0  0  0
 80191  1  0  0  0  0
 80192  1  0  0  0  0
 81  3  1  0  0  0  0
 81 69  1  1  0  0  0
 81 89  1  0  0  0  0
 81193  1  0  0  0  0
 82  4  1  0  0  0  0
 82 90  1  0  0  0  0
 82194  1  1  0  0  0
 83195  1  0  0  0  0
 84196  1  0  0  0  0
 85197  1  0  0  0  0
 85198  1  0  0  0  0
 85199  1  0  0  0  0
 86200  1  0  0  0  0
 86201  1  0  0  0  0
 86202  1  0  0  0  0
 87 95  1  0  0  0  0
 87203  1  0  0  0  0
 87204  1  0  0  0  0
 88 96  1  0  0  0  0
 88205  1  0  0  0  0
 88206  1  0  0  0  0
 89207  1  0  0  0  0
 89208  1  0  0  0  0
 90209  1  0  0  0  0
 90210  1  0  0  0  0
 91211  1  0  0  0  0
 91212  1  0  0  0  0
 91213  1  0  0  0  0
 92214  1  0  0  0  0
 92215  1  0  0  0  0
 92216  1  0  0  0  0
 93  5  1  0  0  0  0
 93 65  1  6  0  0  0
 93217  1  0  0  0  0
 94  6  1  0  0  0  0
 94 66  1  6  0  0  0
 94218  1  0  0  0  0
 95 97  1  0  0  0  0
 95105  1  0  0  0  0
 95106  1  0  0  0  0
 96 98  1  0  0  0  0
 96107  1  0  0  0  0
 96108  1  0  0  0  0
 97  7  1  0  0  0  0
 97 93  1  1  0  0  0
 97219  1  0  0  0  0
 98  8  1  0  0  0  0
 98 94  1  6  0  0  0
 98220  1  0  0  0  0
 99221  1  0  0  0  0
 99222  1  0  0  0  0
100223  1  0  0  0  0
100224  1  0  0  0  0
101225  1  0  0  0  0
101226  1  0  0  0  0
102227  1  0  0  0  0
102228  1  0  0  0  0
103229  1  0  0  0  0
103230  1  0  0  0  0
103231  1  0  0  0  0
104232  1  0  0  0  0
104233  1  0  0  0  0
104234  1  0  0  0  0
105237  1  0  0  0  0
105238  1  0  0  0  0
105239  1  0  0  0  0
106240  1  0  0  0  0
106241  1  0  0  0  0
106242  1  0  0  0  0
107243  1  0  0  0  0
107244  1  0  0  0  0
107245  1  0  0  0  0
108246  1  0  0  0  0
108247  1  0  0  0  0
108248  1  0  0  0  0
109  3  1  0  0  0  0
109113  1  6  0  0  0
109251  1  0  0  0  0
110  4  1  0  0  0  0
110114  1  1  0  0  0
110252  1  0  0  0  0
111123  1  0  0  0  0
112124  1  0  0  0  0
113 15  1  0  0  0  0
113117  1  1  0  0  0
113255  1  0  0  0  0
114 16  1  0  0  0  0
114118  1  6  0  0  0
114256  1  0  0  0  0
115125  1  0  0  0  0
116126  1  0  0  0  0
117 21  1  0  0  0  0
117121  1  6  0  0  0
117257  1  0  0  0  0
118 22  1  0  0  0  0
118122  1  1  0  0  0
118258  1  0  0  0  0
119121  1  6  0  0  0
119129  1  0  0  0  0
119259  1  0  0  0  0
120122  1  6  0  0  0
120130  1  0  0  0  0
120260  1  0  0  0  0
121 23  1  0  0  0  0
121261  1  1  0  0  0
122 24  1  0  0  0  0
122262  1  1  0  0  0
123263  1  0  0  0  0
123264  1  0  0  0  0
123265  1  0  0  0  0
124266  1  0  0  0  0
124267  1  0  0  0  0
124268  1  0  0  0  0
125131  1  0  0  0  0
125133  2  0  0  0  0
126132  1  0  0  0  0
126134  2  0  0  0  0
127 15  1  0  0  0  0
127135  1  6  0  0  0
127269  1  0  0  0  0
128 16  1  0  0  0  0
128136  1  1  0  0  0
128270  1  0  0  0  0
131273  1  0  0  0  0
131274  1  0  0  0  0
131275  1  0  0  0  0
132276  1  0  0  0  0
132277  1  0  0  0  0
132278  1  0  0  0  0
133141  1  0  0  0  0
133279  1  0  0  0  0
134142  1  0  0  0  0
134280  1  0  0  0  0
135 33  1  0  0  0  0
135139  1  1  0  0  0
135281  1  0  0  0  0
136 34  1  0  0  0  0
136140  1  6  0  0  0
136282  1  0  0  0  0
137 23  1  0  0  0  0
137147  1  6  0  0  0
137283  1  0  0  0  0
138 24  1  0  0  0  0
138148  1  1  0  0  0
138284  1  0  0  0  0
139 35  1  0  0  0  0
139145  1  6  0  0  0
139285  1  0  0  0  0
140 36  1  0  0  0  0
140146  1  1  0  0  0
140286  1  0  0  0  0
141287  1  0  0  0  0
141288  1  0  0  0  0
141289  1  0  0  0  0
142290  1  0  0  0  0
142291  1  0  0  0  0
142292  1  0  0  0  0
143145  1  1  0  0  0
143153  1  0  0  0  0
143293  1  0  0  0  0
144146  1  6  0  0  0
144154  1  0  0  0  0
144294  1  0  0  0  0
145 37  1  0  0  0  0
145297  1  6  0  0  0
146 38  1  0  0  0  0
146298  1  1  0  0  0
147 39  1  0  0  0  0
147149  1  6  0  0  0
147299  1  0  0  0  0
148 40  1  0  0  0  0
148150  1  6  0  0  0
148300  1  0  0  0  0
149 41  1  0  0  0  0
149155  1  6  0  0  0
149303  1  0  0  0  0
150 42  1  0  0  0  0
150156  1  1  0  0  0
150304  1  0  0  0  0
151155  1  1  0  0  0
151157  1  0  0  0  0
151305  1  0  0  0  0
152156  1  6  0  0  0
152158  1  0  0  0  0
152306  1  0  0  0  0
153307  1  0  0  0  0
153308  1  0  0  0  0
154309  1  0  0  0  0
154310  1  0  0  0  0
155 45  1  0  0  0  0
155311  1  6  0  0  0
156 46  1  0  0  0  0
156312  1  1  0  0  0
157319  1  0  0  0  0
157320  1  0  0  0  0
158321  1  0  0  0  0
158322  1  0  0  0  0
M  END
>  <PUBCHEM_COMPOUND_CID>
6441501

>  <PUBCHEM_COMPOUND_CANONICALIZED>
1

>  <PUBCHEM_CACTVS_COMPLEXITY>
2300

>  <PUBCHEM_CACTVS_HBOND_ACCEPTOR>
48

>  <PUBCHEM_CACTVS_HBOND_DONOR>
26

>  <PUBCHEM_CACTVS_ROTATABLE_BOND>
32

>  <PUBCHEM_CACTVS_SUBSKEYS>
AAADcfB8PgAAAAAAAAAAAAAAAAAAAAAAAAA0aNGjQAAAAADAAAAAGgAACAAADxSwgAMCCAAABgCIAiDSCAIAAAAgAAAACAFAAEgRFBYAIQQiUAAFoAAPIYPK7PxPgAAAAAAAAADAAAYAADCAAAAAAAAAAA==

>  <PUBCHEM_IUPAC_OPENEYE_NAME>
(2S,3S,4S,5R,6R)-6-[[(3S,4S,4aR,6aR,6bS,8R,8aR,9R,10R,12aS,14aR,14bR)-9-acetoxy-8-hydroxy-4,8a-bis(hydroxymethyl)-4,6a,6b,11,11,14b-hexamethyl-10-[(Z)-2-methylbut-2-enoyl]oxy-1,2,3,4a,5,6,7,8,9,10,12,12a,14,14a-tetradecahydropicen-3-yl]oxy]-4-hydroxy-3,5-bis[[(2S,3R,4S,5S,6R)-3,4,5-trihydroxy-6-(hydroxymethyl)tetrahydropyran-2-yl]oxy]tetrahydropyran-2-carboxylic acid;(2S,3S,4S,5R,6R)-6-[[(3S,4S,6aR,6bS,8R,8aR,9R,10R,14bR)-9-acetoxy-8-hydroxy-4,8a-bis(hydroxymethyl)-4,6a,6b,11,11,14b-hexamethyl-10-[(E)-2-methylbut-2-enoyl]oxy-1,2,3,4a,5,6,7,8,9,10,12,12a,14,14a-tetradecahydropicen-3-yl]oxy]-4-hydroxy-3,5-bis[[(2S,3R,4S,5S,6R)-3,4,5-trihydroxy-6-(hydroxymethyl)tetrahydropyran-2-yl]oxy]tetrahydropyran-2-carboxylic acid

>  <PUBCHEM_IUPAC_CAS_NAME>
(2S,3S,4S,5R,6R)-6-[[(3S,4S,4aR,6aR,6bS,8R,8aR,9R,10R,12aS,14aR,14bR)-9-acetyloxy-8-hydroxy-4,8a-bis(hydroxymethyl)-4,6a,6b,11,11,14b-hexamethyl-10-[(Z)-2-methyl-1-oxobut-2-enoxy]-1,2,3,4a,5,6,7,8,9,10,12,12a,14,14a-tetradecahydropicen-3-yl]oxy]-4-hydroxy-3,5-bis[[(2S,3R,4S,5S,6R)-3,4,5-trihydroxy-6-(hydroxymethyl)-2-oxanyl]oxy]-2-oxanecarboxylic acid;(2S,3S,4S,5R,6R)-6-[[(3S,4S,6aR,6bS,8R,8aR,9R,10R,14bR)-9-acetyloxy-8-hydroxy-4,8a-bis(hydroxymethyl)-4,6a,6b,11,11,14b-hexamethyl-10-[(E)-2-methyl-1-oxobut-2-enoxy]-1,2,3,4a,5,6,7,8,9,10,12,12a,14,14a-tetradecahydropicen-3-yl]oxy]-4-hydroxy-3,5-bis[[(2S,3R,4S,5S,6R)-3,4,5-trihydroxy-6-(hydroxymethyl)-2-oxanyl]oxy]-2-oxanecarboxylic acid

>  <PUBCHEM_IUPAC_NAME>
(2S,3S,4S,5R,6R)-6-[[(3S,4S,4aR,6aR,6bS,8R,8aR,9R,10R,12aS,14aR,14bR)-9-acetyloxy-8-hydroxy-4,8a-bis(hydroxymethyl)-4,6a,6b,11,11,14b-hexamethyl-10-[(Z)-2-methylbut-2-enoyl]oxy-1,2,3,4a,5,6,7,8,9,10,12,12a,14,14a-tetradecahydropicen-3-yl]oxy]-4-hydroxy-3,5-bis[[(2S,3R,4S,5S,6R)-3,4,5-trihydroxy-6-(hydroxymethyl)oxan-2-yl]oxy]oxane-2-carboxylic acid;(2S,3S,4S,5R,6R)-6-[[(3S,4S,6aR,6bS,8R,8aR,9R,10R,14bR)-9-acetyloxy-8-hydroxy-4,8a-bis(hydroxymethyl)-4,6a,6b,11,11,14b-hexamethyl-10-[(E)-2-methylbut-2-enoyl]oxy-1,2,3,4a,5,6,7,8,9,10,12,12a,14,14a-tetradecahydropicen-3-yl]oxy]-4-hydroxy-3,5-bis[[(2S,3R,4S,5S,6R)-3,4,5-trihydroxy-6-(hydroxymethyl)oxan-2-yl]oxy]oxane-2-carboxylic acid

>  <PUBCHEM_IUPAC_SYSTEMATIC_NAME>
(2S,3S,4S,5R,6R)-6-[[(3S,4S,4aR,6aR,6bS,8R,8aR,9R,10R,12aS,14aR,14bR)-9-acetyloxy-4,8a-bis(hydroxymethyl)-4,6a,6b,11,11,14b-hexamethyl-10-[(Z)-2-methylbut-2-enoyl]oxy-8-oxidanyl-1,2,3,4a,5,6,7,8,9,10,12,12a,14,14a-tetradecahydropicen-3-yl]oxy]-3,5-bis[[(2S,3R,4S,5S,6R)-6-(hydroxymethyl)-3,4,5-tris(oxidanyl)oxan-2-yl]oxy]-4-oxidanyl-oxane-2-carboxylic acid;(2S,3S,4S,5R,6R)-6-[[(3S,4S,6aR,6bS,8R,8aR,9R,10R,14bR)-9-acetyloxy-4,8a-bis(hydroxymethyl)-4,6a,6b,11,11,14b-hexamethyl-10-[(E)-2-methylbut-2-enoyl]oxy-8-oxidanyl-1,2,3,4a,5,6,7,8,9,10,12,12a,14,14a-tetradecahydropicen-3-yl]oxy]-3,5-bis[[(2S,3R,4S,5S,6R)-6-(hydroxymethyl)-3,4,5-tris(oxidanyl)oxan-2-yl]oxy]-4-oxidanyl-oxane-2-carboxylic acid

>  <PUBCHEM_IUPAC_TRADITIONAL_NAME>
(2S,3S,4S,5R,6R)-6-[[(3S,4S,4aR,6aR,6bS,8R,8aR,9R,10R,12aS,14aR,14bR)-9-acetoxy-8-hydroxy-4,6a,6b,11,11,14b-hexamethyl-10-[(Z)-2-methylbut-2-enoyl]oxy-4,8a-dimethylol-1,2,3,4a,5,6,7,8,9,10,12,12a,14,14a-tetradecahydropicen-3-yl]oxy]-4-hydroxy-3,5-bis[[(2S,3R,4S,5S,6R)-3,4,5-trihydroxy-6-methylol-tetrahydropyran-2-yl]oxy]tetrahydropyran-2-carboxylic acid;(2S,3S,4S,5R,6R)-6-[[(3S,4S,6aR,6bS,8R,8aR,9R,10R,14bR)-9-acetoxy-8-hydroxy-4,6a,6b,11,11,14b-hexamethyl-10-[(E)-2-methylbut-2-enoyl]oxy-4,8a-dimethylol-1,2,3,4a,5,6,7,8,9,10,12,12a,14,14a-tetradecahydropicen-3-yl]oxy]-4-hydroxy-3,5-bis[[(2S,3R,4S,5S,6R)-3,4,5-trihydroxy-6-methylol-tetrahydropyran-2-yl]oxy]tetrahydropyran-2-carboxylic acid

>  <PUBCHEM_IUPAC_INCHI>
InChI=1S/2C55H86O24/c2*1-10-23(2)46(71)79-43-44(72-24(3)60)55(22-59)26(17-50(43,4)5)25-11-12-30-51(6)15-14-32(52(7,21-58)29(51)13-16-53(30,8)54(25,9)18-31(55)61)75-49-41(77-48-38(67)36(65)34(63)28(20-57)74-48)39(68)40(42(78-49)45(69)70)76-47-37(66)35(64)33(62)27(19-56)73-47/h2*10-11,26-44,47-49,56-59,61-68H,12-22H2,1-9H3,(H,69,70)/b23-10+;23-10-/t26?,27-,28-,29?,30?,31-,32+,33-,34-,35+,36+,37-,38-,39+,40+,41-,42+,43+,44+,47+,48+,49-,51+,52-,53-,54-,55+;26-,27+,28+,29+,30+,31+,32-,33+,34+,35-,36-,37+,38+,39-,40-,41+,42-,43-,44-,47-,48-,49+,51-,52+,53+,54+,55-/m10/s1

>  <PUBCHEM_IUPAC_INCHIKEY>
YFESOSRPNPYODN-LNXBMLMBSA-N

>  <PUBCHEM_EXACT_MASS>
2262.105

>  <PUBCHEM_MOLECULAR_FORMULA>
C110H172O48

>  <PUBCHEM_MOLECULAR_WEIGHT>
2262.538

>  <PUBCHEM_OPENEYE_CAN_SMILES>
CC=C(C)C(=O)OC1C(C2(C(CC1(C)C)C3=CCC4C5(CCC(C(C5CCC4(C3(CC2O)C)C)(C)CO)OC6C(C(C(C(O6)C(=O)O)OC7C(C(C(C(O7)CO)O)O)O)O)OC8C(C(C(C(O8)CO)O)O)O)C)CO)OC(=O)C.CC=C(C)C(=O)OC1C(C2(C(CC1(C)C)C3=CCC4C5(CCC(C(C5CCC4(C3(CC2O)C)C)(C)CO)OC6C(C(C(C(O6)C(=O)O)OC7C(C(C(C(O7)CO)O)O)O)O)OC8C(C(C(C(O8)CO)O)O)O)C)CO)OC(=O)C

>  <PUBCHEM_OPENEYE_ISO_SMILES>
C/C=C(/C)\C(=O)O[C@H]1[C@@H]([C@@]2([C@@H](C[C@@]3(C(=CC[C@H]4[C@]3(CC[C@@H]5[C@@]4(CC[C@@H]([C@]5(C)CO)O[C@H]6[C@@H]([C@H]([C@@H]([C@H](O6)C(=O)O)O[C@H]7[C@@H]([C@H]([C@@H]([C@H](O7)CO)O)O)O)O)O[C@H]8[C@@H]([C@H]([C@@H]([C@H](O8)CO)O)O)O)C)C)[C@@H]2CC1(C)C)C)O)CO)OC(=O)C.C/C=C(\C)/C(=O)O[C@H]1[C@@H]([C@@]2([C@@H](C[C@@]3(C(=CCC4[C@]3(CCC5[C@@]4(CC[C@@H]([C@]5(C)CO)O[C@H]6[C@@H]([C@H]([C@@H]([C@H](O6)C(=O)O)O[C@H]7[C@@H]([C@H]([C@@H]([C@H](O7)CO)O)O)O)O)O[C@H]8[C@@H]([C@H]([C@@H]([C@H](O8)CO)O)O)O)C)C)C2CC1(C)C)C)O)CO)OC(=O)C

>  <PUBCHEM_CACTVS_TPSA>
776

>  <PUBCHEM_MONOISOTOPIC_WEIGHT>
2261.102

>  <PUBCHEM_TOTAL_CHARGE>
0

>  <PUBCHEM_HEAVY_ATOM_COUNT>
158

>  <PUBCHEM_ATOM_DEF_STEREO_COUNT>
51

>  <PUBCHEM_ATOM_UDEF_STEREO_COUNT>
3

>  <PUBCHEM_BOND_DEF_STEREO_COUNT>
2

>  <PUBCHEM_BOND_UDEF_STEREO_COUNT>
0

>  <PUBCHEM_ISOTOPIC_ATOM_COUNT>
0

>  <PUBCHEM_COMPONENT_COUNT>
2

>  <PUBCHEM_CACTVS_TAUTO_COUNT>
1

>  <PUBCHEM_COORDINATE_TYPE>
1
5
255

>  <PUBCHEM_BONDANNOTATIONS>
77  1  5
119  129  5
120  130  5
143  153  6
144  154  5
113  15  6
127  15  6
151  157  6
152  158  5
114  16  6
128  16  5
78  2  5
117  21  5
118  22  5
121  23  6
137  23  6
122  24  6
138  24  5
109  3  5
81  3  6
135  33  5
136  34  6
139  35  6
140  36  5
145  37  5
146  38  6
147  39  5
110  4  5
82  4  6
148  40  6
149  41  6
150  42  5
155  45  5
156  46  6
49  79  6
93  5  5
50  80  6
51  159  3
52  160  5
53  85  6
54  86  6
55  91  5
56  92  5
57  161  3
58  162  5
94  6  5
63  167  3
64  168  6
65  99  6
66  100  6
69  103  5
97  7  6
70  104  5
98  8  6

$$$$
