6442374
 OpenBabel06101807152D

 35 36  0  0  0  0  0  0  0  0999 V2000
    2.5836   -0.8241    0.0000 O   0  0  0  0  0  0  0  0  0  0  0  0
    4.7785    0.0567    0.0000 O   0  0  0  0  0  0  0  0  0  0  0  0
    4.3958   -1.0194    0.0000 C   0  0  0  0  0  0  0  0  0  0  0  0
    3.5298   -0.5194    0.0000 C   0  0  0  0  0  0  0  0  0  0  0  0
    6.0689    0.0147    0.0000 C   0  0  0  0  0  0  0  0  0  0  0  0
    5.3618    0.7218    0.0000 C   0  0  0  0  0  0  0  0  0  0  0  0
    3.5298    0.4806    0.0000 C   0  0  0  0  0  0  0  0  0  0  0  0
    5.2029   -1.4853    0.0000 C   0  0  0  0  0  0  0  0  0  0  0  0
    6.0689   -0.9853    0.0000 C   0  0  0  0  0  0  0  0  0  0  0  0
    5.6206    1.6877    0.0000 C   0  0  0  0  0  0  0  0  0  0  0  0
    2.5836    0.7853    0.0000 C   0  0  0  0  0  0  0  0  0  0  0  0
    4.3958    0.9806    0.0000 C   0  0  0  0  0  0  0  0  0  0  0  0
    4.6547    1.9465    0.0000 C   0  0  0  0  0  0  0  0  0  0  0  0
    5.1419   -2.4835    0.0000 C   0  0  0  0  0  0  0  0  0  0  0  0
    2.0000   -0.0194    0.0000 C   0  0  0  0  0  0  0  0  0  0  0  0
    6.4866    2.1877    0.0000 C   0  0  0  0  0  0  0  0  0  0  0  0
    2.2729    1.7358    0.0000 C   0  0  0  0  0  0  0  0  0  0  0  0
    4.9328   -0.7094    0.0000 H   0  0  0  0  0  0  0  0  0  0  0  0
    4.0858   -1.5563    0.0000 H   0  0  0  0  0  0  0  0  0  0  0  0
    6.6678   -0.1458    0.0000 H   0  0  0  0  0  0  0  0  0  0  0  0
    6.3789    0.5516    0.0000 H   0  0  0  0  0  0  0  0  0  0  0  0
    4.7999    0.9838    0.0000 H   0  0  0  0  0  0  0  0  0  0  0  0
    5.0062    0.2139    0.0000 H   0  0  0  0  0  0  0  0  0  0  0  0
    6.6058   -1.2953    0.0000 H   0  0  0  0  0  0  0  0  0  0  0  0
    4.3447    2.4835    0.0000 H   0  0  0  0  0  0  0  0  0  0  0  0
    4.5230   -2.4456    0.0000 H   0  0  0  0  0  0  0  0  0  0  0  0
    5.1041   -3.1023    0.0000 H   0  0  0  0  0  0  0  0  0  0  0  0
    5.7607   -2.5213    0.0000 H   0  0  0  0  0  0  0  0  0  0  0  0
    1.3800   -0.0194    0.0000 H   0  0  0  0  0  0  0  0  0  0  0  0
    6.7966    1.6508    0.0000 H   0  0  0  0  0  0  0  0  0  0  0  0
    7.0236    2.4977    0.0000 H   0  0  0  0  0  0  0  0  0  0  0  0
    6.1766    2.7246    0.0000 H   0  0  0  0  0  0  0  0  0  0  0  0
    2.8623    1.9285    0.0000 H   0  0  0  0  0  0  0  0  0  0  0  0
    2.0803    2.3252    0.0000 H   0  0  0  0  0  0  0  0  0  0  0  0
    1.6836    1.5432    0.0000 H   0  0  0  0  0  0  0  0  0  0  0  0
  1  4  1  0  0  0  0
  1 15  1  0  0  0  0
  2 12  2  0  0  0  0
  3  4  1  0  0  0  0
  3  8  1  0  0  0  0
  3 18  1  0  0  0  0
  3 19  1  0  0  0  0
  4  7  2  0  0  0  0
  5  6  1  0  0  0  0
  5  9  1  0  0  0  0
  5 20  1  0  0  0  0
  5 21  1  0  0  0  0
  6 10  1  0  0  0  0
  6 22  1  0  0  0  0
  6 23  1  0  0  0  0
  7 11  1  0  0  0  0
  7 12  1  0  0  0  0
  8  9  2  0  0  0  0
  8 14  1  0  0  0  0
  9 24  1  0  0  0  0
 10 13  2  0  0  0  0
 10 16  1  0  0  0  0
 11 15  2  0  0  0  0
 11 17  1  0  0  0  0
 12 13  1  0  0  0  0
 13 25  1  0  0  0  0
 14 26  1  0  0  0  0
 14 27  1  0  0  0  0
 14 28  1  0  0  0  0
 15 29  1  0  0  0  0
 16 30  1  0  0  0  0
 16 31  1  0  0  0  0
 16 32  1  0  0  0  0
 17 33  1  0  0  0  0
 17 34  1  0  0  0  0
 17 35  1  0  0  0  0
M  END
>  <PUBCHEM_COMPOUND_CID>
6442374

>  <PUBCHEM_COMPOUND_CANONICALIZED>
1

>  <PUBCHEM_CACTVS_COMPLEXITY>
365

>  <PUBCHEM_CACTVS_HBOND_ACCEPTOR>
2

>  <PUBCHEM_CACTVS_HBOND_DONOR>
0

>  <PUBCHEM_CACTVS_ROTATABLE_BOND>
0

>  <PUBCHEM_CACTVS_SUBSKEYS>
AAADceBwMAAAAAAAAAAAAAAAAAAAASAAAAAAAAAAAAAAAACBgAAAGgAAAAAADASgmAIiBIAABECIAqhSgAACCAAkIAAAiAEECMgMJjaMNRqCGWCk4BEIqQeLyGCOgAAAAAAAAAAAAAAAAAAAAAAAAAAAAA==

>  <PUBCHEM_IUPAC_OPENEYE_NAME>
(5Z,9Z)-3,6,10-trimethyl-8,11-dihydro-7H-cyclodeca[b]furan-4-one

>  <PUBCHEM_IUPAC_CAS_NAME>
(5Z,9Z)-3,6,10-trimethyl-8,11-dihydro-7H-cyclodeca[b]furan-4-one

>  <PUBCHEM_IUPAC_NAME>
(5Z,9Z)-3,6,10-trimethyl-8,11-dihydro-7H-cyclodeca[b]furan-4-one

>  <PUBCHEM_IUPAC_SYSTEMATIC_NAME>
(5Z,9Z)-3,6,10-trimethyl-8,11-dihydro-7H-cyclodeca[b]furan-4-one

>  <PUBCHEM_IUPAC_TRADITIONAL_NAME>
(5Z,9Z)-3,6,10-trimethyl-8,11-dihydro-7H-cyclodeca[b]furan-4-one

>  <PUBCHEM_IUPAC_INCHI>
InChI=1S/C15H18O2/c1-10-5-4-6-11(2)8-14-15(13(16)7-10)12(3)9-17-14/h6-7,9H,4-5,8H2,1-3H3/b10-7-,11-6-

>  <PUBCHEM_IUPAC_INCHIKEY>
XVOHELPNOXGRBQ-LXQMTTSMSA-N

>  <PUBCHEM_XLOGP3_AA>
2.9

>  <PUBCHEM_EXACT_MASS>
230.131

>  <PUBCHEM_MOLECULAR_FORMULA>
C15H18O2

>  <PUBCHEM_MOLECULAR_WEIGHT>
230.307

>  <PUBCHEM_OPENEYE_CAN_SMILES>
CC1=CC(=O)C2=C(CC(=CCC1)C)OC=C2C

>  <PUBCHEM_OPENEYE_ISO_SMILES>
C/C/1=C/C(=O)C2=C(C/C(=C\CC1)/C)OC=C2C

>  <PUBCHEM_CACTVS_TPSA>
30.2

>  <PUBCHEM_MONOISOTOPIC_WEIGHT>
230.131

>  <PUBCHEM_TOTAL_CHARGE>
0

>  <PUBCHEM_HEAVY_ATOM_COUNT>
17

>  <PUBCHEM_ATOM_DEF_STEREO_COUNT>
0

>  <PUBCHEM_ATOM_UDEF_STEREO_COUNT>
0

>  <PUBCHEM_BOND_DEF_STEREO_COUNT>
2

>  <PUBCHEM_BOND_UDEF_STEREO_COUNT>
0

>  <PUBCHEM_ISOTOPIC_ATOM_COUNT>
0

>  <PUBCHEM_COMPONENT_COUNT>
1

>  <PUBCHEM_CACTVS_TAUTO_COUNT>
5

>  <PUBCHEM_COORDINATE_TYPE>
1
5
255

>  <PUBCHEM_BONDANNOTATIONS>
1  15  8
1  4  8
11  15  8
4  7  8
7  11  8

$$$$
