6443968
 OpenBabel06101807152D

 34 34  0  0  1  0  0  0  0  0999 V2000
    7.6751   -1.8758    0.0000 O   0  0  0  0  0  0  0  0  0  0  0  0
    2.4608   -2.2359    0.0000 O   0  0  0  0  0  0  0  0  0  0  0  0
    3.6197   -3.5230    0.0000 O   0  0  0  0  0  0  0  0  0  0  0  0
    5.0490    2.9030    0.0000 O   0  0  0  0  0  0  0  0  0  0  0  0
    5.1060   -2.1848    0.0000 C   0  0  2  0  0  0  0  0  0  0  0  0
    5.9150   -1.5970    0.0000 C   0  0  1  0  0  0  0  0  0  0  0  0
    5.4150   -3.1358    0.0000 C   0  0  0  0  0  0  0  0  0  0  0  0
    6.4150   -3.1358    0.0000 C   0  0  0  0  0  0  0  0  0  0  0  0
    6.7240   -2.1848    0.0000 C   0  0  0  0  0  0  0  0  0  0  0  0
    5.9150   -0.5970    0.0000 C   0  0  0  0  0  0  0  0  0  0  0  0
    4.1550   -1.8758    0.0000 C   0  0  0  0  0  0  0  0  0  0  0  0
    6.7810   -0.0970    0.0000 C   0  0  0  0  0  0  0  0  0  0  0  0
    3.4118   -2.5449    0.0000 C   0  0  0  0  0  0  0  0  0  0  0  0
    6.7810    0.9030    0.0000 C   0  0  0  0  0  0  0  0  0  0  0  0
    5.9150    1.4030    0.0000 C   0  0  0  0  0  0  0  0  0  0  0  0
    5.9150    2.4030    0.0000 C   0  0  0  0  0  0  0  0  0  0  0  0
    5.0090   -1.5724    0.0000 H   0  0  0  0  0  0  0  0  0  0  0  0
    6.4675   -1.3155    0.0000 H   0  0  0  0  0  0  0  0  0  0  0  0
    4.8086   -3.2647    0.0000 H   0  0  0  0  0  0  0  0  0  0  0  0
    5.4798   -3.7524    0.0000 H   0  0  0  0  0  0  0  0  0  0  0  0
    6.3502   -3.7524    0.0000 H   0  0  0  0  0  0  0  0  0  0  0  0
    7.0215   -3.2647    0.0000 H   0  0  0  0  0  0  0  0  0  0  0  0
    5.7030   -0.0144    0.0000 H   0  0  0  0  0  0  0  0  0  0  0  0
    5.3044   -0.7046    0.0000 H   0  0  0  0  0  0  0  0  0  0  0  0
    4.4460   -1.3283    0.0000 H   0  0  0  0  0  0  0  0  0  0  0  0
    3.6664   -1.4940    0.0000 H   0  0  0  0  0  0  0  0  0  0  0  0
    7.3180   -0.4070    0.0000 H   0  0  0  0  0  0  0  0  0  0  0  0
    7.3180    1.2130    0.0000 H   0  0  0  0  0  0  0  0  0  0  0  0
    5.3044    1.5107    0.0000 H   0  0  0  0  0  0  0  0  0  0  0  0
    5.7030    0.8204    0.0000 H   0  0  0  0  0  0  0  0  0  0  0  0
    2.0000   -2.6507    0.0000 H   0  0  0  0  0  0  0  0  0  0  0  0
    6.5256    2.2954    0.0000 H   0  0  0  0  0  0  0  0  0  0  0  0
    6.1271    2.9856    0.0000 H   0  0  0  0  0  0  0  0  0  0  0  0
    5.0490    3.5230    0.0000 H   0  0  0  0  0  0  0  0  0  0  0  0
  1  9  2  0  0  0  0
  2 13  1  0  0  0  0
  2 31  1  0  0  0  0
  3 13  2  0  0  0  0
  4 16  1  0  0  0  0
  4 34  1  0  0  0  0
  5  6  1  6  0  0  0
  5  7  1  0  0  0  0
  5 11  1  0  0  0  0
  5 17  1  0  0  0  0
  6  9  1  0  0  0  0
  6 10  1  0  0  0  0
  6 18  1  1  0  0  0
  7  8  1  0  0  0  0
  7 19  1  0  0  0  0
  7 20  1  0  0  0  0
  8  9  1  0  0  0  0
  8 21  1  0  0  0  0
  8 22  1  0  0  0  0
 10 12  1  0  0  0  0
 10 23  1  0  0  0  0
 10 24  1  0  0  0  0
 11 13  1  0  0  0  0
 11 25  1  0  0  0  0
 11 26  1  0  0  0  0
 12 14  2  0  0  0  0
 12 27  1  0  0  0  0
 14 15  1  0  0  0  0
 14 28  1  0  0  0  0
 15 16  1  0  0  0  0
 15 29  1  0  0  0  0
 15 30  1  0  0  0  0
 16 32  1  0  0  0  0
 16 33  1  0  0  0  0
M  END
>  <PUBCHEM_COMPOUND_CID>
6443968

>  <PUBCHEM_COMPOUND_CANONICALIZED>
1

>  <PUBCHEM_CACTVS_COMPLEXITY>
283

>  <PUBCHEM_CACTVS_HBOND_ACCEPTOR>
4

>  <PUBCHEM_CACTVS_HBOND_DONOR>
2

>  <PUBCHEM_CACTVS_ROTATABLE_BOND>
6

>  <PUBCHEM_CACTVS_SUBSKEYS>
AAADceBwOAAAAAAAAAAAAAAAAAAAAYAAAAAAAAAAAAAAAAAAAAAAGgAACAAADQSggAIACAAAAgCIAKDSCAAAAAAgAAAICAEAAAgAEBIAAQAAQAAEwAAIAAOIzqCugAAAAAAAAAAAAAAAAAAAAAAACAAAAA==

>  <PUBCHEM_IUPAC_OPENEYE_NAME>
2-[(1R,2S)-2-[(Z)-5-hydroxypent-2-enyl]-3-oxo-cyclopentyl]acetic acid

>  <PUBCHEM_IUPAC_CAS_NAME>
2-[(1R,2S)-2-[(Z)-5-hydroxypent-2-enyl]-3-oxocyclopentyl]acetic acid

>  <PUBCHEM_IUPAC_NAME>
2-[(1R,2S)-2-[(Z)-5-hydroxypent-2-enyl]-3-oxocyclopentyl]acetic acid

>  <PUBCHEM_IUPAC_SYSTEMATIC_NAME>
2-[(1R,2S)-3-oxidanylidene-2-[(Z)-5-oxidanylpent-2-enyl]cyclopentyl]ethanoic acid

>  <PUBCHEM_IUPAC_TRADITIONAL_NAME>
2-[(1R,2S)-2-[(Z)-5-hydroxypent-2-enyl]-3-keto-cyclopentyl]acetic acid

>  <PUBCHEM_IUPAC_INCHI>
InChI=1S/C12H18O4/c13-7-3-1-2-4-10-9(8-12(15)16)5-6-11(10)14/h1-2,9-10,13H,3-8H2,(H,15,16)/b2-1-/t9-,10+/m1/s1

>  <PUBCHEM_IUPAC_INCHIKEY>
RZGFUGXQKMEMOO-SZXTZRQCSA-N

>  <PUBCHEM_XLOGP3_AA>
0.4

>  <PUBCHEM_EXACT_MASS>
226.121

>  <PUBCHEM_MOLECULAR_FORMULA>
C12H18O4

>  <PUBCHEM_MOLECULAR_WEIGHT>
226.272

>  <PUBCHEM_OPENEYE_CAN_SMILES>
C1CC(=O)C(C1CC(=O)O)CC=CCCO

>  <PUBCHEM_OPENEYE_ISO_SMILES>
C1CC(=O)[C@H]([C@H]1CC(=O)O)C/C=C\CCO

>  <PUBCHEM_CACTVS_TPSA>
74.6

>  <PUBCHEM_MONOISOTOPIC_WEIGHT>
226.121

>  <PUBCHEM_TOTAL_CHARGE>
0

>  <PUBCHEM_HEAVY_ATOM_COUNT>
16

>  <PUBCHEM_ATOM_DEF_STEREO_COUNT>
2

>  <PUBCHEM_ATOM_UDEF_STEREO_COUNT>
0

>  <PUBCHEM_BOND_DEF_STEREO_COUNT>
1

>  <PUBCHEM_BOND_UDEF_STEREO_COUNT>
0

>  <PUBCHEM_ISOTOPIC_ATOM_COUNT>
0

>  <PUBCHEM_COMPONENT_COUNT>
1

>  <PUBCHEM_CACTVS_TAUTO_COUNT>
3

>  <PUBCHEM_COORDINATE_TYPE>
1
5
255

>  <PUBCHEM_BONDANNOTATIONS>
5  11  6
6  10  6

$$$$
