644322
 OpenBabel06101807152D

 40 41  0  0  1  0  0  0  0  0999 V2000
    2.0933    4.3080    0.0000 Br  0  0  0  0  0  0  0  0  0  0  0  0
    2.6691    1.7853    0.0000 O   0  0  0  0  0  0  0  0  0  0  0  0
    6.1808    0.6920    0.0000 O   0  0  0  0  0  0  0  0  0  0  0  0
    7.0468    0.1920    0.0000 O   0  0  0  0  0  0  0  0  0  0  0  0
    4.4487    0.6920    0.0000 N   0  0  0  0  0  0  0  0  0  0  0  0
    6.1808   -1.3080    0.0000 N   0  0  0  0  0  0  0  0  0  0  0  0
    2.0000    2.5284    0.0000 N   0  0  0  0  0  0  0  0  0  0  0  0
    3.5827    2.1920    0.0000 C   0  0  3  0  0  0  0  0  0  0  0  0
    5.3147   -0.8080    0.0000 C   0  0  1  0  0  0  0  0  0  0  0  0
    4.4487    1.6920    0.0000 C   0  0  0  0  0  0  0  0  0  0  0  0
    4.4487   -1.3080    0.0000 C   0  0  0  0  0  0  0  0  0  0  0  0
    3.4782    3.1865    0.0000 C   0  0  0  0  0  0  0  0  0  0  0  0
    5.3147    0.1920    0.0000 C   0  0  0  0  0  0  0  0  0  0  0  0
    4.4487   -2.3080    0.0000 C   0  0  0  0  0  0  0  0  0  0  0  0
    2.5000    3.3944    0.0000 C   0  0  0  0  0  0  0  0  0  0  0  0
    3.5827   -2.8080    0.0000 C   0  0  0  0  0  0  0  0  0  0  0  0
    5.3147   -2.8080    0.0000 C   0  0  0  0  0  0  0  0  0  0  0  0
    7.0468   -0.8080    0.0000 C   0  0  0  0  0  0  0  0  0  0  0  0
    3.5827   -3.8080    0.0000 C   0  0  0  0  0  0  0  0  0  0  0  0
    5.3147   -3.8080    0.0000 C   0  0  0  0  0  0  0  0  0  0  0  0
    4.4487   -4.3080    0.0000 C   0  0  0  0  0  0  0  0  0  0  0  0
    7.9128   -1.3080    0.0000 C   0  0  0  0  0  0  0  0  0  0  0  0
    3.5382    1.3432    0.0000 H   0  0  0  0  0  0  0  0  0  0  0  0
    5.3147   -1.4280    0.0000 H   0  0  0  0  0  0  0  0  0  0  0  0
    5.0593    1.5844    0.0000 H   0  0  0  0  0  0  0  0  0  0  0  0
    4.6608    2.2746    0.0000 H   0  0  0  0  0  0  0  0  0  0  0  0
    4.2366   -0.7254    0.0000 H   0  0  0  0  0  0  0  0  0  0  0  0
    3.8381   -1.4156    0.0000 H   0  0  0  0  0  0  0  0  0  0  0  0
    4.0982    3.1865    0.0000 H   0  0  0  0  0  0  0  0  0  0  0  0
    3.5430    3.8031    0.0000 H   0  0  0  0  0  0  0  0  0  0  0  0
    3.9118    0.3820    0.0000 H   0  0  0  0  0  0  0  0  0  0  0  0
    6.1808   -1.9280    0.0000 H   0  0  0  0  0  0  0  0  0  0  0  0
    3.0457   -2.4980    0.0000 H   0  0  0  0  0  0  0  0  0  0  0  0
    5.8517   -2.4980    0.0000 H   0  0  0  0  0  0  0  0  0  0  0  0
    3.0457   -4.1180    0.0000 H   0  0  0  0  0  0  0  0  0  0  0  0
    5.8517   -4.1180    0.0000 H   0  0  0  0  0  0  0  0  0  0  0  0
    4.4487   -4.9280    0.0000 H   0  0  0  0  0  0  0  0  0  0  0  0
    7.6028   -1.8449    0.0000 H   0  0  0  0  0  0  0  0  0  0  0  0
    8.4497   -1.6180    0.0000 H   0  0  0  0  0  0  0  0  0  0  0  0
    8.2228   -0.7711    0.0000 H   0  0  0  0  0  0  0  0  0  0  0  0
  1 15  1  0  0  0  0
  2  7  1  0  0  0  0
  2  8  1  0  0  0  0
  3 13  2  0  0  0  0
  4 18  2  0  0  0  0
  5 10  1  0  0  0  0
  5 13  1  0  0  0  0
  5 31  1  0  0  0  0
  6 18  1  0  0  0  0
  6 32  1  0  0  0  0
  7 15  2  0  0  0  0
  8 10  1  0  0  0  0
  8 12  1  0  0  0  0
  8 23  1  0  0  0  0
  9  6  1  0  0  0  0
  9 11  1  0  0  0  0
  9 13  1  0  0  0  0
  9 24  1  6  0  0  0
 10 25  1  0  0  0  0
 10 26  1  0  0  0  0
 11 14  1  0  0  0  0
 11 27  1  0  0  0  0
 11 28  1  0  0  0  0
 12 15  1  0  0  0  0
 12 29  1  0  0  0  0
 12 30  1  0  0  0  0
 14 16  2  0  0  0  0
 14 17  1  0  0  0  0
 16 19  1  0  0  0  0
 16 33  1  0  0  0  0
 17 20  2  0  0  0  0
 17 34  1  0  0  0  0
 18 22  1  0  0  0  0
 19 21  2  0  0  0  0
 19 35  1  0  0  0  0
 20 21  1  0  0  0  0
 20 36  1  0  0  0  0
 21 37  1  0  0  0  0
 22 38  1  0  0  0  0
 22 39  1  0  0  0  0
 22 40  1  0  0  0  0
M  END
>  <PUBCHEM_COMPOUND_CID>
644322

>  <PUBCHEM_COMPOUND_CANONICALIZED>
1

>  <PUBCHEM_CACTVS_COMPLEXITY>
436

>  <PUBCHEM_CACTVS_HBOND_ACCEPTOR>
4

>  <PUBCHEM_CACTVS_HBOND_DONOR>
2

>  <PUBCHEM_CACTVS_ROTATABLE_BOND>
6

>  <PUBCHEM_CACTVS_SUBSKEYS>
AAADceBzMAAAEAAAAAAAAAAAAAAAAQAAAAAwAAAAAAAAAAABAAAAHgBUAAABDDzhmAYyAILQAACoAiFyEAACAAAgAAAIiIG4AKgKYDKAkTGUIAAglgCYiAcYiICOAAAAAAAAAAAAAAAAAAAAAAAAAAAAAA==

>  <PUBCHEM_IUPAC_OPENEYE_NAME>
(2S)-2-acetamido-N-[(3-bromo-4,5-dihydroisoxazol-5-yl)methyl]-3-phenyl-propanamide

>  <PUBCHEM_IUPAC_CAS_NAME>
(2S)-2-acetamido-N-[(3-bromo-4,5-dihydroisoxazol-5-yl)methyl]-3-phenylpropanamide

>  <PUBCHEM_IUPAC_NAME>
(2S)-2-acetamido-N-[(3-bromo-4,5-dihydro-1,2-oxazol-5-yl)methyl]-3-phenylpropanamide

>  <PUBCHEM_IUPAC_SYSTEMATIC_NAME>
(2S)-2-acetamido-N-[(3-bromanyl-4,5-dihydro-1,2-oxazol-5-yl)methyl]-3-phenyl-propanamide

>  <PUBCHEM_IUPAC_TRADITIONAL_NAME>
(2S)-2-acetamido-N-[(3-bromo-2-isoxazolin-5-yl)methyl]-3-phenyl-propionamide

>  <PUBCHEM_IUPAC_INCHI>
InChI=1S/C15H18BrN3O3/c1-10(20)18-13(7-11-5-3-2-4-6-11)15(21)17-9-12-8-14(16)19-22-12/h2-6,12-13H,7-9H2,1H3,(H,17,21)(H,18,20)/t12?,13-/m0/s1

>  <PUBCHEM_IUPAC_INCHIKEY>
BSTJPNGHACQASN-ABLWVSNPSA-N

>  <PUBCHEM_XLOGP3_AA>
1.6

>  <PUBCHEM_EXACT_MASS>
367.053

>  <PUBCHEM_MOLECULAR_FORMULA>
C15H18BrN3O3

>  <PUBCHEM_MOLECULAR_WEIGHT>
368.231

>  <PUBCHEM_OPENEYE_CAN_SMILES>
CC(=O)NC(CC1=CC=CC=C1)C(=O)NCC2CC(=NO2)Br

>  <PUBCHEM_OPENEYE_ISO_SMILES>
CC(=O)N[C@@H](CC1=CC=CC=C1)C(=O)NCC2CC(=NO2)Br

>  <PUBCHEM_CACTVS_TPSA>
79.8

>  <PUBCHEM_MONOISOTOPIC_WEIGHT>
367.053

>  <PUBCHEM_TOTAL_CHARGE>
0

>  <PUBCHEM_HEAVY_ATOM_COUNT>
22

>  <PUBCHEM_ATOM_DEF_STEREO_COUNT>
1

>  <PUBCHEM_ATOM_UDEF_STEREO_COUNT>
1

>  <PUBCHEM_BOND_DEF_STEREO_COUNT>
0

>  <PUBCHEM_BOND_UDEF_STEREO_COUNT>
0

>  <PUBCHEM_ISOTOPIC_ATOM_COUNT>
0

>  <PUBCHEM_COMPONENT_COUNT>
1

>  <PUBCHEM_CACTVS_TAUTO_COUNT>
8

>  <PUBCHEM_COORDINATE_TYPE>
1
5
255

>  <PUBCHEM_BONDANNOTATIONS>
14  16  8
14  17  8
16  19  8
17  20  8
19  21  8
20  21  8
9  6  5
8  23  3

$$$$
