6443008
 OpenBabel06101807152D

 48 48  0  0  1  0  0  0  0  0999 V2000
    7.0000    0.3455    0.0000 S   0  0  0  0  0  0  0  0  0  0  0  0
    3.0000   -1.3865    0.0000 S   0  0  3  0  0  0  0  0  0  0  0  0
    6.0000   -3.1186    0.0000 S   0  0  0  0  0  0  0  0  0  0  0  0
    7.3660    1.7115    0.0000 O   0  0  0  0  0  0  0  0  0  0  0  0
    4.7680    1.2115    0.0000 O   0  0  0  0  0  0  0  0  0  0  0  0
    4.7680    3.2115    0.0000 O   0  0  0  0  0  0  0  0  0  0  0  0
    6.5000    4.2115    0.0000 O   0  0  0  0  0  0  0  0  0  0  0  0
    9.0981    2.7115    0.0000 O   0  0  0  0  0  0  0  0  0  0  0  0
    7.5000   -0.5205    0.0000 O   0  0  0  0  0  0  0  0  0  0  0  0
    6.5000   -2.2526    0.0000 O   0  0  0  0  0  0  0  0  0  0  0  0
    3.5000   -2.2526    0.0000 O   0  0  0  0  0  0  0  0  0  0  0  0
    5.5000   -3.9846    0.0000 O   0  0  0  0  0  0  0  0  0  0  0  0
    6.8660   -3.6186    0.0000 O   0  0  0  0  0  0  0  0  0  0  0  0
    5.1340   -2.6186    0.0000 O   0  0  0  0  0  0  0  0  0  0  0  0
    6.0000   -1.3865    0.0000 N   0  0  0  0  0  0  0  0  0  0  0  0
    6.5000    1.2115    0.0000 C   0  0  2  0  0  0  0  0  0  0  0  0
    5.6340    1.7115    0.0000 C   0  0  1  0  0  0  0  0  0  0  0  0
    5.6340    2.7115    0.0000 C   0  0  2  0  0  0  0  0  0  0  0  0
    6.5000    3.2115    0.0000 C   0  0  1  0  0  0  0  0  0  0  0  0
    7.3660    2.7115    0.0000 C   0  0  1  0  0  0  0  0  0  0  0  0
    6.0000    0.3455    0.0000 C   0  0  3  0  0  0  0  0  0  0  0  0
    5.0000    0.3455    0.0000 C   0  0  0  0  0  0  0  0  0  0  0  0
    8.2320    3.2115    0.0000 C   0  0  0  0  0  0  0  0  0  0  0  0
    6.5000   -0.5205    0.0000 C   0  0  0  0  0  0  0  0  0  0  0  0
    4.5000   -0.5205    0.0000 C   0  0  0  0  0  0  0  0  0  0  0  0
    3.5000   -0.5205    0.0000 C   0  0  0  0  0  0  0  0  0  0  0  0
    2.0000   -1.3865    0.0000 C   0  0  0  0  0  0  0  0  0  0  0  0
    5.6340    1.0915    0.0000 H   0  0  0  0  0  0  0  0  0  0  0  0
    5.6340    3.3315    0.0000 H   0  0  0  0  0  0  0  0  0  0  0  0
    7.0369    3.5215    0.0000 H   0  0  0  0  0  0  0  0  0  0  0  0
    7.9030    2.4015    0.0000 H   0  0  0  0  0  0  0  0  0  0  0  0
    5.5750    1.0816    0.0000 H   0  0  0  0  0  0  0  0  0  0  0  0
    5.1077    0.9561    0.0000 H   0  0  0  0  0  0  0  0  0  0  0  0
    4.4174    0.5576    0.0000 H   0  0  0  0  0  0  0  0  0  0  0  0
    8.6306    3.6865    0.0000 H   0  0  0  0  0  0  0  0  0  0  0  0
    7.8335    3.6865    0.0000 H   0  0  0  0  0  0  0  0  0  0  0  0
    7.6200    0.3455    0.0000 H   0  0  0  0  0  0  0  0  0  0  0  0
    4.2310    1.5215    0.0000 H   0  0  0  0  0  0  0  0  0  0  0  0
    4.7680    3.8315    0.0000 H   0  0  0  0  0  0  0  0  0  0  0  0
    7.0369    4.5215    0.0000 H   0  0  0  0  0  0  0  0  0  0  0  0
    4.8100   -1.0574    0.0000 H   0  0  0  0  0  0  0  0  0  0  0  0
    5.3800   -1.3865    0.0000 H   0  0  0  0  0  0  0  0  0  0  0  0
    9.6350    3.0215    0.0000 H   0  0  0  0  0  0  0  0  0  0  0  0
    3.1900    0.0164    0.0000 H   0  0  0  0  0  0  0  0  0  0  0  0
    2.0000   -0.7665    0.0000 H   0  0  0  0  0  0  0  0  0  0  0  0
    1.3800   -1.3865    0.0000 H   0  0  0  0  0  0  0  0  0  0  0  0
    2.0000   -2.0065    0.0000 H   0  0  0  0  0  0  0  0  0  0  0  0
    5.8100   -4.5215    0.0000 H   0  0  0  0  0  0  0  0  0  0  0  0
  1 37  1  0  0  0  0
  2 11  2  0  0  0  0
  2 26  1  0  0  0  0
  2 27  1  0  0  0  0
  3 10  1  0  0  0  0
  3 12  1  0  0  0  0
  3 13  2  0  0  0  0
  3 14  2  0  0  0  0
  4 16  1  0  0  0  0
  4 20  1  0  0  0  0
  5 38  1  0  0  0  0
  6 39  1  0  0  0  0
  7 40  1  0  0  0  0
  8 23  1  0  0  0  0
  8 43  1  0  0  0  0
  9 24  2  0  0  0  0
 10 15  1  0  0  0  0
 12 48  1  0  0  0  0
 15 24  1  0  0  0  0
 15 42  1  0  0  0  0
 16  1  1  0  0  0  0
 16 17  1  1  0  0  0
 16 21  1  0  0  0  0
 17  5  1  0  0  0  0
 17 18  1  1  0  0  0
 17 28  1  0  0  0  0
 18  6  1  0  0  0  0
 18 19  1  1  0  0  0
 18 29  1  0  0  0  0
 19  7  1  0  0  0  0
 19 20  1  6  0  0  0
 19 30  1  0  0  0  0
 20 23  1  0  0  0  0
 20 31  1  6  0  0  0
 21 22  1  0  0  0  0
 21 24  1  0  0  0  0
 21 32  1  0  0  0  0
 22 25  1  0  0  0  0
 22 33  1  0  0  0  0
 22 34  1  0  0  0  0
 23 35  1  0  0  0  0
 23 36  1  0  0  0  0
 25 26  2  0  0  0  0
 25 41  1  0  0  0  0
 26 44  1  0  0  0  0
 27 45  1  0  0  0  0
 27 46  1  0  0  0  0
 27 47  1  0  0  0  0
M  END
>  <PUBCHEM_COMPOUND_CID>
6443008

>  <PUBCHEM_COMPOUND_CANONICALIZED>
1

>  <PUBCHEM_CACTVS_COMPLEXITY>
679

>  <PUBCHEM_CACTVS_HBOND_ACCEPTOR>
13

>  <PUBCHEM_CACTVS_HBOND_DONOR>
7

>  <PUBCHEM_CACTVS_ROTATABLE_BOND>
8

>  <PUBCHEM_CACTVS_SUBSKEYS>
AAADceByPABgAAAAAAAAAAAAAAAAAAAAAAAkAAAAAAAAAAAAAAAAHgQUCAAADRSlwAKCAABQBo6IACFSEHAAAAAgAAAoAAEAAAgBEBYAgQACQAAHsAADAAH6/PTOAAAAAAAAAAAAAAAAAAAAAAAAAAAAAA==

>  <PUBCHEM_IUPAC_OPENEYE_NAME>
[[(E)-5-methylsulfinyl-2-[(2S,3R,4S,5S,6R)-3,4,5-trihydroxy-6-(hydroxymethyl)-2-sulfanyl-tetrahydropyran-2-yl]pent-4-enoyl]amino] hydrogen sulfate

>  <PUBCHEM_IUPAC_CAS_NAME>
sulfuric acid [[(E)-5-methylsulfinyl-1-oxo-2-[(2S,3R,4S,5S,6R)-3,4,5-trihydroxy-6-(hydroxymethyl)-2-mercapto-2-oxanyl]pent-4-enyl]amino] ester

>  <PUBCHEM_IUPAC_NAME>
[[(E)-5-methylsulfinyl-2-[(2S,3R,4S,5S,6R)-3,4,5-trihydroxy-6-(hydroxymethyl)-2-sulfanyloxan-2-yl]pent-4-enoyl]amino] hydrogen sulfate

>  <PUBCHEM_IUPAC_SYSTEMATIC_NAME>
[[(E)-2-[(2S,3R,4S,5S,6R)-6-(hydroxymethyl)-3,4,5-tris(oxidanyl)-2-sulfanyl-oxan-2-yl]-5-methylsulfinyl-pent-4-enoyl]amino] hydrogen sulfate

>  <PUBCHEM_IUPAC_TRADITIONAL_NAME>
sulfuric acid [[(E)-5-methylsulfinyl-2-[(2S,3R,4S,5S,6R)-3,4,5-trihydroxy-2-mercapto-6-methylol-tetrahydropyran-2-yl]pent-4-enoyl]amino] ester

>  <PUBCHEM_IUPAC_INCHI>
InChI=1S/C12H21NO11S3/c1-26(19)4-2-3-6(11(18)13-24-27(20,21)22)12(25)10(17)9(16)8(15)7(5-14)23-12/h2,4,6-10,14-17,25H,3,5H2,1H3,(H,13,18)(H,20,21,22)/b4-2+/t6?,7-,8-,9+,10-,12+,26?/m1/s1

>  <PUBCHEM_IUPAC_INCHIKEY>
URMYQRGDHJRORU-IPQUCONDSA-N

>  <PUBCHEM_XLOGP3_AA>
-3.5

>  <PUBCHEM_EXACT_MASS>
451.028

>  <PUBCHEM_MOLECULAR_FORMULA>
C12H21NO11S3

>  <PUBCHEM_MOLECULAR_WEIGHT>
451.476

>  <PUBCHEM_OPENEYE_CAN_SMILES>
CS(=O)C=CCC(C(=O)NOS(=O)(=O)O)C1(C(C(C(C(O1)CO)O)O)O)S

>  <PUBCHEM_OPENEYE_ISO_SMILES>
CS(=O)/C=C/CC(C(=O)NOS(=O)(=O)O)[C@@]1([C@@H]([C@H]([C@@H]([C@H](O1)CO)O)O)O)S

>  <PUBCHEM_CACTVS_TPSA>
229

>  <PUBCHEM_MONOISOTOPIC_WEIGHT>
451.028

>  <PUBCHEM_TOTAL_CHARGE>
0

>  <PUBCHEM_HEAVY_ATOM_COUNT>
27

>  <PUBCHEM_ATOM_DEF_STEREO_COUNT>
5

>  <PUBCHEM_ATOM_UDEF_STEREO_COUNT>
2

>  <PUBCHEM_BOND_DEF_STEREO_COUNT>
1

>  <PUBCHEM_BOND_UDEF_STEREO_COUNT>
0

>  <PUBCHEM_ISOTOPIC_ATOM_COUNT>
0

>  <PUBCHEM_COMPONENT_COUNT>
1

>  <PUBCHEM_CACTVS_TAUTO_COUNT>
3

>  <PUBCHEM_COORDINATE_TYPE>
1
5
255

>  <PUBCHEM_BONDANNOTATIONS>
16  1  5
2  26  3
20  23  5
21  32  3
17  5  6
18  6  5
19  7  6

$$$$
