6444291
 OpenBabel06101807152D

 48 49  0  0  1  0  0  0  0  0999 V2000
    4.2690   -1.3450    0.0000 O   0  0  0  0  0  0  0  0  0  0  0  0
    4.2690   -4.3450    0.0000 O   0  0  0  0  0  0  0  0  0  0  0  0
    2.5369   -3.3450    0.0000 O   0  0  0  0  0  0  0  0  0  0  0  0
    6.0010   -1.3450    0.0000 O   0  0  0  0  0  0  0  0  0  0  0  0
    6.0010   -3.3450    0.0000 O   0  0  0  0  0  0  0  0  0  0  0  0
    2.5369   -0.3450    0.0000 O   0  0  0  0  0  0  0  0  0  0  0  0
    7.7331    1.6550    0.0000 O   0  0  0  0  0  0  0  0  0  0  0  0
    3.4030    4.1550    0.0000 O   0  0  0  0  0  0  0  0  0  0  0  0
    2.5369    2.6550    0.0000 O   0  0  0  0  0  0  0  0  0  0  0  0
    4.2690   -3.3450    0.0000 C   0  0  1  0  0  0  0  0  0  0  0  0
    3.4030   -2.8450    0.0000 C   0  0  1  0  0  0  0  0  0  0  0  0
    3.4030   -1.8450    0.0000 C   0  0  1  0  0  0  0  0  0  0  0  0
    5.1350   -2.8450    0.0000 C   0  0  2  0  0  0  0  0  0  0  0  0
    5.1350   -1.8450    0.0000 C   0  0  1  0  0  0  0  0  0  0  0  0
    2.5369   -1.3450    0.0000 C   0  0  0  0  0  0  0  0  0  0  0  0
    6.0010   -0.3450    0.0000 C   0  0  0  0  0  0  0  0  0  0  0  0
    5.1350    0.1550    0.0000 C   0  0  0  0  0  0  0  0  0  0  0  0
    6.8671    0.1550    0.0000 C   0  0  0  0  0  0  0  0  0  0  0  0
    5.1350    1.1550    0.0000 C   0  0  0  0  0  0  0  0  0  0  0  0
    6.8671    1.1550    0.0000 C   0  0  0  0  0  0  0  0  0  0  0  0
    6.0010    1.6550    0.0000 C   0  0  0  0  0  0  0  0  0  0  0  0
    4.2690    1.6550    0.0000 C   0  0  0  0  0  0  0  0  0  0  0  0
    4.2690    2.6550    0.0000 C   0  0  0  0  0  0  0  0  0  0  0  0
    7.7331    2.6550    0.0000 C   0  0  0  0  0  0  0  0  0  0  0  0
    3.4030    3.1550    0.0000 C   0  0  0  0  0  0  0  0  0  0  0  0
    2.5369    4.6550    0.0000 C   0  0  0  0  0  0  0  0  0  0  0  0
    4.8059   -3.6550    0.0000 H   0  0  0  0  0  0  0  0  0  0  0  0
    3.4030   -3.4650    0.0000 H   0  0  0  0  0  0  0  0  0  0  0  0
    5.6720   -2.5350    0.0000 H   0  0  0  0  0  0  0  0  0  0  0  0
    3.4030   -1.2250    0.0000 H   0  0  0  0  0  0  0  0  0  0  0  0
    5.1350   -1.2250    0.0000 H   0  0  0  0  0  0  0  0  0  0  0  0
    1.9264   -1.2373    0.0000 H   0  0  0  0  0  0  0  0  0  0  0  0
    2.3249   -1.9276    0.0000 H   0  0  0  0  0  0  0  0  0  0  0  0
    3.7320   -4.6550    0.0000 H   0  0  0  0  0  0  0  0  0  0  0  0
    2.0000   -3.0350    0.0000 H   0  0  0  0  0  0  0  0  0  0  0  0
    6.5380   -3.0350    0.0000 H   0  0  0  0  0  0  0  0  0  0  0  0
    2.0000   -0.0350    0.0000 H   0  0  0  0  0  0  0  0  0  0  0  0
    4.5981   -0.1550    0.0000 H   0  0  0  0  0  0  0  0  0  0  0  0
    7.4040   -0.1550    0.0000 H   0  0  0  0  0  0  0  0  0  0  0  0
    6.0010    2.2750    0.0000 H   0  0  0  0  0  0  0  0  0  0  0  0
    3.7320    1.3450    0.0000 H   0  0  0  0  0  0  0  0  0  0  0  0
    4.8059    2.9650    0.0000 H   0  0  0  0  0  0  0  0  0  0  0  0
    8.3531    2.6550    0.0000 H   0  0  0  0  0  0  0  0  0  0  0  0
    7.7331    3.2750    0.0000 H   0  0  0  0  0  0  0  0  0  0  0  0
    7.1131    2.6550    0.0000 H   0  0  0  0  0  0  0  0  0  0  0  0
    2.8469    5.1919    0.0000 H   0  0  0  0  0  0  0  0  0  0  0  0
    2.0000    4.9650    0.0000 H   0  0  0  0  0  0  0  0  0  0  0  0
    2.2269    4.1181    0.0000 H   0  0  0  0  0  0  0  0  0  0  0  0
  1 12  1  0  0  0  0
  1 14  1  0  0  0  0
  2 34  1  0  0  0  0
  3 35  1  0  0  0  0
  4 16  1  0  0  0  0
  5 36  1  0  0  0  0
  6 15  1  0  0  0  0
  6 37  1  0  0  0  0
  7 20  1  0  0  0  0
  7 24  1  0  0  0  0
  8 25  1  0  0  0  0
  8 26  1  0  0  0  0
  9 25  2  0  0  0  0
 10  2  1  0  0  0  0
 10 11  1  6  0  0  0
 10 27  1  0  0  0  0
 11  3  1  0  0  0  0
 11 12  1  1  0  0  0
 11 28  1  0  0  0  0
 12 15  1  0  0  0  0
 12 30  1  6  0  0  0
 13  5  1  0  0  0  0
 13 10  1  1  0  0  0
 13 29  1  0  0  0  0
 14  4  1  0  0  0  0
 14 13  1  6  0  0  0
 14 31  1  0  0  0  0
 15 32  1  0  0  0  0
 15 33  1  0  0  0  0
 16 17  1  0  0  0  0
 16 18  2  0  0  0  0
 17 19  2  0  0  0  0
 17 38  1  0  0  0  0
 18 20  1  0  0  0  0
 18 39  1  0  0  0  0
 19 21  1  0  0  0  0
 19 22  1  0  0  0  0
 20 21  2  0  0  0  0
 21 40  1  0  0  0  0
 22 23  2  0  0  0  0
 22 41  1  0  0  0  0
 23 25  1  0  0  0  0
 23 42  1  0  0  0  0
 24 43  1  0  0  0  0
 24 44  1  0  0  0  0
 24 45  1  0  0  0  0
 26 46  1  0  0  0  0
 26 47  1  0  0  0  0
 26 48  1  0  0  0  0
M  END
>  <PUBCHEM_COMPOUND_CID>
6444291

>  <PUBCHEM_COMPOUND_CANONICALIZED>
1

>  <PUBCHEM_CACTVS_COMPLEXITY>
483

>  <PUBCHEM_CACTVS_HBOND_ACCEPTOR>
9

>  <PUBCHEM_CACTVS_HBOND_DONOR>
4

>  <PUBCHEM_CACTVS_ROTATABLE_BOND>
7

>  <PUBCHEM_CACTVS_SUBSKEYS>
AAADceB4PAAAAAAAAAAAAAAAAAAAAAAAAAA0QAAAAAAAAAABAAAAGgAACAAADBSwmAMyDoAABgCIAiDSCAACCAAgIAAIiAAGCMgdNyKEMRqieCClwBUPqYfA4BwOAAABCAAAAAAAAAIQAAAAAAAAAAAAAA==

>  <PUBCHEM_IUPAC_OPENEYE_NAME>
methyl (E)-3-[3-methoxy-5-[(2S,3R,4S,5S,6R)-3,4,5-trihydroxy-6-(hydroxymethyl)tetrahydropyran-2-yl]oxy-phenyl]prop-2-enoate

>  <PUBCHEM_IUPAC_CAS_NAME>
(E)-3-[3-methoxy-5-[[(2S,3R,4S,5S,6R)-3,4,5-trihydroxy-6-(hydroxymethyl)-2-oxanyl]oxy]phenyl]-2-propenoic acid methyl ester

>  <PUBCHEM_IUPAC_NAME>
methyl (E)-3-[3-methoxy-5-[(2S,3R,4S,5S,6R)-3,4,5-trihydroxy-6-(hydroxymethyl)oxan-2-yl]oxyphenyl]prop-2-enoate

>  <PUBCHEM_IUPAC_SYSTEMATIC_NAME>
methyl (E)-3-[3-[(2S,3R,4S,5S,6R)-6-(hydroxymethyl)-3,4,5-tris(oxidanyl)oxan-2-yl]oxy-5-methoxy-phenyl]prop-2-enoate

>  <PUBCHEM_IUPAC_TRADITIONAL_NAME>
(E)-3-[3-methoxy-5-[(2S,3R,4S,5S,6R)-3,4,5-trihydroxy-6-methylol-tetrahydropyran-2-yl]oxy-phenyl]acrylic acid methyl ester

>  <PUBCHEM_IUPAC_INCHI>
InChI=1S/C17H22O9/c1-23-10-5-9(3-4-13(19)24-2)6-11(7-10)25-17-16(22)15(21)14(20)12(8-18)26-17/h3-7,12,14-18,20-22H,8H2,1-2H3/b4-3+/t12-,14-,15+,16-,17-/m1/s1

>  <PUBCHEM_IUPAC_INCHIKEY>
USFDIQKRDRIDPN-CTYIEIGBSA-N

>  <PUBCHEM_XLOGP3>
-0.2

>  <PUBCHEM_EXACT_MASS>
370.126

>  <PUBCHEM_MOLECULAR_FORMULA>
C17H22O9

>  <PUBCHEM_MOLECULAR_WEIGHT>
370.354

>  <PUBCHEM_OPENEYE_CAN_SMILES>
COC1=CC(=CC(=C1)OC2C(C(C(C(O2)CO)O)O)O)C=CC(=O)OC

>  <PUBCHEM_OPENEYE_ISO_SMILES>
COC1=CC(=CC(=C1)O[C@H]2[C@@H]([C@H]([C@@H]([C@H](O2)CO)O)O)O)/C=C/C(=O)OC

>  <PUBCHEM_CACTVS_TPSA>
135

>  <PUBCHEM_MONOISOTOPIC_WEIGHT>
370.126

>  <PUBCHEM_TOTAL_CHARGE>
0

>  <PUBCHEM_HEAVY_ATOM_COUNT>
26

>  <PUBCHEM_ATOM_DEF_STEREO_COUNT>
5

>  <PUBCHEM_ATOM_UDEF_STEREO_COUNT>
0

>  <PUBCHEM_BOND_DEF_STEREO_COUNT>
1

>  <PUBCHEM_BOND_UDEF_STEREO_COUNT>
0

>  <PUBCHEM_ISOTOPIC_ATOM_COUNT>
0

>  <PUBCHEM_COMPONENT_COUNT>
1

>  <PUBCHEM_CACTVS_TAUTO_COUNT>
1

>  <PUBCHEM_COORDINATE_TYPE>
1
5
255

>  <PUBCHEM_BONDANNOTATIONS>
12  15  5
16  17  8
16  18  8
17  19  8
18  20  8
19  21  8
10  2  5
20  21  8
11  3  6
14  4  5
13  5  6

$$$$
