6450152
 OpenBabel06101807152D

103104  0  0  1  0  0  0  0  0999 V2000
   11.1972    2.7500    0.0000 O   0  0  0  0  0  0  0  0  0  0  0  0
    9.4651    3.7500    0.0000 O   0  0  0  0  0  0  0  0  0  0  0  0
   10.3312    0.2500    0.0000 O   0  0  0  0  0  0  0  0  0  0  0  0
    8.5991    5.2500    0.0000 O   0  0  0  0  0  0  0  0  0  0  0  0
   12.0632    0.2500    0.0000 O   0  0  0  0  0  0  0  0  0  0  0  0
    9.4651    0.7500    0.0000 O   0  0  0  0  0  0  0  0  0  0  0  0
   12.9292    2.7500    0.0000 O   0  0  0  0  0  0  0  0  0  0  0  0
   12.9292    1.7500    0.0000 O   0  0  0  0  0  0  0  0  0  0  0  0
   12.2132    0.4000    0.0000 O   0  0  0  0  0  0  0  0  0  0  0  0
    7.7331    2.7500    0.0000 O   0  0  0  0  0  0  0  0  0  0  0  0
    6.0010    3.7500    0.0000 O   0  0  0  0  0  0  0  0  0  0  0  0
    6.0010    5.7500    0.0000 O   0  0  0  0  0  0  0  0  0  0  0  0
    8.5991    7.2500    0.0000 O   0  0  0  0  0  0  0  0  0  0  0  0
   11.1972   -1.2500    0.0000 O   0  0  0  0  0  0  0  0  0  0  0  0
   11.1972    0.7500    0.0000 C   0  0  2  0  0  0  0  0  0  0  0  0
   10.3312    1.2500    0.0000 C   0  0  2  0  0  0  0  0  0  0  0  0
   10.3312    2.2500    0.0000 C   0  0  1  0  0  0  0  0  0  0  0  0
   12.0632    1.2500    0.0000 C   0  0  0  0  0  0  0  0  0  0  0  0
   12.0632    2.2500    0.0000 C   0  0  1  0  0  0  0  0  0  0  0  0
    9.4651    2.7500    0.0000 C   0  0  0  0  0  0  0  0  0  0  0  0
    8.5991    4.2500    0.0000 C   0  0  1  0  0  0  0  0  0  0  0  0
    7.7331    3.7500    0.0000 C   0  0  2  0  0  0  0  0  0  0  0  0
    6.8671    4.2500    0.0000 C   0  0  2  0  0  0  0  0  0  0  0  0
    6.8671    5.2500    0.0000 C   0  0  2  0  0  0  0  0  0  0  0  0
    7.7331    5.7500    0.0000 C   0  0  1  0  0  0  0  0  0  0  0  0
    7.7331    6.7500    0.0000 C   0  0  0  0  0  0  0  0  0  0  0  0
   10.3312   -0.7500    0.0000 C   0  0  0  0  0  0  0  0  0  0  0  0
   12.9292    3.7500    0.0000 C   0  0  0  0  0  0  0  0  0  0  0  0
    9.4651   -1.2500    0.0000 C   0  0  0  0  0  0  0  0  0  0  0  0
   13.7953    4.2500    0.0000 C   0  0  0  0  0  0  0  0  0  0  0  0
    9.4651   -2.2500    0.0000 C   0  0  0  0  0  0  0  0  0  0  0  0
    8.5991   -2.7500    0.0000 C   0  0  0  0  0  0  0  0  0  0  0  0
    8.5991   -3.7500    0.0000 C   0  0  0  0  0  0  0  0  0  0  0  0
   13.7953    5.2500    0.0000 C   0  0  0  0  0  0  0  0  0  0  0  0
    7.7331   -4.2500    0.0000 C   0  0  0  0  0  0  0  0  0  0  0  0
    7.7331   -5.2500    0.0000 C   0  0  0  0  0  0  0  0  0  0  0  0
    6.8671   -5.7500    0.0000 C   0  0  0  0  0  0  0  0  0  0  0  0
    6.8671   -6.7500    0.0000 C   0  0  0  0  0  0  0  0  0  0  0  0
    6.0010   -7.2500    0.0000 C   0  0  0  0  0  0  0  0  0  0  0  0
    5.1350   -6.7500    0.0000 C   0  0  0  0  0  0  0  0  0  0  0  0
    4.2690   -7.2500    0.0000 C   0  0  0  0  0  0  0  0  0  0  0  0
    3.4030   -6.7500    0.0000 C   0  0  0  0  0  0  0  0  0  0  0  0
    3.4030   -5.7500    0.0000 C   0  0  0  0  0  0  0  0  0  0  0  0
    2.5369   -5.2500    0.0000 C   0  0  0  0  0  0  0  0  0  0  0  0
    2.5369   -4.2500    0.0000 C   0  0  0  0  0  0  0  0  0  0  0  0
    3.4030   -3.7500    0.0000 C   0  0  0  0  0  0  0  0  0  0  0  0
    3.4030   -2.7500    0.0000 C   0  0  0  0  0  0  0  0  0  0  0  0
    9.7942    1.5600    0.0000 H   0  0  0  0  0  0  0  0  0  0  0  0
   10.3312    2.8700    0.0000 H   0  0  0  0  0  0  0  0  0  0  0  0
   12.0632    2.8700    0.0000 H   0  0  0  0  0  0  0  0  0  0  0  0
    8.8546    2.8577    0.0000 H   0  0  0  0  0  0  0  0  0  0  0  0
    9.2531    2.1674    0.0000 H   0  0  0  0  0  0  0  0  0  0  0  0
    8.5991    3.6300    0.0000 H   0  0  0  0  0  0  0  0  0  0  0  0
    7.1962    3.4400    0.0000 H   0  0  0  0  0  0  0  0  0  0  0  0
    6.3301    4.5600    0.0000 H   0  0  0  0  0  0  0  0  0  0  0  0
    6.8671    5.8700    0.0000 H   0  0  0  0  0  0  0  0  0  0  0  0
    8.2700    6.0600    0.0000 H   0  0  0  0  0  0  0  0  0  0  0  0
   12.0632   -0.3700    0.0000 H   0  0  0  0  0  0  0  0  0  0  0  0
    8.9282    1.0600    0.0000 H   0  0  0  0  0  0  0  0  0  0  0  0
   13.4662    1.4400    0.0000 H   0  0  0  0  0  0  0  0  0  0  0  0
   12.6002   -0.0600    0.0000 H   0  0  0  0  0  0  0  0  0  0  0  0
    7.5210    7.3326    0.0000 H   0  0  0  0  0  0  0  0  0  0  0  0
    7.1225    6.6423    0.0000 H   0  0  0  0  0  0  0  0  0  0  0  0
   12.7172    4.3326    0.0000 H   0  0  0  0  0  0  0  0  0  0  0  0
   12.3187    3.6423    0.0000 H   0  0  0  0  0  0  0  0  0  0  0  0
    7.1962    2.4400    0.0000 H   0  0  0  0  0  0  0  0  0  0  0  0
    5.4641    4.0600    0.0000 H   0  0  0  0  0  0  0  0  0  0  0  0
    6.0010    6.3700    0.0000 H   0  0  0  0  0  0  0  0  0  0  0  0
    9.2531   -0.6674    0.0000 H   0  0  0  0  0  0  0  0  0  0  0  0
    8.8546   -1.3577    0.0000 H   0  0  0  0  0  0  0  0  0  0  0  0
   14.0073    3.6674    0.0000 H   0  0  0  0  0  0  0  0  0  0  0  0
   14.4058    4.3577    0.0000 H   0  0  0  0  0  0  0  0  0  0  0  0
    9.6772   -2.8326    0.0000 H   0  0  0  0  0  0  0  0  0  0  0  0
   10.0757   -2.1423    0.0000 H   0  0  0  0  0  0  0  0  0  0  0  0
    8.3871   -2.1674    0.0000 H   0  0  0  0  0  0  0  0  0  0  0  0
    7.9885   -2.8577    0.0000 H   0  0  0  0  0  0  0  0  0  0  0  0
    8.5991    7.8700    0.0000 H   0  0  0  0  0  0  0  0  0  0  0  0
    8.8112   -4.3326    0.0000 H   0  0  0  0  0  0  0  0  0  0  0  0
    9.2097   -3.6423    0.0000 H   0  0  0  0  0  0  0  0  0  0  0  0
   14.4153    5.2500    0.0000 H   0  0  0  0  0  0  0  0  0  0  0  0
   13.7953    5.8700    0.0000 H   0  0  0  0  0  0  0  0  0  0  0  0
   13.1753    5.2500    0.0000 H   0  0  0  0  0  0  0  0  0  0  0  0
    7.5210   -3.6674    0.0000 H   0  0  0  0  0  0  0  0  0  0  0  0
    7.1225   -4.3577    0.0000 H   0  0  0  0  0  0  0  0  0  0  0  0
    7.9451   -5.8326    0.0000 H   0  0  0  0  0  0  0  0  0  0  0  0
    8.3437   -5.1423    0.0000 H   0  0  0  0  0  0  0  0  0  0  0  0
    6.6550   -5.1674    0.0000 H   0  0  0  0  0  0  0  0  0  0  0  0
    6.2565   -5.8577    0.0000 H   0  0  0  0  0  0  0  0  0  0  0  0
    7.4040   -7.0600    0.0000 H   0  0  0  0  0  0  0  0  0  0  0  0
    6.0010   -7.8700    0.0000 H   0  0  0  0  0  0  0  0  0  0  0  0
    5.5335   -6.2750    0.0000 H   0  0  0  0  0  0  0  0  0  0  0  0
    4.7365   -6.2750    0.0000 H   0  0  0  0  0  0  0  0  0  0  0  0
    4.2690   -7.8700    0.0000 H   0  0  0  0  0  0  0  0  0  0  0  0
    2.8660   -7.0600    0.0000 H   0  0  0  0  0  0  0  0  0  0  0  0
    4.0135   -5.8577    0.0000 H   0  0  0  0  0  0  0  0  0  0  0  0
    3.6150   -5.1674    0.0000 H   0  0  0  0  0  0  0  0  0  0  0  0
    2.0000   -5.5600    0.0000 H   0  0  0  0  0  0  0  0  0  0  0  0
    2.0000   -3.9400    0.0000 H   0  0  0  0  0  0  0  0  0  0  0  0
    3.6150   -4.3326    0.0000 H   0  0  0  0  0  0  0  0  0  0  0  0
    4.0135   -3.6423    0.0000 H   0  0  0  0  0  0  0  0  0  0  0  0
    4.0230   -2.7500    0.0000 H   0  0  0  0  0  0  0  0  0  0  0  0
    3.4030   -2.1300    0.0000 H   0  0  0  0  0  0  0  0  0  0  0  0
    2.7830   -2.7500    0.0000 H   0  0  0  0  0  0  0  0  0  0  0  0
  1 17  1  0  0  0  0
  1 19  1  0  0  0  0
  2 20  1  0  0  0  0
  3 15  1  0  0  0  0
  3 27  1  0  0  0  0
  4 21  1  0  0  0  0
  4 25  1  0  0  0  0
  5 58  1  0  0  0  0
  6 59  1  0  0  0  0
  7 28  1  0  0  0  0
  8 18  1  0  0  0  0
  8 60  1  0  0  0  0
  9 18  1  0  0  0  0
  9 61  1  0  0  0  0
 10 66  1  0  0  0  0
 11 67  1  0  0  0  0
 12 68  1  0  0  0  0
 13 26  1  0  0  0  0
 13 77  1  0  0  0  0
 14 27  2  0  0  0  0
 15  5  1  0  0  0  0
 15 16  1  1  0  0  0
 15 18  1  0  0  0  0
 16  6  1  0  0  0  0
 16 17  1  1  0  0  0
 16 48  1  0  0  0  0
 17 20  1  0  0  0  0
 17 49  1  6  0  0  0
 18 19  1  0  0  0  0
 19  7  1  0  0  0  0
 19 50  1  6  0  0  0
 20 51  1  0  0  0  0
 20 52  1  0  0  0  0
 21  2  1  0  0  0  0
 21 22  1  6  0  0  0
 21 53  1  0  0  0  0
 22 10  1  0  0  0  0
 22 23  1  1  0  0  0
 22 54  1  0  0  0  0
 23 11  1  0  0  0  0
 23 24  1  1  0  0  0
 23 55  1  0  0  0  0
 24 12  1  0  0  0  0
 24 25  1  1  0  0  0
 24 56  1  0  0  0  0
 25 26  1  0  0  0  0
 25 57  1  6  0  0  0
 26 62  1  0  0  0  0
 26 63  1  0  0  0  0
 27 29  1  0  0  0  0
 28 30  1  0  0  0  0
 28 64  1  0  0  0  0
 28 65  1  0  0  0  0
 29 31  1  0  0  0  0
 29 69  1  0  0  0  0
 29 70  1  0  0  0  0
 30 34  1  0  0  0  0
 30 71  1  0  0  0  0
 30 72  1  0  0  0  0
 31 32  1  0  0  0  0
 31 73  1  0  0  0  0
 31 74  1  0  0  0  0
 32 33  1  0  0  0  0
 32 75  1  0  0  0  0
 32 76  1  0  0  0  0
 33 35  1  0  0  0  0
 33 78  1  0  0  0  0
 33 79  1  0  0  0  0
 34 80  1  0  0  0  0
 34 81  1  0  0  0  0
 34 82  1  0  0  0  0
 35 36  1  0  0  0  0
 35 83  1  0  0  0  0
 35 84  1  0  0  0  0
 36 37  1  0  0  0  0
 36 85  1  0  0  0  0
 36 86  1  0  0  0  0
 37 38  1  0  0  0  0
 37 87  1  0  0  0  0
 37 88  1  0  0  0  0
 38 39  2  0  0  0  0
 38 89  1  0  0  0  0
 39 40  1  0  0  0  0
 39 90  1  0  0  0  0
 40 41  1  0  0  0  0
 40 91  1  0  0  0  0
 40 92  1  0  0  0  0
 41 42  2  0  0  0  0
 41 93  1  0  0  0  0
 42 43  1  0  0  0  0
 42 94  1  0  0  0  0
 43 44  1  0  0  0  0
 43 95  1  0  0  0  0
 43 96  1  0  0  0  0
 44 45  2  0  0  0  0
 44 97  1  0  0  0  0
 45 46  1  0  0  0  0
 45 98  1  0  0  0  0
 46 47  1  0  0  0  0
 46 99  1  0  0  0  0
 46100  1  0  0  0  0
 47101  1  0  0  0  0
 47102  1  0  0  0  0
 47103  1  0  0  0  0
M  END
>  <PUBCHEM_COMPOUND_CID>
6450152

>  <PUBCHEM_COMPOUND_CANONICALIZED>
1

>  <PUBCHEM_CACTVS_COMPLEXITY>
971

>  <PUBCHEM_CACTVS_HBOND_ACCEPTOR>
14

>  <PUBCHEM_CACTVS_HBOND_DONOR>
8

>  <PUBCHEM_CACTVS_ROTATABLE_BOND>
22

>  <PUBCHEM_CACTVS_SUBSKEYS>
AAADcfB8PAAAAAAAAAAAAAAAAAAAAAAAAAAkSAAAAAAAAAAAAAAAGgAACAAACBSwgAMCCAAABgCIACDSCAAAAAAgAAAICAEAAAgREBIAAQAiQAAFgAAPAAPI6KyAAAAAAAAAAAAAAAAAAAAAAAAAAAAAAA==

>  <PUBCHEM_IUPAC_OPENEYE_NAME>
[(2R,4R,5S,6R)-3,3,4,5-tetrahydroxy-2-propoxy-6-[[(2S,3S,4S,5R,6R)-3,4,5-trihydroxy-6-(hydroxymethyl)tetrahydropyran-2-yl]oxymethyl]tetrahydropyran-4-yl] (9Z,12Z,15Z)-octadeca-9,12,15-trienoate

>  <PUBCHEM_IUPAC_CAS_NAME>
(9Z,12Z,15Z)-octadeca-9,12,15-trienoic acid [(2R,4R,5S,6R)-3,3,4,5-tetrahydroxy-2-propoxy-6-[[(2S,3S,4S,5R,6R)-3,4,5-trihydroxy-6-(hydroxymethyl)-2-oxanyl]oxymethyl]-4-oxanyl] ester

>  <PUBCHEM_IUPAC_NAME>
[(2R,4R,5S,6R)-3,3,4,5-tetrahydroxy-2-propoxy-6-[[(2S,3S,4S,5R,6R)-3,4,5-trihydroxy-6-(hydroxymethyl)oxan-2-yl]oxymethyl]oxan-4-yl] (9Z,12Z,15Z)-octadeca-9,12,15-trienoate

>  <PUBCHEM_IUPAC_SYSTEMATIC_NAME>
[(2R,4R,5S,6R)-6-[[(2S,3S,4S,5R,6R)-6-(hydroxymethyl)-3,4,5-tris(oxidanyl)oxan-2-yl]oxymethyl]-3,3,4,5-tetrakis(oxidanyl)-2-propoxy-oxan-4-yl] (9Z,12Z,15Z)-octadeca-9,12,15-trienoate

>  <PUBCHEM_IUPAC_TRADITIONAL_NAME>
(9Z,12Z,15Z)-octadeca-9,12,15-trienoic acid [(2R,4R,5S,6R)-3,3,4,5-tetrahydroxy-2-propoxy-6-[[(2S,3S,4S,5R,6R)-3,4,5-trihydroxy-6-methylol-tetrahydropyran-2-yl]oxymethyl]tetrahydropyran-4-yl] ester

>  <PUBCHEM_IUPAC_INCHI>
InChI=1S/C33H56O14/c1-3-5-6-7-8-9-10-11-12-13-14-15-16-17-18-19-25(35)47-33(42)29(39)24(46-31(32(33,40)41)43-20-4-2)22-44-30-28(38)27(37)26(36)23(21-34)45-30/h5-6,8-9,11-12,23-24,26-31,34,36-42H,3-4,7,10,13-22H2,1-2H3/b6-5-,9-8-,12-11-/t23-,24-,26+,27+,28+,29+,30+,31-,33-/m1/s1

>  <PUBCHEM_IUPAC_INCHIKEY>
JWMITOKTALGFJL-QQNQLOICSA-N

>  <PUBCHEM_XLOGP3_AA>
2.4

>  <PUBCHEM_EXACT_MASS>
676.367

>  <PUBCHEM_MOLECULAR_FORMULA>
C33H56O14

>  <PUBCHEM_MOLECULAR_WEIGHT>
676.797

>  <PUBCHEM_OPENEYE_CAN_SMILES>
CCCOC1C(C(C(C(O1)COC2C(C(C(C(O2)CO)O)O)O)O)(O)OC(=O)CCCCCCCC=CCC=CCC=CCC)(O)O

>  <PUBCHEM_OPENEYE_ISO_SMILES>
CCCO[C@H]1C([C@]([C@H]([C@H](O1)CO[C@@H]2[C@H]([C@H]([C@H]([C@H](O2)CO)O)O)O)O)(O)OC(=O)CCCCCCC/C=C\C/C=C\C/C=C\CC)(O)O

>  <PUBCHEM_CACTVS_TPSA>
225

>  <PUBCHEM_MONOISOTOPIC_WEIGHT>
676.367

>  <PUBCHEM_TOTAL_CHARGE>
0

>  <PUBCHEM_HEAVY_ATOM_COUNT>
47

>  <PUBCHEM_ATOM_DEF_STEREO_COUNT>
9

>  <PUBCHEM_ATOM_UDEF_STEREO_COUNT>
0

>  <PUBCHEM_BOND_DEF_STEREO_COUNT>
3

>  <PUBCHEM_BOND_UDEF_STEREO_COUNT>
0

>  <PUBCHEM_ISOTOPIC_ATOM_COUNT>
0

>  <PUBCHEM_COMPONENT_COUNT>
1

>  <PUBCHEM_CACTVS_TAUTO_COUNT>
1

>  <PUBCHEM_COORDINATE_TYPE>
1
5
255

>  <PUBCHEM_BONDANNOTATIONS>
22  10  5
23  11  5
24  12  5
17  20  5
21  2  6
25  26  5
15  5  5
16  6  5
19  7  5

$$$$
