6450013
 OpenBabel06101807152D

107108  0  0  1  0  0  0  0  0999 V2000
   14.1244    2.7500    0.0000 O   0  0  0  0  0  0  0  0  0  0  0  0
   12.3923    3.7500    0.0000 O   0  0  0  0  0  0  0  0  0  0  0  0
   13.2583    0.2500    0.0000 O   0  0  0  0  0  0  0  0  0  0  0  0
   11.5263    5.2500    0.0000 O   0  0  0  0  0  0  0  0  0  0  0  0
   14.9904    0.2500    0.0000 O   0  0  0  0  0  0  0  0  0  0  0  0
   12.3923    0.7500    0.0000 O   0  0  0  0  0  0  0  0  0  0  0  0
   15.8564    2.7500    0.0000 O   0  0  0  0  0  0  0  0  0  0  0  0
   15.8564    1.7500    0.0000 O   0  0  0  0  0  0  0  0  0  0  0  0
   15.1404    0.4000    0.0000 O   0  0  0  0  0  0  0  0  0  0  0  0
   10.6603    2.7500    0.0000 O   0  0  0  0  0  0  0  0  0  0  0  0
    8.9282    3.7500    0.0000 O   0  0  0  0  0  0  0  0  0  0  0  0
    8.9282    5.7500    0.0000 O   0  0  0  0  0  0  0  0  0  0  0  0
   11.5263    7.2500    0.0000 O   0  0  0  0  0  0  0  0  0  0  0  0
   14.1244   -1.2500    0.0000 O   0  0  0  0  0  0  0  0  0  0  0  0
   14.1244    0.7500    0.0000 C   0  0  2  0  0  0  0  0  0  0  0  0
   13.2583    1.2500    0.0000 C   0  0  2  0  0  0  0  0  0  0  0  0
   13.2583    2.2500    0.0000 C   0  0  1  0  0  0  0  0  0  0  0  0
   14.9904    1.2500    0.0000 C   0  0  0  0  0  0  0  0  0  0  0  0
   14.9904    2.2500    0.0000 C   0  0  1  0  0  0  0  0  0  0  0  0
   12.3923    2.7500    0.0000 C   0  0  0  0  0  0  0  0  0  0  0  0
   11.5263    4.2500    0.0000 C   0  0  1  0  0  0  0  0  0  0  0  0
   10.6603    3.7500    0.0000 C   0  0  2  0  0  0  0  0  0  0  0  0
    9.7942    4.2500    0.0000 C   0  0  2  0  0  0  0  0  0  0  0  0
    9.7942    5.2500    0.0000 C   0  0  2  0  0  0  0  0  0  0  0  0
   10.6603    5.7500    0.0000 C   0  0  1  0  0  0  0  0  0  0  0  0
   10.6603    6.7500    0.0000 C   0  0  0  0  0  0  0  0  0  0  0  0
   13.2583   -0.7500    0.0000 C   0  0  0  0  0  0  0  0  0  0  0  0
   15.8564    3.7500    0.0000 C   0  0  0  0  0  0  0  0  0  0  0  0
   12.3923   -1.2500    0.0000 C   0  0  0  0  0  0  0  0  0  0  0  0
   16.7224    4.2500    0.0000 C   0  0  0  0  0  0  0  0  0  0  0  0
   12.3923   -2.2500    0.0000 C   0  0  0  0  0  0  0  0  0  0  0  0
   11.5263   -2.7500    0.0000 C   0  0  0  0  0  0  0  0  0  0  0  0
   11.5263   -3.7500    0.0000 C   0  0  0  0  0  0  0  0  0  0  0  0
   16.7224    5.2500    0.0000 C   0  0  0  0  0  0  0  0  0  0  0  0
   10.6603   -4.2500    0.0000 C   0  0  0  0  0  0  0  0  0  0  0  0
   10.6603   -5.2500    0.0000 C   0  0  0  0  0  0  0  0  0  0  0  0
    9.7942   -5.7500    0.0000 C   0  0  0  0  0  0  0  0  0  0  0  0
    6.3301   -6.7500    0.0000 C   0  0  0  0  0  0  0  0  0  0  0  0
    5.4641   -7.2500    0.0000 C   0  0  0  0  0  0  0  0  0  0  0  0
    7.1962   -7.2500    0.0000 C   0  0  0  0  0  0  0  0  0  0  0  0
    9.7942   -6.7500    0.0000 C   0  0  0  0  0  0  0  0  0  0  0  0
    4.5981   -6.7500    0.0000 C   0  0  0  0  0  0  0  0  0  0  0  0
    8.0622   -6.7500    0.0000 C   0  0  0  0  0  0  0  0  0  0  0  0
    8.9282   -7.2500    0.0000 C   0  0  0  0  0  0  0  0  0  0  0  0
    3.7320   -7.2500    0.0000 C   0  0  0  0  0  0  0  0  0  0  0  0
    2.8660   -6.7500    0.0000 C   0  0  0  0  0  0  0  0  0  0  0  0
    2.0000   -7.2500    0.0000 C   0  0  0  0  0  0  0  0  0  0  0  0
   12.7214    1.5600    0.0000 H   0  0  0  0  0  0  0  0  0  0  0  0
   13.2583    2.8700    0.0000 H   0  0  0  0  0  0  0  0  0  0  0  0
   14.9904    2.8700    0.0000 H   0  0  0  0  0  0  0  0  0  0  0  0
   11.7817    2.8577    0.0000 H   0  0  0  0  0  0  0  0  0  0  0  0
   12.1803    2.1674    0.0000 H   0  0  0  0  0  0  0  0  0  0  0  0
   11.5263    3.6300    0.0000 H   0  0  0  0  0  0  0  0  0  0  0  0
   10.1233    3.4400    0.0000 H   0  0  0  0  0  0  0  0  0  0  0  0
    9.2573    4.5600    0.0000 H   0  0  0  0  0  0  0  0  0  0  0  0
    9.7942    5.8700    0.0000 H   0  0  0  0  0  0  0  0  0  0  0  0
   11.1972    6.0600    0.0000 H   0  0  0  0  0  0  0  0  0  0  0  0
   14.9904   -0.3700    0.0000 H   0  0  0  0  0  0  0  0  0  0  0  0
   11.8554    1.0600    0.0000 H   0  0  0  0  0  0  0  0  0  0  0  0
   16.3933    1.4400    0.0000 H   0  0  0  0  0  0  0  0  0  0  0  0
   15.5273   -0.0600    0.0000 H   0  0  0  0  0  0  0  0  0  0  0  0
   10.4482    7.3326    0.0000 H   0  0  0  0  0  0  0  0  0  0  0  0
   10.0497    6.6423    0.0000 H   0  0  0  0  0  0  0  0  0  0  0  0
   15.6444    4.3326    0.0000 H   0  0  0  0  0  0  0  0  0  0  0  0
   15.2458    3.6423    0.0000 H   0  0  0  0  0  0  0  0  0  0  0  0
   10.1233    2.4400    0.0000 H   0  0  0  0  0  0  0  0  0  0  0  0
    8.3913    4.0600    0.0000 H   0  0  0  0  0  0  0  0  0  0  0  0
    8.9282    6.3700    0.0000 H   0  0  0  0  0  0  0  0  0  0  0  0
   12.1803   -0.6674    0.0000 H   0  0  0  0  0  0  0  0  0  0  0  0
   11.7817   -1.3577    0.0000 H   0  0  0  0  0  0  0  0  0  0  0  0
   16.9345    3.6674    0.0000 H   0  0  0  0  0  0  0  0  0  0  0  0
   17.3330    4.3577    0.0000 H   0  0  0  0  0  0  0  0  0  0  0  0
   12.6044   -2.8326    0.0000 H   0  0  0  0  0  0  0  0  0  0  0  0
   13.0029   -2.1423    0.0000 H   0  0  0  0  0  0  0  0  0  0  0  0
   11.3142   -2.1674    0.0000 H   0  0  0  0  0  0  0  0  0  0  0  0
   10.9157   -2.8577    0.0000 H   0  0  0  0  0  0  0  0  0  0  0  0
   11.5263    7.8700    0.0000 H   0  0  0  0  0  0  0  0  0  0  0  0
   11.7383   -4.3326    0.0000 H   0  0  0  0  0  0  0  0  0  0  0  0
   12.1369   -3.6423    0.0000 H   0  0  0  0  0  0  0  0  0  0  0  0
   17.3424    5.2500    0.0000 H   0  0  0  0  0  0  0  0  0  0  0  0
   16.7224    5.8700    0.0000 H   0  0  0  0  0  0  0  0  0  0  0  0
   16.1024    5.2500    0.0000 H   0  0  0  0  0  0  0  0  0  0  0  0
   10.4482   -3.6674    0.0000 H   0  0  0  0  0  0  0  0  0  0  0  0
   10.0497   -4.3577    0.0000 H   0  0  0  0  0  0  0  0  0  0  0  0
   10.8723   -5.8326    0.0000 H   0  0  0  0  0  0  0  0  0  0  0  0
   11.2708   -5.1423    0.0000 H   0  0  0  0  0  0  0  0  0  0  0  0
    9.5822   -5.1674    0.0000 H   0  0  0  0  0  0  0  0  0  0  0  0
    9.1836   -5.8577    0.0000 H   0  0  0  0  0  0  0  0  0  0  0  0
    6.7287   -6.2750    0.0000 H   0  0  0  0  0  0  0  0  0  0  0  0
    5.9316   -6.2750    0.0000 H   0  0  0  0  0  0  0  0  0  0  0  0
    5.0656   -7.7250    0.0000 H   0  0  0  0  0  0  0  0  0  0  0  0
    5.8626   -7.7250    0.0000 H   0  0  0  0  0  0  0  0  0  0  0  0
    6.7976   -7.7250    0.0000 H   0  0  0  0  0  0  0  0  0  0  0  0
    7.5947   -7.7250    0.0000 H   0  0  0  0  0  0  0  0  0  0  0  0
   10.3312   -7.0600    0.0000 H   0  0  0  0  0  0  0  0  0  0  0  0
    4.9966   -6.2750    0.0000 H   0  0  0  0  0  0  0  0  0  0  0  0
    4.1996   -6.2750    0.0000 H   0  0  0  0  0  0  0  0  0  0  0  0
    8.4607   -6.2750    0.0000 H   0  0  0  0  0  0  0  0  0  0  0  0
    7.6636   -6.2750    0.0000 H   0  0  0  0  0  0  0  0  0  0  0  0
    3.3335   -7.7250    0.0000 H   0  0  0  0  0  0  0  0  0  0  0  0
    4.1306   -7.7250    0.0000 H   0  0  0  0  0  0  0  0  0  0  0  0
    8.9282   -7.8700    0.0000 H   0  0  0  0  0  0  0  0  0  0  0  0
    3.2646   -6.2750    0.0000 H   0  0  0  0  0  0  0  0  0  0  0  0
    2.4675   -6.2750    0.0000 H   0  0  0  0  0  0  0  0  0  0  0  0
    1.6900   -6.7131    0.0000 H   0  0  0  0  0  0  0  0  0  0  0  0
    1.4631   -7.5600    0.0000 H   0  0  0  0  0  0  0  0  0  0  0  0
    2.3100   -7.7869    0.0000 H   0  0  0  0  0  0  0  0  0  0  0  0
  1 17  1  0  0  0  0
  1 19  1  0  0  0  0
  2 20  1  0  0  0  0
  3 15  1  0  0  0  0
  3 27  1  0  0  0  0
  4 21  1  0  0  0  0
  4 25  1  0  0  0  0
  5 58  1  0  0  0  0
  6 59  1  0  0  0  0
  7 28  1  0  0  0  0
  8 18  1  0  0  0  0
  8 60  1  0  0  0  0
  9 18  1  0  0  0  0
  9 61  1  0  0  0  0
 10 66  1  0  0  0  0
 11 67  1  0  0  0  0
 12 68  1  0  0  0  0
 13 26  1  0  0  0  0
 13 77  1  0  0  0  0
 14 27  2  0  0  0  0
 15  5  1  0  0  0  0
 15 16  1  1  0  0  0
 15 18  1  0  0  0  0
 16  6  1  0  0  0  0
 16 17  1  1  0  0  0
 16 48  1  0  0  0  0
 17 20  1  0  0  0  0
 17 49  1  6  0  0  0
 18 19  1  0  0  0  0
 19  7  1  0  0  0  0
 19 50  1  6  0  0  0
 20 51  1  0  0  0  0
 20 52  1  0  0  0  0
 21  2  1  0  0  0  0
 21 22  1  6  0  0  0
 21 53  1  0  0  0  0
 22 10  1  0  0  0  0
 22 23  1  1  0  0  0
 22 54  1  0  0  0  0
 23 11  1  0  0  0  0
 23 24  1  1  0  0  0
 23 55  1  0  0  0  0
 24 12  1  0  0  0  0
 24 25  1  1  0  0  0
 24 56  1  0  0  0  0
 25 26  1  0  0  0  0
 25 57  1  6  0  0  0
 26 62  1  0  0  0  0
 26 63  1  0  0  0  0
 27 29  1  0  0  0  0
 28 30  1  0  0  0  0
 28 64  1  0  0  0  0
 28 65  1  0  0  0  0
 29 31  1  0  0  0  0
 29 69  1  0  0  0  0
 29 70  1  0  0  0  0
 30 34  1  0  0  0  0
 30 71  1  0  0  0  0
 30 72  1  0  0  0  0
 31 32  1  0  0  0  0
 31 73  1  0  0  0  0
 31 74  1  0  0  0  0
 32 33  1  0  0  0  0
 32 75  1  0  0  0  0
 32 76  1  0  0  0  0
 33 35  1  0  0  0  0
 33 78  1  0  0  0  0
 33 79  1  0  0  0  0
 34 80  1  0  0  0  0
 34 81  1  0  0  0  0
 34 82  1  0  0  0  0
 35 36  1  0  0  0  0
 35 83  1  0  0  0  0
 35 84  1  0  0  0  0
 36 37  1  0  0  0  0
 36 85  1  0  0  0  0
 36 86  1  0  0  0  0
 37 41  1  0  0  0  0
 37 87  1  0  0  0  0
 37 88  1  0  0  0  0
 38 39  1  0  0  0  0
 38 40  1  0  0  0  0
 38 89  1  0  0  0  0
 38 90  1  0  0  0  0
 39 42  1  0  0  0  0
 39 91  1  0  0  0  0
 39 92  1  0  0  0  0
 40 43  1  0  0  0  0
 40 93  1  0  0  0  0
 40 94  1  0  0  0  0
 41 44  2  0  0  0  0
 41 95  1  0  0  0  0
 42 45  1  0  0  0  0
 42 96  1  0  0  0  0
 42 97  1  0  0  0  0
 43 44  1  0  0  0  0
 43 98  1  0  0  0  0
 43 99  1  0  0  0  0
 44102  1  0  0  0  0
 45 46  1  0  0  0  0
 45100  1  0  0  0  0
 45101  1  0  0  0  0
 46 47  1  0  0  0  0
 46103  1  0  0  0  0
 46104  1  0  0  0  0
 47105  1  0  0  0  0
 47106  1  0  0  0  0
 47107  1  0  0  0  0
M  END
>  <PUBCHEM_COMPOUND_CID>
6450013

>  <PUBCHEM_COMPOUND_CANONICALIZED>
1

>  <PUBCHEM_CACTVS_COMPLEXITY>
887

>  <PUBCHEM_CACTVS_HBOND_ACCEPTOR>
14

>  <PUBCHEM_CACTVS_HBOND_DONOR>
8

>  <PUBCHEM_CACTVS_ROTATABLE_BOND>
24

>  <PUBCHEM_CACTVS_SUBSKEYS>
AAADcfB8PAAAAAAAAAAAAAAAAAAAAAAAAAAkSAAAAAAAAAAAAAAAGgAACAAACBSwgAMCCAAABgCIACDSCAAAAAAgAAAICAEAAAgREBIAAQAiQAAFgAAPAAPI6KyAAAAAAAAAAAAAAAAAAAAAAAAAAAAAAA==

>  <PUBCHEM_IUPAC_OPENEYE_NAME>
[(2R,4R,5S,6R)-3,3,4,5-tetrahydroxy-2-propoxy-6-[[(2S,3S,4S,5R,6R)-3,4,5-trihydroxy-6-(hydroxymethyl)tetrahydropyran-2-yl]oxymethyl]tetrahydropyran-4-yl] (Z)-octadec-9-enoate

>  <PUBCHEM_IUPAC_CAS_NAME>
(Z)-9-octadecenoic acid [(2R,4R,5S,6R)-3,3,4,5-tetrahydroxy-2-propoxy-6-[[(2S,3S,4S,5R,6R)-3,4,5-trihydroxy-6-(hydroxymethyl)-2-oxanyl]oxymethyl]-4-oxanyl] ester

>  <PUBCHEM_IUPAC_NAME>
[(2R,4R,5S,6R)-3,3,4,5-tetrahydroxy-2-propoxy-6-[[(2S,3S,4S,5R,6R)-3,4,5-trihydroxy-6-(hydroxymethyl)oxan-2-yl]oxymethyl]oxan-4-yl] (Z)-octadec-9-enoate

>  <PUBCHEM_IUPAC_SYSTEMATIC_NAME>
[(2R,4R,5S,6R)-6-[[(2S,3S,4S,5R,6R)-6-(hydroxymethyl)-3,4,5-tris(oxidanyl)oxan-2-yl]oxymethyl]-3,3,4,5-tetrakis(oxidanyl)-2-propoxy-oxan-4-yl] (Z)-octadec-9-enoate

>  <PUBCHEM_IUPAC_TRADITIONAL_NAME>
(Z)-octadec-9-enoic acid [(2R,4R,5S,6R)-3,3,4,5-tetrahydroxy-2-propoxy-6-[[(2S,3S,4S,5R,6R)-3,4,5-trihydroxy-6-methylol-tetrahydropyran-2-yl]oxymethyl]tetrahydropyran-4-yl] ester

>  <PUBCHEM_IUPAC_INCHI>
InChI=1S/C33H60O14/c1-3-5-6-7-8-9-10-11-12-13-14-15-16-17-18-19-25(35)47-33(42)29(39)24(46-31(32(33,40)41)43-20-4-2)22-44-30-28(38)27(37)26(36)23(21-34)45-30/h11-12,23-24,26-31,34,36-42H,3-10,13-22H2,1-2H3/b12-11-/t23-,24-,26+,27+,28+,29+,30+,31-,33-/m1/s1

>  <PUBCHEM_IUPAC_INCHIKEY>
PJXRZWXBCYISPA-IQWVMRMJSA-N

>  <PUBCHEM_XLOGP3_AA>
3.8

>  <PUBCHEM_EXACT_MASS>
680.398

>  <PUBCHEM_MOLECULAR_FORMULA>
C33H60O14

>  <PUBCHEM_MOLECULAR_WEIGHT>
680.829

>  <PUBCHEM_OPENEYE_CAN_SMILES>
CCCCCCCCC=CCCCCCCCC(=O)OC1(C(C(OC(C1(O)O)OCCC)COC2C(C(C(C(O2)CO)O)O)O)O)O

>  <PUBCHEM_OPENEYE_ISO_SMILES>
CCCCCCCC/C=C\CCCCCCCC(=O)O[C@@]1([C@H]([C@H](O[C@H](C1(O)O)OCCC)CO[C@@H]2[C@H]([C@H]([C@H]([C@H](O2)CO)O)O)O)O)O

>  <PUBCHEM_CACTVS_TPSA>
225

>  <PUBCHEM_MONOISOTOPIC_WEIGHT>
680.398

>  <PUBCHEM_TOTAL_CHARGE>
0

>  <PUBCHEM_HEAVY_ATOM_COUNT>
47

>  <PUBCHEM_ATOM_DEF_STEREO_COUNT>
9

>  <PUBCHEM_ATOM_UDEF_STEREO_COUNT>
0

>  <PUBCHEM_BOND_DEF_STEREO_COUNT>
1

>  <PUBCHEM_BOND_UDEF_STEREO_COUNT>
0

>  <PUBCHEM_ISOTOPIC_ATOM_COUNT>
0

>  <PUBCHEM_COMPONENT_COUNT>
1

>  <PUBCHEM_CACTVS_TAUTO_COUNT>
1

>  <PUBCHEM_COORDINATE_TYPE>
1
5
255

>  <PUBCHEM_BONDANNOTATIONS>
22  10  5
23  11  5
24  12  5
17  20  5
21  2  6
25  26  5
15  5  5
16  6  5
19  7  5

$$$$
