6450924
 OpenBabel06101807152D

 56 58  0  0  0  0  0  0  0  0999 V2000
    6.0682    2.0746    0.0000 O   0  0  0  0  0  0  0  0  0  0  0  0
   10.3984    0.5746    0.0000 O   0  0  0  0  0  0  0  0  0  0  0  0
    4.3198    5.1092    0.0000 O   0  0  0  0  0  0  0  0  0  0  0  0
    6.0682    5.0746    0.0000 O   0  0  0  0  0  0  0  0  0  0  0  0
    2.5381    2.0505    0.0000 O   0  0  0  0  0  0  0  0  0  0  0  0
    8.6663   -0.4254    0.0000 C   0  0  0  0  0  0  0  0  0  0  0  0
    6.9343   -2.4254    0.0000 C   0  0  0  0  0  0  0  0  0  0  0  0
    8.6663    0.5746    0.0000 C   0  0  0  0  0  0  0  0  0  0  0  0
    7.8003   -1.9254    0.0000 C   0  0  0  0  0  0  0  0  0  0  0  0
    7.8003   -0.9254    0.0000 C   0  0  0  0  0  0  0  0  0  0  0  0
    6.9343   -3.4254    0.0000 C   0  0  0  0  0  0  0  0  0  0  0  0
    7.8003    2.0746    0.0000 C   0  0  0  0  0  0  0  0  0  0  0  0
    7.8003    1.0746    0.0000 C   0  0  0  0  0  0  0  0  0  0  0  0
    6.9343    2.5746    0.0000 C   0  0  0  0  0  0  0  0  0  0  0  0
    9.5323    1.0746    0.0000 C   0  0  0  0  0  0  0  0  0  0  0  0
    8.6663    2.5746    0.0000 C   0  0  0  0  0  0  0  0  0  0  0  0
    8.6663   -2.4254    0.0000 C   0  0  0  0  0  0  0  0  0  0  0  0
    5.2022    3.5746    0.0000 C   0  0  0  0  0  0  0  0  0  0  0  0
    9.5323    2.0746    0.0000 C   0  0  0  0  0  0  0  0  0  0  0  0
    5.2022    2.5746    0.0000 C   0  0  0  0  0  0  0  0  0  0  0  0
    6.0682   -3.9254    0.0000 C   0  0  0  0  0  0  0  0  0  0  0  0
    6.9343    3.5746    0.0000 C   0  0  0  0  0  0  0  0  0  0  0  0
    6.0682    4.0746    0.0000 C   0  0  0  0  0  0  0  0  0  0  0  0
    6.0682   -4.9254    0.0000 C   0  0  0  0  0  0  0  0  0  0  0  0
    4.3083    4.1093    0.0000 C   0  0  0  0  0  0  0  0  0  0  0  0
    4.3083    2.0400    0.0000 C   0  0  0  0  0  0  0  0  0  0  0  0
    3.4022    2.5538    0.0000 C   0  0  0  0  0  0  0  0  0  0  0  0
    3.4022    3.5954    0.0000 C   0  0  0  0  0  0  0  0  0  0  0  0
    5.2022   -5.4254    0.0000 C   0  0  0  0  0  0  0  0  0  0  0  0
    6.9343   -5.4254    0.0000 C   0  0  0  0  0  0  0  0  0  0  0  0
    8.8784   -1.0080    0.0000 H   0  0  0  0  0  0  0  0  0  0  0  0
    9.2769   -0.3177    0.0000 H   0  0  0  0  0  0  0  0  0  0  0  0
    6.7222   -1.8428    0.0000 H   0  0  0  0  0  0  0  0  0  0  0  0
    6.3237   -2.5330    0.0000 H   0  0  0  0  0  0  0  0  0  0  0  0
    7.2634   -0.6154    0.0000 H   0  0  0  0  0  0  0  0  0  0  0  0
    7.1463   -4.0080    0.0000 H   0  0  0  0  0  0  0  0  0  0  0  0
    7.5449   -3.3177    0.0000 H   0  0  0  0  0  0  0  0  0  0  0  0
    7.2634    0.7646    0.0000 H   0  0  0  0  0  0  0  0  0  0  0  0
    8.6663    3.1946    0.0000 H   0  0  0  0  0  0  0  0  0  0  0  0
    8.3563   -2.9623    0.0000 H   0  0  0  0  0  0  0  0  0  0  0  0
    9.2033   -2.7354    0.0000 H   0  0  0  0  0  0  0  0  0  0  0  0
    8.9763   -1.8885    0.0000 H   0  0  0  0  0  0  0  0  0  0  0  0
   10.0693    2.3846    0.0000 H   0  0  0  0  0  0  0  0  0  0  0  0
    5.5313   -3.6154    0.0000 H   0  0  0  0  0  0  0  0  0  0  0  0
    7.4712    3.8846    0.0000 H   0  0  0  0  0  0  0  0  0  0  0  0
    4.3154    1.4200    0.0000 H   0  0  0  0  0  0  0  0  0  0  0  0
    2.8665    3.9075    0.0000 H   0  0  0  0  0  0  0  0  0  0  0  0
    4.8922   -4.8885    0.0000 H   0  0  0  0  0  0  0  0  0  0  0  0
    6.6243   -5.9623    0.0000 H   0  0  0  0  0  0  0  0  0  0  0  0
    7.4712   -5.7354    0.0000 H   0  0  0  0  0  0  0  0  0  0  0  0
    7.2443   -4.8885    0.0000 H   0  0  0  0  0  0  0  0  0  0  0  0
    4.6653   -5.7354    0.0000 H   0  0  0  0  0  0  0  0  0  0  0  0
    5.5122   -5.9623    0.0000 H   0  0  0  0  0  0  0  0  0  0  0  0
   10.9353    0.8846    0.0000 H   0  0  0  0  0  0  0  0  0  0  0  0
    3.7865    5.4254    0.0000 H   0  0  0  0  0  0  0  0  0  0  0  0
    2.0000    2.3584    0.0000 H   0  0  0  0  0  0  0  0  0  0  0  0
  1 14  1  0  0  0  0
  1 20  1  0  0  0  0
  2 15  1  0  0  0  0
  2 54  1  0  0  0  0
  3 25  1  0  0  0  0
  3 55  1  0  0  0  0
  4 23  2  0  0  0  0
  5 27  1  0  0  0  0
  5 56  1  0  0  0  0
  6  8  1  0  0  0  0
  6 10  1  0  0  0  0
  6 31  1  0  0  0  0
  6 32  1  0  0  0  0
  7  9  1  0  0  0  0
  7 11  1  0  0  0  0
  7 33  1  0  0  0  0
  7 34  1  0  0  0  0
  8 13  1  0  0  0  0
  8 15  2  0  0  0  0
  9 10  2  0  0  0  0
  9 17  1  0  0  0  0
 10 35  1  0  0  0  0
 11 21  1  0  0  0  0
 11 36  1  0  0  0  0
 11 37  1  0  0  0  0
 12 13  2  0  0  0  0
 12 14  1  0  0  0  0
 12 16  1  0  0  0  0
 13 38  1  0  0  0  0
 14 22  2  0  0  0  0
 15 19  1  0  0  0  0
 16 19  2  0  0  0  0
 16 39  1  0  0  0  0
 17 40  1  0  0  0  0
 17 41  1  0  0  0  0
 17 42  1  0  0  0  0
 18 20  1  0  0  0  0
 18 23  1  0  0  0  0
 18 25  2  0  0  0  0
 19 43  1  0  0  0  0
 20 26  2  0  0  0  0
 21 24  2  0  0  0  0
 21 44  1  0  0  0  0
 22 23  1  0  0  0  0
 22 45  1  0  0  0  0
 24 29  1  0  0  0  0
 24 30  1  0  0  0  0
 25 28  1  0  0  0  0
 26 27  1  0  0  0  0
 26 46  1  0  0  0  0
 27 28  2  0  0  0  0
 28 47  1  0  0  0  0
 29 48  1  0  0  0  0
 29 52  1  0  0  0  0
 29 53  1  0  0  0  0
 30 49  1  0  0  0  0
 30 50  1  0  0  0  0
 30 51  1  0  0  0  0
M  END
>  <PUBCHEM_COMPOUND_CID>
6450924

>  <PUBCHEM_COMPOUND_CANONICALIZED>
1

>  <PUBCHEM_CACTVS_COMPLEXITY>
702

>  <PUBCHEM_CACTVS_HBOND_ACCEPTOR>
5

>  <PUBCHEM_CACTVS_HBOND_DONOR>
3

>  <PUBCHEM_CACTVS_ROTATABLE_BOND>
6

>  <PUBCHEM_CACTVS_SUBSKEYS>
AAADceB4OAAAAAAAAAAAAAAAAAAAAAAAAAAwYIAAAAAAAACBQAAAGgAACAAADASAmAAyBoAABgCIAqBSAAACCAAkIAAIiAEGCMgMJzaGNRqCeWCl4BUIuQeI7OzOIAACCAAIAABAAAQQABAAAAAAAAAAAA==

>  <PUBCHEM_IUPAC_OPENEYE_NAME>
2-[3-[(2E)-3,7-dimethylocta-2,6-dienyl]-4-hydroxy-phenyl]-5,7-dihydroxy-chromen-4-one

>  <PUBCHEM_IUPAC_CAS_NAME>
2-[3-[(2E)-3,7-dimethylocta-2,6-dienyl]-4-hydroxyphenyl]-5,7-dihydroxy-1-benzopyran-4-one

>  <PUBCHEM_IUPAC_NAME>
2-[3-[(2E)-3,7-dimethylocta-2,6-dienyl]-4-hydroxyphenyl]-5,7-dihydroxychromen-4-one

>  <PUBCHEM_IUPAC_SYSTEMATIC_NAME>
2-[3-[(2E)-3,7-dimethylocta-2,6-dienyl]-4-oxidanyl-phenyl]-5,7-bis(oxidanyl)chromen-4-one

>  <PUBCHEM_IUPAC_TRADITIONAL_NAME>
2-[3-[(2E)-3,7-dimethylocta-2,6-dienyl]-4-hydroxy-phenyl]-5,7-dihydroxy-chromone

>  <PUBCHEM_IUPAC_INCHI>
InChI=1S/C25H26O5/c1-15(2)5-4-6-16(3)7-8-17-11-18(9-10-20(17)27)23-14-22(29)25-21(28)12-19(26)13-24(25)30-23/h5,7,9-14,26-28H,4,6,8H2,1-3H3/b16-7+

>  <PUBCHEM_IUPAC_INCHIKEY>
UXXAQCSTQAIKEM-FRKPEAEDSA-N

>  <PUBCHEM_XLOGP3>
5.5

>  <PUBCHEM_EXACT_MASS>
406.178

>  <PUBCHEM_MOLECULAR_FORMULA>
C25H26O5

>  <PUBCHEM_MOLECULAR_WEIGHT>
406.478

>  <PUBCHEM_OPENEYE_CAN_SMILES>
CC(=CCCC(=CCC1=C(C=CC(=C1)C2=CC(=O)C3=C(C=C(C=C3O2)O)O)O)C)C

>  <PUBCHEM_OPENEYE_ISO_SMILES>
CC(=CCC/C(=C/CC1=C(C=CC(=C1)C2=CC(=O)C3=C(C=C(C=C3O2)O)O)O)/C)C

>  <PUBCHEM_CACTVS_TPSA>
87

>  <PUBCHEM_MONOISOTOPIC_WEIGHT>
406.178

>  <PUBCHEM_TOTAL_CHARGE>
0

>  <PUBCHEM_HEAVY_ATOM_COUNT>
30

>  <PUBCHEM_ATOM_DEF_STEREO_COUNT>
0

>  <PUBCHEM_ATOM_UDEF_STEREO_COUNT>
0

>  <PUBCHEM_BOND_DEF_STEREO_COUNT>
1

>  <PUBCHEM_BOND_UDEF_STEREO_COUNT>
0

>  <PUBCHEM_ISOTOPIC_ATOM_COUNT>
0

>  <PUBCHEM_COMPONENT_COUNT>
1

>  <PUBCHEM_CACTVS_TAUTO_COUNT>
69

>  <PUBCHEM_COORDINATE_TYPE>
1
5
255

>  <PUBCHEM_BONDANNOTATIONS>
1  14  8
1  20  8
12  13  8
12  16  8
14  22  8
15  19  8
16  19  8
18  20  8
18  23  8
18  25  8
20  26  8
22  23  8
25  28  8
26  27  8
27  28  8
8  13  8
8  15  8

$$$$
