6451393
 OpenBabel06101807152D

 76 80  0  0  1  0  0  0  0  0999 V2000
    6.8671   -3.0468    0.0000 O   0  0  0  0  0  0  0  0  0  0  0  0
    5.1350   -3.0468    0.0000 O   0  0  0  0  0  0  0  0  0  0  0  0
    8.3671   -1.1808    0.0000 O   0  0  0  0  0  0  0  0  0  0  0  0
    6.0010   -2.5468    0.0000 O   0  0  0  0  0  0  0  0  0  0  0  0
    8.3979    4.0813    0.0000 O   0  0  0  0  0  0  0  0  0  0  0  0
    6.8671   -5.0468    0.0000 O   0  0  0  0  0  0  0  0  0  0  0  0
    5.1350   -6.0468    0.0000 O   0  0  0  0  0  0  0  0  0  0  0  0
    3.4030   -5.0468    0.0000 O   0  0  0  0  0  0  0  0  0  0  0  0
    8.3912    2.3493    0.0000 O   0  0  0  0  0  0  0  0  0  0  0  0
    5.3979    4.0929    0.0000 O   0  0  0  0  0  0  0  0  0  0  0  0
    6.3912    2.3570    0.0000 O   0  0  0  0  0  0  0  0  0  0  0  0
    6.4046    5.8211    0.0000 O   0  0  0  0  0  0  0  0  0  0  0  0
    2.5369   -3.5468    0.0000 O   0  0  0  0  0  0  0  0  0  0  0  0
    5.3325    0.5676    0.0000 O   0  0  0  0  0  0  0  0  0  0  0  0
    9.8671   -5.5109    0.0000 O   0  0  0  0  0  0  0  0  0  0  0  0
    6.8671   -2.0468    0.0000 C   0  0  3  0  0  0  0  0  0  0  0  0
    6.0010   -3.5468    0.0000 C   0  0  2  0  0  0  0  0  0  0  0  0
    6.0010   -4.5468    0.0000 C   0  0  1  0  0  0  0  0  0  0  0  0
    5.1350   -5.0468    0.0000 C   0  0  2  0  0  0  0  0  0  0  0  0
    4.2690   -4.5468    0.0000 C   0  0  1  0  0  0  0  0  0  0  0  0
    4.2690   -3.5468    0.0000 C   0  0  1  0  0  0  0  0  0  0  0  0
    7.8671   -2.0468    0.0000 C   0  0  3  0  0  0  0  0  0  0  0  0
    6.3671   -1.1808    0.0000 C   0  0  0  0  0  0  0  0  0  0  0  0
    6.8671   -0.3148    0.0000 C   0  0  0  0  0  0  0  0  0  0  0  0
    6.3979    4.0891    0.0000 C   0  0  1  0  0  0  0  0  0  0  0  0
    6.8946    3.2211    0.0000 C   0  0  2  0  0  0  0  0  0  0  0  0
    6.9012    4.9532    0.0000 C   0  0  2  0  0  0  0  0  0  0  0  0
    7.8671   -0.3148    0.0000 C   0  0  0  0  0  0  0  0  0  0  0  0
    7.8946    3.2173    0.0000 C   0  0  1  0  0  0  0  0  0  0  0  0
    7.9012    4.9493    0.0000 C   0  0  2  0  0  0  0  0  0  0  0  0
    3.4030   -3.0468    0.0000 C   0  0  0  0  0  0  0  0  0  0  0  0
    8.3671   -2.9129    0.0000 C   0  0  0  0  0  0  0  0  0  0  0  0
    6.3324    0.5792    0.0000 C   0  0  0  0  0  0  0  0  0  0  0  0
    8.4017    0.5792    0.0000 C   0  0  0  0  0  0  0  0  0  0  0  0
    7.8879    1.4852    0.0000 C   0  0  0  0  0  0  0  0  0  0  0  0
    6.8462    1.4852    0.0000 C   0  0  0  0  0  0  0  0  0  0  0  0
    8.4046    5.8134    0.0000 C   0  0  0  0  0  0  0  0  0  0  0  0
    9.3671   -2.9129    0.0000 C   0  0  0  0  0  0  0  0  0  0  0  0
    7.8671   -3.7789    0.0000 C   0  0  0  0  0  0  0  0  0  0  0  0
    9.8671   -3.7789    0.0000 C   0  0  0  0  0  0  0  0  0  0  0  0
    8.3671   -4.6449    0.0000 C   0  0  0  0  0  0  0  0  0  0  0  0
    9.3671   -4.6449    0.0000 C   0  0  0  0  0  0  0  0  0  0  0  0
    6.0010   -2.9268    0.0000 H   0  0  0  0  0  0  0  0  0  0  0  0
    6.0010   -5.1668    0.0000 H   0  0  0  0  0  0  0  0  0  0  0  0
    4.5981   -5.3568    0.0000 H   0  0  0  0  0  0  0  0  0  0  0  0
    3.7320   -4.2368    0.0000 H   0  0  0  0  0  0  0  0  0  0  0  0
    4.2690   -2.9268    0.0000 H   0  0  0  0  0  0  0  0  0  0  0  0
    8.4871   -2.0468    0.0000 H   0  0  0  0  0  0  0  0  0  0  0  0
    5.8921   -0.7823    0.0000 H   0  0  0  0  0  0  0  0  0  0  0  0
    5.8921   -1.5793    0.0000 H   0  0  0  0  0  0  0  0  0  0  0  0
    6.0900    4.6272    0.0000 H   0  0  0  0  0  0  0  0  0  0  0  0
    7.2025    2.6830    0.0000 H   0  0  0  0  0  0  0  0  0  0  0  0
    7.2133    5.4889    0.0000 H   0  0  0  0  0  0  0  0  0  0  0  0
    8.5146    3.2149    0.0000 H   0  0  0  0  0  0  0  0  0  0  0  0
    8.5212    4.9469    0.0000 H   0  0  0  0  0  0  0  0  0  0  0  0
    3.8015   -2.5719    0.0000 H   0  0  0  0  0  0  0  0  0  0  0  0
    3.0044   -2.5719    0.0000 H   0  0  0  0  0  0  0  0  0  0  0  0
    5.4641   -2.2368    0.0000 H   0  0  0  0  0  0  0  0  0  0  0  0
    9.0217    0.5720    0.0000 H   0  0  0  0  0  0  0  0  0  0  0  0
    6.8671   -5.6668    0.0000 H   0  0  0  0  0  0  0  0  0  0  0  0
    4.5981   -6.3568    0.0000 H   0  0  0  0  0  0  0  0  0  0  0  0
    3.4030   -5.6668    0.0000 H   0  0  0  0  0  0  0  0  0  0  0  0
    6.5342    2.0210    0.0000 H   0  0  0  0  0  0  0  0  0  0  0  0
    8.9403    5.5013    0.0000 H   0  0  0  0  0  0  0  0  0  0  0  0
    8.7166    6.3491    0.0000 H   0  0  0  0  0  0  0  0  0  0  0  0
    7.8688    6.1255    0.0000 H   0  0  0  0  0  0  0  0  0  0  0  0
    9.6771   -2.3759    0.0000 H   0  0  0  0  0  0  0  0  0  0  0  0
    7.2471   -3.7789    0.0000 H   0  0  0  0  0  0  0  0  0  0  0  0
    5.0900    4.6310    0.0000 H   0  0  0  0  0  0  0  0  0  0  0  0
    5.7712    2.3594    0.0000 H   0  0  0  0  0  0  0  0  0  0  0  0
    6.7166    6.3568    0.0000 H   0  0  0  0  0  0  0  0  0  0  0  0
    2.0000   -3.2368    0.0000 H   0  0  0  0  0  0  0  0  0  0  0  0
   10.4871   -3.7789    0.0000 H   0  0  0  0  0  0  0  0  0  0  0  0
    8.0571   -5.1818    0.0000 H   0  0  0  0  0  0  0  0  0  0  0  0
    5.0163    1.1009    0.0000 H   0  0  0  0  0  0  0  0  0  0  0  0
   10.4871   -5.5109    0.0000 H   0  0  0  0  0  0  0  0  0  0  0  0
  1 16  1  0  0  0  0
  2 17  1  0  0  0  0
  2 21  1  0  0  0  0
  3 22  1  0  0  0  0
  3 28  1  0  0  0  0
  4 16  1  0  0  0  0
  4 58  1  0  0  0  0
  5 29  1  0  0  0  0
  5 30  1  0  0  0  0
  6 60  1  0  0  0  0
  7 61  1  0  0  0  0
  8 62  1  0  0  0  0
  9 35  1  0  0  0  0
 10 69  1  0  0  0  0
 11 70  1  0  0  0  0
 12 71  1  0  0  0  0
 13 31  1  0  0  0  0
 13 72  1  0  0  0  0
 14 33  1  0  0  0  0
 14 75  1  0  0  0  0
 15 42  1  0  0  0  0
 15 76  1  0  0  0  0
 16 22  1  0  0  0  0
 16 23  1  0  0  0  0
 17  1  1  0  0  0  0
 17 18  1  6  0  0  0
 17 43  1  0  0  0  0
 18  6  1  0  0  0  0
 18 19  1  6  0  0  0
 18 44  1  0  0  0  0
 19  7  1  0  0  0  0
 19 20  1  1  0  0  0
 19 45  1  0  0  0  0
 20  8  1  0  0  0  0
 20 21  1  6  0  0  0
 20 46  1  0  0  0  0
 21 31  1  0  0  0  0
 21 47  1  6  0  0  0
 22 32  1  0  0  0  0
 22 48  1  0  0  0  0
 23 24  1  0  0  0  0
 23 49  1  0  0  0  0
 23 50  1  0  0  0  0
 24 28  1  0  0  0  0
 24 33  2  0  0  0  0
 25 10  1  0  0  0  0
 25 26  1  1  0  0  0
 25 51  1  0  0  0  0
 26 11  1  0  0  0  0
 26 29  1  6  0  0  0
 26 52  1  0  0  0  0
 27 12  1  0  0  0  0
 27 25  1  6  0  0  0
 27 53  1  0  0  0  0
 28 34  2  0  0  0  0
 29  9  1  0  0  0  0
 29 54  1  6  0  0  0
 30 27  1  1  0  0  0
 30 37  1  0  0  0  0
 30 55  1  0  0  0  0
 31 56  1  0  0  0  0
 31 57  1  0  0  0  0
 32 38  2  0  0  0  0
 32 39  1  0  0  0  0
 33 36  1  0  0  0  0
 34 35  1  0  0  0  0
 34 59  1  0  0  0  0
 35 36  2  0  0  0  0
 36 63  1  0  0  0  0
 37 64  1  0  0  0  0
 37 65  1  0  0  0  0
 37 66  1  0  0  0  0
 38 40  1  0  0  0  0
 38 67  1  0  0  0  0
 39 41  2  0  0  0  0
 39 68  1  0  0  0  0
 40 42  2  0  0  0  0
 40 73  1  0  0  0  0
 41 42  1  0  0  0  0
 41 74  1  0  0  0  0
M  END
>  <PUBCHEM_COMPOUND_CID>
6451393

>  <PUBCHEM_COMPOUND_CANONICALIZED>
1

>  <PUBCHEM_CACTVS_COMPLEXITY>
890

>  <PUBCHEM_CACTVS_HBOND_ACCEPTOR>
15

>  <PUBCHEM_CACTVS_HBOND_DONOR>
10

>  <PUBCHEM_CACTVS_ROTATABLE_BOND>
6

>  <PUBCHEM_CACTVS_SUBSKEYS>
AAADcfB4PAAAAAAAAAAAAAAAAAAAAAAAAAA0aJECAAAAAACRQAAAGgAACAAADBSwmAMyDoAABgCAAiBCAAACCAAgIAAIiAAGCIgdNyKGMRqieCClwBUPuAfA4OwOIAAACAAIAABAAAAQABAAAAAAAAAAAA==

>  <PUBCHEM_IUPAC_OPENEYE_NAME>
(2S,3R,4R,5R,6S)-2-[3,5-dihydroxy-2-(4-hydroxyphenyl)-3-[(2S,3R,4S,5S,6R)-3,4,5-trihydroxy-6-(hydroxymethyl)tetrahydropyran-2-yl]oxy-chroman-7-yl]oxy-6-methyl-tetrahydropyran-3,4,5-triol

>  <PUBCHEM_IUPAC_CAS_NAME>
(2S,3R,4R,5R,6S)-2-[[3,5-dihydroxy-2-(4-hydroxyphenyl)-3-[[(2S,3R,4S,5S,6R)-3,4,5-trihydroxy-6-(hydroxymethyl)-2-oxanyl]oxy]-3,4-dihydro-2H-1-benzopyran-7-yl]oxy]-6-methyloxane-3,4,5-triol

>  <PUBCHEM_IUPAC_NAME>
(2S,3R,4R,5R,6S)-2-[[3,5-dihydroxy-2-(4-hydroxyphenyl)-3-[(2S,3R,4S,5S,6R)-3,4,5-trihydroxy-6-(hydroxymethyl)oxan-2-yl]oxy-2,4-dihydrochromen-7-yl]oxy]-6-methyloxane-3,4,5-triol

>  <PUBCHEM_IUPAC_SYSTEMATIC_NAME>
(2S,3R,4R,5R,6S)-2-[[3-[(2S,3R,4S,5S,6R)-6-(hydroxymethyl)-3,4,5-tris(oxidanyl)oxan-2-yl]oxy-2-(4-hydroxyphenyl)-3,5-bis(oxidanyl)-2,4-dihydrochromen-7-yl]oxy]-6-methyl-oxane-3,4,5-triol

>  <PUBCHEM_IUPAC_TRADITIONAL_NAME>
(2S,3R,4R,5R,6S)-2-[3,5-dihydroxy-2-(4-hydroxyphenyl)-3-[(2S,3R,4S,5S,6R)-3,4,5-trihydroxy-6-methylol-tetrahydropyran-2-yl]oxy-chroman-7-yl]oxy-6-methyl-tetrahydropyran-3,4,5-triol

>  <PUBCHEM_IUPAC_INCHI>
InChI=1S/C27H34O15/c1-10-18(31)20(33)22(35)25(38-10)39-13-6-15(30)14-8-27(37,42-26-23(36)21(34)19(32)17(9-28)41-26)24(40-16(14)7-13)11-2-4-12(29)5-3-11/h2-7,10,17-26,28-37H,8-9H2,1H3/t10-,17+,18-,19+,20+,21-,22+,23+,24?,25-,26-,27?/m0/s1

>  <PUBCHEM_IUPAC_INCHIKEY>
JZMDHNZJOZUDLG-QVBRAHCHSA-N

>  <PUBCHEM_XLOGP3_AA>
-1.9

>  <PUBCHEM_EXACT_MASS>
598.19

>  <PUBCHEM_MOLECULAR_FORMULA>
C27H34O15

>  <PUBCHEM_MOLECULAR_WEIGHT>
598.554

>  <PUBCHEM_OPENEYE_CAN_SMILES>
CC1C(C(C(C(O1)OC2=CC(=C3CC(C(OC3=C2)C4=CC=C(C=C4)O)(O)OC5C(C(C(C(O5)CO)O)O)O)O)O)O)O

>  <PUBCHEM_OPENEYE_ISO_SMILES>
C[C@H]1[C@@H]([C@H]([C@H]([C@@H](O1)OC2=CC(=C3CC(C(OC3=C2)C4=CC=C(C=C4)O)(O)O[C@H]5[C@@H]([C@H]([C@@H]([C@H](O5)CO)O)O)O)O)O)O)O

>  <PUBCHEM_CACTVS_TPSA>
248

>  <PUBCHEM_MONOISOTOPIC_WEIGHT>
598.19

>  <PUBCHEM_TOTAL_CHARGE>
0

>  <PUBCHEM_HEAVY_ATOM_COUNT>
42

>  <PUBCHEM_ATOM_DEF_STEREO_COUNT>
10

>  <PUBCHEM_ATOM_UDEF_STEREO_COUNT>
2

>  <PUBCHEM_BOND_DEF_STEREO_COUNT>
0

>  <PUBCHEM_BOND_UDEF_STEREO_COUNT>
0

>  <PUBCHEM_ISOTOPIC_ATOM_COUNT>
0

>  <PUBCHEM_COMPONENT_COUNT>
1

>  <PUBCHEM_CACTVS_TAUTO_COUNT>
4

>  <PUBCHEM_COORDINATE_TYPE>
1
5
255

>  <PUBCHEM_BONDANNOTATIONS>
17  1  5
25  10  6
26  11  6
27  12  5
21  31  5
22  32  3
24  28  8
24  33  8
28  34  8
30  37  6
32  38  8
32  39  8
33  36  8
34  35  8
35  36  8
38  40  8
39  41  8
16  4  3
40  42  8
41  42  8
18  6  6
19  7  5
20  8  6
29  9  5

$$$$
