6477032
 OpenBabel06101807152D

 74 80  0  0  0  0  0  0  0  0999 V2000
    5.2619   -2.4035    0.0000 O   0  0  0  0  0  0  0  0  0  0  0  0
   12.2619   -0.6714    0.0000 O   0  0  0  0  0  0  0  0  0  0  0  0
    4.6783    0.1333    0.0000 N   0  0  0  0  0  0  0  0  0  0  0  0
   11.1670    2.8344    0.0000 N   0  0  0  0  0  0  0  0  0  0  0  0
    4.6783   -1.4761    0.0000 N   0  0  0  0  0  0  0  0  0  0  0  0
    9.7732    2.0297    0.0000 N   0  0  0  0  0  0  0  0  0  0  0  0
    6.7619   -1.5374    0.0000 N   0  0  0  0  0  0  0  0  0  0  0  0
   12.2619    1.0606    0.0000 N   0  0  0  0  0  0  0  0  0  0  0  0
    5.2619   -0.6714    0.0000 C   0  0  0  0  0  0  0  0  0  0  0  0
   10.7619    1.9267    0.0000 C   0  0  0  0  0  0  0  0  0  0  0  0
    6.2619   -0.6714    0.0000 C   0  0  0  0  0  0  0  0  0  0  0  0
   11.2619    1.0606    0.0000 C   0  0  0  0  0  0  0  0  0  0  0  0
    3.7320   -0.1714    0.0000 C   0  0  0  0  0  0  0  0  0  0  0  0
   10.4300    3.5015    0.0000 C   0  0  0  0  0  0  0  0  0  0  0  0
    3.7320   -1.1714    0.0000 C   0  0  0  0  0  0  0  0  0  0  0  0
    9.5640    3.0015    0.0000 C   0  0  0  0  0  0  0  0  0  0  0  0
    7.7619    0.1946    0.0000 C   0  0  0  0  0  0  0  0  0  0  0  0
    9.7619    0.1946    0.0000 C   0  0  0  0  0  0  0  0  0  0  0  0
    6.7619    0.1946    0.0000 C   0  0  0  0  0  0  0  0  0  0  0  0
   10.7619    0.1946    0.0000 C   0  0  0  0  0  0  0  0  0  0  0  0
    8.2619    1.0606    0.0000 C   0  0  0  0  0  0  0  0  0  0  0  0
    8.2619   -0.6714    0.0000 C   0  0  0  0  0  0  0  0  0  0  0  0
    9.2619    1.0606    0.0000 C   0  0  0  0  0  0  0  0  0  0  0  0
    9.2619   -0.6714    0.0000 C   0  0  0  0  0  0  0  0  0  0  0  0
    2.8660    0.3286    0.0000 C   0  0  0  0  0  0  0  0  0  0  0  0
   10.4300    4.5015    0.0000 C   0  0  0  0  0  0  0  0  0  0  0  0
    2.8660   -1.6714    0.0000 C   0  0  0  0  0  0  0  0  0  0  0  0
    8.6979    3.5015    0.0000 C   0  0  0  0  0  0  0  0  0  0  0  0
    2.0000   -0.1714    0.0000 C   0  0  0  0  0  0  0  0  0  0  0  0
    9.5640    5.0015    0.0000 C   0  0  0  0  0  0  0  0  0  0  0  0
    2.0000   -1.1714    0.0000 C   0  0  0  0  0  0  0  0  0  0  0  0
    8.6979    4.5015    0.0000 C   0  0  0  0  0  0  0  0  0  0  0  0
    6.2619   -2.4035    0.0000 C   0  0  0  0  0  0  0  0  0  0  0  0
   12.7619    0.1946    0.0000 C   0  0  0  0  0  0  0  0  0  0  0  0
    6.7619   -3.2695    0.0000 C   0  0  0  0  0  0  0  0  0  0  0  0
   13.7619    0.1946    0.0000 C   0  0  0  0  0  0  0  0  0  0  0  0
    7.7619   -3.2695    0.0000 C   0  0  0  0  0  0  0  0  0  0  0  0
    6.2619   -4.1355    0.0000 C   0  0  0  0  0  0  0  0  0  0  0  0
   14.2619    1.0606    0.0000 C   0  0  0  0  0  0  0  0  0  0  0  0
   14.2619   -0.6714    0.0000 C   0  0  0  0  0  0  0  0  0  0  0  0
    8.2619   -4.1355    0.0000 C   0  0  0  0  0  0  0  0  0  0  0  0
    6.7619   -5.0015    0.0000 C   0  0  0  0  0  0  0  0  0  0  0  0
   15.2619    1.0606    0.0000 C   0  0  0  0  0  0  0  0  0  0  0  0
   15.2619   -0.6714    0.0000 C   0  0  0  0  0  0  0  0  0  0  0  0
    7.7619   -5.0015    0.0000 C   0  0  0  0  0  0  0  0  0  0  0  0
   15.7619    0.1946    0.0000 C   0  0  0  0  0  0  0  0  0  0  0  0
    4.8709    0.7226    0.0000 H   0  0  0  0  0  0  0  0  0  0  0  0
   11.7737    2.9623    0.0000 H   0  0  0  0  0  0  0  0  0  0  0  0
    6.4519    0.7316    0.0000 H   0  0  0  0  0  0  0  0  0  0  0  0
   11.0719   -0.3423    0.0000 H   0  0  0  0  0  0  0  0  0  0  0  0
    7.9519    1.5976    0.0000 H   0  0  0  0  0  0  0  0  0  0  0  0
    7.9519   -1.2084    0.0000 H   0  0  0  0  0  0  0  0  0  0  0  0
    9.5719    1.5976    0.0000 H   0  0  0  0  0  0  0  0  0  0  0  0
    9.5719   -1.2084    0.0000 H   0  0  0  0  0  0  0  0  0  0  0  0
    2.8660    0.9486    0.0000 H   0  0  0  0  0  0  0  0  0  0  0  0
   10.9669    4.8115    0.0000 H   0  0  0  0  0  0  0  0  0  0  0  0
    7.3819   -1.5374    0.0000 H   0  0  0  0  0  0  0  0  0  0  0  0
    2.8660   -2.2914    0.0000 H   0  0  0  0  0  0  0  0  0  0  0  0
   12.5719    1.5976    0.0000 H   0  0  0  0  0  0  0  0  0  0  0  0
    8.1610    3.1915    0.0000 H   0  0  0  0  0  0  0  0  0  0  0  0
    1.4631    0.1386    0.0000 H   0  0  0  0  0  0  0  0  0  0  0  0
    9.5640    5.6215    0.0000 H   0  0  0  0  0  0  0  0  0  0  0  0
    1.4631   -1.4814    0.0000 H   0  0  0  0  0  0  0  0  0  0  0  0
    8.1610    4.8115    0.0000 H   0  0  0  0  0  0  0  0  0  0  0  0
    8.0719   -2.7325    0.0000 H   0  0  0  0  0  0  0  0  0  0  0  0
    5.6419   -4.1355    0.0000 H   0  0  0  0  0  0  0  0  0  0  0  0
   13.9519    1.5976    0.0000 H   0  0  0  0  0  0  0  0  0  0  0  0
   13.9519   -1.2084    0.0000 H   0  0  0  0  0  0  0  0  0  0  0  0
    8.8819   -4.1355    0.0000 H   0  0  0  0  0  0  0  0  0  0  0  0
    6.4519   -5.5385    0.0000 H   0  0  0  0  0  0  0  0  0  0  0  0
   15.5719    1.5976    0.0000 H   0  0  0  0  0  0  0  0  0  0  0  0
   15.5719   -1.2084    0.0000 H   0  0  0  0  0  0  0  0  0  0  0  0
    8.0719   -5.5385    0.0000 H   0  0  0  0  0  0  0  0  0  0  0  0
   16.3819    0.1946    0.0000 H   0  0  0  0  0  0  0  0  0  0  0  0
  1 33  2  0  0  0  0
  2 34  2  0  0  0  0
  3  9  1  0  0  0  0
  3 13  1  0  0  0  0
  3 47  1  0  0  0  0
  4 10  1  0  0  0  0
  4 14  1  0  0  0  0
  4 48  1  0  0  0  0
  5  9  2  0  0  0  0
  5 15  1  0  0  0  0
  6 10  2  0  0  0  0
  6 16  1  0  0  0  0
  7 11  1  0  0  0  0
  7 33  1  0  0  0  0
  7 57  1  0  0  0  0
  8 12  1  0  0  0  0
  8 34  1  0  0  0  0
  8 59  1  0  0  0  0
  9 11  1  0  0  0  0
 10 12  1  0  0  0  0
 11 19  2  0  0  0  0
 12 20  2  0  0  0  0
 13 15  1  0  0  0  0
 13 25  2  0  0  0  0
 14 16  1  0  0  0  0
 14 26  2  0  0  0  0
 15 27  2  0  0  0  0
 16 28  2  0  0  0  0
 17 19  1  0  0  0  0
 17 21  2  0  0  0  0
 17 22  1  0  0  0  0
 18 20  1  0  0  0  0
 18 23  2  0  0  0  0
 18 24  1  0  0  0  0
 19 49  1  0  0  0  0
 20 50  1  0  0  0  0
 21 23  1  0  0  0  0
 21 51  1  0  0  0  0
 22 24  2  0  0  0  0
 22 52  1  0  0  0  0
 23 53  1  0  0  0  0
 24 54  1  0  0  0  0
 25 29  1  0  0  0  0
 25 55  1  0  0  0  0
 26 30  1  0  0  0  0
 26 56  1  0  0  0  0
 27 31  1  0  0  0  0
 27 58  1  0  0  0  0
 28 32  1  0  0  0  0
 28 60  1  0  0  0  0
 29 31  2  0  0  0  0
 29 61  1  0  0  0  0
 30 32  2  0  0  0  0
 30 62  1  0  0  0  0
 31 63  1  0  0  0  0
 32 64  1  0  0  0  0
 33 35  1  0  0  0  0
 34 36  1  0  0  0  0
 35 37  2  0  0  0  0
 35 38  1  0  0  0  0
 36 39  2  0  0  0  0
 36 40  1  0  0  0  0
 37 41  1  0  0  0  0
 37 65  1  0  0  0  0
 38 42  2  0  0  0  0
 38 66  1  0  0  0  0
 39 43  1  0  0  0  0
 39 67  1  0  0  0  0
 40 44  2  0  0  0  0
 40 68  1  0  0  0  0
 41 45  2  0  0  0  0
 41 69  1  0  0  0  0
 42 45  1  0  0  0  0
 42 70  1  0  0  0  0
 43 46  2  0  0  0  0
 43 71  1  0  0  0  0
 44 46  1  0  0  0  0
 44 72  1  0  0  0  0
 45 73  1  0  0  0  0
 46 74  1  0  0  0  0
M  END
>  <PUBCHEM_COMPOUND_CID>
6477032

>  <PUBCHEM_COMPOUND_CANONICALIZED>
1

>  <PUBCHEM_CACTVS_COMPLEXITY>
1020

>  <PUBCHEM_CACTVS_HBOND_ACCEPTOR>
4

>  <PUBCHEM_CACTVS_HBOND_DONOR>
4

>  <PUBCHEM_CACTVS_ROTATABLE_BOND>
8

>  <PUBCHEM_CACTVS_SUBSKEYS>
AAADceB/sAAAAAAAAAAAAAAAAAAAAWLAAAAwYMGDAAAAAFgB/gAAHgAQAAAADAiBnwAx0LbJkACoAydydACCgC2lEqAJmSEwdNiIaLLAnZGUIQholALIyacYiACOQAAAAAAAACCAAAAAAAAAQAAAAAAAAA==

>  <PUBCHEM_IUPAC_OPENEYE_NAME>
N-[(Z)-2-[4-[(E)-2-benzamido-2-(1H-benzimidazol-2-yl)vinyl]phenyl]-1-(1H-benzimidazol-2-yl)vinyl]benzamide

>  <PUBCHEM_IUPAC_CAS_NAME>
N-[(Z)-2-[4-[(E)-2-benzamido-2-(1H-benzimidazol-2-yl)ethenyl]phenyl]-1-(1H-benzimidazol-2-yl)ethenyl]benzamide

>  <PUBCHEM_IUPAC_NAME>
N-[(Z)-2-[4-[(E)-2-benzamido-2-(1H-benzimidazol-2-yl)ethenyl]phenyl]-1-(1H-benzimidazol-2-yl)ethenyl]benzamide

>  <PUBCHEM_IUPAC_SYSTEMATIC_NAME>
N-[(Z)-2-[4-[(E)-2-benzamido-2-(1H-benzimidazol-2-yl)ethenyl]phenyl]-1-(1H-benzimidazol-2-yl)ethenyl]benzamide

>  <PUBCHEM_IUPAC_TRADITIONAL_NAME>
N-[(Z)-2-[4-[(E)-2-benzamido-2-(1H-benzimidazol-2-yl)vinyl]phenyl]-1-(1H-benzimidazol-2-yl)vinyl]benzamide

>  <PUBCHEM_IUPAC_INCHI>
InChI=1S/C38H28N6O2/c45-37(27-11-3-1-4-12-27)43-33(35-39-29-15-7-8-16-30(29)40-35)23-25-19-21-26(22-20-25)24-34(44-38(46)28-13-5-2-6-14-28)36-41-31-17-9-10-18-32(31)42-36/h1-24H,(H,39,40)(H,41,42)(H,43,45)(H,44,46)/b33-23-,34-24+

>  <PUBCHEM_IUPAC_INCHIKEY>
AFVNBVDFNWYIBJ-HUMGCQOQSA-N

>  <PUBCHEM_XLOGP3_AA>
6.9

>  <PUBCHEM_EXACT_MASS>
600.227

>  <PUBCHEM_MOLECULAR_FORMULA>
C38H28N6O2

>  <PUBCHEM_MOLECULAR_WEIGHT>
600.682

>  <PUBCHEM_OPENEYE_CAN_SMILES>
C1=CC=C(C=C1)C(=O)NC(=CC2=CC=C(C=C2)C=C(C3=NC4=CC=CC=C4N3)NC(=O)C5=CC=CC=C5)C6=NC7=CC=CC=C7N6

>  <PUBCHEM_OPENEYE_ISO_SMILES>
C1=CC=C(C=C1)C(=O)N/C(=C/C2=CC=C(C=C2)/C=C(/C3=NC4=CC=CC=C4N3)\NC(=O)C5=CC=CC=C5)/C6=NC7=CC=CC=C7N6

>  <PUBCHEM_CACTVS_TPSA>
116

>  <PUBCHEM_MONOISOTOPIC_WEIGHT>
600.227

>  <PUBCHEM_TOTAL_CHARGE>
0

>  <PUBCHEM_HEAVY_ATOM_COUNT>
46

>  <PUBCHEM_ATOM_DEF_STEREO_COUNT>
0

>  <PUBCHEM_ATOM_UDEF_STEREO_COUNT>
0

>  <PUBCHEM_BOND_DEF_STEREO_COUNT>
2

>  <PUBCHEM_BOND_UDEF_STEREO_COUNT>
0

>  <PUBCHEM_ISOTOPIC_ATOM_COUNT>
0

>  <PUBCHEM_COMPONENT_COUNT>
1

>  <PUBCHEM_CACTVS_TAUTO_COUNT>
116

>  <PUBCHEM_COORDINATE_TYPE>
1
5
255

>  <PUBCHEM_BONDANNOTATIONS>
13  15  8
13  25  8
14  16  8
14  26  8
15  27  8
16  28  8
17  21  8
17  22  8
18  23  8
18  24  8
21  23  8
22  24  8
25  29  8
26  30  8
27  31  8
28  32  8
29  31  8
3  13  8
3  9  8
30  32  8
35  37  8
35  38  8
36  39  8
36  40  8
37  41  8
38  42  8
39  43  8
4  10  8
4  14  8
40  44  8
41  45  8
42  45  8
43  46  8
44  46  8
5  15  8
5  9  8
6  10  8
6  16  8

$$$$
