6504513
 OpenBabel06101807152D

 75 75  0  0  0  0  0  0  0  0999 V2000
   11.6603    7.2500    0.0000 O   0  0  0  0  0  0  0  0  0  0  0  0
    9.9282    7.2500    0.0000 O   0  0  0  0  0  0  0  0  0  0  0  0
    3.0000   -6.7500    0.0000 C   0  0  0  0  0  0  0  0  0  0  0  0
    3.0000   -7.7500    0.0000 C   0  0  0  0  0  0  0  0  0  0  0  0
    3.8660   -8.2500    0.0000 C   0  0  0  0  0  0  0  0  0  0  0  0
    3.8660   -6.2500    0.0000 C   0  0  0  0  0  0  0  0  0  0  0  0
    4.7320   -7.7500    0.0000 C   0  0  0  0  0  0  0  0  0  0  0  0
    4.7320   -6.7500    0.0000 C   0  0  0  0  0  0  0  0  0  0  0  0
    2.0000   -6.7500    0.0000 C   0  0  0  0  0  0  0  0  0  0  0  0
    2.5000   -5.8840    0.0000 C   0  0  0  0  0  0  0  0  0  0  0  0
    3.8660   -5.2500    0.0000 C   0  0  0  0  0  0  0  0  0  0  0  0
    5.5981   -6.2500    0.0000 C   0  0  0  0  0  0  0  0  0  0  0  0
    4.7320   -4.7500    0.0000 C   0  0  0  0  0  0  0  0  0  0  0  0
    4.7320   -3.7500    0.0000 C   0  0  0  0  0  0  0  0  0  0  0  0
    3.8660   -3.2500    0.0000 C   0  0  0  0  0  0  0  0  0  0  0  0
    5.5981   -3.2500    0.0000 C   0  0  0  0  0  0  0  0  0  0  0  0
    5.5981   -2.2500    0.0000 C   0  0  0  0  0  0  0  0  0  0  0  0
    6.4641   -1.7500    0.0000 C   0  0  0  0  0  0  0  0  0  0  0  0
    6.4641   -0.7500    0.0000 C   0  0  0  0  0  0  0  0  0  0  0  0
    5.5981   -0.2500    0.0000 C   0  0  0  0  0  0  0  0  0  0  0  0
    7.3301   -0.2500    0.0000 C   0  0  0  0  0  0  0  0  0  0  0  0
    7.3301    0.7500    0.0000 C   0  0  0  0  0  0  0  0  0  0  0  0
    8.1962    1.2500    0.0000 C   0  0  0  0  0  0  0  0  0  0  0  0
    8.1962    2.2500    0.0000 C   0  0  0  0  0  0  0  0  0  0  0  0
    9.0622    2.7500    0.0000 C   0  0  0  0  0  0  0  0  0  0  0  0
    9.0622    3.7500    0.0000 C   0  0  0  0  0  0  0  0  0  0  0  0
    9.9282    2.2500    0.0000 C   0  0  0  0  0  0  0  0  0  0  0  0
    9.9282    4.2500    0.0000 C   0  0  0  0  0  0  0  0  0  0  0  0
    9.9282    5.2500    0.0000 C   0  0  0  0  0  0  0  0  0  0  0  0
   10.7942    5.7500    0.0000 C   0  0  0  0  0  0  0  0  0  0  0  0
   11.6603    5.2500    0.0000 C   0  0  0  0  0  0  0  0  0  0  0  0
   10.7942    6.7500    0.0000 C   0  0  0  0  0  0  0  0  0  0  0  0
   11.6603    8.2500    0.0000 C   0  0  0  0  0  0  0  0  0  0  0  0
    2.3894   -7.6423    0.0000 H   0  0  0  0  0  0  0  0  0  0  0  0
    2.7880   -8.3326    0.0000 H   0  0  0  0  0  0  0  0  0  0  0  0
    3.4675   -8.7250    0.0000 H   0  0  0  0  0  0  0  0  0  0  0  0
    4.2646   -8.7250    0.0000 H   0  0  0  0  0  0  0  0  0  0  0  0
    4.9441   -8.3326    0.0000 H   0  0  0  0  0  0  0  0  0  0  0  0
    5.3426   -7.6423    0.0000 H   0  0  0  0  0  0  0  0  0  0  0  0
    3.0369   -5.5740    0.0000 H   0  0  0  0  0  0  0  0  0  0  0  0
    2.1900   -5.3470    0.0000 H   0  0  0  0  0  0  0  0  0  0  0  0
    1.9631   -6.1940    0.0000 H   0  0  0  0  0  0  0  0  0  0  0  0
    2.0000   -6.1300    0.0000 H   0  0  0  0  0  0  0  0  0  0  0  0
    1.3800   -6.7500    0.0000 H   0  0  0  0  0  0  0  0  0  0  0  0
    2.0000   -7.3700    0.0000 H   0  0  0  0  0  0  0  0  0  0  0  0
    3.3291   -4.9400    0.0000 H   0  0  0  0  0  0  0  0  0  0  0  0
    5.9081   -6.7869    0.0000 H   0  0  0  0  0  0  0  0  0  0  0  0
    6.1350   -5.9400    0.0000 H   0  0  0  0  0  0  0  0  0  0  0  0
    5.2881   -5.7131    0.0000 H   0  0  0  0  0  0  0  0  0  0  0  0
    5.2690   -5.0600    0.0000 H   0  0  0  0  0  0  0  0  0  0  0  0
    4.1760   -2.7131    0.0000 H   0  0  0  0  0  0  0  0  0  0  0  0
    3.3291   -2.9400    0.0000 H   0  0  0  0  0  0  0  0  0  0  0  0
    3.5560   -3.7869    0.0000 H   0  0  0  0  0  0  0  0  0  0  0  0
    6.1350   -3.5600    0.0000 H   0  0  0  0  0  0  0  0  0  0  0  0
    5.0611   -1.9400    0.0000 H   0  0  0  0  0  0  0  0  0  0  0  0
    7.0010   -2.0600    0.0000 H   0  0  0  0  0  0  0  0  0  0  0  0
    5.9081    0.2869    0.0000 H   0  0  0  0  0  0  0  0  0  0  0  0
    5.0611    0.0600    0.0000 H   0  0  0  0  0  0  0  0  0  0  0  0
    5.2881   -0.7869    0.0000 H   0  0  0  0  0  0  0  0  0  0  0  0
    7.8671   -0.5600    0.0000 H   0  0  0  0  0  0  0  0  0  0  0  0
    6.7932    1.0600    0.0000 H   0  0  0  0  0  0  0  0  0  0  0  0
    8.7331    0.9400    0.0000 H   0  0  0  0  0  0  0  0  0  0  0  0
    7.6592    2.5600    0.0000 H   0  0  0  0  0  0  0  0  0  0  0  0
    8.5252    4.0600    0.0000 H   0  0  0  0  0  0  0  0  0  0  0  0
    9.6182    1.7131    0.0000 H   0  0  0  0  0  0  0  0  0  0  0  0
   10.4651    1.9400    0.0000 H   0  0  0  0  0  0  0  0  0  0  0  0
   10.2382    2.7869    0.0000 H   0  0  0  0  0  0  0  0  0  0  0  0
   10.4651    3.9400    0.0000 H   0  0  0  0  0  0  0  0  0  0  0  0
    9.3913    5.5600    0.0000 H   0  0  0  0  0  0  0  0  0  0  0  0
   11.3503    4.7131    0.0000 H   0  0  0  0  0  0  0  0  0  0  0  0
   12.1972    4.9400    0.0000 H   0  0  0  0  0  0  0  0  0  0  0  0
   11.9703    5.7869    0.0000 H   0  0  0  0  0  0  0  0  0  0  0  0
   12.2803    8.2500    0.0000 H   0  0  0  0  0  0  0  0  0  0  0  0
   11.6603    8.8700    0.0000 H   0  0  0  0  0  0  0  0  0  0  0  0
   11.0403    8.2500    0.0000 H   0  0  0  0  0  0  0  0  0  0  0  0
  1 32  1  0  0  0  0
  1 33  1  0  0  0  0
  2 32  2  0  0  0  0
  3  4  1  0  0  0  0
  3  6  1  0  0  0  0
  3  9  1  0  0  0  0
  3 10  1  0  0  0  0
  4  5  1  0  0  0  0
  4 34  1  0  0  0  0
  4 35  1  0  0  0  0
  5  7  1  0  0  0  0
  5 36  1  0  0  0  0
  5 37  1  0  0  0  0
  6  8  2  0  0  0  0
  6 11  1  0  0  0  0
  7  8  1  0  0  0  0
  7 38  1  0  0  0  0
  7 39  1  0  0  0  0
  8 12  1  0  0  0  0
  9 43  1  0  0  0  0
  9 44  1  0  0  0  0
  9 45  1  0  0  0  0
 10 40  1  0  0  0  0
 10 41  1  0  0  0  0
 10 42  1  0  0  0  0
 11 13  2  0  0  0  0
 11 46  1  0  0  0  0
 12 47  1  0  0  0  0
 12 48  1  0  0  0  0
 12 49  1  0  0  0  0
 13 14  1  0  0  0  0
 13 50  1  0  0  0  0
 14 15  1  0  0  0  0
 14 16  2  0  0  0  0
 15 51  1  0  0  0  0
 15 52  1  0  0  0  0
 15 53  1  0  0  0  0
 16 17  1  0  0  0  0
 16 54  1  0  0  0  0
 17 18  2  0  0  0  0
 17 55  1  0  0  0  0
 18 19  1  0  0  0  0
 18 56  1  0  0  0  0
 19 20  1  0  0  0  0
 19 21  2  0  0  0  0
 20 57  1  0  0  0  0
 20 58  1  0  0  0  0
 20 59  1  0  0  0  0
 21 22  1  0  0  0  0
 21 60  1  0  0  0  0
 22 23  2  0  0  0  0
 22 61  1  0  0  0  0
 23 24  1  0  0  0  0
 23 62  1  0  0  0  0
 24 25  2  0  0  0  0
 24 63  1  0  0  0  0
 25 26  1  0  0  0  0
 25 27  1  0  0  0  0
 26 28  2  0  0  0  0
 26 64  1  0  0  0  0
 27 65  1  0  0  0  0
 27 66  1  0  0  0  0
 27 67  1  0  0  0  0
 28 29  1  0  0  0  0
 28 68  1  0  0  0  0
 29 30  2  0  0  0  0
 29 69  1  0  0  0  0
 30 31  1  0  0  0  0
 30 32  1  0  0  0  0
 31 70  1  0  0  0  0
 31 71  1  0  0  0  0
 31 72  1  0  0  0  0
 33 73  1  0  0  0  0
 33 74  1  0  0  0  0
 33 75  1  0  0  0  0
M  END
>  <PUBCHEM_COMPOUND_CID>
6504513

>  <PUBCHEM_COMPOUND_CANONICALIZED>
1

>  <PUBCHEM_CACTVS_COMPLEXITY>
951

>  <PUBCHEM_CACTVS_HBOND_ACCEPTOR>
2

>  <PUBCHEM_CACTVS_HBOND_DONOR>
0

>  <PUBCHEM_CACTVS_ROTATABLE_BOND>
10

>  <PUBCHEM_CACTVS_SUBSKEYS>
AAADcfB4MAAAAAAAAAAAAAAAAAAAAAAAAAAgAAAAAAAAAAAAAAAAGgAAAAAADgCAgAICCAAABACIAiDSCAAAAAAgAAAICAEAAEgIBAIAIQAAEAAAgAAIoYMAgMAPAAAAAAAAAAAAAAAAAAAAAAAAAAAAAA==

>  <PUBCHEM_IUPAC_OPENEYE_NAME>
methyl (2E,4E,6E,8E,10E,12E,14E,16E)-2,6,11,15-tetramethyl-17-(2,6,6-trimethylcyclohexen-1-yl)heptadeca-2,4,6,8,10,12,14,16-octaenoate

>  <PUBCHEM_IUPAC_CAS_NAME>
(2E,4E,6E,8E,10E,12E,14E,16E)-2,6,11,15-tetramethyl-17-(2,6,6-trimethyl-1-cyclohexenyl)heptadeca-2,4,6,8,10,12,14,16-octaenoic acid methyl ester

>  <PUBCHEM_IUPAC_NAME>
methyl (2E,4E,6E,8E,10E,12E,14E,16E)-2,6,11,15-tetramethyl-17-(2,6,6-trimethylcyclohexen-1-yl)heptadeca-2,4,6,8,10,12,14,16-octaenoate

>  <PUBCHEM_IUPAC_SYSTEMATIC_NAME>
methyl (2E,4E,6E,8E,10E,12E,14E,16E)-2,6,11,15-tetramethyl-17-(2,6,6-trimethylcyclohexen-1-yl)heptadeca-2,4,6,8,10,12,14,16-octaenoate

>  <PUBCHEM_IUPAC_TRADITIONAL_NAME>
(2E,4E,6E,8E,10E,12E,14E,16E)-2,6,11,15-tetramethyl-17-(2,6,6-trimethylcyclohexen-1-yl)heptadeca-2,4,6,8,10,12,14,16-octaenoic acid methyl ester

>  <PUBCHEM_IUPAC_INCHI>
InChI=1S/C31H42O2/c1-24(14-9-10-15-25(2)18-12-19-28(5)30(32)33-8)16-11-17-26(3)21-22-29-27(4)20-13-23-31(29,6)7/h9-12,14-19,21-22H,13,20,23H2,1-8H3/b10-9+,16-11+,18-12+,22-21+,24-14+,25-15+,26-17+,28-19+

>  <PUBCHEM_IUPAC_INCHIKEY>
WWGLUXSMFKKERG-SEFCXUIZSA-N

>  <PUBCHEM_XLOGP3>
9.8

>  <PUBCHEM_EXACT_MASS>
446.318

>  <PUBCHEM_MOLECULAR_FORMULA>
C31H42O2

>  <PUBCHEM_MOLECULAR_WEIGHT>
446.675

>  <PUBCHEM_OPENEYE_CAN_SMILES>
CC1=C(C(CCC1)(C)C)C=CC(=CC=CC(=CC=CC=C(C)C=CC=C(C)C(=O)OC)C)C

>  <PUBCHEM_OPENEYE_ISO_SMILES>
CC1=C(C(CCC1)(C)C)/C=C/C(=C/C=C/C(=C/C=C/C=C(\C)/C=C/C=C(\C)/C(=O)OC)/C)/C

>  <PUBCHEM_CACTVS_TPSA>
26.3

>  <PUBCHEM_MONOISOTOPIC_WEIGHT>
446.318

>  <PUBCHEM_TOTAL_CHARGE>
0

>  <PUBCHEM_HEAVY_ATOM_COUNT>
33

>  <PUBCHEM_ATOM_DEF_STEREO_COUNT>
0

>  <PUBCHEM_ATOM_UDEF_STEREO_COUNT>
0

>  <PUBCHEM_BOND_DEF_STEREO_COUNT>
8

>  <PUBCHEM_BOND_UDEF_STEREO_COUNT>
0

>  <PUBCHEM_ISOTOPIC_ATOM_COUNT>
0

>  <PUBCHEM_COMPONENT_COUNT>
1

>  <PUBCHEM_CACTVS_TAUTO_COUNT>
1

>  <PUBCHEM_COORDINATE_TYPE>
1
5
255

$$$$
