6508206
 OpenBabel06101807152D

 39 39  0  0  0  0  0  0  0  0999 V2000
    5.4242   -0.8711    0.0000 C   0  0  0  0  0  0  0  0  0  0  0  0
    4.7693   -1.6268    0.0000 C   0  0  0  0  0  0  0  0  0  0  0  0
    5.5665    0.1188    0.0000 C   0  0  0  0  0  0  0  0  0  0  0  0
    5.7512   -1.8160    0.0000 C   0  0  0  0  0  0  0  0  0  0  0  0
    6.4140   -1.0134    0.0000 C   0  0  0  0  0  0  0  0  0  0  0  0
    3.8098   -1.9085    0.0000 C   0  0  0  0  0  0  0  0  0  0  0  0
    2.8503   -1.6268    0.0000 C   0  0  0  0  0  0  0  0  0  0  0  0
    2.1955   -0.8711    0.0000 C   0  0  0  0  0  0  0  0  0  0  0  0
    5.1511    1.0284    0.0000 C   0  0  0  0  0  0  0  0  0  0  0  0
    2.0532    0.1188    0.0000 C   0  0  0  0  0  0  0  0  0  0  0  0
    4.3098    1.5690    0.0000 C   0  0  0  0  0  0  0  0  0  0  0  0
    3.3098    1.5690    0.0000 C   0  0  0  0  0  0  0  0  0  0  0  0
    2.4686    1.0284    0.0000 C   0  0  0  0  0  0  0  0  0  0  0  0
    2.3097   -2.4681    0.0000 C   0  0  0  0  0  0  0  0  0  0  0  0
    3.0281    2.5285    0.0000 C   0  0  0  0  0  0  0  0  0  0  0  0
    4.7398   -2.2461    0.0000 H   0  0  0  0  0  0  0  0  0  0  0  0
    4.4341   -1.1052    0.0000 H   0  0  0  0  0  0  0  0  0  0  0  0
    6.1802    0.2070    0.0000 H   0  0  0  0  0  0  0  0  0  0  0  0
    5.1653   -2.0188    0.0000 H   0  0  0  0  0  0  0  0  0  0  0  0
    5.9540   -2.4019    0.0000 H   0  0  0  0  0  0  0  0  0  0  0  0
    6.3371   -1.6133    0.0000 H   0  0  0  0  0  0  0  0  0  0  0  0
    6.3258   -1.6271    0.0000 H   0  0  0  0  0  0  0  0  0  0  0  0
    7.0277   -1.1016    0.0000 H   0  0  0  0  0  0  0  0  0  0  0  0
    6.5022   -0.3997    0.0000 H   0  0  0  0  0  0  0  0  0  0  0  0
    3.8098   -2.5285    0.0000 H   0  0  0  0  0  0  0  0  0  0  0  0
    1.5867   -0.7537    0.0000 H   0  0  0  0  0  0  0  0  0  0  0  0
    2.7594   -0.6135    0.0000 H   0  0  0  0  0  0  0  0  0  0  0  0
    5.6196    1.4344    0.0000 H   0  0  0  0  0  0  0  0  0  0  0  0
    1.6044    0.5466    0.0000 H   0  0  0  0  0  0  0  0  0  0  0  0
    2.6668    0.0305    0.0000 H   0  0  0  0  0  0  0  0  0  0  0  0
    4.7972    1.9523    0.0000 H   0  0  0  0  0  0  0  0  0  0  0  0
    4.1351    0.9742    0.0000 H   0  0  0  0  0  0  0  0  0  0  0  0
    2.0000    1.4344    0.0000 H   0  0  0  0  0  0  0  0  0  0  0  0
    1.7881   -2.1329    0.0000 H   0  0  0  0  0  0  0  0  0  0  0  0
    1.9745   -2.9896    0.0000 H   0  0  0  0  0  0  0  0  0  0  0  0
    2.8313   -2.8032    0.0000 H   0  0  0  0  0  0  0  0  0  0  0  0
    3.6230    2.7032    0.0000 H   0  0  0  0  0  0  0  0  0  0  0  0
    2.8534    3.1234    0.0000 H   0  0  0  0  0  0  0  0  0  0  0  0
    2.4332    2.3539    0.0000 H   0  0  0  0  0  0  0  0  0  0  0  0
  1  2  1  0  0  0  0
  1  3  1  0  0  0  0
  1  4  1  0  0  0  0
  1  5  1  0  0  0  0
  2  6  1  0  0  0  0
  2 16  1  0  0  0  0
  2 17  1  0  0  0  0
  3  9  2  0  0  0  0
  3 18  1  0  0  0  0
  4 19  1  0  0  0  0
  4 20  1  0  0  0  0
  4 21  1  0  0  0  0
  5 22  1  0  0  0  0
  5 23  1  0  0  0  0
  5 24  1  0  0  0  0
  6  7  2  0  0  0  0
  6 25  1  0  0  0  0
  7  8  1  0  0  0  0
  7 14  1  0  0  0  0
  8 10  1  0  0  0  0
  8 26  1  0  0  0  0
  8 27  1  0  0  0  0
  9 11  1  0  0  0  0
  9 28  1  0  0  0  0
 10 13  1  0  0  0  0
 10 29  1  0  0  0  0
 10 30  1  0  0  0  0
 11 12  1  0  0  0  0
 11 31  1  0  0  0  0
 11 32  1  0  0  0  0
 12 13  2  0  0  0  0
 12 15  1  0  0  0  0
 13 33  1  0  0  0  0
 14 34  1  0  0  0  0
 14 35  1  0  0  0  0
 14 36  1  0  0  0  0
 15 37  1  0  0  0  0
 15 38  1  0  0  0  0
 15 39  1  0  0  0  0
M  END
>  <PUBCHEM_COMPOUND_CID>
6508206

>  <PUBCHEM_COMPOUND_CANONICALIZED>
1

>  <PUBCHEM_CACTVS_COMPLEXITY>
287

>  <PUBCHEM_CACTVS_HBOND_ACCEPTOR>
0

>  <PUBCHEM_CACTVS_HBOND_DONOR>
0

>  <PUBCHEM_CACTVS_ROTATABLE_BOND>
0

>  <PUBCHEM_CACTVS_SUBSKEYS>
AAADceBwAAAAAAAAAAAAAAAAAAAAAAAAAAAAAAAAAAAAAAAAAAAAGAAAAAAADgCAAAACAAAAAACAAiBCAAAAAAAgAAAICAAAAAgAAAIAAQAAAAAAgAAIAAIAAAAJAAAAAAAAAAAAAAAAAAAAAAAAAAAAAA==

>  <PUBCHEM_IUPAC_OPENEYE_NAME>
(1Z,4Z,8Z)-2,6,6,9-tetramethylcycloundeca-1,4,8-triene

>  <PUBCHEM_IUPAC_CAS_NAME>
(1Z,4Z,8Z)-2,6,6,9-tetramethylcycloundeca-1,4,8-triene

>  <PUBCHEM_IUPAC_NAME>
(1Z,4Z,8Z)-2,6,6,9-tetramethylcycloundeca-1,4,8-triene

>  <PUBCHEM_IUPAC_SYSTEMATIC_NAME>
(1Z,4Z,8Z)-2,6,6,9-tetramethylcycloundeca-1,4,8-triene

>  <PUBCHEM_IUPAC_TRADITIONAL_NAME>
(1Z,4Z,8Z)-2,6,6,9-tetramethylcycloundeca-1,4,8-triene

>  <PUBCHEM_IUPAC_INCHI>
InChI=1S/C15H24/c1-13-7-5-8-14(2)10-12-15(3,4)11-6-9-13/h6-7,10-11H,5,8-9,12H2,1-4H3/b11-6-,13-7-,14-10-

>  <PUBCHEM_IUPAC_INCHIKEY>
FAMPSKZZVDUYOS-KXWHQPPKSA-N

>  <PUBCHEM_XLOGP3_AA>
4.5

>  <PUBCHEM_EXACT_MASS>
204.188

>  <PUBCHEM_MOLECULAR_FORMULA>
C15H24

>  <PUBCHEM_MOLECULAR_WEIGHT>
204.357

>  <PUBCHEM_OPENEYE_CAN_SMILES>
CC1=CCC(C=CCC(=CCC1)C)(C)C

>  <PUBCHEM_OPENEYE_ISO_SMILES>
C/C/1=C/CC(/C=C\C/C(=C\CC1)/C)(C)C

>  <PUBCHEM_CACTVS_TPSA>
0

>  <PUBCHEM_MONOISOTOPIC_WEIGHT>
204.188

>  <PUBCHEM_TOTAL_CHARGE>
0

>  <PUBCHEM_HEAVY_ATOM_COUNT>
15

>  <PUBCHEM_ATOM_DEF_STEREO_COUNT>
0

>  <PUBCHEM_ATOM_UDEF_STEREO_COUNT>
0

>  <PUBCHEM_BOND_DEF_STEREO_COUNT>
3

>  <PUBCHEM_BOND_UDEF_STEREO_COUNT>
0

>  <PUBCHEM_ISOTOPIC_ATOM_COUNT>
0

>  <PUBCHEM_COMPONENT_COUNT>
1

>  <PUBCHEM_CACTVS_TAUTO_COUNT>
1

>  <PUBCHEM_COORDINATE_TYPE>
1
5
255

$$$$
