656552
 OpenBabel06101807152D

 45 45  0  0  1  0  0  0  0  0999 V2000
    6.0010   -0.2780    0.0000 S   0  0  0  0  0  0  0  0  0  0  0  0
    4.2690    2.7220    0.0000 S   0  0  0  0  0  0  0  0  0  0  0  0
    4.2690   -0.2780    0.0000 O   0  0  0  0  0  0  0  0  0  0  0  0
    4.2690   -3.2780    0.0000 O   0  0  0  0  0  0  0  0  0  0  0  0
    2.5369   -2.2780    0.0000 O   0  0  0  0  0  0  0  0  0  0  0  0
    6.0010   -2.2780    0.0000 O   0  0  0  0  0  0  0  0  0  0  0  0
    2.5369    0.7220    0.0000 O   0  0  0  0  0  0  0  0  0  0  0  0
    6.0010    2.7220    0.0000 O   0  0  0  0  0  0  0  0  0  0  0  0
    5.1350    2.2220    0.0000 O   0  0  0  0  0  0  0  0  0  0  0  0
    3.4030    3.2220    0.0000 O   0  5  0  0  0  0  0  0  0  0  0  0
    4.7690    3.5880    0.0000 O   0  0  0  0  0  0  0  0  0  0  0  0
    3.7690    1.8560    0.0000 O   0  0  0  0  0  0  0  0  0  0  0  0
    5.1350    1.2220    0.0000 N   0  0  0  0  0  0  0  0  0  0  0  0
    4.2690   -2.2780    0.0000 C   0  0  1  0  0  0  0  0  0  0  0  0
    3.4030   -1.7780    0.0000 C   0  0  1  0  0  0  0  0  0  0  0  0
    5.1350   -1.7780    0.0000 C   0  0  2  0  0  0  0  0  0  0  0  0
    3.4030   -0.7780    0.0000 C   0  0  1  0  0  0  0  0  0  0  0  0
    5.1350   -0.7780    0.0000 C   0  0  2  0  0  0  0  0  0  0  0  0
    2.5369   -0.2780    0.0000 C   0  0  0  0  0  0  0  0  0  0  0  0
    6.0010    0.7220    0.0000 C   0  0  0  0  0  0  0  0  0  0  0  0
    6.8671    1.2220    0.0000 C   0  0  0  0  0  0  0  0  0  0  0  0
    6.8671    2.2220    0.0000 C   0  0  2  0  0  0  0  0  0  0  0  0
    7.7331    2.7220    0.0000 C   0  0  0  0  0  0  0  0  0  0  0  0
    8.5991    2.2220    0.0000 C   0  0  0  0  0  0  0  0  0  0  0  0
    9.4651    2.7220    0.0000 C   0  0  0  0  0  0  0  0  0  0  0  0
    4.8059   -2.5880    0.0000 H   0  0  0  0  0  0  0  0  0  0  0  0
    3.4030   -2.3980    0.0000 H   0  0  0  0  0  0  0  0  0  0  0  0
    5.6720   -1.4680    0.0000 H   0  0  0  0  0  0  0  0  0  0  0  0
    3.4030   -0.1580    0.0000 H   0  0  0  0  0  0  0  0  0  0  0  0
    5.1350   -0.1580    0.0000 H   0  0  0  0  0  0  0  0  0  0  0  0
    1.9264   -0.1704    0.0000 H   0  0  0  0  0  0  0  0  0  0  0  0
    2.3249   -0.8606    0.0000 H   0  0  0  0  0  0  0  0  0  0  0  0
    3.7320   -3.5880    0.0000 H   0  0  0  0  0  0  0  0  0  0  0  0
    2.0000   -1.9680    0.0000 H   0  0  0  0  0  0  0  0  0  0  0  0
    6.5380   -1.9680    0.0000 H   0  0  0  0  0  0  0  0  0  0  0  0
    7.0791    0.6394    0.0000 H   0  0  0  0  0  0  0  0  0  0  0  0
    7.4776    1.3296    0.0000 H   0  0  0  0  0  0  0  0  0  0  0  0
    6.3301    1.9120    0.0000 H   0  0  0  0  0  0  0  0  0  0  0  0
    2.0000    1.0320    0.0000 H   0  0  0  0  0  0  0  0  0  0  0  0
    8.1316    3.1969    0.0000 H   0  0  0  0  0  0  0  0  0  0  0  0
    7.3346    3.1969    0.0000 H   0  0  0  0  0  0  0  0  0  0  0  0
    6.0010    3.3420    0.0000 H   0  0  0  0  0  0  0  0  0  0  0  0
    8.5991    1.6020    0.0000 H   0  0  0  0  0  0  0  0  0  0  0  0
   10.0021    2.4120    0.0000 H   0  0  0  0  0  0  0  0  0  0  0  0
    9.4651    3.3420    0.0000 H   0  0  0  0  0  0  0  0  0  0  0  0
  1 20  1  0  0  0  0
  2  9  1  0  0  0  0
  2 10  1  0  0  0  0
  2 11  2  0  0  0  0
  2 12  2  0  0  0  0
  3 17  1  0  0  0  0
  3 18  1  0  0  0  0
  4 33  1  0  0  0  0
  5 34  1  0  0  0  0
  6 35  1  0  0  0  0
  7 19  1  0  0  0  0
  7 39  1  0  0  0  0
  8 42  1  0  0  0  0
  9 13  1  0  0  0  0
 13 20  2  3  0  0  0
 14  4  1  0  0  0  0
 14 15  1  6  0  0  0
 14 26  1  0  0  0  0
 15  5  1  0  0  0  0
 15 17  1  1  0  0  0
 15 27  1  0  0  0  0
 16  6  1  0  0  0  0
 16 14  1  1  0  0  0
 16 28  1  0  0  0  0
 17 19  1  0  0  0  0
 17 29  1  6  0  0  0
 18  1  1  0  0  0  0
 18 16  1  6  0  0  0
 18 30  1  0  0  0  0
 19 31  1  0  0  0  0
 19 32  1  0  0  0  0
 20 21  1  0  0  0  0
 21 22  1  0  0  0  0
 21 36  1  0  0  0  0
 21 37  1  0  0  0  0
 22  8  1  0  0  0  0
 22 23  1  0  0  0  0
 22 38  1  6  0  0  0
 23 24  1  0  0  0  0
 23 40  1  0  0  0  0
 23 41  1  0  0  0  0
 24 25  2  0  0  0  0
 24 43  1  0  0  0  0
 25 44  1  0  0  0  0
 25 45  1  0  0  0  0
M  CHG  1  10  -1
M  END
>  <PUBCHEM_COMPOUND_CID>
656552

>  <PUBCHEM_COMPOUND_CANONICALIZED>
1

>  <PUBCHEM_CACTVS_COMPLEXITY>
549

>  <PUBCHEM_CACTVS_HBOND_ACCEPTOR>
12

>  <PUBCHEM_CACTVS_HBOND_DONOR>
5

>  <PUBCHEM_CACTVS_ROTATABLE_BOND>
8

>  <PUBCHEM_CACTVS_SUBSKEYS>
AAADceByPABgAAAAAAAAAAAAAAAAAAAAAAAkAAAAAAAAAAAAAAAAHgQECAAACBSlwAKAAAAQBgigACBiADAAAAAgABAIAAAwAAgBEAIgAQACQAAFwAAjAAHAYAQAAAAAAAAAAAAAAAAAAAAAAAAAAAAAAA==

>  <PUBCHEM_IUPAC_OPENEYE_NAME>
[[(3S)-3-hydroxy-1-[(2S,3R,4S,5S,6R)-3,4,5-trihydroxy-6-(hydroxymethyl)tetrahydropyran-2-yl]sulfanyl-hex-5-enylidene]amino] sulfate

>  <PUBCHEM_IUPAC_CAS_NAME>
[[(3S)-3-hydroxy-1-[[(2S,3R,4S,5S,6R)-3,4,5-trihydroxy-6-(hydroxymethyl)-2-oxanyl]thio]hex-5-enylidene]amino] sulfate

>  <PUBCHEM_IUPAC_NAME>
[[(3S)-3-hydroxy-1-[(2S,3R,4S,5S,6R)-3,4,5-trihydroxy-6-(hydroxymethyl)oxan-2-yl]sulfanylhex-5-enylidene]amino] sulfate

>  <PUBCHEM_IUPAC_SYSTEMATIC_NAME>
[[(3S)-1-[(2S,3R,4S,5S,6R)-6-(hydroxymethyl)-3,4,5-tris(oxidanyl)oxan-2-yl]sulfanyl-3-oxidanyl-hex-5-enylidene]amino] sulfate

>  <PUBCHEM_IUPAC_TRADITIONAL_NAME>
[[(3S)-3-hydroxy-1-[[(2S,3R,4S,5S,6R)-3,4,5-trihydroxy-6-methylol-tetrahydropyran-2-yl]thio]hex-5-enylidene]amino] sulfate

>  <PUBCHEM_IUPAC_INCHI>
InChI=1S/C12H21NO10S2/c1-2-3-6(15)4-8(13-23-25(19,20)21)24-12-11(18)10(17)9(16)7(5-14)22-12/h2,6-7,9-12,14-18H,1,3-5H2,(H,19,20,21)/p-1/t6-,7+,9+,10-,11+,12-/m0/s1

>  <PUBCHEM_IUPAC_INCHIKEY>
ZEGLQSKFSKZGRO-RELRXRRDSA-M

>  <PUBCHEM_XLOGP3_AA>
-1.5

>  <PUBCHEM_EXACT_MASS>
402.053

>  <PUBCHEM_MOLECULAR_FORMULA>
C12H20NO10S2-

>  <PUBCHEM_MOLECULAR_WEIGHT>
402.409

>  <PUBCHEM_OPENEYE_CAN_SMILES>
C=CCC(CC(=NOS(=O)(=O)[O-])SC1C(C(C(C(O1)CO)O)O)O)O

>  <PUBCHEM_OPENEYE_ISO_SMILES>
C=CC[C@@H](CC(=NOS(=O)(=O)[O-])S[C@H]1[C@@H]([C@H]([C@@H]([C@H](O1)CO)O)O)O)O

>  <PUBCHEM_CACTVS_TPSA>
223

>  <PUBCHEM_MONOISOTOPIC_WEIGHT>
402.053

>  <PUBCHEM_TOTAL_CHARGE>
-1

>  <PUBCHEM_HEAVY_ATOM_COUNT>
25

>  <PUBCHEM_ATOM_DEF_STEREO_COUNT>
6

>  <PUBCHEM_ATOM_UDEF_STEREO_COUNT>
0

>  <PUBCHEM_BOND_DEF_STEREO_COUNT>
0

>  <PUBCHEM_BOND_UDEF_STEREO_COUNT>
1

>  <PUBCHEM_ISOTOPIC_ATOM_COUNT>
0

>  <PUBCHEM_COMPONENT_COUNT>
1

>  <PUBCHEM_CACTVS_TAUTO_COUNT>
2

>  <PUBCHEM_COORDINATE_TYPE>
1
5
255

>  <PUBCHEM_BONDANNOTATIONS>
18  1  5
13  20  1
17  19  5
14  4  5
15  5  6
16  6  6
22  8  5

$$$$
