656536
 OpenBabel06101807152D

 44 44  0  0  1  0  0  0  0  0999 V2000
    6.0010   -0.2780    0.0000 S   0  0  0  0  0  0  0  0  0  0  0  0
    4.2690    2.7220    0.0000 S   0  0  0  0  0  0  0  0  0  0  0  0
    4.2690   -0.2780    0.0000 O   0  0  0  0  0  0  0  0  0  0  0  0
    4.2690   -3.2780    0.0000 O   0  0  0  0  0  0  0  0  0  0  0  0
    2.5369   -2.2780    0.0000 O   0  0  0  0  0  0  0  0  0  0  0  0
    6.0010   -2.2780    0.0000 O   0  0  0  0  0  0  0  0  0  0  0  0
    2.5369    0.7220    0.0000 O   0  0  0  0  0  0  0  0  0  0  0  0
    6.8671    3.2220    0.0000 O   0  0  0  0  0  0  0  0  0  0  0  0
    5.1350    2.2220    0.0000 O   0  0  0  0  0  0  0  0  0  0  0  0
    3.4030    3.2220    0.0000 O   0  5  0  0  0  0  0  0  0  0  0  0
    4.7690    3.5880    0.0000 O   0  0  0  0  0  0  0  0  0  0  0  0
    3.7690    1.8560    0.0000 O   0  0  0  0  0  0  0  0  0  0  0  0
    5.1350    1.2220    0.0000 N   0  0  0  0  0  0  0  0  0  0  0  0
    4.2690   -2.2780    0.0000 C   0  0  1  0  0  0  0  0  0  0  0  0
    3.4030   -1.7780    0.0000 C   0  0  1  0  0  0  0  0  0  0  0  0
    5.1350   -1.7780    0.0000 C   0  0  2  0  0  0  0  0  0  0  0  0
    3.4030   -0.7780    0.0000 C   0  0  1  0  0  0  0  0  0  0  0  0
    5.1350   -0.7780    0.0000 C   0  0  2  0  0  0  0  0  0  0  0  0
    2.5369   -0.2780    0.0000 C   0  0  0  0  0  0  0  0  0  0  0  0
    6.8671    2.2220    0.0000 C   0  0  0  0  0  0  0  0  0  0  0  0
    6.8671    1.2220    0.0000 C   0  0  0  0  0  0  0  0  0  0  0  0
    6.0010    0.7220    0.0000 C   0  0  0  0  0  0  0  0  0  0  0  0
    7.8671    2.2220    0.0000 C   0  0  0  0  0  0  0  0  0  0  0  0
    5.8671    2.2220    0.0000 C   0  0  0  0  0  0  0  0  0  0  0  0
    4.8059   -2.5880    0.0000 H   0  0  0  0  0  0  0  0  0  0  0  0
    3.4030   -2.3980    0.0000 H   0  0  0  0  0  0  0  0  0  0  0  0
    5.6720   -1.4680    0.0000 H   0  0  0  0  0  0  0  0  0  0  0  0
    3.4030   -0.1580    0.0000 H   0  0  0  0  0  0  0  0  0  0  0  0
    5.1350   -0.1580    0.0000 H   0  0  0  0  0  0  0  0  0  0  0  0
    1.9264   -0.1704    0.0000 H   0  0  0  0  0  0  0  0  0  0  0  0
    2.3249   -0.8606    0.0000 H   0  0  0  0  0  0  0  0  0  0  0  0
    3.7320   -3.5880    0.0000 H   0  0  0  0  0  0  0  0  0  0  0  0
    2.0000   -1.9680    0.0000 H   0  0  0  0  0  0  0  0  0  0  0  0
    6.5380   -1.9680    0.0000 H   0  0  0  0  0  0  0  0  0  0  0  0
    7.0791    0.6394    0.0000 H   0  0  0  0  0  0  0  0  0  0  0  0
    7.4776    1.3296    0.0000 H   0  0  0  0  0  0  0  0  0  0  0  0
    2.0000    1.0320    0.0000 H   0  0  0  0  0  0  0  0  0  0  0  0
    5.8671    2.8420    0.0000 H   0  0  0  0  0  0  0  0  0  0  0  0
    5.2471    2.2220    0.0000 H   0  0  0  0  0  0  0  0  0  0  0  0
    7.8671    1.6020    0.0000 H   0  0  0  0  0  0  0  0  0  0  0  0
    8.4871    2.2220    0.0000 H   0  0  0  0  0  0  0  0  0  0  0  0
    7.8671    2.8420    0.0000 H   0  0  0  0  0  0  0  0  0  0  0  0
    5.8671    1.6020    0.0000 H   0  0  0  0  0  0  0  0  0  0  0  0
    7.4040    3.5320    0.0000 H   0  0  0  0  0  0  0  0  0  0  0  0
  1 22  1  0  0  0  0
  2  9  1  0  0  0  0
  2 10  1  0  0  0  0
  2 11  2  0  0  0  0
  2 12  2  0  0  0  0
  3 17  1  0  0  0  0
  3 18  1  0  0  0  0
  4 32  1  0  0  0  0
  5 33  1  0  0  0  0
  6 34  1  0  0  0  0
  7 19  1  0  0  0  0
  7 37  1  0  0  0  0
  8 20  1  0  0  0  0
  8 44  1  0  0  0  0
  9 13  1  0  0  0  0
 13 22  2  3  0  0  0
 14  4  1  0  0  0  0
 14 15  1  6  0  0  0
 14 25  1  0  0  0  0
 15  5  1  0  0  0  0
 15 17  1  1  0  0  0
 15 26  1  0  0  0  0
 16  6  1  0  0  0  0
 16 14  1  1  0  0  0
 16 27  1  0  0  0  0
 17 19  1  0  0  0  0
 17 28  1  6  0  0  0
 18  1  1  0  0  0  0
 18 16  1  6  0  0  0
 18 29  1  0  0  0  0
 19 30  1  0  0  0  0
 19 31  1  0  0  0  0
 20 21  1  0  0  0  0
 20 23  1  0  0  0  0
 20 24  1  0  0  0  0
 21 22  1  0  0  0  0
 21 35  1  0  0  0  0
 21 36  1  0  0  0  0
 23 40  1  0  0  0  0
 23 41  1  0  0  0  0
 23 42  1  0  0  0  0
 24 38  1  0  0  0  0
 24 39  1  0  0  0  0
 24 43  1  0  0  0  0
M  CHG  1  10  -1
M  END
>  <PUBCHEM_COMPOUND_CID>
656536

>  <PUBCHEM_COMPOUND_CANONICALIZED>
1

>  <PUBCHEM_CACTVS_COMPLEXITY>
532

>  <PUBCHEM_CACTVS_HBOND_ACCEPTOR>
12

>  <PUBCHEM_CACTVS_HBOND_DONOR>
5

>  <PUBCHEM_CACTVS_ROTATABLE_BOND>
6

>  <PUBCHEM_CACTVS_SUBSKEYS>
AAADceByPABgAAAAAAAAAAAAAAAAAAAAAAAkAAAAAAAAAAAAAAAAHgQECAAADFSlwAKCAAAQBgggAAAgADAAAAAAABAAAAAwAAABEAIgAAACQAAFAAAjAAHAYAQIAAAAAAAAAAAAAAAAAAAAAAAAAAAAAA==

>  <PUBCHEM_IUPAC_OPENEYE_NAME>
[[3-hydroxy-3-methyl-1-[(2S,3R,4S,5S,6R)-3,4,5-trihydroxy-6-(hydroxymethyl)tetrahydropyran-2-yl]sulfanyl-butylidene]amino] sulfate

>  <PUBCHEM_IUPAC_CAS_NAME>
[[3-hydroxy-3-methyl-1-[[(2S,3R,4S,5S,6R)-3,4,5-trihydroxy-6-(hydroxymethyl)-2-oxanyl]thio]butylidene]amino] sulfate

>  <PUBCHEM_IUPAC_NAME>
[[3-hydroxy-3-methyl-1-[(2S,3R,4S,5S,6R)-3,4,5-trihydroxy-6-(hydroxymethyl)oxan-2-yl]sulfanylbutylidene]amino] sulfate

>  <PUBCHEM_IUPAC_SYSTEMATIC_NAME>
[[1-[(2S,3R,4S,5S,6R)-6-(hydroxymethyl)-3,4,5-tris(oxidanyl)oxan-2-yl]sulfanyl-3-methyl-3-oxidanyl-butylidene]amino] sulfate

>  <PUBCHEM_IUPAC_TRADITIONAL_NAME>
[[3-hydroxy-3-methyl-1-[[(2S,3R,4S,5S,6R)-3,4,5-trihydroxy-6-methylol-tetrahydropyran-2-yl]thio]butylidene]amino] sulfate

>  <PUBCHEM_IUPAC_INCHI>
InChI=1S/C11H21NO10S2/c1-11(2,17)3-6(12-22-24(18,19)20)23-10-9(16)8(15)7(14)5(4-13)21-10/h5,7-10,13-17H,3-4H2,1-2H3,(H,18,19,20)/p-1/t5-,7-,8+,9-,10+/m1/s1

>  <PUBCHEM_IUPAC_INCHIKEY>
DYAQCRHEYVANDL-HOQQJHGQSA-M

>  <PUBCHEM_XLOGP3_AA>
-2

>  <PUBCHEM_EXACT_MASS>
390.053

>  <PUBCHEM_MOLECULAR_FORMULA>
C11H20NO10S2-

>  <PUBCHEM_MOLECULAR_WEIGHT>
390.398

>  <PUBCHEM_OPENEYE_CAN_SMILES>
CC(C)(CC(=NOS(=O)(=O)[O-])SC1C(C(C(C(O1)CO)O)O)O)O

>  <PUBCHEM_OPENEYE_ISO_SMILES>
CC(C)(CC(=NOS(=O)(=O)[O-])S[C@H]1[C@@H]([C@H]([C@@H]([C@H](O1)CO)O)O)O)O

>  <PUBCHEM_CACTVS_TPSA>
223

>  <PUBCHEM_MONOISOTOPIC_WEIGHT>
390.053

>  <PUBCHEM_TOTAL_CHARGE>
-1

>  <PUBCHEM_HEAVY_ATOM_COUNT>
24

>  <PUBCHEM_ATOM_DEF_STEREO_COUNT>
5

>  <PUBCHEM_ATOM_UDEF_STEREO_COUNT>
0

>  <PUBCHEM_BOND_DEF_STEREO_COUNT>
0

>  <PUBCHEM_BOND_UDEF_STEREO_COUNT>
1

>  <PUBCHEM_ISOTOPIC_ATOM_COUNT>
0

>  <PUBCHEM_COMPONENT_COUNT>
1

>  <PUBCHEM_CACTVS_TAUTO_COUNT>
2

>  <PUBCHEM_COORDINATE_TYPE>
1
5
255

>  <PUBCHEM_BONDANNOTATIONS>
18  1  5
13  22  1
17  19  5
14  4  5
15  5  6
16  6  6

$$$$
