66548
 OpenBabel06101807152D

 33 35  0  0  0  0  0  0  0  0999 V2000
    7.2901   -1.5903    0.0000 O   0  0  0  0  0  0  0  0  0  0  0  0
    5.5301    1.4444    0.0000 O   0  0  0  0  0  0  0  0  0  0  0  0
    3.7702   -1.5903    0.0000 O   0  0  0  0  0  0  0  0  0  0  0  0
    2.0000   -1.5798    0.0000 O   0  0  0  0  0  0  0  0  0  0  0  0
    8.1962   -1.0764    0.0000 C   0  0  0  0  0  0  0  0  0  0  0  0
    6.3961   -0.0556    0.0000 C   0  0  0  0  0  0  0  0  0  0  0  0
    6.3961   -1.0556    0.0000 C   0  0  0  0  0  0  0  0  0  0  0  0
    8.1962   -0.0348    0.0000 C   0  0  0  0  0  0  0  0  0  0  0  0
    9.1962   -1.0803    0.0000 C   0  0  0  0  0  0  0  0  0  0  0  0
    8.6928   -1.9444    0.0000 C   0  0  0  0  0  0  0  0  0  0  0  0
    7.2901    0.4790    0.0000 C   0  0  0  0  0  0  0  0  0  0  0  0
    5.5301    0.4444    0.0000 C   0  0  0  0  0  0  0  0  0  0  0  0
    4.6641   -0.0556    0.0000 C   0  0  0  0  0  0  0  0  0  0  0  0
    5.5301   -1.5556    0.0000 C   0  0  0  0  0  0  0  0  0  0  0  0
    4.6641   -1.0556    0.0000 C   0  0  0  0  0  0  0  0  0  0  0  0
    3.7702    0.4790    0.0000 C   0  0  0  0  0  0  0  0  0  0  0  0
    2.8641   -0.0348    0.0000 C   0  0  0  0  0  0  0  0  0  0  0  0
    2.8641   -1.0764    0.0000 C   0  0  0  0  0  0  0  0  0  0  0  0
    4.6641    1.9444    0.0000 C   0  0  0  0  0  0  0  0  0  0  0  0
    8.7319    0.2773    0.0000 H   0  0  0  0  0  0  0  0  0  0  0  0
    8.1547   -2.2523    0.0000 H   0  0  0  0  0  0  0  0  0  0  0  0
    9.0008   -2.4825    0.0000 H   0  0  0  0  0  0  0  0  0  0  0  0
    9.2310   -1.6364    0.0000 H   0  0  0  0  0  0  0  0  0  0  0  0
    9.1938   -1.7003    0.0000 H   0  0  0  0  0  0  0  0  0  0  0  0
    9.8162   -1.0827    0.0000 H   0  0  0  0  0  0  0  0  0  0  0  0
    9.1985   -0.4603    0.0000 H   0  0  0  0  0  0  0  0  0  0  0  0
    7.2829    1.0990    0.0000 H   0  0  0  0  0  0  0  0  0  0  0  0
    5.5301   -2.1756    0.0000 H   0  0  0  0  0  0  0  0  0  0  0  0
    3.7773    1.0990    0.0000 H   0  0  0  0  0  0  0  0  0  0  0  0
    2.3284    0.2773    0.0000 H   0  0  0  0  0  0  0  0  0  0  0  0
    4.9741    2.4813    0.0000 H   0  0  0  0  0  0  0  0  0  0  0  0
    4.1272    2.2544    0.0000 H   0  0  0  0  0  0  0  0  0  0  0  0
    4.3541    1.4074    0.0000 H   0  0  0  0  0  0  0  0  0  0  0  0
  1  5  1  0  0  0  0
  1  7  1  0  0  0  0
  2 12  1  0  0  0  0
  2 19  1  0  0  0  0
  3 15  1  0  0  0  0
  3 18  1  0  0  0  0
  4 18  2  0  0  0  0
  5  8  1  0  0  0  0
  5  9  1  0  0  0  0
  5 10  1  0  0  0  0
  6  7  2  0  0  0  0
  6 11  1  0  0  0  0
  6 12  1  0  0  0  0
  7 14  1  0  0  0  0
  8 11  2  0  0  0  0
  8 20  1  0  0  0  0
  9 24  1  0  0  0  0
  9 25  1  0  0  0  0
  9 26  1  0  0  0  0
 10 21  1  0  0  0  0
 10 22  1  0  0  0  0
 10 23  1  0  0  0  0
 11 27  1  0  0  0  0
 12 13  2  0  0  0  0
 13 15  1  0  0  0  0
 13 16  1  0  0  0  0
 14 15  2  0  0  0  0
 14 28  1  0  0  0  0
 16 17  2  0  0  0  0
 16 29  1  0  0  0  0
 17 18  1  0  0  0  0
 17 30  1  0  0  0  0
 19 31  1  0  0  0  0
 19 32  1  0  0  0  0
 19 33  1  0  0  0  0
M  END
>  <PUBCHEM_COMPOUND_CID>
66548

>  <PUBCHEM_COMPOUND_CANONICALIZED>
1

>  <PUBCHEM_CACTVS_COMPLEXITY>
437

>  <PUBCHEM_CACTVS_HBOND_ACCEPTOR>
4

>  <PUBCHEM_CACTVS_HBOND_DONOR>
0

>  <PUBCHEM_CACTVS_ROTATABLE_BOND>
1

>  <PUBCHEM_CACTVS_SUBSKEYS>
AAADccBwOAAAAAAAAAAAAAAAAAAAAAAAAAAwQIAAAAAAAACBAAAAGgAAAAAADESAmAIyDoAABACIAiDSCAACCAAgIAAIiAAGCMgMJyKEMBqCOiClwBUIqYeA4GwOIAACCAAIAABAAAQQABAAAAAAAAAAAA==

>  <PUBCHEM_IUPAC_OPENEYE_NAME>
5-methoxy-2,2-dimethyl-pyrano[3,2-g]chromen-8-one

>  <PUBCHEM_IUPAC_CAS_NAME>
5-methoxy-2,2-dimethyl-8-pyrano[3,2-g][1]benzopyranone

>  <PUBCHEM_IUPAC_NAME>
5-methoxy-2,2-dimethylpyrano[3,2-g]chromen-8-one

>  <PUBCHEM_IUPAC_SYSTEMATIC_NAME>
5-methoxy-2,2-dimethyl-pyrano[3,2-g]chromen-8-one

>  <PUBCHEM_IUPAC_TRADITIONAL_NAME>
5-methoxy-2,2-dimethyl-pyrano[3,2-g]chromen-8-one

>  <PUBCHEM_IUPAC_INCHI>
InChI=1S/C15H14O4/c1-15(2)7-6-10-12(19-15)8-11-9(14(10)17-3)4-5-13(16)18-11/h4-8H,1-3H3

>  <PUBCHEM_IUPAC_INCHIKEY>
JSJIIHRNDMLJGK-UHFFFAOYSA-N

>  <PUBCHEM_XLOGP3_AA>
2.8

>  <PUBCHEM_EXACT_MASS>
258.089

>  <PUBCHEM_MOLECULAR_FORMULA>
C15H14O4

>  <PUBCHEM_MOLECULAR_WEIGHT>
258.273

>  <PUBCHEM_OPENEYE_CAN_SMILES>
CC1(C=CC2=C(O1)C=C3C(=C2OC)C=CC(=O)O3)C

>  <PUBCHEM_OPENEYE_ISO_SMILES>
CC1(C=CC2=C(O1)C=C3C(=C2OC)C=CC(=O)O3)C

>  <PUBCHEM_CACTVS_TPSA>
44.8

>  <PUBCHEM_MONOISOTOPIC_WEIGHT>
258.089

>  <PUBCHEM_TOTAL_CHARGE>
0

>  <PUBCHEM_HEAVY_ATOM_COUNT>
19

>  <PUBCHEM_ATOM_DEF_STEREO_COUNT>
0

>  <PUBCHEM_ATOM_UDEF_STEREO_COUNT>
0

>  <PUBCHEM_BOND_DEF_STEREO_COUNT>
0

>  <PUBCHEM_BOND_UDEF_STEREO_COUNT>
0

>  <PUBCHEM_ISOTOPIC_ATOM_COUNT>
0

>  <PUBCHEM_COMPONENT_COUNT>
1

>  <PUBCHEM_CACTVS_TAUTO_COUNT>
1

>  <PUBCHEM_COORDINATE_TYPE>
1
5
255

>  <PUBCHEM_BONDANNOTATIONS>
12  13  8
13  15  8
13  16  8
14  15  8
16  17  8
17  18  8
3  15  8
3  18  8
6  12  8
6  7  8
7  14  8

$$$$
