66555471
 OpenBabel06101807152D

 69 73  0  0  1  0  0  0  0  0999 V2000
    5.1350   -0.9852    0.0000 O   0  0  0  0  0  0  0  0  0  0  0  0
    6.8671    1.0148    0.0000 O   0  0  0  0  0  0  0  0  0  0  0  0
    5.1350    2.0148    0.0000 O   0  0  0  0  0  0  0  0  0  0  0  0
    6.0010    2.5148    0.0000 O   0  0  0  0  0  0  0  0  0  0  0  0
    3.4030    1.0148    0.0000 O   0  0  0  0  0  0  0  0  0  0  0  0
    8.5991    2.0148    0.0000 O   0  0  0  0  0  0  0  0  0  0  0  0
    8.5991    4.0148    0.0000 O   0  0  0  0  0  0  0  0  0  0  0  0
    2.5369   -0.4852    0.0000 O   0  0  0  0  0  0  0  0  0  0  0  0
    6.8671    5.0148    0.0000 O   0  0  0  0  0  0  0  0  0  0  0  0
    7.7331    0.5148    0.0000 O   0  0  0  0  0  0  0  0  0  0  0  0
    6.0010   -2.4852    0.0000 O   0  0  0  0  0  0  0  0  0  0  0  0
    9.4931   -2.5199    0.0000 O   0  0  0  0  0  0  0  0  0  0  0  0
    9.4815    0.5494    0.0000 O   0  0  0  0  0  0  0  0  0  0  0  0
   12.1196   -5.0127    0.0000 O   0  0  0  0  0  0  0  0  0  0  0  0
   13.8555   -4.0194    0.0000 O   0  0  0  0  0  0  0  0  0  0  0  0
    6.0010    0.5148    0.0000 C   0  0  2  0  0  0  0  0  0  0  0  0
    5.1350    1.0148    0.0000 C   0  0  2  0  0  0  0  0  0  0  0  0
    6.0010   -0.4852    0.0000 C   0  0  2  0  0  0  0  0  0  0  0  0
    4.2690    0.5148    0.0000 C   0  0  1  0  0  0  0  0  0  0  0  0
    4.2690   -0.4852    0.0000 C   0  0  1  0  0  0  0  0  0  0  0  0
    6.8671    2.0148    0.0000 C   0  0  2  0  0  0  0  0  0  0  0  0
    7.7331    2.5148    0.0000 C   0  0  1  0  0  0  0  0  0  0  0  0
    6.8671   -0.9852    0.0000 C   0  0  0  0  0  0  0  0  0  0  0  0
    7.7331    3.5148    0.0000 C   0  0  2  0  0  0  0  0  0  0  0  0
    3.4030   -0.9852    0.0000 C   0  0  0  0  0  0  0  0  0  0  0  0
    6.8671    4.0148    0.0000 C   0  0  2  0  0  0  0  0  0  0  0  0
    6.0010    3.5148    0.0000 C   0  0  0  0  0  0  0  0  0  0  0  0
    7.7331   -0.4852    0.0000 C   0  0  0  0  0  0  0  0  0  0  0  0
    6.8671   -1.9852    0.0000 C   0  0  0  0  0  0  0  0  0  0  0  0
    8.5991   -0.9852    0.0000 C   0  0  0  0  0  0  0  0  0  0  0  0
    7.7331   -2.4852    0.0000 C   0  0  0  0  0  0  0  0  0  0  0  0
    8.5991   -1.9852    0.0000 C   0  0  0  0  0  0  0  0  0  0  0  0
    9.4931   -0.4506    0.0000 C   0  0  0  0  0  0  0  0  0  0  0  0
   10.3991   -0.9644    0.0000 C   0  0  0  0  0  0  0  0  0  0  0  0
   10.3991   -2.0060    0.0000 C   0  0  0  0  0  0  0  0  0  0  0  0
   11.2632   -2.5094    0.0000 C   0  0  0  0  0  0  0  0  0  0  0  0
   11.2594   -3.5094    0.0000 C   0  0  0  0  0  0  0  0  0  0  0  0
   12.1312   -2.0127    0.0000 C   0  0  0  0  0  0  0  0  0  0  0  0
   12.1235   -4.0127    0.0000 C   0  0  0  0  0  0  0  0  0  0  0  0
   12.9953   -2.5161    0.0000 C   0  0  0  0  0  0  0  0  0  0  0  0
   12.9914   -3.5160    0.0000 C   0  0  0  0  0  0  0  0  0  0  0  0
    6.5380    0.2048    0.0000 H   0  0  0  0  0  0  0  0  0  0  0  0
    5.6720    1.3248    0.0000 H   0  0  0  0  0  0  0  0  0  0  0  0
    6.0010   -1.3352    0.0000 H   0  0  0  0  0  0  0  0  0  0  0  0
    3.7320    0.2048    0.0000 H   0  0  0  0  0  0  0  0  0  0  0  0
    4.2690   -1.1052    0.0000 H   0  0  0  0  0  0  0  0  0  0  0  0
    6.3301    1.7048    0.0000 H   0  0  0  0  0  0  0  0  0  0  0  0
    7.7331    1.8948    0.0000 H   0  0  0  0  0  0  0  0  0  0  0  0
    7.7331    4.1348    0.0000 H   0  0  0  0  0  0  0  0  0  0  0  0
    3.0044   -1.4602    0.0000 H   0  0  0  0  0  0  0  0  0  0  0  0
    3.8015   -1.4602    0.0000 H   0  0  0  0  0  0  0  0  0  0  0  0
    6.3301    4.3248    0.0000 H   0  0  0  0  0  0  0  0  0  0  0  0
    5.7890    4.0974    0.0000 H   0  0  0  0  0  0  0  0  0  0  0  0
    5.3905    3.4071    0.0000 H   0  0  0  0  0  0  0  0  0  0  0  0
    4.5981    2.3248    0.0000 H   0  0  0  0  0  0  0  0  0  0  0  0
    3.4030    1.6348    0.0000 H   0  0  0  0  0  0  0  0  0  0  0  0
    9.1360    2.3248    0.0000 H   0  0  0  0  0  0  0  0  0  0  0  0
    7.7331   -3.1052    0.0000 H   0  0  0  0  0  0  0  0  0  0  0  0
    8.5991    4.6348    0.0000 H   0  0  0  0  0  0  0  0  0  0  0  0
    2.0000   -0.7952    0.0000 H   0  0  0  0  0  0  0  0  0  0  0  0
    6.3301    5.3248    0.0000 H   0  0  0  0  0  0  0  0  0  0  0  0
    8.2700    0.8248    0.0000 H   0  0  0  0  0  0  0  0  0  0  0  0
    6.0010   -3.1052    0.0000 H   0  0  0  0  0  0  0  0  0  0  0  0
   10.9349   -0.6523    0.0000 H   0  0  0  0  0  0  0  0  0  0  0  0
   10.7212   -3.8173    0.0000 H   0  0  0  0  0  0  0  0  0  0  0  0
   12.1336   -1.3927    0.0000 H   0  0  0  0  0  0  0  0  0  0  0  0
   13.5334   -2.2081    0.0000 H   0  0  0  0  0  0  0  0  0  0  0  0
   12.6553   -5.3248    0.0000 H   0  0  0  0  0  0  0  0  0  0  0  0
   14.3936   -3.7115    0.0000 H   0  0  0  0  0  0  0  0  0  0  0  0
  1 18  1  0  0  0  0
  1 20  1  0  0  0  0
  3 55  1  0  0  0  0
  4 21  1  0  0  0  0
  4 27  1  0  0  0  0
  5 56  1  0  0  0  0
  6 57  1  0  0  0  0
  7 59  1  0  0  0  0
  8 25  1  0  0  0  0
  8 60  1  0  0  0  0
  9 61  1  0  0  0  0
 10 28  1  0  0  0  0
 10 62  1  0  0  0  0
 11 29  1  0  0  0  0
 11 63  1  0  0  0  0
 12 32  1  0  0  0  0
 12 35  1  0  0  0  0
 13 33  2  0  0  0  0
 14 39  1  0  0  0  0
 14 68  1  0  0  0  0
 15 41  1  0  0  0  0
 15 69  1  0  0  0  0
 16  2  1  0  0  0  0
 16 17  1  6  0  0  0
 16 42  1  0  0  0  0
 17  3  1  0  0  0  0
 17 19  1  1  0  0  0
 17 43  1  0  0  0  0
 18 16  1  1  0  0  0
 18 23  1  0  0  0  0
 18 44  1  0  0  0  0
 19  5  1  0  0  0  0
 19 20  1  1  0  0  0
 19 45  1  0  0  0  0
 20 25  1  0  0  0  0
 20 46  1  1  0  0  0
 21  2  1  0  0  0  0
 21 22  1  1  0  0  0
 21 47  1  0  0  0  0
 22  6  1  0  0  0  0
 22 24  1  6  0  0  0
 22 48  1  0  0  0  0
 23 28  2  0  0  0  0
 23 29  1  0  0  0  0
 24  7  1  0  0  0  0
 24 26  1  6  0  0  0
 24 49  1  0  0  0  0
 25 50  1  0  0  0  0
 25 51  1  0  0  0  0
 26  9  1  0  0  0  0
 26 27  1  0  0  0  0
 26 52  1  1  0  0  0
 27 53  1  0  0  0  0
 27 54  1  0  0  0  0
 28 30  1  0  0  0  0
 29 31  2  0  0  0  0
 30 32  2  0  0  0  0
 30 33  1  0  0  0  0
 31 32  1  0  0  0  0
 31 58  1  0  0  0  0
 33 34  1  0  0  0  0
 34 35  2  0  0  0  0
 34 64  1  0  0  0  0
 35 36  1  0  0  0  0
 36 37  2  0  0  0  0
 36 38  1  0  0  0  0
 37 39  1  0  0  0  0
 37 65  1  0  0  0  0
 38 40  2  0  0  0  0
 38 66  1  0  0  0  0
 39 41  2  0  0  0  0
 40 41  1  0  0  0  0
 40 67  1  0  0  0  0
M  END
>  <PUBCHEM_COMPOUND_CID>
66555471

>  <PUBCHEM_COMPOUND_CANONICALIZED>
1

>  <PUBCHEM_CACTVS_COMPLEXITY>
963

>  <PUBCHEM_CACTVS_HBOND_ACCEPTOR>
15

>  <PUBCHEM_CACTVS_HBOND_DONOR>
10

>  <PUBCHEM_CACTVS_ROTATABLE_BOND>
5

>  <PUBCHEM_CACTVS_SUBSKEYS>
AAADceB4PAAAAAAAAAAAAAAAAAAAAAAAAAA0aIECAAAAAACBQAAAGgAACAAADBSwmAMwDoAABgCIAqBSAAACCAAkIAAIiAEGiMgdNzaGNRqieWGl4BUPuQfI7PzOIAADCAAIQABAAAYQABCAAAAAAAAAAA==

>  <PUBCHEM_IUPAC_OPENEYE_NAME>
6-[(2S,3R,4S,5S,6R)-4,5-dihydroxy-6-(hydroxymethyl)-3-[(2S,3R,4S,5S)-3,4,5-trihydroxytetrahydropyran-2-yl]oxy-tetrahydropyran-2-yl]-2-(3,4-dihydroxyphenyl)-5,7-dihydroxy-chromen-4-one

>  <PUBCHEM_IUPAC_CAS_NAME>
6-[(2S,3R,4S,5S,6R)-4,5-dihydroxy-6-(hydroxymethyl)-3-[[(2S,3R,4S,5S)-3,4,5-trihydroxy-2-oxanyl]oxy]-2-oxanyl]-2-(3,4-dihydroxyphenyl)-5,7-dihydroxy-1-benzopyran-4-one

>  <PUBCHEM_IUPAC_NAME>
6-[(2S,3R,4S,5S,6R)-4,5-dihydroxy-6-(hydroxymethyl)-3-[(2S,3R,4S,5S)-3,4,5-trihydroxyoxan-2-yl]oxyoxan-2-yl]-2-(3,4-dihydroxyphenyl)-5,7-dihydroxychromen-4-one

>  <PUBCHEM_IUPAC_SYSTEMATIC_NAME>
2-[3,4-bis(oxidanyl)phenyl]-6-[(2S,3R,4S,5S,6R)-6-(hydroxymethyl)-4,5-bis(oxidanyl)-3-[(2S,3R,4S,5S)-3,4,5-tris(oxidanyl)oxan-2-yl]oxy-oxan-2-yl]-5,7-bis(oxidanyl)chromen-4-one

>  <PUBCHEM_IUPAC_TRADITIONAL_NAME>
6-[(2S,3R,4S,5S,6R)-4,5-dihydroxy-6-methylol-3-[(2S,3R,4S,5S)-3,4,5-trihydroxytetrahydropyran-2-yl]oxy-tetrahydropyran-2-yl]-2-(3,4-dihydroxyphenyl)-5,7-dihydroxy-chromone

>  <PUBCHEM_IUPAC_INCHI>
InChI=1S/C26H28O15/c27-6-16-20(34)22(36)25(41-26-23(37)19(33)13(32)7-38-26)24(40-16)18-12(31)5-15-17(21(18)35)11(30)4-14(39-15)8-1-2-9(28)10(29)3-8/h1-5,13,16,19-20,22-29,31-37H,6-7H2/t13-,16+,19-,20+,22-,23+,24-,25+,26-/m0/s1

>  <PUBCHEM_IUPAC_INCHIKEY>
FGYOJUYXCCFUMF-XAYOXWHSSA-N

>  <PUBCHEM_XLOGP3_AA>
-1.7

>  <PUBCHEM_EXACT_MASS>
580.143

>  <PUBCHEM_MOLECULAR_FORMULA>
C26H28O15

>  <PUBCHEM_MOLECULAR_WEIGHT>
580.495

>  <PUBCHEM_OPENEYE_CAN_SMILES>
C1C(C(C(C(O1)OC2C(C(C(OC2C3=C(C=C4C(=C3O)C(=O)C=C(O4)C5=CC(=C(C=C5)O)O)O)CO)O)O)O)O)O

>  <PUBCHEM_OPENEYE_ISO_SMILES>
C1[C@@H]([C@@H]([C@H]([C@@H](O1)O[C@@H]2[C@H]([C@@H]([C@H](O[C@H]2C3=C(C=C4C(=C3O)C(=O)C=C(O4)C5=CC(=C(C=C5)O)O)O)CO)O)O)O)O)O

>  <PUBCHEM_CACTVS_TPSA>
256

>  <PUBCHEM_MONOISOTOPIC_WEIGHT>
580.143

>  <PUBCHEM_TOTAL_CHARGE>
0

>  <PUBCHEM_HEAVY_ATOM_COUNT>
41

>  <PUBCHEM_ATOM_DEF_STEREO_COUNT>
9

>  <PUBCHEM_ATOM_UDEF_STEREO_COUNT>
0

>  <PUBCHEM_BOND_DEF_STEREO_COUNT>
0

>  <PUBCHEM_BOND_UDEF_STEREO_COUNT>
0

>  <PUBCHEM_ISOTOPIC_ATOM_COUNT>
0

>  <PUBCHEM_COMPONENT_COUNT>
1

>  <PUBCHEM_CACTVS_TAUTO_COUNT>
162

>  <PUBCHEM_COORDINATE_TYPE>
1
5
255

>  <PUBCHEM_BONDANNOTATIONS>
12  32  8
12  35  8
18  44  5
16  2  5
21  2  6
20  25  6
23  28  8
23  29  8
28  30  8
29  31  8
17  3  6
30  32  8
30  33  8
31  32  8
33  34  8
34  35  8
36  37  8
36  38  8
37  39  8
38  40  8
39  41  8
40  41  8
19  5  5
22  6  5
24  7  6
26  9  6

$$$$
