66963260
 OpenBabel06101807152D

 26 26  0  0  1  0  0  0  0  0999 V2000
    4.5981    1.3450    0.0000 O   0  0  0  0  0  0  0  0  0  0  0  0
    6.3301    0.3450    0.0000 O   0  0  0  0  0  0  0  0  0  0  0  0
    3.7320   -0.1550    0.0000 C   0  0  3  0  0  0  0  0  0  0  0  0
    4.5981    0.3450    0.0000 C   0  0  3  0  0  0  0  0  0  0  0  0
    3.7320   -1.1550    0.0000 C   0  0  0  0  0  0  0  0  0  0  0  0
    2.8660    0.3450    0.0000 C   0  0  0  0  0  0  0  0  0  0  0  0
    5.4641   -0.1550    0.0000 C   0  0  0  0  0  0  0  0  0  0  0  0
    4.5981   -1.6550    0.0000 C   0  0  0  0  0  0  0  0  0  0  0  0
    5.4641   -1.1550    0.0000 C   0  0  0  0  0  0  0  0  0  0  0  0
    2.0000   -0.1550    0.0000 C   0  0  0  0  0  0  0  0  0  0  0  0
    6.3301   -1.6550    0.0000 C   0  0  0  0  0  0  0  0  0  0  0  0
    2.8660    1.3450    0.0000 C   0  0  0  0  0  0  0  0  0  0  0  0
    3.7320    0.4650    0.0000 H   0  0  0  0  0  0  0  0  0  0  0  0
    5.1350    0.6550    0.0000 H   0  0  0  0  0  0  0  0  0  0  0  0
    3.1215   -1.0473    0.0000 H   0  0  0  0  0  0  0  0  0  0  0  0
    3.5200   -1.7376    0.0000 H   0  0  0  0  0  0  0  0  0  0  0  0
    4.5981   -2.2750    0.0000 H   0  0  0  0  0  0  0  0  0  0  0  0
    1.6900    0.3819    0.0000 H   0  0  0  0  0  0  0  0  0  0  0  0
    1.4631   -0.4650    0.0000 H   0  0  0  0  0  0  0  0  0  0  0  0
    2.3100   -0.6919    0.0000 H   0  0  0  0  0  0  0  0  0  0  0  0
    6.0201   -2.1919    0.0000 H   0  0  0  0  0  0  0  0  0  0  0  0
    6.8671   -1.9650    0.0000 H   0  0  0  0  0  0  0  0  0  0  0  0
    6.6401   -1.1181    0.0000 H   0  0  0  0  0  0  0  0  0  0  0  0
    5.1350    1.6550    0.0000 H   0  0  0  0  0  0  0  0  0  0  0  0
    3.4030    1.6550    0.0000 H   0  0  0  0  0  0  0  0  0  0  0  0
    2.3291    1.6550    0.0000 H   0  0  0  0  0  0  0  0  0  0  0  0
  1  4  1  0  0  0  0
  1 24  1  0  0  0  0
  2  7  2  0  0  0  0
  3  4  1  0  0  0  0
  3  5  1  0  0  0  0
  3  6  1  0  0  0  0
  3 13  1  0  0  0  0
  4  7  1  0  0  0  0
  4 14  1  0  0  0  0
  5  8  1  0  0  0  0
  5 15  1  0  0  0  0
  5 16  1  0  0  0  0
  6 10  1  0  0  0  0
  6 12  2  0  0  0  0
  7  9  1  0  0  0  0
  8  9  2  0  0  0  0
  8 17  1  0  0  0  0
  9 11  1  0  0  0  0
 10 18  1  0  0  0  0
 10 19  1  0  0  0  0
 10 20  1  0  0  0  0
 11 21  1  0  0  0  0
 11 22  1  0  0  0  0
 11 23  1  0  0  0  0
 12 25  1  0  0  0  0
 12 26  1  0  0  0  0
M  END
>  <PUBCHEM_COMPOUND_CID>
66963260

>  <PUBCHEM_COMPOUND_CANONICALIZED>
1

>  <PUBCHEM_CACTVS_COMPLEXITY>
251

>  <PUBCHEM_CACTVS_HBOND_ACCEPTOR>
2

>  <PUBCHEM_CACTVS_HBOND_DONOR>
1

>  <PUBCHEM_CACTVS_ROTATABLE_BOND>
1

>  <PUBCHEM_CACTVS_SUBSKEYS>
AAADccBwMAAAAAAAAAAAAAAAAAAAAAAAAAAgAAAAAAAAAAAAAAAAGgAACAAADRSggAICAAAAAgCIAqBSAAIAAAAgAAAACAFAAEgAEBIAAQAAQAAEwAAIAYMIgAAOAAAAAAAAAAAAAAAAAAAAAAAAAAAAAA==

>  <PUBCHEM_IUPAC_OPENEYE_NAME>
6-hydroxy-5-isopropenyl-2-methyl-cyclohex-2-en-1-one

>  <PUBCHEM_IUPAC_CAS_NAME>
6-hydroxy-2-methyl-5-(1-methylethenyl)-1-cyclohex-2-enone

>  <PUBCHEM_IUPAC_NAME>
6-hydroxy-2-methyl-5-prop-1-en-2-ylcyclohex-2-en-1-one

>  <PUBCHEM_IUPAC_SYSTEMATIC_NAME>
2-methyl-6-oxidanyl-5-prop-1-en-2-yl-cyclohex-2-en-1-one

>  <PUBCHEM_IUPAC_TRADITIONAL_NAME>
6-hydroxy-5-isopropenyl-2-methyl-cyclohex-2-en-1-one

>  <PUBCHEM_IUPAC_INCHI>
InChI=1S/C10H14O2/c1-6(2)8-5-4-7(3)9(11)10(8)12/h4,8,10,12H,1,5H2,2-3H3

>  <PUBCHEM_IUPAC_INCHIKEY>
YNTOEUGPNLOIEP-UHFFFAOYSA-N

>  <PUBCHEM_XLOGP3_AA>
1.9

>  <PUBCHEM_EXACT_MASS>
166.099

>  <PUBCHEM_MOLECULAR_FORMULA>
C10H14O2

>  <PUBCHEM_MOLECULAR_WEIGHT>
166.22

>  <PUBCHEM_OPENEYE_CAN_SMILES>
CC1=CCC(C(C1=O)O)C(=C)C

>  <PUBCHEM_OPENEYE_ISO_SMILES>
CC1=CCC(C(C1=O)O)C(=C)C

>  <PUBCHEM_CACTVS_TPSA>
37.3

>  <PUBCHEM_MONOISOTOPIC_WEIGHT>
166.099

>  <PUBCHEM_TOTAL_CHARGE>
0

>  <PUBCHEM_HEAVY_ATOM_COUNT>
12

>  <PUBCHEM_ATOM_DEF_STEREO_COUNT>
0

>  <PUBCHEM_ATOM_UDEF_STEREO_COUNT>
2

>  <PUBCHEM_BOND_DEF_STEREO_COUNT>
0

>  <PUBCHEM_BOND_UDEF_STEREO_COUNT>
0

>  <PUBCHEM_ISOTOPIC_ATOM_COUNT>
0

>  <PUBCHEM_COMPONENT_COUNT>
1

>  <PUBCHEM_CACTVS_TAUTO_COUNT>
52

>  <PUBCHEM_COORDINATE_TYPE>
1
5
255

>  <PUBCHEM_BONDANNOTATIONS>
4  1  3
3  6  3

$$$$
