67322417
 OpenBabel06101807152D

 34 35  0  0  0  0  0  0  0  0999 V2000
    7.1962   -2.3100    0.0000 O   0  0  0  0  0  0  0  0  0  0  0  0
    8.9282    0.6900    0.0000 O   0  0  0  0  0  0  0  0  0  0  0  0
    8.0622    2.1900    0.0000 O   0  0  0  0  0  0  0  0  0  0  0  0
    6.3301    2.1900    0.0000 O   0  0  0  0  0  0  0  0  0  0  0  0
    6.3301    0.1900    0.0000 C   0  0  0  0  0  0  0  0  0  0  0  0
    7.1962    0.6900    0.0000 C   0  0  0  0  0  0  0  0  0  0  0  0
    6.3301   -0.8100    0.0000 C   0  0  0  0  0  0  0  0  0  0  0  0
    8.0622    0.1900    0.0000 C   0  0  0  0  0  0  0  0  0  0  0  0
    7.1962   -1.3100    0.0000 C   0  0  0  0  0  0  0  0  0  0  0  0
    5.4641    0.6900    0.0000 C   0  0  0  0  0  0  0  0  0  0  0  0
    8.0622   -0.8100    0.0000 C   0  0  0  0  0  0  0  0  0  0  0  0
    4.5981    0.1900    0.0000 C   0  0  0  0  0  0  0  0  0  0  0  0
    3.7320    0.6900    0.0000 C   0  0  0  0  0  0  0  0  0  0  0  0
    7.1962    1.6900    0.0000 C   0  0  0  0  0  0  0  0  0  0  0  0
    3.7320    1.6900    0.0000 C   0  0  0  0  0  0  0  0  0  0  0  0
    2.8660    0.1900    0.0000 C   0  0  0  0  0  0  0  0  0  0  0  0
    2.8660    2.1900    0.0000 C   0  0  0  0  0  0  0  0  0  0  0  0
    2.0000    0.6900    0.0000 C   0  0  0  0  0  0  0  0  0  0  0  0
    2.0000    1.6900    0.0000 C   0  0  0  0  0  0  0  0  0  0  0  0
    8.0622   -2.8100    0.0000 C   0  0  0  0  0  0  0  0  0  0  0  0
    5.7932   -1.1200    0.0000 H   0  0  0  0  0  0  0  0  0  0  0  0
    5.4641    1.3100    0.0000 H   0  0  0  0  0  0  0  0  0  0  0  0
    8.5991   -1.1200    0.0000 H   0  0  0  0  0  0  0  0  0  0  0  0
    4.5981   -0.4300    0.0000 H   0  0  0  0  0  0  0  0  0  0  0  0
    4.2690    2.0000    0.0000 H   0  0  0  0  0  0  0  0  0  0  0  0
    2.8660   -0.4300    0.0000 H   0  0  0  0  0  0  0  0  0  0  0  0
    2.8660    2.8100    0.0000 H   0  0  0  0  0  0  0  0  0  0  0  0
    1.4631    0.3800    0.0000 H   0  0  0  0  0  0  0  0  0  0  0  0
    1.4631    2.0000    0.0000 H   0  0  0  0  0  0  0  0  0  0  0  0
    9.4651    0.3800    0.0000 H   0  0  0  0  0  0  0  0  0  0  0  0
    7.7522   -3.3469    0.0000 H   0  0  0  0  0  0  0  0  0  0  0  0
    8.5991   -3.1200    0.0000 H   0  0  0  0  0  0  0  0  0  0  0  0
    8.3722   -2.2731    0.0000 H   0  0  0  0  0  0  0  0  0  0  0  0
    8.0622    2.8100    0.0000 H   0  0  0  0  0  0  0  0  0  0  0  0
  1  9  1  0  0  0  0
  1 20  1  0  0  0  0
  2  8  1  0  0  0  0
  2 30  1  0  0  0  0
  3 14  1  0  0  0  0
  3 34  1  0  0  0  0
  4 14  2  0  0  0  0
  5  6  2  0  0  0  0
  5  7  1  0  0  0  0
  5 10  1  0  0  0  0
  6  8  1  0  0  0  0
  6 14  1  0  0  0  0
  7  9  2  0  0  0  0
  7 21  1  0  0  0  0
  8 11  2  0  0  0  0
  9 11  1  0  0  0  0
 10 12  2  0  0  0  0
 10 22  1  0  0  0  0
 11 23  1  0  0  0  0
 12 13  1  0  0  0  0
 12 24  1  0  0  0  0
 13 15  2  0  0  0  0
 13 16  1  0  0  0  0
 15 17  1  0  0  0  0
 15 25  1  0  0  0  0
 16 18  2  0  0  0  0
 16 26  1  0  0  0  0
 17 19  2  0  0  0  0
 17 27  1  0  0  0  0
 18 19  1  0  0  0  0
 18 28  1  0  0  0  0
 19 29  1  0  0  0  0
 20 31  1  0  0  0  0
 20 32  1  0  0  0  0
 20 33  1  0  0  0  0
M  END
>  <PUBCHEM_COMPOUND_CID>
67322417

>  <PUBCHEM_COMPOUND_CANONICALIZED>
1

>  <PUBCHEM_CACTVS_COMPLEXITY>
346

>  <PUBCHEM_CACTVS_HBOND_ACCEPTOR>
4

>  <PUBCHEM_CACTVS_HBOND_DONOR>
2

>  <PUBCHEM_CACTVS_ROTATABLE_BOND>
4

>  <PUBCHEM_CACTVS_SUBSKEYS>
AAADccB4OAAAAAAAAAAAAAAAAAAAAAAAAAAwYAAAAAAAAAABQAAAGgAACAAADASAmAIyDoAABgCIAiDSCAACCAAkIAAIiAEGCMgMJzaGNRqAcWAl4BUIuQeI7LzOoAABCAAYAABAAAIQADAAAAAAAAAAAA==

>  <PUBCHEM_IUPAC_OPENEYE_NAME>
2-hydroxy-4-methoxy-6-[(E)-styryl]benzoic acid

>  <PUBCHEM_IUPAC_CAS_NAME>
2-hydroxy-4-methoxy-6-[(E)-2-phenylethenyl]benzoic acid

>  <PUBCHEM_IUPAC_NAME>
2-hydroxy-4-methoxy-6-[(E)-2-phenylethenyl]benzoic acid

>  <PUBCHEM_IUPAC_SYSTEMATIC_NAME>
4-methoxy-2-oxidanyl-6-[(E)-2-phenylethenyl]benzoic acid

>  <PUBCHEM_IUPAC_TRADITIONAL_NAME>
2-hydroxy-4-methoxy-6-[(E)-styryl]benzoic acid

>  <PUBCHEM_IUPAC_INCHI>
InChI=1S/C16H14O4/c1-20-13-9-12(15(16(18)19)14(17)10-13)8-7-11-5-3-2-4-6-11/h2-10,17H,1H3,(H,18,19)/b8-7+

>  <PUBCHEM_IUPAC_INCHIKEY>
PICDNGANOHNCPT-BQYQJAHWSA-N

>  <PUBCHEM_XLOGP3_AA>
3.9

>  <PUBCHEM_EXACT_MASS>
270.089

>  <PUBCHEM_MOLECULAR_FORMULA>
C16H14O4

>  <PUBCHEM_MOLECULAR_WEIGHT>
270.284

>  <PUBCHEM_OPENEYE_CAN_SMILES>
COC1=CC(=C(C(=C1)C=CC2=CC=CC=C2)C(=O)O)O

>  <PUBCHEM_OPENEYE_ISO_SMILES>
COC1=CC(=C(C(=C1)/C=C/C2=CC=CC=C2)C(=O)O)O

>  <PUBCHEM_CACTVS_TPSA>
66.8

>  <PUBCHEM_MONOISOTOPIC_WEIGHT>
270.089

>  <PUBCHEM_TOTAL_CHARGE>
0

>  <PUBCHEM_HEAVY_ATOM_COUNT>
20

>  <PUBCHEM_ATOM_DEF_STEREO_COUNT>
0

>  <PUBCHEM_ATOM_UDEF_STEREO_COUNT>
0

>  <PUBCHEM_BOND_DEF_STEREO_COUNT>
1

>  <PUBCHEM_BOND_UDEF_STEREO_COUNT>
0

>  <PUBCHEM_ISOTOPIC_ATOM_COUNT>
0

>  <PUBCHEM_COMPONENT_COUNT>
1

>  <PUBCHEM_CACTVS_TAUTO_COUNT>
4

>  <PUBCHEM_COORDINATE_TYPE>
1
5
255

>  <PUBCHEM_BONDANNOTATIONS>
13  15  8
13  16  8
15  17  8
16  18  8
17  19  8
18  19  8
5  6  8
5  7  8
6  8  8
7  9  8
8  11  8
9  11  8

$$$$
