68353
 OpenBabel06101807152D

  7  5  0  0  0  0  0  0  0  0999 V2000
    4.5691   -0.5861    0.0000 Mg  0  2  0  0  0 15  0  0  0  0  0  0
    3.7601   -1.1739    0.0000 O   0  5  0  0  0  0  0  0  0  0  0  0
    4.2601    0.3649    0.0000 O   0  5  0  0  0  0  0  0  0  0  0  0
    2.0000   -0.8952    0.0000 O   0  0  0  0  0  0  0  0  0  0  0  0
    2.6723    1.1739    0.0000 O   0  0  0  0  0  0  0  0  0  0  0  0
    2.9511   -0.5861    0.0000 C   0  0  0  0  0  0  0  0  0  0  0  0
    3.2601    0.3649    0.0000 C   0  0  0  0  0  0  0  0  0  0  0  0
  2  6  1  0  0  0  0
  3  7  1  0  0  0  0
  4  6  2  0  0  0  0
  5  7  2  0  0  0  0
  6  7  1  0  0  0  0
M  CHG  3   1   2   2  -1   3  -1
M  END
>  <PUBCHEM_COMPOUND_CID>
68353

>  <PUBCHEM_COMPOUND_CANONICALIZED>
1

>  <PUBCHEM_CACTVS_COMPLEXITY>
60.5

>  <PUBCHEM_CACTVS_HBOND_ACCEPTOR>
4

>  <PUBCHEM_CACTVS_HBOND_DONOR>
0

>  <PUBCHEM_CACTVS_ROTATABLE_BOND>
0

>  <PUBCHEM_CACTVS_SUBSKEYS>
AAADcQBAOAAAACAAAAAAAAAAAAAAAAAAAAAAAAAAAAAAAAAAAAAACgAAAAAAAAAAgAAACAAAAAAIAACQCAIAAAAAAAAAAABAAAABAAAAAAAAAAAAAAAAAAAAAAAAAAAAAAAAAAAAAAAAAAAAAAAAAAAAAA==

>  <PUBCHEM_IUPAC_OPENEYE_NAME>
magnesium;oxalate

>  <PUBCHEM_IUPAC_CAS_NAME>
magnesium;oxalate

>  <PUBCHEM_IUPAC_NAME>
magnesium;oxalate

>  <PUBCHEM_IUPAC_SYSTEMATIC_NAME>
magnesium;ethanedioate

>  <PUBCHEM_IUPAC_TRADITIONAL_NAME>
magnesium;oxalate

>  <PUBCHEM_IUPAC_INCHI>
InChI=1S/C2H2O4.Mg/c3-1(4)2(5)6;/h(H,3,4)(H,5,6);/q;+2/p-2

>  <PUBCHEM_IUPAC_INCHIKEY>
UHNWOJJPXCYKCG-UHFFFAOYSA-L

>  <PUBCHEM_EXACT_MASS>
111.965

>  <PUBCHEM_MOLECULAR_FORMULA>
C2MgO4

>  <PUBCHEM_MOLECULAR_WEIGHT>
112.323

>  <PUBCHEM_OPENEYE_CAN_SMILES>
C(=O)(C(=O)[O-])[O-].[Mg+2]

>  <PUBCHEM_OPENEYE_ISO_SMILES>
C(=O)(C(=O)[O-])[O-].[Mg+2]

>  <PUBCHEM_CACTVS_TPSA>
80.3

>  <PUBCHEM_MONOISOTOPIC_WEIGHT>
111.965

>  <PUBCHEM_TOTAL_CHARGE>
0

>  <PUBCHEM_HEAVY_ATOM_COUNT>
7

>  <PUBCHEM_ATOM_DEF_STEREO_COUNT>
0

>  <PUBCHEM_ATOM_UDEF_STEREO_COUNT>
0

>  <PUBCHEM_BOND_DEF_STEREO_COUNT>
0

>  <PUBCHEM_BOND_UDEF_STEREO_COUNT>
0

>  <PUBCHEM_ISOTOPIC_ATOM_COUNT>
0

>  <PUBCHEM_COMPONENT_COUNT>
2

>  <PUBCHEM_CACTVS_TAUTO_COUNT>
1

>  <PUBCHEM_COORDINATE_TYPE>
1
5
255

$$$$
