6850715
 OpenBabel06101807152D

 54 54  0  0  0  0  0  0  0  0999 V2000
    2.2690    6.2400    0.0000 C   0  0  0  0  0  0  0  0  0  0  0  0
    1.4030    5.7400    0.0000 C   0  0  0  0  0  0  0  0  0  0  0  0
    7.9409    2.6200    0.0000 C   0  0  0  0  0  0  0  0  0  0  0  0
    7.0749    1.1200    0.0000 C   0  0  0  0  0  0  0  0  0  0  0  0
    3.1350    5.7400    0.0000 C   0  0  0  0  0  0  0  0  0  0  0  0
    1.4030    4.7400    0.0000 C   0  0  0  0  0  0  0  0  0  0  0  0
    7.5079    9.8600    0.0000 C   0  0  0  0  0  0  0  0  0  0  0  0
    7.5079    7.8600    0.0000 C   0  0  0  0  0  0  0  0  0  0  0  0
    7.0749    2.1200    0.0000 C   0  0  0  0  0  0  0  0  0  0  0  0
    0.5369    6.2400    0.0000 C   0  0  0  0  0  0  0  0  0  0  0  0
    2.2690    7.2400    0.0000 C   0  0  0  0  0  0  0  0  0  0  0  0
    8.8070    2.1200    0.0000 C   0  0  0  0  0  0  0  0  0  0  0  0
    7.9409    0.6200    0.0000 C   0  0  0  0  0  0  0  0  0  0  0  0
    3.1350    4.7400    0.0000 C   0  0  0  0  0  0  0  0  0  0  0  0
    2.2690    4.2400    0.0000 C   0  0  0  0  0  0  0  0  0  0  0  0
    6.6419    8.3600    0.0000 C   0  0  0  0  0  0  0  0  0  0  0  0
    6.6419    9.3600    0.0000 C   0  0  0  0  0  0  0  0  0  0  0  0
    8.3740    8.3600    0.0000 C   0  0  0  0  0  0  0  0  0  0  0  0
    8.3740    9.3600    0.0000 C   0  0  0  0  0  0  0  0  0  0  0  0
    8.8070    1.1200    0.0000 C   0  0  0  0  0  0  0  0  0  0  0  0
    7.9409    3.6200    0.0000 C   0  0  0  0  0  0  0  0  0  0  0  0
    6.2089    0.6200    0.0000 C   0  0  0  0  0  0  0  0  0  0  0  0
    7.5079    6.8600    0.0000 C   0  0  0  0  0  0  0  0  0  0  0  0
    7.5079   10.8600    0.0000 C   0  0  0  0  0  0  0  0  0  0  0  0
    0.8660    4.4300    0.0000 H   0  0  0  0  0  0  0  0  0  0  0  0
    3.6720    6.0500    0.0000 H   0  0  0  0  0  0  0  0  0  0  0  0
    6.5380    2.4300    0.0000 H   0  0  0  0  0  0  0  0  0  0  0  0
    0.8469    6.7769    0.0000 H   0  0  0  0  0  0  0  0  0  0  0  0
    0.0000    6.5500    0.0000 H   0  0  0  0  0  0  0  0  0  0  0  0
    0.2269    5.7031    0.0000 H   0  0  0  0  0  0  0  0  0  0  0  0
    2.8890    7.2400    0.0000 H   0  0  0  0  0  0  0  0  0  0  0  0
    2.2690    7.8600    0.0000 H   0  0  0  0  0  0  0  0  0  0  0  0
    1.6490    7.2400    0.0000 H   0  0  0  0  0  0  0  0  0  0  0  0
    9.3439    2.4300    0.0000 H   0  0  0  0  0  0  0  0  0  0  0  0
    7.9409    0.0000    0.0000 H   0  0  0  0  0  0  0  0  0  0  0  0
    6.1050    8.0500    0.0000 H   0  0  0  0  0  0  0  0  0  0  0  0
    6.1050    9.6700    0.0000 H   0  0  0  0  0  0  0  0  0  0  0  0
    8.9109    8.0500    0.0000 H   0  0  0  0  0  0  0  0  0  0  0  0
    8.9109    9.6700    0.0000 H   0  0  0  0  0  0  0  0  0  0  0  0
    3.6720    4.4300    0.0000 H   0  0  0  0  0  0  0  0  0  0  0  0
    2.2690    3.6200    0.0000 H   0  0  0  0  0  0  0  0  0  0  0  0
    9.3439    0.8100    0.0000 H   0  0  0  0  0  0  0  0  0  0  0  0
    8.5609    3.6200    0.0000 H   0  0  0  0  0  0  0  0  0  0  0  0
    7.9409    4.2400    0.0000 H   0  0  0  0  0  0  0  0  0  0  0  0
    7.3209    3.6200    0.0000 H   0  0  0  0  0  0  0  0  0  0  0  0
    5.8989    1.1569    0.0000 H   0  0  0  0  0  0  0  0  0  0  0  0
    5.6720    0.3100    0.0000 H   0  0  0  0  0  0  0  0  0  0  0  0
    6.5189    0.0831    0.0000 H   0  0  0  0  0  0  0  0  0  0  0  0
    8.1279   10.8600    0.0000 H   0  0  0  0  0  0  0  0  0  0  0  0
    7.5079   11.4800    0.0000 H   0  0  0  0  0  0  0  0  0  0  0  0
    6.8879   10.8600    0.0000 H   0  0  0  0  0  0  0  0  0  0  0  0
    6.8879    6.8600    0.0000 H   0  0  0  0  0  0  0  0  0  0  0  0
    7.5079    6.2400    0.0000 H   0  0  0  0  0  0  0  0  0  0  0  0
    8.1279    6.8600    0.0000 H   0  0  0  0  0  0  0  0  0  0  0  0
  1  2  1  0  0  0  0
  1  5  2  0  0  0  0
  1 11  1  0  0  0  0
  2  6  2  0  0  0  0
  2 10  1  0  0  0  0
  3  9  2  0  0  0  0
  3 12  1  0  0  0  0
  3 21  1  0  0  0  0
  4  9  1  0  0  0  0
  4 13  2  0  0  0  0
  4 22  1  0  0  0  0
  5 14  1  0  0  0  0
  5 26  1  0  0  0  0
  6 15  1  0  0  0  0
  6 25  1  0  0  0  0
  7 17  2  0  0  0  0
  7 19  1  0  0  0  0
  7 24  1  0  0  0  0
  8 16  2  0  0  0  0
  8 18  1  0  0  0  0
  8 23  1  0  0  0  0
  9 27  1  0  0  0  0
 10 28  1  0  0  0  0
 10 29  1  0  0  0  0
 10 30  1  0  0  0  0
 11 31  1  0  0  0  0
 11 32  1  0  0  0  0
 11 33  1  0  0  0  0
 12 20  2  0  0  0  0
 12 34  1  0  0  0  0
 13 20  1  0  0  0  0
 13 35  1  0  0  0  0
 14 15  2  0  0  0  0
 14 40  1  0  0  0  0
 15 41  1  0  0  0  0
 16 17  1  0  0  0  0
 16 36  1  0  0  0  0
 17 37  1  0  0  0  0
 18 19  2  0  0  0  0
 18 38  1  0  0  0  0
 19 39  1  0  0  0  0
 20 42  1  0  0  0  0
 21 43  1  0  0  0  0
 21 44  1  0  0  0  0
 21 45  1  0  0  0  0
 22 46  1  0  0  0  0
 22 47  1  0  0  0  0
 22 48  1  0  0  0  0
 23 52  1  0  0  0  0
 23 53  1  0  0  0  0
 23 54  1  0  0  0  0
 24 49  1  0  0  0  0
 24 50  1  0  0  0  0
 24 51  1  0  0  0  0
M  END
>  <PUBCHEM_COMPOUND_CID>
6850715

>  <PUBCHEM_COMPOUND_CANONICALIZED>
1

>  <PUBCHEM_CACTVS_COMPLEXITY>
163

>  <PUBCHEM_CACTVS_HBOND_ACCEPTOR>
0

>  <PUBCHEM_CACTVS_HBOND_DONOR>
0

>  <PUBCHEM_CACTVS_ROTATABLE_BOND>
0

>  <PUBCHEM_CACTVS_SUBSKEYS>
AAADceB4AAAAAAAAAAAAAAAAAAAAAAAAAAAwYMAAAAAAAAABUAAAGAAAAAAADACAGAAyAIAAAACAAiBCAAACAAAgAAAIiAAAAIgIICKAERCAIAAggAAIiAcAgMAOwAACAAAQAACAAAQAACAAAAAAAAAAAA==

>  <PUBCHEM_IUPAC_OPENEYE_NAME>
m-xylene;o-xylene;p-xylene

>  <PUBCHEM_IUPAC_CAS_NAME>
1,2-xylene;1,3-xylene;1,4-xylene

>  <PUBCHEM_IUPAC_NAME>
1,2-xylene;1,3-xylene;1,4-xylene

>  <PUBCHEM_IUPAC_SYSTEMATIC_NAME>
1,2-dimethylbenzene;1,3-dimethylbenzene;1,4-dimethylbenzene

>  <PUBCHEM_IUPAC_TRADITIONAL_NAME>
m-xylene;o-xylene;p-xylene

>  <PUBCHEM_IUPAC_INCHI>
InChI=1S/3C8H10/c1-7-3-5-8(2)6-4-7;1-7-4-3-5-8(2)6-7;1-7-5-3-4-6-8(7)2/h3*3-6H,1-2H3

>  <PUBCHEM_IUPAC_INCHIKEY>
MVZVDAGWAAZJPE-UHFFFAOYSA-N

>  <PUBCHEM_EXACT_MASS>
318.235

>  <PUBCHEM_MOLECULAR_FORMULA>
C24H30

>  <PUBCHEM_MOLECULAR_WEIGHT>
318.504

>  <PUBCHEM_OPENEYE_CAN_SMILES>
CC1=CC=C(C=C1)C.CC1=CC(=CC=C1)C.CC1=CC=CC=C1C

>  <PUBCHEM_OPENEYE_ISO_SMILES>
CC1=CC=C(C=C1)C.CC1=CC(=CC=C1)C.CC1=CC=CC=C1C

>  <PUBCHEM_CACTVS_TPSA>
0

>  <PUBCHEM_MONOISOTOPIC_WEIGHT>
318.235

>  <PUBCHEM_TOTAL_CHARGE>
0

>  <PUBCHEM_HEAVY_ATOM_COUNT>
24

>  <PUBCHEM_ATOM_DEF_STEREO_COUNT>
0

>  <PUBCHEM_ATOM_UDEF_STEREO_COUNT>
0

>  <PUBCHEM_BOND_DEF_STEREO_COUNT>
0

>  <PUBCHEM_BOND_UDEF_STEREO_COUNT>
0

>  <PUBCHEM_ISOTOPIC_ATOM_COUNT>
0

>  <PUBCHEM_COMPONENT_COUNT>
3

>  <PUBCHEM_CACTVS_TAUTO_COUNT>
1

>  <PUBCHEM_COORDINATE_TYPE>
1
5
255

>  <PUBCHEM_BONDANNOTATIONS>
1  2  8
1  5  8
12  20  8
13  20  8
14  15  8
16  17  8
18  19  8
2  6  8
3  12  8
3  9  8
4  13  8
4  9  8
5  14  8
6  15  8
7  17  8
7  19  8
8  16  8
8  18  8

$$$$
