688674
 OpenBabel06101807152D

 35 37  0  0  0  0  0  0  0  0999 V2000
    4.6660   -0.2500    0.0000 O   0  0  0  0  0  0  0  0  0  0  0  0
    8.9962    0.2500    0.0000 O   0  0  0  0  0  0  0  0  0  0  0  0
    8.9962   -1.7500    0.0000 O   0  0  0  0  0  0  0  0  0  0  0  0
    4.6660    2.7500    0.0000 O   0  0  0  0  0  0  0  0  0  0  0  0
    6.3981   -0.2500    0.0000 C   0  0  0  0  0  0  0  0  0  0  0  0
    5.5321    0.2500    0.0000 C   0  0  0  0  0  0  0  0  0  0  0  0
    3.8000    1.2500    0.0000 C   0  0  0  0  0  0  0  0  0  0  0  0
    3.8000    0.2500    0.0000 C   0  0  0  0  0  0  0  0  0  0  0  0
    5.5321    1.2500    0.0000 C   0  0  0  0  0  0  0  0  0  0  0  0
    7.2641    0.2500    0.0000 C   0  0  0  0  0  0  0  0  0  0  0  0
    4.6660    1.7500    0.0000 C   0  0  0  0  0  0  0  0  0  0  0  0
    6.3981   -1.2500    0.0000 C   0  0  0  0  0  0  0  0  0  0  0  0
    8.1301   -0.2500    0.0000 C   0  0  0  0  0  0  0  0  0  0  0  0
    8.1301   -1.2500    0.0000 C   0  0  0  0  0  0  0  0  0  0  0  0
    7.2641   -1.7500    0.0000 C   0  0  0  0  0  0  0  0  0  0  0  0
    2.9061    1.7847    0.0000 C   0  0  0  0  0  0  0  0  0  0  0  0
    2.9061   -0.2847    0.0000 C   0  0  0  0  0  0  0  0  0  0  0  0
    2.0000    1.2708    0.0000 C   0  0  0  0  0  0  0  0  0  0  0  0
    2.0000    0.2292    0.0000 C   0  0  0  0  0  0  0  0  0  0  0  0
    8.9962    1.2500    0.0000 C   0  0  0  0  0  0  0  0  0  0  0  0
    8.9962   -2.7500    0.0000 C   0  0  0  0  0  0  0  0  0  0  0  0
    6.0690    1.5600    0.0000 H   0  0  0  0  0  0  0  0  0  0  0  0
    7.2641    0.8700    0.0000 H   0  0  0  0  0  0  0  0  0  0  0  0
    5.8612   -1.5600    0.0000 H   0  0  0  0  0  0  0  0  0  0  0  0
    7.2641   -2.3700    0.0000 H   0  0  0  0  0  0  0  0  0  0  0  0
    2.9132    2.4046    0.0000 H   0  0  0  0  0  0  0  0  0  0  0  0
    2.9132   -0.9046    0.0000 H   0  0  0  0  0  0  0  0  0  0  0  0
    1.4643    1.5829    0.0000 H   0  0  0  0  0  0  0  0  0  0  0  0
    1.4643   -0.0829    0.0000 H   0  0  0  0  0  0  0  0  0  0  0  0
    9.6162    1.2500    0.0000 H   0  0  0  0  0  0  0  0  0  0  0  0
    8.9962    1.8700    0.0000 H   0  0  0  0  0  0  0  0  0  0  0  0
    8.3762    1.2500    0.0000 H   0  0  0  0  0  0  0  0  0  0  0  0
    8.3762   -2.7500    0.0000 H   0  0  0  0  0  0  0  0  0  0  0  0
    8.9962   -3.3700    0.0000 H   0  0  0  0  0  0  0  0  0  0  0  0
    9.6162   -2.7500    0.0000 H   0  0  0  0  0  0  0  0  0  0  0  0
  1  6  1  0  0  0  0
  1  8  1  0  0  0  0
  2 13  1  0  0  0  0
  2 20  1  0  0  0  0
  3 14  1  0  0  0  0
  3 21  1  0  0  0  0
  4 11  2  0  0  0  0
  5  6  1  0  0  0  0
  5 10  2  0  0  0  0
  5 12  1  0  0  0  0
  6  9  2  0  0  0  0
  7  8  1  0  0  0  0
  7 11  1  0  0  0  0
  7 16  2  0  0  0  0
  8 17  2  0  0  0  0
  9 11  1  0  0  0  0
  9 22  1  0  0  0  0
 10 13  1  0  0  0  0
 10 23  1  0  0  0  0
 12 15  2  0  0  0  0
 12 24  1  0  0  0  0
 13 14  2  0  0  0  0
 14 15  1  0  0  0  0
 15 25  1  0  0  0  0
 16 18  1  0  0  0  0
 16 26  1  0  0  0  0
 17 19  1  0  0  0  0
 17 27  1  0  0  0  0
 18 19  2  0  0  0  0
 18 28  1  0  0  0  0
 19 29  1  0  0  0  0
 20 30  1  0  0  0  0
 20 31  1  0  0  0  0
 20 32  1  0  0  0  0
 21 33  1  0  0  0  0
 21 34  1  0  0  0  0
 21 35  1  0  0  0  0
M  END
>  <PUBCHEM_COMPOUND_CID>
688674

>  <PUBCHEM_COMPOUND_CANONICALIZED>
1

>  <PUBCHEM_CACTVS_COMPLEXITY>
417

>  <PUBCHEM_CACTVS_HBOND_ACCEPTOR>
4

>  <PUBCHEM_CACTVS_HBOND_DONOR>
0

>  <PUBCHEM_CACTVS_ROTATABLE_BOND>
3

>  <PUBCHEM_CACTVS_SUBSKEYS>
AAADccB4OAAAAAAAAAAAAAAAAAAAAAAAAAAwYIAAAAAAAACBQAAAGgAAAAAADASAmAIyBoAABACIAqBSAAACCAAkIAAIiAEGiMgNJjaENRqCOWKk4BEKqYfI6LyOIAABAAAIQABAAAIAABCAAAAAAAAAAA==

>  <PUBCHEM_IUPAC_OPENEYE_NAME>
2-(3,4-dimethoxyphenyl)chromen-4-one

>  <PUBCHEM_IUPAC_CAS_NAME>
2-(3,4-dimethoxyphenyl)-1-benzopyran-4-one

>  <PUBCHEM_IUPAC_NAME>
2-(3,4-dimethoxyphenyl)chromen-4-one

>  <PUBCHEM_IUPAC_SYSTEMATIC_NAME>
2-(3,4-dimethoxyphenyl)chromen-4-one

>  <PUBCHEM_IUPAC_TRADITIONAL_NAME>
2-(3,4-dimethoxyphenyl)chromone

>  <PUBCHEM_IUPAC_INCHI>
InChI=1S/C17H14O4/c1-19-15-8-7-11(9-17(15)20-2)16-10-13(18)12-5-3-4-6-14(12)21-16/h3-10H,1-2H3

>  <PUBCHEM_IUPAC_INCHIKEY>
ZGHORMOOTZTQFL-UHFFFAOYSA-N

>  <PUBCHEM_XLOGP3>
3.5

>  <PUBCHEM_EXACT_MASS>
282.089

>  <PUBCHEM_MOLECULAR_FORMULA>
C17H14O4

>  <PUBCHEM_MOLECULAR_WEIGHT>
282.295

>  <PUBCHEM_OPENEYE_CAN_SMILES>
COC1=C(C=C(C=C1)C2=CC(=O)C3=CC=CC=C3O2)OC

>  <PUBCHEM_OPENEYE_ISO_SMILES>
COC1=C(C=C(C=C1)C2=CC(=O)C3=CC=CC=C3O2)OC

>  <PUBCHEM_CACTVS_TPSA>
44.8

>  <PUBCHEM_MONOISOTOPIC_WEIGHT>
282.089

>  <PUBCHEM_TOTAL_CHARGE>
0

>  <PUBCHEM_HEAVY_ATOM_COUNT>
21

>  <PUBCHEM_ATOM_DEF_STEREO_COUNT>
0

>  <PUBCHEM_ATOM_UDEF_STEREO_COUNT>
0

>  <PUBCHEM_BOND_DEF_STEREO_COUNT>
0

>  <PUBCHEM_BOND_UDEF_STEREO_COUNT>
0

>  <PUBCHEM_ISOTOPIC_ATOM_COUNT>
0

>  <PUBCHEM_COMPONENT_COUNT>
1

>  <PUBCHEM_CACTVS_TAUTO_COUNT>
1

>  <PUBCHEM_COORDINATE_TYPE>
1
5
255

>  <PUBCHEM_BONDANNOTATIONS>
1  6  8
1  8  8
10  13  8
12  15  8
13  14  8
14  15  8
16  18  8
17  19  8
18  19  8
5  10  8
5  12  8
6  9  8
7  11  8
7  16  8
7  8  8
8  17  8
9  11  8

$$$$
