69406100
 OpenBabel06101807152D

 40 44  0  0  1  0  0  0  0  0999 V2000
    2.8718   -0.7588    0.0000 O   0  0  0  0  0  0  0  0  0  0  0  0
    4.4081    3.3196    0.0000 O   0  0  0  0  0  0  0  0  0  0  0  0
    2.9562    2.4814    0.0000 O   0  0  0  0  0  0  0  0  0  0  0  0
    2.8560   -2.8070    0.0000 O   0  0  0  0  0  0  0  0  0  0  0  0
    7.2334   -1.2567    0.0000 N   0  0  0  0  0  0  0  0  0  0  0  0
    6.3740   -0.7619    0.0000 C   0  0  3  0  0  0  0  0  0  0  0  0
    5.5080   -1.2619    0.0000 C   0  0  0  0  0  0  0  0  0  0  0  0
    6.3740    0.2381    0.0000 C   0  0  0  0  0  0  0  0  0  0  0  0
    4.6419   -0.7619    0.0000 C   0  0  0  0  0  0  0  0  0  0  0  0
    5.5240   -2.3034    0.0000 C   0  0  0  0  0  0  0  0  0  0  0  0
    5.5080    0.7381    0.0000 C   0  0  0  0  0  0  0  0  0  0  0  0
    6.4011   -2.7662    0.0000 C   0  0  0  0  0  0  0  0  0  0  0  0
    4.6419    0.2381    0.0000 C   0  0  0  0  0  0  0  0  0  0  0  0
    7.2469   -2.2483    0.0000 C   0  0  0  0  0  0  0  0  0  0  0  0
    3.7319   -1.2687    0.0000 C   0  0  0  0  0  0  0  0  0  0  0  0
    4.6260   -2.8312    0.0000 C   0  0  0  0  0  0  0  0  0  0  0  0
    5.5240    1.7796    0.0000 C   0  0  0  0  0  0  0  0  0  0  0  0
    3.7319    0.7450    0.0000 C   0  0  0  0  0  0  0  0  0  0  0  0
    3.7239   -2.3103    0.0000 C   0  0  0  0  0  0  0  0  0  0  0  0
    4.6260    2.3074    0.0000 C   0  0  0  0  0  0  0  0  0  0  0  0
    3.7239    1.7866    0.0000 C   0  0  0  0  0  0  0  0  0  0  0  0
    3.3782    3.4270    0.0000 C   0  0  0  0  0  0  0  0  0  0  0  0
    2.0000   -1.2487    0.0000 C   0  0  0  0  0  0  0  0  0  0  0  0
    6.9107   -0.4516    0.0000 H   0  0  0  0  0  0  0  0  0  0  0  0
    6.9846    0.1304    0.0000 H   0  0  0  0  0  0  0  0  0  0  0  0
    6.5860    0.8207    0.0000 H   0  0  0  0  0  0  0  0  0  0  0  0
    7.7681   -0.9427    0.0000 H   0  0  0  0  0  0  0  0  0  0  0  0
    6.0190   -3.2544    0.0000 H   0  0  0  0  0  0  0  0  0  0  0  0
    6.8137   -3.2290    0.0000 H   0  0  0  0  0  0  0  0  0  0  0  0
    7.4716   -2.8261    0.0000 H   0  0  0  0  0  0  0  0  0  0  0  0
    7.8555   -2.1299    0.0000 H   0  0  0  0  0  0  0  0  0  0  0  0
    4.6284   -3.4512    0.0000 H   0  0  0  0  0  0  0  0  0  0  0  0
    6.0645    2.0834    0.0000 H   0  0  0  0  0  0  0  0  0  0  0  0
    3.1986    0.4288    0.0000 H   0  0  0  0  0  0  0  0  0  0  0  0
    3.5069    4.0335    0.0000 H   0  0  0  0  0  0  0  0  0  0  0  0
    2.7886    3.6188    0.0000 H   0  0  0  0  0  0  0  0  0  0  0  0
    2.8536   -3.4270    0.0000 H   0  0  0  0  0  0  0  0  0  0  0  0
    1.6962   -0.7082    0.0000 H   0  0  0  0  0  0  0  0  0  0  0  0
    1.4595   -1.5525    0.0000 H   0  0  0  0  0  0  0  0  0  0  0  0
    2.3038   -1.7892    0.0000 H   0  0  0  0  0  0  0  0  0  0  0  0
  1 15  1  0  0  0  0
  1 23  1  0  0  0  0
  2 20  1  0  0  0  0
  2 22  1  0  0  0  0
  3 21  1  0  0  0  0
  3 22  1  0  0  0  0
  4 19  1  0  0  0  0
  4 37  1  0  0  0  0
  5  6  1  0  0  0  0
  5 14  1  0  0  0  0
  5 27  1  0  0  0  0
  6  7  1  0  0  0  0
  6  8  1  0  0  0  0
  6 24  1  0  0  0  0
  7  9  2  0  0  0  0
  7 10  1  0  0  0  0
  8 11  1  0  0  0  0
  8 25  1  0  0  0  0
  8 26  1  0  0  0  0
  9 13  1  0  0  0  0
  9 15  1  0  0  0  0
 10 12  1  0  0  0  0
 10 16  2  0  0  0  0
 11 13  1  0  0  0  0
 11 17  2  0  0  0  0
 12 14  1  0  0  0  0
 12 28  1  0  0  0  0
 12 29  1  0  0  0  0
 13 18  2  0  0  0  0
 14 30  1  0  0  0  0
 14 31  1  0  0  0  0
 15 19  2  0  0  0  0
 16 19  1  0  0  0  0
 16 32  1  0  0  0  0
 17 20  1  0  0  0  0
 17 33  1  0  0  0  0
 18 21  1  0  0  0  0
 18 34  1  0  0  0  0
 20 21  2  0  0  0  0
 22 35  1  0  0  0  0
 22 36  1  0  0  0  0
 23 38  1  0  0  0  0
 23 39  1  0  0  0  0
 23 40  1  0  0  0  0
M  END
>  <PUBCHEM_COMPOUND_CID>
69406100

>  <PUBCHEM_COMPOUND_CANONICALIZED>
1

>  <PUBCHEM_CACTVS_COMPLEXITY>
460

>  <PUBCHEM_CACTVS_HBOND_ACCEPTOR>
5

>  <PUBCHEM_CACTVS_HBOND_DONOR>
2

>  <PUBCHEM_CACTVS_ROTATABLE_BOND>
1

>  <PUBCHEM_CACTVS_SUBSKEYS>
AAADceB6OAAAAAAAAAAAAAAAAAAAASAAAAA8YMEAAAAAAEjxQAAAHgAQCAAADCzBmAcyDoLABgCAAiBCAACCCAAgIAAAiIAOjIgdJiKGsRukcCtk0BGPuAew8P8OoAADAAAYQADQAAaAADSAAAAAAAAAAA==

>  <PUBCHEM_IUPAC_INCHI>
InChI=1S/C18H17NO4/c1-21-18-13(20)5-9-2-3-19-12-4-10-6-14-15(23-8-22-14)7-11(10)17(18)16(9)12/h5-7,12,19-20H,2-4,8H2,1H3

>  <PUBCHEM_IUPAC_INCHIKEY>
GUVKEPNWVHYXGH-UHFFFAOYSA-N

>  <PUBCHEM_XLOGP3_AA>
2.4

>  <PUBCHEM_EXACT_MASS>
311.116

>  <PUBCHEM_MOLECULAR_FORMULA>
C18H17NO4

>  <PUBCHEM_MOLECULAR_WEIGHT>
311.337

>  <PUBCHEM_OPENEYE_CAN_SMILES>
COC1=C(C=C2CCNC3C2=C1C4=CC5=C(C=C4C3)OCO5)O

>  <PUBCHEM_OPENEYE_ISO_SMILES>
COC1=C(C=C2CCNC3C2=C1C4=CC5=C(C=C4C3)OCO5)O

>  <PUBCHEM_CACTVS_TPSA>
60

>  <PUBCHEM_MONOISOTOPIC_WEIGHT>
311.116

>  <PUBCHEM_TOTAL_CHARGE>
0

>  <PUBCHEM_HEAVY_ATOM_COUNT>
23

>  <PUBCHEM_ATOM_DEF_STEREO_COUNT>
0

>  <PUBCHEM_ATOM_UDEF_STEREO_COUNT>
1

>  <PUBCHEM_BOND_DEF_STEREO_COUNT>
0

>  <PUBCHEM_BOND_UDEF_STEREO_COUNT>
0

>  <PUBCHEM_ISOTOPIC_ATOM_COUNT>
0

>  <PUBCHEM_COMPONENT_COUNT>
1

>  <PUBCHEM_CACTVS_TAUTO_COUNT>
9

>  <PUBCHEM_COORDINATE_TYPE>
1
5
255

>  <PUBCHEM_BONDANNOTATIONS>
10  16  8
11  13  8
11  17  8
13  18  8
15  19  8
16  19  8
17  20  8
18  21  8
20  21  8
6  8  3
7  10  8
7  9  8
9  15  8

$$$$
