6971195
 OpenBabel06101807152D

 21 21  0  0  1  0  0  0  0  0999 V2000
    2.8660    1.9330    0.0000 O   0  5  0  0  0  0  0  0  0  0  0  0
    2.0000    0.4330    0.0000 O   0  0  0  0  0  0  0  0  0  0  0  0
    4.5981   -1.0670    0.0000 N   0  3  3  0  0  0  0  0  0  0  0  0
    5.4641   -0.5670    0.0000 C   0  0  0  0  0  0  0  0  0  0  0  0
    3.7320   -0.5670    0.0000 C   0  0  0  0  0  0  0  0  0  0  0  0
    5.4641    0.4330    0.0000 C   0  0  0  0  0  0  0  0  0  0  0  0
    3.7320    0.4330    0.0000 C   0  0  0  0  0  0  0  0  0  0  0  0
    4.0981   -1.9330    0.0000 C   0  0  0  0  0  0  0  0  0  0  0  0
    4.5981    0.9330    0.0000 C   0  0  0  0  0  0  0  0  0  0  0  0
    2.8660    0.9330    0.0000 C   0  0  0  0  0  0  0  0  0  0  0  0
    4.9081   -1.6039    0.0000 H   0  0  0  0  0  0  0  0  0  0  0  0
    5.6762   -1.1496    0.0000 H   0  0  0  0  0  0  0  0  0  0  0  0
    6.0747   -0.4593    0.0000 H   0  0  0  0  0  0  0  0  0  0  0  0
    3.1215   -0.4593    0.0000 H   0  0  0  0  0  0  0  0  0  0  0  0
    3.5200   -1.1496    0.0000 H   0  0  0  0  0  0  0  0  0  0  0  0
    6.0747    0.3254    0.0000 H   0  0  0  0  0  0  0  0  0  0  0  0
    5.6762    1.0156    0.0000 H   0  0  0  0  0  0  0  0  0  0  0  0
    3.5611   -1.6230    0.0000 H   0  0  0  0  0  0  0  0  0  0  0  0
    3.7881   -2.4700    0.0000 H   0  0  0  0  0  0  0  0  0  0  0  0
    4.6350   -2.2430    0.0000 H   0  0  0  0  0  0  0  0  0  0  0  0
    4.5981    1.5530    0.0000 H   0  0  0  0  0  0  0  0  0  0  0  0
  1 10  1  0  0  0  0
  2 10  2  0  0  0  0
  3  4  1  0  0  0  0
  3  5  1  0  0  0  0
  3  8  1  0  0  0  0
  3 11  1  0  0  0  0
  4  6  1  0  0  0  0
  4 12  1  0  0  0  0
  4 13  1  0  0  0  0
  5  7  1  0  0  0  0
  5 14  1  0  0  0  0
  5 15  1  0  0  0  0
  6  9  1  0  0  0  0
  6 16  1  0  0  0  0
  6 17  1  0  0  0  0
  7  9  2  0  0  0  0
  7 10  1  0  0  0  0
  8 18  1  0  0  0  0
  8 19  1  0  0  0  0
  8 20  1  0  0  0  0
  9 21  1  0  0  0  0
M  CHG  2   1  -1   3   1
M  END
>  <PUBCHEM_COMPOUND_CID>
6971195

>  <PUBCHEM_COMPOUND_CANONICALIZED>
1

>  <PUBCHEM_CACTVS_COMPLEXITY>
169

>  <PUBCHEM_CACTVS_HBOND_ACCEPTOR>
2

>  <PUBCHEM_CACTVS_HBOND_DONOR>
1

>  <PUBCHEM_CACTVS_ROTATABLE_BOND>
0

>  <PUBCHEM_CACTVS_SUBSKEYS>
AAADccBiMAAAAAAAAAAAAAAAAAAAAAAAAAAgAAAAAAAAAAAAAAAAHgAQAAAADADBgAQCCAPAAACIAiDSCACAAAAgAAAACIEIAEgABAgAAQAEEAACEACIAYIAAAAAAAAAAAAAAAAAAAAAAAAAAAAAAAAAAA==

>  <PUBCHEM_IUPAC_OPENEYE_NAME>
1-methyl-1,2,3,6-tetrahydropyridin-1-ium-5-carboxylate

>  <PUBCHEM_IUPAC_CAS_NAME>
1-methyl-1,2,3,6-tetrahydropyridin-1-ium-5-carboxylate

>  <PUBCHEM_IUPAC_NAME>
1-methyl-1,2,3,6-tetrahydropyridin-1-ium-5-carboxylate

>  <PUBCHEM_IUPAC_SYSTEMATIC_NAME>
1-methyl-1,2,3,6-tetrahydropyridin-1-ium-5-carboxylate

>  <PUBCHEM_IUPAC_TRADITIONAL_NAME>
1-methyl-1,2,3,6-tetrahydropyridin-1-ium-5-carboxylate

>  <PUBCHEM_IUPAC_INCHI>
InChI=1S/C7H11NO2/c1-8-4-2-3-6(5-8)7(9)10/h3H,2,4-5H2,1H3,(H,9,10)

>  <PUBCHEM_IUPAC_INCHIKEY>
DNJFTXKSFAMXQF-UHFFFAOYSA-N

>  <PUBCHEM_XLOGP3>
-1.6

>  <PUBCHEM_EXACT_MASS>
141.079

>  <PUBCHEM_MOLECULAR_FORMULA>
C7H11NO2

>  <PUBCHEM_MOLECULAR_WEIGHT>
141.17

>  <PUBCHEM_OPENEYE_CAN_SMILES>
C[NH+]1CCC=C(C1)C(=O)[O-]

>  <PUBCHEM_OPENEYE_ISO_SMILES>
C[NH+]1CCC=C(C1)C(=O)[O-]

>  <PUBCHEM_CACTVS_TPSA>
44.6

>  <PUBCHEM_MONOISOTOPIC_WEIGHT>
141.079

>  <PUBCHEM_TOTAL_CHARGE>
0

>  <PUBCHEM_HEAVY_ATOM_COUNT>
10

>  <PUBCHEM_ATOM_DEF_STEREO_COUNT>
0

>  <PUBCHEM_ATOM_UDEF_STEREO_COUNT>
0

>  <PUBCHEM_BOND_DEF_STEREO_COUNT>
0

>  <PUBCHEM_BOND_UDEF_STEREO_COUNT>
0

>  <PUBCHEM_ISOTOPIC_ATOM_COUNT>
0

>  <PUBCHEM_COMPONENT_COUNT>
1

>  <PUBCHEM_CACTVS_TAUTO_COUNT>
1

>  <PUBCHEM_COORDINATE_TYPE>
1
5
255

$$$$
