69879809
 OpenBabel06101807152D

 47 49  0  0  1  0  0  0  0  0999 V2000
    6.3301    0.0000    0.0000 O   0  0  0  0  0  0  0  0  0  0  0  0
    6.3301    3.0000    0.0000 O   0  0  0  0  0  0  0  0  0  0  0  0
    2.0000    0.5000    0.0000 O   0  0  0  0  0  0  0  0  0  0  0  0
    2.0000   -1.5000    0.0000 O   0  0  0  0  0  0  0  0  0  0  0  0
   10.6603   -2.5000    0.0000 O   0  0  0  0  0  0  0  0  0  0  0  0
   12.3923   -1.5000    0.0000 O   0  0  0  0  0  0  0  0  0  0  0  0
    5.4641    0.5000    0.0000 C   0  0  3  0  0  0  0  0  0  0  0  0
    5.4641    1.5000    0.0000 C   0  0  0  0  0  0  0  0  0  0  0  0
    4.5981    0.0000    0.0000 C   0  0  0  0  0  0  0  0  0  0  0  0
    6.3301    2.0000    0.0000 C   0  0  0  0  0  0  0  0  0  0  0  0
    7.1962    0.5000    0.0000 C   0  0  0  0  0  0  0  0  0  0  0  0
    3.7320    0.5000    0.0000 C   0  0  0  0  0  0  0  0  0  0  0  0
    7.1962    1.5000    0.0000 C   0  0  0  0  0  0  0  0  0  0  0  0
    4.5981   -1.0000    0.0000 C   0  0  0  0  0  0  0  0  0  0  0  0
    2.8660    0.0000    0.0000 C   0  0  0  0  0  0  0  0  0  0  0  0
    3.7320   -1.5000    0.0000 C   0  0  0  0  0  0  0  0  0  0  0  0
    8.0622    0.0000    0.0000 C   0  0  0  0  0  0  0  0  0  0  0  0
    2.8660   -1.0000    0.0000 C   0  0  0  0  0  0  0  0  0  0  0  0
    8.9282    0.5000    0.0000 C   0  0  0  0  0  0  0  0  0  0  0  0
    9.7942    0.0000    0.0000 C   0  0  0  0  0  0  0  0  0  0  0  0
    9.7942   -1.0000    0.0000 C   0  0  0  0  0  0  0  0  0  0  0  0
   10.6603    0.5000    0.0000 C   0  0  0  0  0  0  0  0  0  0  0  0
   10.6603   -1.5000    0.0000 C   0  0  0  0  0  0  0  0  0  0  0  0
   11.5263    0.0000    0.0000 C   0  0  0  0  0  0  0  0  0  0  0  0
   11.5263   -1.0000    0.0000 C   0  0  0  0  0  0  0  0  0  0  0  0
    2.0000    1.5000    0.0000 C   0  0  0  0  0  0  0  0  0  0  0  0
   11.5263   -3.0000    0.0000 C   0  0  0  0  0  0  0  0  0  0  0  0
    5.4641   -0.1200    0.0000 H   0  0  0  0  0  0  0  0  0  0  0  0
    5.2520    2.0826    0.0000 H   0  0  0  0  0  0  0  0  0  0  0  0
    4.8535    1.3923    0.0000 H   0  0  0  0  0  0  0  0  0  0  0  0
    3.7320    1.1200    0.0000 H   0  0  0  0  0  0  0  0  0  0  0  0
    7.7331    1.8100    0.0000 H   0  0  0  0  0  0  0  0  0  0  0  0
    5.1350   -1.3100    0.0000 H   0  0  0  0  0  0  0  0  0  0  0  0
    3.7320   -2.1200    0.0000 H   0  0  0  0  0  0  0  0  0  0  0  0
    8.0622   -0.6200    0.0000 H   0  0  0  0  0  0  0  0  0  0  0  0
    8.9282    1.1200    0.0000 H   0  0  0  0  0  0  0  0  0  0  0  0
    9.2573   -1.3100    0.0000 H   0  0  0  0  0  0  0  0  0  0  0  0
   10.6603    1.1200    0.0000 H   0  0  0  0  0  0  0  0  0  0  0  0
   12.0632    0.3100    0.0000 H   0  0  0  0  0  0  0  0  0  0  0  0
    2.0000   -2.1200    0.0000 H   0  0  0  0  0  0  0  0  0  0  0  0
    2.6200    1.5000    0.0000 H   0  0  0  0  0  0  0  0  0  0  0  0
    2.0000    2.1200    0.0000 H   0  0  0  0  0  0  0  0  0  0  0  0
    1.3800    1.5000    0.0000 H   0  0  0  0  0  0  0  0  0  0  0  0
   12.9292   -1.1900    0.0000 H   0  0  0  0  0  0  0  0  0  0  0  0
   11.2163   -3.5369    0.0000 H   0  0  0  0  0  0  0  0  0  0  0  0
   12.0632   -3.3100    0.0000 H   0  0  0  0  0  0  0  0  0  0  0  0
   11.8363   -2.4631    0.0000 H   0  0  0  0  0  0  0  0  0  0  0  0
  1  7  1  0  0  0  0
  1 11  1  0  0  0  0
  2 10  2  0  0  0  0
  3 15  1  0  0  0  0
  3 26  1  0  0  0  0
  4 18  1  0  0  0  0
  4 40  1  0  0  0  0
  5 23  1  0  0  0  0
  5 27  1  0  0  0  0
  6 25  1  0  0  0  0
  6 44  1  0  0  0  0
  7  8  1  0  0  0  0
  7  9  1  0  0  0  0
  7 28  1  0  0  0  0
  8 10  1  0  0  0  0
  8 29  1  0  0  0  0
  8 30  1  0  0  0  0
  9 12  2  0  0  0  0
  9 14  1  0  0  0  0
 10 13  1  0  0  0  0
 11 13  2  0  0  0  0
 11 17  1  0  0  0  0
 12 15  1  0  0  0  0
 12 31  1  0  0  0  0
 13 32  1  0  0  0  0
 14 16  2  0  0  0  0
 14 33  1  0  0  0  0
 15 18  2  0  0  0  0
 16 18  1  0  0  0  0
 16 34  1  0  0  0  0
 17 19  2  0  0  0  0
 17 35  1  0  0  0  0
 19 20  1  0  0  0  0
 19 36  1  0  0  0  0
 20 21  2  0  0  0  0
 20 22  1  0  0  0  0
 21 23  1  0  0  0  0
 21 37  1  0  0  0  0
 22 24  2  0  0  0  0
 22 38  1  0  0  0  0
 23 25  2  0  0  0  0
 24 25  1  0  0  0  0
 24 39  1  0  0  0  0
 26 41  1  0  0  0  0
 26 42  1  0  0  0  0
 26 43  1  0  0  0  0
 27 45  1  0  0  0  0
 27 46  1  0  0  0  0
 27 47  1  0  0  0  0
M  END
>  <PUBCHEM_COMPOUND_CID>
69879809

>  <PUBCHEM_COMPOUND_CANONICALIZED>
1

>  <PUBCHEM_CACTVS_COMPLEXITY>
571

>  <PUBCHEM_CACTVS_HBOND_ACCEPTOR>
6

>  <PUBCHEM_CACTVS_HBOND_DONOR>
2

>  <PUBCHEM_CACTVS_ROTATABLE_BOND>
5

>  <PUBCHEM_CACTVS_SUBSKEYS>
AAADceB4OAAAAAAAAAAAAAAAAAAAAAAAAAAwYIAAAAAAAAABQAAAGgAACAAADBSgmAIyBoAABgCIAqBSAAACCAAgIAAIiAEGiMgNJjaGMRqCcCMk4BELuQfI6LyOIAABAAAAQABAAAIAAACAAAAAAAAAAA==

>  <PUBCHEM_IUPAC_OPENEYE_NAME>
2-(4-hydroxy-3-methoxy-phenyl)-6-[(E)-2-(4-hydroxy-3-methoxy-phenyl)vinyl]-2,3-dihydropyran-4-one

>  <PUBCHEM_IUPAC_CAS_NAME>
2-(4-hydroxy-3-methoxyphenyl)-6-[(E)-2-(4-hydroxy-3-methoxyphenyl)ethenyl]-2,3-dihydropyran-4-one

>  <PUBCHEM_IUPAC_NAME>
2-(4-hydroxy-3-methoxyphenyl)-6-[(E)-2-(4-hydroxy-3-methoxyphenyl)ethenyl]-2,3-dihydropyran-4-one

>  <PUBCHEM_IUPAC_SYSTEMATIC_NAME>
2-(3-methoxy-4-oxidanyl-phenyl)-6-[(E)-2-(3-methoxy-4-oxidanyl-phenyl)ethenyl]-2,3-dihydropyran-4-one

>  <PUBCHEM_IUPAC_TRADITIONAL_NAME>
2-(4-hydroxy-3-methoxy-phenyl)-6-[(E)-2-(4-hydroxy-3-methoxy-phenyl)vinyl]-2,3-dihydropyran-4-one

>  <PUBCHEM_IUPAC_INCHI>
InChI=1S/C21H20O6/c1-25-20-9-13(4-7-17(20)23)3-6-16-11-15(22)12-19(27-16)14-5-8-18(24)21(10-14)26-2/h3-11,19,23-24H,12H2,1-2H3/b6-3+

>  <PUBCHEM_IUPAC_INCHIKEY>
IZLBLUIBVMGMIY-ZZXKWVIFSA-N

>  <PUBCHEM_XLOGP3_AA>
3

>  <PUBCHEM_EXACT_MASS>
368.126

>  <PUBCHEM_MOLECULAR_FORMULA>
C21H20O6

>  <PUBCHEM_MOLECULAR_WEIGHT>
368.385

>  <PUBCHEM_OPENEYE_CAN_SMILES>
COC1=C(C=CC(=C1)C=CC2=CC(=O)CC(O2)C3=CC(=C(C=C3)O)OC)O

>  <PUBCHEM_OPENEYE_ISO_SMILES>
COC1=C(C=CC(=C1)/C=C/C2=CC(=O)CC(O2)C3=CC(=C(C=C3)O)OC)O

>  <PUBCHEM_CACTVS_TPSA>
85.2

>  <PUBCHEM_MONOISOTOPIC_WEIGHT>
368.126

>  <PUBCHEM_TOTAL_CHARGE>
0

>  <PUBCHEM_HEAVY_ATOM_COUNT>
27

>  <PUBCHEM_ATOM_DEF_STEREO_COUNT>
0

>  <PUBCHEM_ATOM_UDEF_STEREO_COUNT>
1

>  <PUBCHEM_BOND_DEF_STEREO_COUNT>
1

>  <PUBCHEM_BOND_UDEF_STEREO_COUNT>
0

>  <PUBCHEM_ISOTOPIC_ATOM_COUNT>
0

>  <PUBCHEM_COMPONENT_COUNT>
1

>  <PUBCHEM_CACTVS_TAUTO_COUNT>
37

>  <PUBCHEM_COORDINATE_TYPE>
1
5
255

>  <PUBCHEM_BONDANNOTATIONS>
12  15  8
14  16  8
15  18  8
16  18  8
20  21  8
20  22  8
21  23  8
22  24  8
23  25  8
24  25  8
7  9  3
9  12  8
9  14  8

$$$$
