70684457
 OpenBabel06101807152D

 50 52  0  0  0  0  0  0  0  0999 V2000
    7.3062    1.3228    0.0000 O   0  0  0  0  0  0  0  0  0  0  0  0
    3.7702    1.3506    0.0000 O   0  0  0  0  0  0  0  0  0  0  0  0
    5.5301   -1.6840    0.0000 O   0  0  0  0  0  0  0  0  0  0  0  0
    8.1282   -0.1840    0.0000 O   0  0  0  0  0  0  0  0  0  0  0  0
    2.0000    1.3401    0.0000 O   0  0  0  0  0  0  0  0  0  0  0  0
    7.3142    2.3644    0.0000 C   0  0  0  0  0  0  0  0  0  0  0  0
    6.3961    0.8160    0.0000 C   0  0  0  0  0  0  0  0  0  0  0  0
    5.5301    1.3160    0.0000 C   0  0  0  0  0  0  0  0  0  0  0  0
    4.6641   -0.1840    0.0000 C   0  0  0  0  0  0  0  0  0  0  0  0
    4.6641    0.8160    0.0000 C   0  0  0  0  0  0  0  0  0  0  0  0
    6.3961   -0.1840    0.0000 C   0  0  0  0  0  0  0  0  0  0  0  0
    5.5301   -0.6840    0.0000 C   0  0  0  0  0  0  0  0  0  0  0  0
    6.4121    2.8852    0.0000 C   0  0  0  0  0  0  0  0  0  0  0  0
    3.7702   -0.7187    0.0000 C   0  0  0  0  0  0  0  0  0  0  0  0
    5.5141    2.3575    0.0000 C   0  0  0  0  0  0  0  0  0  0  0  0
    7.8175    3.2285    0.0000 C   0  0  0  0  0  0  0  0  0  0  0  0
    8.3142    2.3606    0.0000 C   0  0  0  0  0  0  0  0  0  0  0  0
    3.7817   -1.7186    0.0000 C   0  0  0  0  0  0  0  0  0  0  0  0
    7.2622   -0.6840    0.0000 C   0  0  0  0  0  0  0  0  0  0  0  0
    2.8641   -0.2048    0.0000 C   0  0  0  0  0  0  0  0  0  0  0  0
    7.2622   -1.6840    0.0000 C   0  0  0  0  0  0  0  0  0  0  0  0
    2.9215   -2.2286    0.0000 C   0  0  0  0  0  0  0  0  0  0  0  0
    2.8641    0.8368    0.0000 C   0  0  0  0  0  0  0  0  0  0  0  0
    8.1282   -2.1840    0.0000 C   0  0  0  0  0  0  0  0  0  0  0  0
    2.9331   -3.2285    0.0000 C   0  0  0  0  0  0  0  0  0  0  0  0
    8.1282   -3.1840    0.0000 C   0  0  0  0  0  0  0  0  0  0  0  0
    6.4097    3.5052    0.0000 H   0  0  0  0  0  0  0  0  0  0  0  0
    4.9736    2.6613    0.0000 H   0  0  0  0  0  0  0  0  0  0  0  0
    8.3118    1.7406    0.0000 H   0  0  0  0  0  0  0  0  0  0  0  0
    8.9342    2.3582    0.0000 H   0  0  0  0  0  0  0  0  0  0  0  0
    8.3166    2.9806    0.0000 H   0  0  0  0  0  0  0  0  0  0  0  0
    8.3532    2.9165    0.0000 H   0  0  0  0  0  0  0  0  0  0  0  0
    8.1296    3.7643    0.0000 H   0  0  0  0  0  0  0  0  0  0  0  0
    7.2818    3.5406    0.0000 H   0  0  0  0  0  0  0  0  0  0  0  0
    4.0005   -2.2987    0.0000 H   0  0  0  0  0  0  0  0  0  0  0  0
    4.3910   -1.6039    0.0000 H   0  0  0  0  0  0  0  0  0  0  0  0
    2.3284   -0.5169    0.0000 H   0  0  0  0  0  0  0  0  0  0  0  0
    6.6516   -1.5764    0.0000 H   0  0  0  0  0  0  0  0  0  0  0  0
    7.0501   -2.2666    0.0000 H   0  0  0  0  0  0  0  0  0  0  0  0
    2.7028   -1.6485    0.0000 H   0  0  0  0  0  0  0  0  0  0  0  0
    2.3122   -2.3433    0.0000 H   0  0  0  0  0  0  0  0  0  0  0  0
    8.7388   -2.2917    0.0000 H   0  0  0  0  0  0  0  0  0  0  0  0
    8.3402   -1.6014    0.0000 H   0  0  0  0  0  0  0  0  0  0  0  0
    6.0671   -1.9940    0.0000 H   0  0  0  0  0  0  0  0  0  0  0  0
    2.3131   -3.2357    0.0000 H   0  0  0  0  0  0  0  0  0  0  0  0
    2.9403   -3.8485    0.0000 H   0  0  0  0  0  0  0  0  0  0  0  0
    3.5531   -3.2214    0.0000 H   0  0  0  0  0  0  0  0  0  0  0  0
    7.5082   -3.1840    0.0000 H   0  0  0  0  0  0  0  0  0  0  0  0
    8.1282   -3.8040    0.0000 H   0  0  0  0  0  0  0  0  0  0  0  0
    8.7482   -3.1840    0.0000 H   0  0  0  0  0  0  0  0  0  0  0  0
  1  6  1  0  0  0  0
  1  7  1  0  0  0  0
  2 10  1  0  0  0  0
  2 23  1  0  0  0  0
  3 12  1  0  0  0  0
  3 44  1  0  0  0  0
  4 19  2  0  0  0  0
  5 23  2  0  0  0  0
  6 13  1  0  0  0  0
  6 16  1  0  0  0  0
  6 17  1  0  0  0  0
  7  8  1  0  0  0  0
  7 11  2  0  0  0  0
  8 10  2  0  0  0  0
  8 15  1  0  0  0  0
  9 10  1  0  0  0  0
  9 12  2  0  0  0  0
  9 14  1  0  0  0  0
 11 12  1  0  0  0  0
 11 19  1  0  0  0  0
 13 15  2  0  0  0  0
 13 27  1  0  0  0  0
 14 18  1  0  0  0  0
 14 20  2  0  0  0  0
 15 28  1  0  0  0  0
 16 32  1  0  0  0  0
 16 33  1  0  0  0  0
 16 34  1  0  0  0  0
 17 29  1  0  0  0  0
 17 30  1  0  0  0  0
 17 31  1  0  0  0  0
 18 22  1  0  0  0  0
 18 35  1  0  0  0  0
 18 36  1  0  0  0  0
 19 21  1  0  0  0  0
 20 23  1  0  0  0  0
 20 37  1  0  0  0  0
 21 24  1  0  0  0  0
 21 38  1  0  0  0  0
 21 39  1  0  0  0  0
 22 25  1  0  0  0  0
 22 40  1  0  0  0  0
 22 41  1  0  0  0  0
 24 26  1  0  0  0  0
 24 42  1  0  0  0  0
 24 43  1  0  0  0  0
 25 45  1  0  0  0  0
 25 46  1  0  0  0  0
 25 47  1  0  0  0  0
 26 48  1  0  0  0  0
 26 49  1  0  0  0  0
 26 50  1  0  0  0  0
M  END
>  <PUBCHEM_COMPOUND_CID>
70684457

>  <PUBCHEM_COMPOUND_CANONICALIZED>
1

>  <PUBCHEM_CACTVS_COMPLEXITY>
632

>  <PUBCHEM_CACTVS_HBOND_ACCEPTOR>
5

>  <PUBCHEM_CACTVS_HBOND_DONOR>
1

>  <PUBCHEM_CACTVS_ROTATABLE_BOND>
5

>  <PUBCHEM_CACTVS_SUBSKEYS>
AAADceB4OAAAAAAAAAAAAAAAAAAAAAAAAAAwQIAAAAAAAACBAAAAGgAACAAADESAmAACDoAABgCIAqDSCAACCAAkIAAIiAEECMgMJzaGNRqCe2Cl4BUIuQeI7OzOIAACCAAIAABAAAQQABAAAAAAAAAAAA==

>  <PUBCHEM_IUPAC_OPENEYE_NAME>
6-butanoyl-5-hydroxy-8,8-dimethyl-4-propyl-pyrano[2,3-h]chromen-2-one

>  <PUBCHEM_IUPAC_CAS_NAME>
5-hydroxy-8,8-dimethyl-6-(1-oxobutyl)-4-propyl-2-pyrano[2,3-h][1]benzopyranone

>  <PUBCHEM_IUPAC_NAME>
6-butanoyl-5-hydroxy-8,8-dimethyl-4-propylpyrano[2,3-h]chromen-2-one

>  <PUBCHEM_IUPAC_SYSTEMATIC_NAME>
6-butanoyl-8,8-dimethyl-5-oxidanyl-4-propyl-pyrano[2,3-h]chromen-2-one

>  <PUBCHEM_IUPAC_TRADITIONAL_NAME>
6-butyryl-5-hydroxy-8,8-dimethyl-4-propyl-pyrano[2,3-h]chromen-2-one

>  <PUBCHEM_IUPAC_INCHI>
InChI=1S/C21H24O5/c1-5-7-12-11-15(23)25-19-13-9-10-21(3,4)26-20(13)17(14(22)8-6-2)18(24)16(12)19/h9-11,24H,5-8H2,1-4H3

>  <PUBCHEM_IUPAC_INCHIKEY>
SMRSMFDNXPPPCA-UHFFFAOYSA-N

>  <PUBCHEM_XLOGP3_AA>
4.4

>  <PUBCHEM_EXACT_MASS>
356.162

>  <PUBCHEM_MOLECULAR_FORMULA>
C21H24O5

>  <PUBCHEM_MOLECULAR_WEIGHT>
356.418

>  <PUBCHEM_OPENEYE_CAN_SMILES>
CCCC1=CC(=O)OC2=C1C(=C(C3=C2C=CC(O3)(C)C)C(=O)CCC)O

>  <PUBCHEM_OPENEYE_ISO_SMILES>
CCCC1=CC(=O)OC2=C1C(=C(C3=C2C=CC(O3)(C)C)C(=O)CCC)O

>  <PUBCHEM_CACTVS_TPSA>
72.8

>  <PUBCHEM_MONOISOTOPIC_WEIGHT>
356.162

>  <PUBCHEM_TOTAL_CHARGE>
0

>  <PUBCHEM_HEAVY_ATOM_COUNT>
26

>  <PUBCHEM_ATOM_DEF_STEREO_COUNT>
0

>  <PUBCHEM_ATOM_UDEF_STEREO_COUNT>
0

>  <PUBCHEM_BOND_DEF_STEREO_COUNT>
0

>  <PUBCHEM_BOND_UDEF_STEREO_COUNT>
0

>  <PUBCHEM_ISOTOPIC_ATOM_COUNT>
0

>  <PUBCHEM_COMPONENT_COUNT>
1

>  <PUBCHEM_CACTVS_TAUTO_COUNT>
37

>  <PUBCHEM_COORDINATE_TYPE>
1
5
255

>  <PUBCHEM_BONDANNOTATIONS>
11  12  8
14  20  8
2  10  8
2  23  8
20  23  8
7  11  8
7  8  8
8  10  8
9  10  8
9  12  8
9  14  8

$$$$
