71378875
 OpenBabel06101807152D

 40 42  0  0  0  0  0  0  0  0999 V2000
    5.5301   -1.2602    0.0000 O   0  0  0  0  0  0  0  0  0  0  0  0
    7.2785    1.7744    0.0000 O   0  0  0  0  0  0  0  0  0  0  0  0
    9.0602    0.7639    0.0000 O   0  0  0  0  0  0  0  0  0  0  0  0
    9.0602   -1.2844    0.0000 O   0  0  0  0  0  0  0  0  0  0  0  0
    5.5301    1.7398    0.0000 O   0  0  0  0  0  0  0  0  0  0  0  0
    2.0000    0.7639    0.0000 O   0  0  0  0  0  0  0  0  0  0  0  0
    2.0000   -1.2844    0.0000 O   0  0  0  0  0  0  0  0  0  0  0  0
    6.3961    0.2398    0.0000 C   0  0  0  0  0  0  0  0  0  0  0  0
    6.3961   -0.7602    0.0000 C   0  0  0  0  0  0  0  0  0  0  0  0
    4.6641    0.2398    0.0000 C   0  0  0  0  0  0  0  0  0  0  0  0
    5.5301    0.7398    0.0000 C   0  0  0  0  0  0  0  0  0  0  0  0
    4.6641   -0.7602    0.0000 C   0  0  0  0  0  0  0  0  0  0  0  0
    7.2901    0.7744    0.0000 C   0  0  0  0  0  0  0  0  0  0  0  0
    8.1962    0.2606    0.0000 C   0  0  0  0  0  0  0  0  0  0  0  0
    7.2901   -1.2949    0.0000 C   0  0  0  0  0  0  0  0  0  0  0  0
    8.1962   -0.7810    0.0000 C   0  0  0  0  0  0  0  0  0  0  0  0
    3.7702    0.7744    0.0000 C   0  0  0  0  0  0  0  0  0  0  0  0
    3.7702   -1.2949    0.0000 C   0  0  0  0  0  0  0  0  0  0  0  0
    2.8641    0.2606    0.0000 C   0  0  0  0  0  0  0  0  0  0  0  0
    2.8641   -0.7810    0.0000 C   0  0  0  0  0  0  0  0  0  0  0  0
    8.1387    2.2844    0.0000 C   0  0  0  0  0  0  0  0  0  0  0  0
    9.9282    0.2673    0.0000 C   0  0  0  0  0  0  0  0  0  0  0  0
    9.0564   -2.2844    0.0000 C   0  0  0  0  0  0  0  0  0  0  0  0
    2.0038    1.7639    0.0000 C   0  0  0  0  0  0  0  0  0  0  0  0
    7.2829   -1.9148    0.0000 H   0  0  0  0  0  0  0  0  0  0  0  0
    3.7773    1.3944    0.0000 H   0  0  0  0  0  0  0  0  0  0  0  0
    3.7773   -1.9148    0.0000 H   0  0  0  0  0  0  0  0  0  0  0  0
    8.4549    1.7510    0.0000 H   0  0  0  0  0  0  0  0  0  0  0  0
    8.6720    2.6006    0.0000 H   0  0  0  0  0  0  0  0  0  0  0  0
    7.8225    2.8177    0.0000 H   0  0  0  0  0  0  0  0  0  0  0  0
    9.6203   -0.2709    0.0000 H   0  0  0  0  0  0  0  0  0  0  0  0
   10.4663   -0.0407    0.0000 H   0  0  0  0  0  0  0  0  0  0  0  0
   10.2361    0.8054    0.0000 H   0  0  0  0  0  0  0  0  0  0  0  0
    2.0024   -1.9044    0.0000 H   0  0  0  0  0  0  0  0  0  0  0  0
    8.4364   -2.2820    0.0000 H   0  0  0  0  0  0  0  0  0  0  0  0
    9.0540   -2.9044    0.0000 H   0  0  0  0  0  0  0  0  0  0  0  0
    9.6764   -2.2868    0.0000 H   0  0  0  0  0  0  0  0  0  0  0  0
    2.6238    1.7615    0.0000 H   0  0  0  0  0  0  0  0  0  0  0  0
    2.0062    2.3839    0.0000 H   0  0  0  0  0  0  0  0  0  0  0  0
    1.3839    1.7663    0.0000 H   0  0  0  0  0  0  0  0  0  0  0  0
  1  9  1  0  0  0  0
  1 12  1  0  0  0  0
  2 13  1  0  0  0  0
  2 21  1  0  0  0  0
  3 14  1  0  0  0  0
  3 22  1  0  0  0  0
  4 16  1  0  0  0  0
  4 23  1  0  0  0  0
  5 11  2  0  0  0  0
  6 19  1  0  0  0  0
  6 24  1  0  0  0  0
  7 20  1  0  0  0  0
  7 34  1  0  0  0  0
  8  9  1  0  0  0  0
  8 11  1  0  0  0  0
  8 13  2  0  0  0  0
  9 15  2  0  0  0  0
 10 11  1  0  0  0  0
 10 12  1  0  0  0  0
 10 17  2  0  0  0  0
 12 18  2  0  0  0  0
 13 14  1  0  0  0  0
 14 16  2  0  0  0  0
 15 16  1  0  0  0  0
 15 25  1  0  0  0  0
 17 19  1  0  0  0  0
 17 26  1  0  0  0  0
 18 20  1  0  0  0  0
 18 27  1  0  0  0  0
 19 20  2  0  0  0  0
 21 28  1  0  0  0  0
 21 29  1  0  0  0  0
 21 30  1  0  0  0  0
 22 31  1  0  0  0  0
 22 32  1  0  0  0  0
 22 33  1  0  0  0  0
 23 35  1  0  0  0  0
 23 36  1  0  0  0  0
 23 37  1  0  0  0  0
 24 38  1  0  0  0  0
 24 39  1  0  0  0  0
 24 40  1  0  0  0  0
M  END
>  <PUBCHEM_COMPOUND_CID>
71378875

>  <PUBCHEM_COMPOUND_CANONICALIZED>
1

>  <PUBCHEM_CACTVS_COMPLEXITY>
456

>  <PUBCHEM_CACTVS_HBOND_ACCEPTOR>
7

>  <PUBCHEM_CACTVS_HBOND_DONOR>
1

>  <PUBCHEM_CACTVS_ROTATABLE_BOND>
4

>  <PUBCHEM_CACTVS_SUBSKEYS>
AAADceB4OAAAAAAAAAAAAAAAAAAAAAAAAAA0YIAAAAAAAACRQAAAGgAACAAADASAmAIyBoAABgCIAqBSAAACCAAkIAAAiAEGiMgNJzaGNBqCeWOl4BULuYfK7PzOIQABCAAIQABCAAIQABCAAAAAAAAAAA==

>  <PUBCHEM_IUPAC_OPENEYE_NAME>
6-hydroxy-1,2,3,7-tetramethoxy-xanthen-9-one

>  <PUBCHEM_IUPAC_CAS_NAME>
6-hydroxy-1,2,3,7-tetramethoxy-9-xanthenone

>  <PUBCHEM_IUPAC_NAME>
6-hydroxy-1,2,3,7-tetramethoxyxanthen-9-one

>  <PUBCHEM_IUPAC_SYSTEMATIC_NAME>
1,2,3,7-tetramethoxy-6-oxidanyl-xanthen-9-one

>  <PUBCHEM_IUPAC_TRADITIONAL_NAME>
6-hydroxy-1,2,3,7-tetramethoxy-xanthone

>  <PUBCHEM_IUPAC_INCHI>
InChI=1S/C17H16O7/c1-20-11-5-8-10(6-9(11)18)24-12-7-13(21-2)16(22-3)17(23-4)14(12)15(8)19/h5-7,18H,1-4H3

>  <PUBCHEM_IUPAC_INCHIKEY>
MLDGGHTUGFLZII-UHFFFAOYSA-N

>  <PUBCHEM_XLOGP3_AA>
2.5

>  <PUBCHEM_EXACT_MASS>
332.09

>  <PUBCHEM_MOLECULAR_FORMULA>
C17H16O7

>  <PUBCHEM_MOLECULAR_WEIGHT>
332.308

>  <PUBCHEM_OPENEYE_CAN_SMILES>
COC1=C(C=C2C(=C1)C(=O)C3=C(C(=C(C=C3O2)OC)OC)OC)O

>  <PUBCHEM_OPENEYE_ISO_SMILES>
COC1=C(C=C2C(=C1)C(=O)C3=C(C(=C(C=C3O2)OC)OC)OC)O

>  <PUBCHEM_CACTVS_TPSA>
83.4

>  <PUBCHEM_MONOISOTOPIC_WEIGHT>
332.09

>  <PUBCHEM_TOTAL_CHARGE>
0

>  <PUBCHEM_HEAVY_ATOM_COUNT>
24

>  <PUBCHEM_ATOM_DEF_STEREO_COUNT>
0

>  <PUBCHEM_ATOM_UDEF_STEREO_COUNT>
0

>  <PUBCHEM_BOND_DEF_STEREO_COUNT>
0

>  <PUBCHEM_BOND_UDEF_STEREO_COUNT>
0

>  <PUBCHEM_ISOTOPIC_ATOM_COUNT>
0

>  <PUBCHEM_COMPONENT_COUNT>
1

>  <PUBCHEM_CACTVS_TAUTO_COUNT>
5

>  <PUBCHEM_COORDINATE_TYPE>
1
5
255

>  <PUBCHEM_BONDANNOTATIONS>
1  12  8
1  9  8
10  11  8
10  12  8
10  17  8
12  18  8
13  14  8
14  16  8
15  16  8
17  19  8
18  20  8
19  20  8
8  11  8
8  13  8
8  9  8
9  15  8

$$$$
