71438453
 OpenBabel06101807152D

 33 35  0  0  0  0  0  0  0  0999 V2000
    3.7817    1.0104    0.0000 O   0  0  0  0  0  0  0  0  0  0  0  0
    2.0000   -2.0484    0.0000 O   0  0  0  0  0  0  0  0  0  0  0  0
    6.4082    2.5450    0.0000 O   0  0  0  0  0  0  0  0  0  0  0  0
    4.6641   -0.5242    0.0000 C   0  0  0  0  0  0  0  0  0  0  0  0
    5.5301   -0.0242    0.0000 C   0  0  0  0  0  0  0  0  0  0  0  0
    4.6641   -1.5242    0.0000 C   0  0  0  0  0  0  0  0  0  0  0  0
    6.3961   -0.5242    0.0000 C   0  0  0  0  0  0  0  0  0  0  0  0
    3.7702    0.0104    0.0000 C   0  0  0  0  0  0  0  0  0  0  0  0
    5.5301   -2.0242    0.0000 C   0  0  0  0  0  0  0  0  0  0  0  0
    6.3961   -1.5242    0.0000 C   0  0  0  0  0  0  0  0  0  0  0  0
    5.5141    1.0173    0.0000 C   0  0  0  0  0  0  0  0  0  0  0  0
    3.7702   -2.0589    0.0000 C   0  0  0  0  0  0  0  0  0  0  0  0
    7.3062   -0.0174    0.0000 C   0  0  0  0  0  0  0  0  0  0  0  0
    2.8641   -1.5450    0.0000 C   0  0  0  0  0  0  0  0  0  0  0  0
    2.8641   -0.5034    0.0000 C   0  0  0  0  0  0  0  0  0  0  0  0
    6.4121    1.5450    0.0000 C   0  0  0  0  0  0  0  0  0  0  0  0
    7.3142    1.0242    0.0000 C   0  0  0  0  0  0  0  0  0  0  0  0
    2.0038   -3.0484    0.0000 C   0  0  0  0  0  0  0  0  0  0  0  0
    7.2723    3.0484    0.0000 C   0  0  0  0  0  0  0  0  0  0  0  0
    5.5301   -2.6442    0.0000 H   0  0  0  0  0  0  0  0  0  0  0  0
    6.9331   -1.8342    0.0000 H   0  0  0  0  0  0  0  0  0  0  0  0
    4.9736    1.3210    0.0000 H   0  0  0  0  0  0  0  0  0  0  0  0
    3.7773   -2.6788    0.0000 H   0  0  0  0  0  0  0  0  0  0  0  0
    7.8395   -0.3336    0.0000 H   0  0  0  0  0  0  0  0  0  0  0  0
    2.3284   -0.1913    0.0000 H   0  0  0  0  0  0  0  0  0  0  0  0
    7.8523    1.3322    0.0000 H   0  0  0  0  0  0  0  0  0  0  0  0
    3.2484    1.3266    0.0000 H   0  0  0  0  0  0  0  0  0  0  0  0
    1.3839   -3.0508    0.0000 H   0  0  0  0  0  0  0  0  0  0  0  0
    2.0062   -3.6684    0.0000 H   0  0  0  0  0  0  0  0  0  0  0  0
    2.6238   -3.0460    0.0000 H   0  0  0  0  0  0  0  0  0  0  0  0
    7.5844    2.5126    0.0000 H   0  0  0  0  0  0  0  0  0  0  0  0
    7.8081    3.3604    0.0000 H   0  0  0  0  0  0  0  0  0  0  0  0
    6.9603    3.5841    0.0000 H   0  0  0  0  0  0  0  0  0  0  0  0
  1  8  1  0  0  0  0
  1 27  1  0  0  0  0
  2 14  1  0  0  0  0
  2 18  1  0  0  0  0
  3 16  1  0  0  0  0
  3 19  1  0  0  0  0
  4  5  1  0  0  0  0
  4  6  1  0  0  0  0
  4  8  2  0  0  0  0
  5  7  2  0  0  0  0
  5 11  1  0  0  0  0
  6  9  1  0  0  0  0
  6 12  2  0  0  0  0
  7 10  1  0  0  0  0
  7 13  1  0  0  0  0
  8 15  1  0  0  0  0
  9 10  2  0  0  0  0
  9 20  1  0  0  0  0
 10 21  1  0  0  0  0
 11 16  2  0  0  0  0
 11 22  1  0  0  0  0
 12 14  1  0  0  0  0
 12 23  1  0  0  0  0
 13 17  2  0  0  0  0
 13 24  1  0  0  0  0
 14 15  2  0  0  0  0
 15 25  1  0  0  0  0
 16 17  1  0  0  0  0
 17 26  1  0  0  0  0
 18 28  1  0  0  0  0
 18 29  1  0  0  0  0
 18 30  1  0  0  0  0
 19 31  1  0  0  0  0
 19 32  1  0  0  0  0
 19 33  1  0  0  0  0
M  END
>  <PUBCHEM_COMPOUND_CID>
71438453

>  <PUBCHEM_COMPOUND_CANONICALIZED>
1

>  <PUBCHEM_CACTVS_COMPLEXITY>
306

>  <PUBCHEM_CACTVS_HBOND_ACCEPTOR>
3

>  <PUBCHEM_CACTVS_HBOND_DONOR>
1

>  <PUBCHEM_CACTVS_ROTATABLE_BOND>
2

>  <PUBCHEM_CACTVS_SUBSKEYS>
AAADccB4MAAAAAAAAAAAAAAAAAAAAAAAAAAwYMAAAAAAAADBVAAAGgAACAAADASAmAIyBsAABgCAAiBCAAACCAAgIAAIiAAGCIgMJyKGMRqAcCAlwBUIuAeA4PwO4AADCAAYAADAAAYQADAAAAAAAAAAAA==

>  <PUBCHEM_IUPAC_OPENEYE_NAME>
2,6-dimethoxyphenanthren-4-ol

>  <PUBCHEM_IUPAC_CAS_NAME>
2,6-dimethoxy-4-phenanthrenol

>  <PUBCHEM_IUPAC_NAME>
2,6-dimethoxyphenanthren-4-ol

>  <PUBCHEM_IUPAC_SYSTEMATIC_NAME>
2,6-dimethoxyphenanthren-4-ol

>  <PUBCHEM_IUPAC_TRADITIONAL_NAME>
2,6-dimethoxyphenanthren-4-ol

>  <PUBCHEM_IUPAC_INCHI>
InChI=1S/C16H14O3/c1-18-12-6-5-10-3-4-11-7-13(19-2)9-15(17)16(11)14(10)8-12/h3-9,17H,1-2H3

>  <PUBCHEM_IUPAC_INCHIKEY>
NTVJURNVFOEVHP-UHFFFAOYSA-N

>  <PUBCHEM_XLOGP3_AA>
4

>  <PUBCHEM_EXACT_MASS>
254.094

>  <PUBCHEM_MOLECULAR_FORMULA>
C16H14O3

>  <PUBCHEM_MOLECULAR_WEIGHT>
254.285

>  <PUBCHEM_OPENEYE_CAN_SMILES>
COC1=CC2=C(C=CC3=CC(=CC(=C32)O)OC)C=C1

>  <PUBCHEM_OPENEYE_ISO_SMILES>
COC1=CC2=C(C=CC3=CC(=CC(=C32)O)OC)C=C1

>  <PUBCHEM_CACTVS_TPSA>
38.7

>  <PUBCHEM_MONOISOTOPIC_WEIGHT>
254.094

>  <PUBCHEM_TOTAL_CHARGE>
0

>  <PUBCHEM_HEAVY_ATOM_COUNT>
19

>  <PUBCHEM_ATOM_DEF_STEREO_COUNT>
0

>  <PUBCHEM_ATOM_UDEF_STEREO_COUNT>
0

>  <PUBCHEM_BOND_DEF_STEREO_COUNT>
0

>  <PUBCHEM_BOND_UDEF_STEREO_COUNT>
0

>  <PUBCHEM_ISOTOPIC_ATOM_COUNT>
0

>  <PUBCHEM_COMPONENT_COUNT>
1

>  <PUBCHEM_CACTVS_TAUTO_COUNT>
2

>  <PUBCHEM_COORDINATE_TYPE>
1
5
255

>  <PUBCHEM_BONDANNOTATIONS>
11  16  8
12  14  8
13  17  8
14  15  8
16  17  8
4  5  8
4  6  8
4  8  8
5  11  8
5  7  8
6  12  8
6  9  8
7  10  8
7  13  8
8  15  8
9  10  8

$$$$
