71437595
 OpenBabel06101807152D

 62 66  0  0  0  0  0  0  0  0999 V2000
    6.3496   -3.0605    0.0000 O   0  0  0  0  0  0  0  0  0  0  0  0
    9.9428    1.0365    0.0000 O   0  0  0  0  0  0  0  0  0  0  0  0
    6.3739    1.0937    0.0000 O   0  0  0  0  0  0  0  0  0  0  0  0
    4.5879   -1.9514    0.0000 O   0  0  0  0  0  0  0  0  0  0  0  0
    8.9720   -0.4063    0.0000 O   0  0  0  0  0  0  0  0  0  0  0  0
    8.1180    4.1630    0.0000 O   0  0  0  0  0  0  0  0  0  0  0  0
    7.2399   -0.4063    0.0000 C   0  0  0  0  0  0  0  0  0  0  0  0
    7.2892   -3.6030    0.0000 C   0  0  0  0  0  0  0  0  0  0  0  0
    7.2560   -1.4478    0.0000 C   0  0  0  0  0  0  0  0  0  0  0  0
    6.3739    0.0937    0.0000 C   0  0  0  0  0  0  0  0  0  0  0  0
    6.3579   -1.9755    0.0000 C   0  0  0  0  0  0  0  0  0  0  0  0
    8.1059    1.0937    0.0000 C   0  0  0  0  0  0  0  0  0  0  0  0
   10.8906    1.5644    0.0000 C   0  0  0  0  0  0  0  0  0  0  0  0
    5.4639   -0.4131    0.0000 C   0  0  0  0  0  0  0  0  0  0  0  0
    9.0159    1.6006    0.0000 C   0  0  0  0  0  0  0  0  0  0  0  0
    8.1059    0.0937    0.0000 C   0  0  0  0  0  0  0  0  0  0  0  0
    7.2399    1.5937    0.0000 C   0  0  0  0  0  0  0  0  0  0  0  0
    5.4558   -1.4547    0.0000 C   0  0  0  0  0  0  0  0  0  0  0  0
    9.0239    2.6422    0.0000 C   0  0  0  0  0  0  0  0  0  0  0  0
    8.2246   -3.0532    0.0000 C   0  0  0  0  0  0  0  0  0  0  0  0
    8.2079   -1.9684    0.0000 C   0  0  0  0  0  0  0  0  0  0  0  0
    4.6037    0.0969    0.0000 C   0  0  0  0  0  0  0  0  0  0  0  0
   10.8990    2.6494    0.0000 C   0  0  0  0  0  0  0  0  0  0  0  0
    7.7925   -4.4671    0.0000 C   0  0  0  0  0  0  0  0  0  0  0  0
    6.7925   -4.4709    0.0000 C   0  0  0  0  0  0  0  0  0  0  0  0
    9.9594    3.1919    0.0000 C   0  0  0  0  0  0  0  0  0  0  0  0
    7.2238    2.6352    0.0000 C   0  0  0  0  0  0  0  0  0  0  0  0
    8.1219    3.1630    0.0000 C   0  0  0  0  0  0  0  0  0  0  0  0
   11.8906    1.5529    0.0000 C   0  0  0  0  0  0  0  0  0  0  0  0
   11.3806    0.6927    0.0000 C   0  0  0  0  0  0  0  0  0  0  0  0
    3.7319   -0.3931    0.0000 C   0  0  0  0  0  0  0  0  0  0  0  0
    2.8718    0.1169    0.0000 C   0  0  0  0  0  0  0  0  0  0  0  0
    2.0000   -0.3730    0.0000 C   0  0  0  0  0  0  0  0  0  0  0  0
    2.8833    1.1168    0.0000 C   0  0  0  0  0  0  0  0  0  0  0  0
    8.7651   -3.3570    0.0000 H   0  0  0  0  0  0  0  0  0  0  0  0
    8.7387   -1.6481    0.0000 H   0  0  0  0  0  0  0  0  0  0  0  0
    5.0077    0.5672    0.0000 H   0  0  0  0  0  0  0  0  0  0  0  0
    4.2107    0.5764    0.0000 H   0  0  0  0  0  0  0  0  0  0  0  0
   11.4371    2.9573    0.0000 H   0  0  0  0  0  0  0  0  0  0  0  0
    6.2544   -4.1630    0.0000 H   0  0  0  0  0  0  0  0  0  0  0  0
    7.2568   -4.7791    0.0000 H   0  0  0  0  0  0  0  0  0  0  0  0
    8.1046   -5.0028    0.0000 H   0  0  0  0  0  0  0  0  0  0  0  0
    8.3283   -4.1550    0.0000 H   0  0  0  0  0  0  0  0  0  0  0  0
    6.4846   -5.0090    0.0000 H   0  0  0  0  0  0  0  0  0  0  0  0
    7.3307   -4.7788    0.0000 H   0  0  0  0  0  0  0  0  0  0  0  0
    9.9570    3.8119    0.0000 H   0  0  0  0  0  0  0  0  0  0  0  0
    6.6834    2.9390    0.0000 H   0  0  0  0  0  0  0  0  0  0  0  0
   11.8834    0.9329    0.0000 H   0  0  0  0  0  0  0  0  0  0  0  0
   12.5105    1.5457    0.0000 H   0  0  0  0  0  0  0  0  0  0  0  0
   11.8977    2.1728    0.0000 H   0  0  0  0  0  0  0  0  0  0  0  0
   10.8401    0.3889    0.0000 H   0  0  0  0  0  0  0  0  0  0  0  0
   11.6844    0.1522    0.0000 H   0  0  0  0  0  0  0  0  0  0  0  0
   11.9211    0.9965    0.0000 H   0  0  0  0  0  0  0  0  0  0  0  0
    3.7248   -1.0130    0.0000 H   0  0  0  0  0  0  0  0  0  0  0  0
    4.5855   -2.5714    0.0000 H   0  0  0  0  0  0  0  0  0  0  0  0
    7.5799    4.4709    0.0000 H   0  0  0  0  0  0  0  0  0  0  0  0
    1.6962    0.1674    0.0000 H   0  0  0  0  0  0  0  0  0  0  0  0
    3.5033    1.1097    0.0000 H   0  0  0  0  0  0  0  0  0  0  0  0
    2.8905    1.7368    0.0000 H   0  0  0  0  0  0  0  0  0  0  0  0
    2.2634    1.1240    0.0000 H   0  0  0  0  0  0  0  0  0  0  0  0
    1.4595   -0.6768    0.0000 H   0  0  0  0  0  0  0  0  0  0  0  0
    2.3038   -0.9135    0.0000 H   0  0  0  0  0  0  0  0  0  0  0  0
  1  8  1  0  0  0  0
  1 11  1  0  0  0  0
  2 13  1  0  0  0  0
  2 15  1  0  0  0  0
  3 10  1  0  0  0  0
  3 17  1  0  0  0  0
  4 18  1  0  0  0  0
  4 55  1  0  0  0  0
  5 16  2  0  0  0  0
  6 28  1  0  0  0  0
  6 56  1  0  0  0  0
  7  9  2  0  0  0  0
  7 10  1  0  0  0  0
  7 16  1  0  0  0  0
  8 20  1  0  0  0  0
  8 24  1  0  0  0  0
  8 25  1  0  0  0  0
  9 11  1  0  0  0  0
  9 21  1  0  0  0  0
 10 14  2  0  0  0  0
 11 18  2  0  0  0  0
 12 15  1  0  0  0  0
 12 16  1  0  0  0  0
 12 17  2  0  0  0  0
 13 23  1  0  0  0  0
 13 29  1  0  0  0  0
 13 30  1  0  0  0  0
 14 18  1  0  0  0  0
 14 22  1  0  0  0  0
 15 19  2  0  0  0  0
 17 27  1  0  0  0  0
 19 26  1  0  0  0  0
 19 28  1  0  0  0  0
 20 21  2  0  0  0  0
 20 35  1  0  0  0  0
 21 36  1  0  0  0  0
 22 31  1  0  0  0  0
 22 37  1  0  0  0  0
 22 38  1  0  0  0  0
 23 26  2  0  0  0  0
 23 39  1  0  0  0  0
 24 41  1  0  0  0  0
 24 42  1  0  0  0  0
 24 43  1  0  0  0  0
 25 40  1  0  0  0  0
 25 44  1  0  0  0  0
 25 45  1  0  0  0  0
 26 46  1  0  0  0  0
 27 28  2  0  0  0  0
 27 47  1  0  0  0  0
 29 48  1  0  0  0  0
 29 49  1  0  0  0  0
 29 50  1  0  0  0  0
 30 51  1  0  0  0  0
 30 52  1  0  0  0  0
 30 53  1  0  0  0  0
 31 32  2  0  0  0  0
 31 54  1  0  0  0  0
 32 33  1  0  0  0  0
 32 34  1  0  0  0  0
 33 57  1  0  0  0  0
 33 61  1  0  0  0  0
 33 62  1  0  0  0  0
 34 58  1  0  0  0  0
 34 59  1  0  0  0  0
 34 60  1  0  0  0  0
M  END
>  <PUBCHEM_COMPOUND_CID>
71437595

>  <PUBCHEM_COMPOUND_CANONICALIZED>
1

>  <PUBCHEM_CACTVS_COMPLEXITY>
912

>  <PUBCHEM_CACTVS_HBOND_ACCEPTOR>
6

>  <PUBCHEM_CACTVS_HBOND_DONOR>
2

>  <PUBCHEM_CACTVS_ROTATABLE_BOND>
2

>  <PUBCHEM_CACTVS_SUBSKEYS>
AAADceB4OAAAAAAAAAAAAAAAAAAAAAAAAAA0YIECAAAAAACRQAAAGgAACAAADESAmAAyBoAABgCIAqBSAAACCAAkIAAIiAEGiMgNJzaGNRqCeWOl4BULuQfK7PzO4QADCAAYQADCAAYQADCAAAAAAAAAAA==

>  <PUBCHEM_IUPAC_INCHI>
InChI=1S/C28H28O6/c1-14(2)7-8-17-22(30)26-16(10-12-28(5,6)34-26)20-23(31)21-19(32-24(17)20)13-18(29)15-9-11-27(3,4)33-25(15)21/h7,9-13,29-30H,8H2,1-6H3

>  <PUBCHEM_IUPAC_INCHIKEY>
SXEDVIARGLQKDJ-UHFFFAOYSA-N

>  <PUBCHEM_XLOGP3_AA>
6

>  <PUBCHEM_EXACT_MASS>
460.189

>  <PUBCHEM_MOLECULAR_FORMULA>
C28H28O6

>  <PUBCHEM_MOLECULAR_WEIGHT>
460.526

>  <PUBCHEM_OPENEYE_CAN_SMILES>
CC(=CCC1=C2C(=C3C=CC(OC3=C1O)(C)C)C(=O)C4=C5C(=C(C=C4O2)O)C=CC(O5)(C)C)C

>  <PUBCHEM_OPENEYE_ISO_SMILES>
CC(=CCC1=C2C(=C3C=CC(OC3=C1O)(C)C)C(=O)C4=C5C(=C(C=C4O2)O)C=CC(O5)(C)C)C

>  <PUBCHEM_CACTVS_TPSA>
85.2

>  <PUBCHEM_MONOISOTOPIC_WEIGHT>
460.189

>  <PUBCHEM_TOTAL_CHARGE>
0

>  <PUBCHEM_HEAVY_ATOM_COUNT>
34

>  <PUBCHEM_ATOM_DEF_STEREO_COUNT>
0

>  <PUBCHEM_ATOM_UDEF_STEREO_COUNT>
0

>  <PUBCHEM_BOND_DEF_STEREO_COUNT>
0

>  <PUBCHEM_BOND_UDEF_STEREO_COUNT>
0

>  <PUBCHEM_ISOTOPIC_ATOM_COUNT>
0

>  <PUBCHEM_COMPONENT_COUNT>
1

>  <PUBCHEM_CACTVS_TAUTO_COUNT>
23

>  <PUBCHEM_COORDINATE_TYPE>
1
5
255

>  <PUBCHEM_BONDANNOTATIONS>
10  14  8
11  18  8
12  15  8
12  16  8
12  17  8
14  18  8
15  19  8
17  27  8
19  28  8
27  28  8
3  10  8
3  17  8
7  10  8
7  16  8
7  9  8
9  11  8

$$$$
