7144
 OpenBabel06101807152D

 20 20  0  0  0  0  0  0  0  0999 V2000
    4.2690    1.2500    0.0000 O   0  0  0  0  0  0  0  0  0  0  0  0
    2.5369    0.2500    0.0000 O   0  0  0  0  0  0  0  0  0  0  0  0
    5.1350   -1.2500    0.0000 C   0  0  0  0  0  0  0  0  0  0  0  0
    4.2690    0.2500    0.0000 C   0  0  0  0  0  0  0  0  0  0  0  0
    5.1350   -0.2500    0.0000 C   0  0  0  0  0  0  0  0  0  0  0  0
    4.2690   -1.7500    0.0000 C   0  0  0  0  0  0  0  0  0  0  0  0
    3.4030   -0.2500    0.0000 C   0  0  0  0  0  0  0  0  0  0  0  0
    3.4030   -1.2500    0.0000 C   0  0  0  0  0  0  0  0  0  0  0  0
    6.0010   -1.7500    0.0000 C   0  0  0  0  0  0  0  0  0  0  0  0
    5.1350    1.7500    0.0000 C   0  0  0  0  0  0  0  0  0  0  0  0
    5.6720    0.0600    0.0000 H   0  0  0  0  0  0  0  0  0  0  0  0
    4.2690   -2.3700    0.0000 H   0  0  0  0  0  0  0  0  0  0  0  0
    2.8660   -1.5600    0.0000 H   0  0  0  0  0  0  0  0  0  0  0  0
    5.6910   -2.2869    0.0000 H   0  0  0  0  0  0  0  0  0  0  0  0
    6.5380   -2.0600    0.0000 H   0  0  0  0  0  0  0  0  0  0  0  0
    6.3110   -1.2131    0.0000 H   0  0  0  0  0  0  0  0  0  0  0  0
    5.4450    1.2131    0.0000 H   0  0  0  0  0  0  0  0  0  0  0  0
    5.6720    2.0600    0.0000 H   0  0  0  0  0  0  0  0  0  0  0  0
    4.8250    2.2869    0.0000 H   0  0  0  0  0  0  0  0  0  0  0  0
    2.0000   -0.0600    0.0000 H   0  0  0  0  0  0  0  0  0  0  0  0
  1  4  1  0  0  0  0
  1 10  1  0  0  0  0
  2  7  1  0  0  0  0
  2 20  1  0  0  0  0
  3  5  2  0  0  0  0
  3  6  1  0  0  0  0
  3  9  1  0  0  0  0
  4  5  1  0  0  0  0
  4  7  2  0  0  0  0
  5 11  1  0  0  0  0
  6  8  2  0  0  0  0
  6 12  1  0  0  0  0
  7  8  1  0  0  0  0
  8 13  1  0  0  0  0
  9 14  1  0  0  0  0
  9 15  1  0  0  0  0
  9 16  1  0  0  0  0
 10 17  1  0  0  0  0
 10 18  1  0  0  0  0
 10 19  1  0  0  0  0
M  END
>  <PUBCHEM_COMPOUND_CID>
7144

>  <PUBCHEM_COMPOUND_CANONICALIZED>
1

>  <PUBCHEM_CACTVS_COMPLEXITY>
103

>  <PUBCHEM_CACTVS_HBOND_ACCEPTOR>
2

>  <PUBCHEM_CACTVS_HBOND_DONOR>
1

>  <PUBCHEM_CACTVS_ROTATABLE_BOND>
1

>  <PUBCHEM_CACTVS_SUBSKEYS>
AAADccBwMAAAAAAAAAAAAAAAAAAAAAAAAAAwAAAAAAAAAAABAAAAGgAACAAADASAmAIyBoAABgCAAiBCAAACCAAgIAAIiAAGiIgNJiKGMRqAcCMkwBELuAeAwBAOIAABAAAAQABAAAIAAACAAAAAAAAAAA==

>  <PUBCHEM_IUPAC_OPENEYE_NAME>
2-methoxy-4-methyl-phenol

>  <PUBCHEM_IUPAC_CAS_NAME>
2-methoxy-4-methylphenol

>  <PUBCHEM_IUPAC_NAME>
2-methoxy-4-methylphenol

>  <PUBCHEM_IUPAC_SYSTEMATIC_NAME>
2-methoxy-4-methyl-phenol

>  <PUBCHEM_IUPAC_TRADITIONAL_NAME>
2-methoxy-4-methyl-phenol

>  <PUBCHEM_IUPAC_INCHI>
InChI=1S/C8H10O2/c1-6-3-4-7(9)8(5-6)10-2/h3-5,9H,1-2H3

>  <PUBCHEM_IUPAC_INCHIKEY>
PETRWTHZSKVLRE-UHFFFAOYSA-N

>  <PUBCHEM_XLOGP3>
1.3

>  <PUBCHEM_EXACT_MASS>
138.068

>  <PUBCHEM_MOLECULAR_FORMULA>
C8H10O2

>  <PUBCHEM_MOLECULAR_WEIGHT>
138.166

>  <PUBCHEM_OPENEYE_CAN_SMILES>
CC1=CC(=C(C=C1)O)OC

>  <PUBCHEM_OPENEYE_ISO_SMILES>
CC1=CC(=C(C=C1)O)OC

>  <PUBCHEM_CACTVS_TPSA>
29.5

>  <PUBCHEM_MONOISOTOPIC_WEIGHT>
138.068

>  <PUBCHEM_TOTAL_CHARGE>
0

>  <PUBCHEM_HEAVY_ATOM_COUNT>
10

>  <PUBCHEM_ATOM_DEF_STEREO_COUNT>
0

>  <PUBCHEM_ATOM_UDEF_STEREO_COUNT>
0

>  <PUBCHEM_BOND_DEF_STEREO_COUNT>
0

>  <PUBCHEM_BOND_UDEF_STEREO_COUNT>
0

>  <PUBCHEM_ISOTOPIC_ATOM_COUNT>
0

>  <PUBCHEM_COMPONENT_COUNT>
1

>  <PUBCHEM_CACTVS_TAUTO_COUNT>
3

>  <PUBCHEM_COORDINATE_TYPE>
1
5
255

>  <PUBCHEM_BONDANNOTATIONS>
3  5  8
3  6  8
4  5  8
4  7  8
6  8  8
7  8  8

$$$$
