71444825
 OpenBabel06101807152D

 40 40  0  0  1  0  0  0  0  0999 V2000
    2.5369   -2.7500    0.0000 O   0  0  0  0  0  0  0  0  0  0  0  0
    4.2690   -0.7500    0.0000 C   0  0  3  0  0  0  0  0  0  0  0  0
    4.2690    0.2500    0.0000 C   0  0  3  0  0  0  0  0  0  0  0  0
    3.4030   -1.2500    0.0000 C   0  0  0  0  0  0  0  0  0  0  0  0
    5.1350    0.7500    0.0000 C   0  0  0  0  0  0  0  0  0  0  0  0
    3.4030   -2.2500    0.0000 C   0  0  3  0  0  0  0  0  0  0  0  0
    5.1350   -1.2500    0.0000 C   0  0  0  0  0  0  0  0  0  0  0  0
    3.4030    0.7500    0.0000 C   0  0  0  0  0  0  0  0  0  0  0  0
    5.1350    1.7500    0.0000 C   0  0  0  0  0  0  0  0  0  0  0  0
    4.2690   -2.7500    0.0000 C   0  0  0  0  0  0  0  0  0  0  0  0
    5.1350   -2.2500    0.0000 C   0  0  0  0  0  0  0  0  0  0  0  0
    6.0010    2.2500    0.0000 C   0  0  0  0  0  0  0  0  0  0  0  0
    4.2690   -3.7500    0.0000 C   0  0  0  0  0  0  0  0  0  0  0  0
    6.0010    3.2500    0.0000 C   0  0  0  0  0  0  0  0  0  0  0  0
    6.8671    3.7500    0.0000 C   0  0  0  0  0  0  0  0  0  0  0  0
    5.1350    3.7500    0.0000 C   0  0  0  0  0  0  0  0  0  0  0  0
    4.8059   -0.4400    0.0000 H   0  0  0  0  0  0  0  0  0  0  0  0
    4.2690    0.8700    0.0000 H   0  0  0  0  0  0  0  0  0  0  0  0
    3.1909   -0.6674    0.0000 H   0  0  0  0  0  0  0  0  0  0  0  0
    2.7924   -1.3577    0.0000 H   0  0  0  0  0  0  0  0  0  0  0  0
    5.3471    0.1674    0.0000 H   0  0  0  0  0  0  0  0  0  0  0  0
    5.7456    0.8577    0.0000 H   0  0  0  0  0  0  0  0  0  0  0  0
    3.4030   -2.8700    0.0000 H   0  0  0  0  0  0  0  0  0  0  0  0
    5.6720   -0.9400    0.0000 H   0  0  0  0  0  0  0  0  0  0  0  0
    3.7130    1.2869    0.0000 H   0  0  0  0  0  0  0  0  0  0  0  0
    2.8660    1.0600    0.0000 H   0  0  0  0  0  0  0  0  0  0  0  0
    3.0930    0.2131    0.0000 H   0  0  0  0  0  0  0  0  0  0  0  0
    4.9230    2.3326    0.0000 H   0  0  0  0  0  0  0  0  0  0  0  0
    4.5244    1.6423    0.0000 H   0  0  0  0  0  0  0  0  0  0  0  0
    5.6720   -2.5600    0.0000 H   0  0  0  0  0  0  0  0  0  0  0  0
    6.5380    1.9400    0.0000 H   0  0  0  0  0  0  0  0  0  0  0  0
    2.0000   -2.4400    0.0000 H   0  0  0  0  0  0  0  0  0  0  0  0
    3.7320   -4.0600    0.0000 H   0  0  0  0  0  0  0  0  0  0  0  0
    4.8059   -4.0600    0.0000 H   0  0  0  0  0  0  0  0  0  0  0  0
    7.1771    3.2131    0.0000 H   0  0  0  0  0  0  0  0  0  0  0  0
    7.4040    4.0600    0.0000 H   0  0  0  0  0  0  0  0  0  0  0  0
    6.5571    4.2869    0.0000 H   0  0  0  0  0  0  0  0  0  0  0  0
    5.4450    4.2869    0.0000 H   0  0  0  0  0  0  0  0  0  0  0  0
    4.5981    4.0600    0.0000 H   0  0  0  0  0  0  0  0  0  0  0  0
    4.8250    3.2131    0.0000 H   0  0  0  0  0  0  0  0  0  0  0  0
  1  6  1  0  0  0  0
  1 32  1  0  0  0  0
  2  3  1  0  0  0  0
  2  4  1  0  0  0  0
  2  7  1  0  0  0  0
  2 17  1  0  0  0  0
  3  5  1  0  0  0  0
  3  8  1  0  0  0  0
  3 18  1  0  0  0  0
  4  6  1  0  0  0  0
  4 19  1  0  0  0  0
  4 20  1  0  0  0  0
  5  9  1  0  0  0  0
  5 21  1  0  0  0  0
  5 22  1  0  0  0  0
  6 10  1  0  0  0  0
  6 23  1  0  0  0  0
  7 11  2  0  0  0  0
  7 24  1  0  0  0  0
  8 25  1  0  0  0  0
  8 26  1  0  0  0  0
  8 27  1  0  0  0  0
  9 12  1  0  0  0  0
  9 28  1  0  0  0  0
  9 29  1  0  0  0  0
 10 11  1  0  0  0  0
 10 13  2  0  0  0  0
 11 30  1  0  0  0  0
 12 14  2  0  0  0  0
 12 31  1  0  0  0  0
 13 33  1  0  0  0  0
 13 34  1  0  0  0  0
 14 15  1  0  0  0  0
 14 16  1  0  0  0  0
 15 35  1  0  0  0  0
 15 36  1  0  0  0  0
 15 37  1  0  0  0  0
 16 38  1  0  0  0  0
 16 39  1  0  0  0  0
 16 40  1  0  0  0  0
M  END
>  <PUBCHEM_COMPOUND_CID>
71444825

>  <PUBCHEM_COMPOUND_CANONICALIZED>
1

>  <PUBCHEM_CACTVS_COMPLEXITY>
295

>  <PUBCHEM_CACTVS_HBOND_ACCEPTOR>
1

>  <PUBCHEM_CACTVS_HBOND_DONOR>
1

>  <PUBCHEM_CACTVS_ROTATABLE_BOND>
4

>  <PUBCHEM_CACTVS_SUBSKEYS>
AAADceBwIAAAAAAAAAAAAAAAAAAAAAAAAAAgAAAAAAAAAAAAAAAAGgAACAAADRSggAICAAAAAgCAAiBCAAAAAAAgAAAICAAAAAgIFAIAAQAAQAAEwAAIkAOAwOAOgAAAAAAAAAAAAAAAAAAAAAAAAAAAAA==

>  <PUBCHEM_IUPAC_OPENEYE_NAME>
5-(1,5-dimethylhex-4-enyl)-2-methylene-cyclohex-3-en-1-ol

>  <PUBCHEM_IUPAC_CAS_NAME>
2-methylene-5-(6-methylhept-5-en-2-yl)-1-cyclohex-3-enol

>  <PUBCHEM_IUPAC_NAME>
5-(6-methylhept-5-en-2-yl)-2-methylidenecyclohex-3-en-1-ol

>  <PUBCHEM_IUPAC_SYSTEMATIC_NAME>
5-(6-methylhept-5-en-2-yl)-2-methylidene-cyclohex-3-en-1-ol

>  <PUBCHEM_IUPAC_TRADITIONAL_NAME>
5-(1,5-dimethylhex-4-enyl)-2-methylene-cyclohex-3-en-1-ol

>  <PUBCHEM_IUPAC_INCHI>
InChI=1S/C15H24O/c1-11(2)6-5-7-12(3)14-9-8-13(4)15(16)10-14/h6,8-9,12,14-16H,4-5,7,10H2,1-3H3

>  <PUBCHEM_IUPAC_INCHIKEY>
UNSGLJWOHGSVLW-UHFFFAOYSA-N

>  <PUBCHEM_XLOGP3_AA>
4.1

>  <PUBCHEM_EXACT_MASS>
220.183

>  <PUBCHEM_MOLECULAR_FORMULA>
C15H24O

>  <PUBCHEM_MOLECULAR_WEIGHT>
220.356

>  <PUBCHEM_OPENEYE_CAN_SMILES>
CC(CCC=C(C)C)C1CC(C(=C)C=C1)O

>  <PUBCHEM_OPENEYE_ISO_SMILES>
CC(CCC=C(C)C)C1CC(C(=C)C=C1)O

>  <PUBCHEM_CACTVS_TPSA>
20.2

>  <PUBCHEM_MONOISOTOPIC_WEIGHT>
220.183

>  <PUBCHEM_TOTAL_CHARGE>
0

>  <PUBCHEM_HEAVY_ATOM_COUNT>
16

>  <PUBCHEM_ATOM_DEF_STEREO_COUNT>
0

>  <PUBCHEM_ATOM_UDEF_STEREO_COUNT>
3

>  <PUBCHEM_BOND_DEF_STEREO_COUNT>
0

>  <PUBCHEM_BOND_UDEF_STEREO_COUNT>
0

>  <PUBCHEM_ISOTOPIC_ATOM_COUNT>
0

>  <PUBCHEM_COMPONENT_COUNT>
1

>  <PUBCHEM_CACTVS_TAUTO_COUNT>
1

>  <PUBCHEM_COORDINATE_TYPE>
1
5
255

>  <PUBCHEM_BONDANNOTATIONS>
6  1  3
2  4  3
3  8  3

$$$$
