71448967
 OpenBabel06101807152D

 82 85  0  0  0  0  0  0  0  0999 V2000
    5.1350    3.4050    0.0000 O   0  0  0  0  0  0  0  0  0  0  0  0
    3.4030    2.4050    0.0000 O   0  0  0  0  0  0  0  0  0  0  0  0
    6.8671    2.4050    0.0000 O   0  0  0  0  0  0  0  0  0  0  0  0
   12.9292    1.9050    0.0000 O   0  0  0  0  0  0  0  0  0  0  0  0
    7.7331   -8.0950    0.0000 O   0  0  0  0  0  0  0  0  0  0  0  0
    4.2690    7.9050    0.0000 O   0  0  0  0  0  0  0  0  0  0  0  0
    5.1350   -2.5950    0.0000 O   0  0  0  0  0  0  0  0  0  0  0  0
    2.5369    6.9050    0.0000 O   0  0  0  0  0  0  0  0  0  0  0  0
    7.7331    3.9050    0.0000 N   0  0  0  0  0  0  0  0  0  0  0  0
    6.8671   -2.5950    0.0000 N   0  0  0  0  0  0  0  0  0  0  0  0
    9.4651    3.9050    0.0000 C   0  0  0  0  0  0  0  0  0  0  0  0
    8.5991    3.4050    0.0000 C   0  0  0  0  0  0  0  0  0  0  0  0
   10.3312    3.4050    0.0000 C   0  0  0  0  0  0  0  0  0  0  0  0
    7.7331   -4.0950    0.0000 C   0  0  0  0  0  0  0  0  0  0  0  0
    6.8671   -3.5950    0.0000 C   0  0  0  0  0  0  0  0  0  0  0  0
    7.7331   -5.0950    0.0000 C   0  0  0  0  0  0  0  0  0  0  0  0
   10.3312    2.4050    0.0000 C   0  0  0  0  0  0  0  0  0  0  0  0
   11.1972    3.9050    0.0000 C   0  0  0  0  0  0  0  0  0  0  0  0
    6.8671    3.4050    0.0000 C   0  0  0  0  0  0  0  0  0  0  0  0
    6.0010    3.9050    0.0000 C   0  0  0  0  0  0  0  0  0  0  0  0
    6.8671   -5.5950    0.0000 C   0  0  0  0  0  0  0  0  0  0  0  0
    8.5991   -5.5950    0.0000 C   0  0  0  0  0  0  0  0  0  0  0  0
    5.1350    2.4050    0.0000 C   0  0  0  0  0  0  0  0  0  0  0  0
    5.1350    0.4050    0.0000 C   0  0  0  0  0  0  0  0  0  0  0  0
   11.1972    1.9050    0.0000 C   0  0  0  0  0  0  0  0  0  0  0  0
   12.0632    3.4050    0.0000 C   0  0  0  0  0  0  0  0  0  0  0  0
    6.0010    4.9050    0.0000 C   0  0  0  0  0  0  0  0  0  0  0  0
    4.2690    1.9050    0.0000 C   0  0  0  0  0  0  0  0  0  0  0  0
    5.1350    5.4050    0.0000 C   0  0  0  0  0  0  0  0  0  0  0  0
   12.0632    2.4050    0.0000 C   0  0  0  0  0  0  0  0  0  0  0  0
    4.2690    0.9050    0.0000 C   0  0  0  0  0  0  0  0  0  0  0  0
    6.0010    1.9050    0.0000 C   0  0  0  0  0  0  0  0  0  0  0  0
    6.8671   -6.5950    0.0000 C   0  0  0  0  0  0  0  0  0  0  0  0
    8.5991   -6.5950    0.0000 C   0  0  0  0  0  0  0  0  0  0  0  0
    6.0010    0.9050    0.0000 C   0  0  0  0  0  0  0  0  0  0  0  0
    6.0010   -2.0950    0.0000 C   0  0  0  0  0  0  0  0  0  0  0  0
    7.7331   -7.0950    0.0000 C   0  0  0  0  0  0  0  0  0  0  0  0
    5.1350   -0.5950    0.0000 C   0  0  0  0  0  0  0  0  0  0  0  0
    6.0010   -1.0950    0.0000 C   0  0  0  0  0  0  0  0  0  0  0  0
    5.1350    6.4050    0.0000 C   0  0  0  0  0  0  0  0  0  0  0  0
    4.2690    4.9050    0.0000 C   0  0  0  0  0  0  0  0  0  0  0  0
    4.2690    6.9050    0.0000 C   0  0  0  0  0  0  0  0  0  0  0  0
    3.4030    5.4050    0.0000 C   0  0  0  0  0  0  0  0  0  0  0  0
    3.4030    6.4050    0.0000 C   0  0  0  0  0  0  0  0  0  0  0  0
    2.5369    1.9050    0.0000 C   0  0  0  0  0  0  0  0  0  0  0  0
    5.1350    8.4050    0.0000 C   0  0  0  0  0  0  0  0  0  0  0  0
    9.8637    4.3800    0.0000 H   0  0  0  0  0  0  0  0  0  0  0  0
    9.0666    4.3800    0.0000 H   0  0  0  0  0  0  0  0  0  0  0  0
    8.2006    2.9300    0.0000 H   0  0  0  0  0  0  0  0  0  0  0  0
    8.9976    2.9300    0.0000 H   0  0  0  0  0  0  0  0  0  0  0  0
    8.3437   -4.2027    0.0000 H   0  0  0  0  0  0  0  0  0  0  0  0
    7.9451   -3.5124    0.0000 H   0  0  0  0  0  0  0  0  0  0  0  0
    6.2565   -3.4873    0.0000 H   0  0  0  0  0  0  0  0  0  0  0  0
    6.6550   -4.1776    0.0000 H   0  0  0  0  0  0  0  0  0  0  0  0
    7.7331    4.5250    0.0000 H   0  0  0  0  0  0  0  0  0  0  0  0
    9.7942    2.0950    0.0000 H   0  0  0  0  0  0  0  0  0  0  0  0
   11.1972    4.5250    0.0000 H   0  0  0  0  0  0  0  0  0  0  0  0
    7.4040   -2.2850    0.0000 H   0  0  0  0  0  0  0  0  0  0  0  0
    6.3301   -5.2850    0.0000 H   0  0  0  0  0  0  0  0  0  0  0  0
    9.1360   -5.2850    0.0000 H   0  0  0  0  0  0  0  0  0  0  0  0
   11.1972    1.2850    0.0000 H   0  0  0  0  0  0  0  0  0  0  0  0
   12.6002    3.7150    0.0000 H   0  0  0  0  0  0  0  0  0  0  0  0
    6.5380    5.2150    0.0000 H   0  0  0  0  0  0  0  0  0  0  0  0
    3.7320    0.5950    0.0000 H   0  0  0  0  0  0  0  0  0  0  0  0
    6.5380    2.2150    0.0000 H   0  0  0  0  0  0  0  0  0  0  0  0
    6.5380    0.5950    0.0000 H   0  0  0  0  0  0  0  0  0  0  0  0
    6.3301   -6.9050    0.0000 H   0  0  0  0  0  0  0  0  0  0  0  0
    9.1360   -6.9050    0.0000 H   0  0  0  0  0  0  0  0  0  0  0  0
    4.5981   -0.9050    0.0000 H   0  0  0  0  0  0  0  0  0  0  0  0
    6.5380   -0.7850    0.0000 H   0  0  0  0  0  0  0  0  0  0  0  0
    5.6720    6.7150    0.0000 H   0  0  0  0  0  0  0  0  0  0  0  0
    4.2690    4.2850    0.0000 H   0  0  0  0  0  0  0  0  0  0  0  0
    2.8660    5.0950    0.0000 H   0  0  0  0  0  0  0  0  0  0  0  0
   13.4662    2.2150    0.0000 H   0  0  0  0  0  0  0  0  0  0  0  0
    2.2269    2.4419    0.0000 H   0  0  0  0  0  0  0  0  0  0  0  0
    2.0000    1.5950    0.0000 H   0  0  0  0  0  0  0  0  0  0  0  0
    2.8469    1.3681    0.0000 H   0  0  0  0  0  0  0  0  0  0  0  0
    8.2700   -8.4050    0.0000 H   0  0  0  0  0  0  0  0  0  0  0  0
    2.0000    6.5950    0.0000 H   0  0  0  0  0  0  0  0  0  0  0  0
    5.4450    7.8681    0.0000 H   0  0  0  0  0  0  0  0  0  0  0  0
    5.6720    8.7150    0.0000 H   0  0  0  0  0  0  0  0  0  0  0  0
    4.8250    8.9419    0.0000 H   0  0  0  0  0  0  0  0  0  0  0  0
  1 20  1  0  0  0  0
  1 23  1  0  0  0  0
  2 28  1  0  0  0  0
  2 45  1  0  0  0  0
  3 19  2  0  0  0  0
  4 30  1  0  0  0  0
  4 74  1  0  0  0  0
  5 37  1  0  0  0  0
  5 78  1  0  0  0  0
  6 42  1  0  0  0  0
  6 46  1  0  0  0  0
  7 36  2  0  0  0  0
  8 44  1  0  0  0  0
  8 79  1  0  0  0  0
  9 12  1  0  0  0  0
  9 19  1  0  0  0  0
  9 55  1  0  0  0  0
 10 15  1  0  0  0  0
 10 36  1  0  0  0  0
 10 58  1  0  0  0  0
 11 12  1  0  0  0  0
 11 13  1  0  0  0  0
 11 47  1  0  0  0  0
 11 48  1  0  0  0  0
 12 49  1  0  0  0  0
 12 50  1  0  0  0  0
 13 17  2  0  0  0  0
 13 18  1  0  0  0  0
 14 15  1  0  0  0  0
 14 16  1  0  0  0  0
 14 51  1  0  0  0  0
 14 52  1  0  0  0  0
 15 53  1  0  0  0  0
 15 54  1  0  0  0  0
 16 21  2  0  0  0  0
 16 22  1  0  0  0  0
 17 25  1  0  0  0  0
 17 56  1  0  0  0  0
 18 26  2  0  0  0  0
 18 57  1  0  0  0  0
 19 20  1  0  0  0  0
 20 27  2  0  0  0  0
 21 33  1  0  0  0  0
 21 59  1  0  0  0  0
 22 34  2  0  0  0  0
 22 60  1  0  0  0  0
 23 28  2  0  0  0  0
 23 32  1  0  0  0  0
 24 31  2  0  0  0  0
 24 35  1  0  0  0  0
 24 38  1  0  0  0  0
 25 30  2  0  0  0  0
 25 61  1  0  0  0  0
 26 30  1  0  0  0  0
 26 62  1  0  0  0  0
 27 29  1  0  0  0  0
 27 63  1  0  0  0  0
 28 31  1  0  0  0  0
 29 40  2  0  0  0  0
 29 41  1  0  0  0  0
 31 64  1  0  0  0  0
 32 35  2  0  0  0  0
 32 65  1  0  0  0  0
 33 37  2  0  0  0  0
 33 67  1  0  0  0  0
 34 37  1  0  0  0  0
 34 68  1  0  0  0  0
 35 66  1  0  0  0  0
 36 39  1  0  0  0  0
 38 39  2  0  0  0  0
 38 69  1  0  0  0  0
 39 70  1  0  0  0  0
 40 42  1  0  0  0  0
 40 71  1  0  0  0  0
 41 43  2  0  0  0  0
 41 72  1  0  0  0  0
 42 44  2  0  0  0  0
 43 44  1  0  0  0  0
 43 73  1  0  0  0  0
 45 75  1  0  0  0  0
 45 76  1  0  0  0  0
 45 77  1  0  0  0  0
 46 80  1  0  0  0  0
 46 81  1  0  0  0  0
 46 82  1  0  0  0  0
M  END
>  <PUBCHEM_COMPOUND_CID>
71448967

>  <PUBCHEM_COMPOUND_CANONICALIZED>
1

>  <PUBCHEM_CACTVS_COMPLEXITY>
989

>  <PUBCHEM_CACTVS_HBOND_ACCEPTOR>
8

>  <PUBCHEM_CACTVS_HBOND_DONOR>
5

>  <PUBCHEM_CACTVS_ROTATABLE_BOND>
14

>  <PUBCHEM_CACTVS_SUBSKEYS>
AAADcfB/PAAAAAAAAAAAAAAAAAAAAAAAAAAwYMGAAAAAAAABVAAAHgAQCAAADATBmAYyBoLABgCIAiFSEAKCCAAgIAAIiIBOiMgPJiKGsR+HeCOk1hGbuYeQwJAOIAABAAAAQABAAAIAAACAAAAAAAAAAA==

>  <PUBCHEM_IUPAC_OPENEYE_NAME>
(Z)-3-(4-hydroxy-3-methoxy-phenyl)-N-[2-(4-hydroxyphenyl)ethyl]-2-[4-[(E)-3-[2-(4-hydroxyphenyl)ethylamino]-3-oxo-prop-1-enyl]-2-methoxy-phenoxy]prop-2-enamide

>  <PUBCHEM_IUPAC_CAS_NAME>
(Z)-3-(4-hydroxy-3-methoxyphenyl)-N-[2-(4-hydroxyphenyl)ethyl]-2-[4-[(E)-3-[2-(4-hydroxyphenyl)ethylamino]-3-oxoprop-1-enyl]-2-methoxyphenoxy]-2-propenamide

>  <PUBCHEM_IUPAC_NAME>
(Z)-3-(4-hydroxy-3-methoxyphenyl)-N-[2-(4-hydroxyphenyl)ethyl]-2-[4-[(E)-3-[2-(4-hydroxyphenyl)ethylamino]-3-oxoprop-1-enyl]-2-methoxyphenoxy]prop-2-enamide

>  <PUBCHEM_IUPAC_SYSTEMATIC_NAME>
(Z)-N-[2-(4-hydroxyphenyl)ethyl]-2-[4-[(E)-3-[2-(4-hydroxyphenyl)ethylamino]-3-oxidanylidene-prop-1-enyl]-2-methoxy-phenoxy]-3-(3-methoxy-4-oxidanyl-phenyl)prop-2-enamide

>  <PUBCHEM_IUPAC_TRADITIONAL_NAME>
(Z)-3-(4-hydroxy-3-methoxy-phenyl)-N-[2-(4-hydroxyphenyl)ethyl]-2-[4-[(E)-3-[2-(4-hydroxyphenyl)ethylamino]-3-keto-prop-1-enyl]-2-methoxy-phenoxy]acrylamide

>  <PUBCHEM_IUPAC_INCHI>
InChI=1S/C36H36N2O8/c1-44-32-22-27(7-14-30(32)41)23-34(36(43)38-20-18-25-5-12-29(40)13-6-25)46-31-15-8-26(21-33(31)45-2)9-16-35(42)37-19-17-24-3-10-28(39)11-4-24/h3-16,21-23,39-41H,17-20H2,1-2H3,(H,37,42)(H,38,43)/b16-9+,34-23-

>  <PUBCHEM_IUPAC_INCHIKEY>
JCUQMHMUDDMCSX-AADBSILNSA-N

>  <PUBCHEM_XLOGP3_AA>
5.9

>  <PUBCHEM_EXACT_MASS>
624.247

>  <PUBCHEM_MOLECULAR_FORMULA>
C36H36N2O8

>  <PUBCHEM_MOLECULAR_WEIGHT>
624.69

>  <PUBCHEM_OPENEYE_CAN_SMILES>
COC1=C(C=CC(=C1)C=CC(=O)NCCC2=CC=C(C=C2)O)OC(=CC3=CC(=C(C=C3)O)OC)C(=O)NCCC4=CC=C(C=C4)O

>  <PUBCHEM_OPENEYE_ISO_SMILES>
COC1=C(C=CC(=C1)/C=C/C(=O)NCCC2=CC=C(C=C2)O)O/C(=C\C3=CC(=C(C=C3)O)OC)/C(=O)NCCC4=CC=C(C=C4)O

>  <PUBCHEM_CACTVS_TPSA>
147

>  <PUBCHEM_MONOISOTOPIC_WEIGHT>
624.247

>  <PUBCHEM_TOTAL_CHARGE>
0

>  <PUBCHEM_HEAVY_ATOM_COUNT>
46

>  <PUBCHEM_ATOM_DEF_STEREO_COUNT>
0

>  <PUBCHEM_ATOM_UDEF_STEREO_COUNT>
0

>  <PUBCHEM_BOND_DEF_STEREO_COUNT>
2

>  <PUBCHEM_BOND_UDEF_STEREO_COUNT>
0

>  <PUBCHEM_ISOTOPIC_ATOM_COUNT>
0

>  <PUBCHEM_COMPONENT_COUNT>
1

>  <PUBCHEM_CACTVS_TAUTO_COUNT>
72

>  <PUBCHEM_COORDINATE_TYPE>
1
5
255

>  <PUBCHEM_BONDANNOTATIONS>
13  17  8
13  18  8
16  21  8
16  22  8
17  25  8
18  26  8
21  33  8
22  34  8
23  28  8
23  32  8
24  31  8
24  35  8
25  30  8
26  30  8
28  31  8
29  40  8
29  41  8
32  35  8
33  37  8
34  37  8
40  42  8
41  43  8
42  44  8
43  44  8

$$$$
