71450427
 OpenBabel06101807152D

 34 36  0  0  0  0  0  0  0  0999 V2000
    3.9061   -1.4953    0.0000 O   0  0  0  0  0  0  0  0  0  0  0  0
    7.4260   -1.4953    0.0000 O   0  0  0  0  0  0  0  0  0  0  0  0
    5.6660    1.5394    0.0000 O   0  0  0  0  0  0  0  0  0  0  0  0
    7.4144    1.5740    0.0000 O   0  0  0  0  0  0  0  0  0  0  0  0
   10.0641   -0.9881    0.0000 O   0  0  0  0  0  0  0  0  0  0  0  0
    3.0000   -0.9814    0.0000 C   0  0  0  0  0  0  0  0  0  0  0  0
    4.8000    0.0394    0.0000 C   0  0  0  0  0  0  0  0  0  0  0  0
    4.8000   -0.9606    0.0000 C   0  0  0  0  0  0  0  0  0  0  0  0
    3.0000    0.0602    0.0000 C   0  0  0  0  0  0  0  0  0  0  0  0
    2.0000   -0.9853    0.0000 C   0  0  0  0  0  0  0  0  0  0  0  0
    2.5033   -1.8494    0.0000 C   0  0  0  0  0  0  0  0  0  0  0  0
    3.9061    0.5740    0.0000 C   0  0  0  0  0  0  0  0  0  0  0  0
    6.5320    0.0394    0.0000 C   0  0  0  0  0  0  0  0  0  0  0  0
    5.6660    0.5394    0.0000 C   0  0  0  0  0  0  0  0  0  0  0  0
    6.5320   -0.9606    0.0000 C   0  0  0  0  0  0  0  0  0  0  0  0
    5.6660   -1.4606    0.0000 C   0  0  0  0  0  0  0  0  0  0  0  0
    7.4260    0.5740    0.0000 C   0  0  0  0  0  0  0  0  0  0  0  0
    8.3321   -0.9814    0.0000 C   0  0  0  0  0  0  0  0  0  0  0  0
    8.3321    0.0602    0.0000 C   0  0  0  0  0  0  0  0  0  0  0  0
    9.1962   -1.4848    0.0000 C   0  0  0  0  0  0  0  0  0  0  0  0
    2.4643    0.3723    0.0000 H   0  0  0  0  0  0  0  0  0  0  0  0
    3.9132    1.1940    0.0000 H   0  0  0  0  0  0  0  0  0  0  0  0
    1.9652   -1.5414    0.0000 H   0  0  0  0  0  0  0  0  0  0  0  0
    1.9976   -0.3653    0.0000 H   0  0  0  0  0  0  0  0  0  0  0  0
    1.3800   -0.9877    0.0000 H   0  0  0  0  0  0  0  0  0  0  0  0
    2.0024   -1.6053    0.0000 H   0  0  0  0  0  0  0  0  0  0  0  0
    2.1954   -2.3875    0.0000 H   0  0  0  0  0  0  0  0  0  0  0  0
    3.0415   -2.1573    0.0000 H   0  0  0  0  0  0  0  0  0  0  0  0
    5.6660   -2.0806    0.0000 H   0  0  0  0  0  0  0  0  0  0  0  0
    8.8678    0.3723    0.0000 H   0  0  0  0  0  0  0  0  0  0  0  0
    5.1291    1.8494    0.0000 H   0  0  0  0  0  0  0  0  0  0  0  0
    8.7958   -1.9582    0.0000 H   0  0  0  0  0  0  0  0  0  0  0  0
    9.5928   -1.9612    0.0000 H   0  0  0  0  0  0  0  0  0  0  0  0
   10.5998   -1.3002    0.0000 H   0  0  0  0  0  0  0  0  0  0  0  0
  1  6  1  0  0  0  0
  1  8  1  0  0  0  0
  2 15  1  0  0  0  0
  2 18  1  0  0  0  0
  3 14  1  0  0  0  0
  3 31  1  0  0  0  0
  4 17  2  0  0  0  0
  5 20  1  0  0  0  0
  5 34  1  0  0  0  0
  6  9  1  0  0  0  0
  6 10  1  0  0  0  0
  6 11  1  0  0  0  0
  7  8  2  0  0  0  0
  7 12  1  0  0  0  0
  7 14  1  0  0  0  0
  8 16  1  0  0  0  0
  9 12  2  0  0  0  0
  9 21  1  0  0  0  0
 10 24  1  0  0  0  0
 10 25  1  0  0  0  0
 10 26  1  0  0  0  0
 11 23  1  0  0  0  0
 11 27  1  0  0  0  0
 11 28  1  0  0  0  0
 12 22  1  0  0  0  0
 13 14  2  0  0  0  0
 13 15  1  0  0  0  0
 13 17  1  0  0  0  0
 15 16  2  0  0  0  0
 16 29  1  0  0  0  0
 17 19  1  0  0  0  0
 18 19  2  0  0  0  0
 18 20  1  0  0  0  0
 19 30  1  0  0  0  0
 20 32  1  0  0  0  0
 20 33  1  0  0  0  0
M  END
>  <PUBCHEM_COMPOUND_CID>
71450427

>  <PUBCHEM_COMPOUND_CANONICALIZED>
1

>  <PUBCHEM_CACTVS_COMPLEXITY>
479

>  <PUBCHEM_CACTVS_HBOND_ACCEPTOR>
5

>  <PUBCHEM_CACTVS_HBOND_DONOR>
2

>  <PUBCHEM_CACTVS_ROTATABLE_BOND>
1

>  <PUBCHEM_CACTVS_SUBSKEYS>
AAADccBwOAAAAAAAAAAAAAAAAAAAAAAAAAAwQIAAAAAAAACBAAAAGgAACAAADESgmAIyBoAABgCIAqBSAAACCAAkIAAIiAEGCMgNNzaGNRqCeWCl4BULuQeI7OzOIAACCAAIAABAAAQQABAAAAAAAAAAAA==

>  <PUBCHEM_IUPAC_OPENEYE_NAME>
5-hydroxy-8-(hydroxymethyl)-2,2-dimethyl-pyrano[3,2-g]chromen-6-one

>  <PUBCHEM_IUPAC_CAS_NAME>
5-hydroxy-8-(hydroxymethyl)-2,2-dimethyl-6-pyrano[3,2-g][1]benzopyranone

>  <PUBCHEM_IUPAC_NAME>
5-hydroxy-8-(hydroxymethyl)-2,2-dimethylpyrano[3,2-g]chromen-6-one

>  <PUBCHEM_IUPAC_SYSTEMATIC_NAME>
8-(hydroxymethyl)-2,2-dimethyl-5-oxidanyl-pyrano[3,2-g]chromen-6-one

>  <PUBCHEM_IUPAC_TRADITIONAL_NAME>
5-hydroxy-2,2-dimethyl-8-methylol-pyrano[3,2-g]chromen-6-one

>  <PUBCHEM_IUPAC_INCHI>
InChI=1S/C15H14O5/c1-15(2)4-3-9-11(20-15)6-12-13(14(9)18)10(17)5-8(7-16)19-12/h3-6,16,18H,7H2,1-2H3

>  <PUBCHEM_IUPAC_INCHIKEY>
MJSXHUBIQAPDNC-UHFFFAOYSA-N

>  <PUBCHEM_XLOGP3_AA>
1.8

>  <PUBCHEM_EXACT_MASS>
274.084

>  <PUBCHEM_MOLECULAR_FORMULA>
C15H14O5

>  <PUBCHEM_MOLECULAR_WEIGHT>
274.272

>  <PUBCHEM_OPENEYE_CAN_SMILES>
CC1(C=CC2=C(O1)C=C3C(=C2O)C(=O)C=C(O3)CO)C

>  <PUBCHEM_OPENEYE_ISO_SMILES>
CC1(C=CC2=C(O1)C=C3C(=C2O)C(=O)C=C(O3)CO)C

>  <PUBCHEM_CACTVS_TPSA>
76

>  <PUBCHEM_MONOISOTOPIC_WEIGHT>
274.084

>  <PUBCHEM_TOTAL_CHARGE>
0

>  <PUBCHEM_HEAVY_ATOM_COUNT>
20

>  <PUBCHEM_ATOM_DEF_STEREO_COUNT>
0

>  <PUBCHEM_ATOM_UDEF_STEREO_COUNT>
0

>  <PUBCHEM_BOND_DEF_STEREO_COUNT>
0

>  <PUBCHEM_BOND_UDEF_STEREO_COUNT>
0

>  <PUBCHEM_ISOTOPIC_ATOM_COUNT>
0

>  <PUBCHEM_COMPONENT_COUNT>
1

>  <PUBCHEM_CACTVS_TAUTO_COUNT>
5

>  <PUBCHEM_COORDINATE_TYPE>
1
5
255

>  <PUBCHEM_BONDANNOTATIONS>
13  14  8
13  15  8
13  17  8
15  16  8
17  19  8
18  19  8
2  15  8
2  18  8
7  14  8
7  8  8
8  16  8

$$$$
