71587387
 OpenBabel06101807152D

 29 30  0  0  0  0  0  0  0  0999 V2000
    6.1974    0.5866    0.0000 S   0  0  0  0  0  0  0  0  0  0  0  0
    8.2665   -0.0856    0.0000 S   0  0  0  0  0  0  0  0  0  0  0  0
    2.7431    1.2255    0.0000 O   0  0  0  0  0  0  0  0  0  0  0  0
    4.2294   -0.1127    0.0000 O   0  0  0  0  0  0  0  0  0  0  0  0
    3.9021    2.5127    0.0000 O   0  0  0  0  0  0  0  0  0  0  0  0
    7.0064    1.1744    0.0000 C   0  0  0  0  0  0  0  0  0  0  0  0
    7.9575    0.8654    0.0000 C   0  0  0  0  0  0  0  0  0  0  0  0
    6.6974    2.1255    0.0000 C   0  0  0  0  0  0  0  0  0  0  0  0
    5.3884    1.1744    0.0000 C   0  0  0  0  0  0  0  0  0  0  0  0
    5.6974    2.1255    0.0000 C   0  0  0  0  0  0  0  0  0  0  0  0
    8.7665    1.4532    0.0000 C   0  0  0  0  0  0  0  0  0  0  0  0
    9.5755    0.8654    0.0000 C   0  0  0  0  0  0  0  0  0  0  0  0
    9.2665   -0.0856    0.0000 C   0  0  0  0  0  0  0  0  0  0  0  0
    4.4374    0.8654    0.0000 C   0  0  0  0  0  0  0  0  0  0  0  0
    3.6942    1.5346    0.0000 C   0  0  0  0  0  0  0  0  0  0  0  0
    9.8543   -0.8947    0.0000 C   0  0  0  0  0  0  0  0  0  0  0  0
    2.0000    1.8947    0.0000 C   0  0  0  0  0  0  0  0  0  0  0  0
   10.4421   -1.7037    0.0000 C   0  0  0  0  0  0  0  0  0  0  0  0
   11.0299   -2.5127    0.0000 C   0  0  0  0  0  0  0  0  0  0  0  0
    7.0618    2.6271    0.0000 H   0  0  0  0  0  0  0  0  0  0  0  0
    5.3330    2.6271    0.0000 H   0  0  0  0  0  0  0  0  0  0  0  0
    8.7665    2.0732    0.0000 H   0  0  0  0  0  0  0  0  0  0  0  0
   10.1652    1.0570    0.0000 H   0  0  0  0  0  0  0  0  0  0  0  0
    2.4149    2.3554    0.0000 H   0  0  0  0  0  0  0  0  0  0  0  0
    1.5392    2.3095    0.0000 H   0  0  0  0  0  0  0  0  0  0  0  0
    1.5851    1.4339    0.0000 H   0  0  0  0  0  0  0  0  0  0  0  0
   10.5283   -2.8771    0.0000 H   0  0  0  0  0  0  0  0  0  0  0  0
   11.3943   -3.0143    0.0000 H   0  0  0  0  0  0  0  0  0  0  0  0
   11.5315   -2.1483    0.0000 H   0  0  0  0  0  0  0  0  0  0  0  0
  1  6  1  0  0  0  0
  1  9  1  0  0  0  0
  2  7  1  0  0  0  0
  2 13  1  0  0  0  0
  3 15  1  0  0  0  0
  3 17  1  0  0  0  0
  4 14  2  0  0  0  0
  5 15  2  0  0  0  0
  6  7  1  0  0  0  0
  6  8  2  0  0  0  0
  7 11  2  0  0  0  0
  8 10  1  0  0  0  0
  8 20  1  0  0  0  0
  9 10  2  0  0  0  0
  9 14  1  0  0  0  0
 10 21  1  0  0  0  0
 11 12  1  0  0  0  0
 11 22  1  0  0  0  0
 12 13  2  0  0  0  0
 12 23  1  0  0  0  0
 13 16  1  0  0  0  0
 14 15  1  0  0  0  0
 16 18  3  0  0  0  0
 17 24  1  0  0  0  0
 17 25  1  0  0  0  0
 17 26  1  0  0  0  0
 18 19  1  0  0  0  0
 19 27  1  0  0  0  0
 19 28  1  0  0  0  0
 19 29  1  0  0  0  0
M  END
>  <PUBCHEM_COMPOUND_CID>
71587387

>  <PUBCHEM_COMPOUND_CANONICALIZED>
1

>  <PUBCHEM_CACTVS_COMPLEXITY>
435

>  <PUBCHEM_CACTVS_HBOND_ACCEPTOR>
5

>  <PUBCHEM_CACTVS_HBOND_DONOR>
0

>  <PUBCHEM_CACTVS_ROTATABLE_BOND>
5

>  <PUBCHEM_CACTVS_SUBSKEYS>
AAADccBwMABgAAAAAAAAAAAAAAAAASJAAAAAAAAAAAAAAAAB4AAAGgQAAAAACASA0AIyCYAABAjMEKDSCAoDAIAkCBBIiBlAAMgIIDKgFBSAIQAkwAEoiYeIyKCAAAAAAAAAAAAAAAAAAAAAAAAAAAAAAA==

>  <PUBCHEM_IUPAC_OPENEYE_NAME>
methyl 2-oxo-2-[5-(5-prop-1-ynyl-2-thienyl)-2-thienyl]acetate

>  <PUBCHEM_IUPAC_CAS_NAME>
2-oxo-2-[5-(5-prop-1-ynyl-2-thiophenyl)-2-thiophenyl]acetic acid methyl ester

>  <PUBCHEM_IUPAC_NAME>
methyl 2-oxo-2-[5-(5-prop-1-ynylthiophen-2-yl)thiophen-2-yl]acetate

>  <PUBCHEM_IUPAC_SYSTEMATIC_NAME>
methyl 2-oxidanylidene-2-[5-(5-prop-1-ynylthiophen-2-yl)thiophen-2-yl]ethanoate

>  <PUBCHEM_IUPAC_TRADITIONAL_NAME>
2-keto-2-[5-(5-prop-1-ynyl-2-thienyl)-2-thienyl]acetic acid methyl ester

>  <PUBCHEM_IUPAC_INCHI>
InChI=1S/C14H10O3S2/c1-3-4-9-5-6-10(18-9)11-7-8-12(19-11)13(15)14(16)17-2/h5-8H,1-2H3

>  <PUBCHEM_IUPAC_INCHIKEY>
ALURPXNWYGHPFR-UHFFFAOYSA-N

>  <PUBCHEM_XLOGP3_AA>
3.8

>  <PUBCHEM_EXACT_MASS>
290.007

>  <PUBCHEM_MOLECULAR_FORMULA>
C14H10O3S2

>  <PUBCHEM_MOLECULAR_WEIGHT>
290.351

>  <PUBCHEM_OPENEYE_CAN_SMILES>
CC#CC1=CC=C(S1)C2=CC=C(S2)C(=O)C(=O)OC

>  <PUBCHEM_OPENEYE_ISO_SMILES>
CC#CC1=CC=C(S1)C2=CC=C(S2)C(=O)C(=O)OC

>  <PUBCHEM_CACTVS_TPSA>
99.8

>  <PUBCHEM_MONOISOTOPIC_WEIGHT>
290.007

>  <PUBCHEM_TOTAL_CHARGE>
0

>  <PUBCHEM_HEAVY_ATOM_COUNT>
19

>  <PUBCHEM_ATOM_DEF_STEREO_COUNT>
0

>  <PUBCHEM_ATOM_UDEF_STEREO_COUNT>
0

>  <PUBCHEM_BOND_DEF_STEREO_COUNT>
0

>  <PUBCHEM_BOND_UDEF_STEREO_COUNT>
0

>  <PUBCHEM_ISOTOPIC_ATOM_COUNT>
0

>  <PUBCHEM_COMPONENT_COUNT>
1

>  <PUBCHEM_CACTVS_TAUTO_COUNT>
1

>  <PUBCHEM_COORDINATE_TYPE>
1
5
255

>  <PUBCHEM_BONDANNOTATIONS>
1  6  8
1  9  8
11  12  8
12  13  8
2  13  8
2  7  8
6  8  8
7  11  8
8  10  8
9  10  8

$$$$
