71587384
 OpenBabel06101807152D

 28 29  0  0  1  0  0  0  0  0999 V2000
    5.9150   -0.5175    0.0000 S   0  0  0  0  0  0  0  0  0  0  0  0
    8.4841    0.3490    0.0000 S   0  0  0  0  0  0  0  0  0  0  0  0
    3.9470   -1.2169    0.0000 O   0  0  0  0  0  0  0  0  0  0  0  0
    2.4608    0.1213    0.0000 O   0  0  0  0  0  0  0  0  0  0  0  0
    3.6197    1.4085    0.0000 O   0  0  0  0  0  0  0  0  0  0  0  0
    5.1060    0.0702    0.0000 C   0  0  0  0  0  0  0  0  0  0  0  0
    6.7240    0.0702    0.0000 C   0  0  0  0  0  0  0  0  0  0  0  0
    4.1550   -0.2388    0.0000 C   0  0  3  0  0  0  0  0  0  0  0  0
    7.6751   -0.2388    0.0000 C   0  0  0  0  0  0  0  0  0  0  0  0
    5.4150    1.0213    0.0000 C   0  0  0  0  0  0  0  0  0  0  0  0
    6.4150    1.0213    0.0000 C   0  0  0  0  0  0  0  0  0  0  0  0
    7.9841   -1.1898    0.0000 C   0  0  0  0  0  0  0  0  0  0  0  0
    8.9841   -1.1898    0.0000 C   0  0  0  0  0  0  0  0  0  0  0  0
    9.2931   -0.2388    0.0000 C   0  0  0  0  0  0  0  0  0  0  0  0
    3.4118    0.4304    0.0000 C   0  0  0  0  0  0  0  0  0  0  0  0
   10.2442    0.0702    0.0000 C   0  0  0  0  0  0  0  0  0  0  0  0
   11.1952    0.3793    0.0000 C   0  0  0  0  0  0  0  0  0  0  0  0
   12.1463    0.6883    0.0000 C   0  0  0  0  0  0  0  0  0  0  0  0
    4.6157   -0.6536    0.0000 H   0  0  0  0  0  0  0  0  0  0  0  0
    5.0506    1.5229    0.0000 H   0  0  0  0  0  0  0  0  0  0  0  0
    6.7794    1.5229    0.0000 H   0  0  0  0  0  0  0  0  0  0  0  0
    7.6197   -1.6914    0.0000 H   0  0  0  0  0  0  0  0  0  0  0  0
    9.3485   -1.6914    0.0000 H   0  0  0  0  0  0  0  0  0  0  0  0
    3.3574   -1.4085    0.0000 H   0  0  0  0  0  0  0  0  0  0  0  0
    2.0000    0.5362    0.0000 H   0  0  0  0  0  0  0  0  0  0  0  0
   12.3379    0.0986    0.0000 H   0  0  0  0  0  0  0  0  0  0  0  0
   12.7360    0.8799    0.0000 H   0  0  0  0  0  0  0  0  0  0  0  0
   11.9547    1.2779    0.0000 H   0  0  0  0  0  0  0  0  0  0  0  0
  1  6  1  0  0  0  0
  1  7  1  0  0  0  0
  2  9  1  0  0  0  0
  2 14  1  0  0  0  0
  3  8  1  0  0  0  0
  3 24  1  0  0  0  0
  4 15  1  0  0  0  0
  4 25  1  0  0  0  0
  5 15  2  0  0  0  0
  6  8  1  0  0  0  0
  6 10  2  0  0  0  0
  7  9  1  0  0  0  0
  7 11  2  0  0  0  0
  8 15  1  0  0  0  0
  8 19  1  0  0  0  0
  9 12  2  0  0  0  0
 10 11  1  0  0  0  0
 10 20  1  0  0  0  0
 11 21  1  0  0  0  0
 12 13  1  0  0  0  0
 12 22  1  0  0  0  0
 13 14  2  0  0  0  0
 13 23  1  0  0  0  0
 14 16  1  0  0  0  0
 16 17  3  0  0  0  0
 17 18  1  0  0  0  0
 18 26  1  0  0  0  0
 18 27  1  0  0  0  0
 18 28  1  0  0  0  0
M  END
>  <PUBCHEM_COMPOUND_CID>
71587384

>  <PUBCHEM_COMPOUND_CANONICALIZED>
1

>  <PUBCHEM_CACTVS_COMPLEXITY>
384

>  <PUBCHEM_CACTVS_HBOND_ACCEPTOR>
5

>  <PUBCHEM_CACTVS_HBOND_DONOR>
2

>  <PUBCHEM_CACTVS_ROTATABLE_BOND>
4

>  <PUBCHEM_CACTVS_SUBSKEYS>
AAADccBwMABgAAAAAAAAAAAAAAAAASJAAAAAAAAAAAAAAAAB4AAAGgQACAAACBSg0AIyCYAAAgjMECDSCAoDAIAgCBBIiBlACIgJNjKgFRCAcAAkwAEpmAeIyKCAAAAAAAAAAAAAAAAAAAAAAAAAAAAAAA==

>  <PUBCHEM_IUPAC_OPENEYE_NAME>
2-hydroxy-2-[5-(5-prop-1-ynyl-2-thienyl)-2-thienyl]acetic acid

>  <PUBCHEM_IUPAC_CAS_NAME>
2-hydroxy-2-[5-(5-prop-1-ynyl-2-thiophenyl)-2-thiophenyl]acetic acid

>  <PUBCHEM_IUPAC_NAME>
2-hydroxy-2-[5-(5-prop-1-ynylthiophen-2-yl)thiophen-2-yl]acetic acid

>  <PUBCHEM_IUPAC_SYSTEMATIC_NAME>
2-oxidanyl-2-[5-(5-prop-1-ynylthiophen-2-yl)thiophen-2-yl]ethanoic acid

>  <PUBCHEM_IUPAC_TRADITIONAL_NAME>
2-hydroxy-2-[5-(5-prop-1-ynyl-2-thienyl)-2-thienyl]acetic acid

>  <PUBCHEM_IUPAC_INCHI>
InChI=1S/C13H10O3S2/c1-2-3-8-4-5-9(17-8)10-6-7-11(18-10)12(14)13(15)16/h4-7,12,14H,1H3,(H,15,16)

>  <PUBCHEM_IUPAC_INCHIKEY>
YUIKESNQNJLOMW-UHFFFAOYSA-N

>  <PUBCHEM_XLOGP3_AA>
2.7

>  <PUBCHEM_EXACT_MASS>
278.007

>  <PUBCHEM_MOLECULAR_FORMULA>
C13H10O3S2

>  <PUBCHEM_MOLECULAR_WEIGHT>
278.34

>  <PUBCHEM_OPENEYE_CAN_SMILES>
CC#CC1=CC=C(S1)C2=CC=C(S2)C(C(=O)O)O

>  <PUBCHEM_OPENEYE_ISO_SMILES>
CC#CC1=CC=C(S1)C2=CC=C(S2)C(C(=O)O)O

>  <PUBCHEM_CACTVS_TPSA>
114

>  <PUBCHEM_MONOISOTOPIC_WEIGHT>
278.007

>  <PUBCHEM_TOTAL_CHARGE>
0

>  <PUBCHEM_HEAVY_ATOM_COUNT>
18

>  <PUBCHEM_ATOM_DEF_STEREO_COUNT>
0

>  <PUBCHEM_ATOM_UDEF_STEREO_COUNT>
1

>  <PUBCHEM_BOND_DEF_STEREO_COUNT>
0

>  <PUBCHEM_BOND_UDEF_STEREO_COUNT>
0

>  <PUBCHEM_ISOTOPIC_ATOM_COUNT>
0

>  <PUBCHEM_COMPONENT_COUNT>
1

>  <PUBCHEM_CACTVS_TAUTO_COUNT>
1

>  <PUBCHEM_COORDINATE_TYPE>
1
5
255

>  <PUBCHEM_BONDANNOTATIONS>
1  6  8
1  7  8
10  11  8
12  13  8
13  14  8
2  14  8
2  9  8
8  3  3
6  10  8
7  11  8
9  12  8

$$$$
