71664720
 OpenBabel06101807152D

104112  0  0  1  0  0  0  0  0999 V2000
    9.0185   -0.5988    0.0000 O   0  0  0  0  0  0  0  0  0  0  0  0
    6.7718   -3.5937    0.0000 O   0  0  0  0  0  0  0  0  0  0  0  0
   10.7505    1.4012    0.0000 O   0  0  0  0  0  0  0  0  0  0  0  0
    7.6948    2.9102    0.0000 O   0  0  0  0  0  0  0  0  0  0  0  0
    5.3871   -1.3392    0.0000 O   0  0  0  0  0  0  0  0  0  0  0  0
    6.9274    2.3794    0.0000 O   0  0  0  0  0  0  0  0  0  0  0  0
    5.4883   -0.6230    0.0000 O   0  0  0  0  0  0  0  0  0  0  0  0
    6.7356    5.4503    0.0000 O   0  0  0  0  0  0  0  0  0  0  0  0
   11.2850    2.1725    0.0000 O   0  0  0  0  0  0  0  0  0  0  0  0
    9.5895   -1.2112    0.0000 O   0  0  0  0  0  0  0  0  0  0  0  0
   10.3866    5.1600    0.0000 O   0  0  0  0  0  0  0  0  0  0  0  0
   10.2512   -4.1903    0.0000 O   0  0  0  0  0  0  0  0  0  0  0  0
   12.1112   -2.7525    0.0000 O   0  0  0  0  0  0  0  0  0  0  0  0
   13.2960    0.5027    0.0000 O   0  0  0  0  0  0  0  0  0  0  0  0
   13.6433   -1.4669    0.0000 O   0  0  0  0  0  0  0  0  0  0  0  0
    2.5801   -2.3978    0.0000 O   0  0  0  0  0  0  0  0  0  0  0  0
    3.8025   -5.6391    0.0000 O   0  0  0  0  0  0  0  0  0  0  0  0
    2.2556   -4.3713    0.0000 O   0  0  0  0  0  0  0  0  0  0  0  0
    3.7594    4.8752    0.0000 O   0  0  0  0  0  0  0  0  0  0  0  0
    4.3741    1.4662    0.0000 O   0  0  0  0  0  0  0  0  0  0  0  0
    3.0826    2.9933    0.0000 O   0  0  0  0  0  0  0  0  0  0  0  0
    9.0185    1.4012    0.0000 C   0  0  1  0  0  0  0  0  0  0  0  0
    9.8845    0.9012    0.0000 C   0  0  1  0  0  0  0  0  0  0  0  0
    7.0963   -1.6202    0.0000 C   0  0  1  0  0  0  0  0  0  0  0  0
    8.1524    0.9012    0.0000 C   0  0  0  0  0  0  0  0  0  0  0  0
    9.8845   -0.0988    0.0000 C   0  0  1  0  0  0  0  0  0  0  0  0
    8.1524   -0.0988    0.0000 C   0  0  0  0  0  0  0  0  0  0  0  0
    7.2585   -0.6335    0.0000 C   0  0  0  0  0  0  0  0  0  0  0  0
    6.1606   -1.9731    0.0000 C   0  0  1  0  0  0  0  0  0  0  0  0
    9.3605    2.3409    0.0000 C   0  0  0  0  0  0  0  0  0  0  0  0
    5.9984   -2.9599    0.0000 C   0  0  1  0  0  0  0  0  0  0  0  0
    7.8697   -2.2541    0.0000 C   0  0  0  0  0  0  0  0  0  0  0  0
    8.7177    3.1069    0.0000 C   0  0  0  0  0  0  0  0  0  0  0  0
    7.2585    1.4358    0.0000 C   0  0  0  0  0  0  0  0  0  0  0  0
    6.3524   -0.1196    0.0000 C   0  0  0  0  0  0  0  0  0  0  0  0
    9.0597    4.0466    0.0000 C   0  0  0  0  0  0  0  0  0  0  0  0
   10.8242   -0.4408    0.0000 C   0  0  0  0  0  0  0  0  0  0  0  0
    8.4026    4.8548    0.0000 C   0  0  0  0  0  0  0  0  0  0  0  0
    7.3754    4.6818    0.0000 C   0  0  1  0  0  0  0  0  0  0  0  0
    7.7074   -3.2409    0.0000 C   0  0  0  0  0  0  0  0  0  0  0  0
    7.0191    3.7030    0.0000 C   0  0  1  0  0  0  0  0  0  0  0  0
   10.3453    2.5145    0.0000 C   0  0  0  0  0  0  0  0  0  0  0  0
    6.3524    0.9220    0.0000 C   0  0  0  0  0  0  0  0  0  0  0  0
    5.0627   -3.3127    0.0000 C   0  0  0  0  0  0  0  0  0  0  0  0
    8.8385   -1.8716    0.0000 C   0  0  0  0  0  0  0  0  0  0  0  0
   10.0445    4.2203    0.0000 C   0  0  0  0  0  0  0  0  0  0  0  0
   10.6873    3.4542    0.0000 C   0  0  0  0  0  0  0  0  0  0  0  0
   11.5902    0.2019    0.0000 C   0  0  0  0  0  0  0  0  0  0  0  0
   10.9978   -1.4256    0.0000 C   0  0  0  0  0  0  0  0  0  0  0  0
    8.5028   -3.9135    0.0000 C   0  0  0  0  0  0  0  0  0  0  0  0
    6.0350    3.5256    0.0000 C   0  0  0  0  0  0  0  0  0  0  0  0
    9.6492   -2.5256    0.0000 C   0  0  0  0  0  0  0  0  0  0  0  0
    9.4802   -3.5535    0.0000 C   0  0  0  0  0  0  0  0  0  0  0  0
    4.9004   -4.2995    0.0000 C   0  0  0  0  0  0  0  0  0  0  0  0
    4.2892   -2.6788    0.0000 C   0  0  0  0  0  0  0  0  0  0  0  0
   11.9375   -1.7677    0.0000 C   0  0  0  0  0  0  0  0  0  0  0  0
   12.5299   -0.1401    0.0000 C   0  0  0  0  0  0  0  0  0  0  0  0
    5.6966    2.5846    0.0000 C   0  0  0  0  0  0  0  0  0  0  0  0
    5.3893    4.2891    0.0000 C   0  0  0  0  0  0  0  0  0  0  0  0
   12.7036   -1.1249    0.0000 C   0  0  0  0  0  0  0  0  0  0  0  0
    3.3536   -3.0317    0.0000 C   0  0  0  0  0  0  0  0  0  0  0  0
    3.9648   -4.6524    0.0000 C   0  0  0  0  0  0  0  0  0  0  0  0
    3.1913   -4.0184    0.0000 C   0  0  0  0  0  0  0  0  0  0  0  0
    4.4051    4.1117    0.0000 C   0  0  0  0  0  0  0  0  0  0  0  0
    4.7125    2.4072    0.0000 C   0  0  0  0  0  0  0  0  0  0  0  0
    4.0668    3.1708    0.0000 C   0  0  0  0  0  0  0  0  0  0  0  0
    9.8172    1.6919    0.0000 H   0  0  0  0  0  0  0  0  0  0  0  0
   10.4214    0.5912    0.0000 H   0  0  0  0  0  0  0  0  0  0  0  0
    6.4388   -1.0814    0.0000 H   0  0  0  0  0  0  0  0  0  0  0  0
    9.9385   -0.7165    0.0000 H   0  0  0  0  0  0  0  0  0  0  0  0
    5.5805   -2.1919    0.0000 H   0  0  0  0  0  0  0  0  0  0  0  0
    5.8978   -3.5717    0.0000 H   0  0  0  0  0  0  0  0  0  0  0  0
    8.9434    5.1578    0.0000 H   0  0  0  0  0  0  0  0  0  0  0  0
    8.1965    5.4395    0.0000 H   0  0  0  0  0  0  0  0  0  0  0  0
    6.7646    4.5753    0.0000 H   0  0  0  0  0  0  0  0  0  0  0  0
    6.6197    4.1772    0.0000 H   0  0  0  0  0  0  0  0  0  0  0  0
    5.8167    1.2341    0.0000 H   0  0  0  0  0  0  0  0  0  0  0  0
   11.2875    1.0912    0.0000 H   0  0  0  0  0  0  0  0  0  0  0  0
   11.2979    3.5619    0.0000 H   0  0  0  0  0  0  0  0  0  0  0  0
    4.8070   -1.5580    0.0000 H   0  0  0  0  0  0  0  0  0  0  0  0
   11.4826    0.8125    0.0000 H   0  0  0  0  0  0  0  0  0  0  0  0
   10.5229   -1.8242    0.0000 H   0  0  0  0  0  0  0  0  0  0  0  0
    8.3951   -4.5241    0.0000 H   0  0  0  0  0  0  0  0  0  0  0  0
   10.2285   -2.3046    0.0000 H   0  0  0  0  0  0  0  0  0  0  0  0
    6.3181    2.4941    0.0000 H   0  0  0  0  0  0  0  0  0  0  0  0
    4.9502   -0.3150    0.0000 H   0  0  0  0  0  0  0  0  0  0  0  0
    5.3800   -4.6925    0.0000 H   0  0  0  0  0  0  0  0  0  0  0  0
    4.3898   -2.0670    0.0000 H   0  0  0  0  0  0  0  0  0  0  0  0
    6.9499    6.0321    0.0000 H   0  0  0  0  0  0  0  0  0  0  0  0
   11.7599    2.5710    0.0000 H   0  0  0  0  0  0  0  0  0  0  0  0
    6.0970    2.1112    0.0000 H   0  0  0  0  0  0  0  0  0  0  0  0
    5.5991    4.8725    0.0000 H   0  0  0  0  0  0  0  0  0  0  0  0
   10.1769   -1.4098    0.0000 H   0  0  0  0  0  0  0  0  0  0  0  0
   10.9971    5.2676    0.0000 H   0  0  0  0  0  0  0  0  0  0  0  0
   10.1482   -4.8017    0.0000 H   0  0  0  0  0  0  0  0  0  0  0  0
   12.6938   -2.9645    0.0000 H   0  0  0  0  0  0  0  0  0  0  0  0
   13.8786    0.2907    0.0000 H   0  0  0  0  0  0  0  0  0  0  0  0
   14.1182   -1.0684    0.0000 H   0  0  0  0  0  0  0  0  0  0  0  0
    2.0000   -2.6165    0.0000 H   0  0  0  0  0  0  0  0  0  0  0  0
    4.2821   -6.0321    0.0000 H   0  0  0  0  0  0  0  0  0  0  0  0
    2.1550   -4.9831    0.0000 H   0  0  0  0  0  0  0  0  0  0  0  0
    3.9692    5.4586    0.0000 H   0  0  0  0  0  0  0  0  0  0  0  0
    3.7639    1.3562    0.0000 H   0  0  0  0  0  0  0  0  0  0  0  0
    2.6823    3.4667    0.0000 H   0  0  0  0  0  0  0  0  0  0  0  0
  1 26  1  0  0  0  0
  1 27  1  0  0  0  0
  2 31  1  0  0  0  0
  2 40  1  0  0  0  0
  3 78  1  0  0  0  0
  4 33  1  0  0  0  0
  4 41  1  0  0  0  0
  5 80  1  0  0  0  0
  6 34  1  0  0  0  0
  6 85  1  0  0  0  0
  7 35  1  0  0  0  0
  7 86  1  0  0  0  0
  8 89  1  0  0  0  0
  9 42  1  0  0  0  0
  9 90  1  0  0  0  0
 10 45  1  0  0  0  0
 10 93  1  0  0  0  0
 11 46  1  0  0  0  0
 11 94  1  0  0  0  0
 12 53  1  0  0  0  0
 12 95  1  0  0  0  0
 13 56  1  0  0  0  0
 13 96  1  0  0  0  0
 14 57  1  0  0  0  0
 14 97  1  0  0  0  0
 15 60  1  0  0  0  0
 15 98  1  0  0  0  0
 16 61  1  0  0  0  0
 16 99  1  0  0  0  0
 17 62  1  0  0  0  0
 17100  1  0  0  0  0
 18 63  1  0  0  0  0
 18101  1  0  0  0  0
 19 64  1  0  0  0  0
 19102  1  0  0  0  0
 20 65  1  0  0  0  0
 20103  1  0  0  0  0
 21 66  1  0  0  0  0
 21104  1  0  0  0  0
 22 23  1  1  0  0  0
 22 25  1  0  0  0  0
 22 30  1  0  0  0  0
 22 67  1  0  0  0  0
 23  3  1  0  0  0  0
 23 26  1  6  0  0  0
 23 68  1  0  0  0  0
 24 28  1  0  0  0  0
 24 29  1  6  0  0  0
 24 32  1  0  0  0  0
 24 69  1  0  0  0  0
 25 27  1  0  0  0  0
 25 34  2  0  0  0  0
 26 37  1  0  0  0  0
 26 70  1  6  0  0  0
 27 28  2  0  0  0  0
 28 35  1  0  0  0  0
 29  5  1  0  0  0  0
 29 31  1  1  0  0  0
 29 71  1  0  0  0  0
 30 33  1  0  0  0  0
 30 42  2  0  0  0  0
 31 44  1  0  0  0  0
 31 72  1  1  0  0  0
 32 40  1  0  0  0  0
 32 45  2  0  0  0  0
 33 36  2  0  0  0  0
 34 43  1  0  0  0  0
 35 43  2  0  0  0  0
 36 38  1  0  0  0  0
 36 46  1  0  0  0  0
 37 48  2  0  0  0  0
 37 49  1  0  0  0  0
 38 39  1  0  0  0  0
 38 73  1  0  0  0  0
 38 74  1  0  0  0  0
 39  8  1  0  0  0  0
 39 41  1  1  0  0  0
 39 75  1  0  0  0  0
 40 50  2  0  0  0  0
 41 51  1  0  0  0  0
 41 76  1  1  0  0  0
 42 47  1  0  0  0  0
 43 77  1  0  0  0  0
 44 54  2  0  0  0  0
 44 55  1  0  0  0  0
 45 52  1  0  0  0  0
 46 47  2  0  0  0  0
 47 79  1  0  0  0  0
 48 57  1  0  0  0  0
 48 81  1  0  0  0  0
 49 56  2  0  0  0  0
 49 82  1  0  0  0  0
 50 53  1  0  0  0  0
 50 83  1  0  0  0  0
 51 58  2  0  0  0  0
 51 59  1  0  0  0  0
 52 53  2  0  0  0  0
 52 84  1  0  0  0  0
 54 62  1  0  0  0  0
 54 87  1  0  0  0  0
 55 61  2  0  0  0  0
 55 88  1  0  0  0  0
 56 60  1  0  0  0  0
 57 60  2  0  0  0  0
 58 65  1  0  0  0  0
 58 91  1  0  0  0  0
 59 64  2  0  0  0  0
 59 92  1  0  0  0  0
 61 63  1  0  0  0  0
 62 63  2  0  0  0  0
 64 66  1  0  0  0  0
 65 66  2  0  0  0  0
M  END
>  <PUBCHEM_COMPOUND_CID>
71664720

>  <PUBCHEM_COMPOUND_CANONICALIZED>
1

>  <PUBCHEM_CACTVS_COMPLEXITY>
1610

>  <PUBCHEM_CACTVS_HBOND_ACCEPTOR>
21

>  <PUBCHEM_CACTVS_HBOND_DONOR>
18

>  <PUBCHEM_CACTVS_ROTATABLE_BOND>
5

>  <PUBCHEM_CACTVS_SUBSKEYS>
AAADcfB8PgAAAAAAAAAAAAAAAAAAAAAAAAA0aNGDAAAAAACRVAAAGgAACAAADRSgmAIwBoAABgCAAiBCAAACCAAgIAAAiAAGiIgNNyKGMRqCeCGlwBULuAfA4PwOoAADCAAIQABAAAYQABCAAAAAAAAAAA==

>  <PUBCHEM_IUPAC_OPENEYE_NAME>
(2R,3S,4R)-2-(3,4,5-trihydroxyphenyl)-4-[(2R,3S)-3,5,7-trihydroxy-2-(3,4,5-trihydroxyphenyl)chroman-8-yl]-8-[(2R,3S,4S)-3,5,7-trihydroxy-2-(3,4,5-trihydroxyphenyl)chroman-4-yl]chromane-3,5,7-triol

>  <PUBCHEM_IUPAC_CAS_NAME>
(2R,3S,4R)-2-(3,4,5-trihydroxyphenyl)-4-[(2R,3S)-3,5,7-trihydroxy-2-(3,4,5-trihydroxyphenyl)-3,4-dihydro-2H-1-benzopyran-8-yl]-8-[(2R,3S,4S)-3,5,7-trihydroxy-2-(3,4,5-trihydroxyphenyl)-3,4-dihydro-2H-1-benzopyran-4-yl]-3,4-dihydro-2H-1-benzopyran-3,5,7-triol

>  <PUBCHEM_IUPAC_NAME>
(2R,3S,4R)-2-(3,4,5-trihydroxyphenyl)-4-[(2R,3S)-3,5,7-trihydroxy-2-(3,4,5-trihydroxyphenyl)-3,4-dihydro-2H-chromen-8-yl]-8-[(2R,3S,4S)-3,5,7-trihydroxy-2-(3,4,5-trihydroxyphenyl)-3,4-dihydro-2H-chromen-4-yl]-3,4-dihydro-2H-chromene-3,5,7-triol

>  <PUBCHEM_IUPAC_SYSTEMATIC_NAME>
(2R,3S,4R)-2-[3,4,5-tris(oxidanyl)phenyl]-4-[(2R,3S)-3,5,7-tris(oxidanyl)-2-[3,4,5-tris(oxidanyl)phenyl]-3,4-dihydro-2H-chromen-8-yl]-8-[(2R,3S,4S)-3,5,7-tris(oxidanyl)-2-[3,4,5-tris(oxidanyl)phenyl]-3,4-dihydro-2H-chromen-4-yl]-3,4-dihydro-2H-chromene-3,5,7-triol

>  <PUBCHEM_IUPAC_TRADITIONAL_NAME>
(2R,3S,4R)-2-(3,4,5-trihydroxyphenyl)-4-[(2R,3S)-3,5,7-trihydroxy-2-(3,4,5-trihydroxyphenyl)chroman-8-yl]-8-[(2R,3S,4S)-3,5,7-trihydroxy-2-(3,4,5-trihydroxyphenyl)chroman-4-yl]chroman-3,5,7-triol

>  <PUBCHEM_IUPAC_INCHI>
InChI=1S/C45H38O21/c46-15-7-18(48)30-29(8-15)64-42(13-3-24(54)37(60)25(55)4-13)39(62)34(30)32-20(50)11-21(51)33-35(40(63)43(66-45(32)33)14-5-26(56)38(61)27(57)6-14)31-19(49)10-17(47)16-9-28(58)41(65-44(16)31)12-1-22(52)36(59)23(53)2-12/h1-8,10-11,28,34-35,39-43,46-63H,9H2/t28-,34-,35+,39-,40-,41+,42+,43+/m0/s1

>  <PUBCHEM_IUPAC_INCHIKEY>
NVTLDVSBUJGIAD-QHBXHTPSSA-N

>  <PUBCHEM_XLOGP3_AA>
2.2

>  <PUBCHEM_EXACT_MASS>
914.191

>  <PUBCHEM_MOLECULAR_FORMULA>
C45H38O21

>  <PUBCHEM_MOLECULAR_WEIGHT>
914.778

>  <PUBCHEM_OPENEYE_CAN_SMILES>
C1C(C(OC2=C1C(=CC(=C2C3C(C(OC4=C(C(=CC(=C34)O)O)C5C(C(OC6=CC(=CC(=C56)O)O)C7=CC(=C(C(=C7)O)O)O)O)C8=CC(=C(C(=C8)O)O)O)O)O)O)C9=CC(=C(C(=C9)O)O)O)O

>  <PUBCHEM_OPENEYE_ISO_SMILES>
C1[C@@H]([C@H](OC2=C1C(=CC(=C2[C@H]3[C@@H]([C@H](OC4=C(C(=CC(=C34)O)O)[C@H]5[C@@H]([C@H](OC6=CC(=CC(=C56)O)O)C7=CC(=C(C(=C7)O)O)O)O)C8=CC(=C(C(=C8)O)O)O)O)O)O)C9=CC(=C(C(=C9)O)O)O)O

>  <PUBCHEM_CACTVS_TPSA>
392

>  <PUBCHEM_MONOISOTOPIC_WEIGHT>
914.191

>  <PUBCHEM_TOTAL_CHARGE>
0

>  <PUBCHEM_HEAVY_ATOM_COUNT>
66

>  <PUBCHEM_ATOM_DEF_STEREO_COUNT>
8

>  <PUBCHEM_ATOM_UDEF_STEREO_COUNT>
0

>  <PUBCHEM_BOND_DEF_STEREO_COUNT>
0

>  <PUBCHEM_BOND_UDEF_STEREO_COUNT>
0

>  <PUBCHEM_ISOTOPIC_ATOM_COUNT>
0

>  <PUBCHEM_COMPONENT_COUNT>
1

>  <PUBCHEM_CACTVS_TAUTO_COUNT>
994

>  <PUBCHEM_COORDINATE_TYPE>
1
5
255

>  <PUBCHEM_BONDANNOTATIONS>
22  67  6
24  69  5
25  27  8
25  34  8
26  37  5
27  28  8
28  35  8
23  3  6
30  33  8
30  42  8
31  44  6
32  40  8
32  45  8
33  36  8
34  43  8
35  43  8
36  46  8
37  48  8
37  49  8
40  50  8
41  51  6
42  47  8
44  54  8
44  55  8
45  52  8
46  47  8
48  57  8
49  56  8
29  5  5
50  53  8
51  58  8
51  59  8
52  53  8
54  62  8
55  61  8
56  60  8
57  60  8
58  65  8
59  64  8
61  63  8
62  63  8
64  66  8
65  66  8
39  8  5

$$$$
