717531
 OpenBabel06101807152D

 27 27  0  0  0  0  0  0  0  0999 V2000
    2.8660   -2.0600    0.0000 O   0  0  0  0  0  0  0  0  0  0  0  0
    4.5981   -3.0600    0.0000 O   0  0  0  0  0  0  0  0  0  0  0  0
    6.3301    2.9400    0.0000 O   0  0  0  0  0  0  0  0  0  0  0  0
    4.5981    2.9400    0.0000 O   0  0  0  0  0  0  0  0  0  0  0  0
    4.5981   -0.0600    0.0000 C   0  0  0  0  0  0  0  0  0  0  0  0
    3.7320   -1.5600    0.0000 C   0  0  0  0  0  0  0  0  0  0  0  0
    4.5981   -2.0600    0.0000 C   0  0  0  0  0  0  0  0  0  0  0  0
    3.7320   -0.5600    0.0000 C   0  0  0  0  0  0  0  0  0  0  0  0
    5.4641   -0.5600    0.0000 C   0  0  0  0  0  0  0  0  0  0  0  0
    5.4641   -1.5600    0.0000 C   0  0  0  0  0  0  0  0  0  0  0  0
    4.5981    0.9400    0.0000 C   0  0  0  0  0  0  0  0  0  0  0  0
    5.4641    1.4400    0.0000 C   0  0  0  0  0  0  0  0  0  0  0  0
    2.0000   -1.5600    0.0000 C   0  0  0  0  0  0  0  0  0  0  0  0
    5.4641   -3.5600    0.0000 C   0  0  0  0  0  0  0  0  0  0  0  0
    5.4641    2.4400    0.0000 C   0  0  0  0  0  0  0  0  0  0  0  0
    3.1951   -0.2500    0.0000 H   0  0  0  0  0  0  0  0  0  0  0  0
    6.0010   -0.2500    0.0000 H   0  0  0  0  0  0  0  0  0  0  0  0
    6.0010   -1.8700    0.0000 H   0  0  0  0  0  0  0  0  0  0  0  0
    4.0611    1.2500    0.0000 H   0  0  0  0  0  0  0  0  0  0  0  0
    6.0010    1.1300    0.0000 H   0  0  0  0  0  0  0  0  0  0  0  0
    2.3100   -1.0231    0.0000 H   0  0  0  0  0  0  0  0  0  0  0  0
    1.4631   -1.2500    0.0000 H   0  0  0  0  0  0  0  0  0  0  0  0
    1.6900   -2.0969    0.0000 H   0  0  0  0  0  0  0  0  0  0  0  0
    5.1541   -4.0969    0.0000 H   0  0  0  0  0  0  0  0  0  0  0  0
    6.0010   -3.8700    0.0000 H   0  0  0  0  0  0  0  0  0  0  0  0
    5.7741   -3.0231    0.0000 H   0  0  0  0  0  0  0  0  0  0  0  0
    6.3301    3.5600    0.0000 H   0  0  0  0  0  0  0  0  0  0  0  0
  1  6  1  0  0  0  0
  1 13  1  0  0  0  0
  2  7  1  0  0  0  0
  2 14  1  0  0  0  0
  3 15  1  0  0  0  0
  3 27  1  0  0  0  0
  4 15  2  0  0  0  0
  5  8  2  0  0  0  0
  5  9  1  0  0  0  0
  5 11  1  0  0  0  0
  6  7  2  0  0  0  0
  6  8  1  0  0  0  0
  7 10  1  0  0  0  0
  8 16  1  0  0  0  0
  9 10  2  0  0  0  0
  9 17  1  0  0  0  0
 10 18  1  0  0  0  0
 11 12  2  0  0  0  0
 11 19  1  0  0  0  0
 12 15  1  0  0  0  0
 12 20  1  0  0  0  0
 13 21  1  0  0  0  0
 13 22  1  0  0  0  0
 13 23  1  0  0  0  0
 14 24  1  0  0  0  0
 14 25  1  0  0  0  0
 14 26  1  0  0  0  0
M  END
>  <PUBCHEM_COMPOUND_CID>
717531

>  <PUBCHEM_COMPOUND_CANONICALIZED>
1

>  <PUBCHEM_CACTVS_COMPLEXITY>
237

>  <PUBCHEM_CACTVS_HBOND_ACCEPTOR>
4

>  <PUBCHEM_CACTVS_HBOND_DONOR>
1

>  <PUBCHEM_CACTVS_ROTATABLE_BOND>
4

>  <PUBCHEM_CACTVS_SUBSKEYS>
AAADccBwOAAAAAAAAAAAAAAAAAAAAAAAAAAwAAAAAAAAAAABAAAAGgAACAAADASAmAIyDoAABgCIAiDSCAACCAAgIAAIiAAGiMgNJiKEMRqAMCIkwBEKuYeAwBAOIAABAAAAQABAAAIAAACAAAAAAAAAAA==

>  <PUBCHEM_IUPAC_OPENEYE_NAME>
(E)-3-(3,4-dimethoxyphenyl)prop-2-enoic acid

>  <PUBCHEM_IUPAC_CAS_NAME>
(E)-3-(3,4-dimethoxyphenyl)-2-propenoic acid

>  <PUBCHEM_IUPAC_NAME>
(E)-3-(3,4-dimethoxyphenyl)prop-2-enoic acid

>  <PUBCHEM_IUPAC_SYSTEMATIC_NAME>
(E)-3-(3,4-dimethoxyphenyl)prop-2-enoic acid

>  <PUBCHEM_IUPAC_TRADITIONAL_NAME>
(E)-3-(3,4-dimethoxyphenyl)acrylic acid

>  <PUBCHEM_IUPAC_INCHI>
InChI=1S/C11H12O4/c1-14-9-5-3-8(4-6-11(12)13)7-10(9)15-2/h3-7H,1-2H3,(H,12,13)/b6-4+

>  <PUBCHEM_IUPAC_INCHIKEY>
HJBWJAPEBGSQPR-GQCTYLIASA-N

>  <PUBCHEM_XLOGP3>
1.8

>  <PUBCHEM_EXACT_MASS>
208.074

>  <PUBCHEM_MOLECULAR_FORMULA>
C11H12O4

>  <PUBCHEM_MOLECULAR_WEIGHT>
208.213

>  <PUBCHEM_OPENEYE_CAN_SMILES>
COC1=C(C=C(C=C1)C=CC(=O)O)OC

>  <PUBCHEM_OPENEYE_ISO_SMILES>
COC1=C(C=C(C=C1)/C=C/C(=O)O)OC

>  <PUBCHEM_CACTVS_TPSA>
55.8

>  <PUBCHEM_MONOISOTOPIC_WEIGHT>
208.074

>  <PUBCHEM_TOTAL_CHARGE>
0

>  <PUBCHEM_HEAVY_ATOM_COUNT>
15

>  <PUBCHEM_ATOM_DEF_STEREO_COUNT>
0

>  <PUBCHEM_ATOM_UDEF_STEREO_COUNT>
0

>  <PUBCHEM_BOND_DEF_STEREO_COUNT>
1

>  <PUBCHEM_BOND_UDEF_STEREO_COUNT>
0

>  <PUBCHEM_ISOTOPIC_ATOM_COUNT>
0

>  <PUBCHEM_COMPONENT_COUNT>
1

>  <PUBCHEM_CACTVS_TAUTO_COUNT>
1

>  <PUBCHEM_COORDINATE_TYPE>
1
5
255

>  <PUBCHEM_BONDANNOTATIONS>
5  8  8
5  9  8
6  7  8
6  8  8
7  10  8
9  10  8

$$$$
