72193652
 OpenBabel06101807152D

 61 64  0  0  1  0  0  0  0  0999 V2000
    6.3301   -1.2857    0.0000 O   0  0  0  0  0  0  0  0  0  0  0  0
    8.0622   -1.2857    0.0000 O   0  0  0  0  0  0  0  0  0  0  0  0
    4.5981   -3.2857    0.0000 O   0  0  0  0  0  0  0  0  0  0  0  0
    6.3301   -4.2857    0.0000 O   0  0  0  0  0  0  0  0  0  0  0  0
    8.0622   -3.2857    0.0000 O   0  0  0  0  0  0  0  0  0  0  0  0
    3.7320   -1.7857    0.0000 O   0  0  0  0  0  0  0  0  0  0  0  0
    8.9282    1.2143    0.0000 O   0  3  0  0  0  0  0  0  0  0  0  0
    2.8660   -0.2857    0.0000 O   0  0  0  0  0  0  0  0  0  0  0  0
    5.4260    1.2112    0.0000 O   0  0  0  0  0  0  0  0  0  0  0  0
    7.1840    4.2836    0.0000 O   0  0  0  0  0  0  0  0  0  0  0  0
   10.6603   -2.7857    0.0000 O   0  0  0  0  0  0  0  0  0  0  0  0
   12.3923   -1.7857    0.0000 O   0  0  0  0  0  0  0  0  0  0  0  0
    5.4641   -2.7857    0.0000 C   0  0  1  0  0  0  0  0  0  0  0  0
    6.3301   -3.2857    0.0000 C   0  0  1  0  0  0  0  0  0  0  0  0
    5.4641   -1.7857    0.0000 C   0  0  1  0  0  0  0  0  0  0  0  0
    7.1962   -2.7857    0.0000 C   0  0  2  0  0  0  0  0  0  0  0  0
    7.1962   -1.7857    0.0000 C   0  0  1  0  0  0  0  0  0  0  0  0
    4.5981   -1.2857    0.0000 C   0  0  0  0  0  0  0  0  0  0  0  0
    8.0622   -0.2857    0.0000 C   0  0  0  0  0  0  0  0  0  0  0  0
    8.9282    0.2143    0.0000 C   0  0  0  0  0  0  0  0  0  0  0  0
    7.1962    0.2143    0.0000 C   0  0  0  0  0  0  0  0  0  0  0  0
    7.1962    1.2143    0.0000 C   0  0  0  0  0  0  0  0  0  0  0  0
    2.8660   -1.2857    0.0000 C   0  0  0  0  0  0  0  0  0  0  0  0
    8.0622    1.7143    0.0000 C   0  0  0  0  0  0  0  0  0  0  0  0
    9.7942   -0.2857    0.0000 C   0  0  0  0  0  0  0  0  0  0  0  0
    6.2862    1.7212    0.0000 C   0  0  0  0  0  0  0  0  0  0  0  0
    8.0782    2.7558    0.0000 C   0  0  0  0  0  0  0  0  0  0  0  0
    9.7942   -1.2857    0.0000 C   0  0  0  0  0  0  0  0  0  0  0  0
   10.6603    0.2143    0.0000 C   0  0  0  0  0  0  0  0  0  0  0  0
    2.0000   -1.7857    0.0000 C   0  0  0  0  0  0  0  0  0  0  0  0
    6.2781    2.7628    0.0000 C   0  0  0  0  0  0  0  0  0  0  0  0
    7.1802    3.2836    0.0000 C   0  0  0  0  0  0  0  0  0  0  0  0
   10.6603   -1.7857    0.0000 C   0  0  0  0  0  0  0  0  0  0  0  0
   11.5263   -0.2857    0.0000 C   0  0  0  0  0  0  0  0  0  0  0  0
   11.5263   -1.2857    0.0000 C   0  0  0  0  0  0  0  0  0  0  0  0
   11.5263   -3.2857    0.0000 C   0  0  0  0  0  0  0  0  0  0  0  0
    5.4641   -3.4057    0.0000 H   0  0  0  0  0  0  0  0  0  0  0  0
    6.8671   -3.5957    0.0000 H   0  0  0  0  0  0  0  0  0  0  0  0
    5.4641   -1.1657    0.0000 H   0  0  0  0  0  0  0  0  0  0  0  0
    7.7331   -2.4757    0.0000 H   0  0  0  0  0  0  0  0  0  0  0  0
    7.1962   -1.1657    0.0000 H   0  0  0  0  0  0  0  0  0  0  0  0
    4.9966   -0.8107    0.0000 H   0  0  0  0  0  0  0  0  0  0  0  0
    4.1996   -0.8107    0.0000 H   0  0  0  0  0  0  0  0  0  0  0  0
    4.5981   -3.9057    0.0000 H   0  0  0  0  0  0  0  0  0  0  0  0
    5.7932   -4.5957    0.0000 H   0  0  0  0  0  0  0  0  0  0  0  0
    8.0622   -3.9057    0.0000 H   0  0  0  0  0  0  0  0  0  0  0  0
    6.6592   -0.0957    0.0000 H   0  0  0  0  0  0  0  0  0  0  0  0
    8.6187    3.0596    0.0000 H   0  0  0  0  0  0  0  0  0  0  0  0
    9.2573   -1.5957    0.0000 H   0  0  0  0  0  0  0  0  0  0  0  0
   10.6603    0.8343    0.0000 H   0  0  0  0  0  0  0  0  0  0  0  0
    1.6900   -1.2487    0.0000 H   0  0  0  0  0  0  0  0  0  0  0  0
    1.4631   -2.0957    0.0000 H   0  0  0  0  0  0  0  0  0  0  0  0
    2.3100   -2.3226    0.0000 H   0  0  0  0  0  0  0  0  0  0  0  0
    5.7400    3.0707    0.0000 H   0  0  0  0  0  0  0  0  0  0  0  0
   12.0632    0.0243    0.0000 H   0  0  0  0  0  0  0  0  0  0  0  0
    4.8855    1.5150    0.0000 H   0  0  0  0  0  0  0  0  0  0  0  0
    6.6483    4.5957    0.0000 H   0  0  0  0  0  0  0  0  0  0  0  0
   12.9292   -1.4757    0.0000 H   0  0  0  0  0  0  0  0  0  0  0  0
   11.2163   -3.8226    0.0000 H   0  0  0  0  0  0  0  0  0  0  0  0
   12.0632   -3.5957    0.0000 H   0  0  0  0  0  0  0  0  0  0  0  0
   11.8363   -2.7487    0.0000 H   0  0  0  0  0  0  0  0  0  0  0  0
  1 15  1  0  0  0  0
  1 17  1  0  0  0  0
  2 19  1  0  0  0  0
  3 44  1  0  0  0  0
  4 45  1  0  0  0  0
  5 46  1  0  0  0  0
  6 18  1  0  0  0  0
  6 23  1  0  0  0  0
  7 20  2  0  0  0  0
  7 24  1  0  0  0  0
  8 23  2  0  0  0  0
  9 26  1  0  0  0  0
  9 56  1  0  0  0  0
 10 32  1  0  0  0  0
 10 57  1  0  0  0  0
 11 33  1  0  0  0  0
 11 36  1  0  0  0  0
 12 35  1  0  0  0  0
 12 58  1  0  0  0  0
 13  3  1  0  0  0  0
 13 14  1  6  0  0  0
 13 37  1  0  0  0  0
 14  4  1  0  0  0  0
 14 16  1  1  0  0  0
 14 38  1  0  0  0  0
 15 13  1  6  0  0  0
 15 18  1  0  0  0  0
 15 39  1  0  0  0  0
 16  5  1  0  0  0  0
 16 17  1  6  0  0  0
 16 40  1  0  0  0  0
 17  2  1  0  0  0  0
 17 41  1  6  0  0  0
 18 42  1  0  0  0  0
 18 43  1  0  0  0  0
 19 20  1  0  0  0  0
 19 21  2  0  0  0  0
 20 25  1  0  0  0  0
 21 22  1  0  0  0  0
 21 47  1  0  0  0  0
 22 24  1  0  0  0  0
 22 26  2  0  0  0  0
 23 30  1  0  0  0  0
 24 27  2  0  0  0  0
 25 28  2  0  0  0  0
 25 29  1  0  0  0  0
 26 31  1  0  0  0  0
 27 32  1  0  0  0  0
 27 48  1  0  0  0  0
 28 33  1  0  0  0  0
 28 49  1  0  0  0  0
 29 34  2  0  0  0  0
 29 50  1  0  0  0  0
 30 51  1  0  0  0  0
 30 52  1  0  0  0  0
 30 53  1  0  0  0  0
 31 32  2  0  0  0  0
 31 54  1  0  0  0  0
 33 35  2  0  0  0  0
 34 35  1  0  0  0  0
 34 55  1  0  0  0  0
 36 59  1  0  0  0  0
 36 60  1  0  0  0  0
 36 61  1  0  0  0  0
M  CHG  1   7   1
M  END
>  <PUBCHEM_COMPOUND_CID>
72193652

>  <PUBCHEM_COMPOUND_CANONICALIZED>
1

>  <PUBCHEM_CACTVS_COMPLEXITY>
738

>  <PUBCHEM_CACTVS_HBOND_ACCEPTOR>
11

>  <PUBCHEM_CACTVS_HBOND_DONOR>
6

>  <PUBCHEM_CACTVS_ROTATABLE_BOND>
7

>  <PUBCHEM_CACTVS_SUBSKEYS>
AAADceB4PAAAAAAAAAAAAAAAAAAAAAAAAAA0aIEAAAAAAACR9AAAGgAACAAADBSwmAMyDsAABkCIAqDSCAICCAAkIAAIiAFGiMgdNzaGNR6ieWOl4BUPuYfK7PzOIAABCAAIQABAAAIQABCAAAAAAAAAAA==

>  <PUBCHEM_IUPAC_OPENEYE_NAME>
[(2R,3S,4S,5R,6S)-6-[5,7-dihydroxy-2-(4-hydroxy-3-methoxy-phenyl)chromenylium-3-yl]oxy-3,4,5-trihydroxy-tetrahydropyran-2-yl]methyl acetate

>  <PUBCHEM_IUPAC_CAS_NAME>
acetic acid [(2R,3S,4S,5R,6S)-6-[[5,7-dihydroxy-2-(4-hydroxy-3-methoxyphenyl)-1-benzopyrylium-3-yl]oxy]-3,4,5-trihydroxy-2-oxanyl]methyl ester

>  <PUBCHEM_IUPAC_NAME>
[(2R,3S,4S,5R,6S)-6-[5,7-dihydroxy-2-(4-hydroxy-3-methoxyphenyl)chromenylium-3-yl]oxy-3,4,5-trihydroxyoxan-2-yl]methyl acetate

>  <PUBCHEM_IUPAC_SYSTEMATIC_NAME>
[(2R,3S,4S,5R,6S)-6-[2-(3-methoxy-4-oxidanyl-phenyl)-5,7-bis(oxidanyl)chromenylium-3-yl]oxy-3,4,5-tris(oxidanyl)oxan-2-yl]methyl ethanoate

>  <PUBCHEM_IUPAC_TRADITIONAL_NAME>
acetic acid [(2R,3S,4S,5R,6S)-6-[[5,7-dihydroxy-2-(4-hydroxy-3-methoxy-phenyl)-1-benzopyrylium-3-yl]oxy]-3,4,5-trihydroxy-tetrahydropyran-2-yl]methyl ester

>  <PUBCHEM_IUPAC_INCHI>
InChI=1S/C24H24O12/c1-10(25)33-9-19-20(29)21(30)22(31)24(36-19)35-18-8-13-15(28)6-12(26)7-16(13)34-23(18)11-3-4-14(27)17(5-11)32-2/h3-8,19-22,24,29-31H,9H2,1-2H3,(H2-,26,27,28)/p+1/t19-,20-,21+,22-,24-/m1/s1

>  <PUBCHEM_IUPAC_INCHIKEY>
MBSKDCPWFSMEFD-WKKMNAASSA-O

>  <PUBCHEM_EXACT_MASS>
505.135

>  <PUBCHEM_MOLECULAR_FORMULA>
C24H25O12+

>  <PUBCHEM_MOLECULAR_WEIGHT>
505.452

>  <PUBCHEM_OPENEYE_CAN_SMILES>
CC(=O)OCC1C(C(C(C(O1)OC2=C([O+]=C3C=C(C=C(C3=C2)O)O)C4=CC(=C(C=C4)O)OC)O)O)O

>  <PUBCHEM_OPENEYE_ISO_SMILES>
CC(=O)OC[C@@H]1[C@H]([C@@H]([C@H]([C@@H](O1)OC2=C([O+]=C3C=C(C=C(C3=C2)O)O)C4=CC(=C(C=C4)O)OC)O)O)O

>  <PUBCHEM_CACTVS_TPSA>
176

>  <PUBCHEM_MONOISOTOPIC_WEIGHT>
505.135

>  <PUBCHEM_TOTAL_CHARGE>
1

>  <PUBCHEM_HEAVY_ATOM_COUNT>
36

>  <PUBCHEM_ATOM_DEF_STEREO_COUNT>
5

>  <PUBCHEM_ATOM_UDEF_STEREO_COUNT>
0

>  <PUBCHEM_BOND_DEF_STEREO_COUNT>
0

>  <PUBCHEM_BOND_UDEF_STEREO_COUNT>
0

>  <PUBCHEM_ISOTOPIC_ATOM_COUNT>
0

>  <PUBCHEM_COMPONENT_COUNT>
1

>  <PUBCHEM_CACTVS_TAUTO_COUNT>
65

>  <PUBCHEM_COORDINATE_TYPE>
1
5
255

>  <PUBCHEM_BONDANNOTATIONS>
15  18  5
19  20  8
19  21  8
17  2  5
21  22  8
22  24  8
22  26  8
24  27  8
25  28  8
25  29  8
26  31  8
27  32  8
28  33  8
29  34  8
13  3  6
31  32  8
33  35  8
34  35  8
14  4  5
16  5  6
7  20  8
7  24  8

$$$$
