72423
 OpenBabel06101807152D

 98102  0  0  0  0  0  0  0  0999 V2000
   10.7879    4.5009    0.0000 O   0  0  0  0  0  0  0  0  0  0  0  0
    2.5369   -1.0174    0.0000 O   0  0  0  0  0  0  0  0  0  0  0  0
   10.6327    2.7758    0.0000 O   0  0  0  0  0  0  0  0  0  0  0  0
    3.4029    0.4826    0.0000 O   0  0  0  0  0  0  0  0  0  0  0  0
    7.2563    6.3978    0.0000 O   0  0  0  0  0  0  0  0  0  0  0  0
    3.7961    3.6788    0.0000 O   0  0  0  0  0  0  0  0  0  0  0  0
    6.6386   -5.3901    0.0000 O   0  0  0  0  0  0  0  0  0  0  0  0
   13.7299   -1.2973    0.0000 O   0  0  0  0  0  0  0  0  0  0  0  0
    5.8614    5.3711    0.0000 O   0  0  0  0  0  0  0  0  0  0  0  0
    2.7474    2.3003    0.0000 O   0  0  0  0  0  0  0  0  0  0  0  0
    8.2871   -4.8584    0.0000 O   0  0  0  0  0  0  0  0  0  0  0  0
   13.0536    0.2972    0.0000 O   0  0  0  0  0  0  0  0  0  0  0  0
   12.5505    3.7126    0.0000 O   0  0  0  0  0  0  0  0  0  0  0  0
    9.0576   -6.3978    0.0000 O   0  0  0  0  0  0  0  0  0  0  0  0
   13.5995    2.3343    0.0000 O   0  0  0  0  0  0  0  0  0  0  0  0
   10.4525   -5.3711    0.0000 O   0  0  0  0  0  0  0  0  0  0  0  0
    8.1402    1.3528    0.0000 N   0  0  0  0  0  0  0  0  0  0  0  0
    6.6702   -0.0167    0.0000 N   0  0  0  0  0  0  0  0  0  0  0  0
    9.6754   -0.0167    0.0000 N   0  0  0  0  0  0  0  0  0  0  0  0
    8.1737   -1.3862    0.0000 N   0  0  0  0  0  0  0  0  0  0  0  0
    7.6396    2.9550    0.0000 C   0  0  0  0  0  0  0  0  0  0  0  0
    5.1350    0.4838    0.0000 C   0  0  0  0  0  0  0  0  0  0  0  0
    7.3383    1.9873    0.0000 C   0  0  0  0  0  0  0  0  0  0  0  0
    6.1027    0.7517    0.0000 C   0  0  0  0  0  0  0  0  0  0  0  0
    8.6408    2.9550    0.0000 C   0  0  0  0  0  0  0  0  0  0  0  0
    5.1350   -0.5173    0.0000 C   0  0  0  0  0  0  0  0  0  0  0  0
    8.9756    2.0208    0.0000 C   0  0  0  0  0  0  0  0  0  0  0  0
    6.1027   -0.7852    0.0000 C   0  0  0  0  0  0  0  0  0  0  0  0
    6.3706    1.7194    0.0000 C   0  0  0  0  0  0  0  0  0  0  0  0
    7.0469    3.7604    0.0000 C   0  0  0  0  0  0  0  0  0  0  0  0
    4.3391    1.0893    0.0000 C   0  0  0  0  0  0  0  0  0  0  0  0
   11.2124    0.5173    0.0000 C   0  0  0  0  0  0  0  0  0  0  0  0
   10.2430    0.7852    0.0000 C   0  0  0  0  0  0  0  0  0  0  0  0
    8.6743   -2.9550    0.0000 C   0  0  0  0  0  0  0  0  0  0  0  0
    7.6731   -2.9550    0.0000 C   0  0  0  0  0  0  0  0  0  0  0  0
    7.3717   -2.0208    0.0000 C   0  0  0  0  0  0  0  0  0  0  0  0
    9.9433    1.7194    0.0000 C   0  0  0  0  0  0  0  0  0  0  0  0
   11.2124   -0.4838    0.0000 C   0  0  0  0  0  0  0  0  0  0  0  0
    6.4040   -1.7194    0.0000 C   0  0  0  0  0  0  0  0  0  0  0  0
    8.9756   -1.9873    0.0000 C   0  0  0  0  0  0  0  0  0  0  0  0
    9.2164    3.7727    0.0000 C   0  0  0  0  0  0  0  0  0  0  0  0
   10.2765   -0.7517    0.0000 C   0  0  0  0  0  0  0  0  0  0  0  0
    4.2690   -1.0173    0.0000 C   0  0  0  0  0  0  0  0  0  0  0  0
   12.0081    1.1230    0.0000 C   0  0  0  0  0  0  0  0  0  0  0  0
    9.2670   -3.7604    0.0000 C   0  0  0  0  0  0  0  0  0  0  0  0
    9.9768   -1.7194    0.0000 C   0  0  0  0  0  0  0  0  0  0  0  0
    7.4480    4.6764    0.0000 C   0  0  0  0  0  0  0  0  0  0  0  0
    4.4656    2.0813    0.0000 C   0  0  0  0  0  0  0  0  0  0  0  0
    7.0024   -3.6967    0.0000 C   0  0  0  0  0  0  0  0  0  0  0  0
   12.0109   -1.0858    0.0000 C   0  0  0  0  0  0  0  0  0  0  0  0
   11.8814    2.1149    0.0000 C   0  0  0  0  0  0  0  0  0  0  0  0
    8.8659   -4.6764    0.0000 C   0  0  0  0  0  0  0  0  0  0  0  0
   10.2123    3.6831    0.0000 C   0  0  0  0  0  0  0  0  0  0  0  0
    3.4030   -0.5174    0.0000 C   0  0  0  0  0  0  0  0  0  0  0  0
    6.8552    5.4818    0.0000 C   0  0  0  0  0  0  0  0  0  0  0  0
    3.6697    2.6868    0.0000 C   0  0  0  0  0  0  0  0  0  0  0  0
    7.3094   -4.6484    0.0000 C   0  0  0  0  0  0  0  0  0  0  0  0
   12.9314   -0.6953    0.0000 C   0  0  0  0  0  0  0  0  0  0  0  0
   12.6771    2.7206    0.0000 C   0  0  0  0  0  0  0  0  0  0  0  0
    9.4587   -5.4818    0.0000 C   0  0  0  0  0  0  0  0  0  0  0  0
    5.9322    2.1578    0.0000 H   0  0  0  0  0  0  0  0  0  0  0  0
    8.1418    0.7328    0.0000 H   0  0  0  0  0  0  0  0  0  0  0  0
    7.2902   -0.0167    0.0000 H   0  0  0  0  0  0  0  0  0  0  0  0
    6.5307    4.1039    0.0000 H   0  0  0  0  0  0  0  0  0  0  0  0
    6.6189    3.3117    0.0000 H   0  0  0  0  0  0  0  0  0  0  0  0
    3.7471    1.2733    0.0000 H   0  0  0  0  0  0  0  0  0  0  0  0
    4.0551    0.5382    0.0000 H   0  0  0  0  0  0  0  0  0  0  0  0
   10.3799    2.1597    0.0000 H   0  0  0  0  0  0  0  0  0  0  0  0
    5.9679   -2.1600    0.0000 H   0  0  0  0  0  0  0  0  0  0  0  0
    9.3783    4.3712    0.0000 H   0  0  0  0  0  0  0  0  0  0  0  0
    8.6551    4.0361    0.0000 H   0  0  0  0  0  0  0  0  0  0  0  0
    3.8705   -1.4923    0.0000 H   0  0  0  0  0  0  0  0  0  0  0  0
    4.6675   -1.4923    0.0000 H   0  0  0  0  0  0  0  0  0  0  0  0
   12.2922    0.5719    0.0000 H   0  0  0  0  0  0  0  0  0  0  0  0
   12.6001    1.3071    0.0000 H   0  0  0  0  0  0  0  0  0  0  0  0
    9.7831   -4.1039    0.0000 H   0  0  0  0  0  0  0  0  0  0  0  0
    9.6950   -3.3117    0.0000 H   0  0  0  0  0  0  0  0  0  0  0  0
   10.4066   -2.1662    0.0000 H   0  0  0  0  0  0  0  0  0  0  0  0
    7.9641    4.3328    0.0000 H   0  0  0  0  0  0  0  0  0  0  0  0
    7.8759    5.1250    0.0000 H   0  0  0  0  0  0  0  0  0  0  0  0
    5.0576    1.8973    0.0000 H   0  0  0  0  0  0  0  0  0  0  0  0
    4.7496    2.6324    0.0000 H   0  0  0  0  0  0  0  0  0  0  0  0
    6.6217   -3.2073    0.0000 H   0  0  0  0  0  0  0  0  0  0  0  0
    6.4543   -3.9866    0.0000 H   0  0  0  0  0  0  0  0  0  0  0  0
   11.5573   -1.5086    0.0000 H   0  0  0  0  0  0  0  0  0  0  0  0
   12.3484   -1.6059    0.0000 H   0  0  0  0  0  0  0  0  0  0  0  0
   11.5973    2.6660    0.0000 H   0  0  0  0  0  0  0  0  0  0  0  0
   11.2894    1.9308    0.0000 H   0  0  0  0  0  0  0  0  0  0  0  0
    8.3498   -4.3328    0.0000 H   0  0  0  0  0  0  0  0  0  0  0  0
    8.4380   -5.1250    0.0000 H   0  0  0  0  0  0  0  0  0  0  0  0
   10.5273    5.0634    0.0000 H   0  0  0  0  0  0  0  0  0  0  0  0
    2.0000   -0.7074    0.0000 H   0  0  0  0  0  0  0  0  0  0  0  0
    6.8888    6.8971    0.0000 H   0  0  0  0  0  0  0  0  0  0  0  0
    3.3027    4.0541    0.0000 H   0  0  0  0  0  0  0  0  0  0  0  0
    6.8290   -5.9802    0.0000 H   0  0  0  0  0  0  0  0  0  0  0  0
   14.3007   -1.0552    0.0000 H   0  0  0  0  0  0  0  0  0  0  0  0
   13.0438    4.0881    0.0000 H   0  0  0  0  0  0  0  0  0  0  0  0
    9.4251   -6.8971    0.0000 H   0  0  0  0  0  0  0  0  0  0  0  0
  1 53  1  0  0  0  0
  1 91  1  0  0  0  0
  2 54  1  0  0  0  0
  2 92  1  0  0  0  0
  3 53  2  0  0  0  0
  4 54  2  0  0  0  0
  5 55  1  0  0  0  0
  5 93  1  0  0  0  0
  6 56  1  0  0  0  0
  6 94  1  0  0  0  0
  7 57  1  0  0  0  0
  7 95  1  0  0  0  0
  8 58  1  0  0  0  0
  8 96  1  0  0  0  0
  9 55  2  0  0  0  0
 10 56  2  0  0  0  0
 11 57  2  0  0  0  0
 12 58  2  0  0  0  0
 13 59  1  0  0  0  0
 13 97  1  0  0  0  0
 14 60  1  0  0  0  0
 14 98  1  0  0  0  0
 15 59  2  0  0  0  0
 16 60  2  0  0  0  0
 17 23  1  0  0  0  0
 17 27  1  0  0  0  0
 17 62  1  0  0  0  0
 18 24  1  0  0  0  0
 18 28  1  0  0  0  0
 18 63  1  0  0  0  0
 19 33  2  0  0  0  0
 19 42  1  0  0  0  0
 20 36  1  0  0  0  0
 20 40  2  0  0  0  0
 21 23  1  0  0  0  0
 21 25  2  0  0  0  0
 21 30  1  0  0  0  0
 22 24  2  0  0  0  0
 22 26  1  0  0  0  0
 22 31  1  0  0  0  0
 23 29  2  0  0  0  0
 24 29  1  0  0  0  0
 25 27  1  0  0  0  0
 25 41  1  0  0  0  0
 26 28  2  0  0  0  0
 26 43  1  0  0  0  0
 27 37  2  0  0  0  0
 28 39  1  0  0  0  0
 29 61  1  0  0  0  0
 30 47  1  0  0  0  0
 30 64  1  0  0  0  0
 30 65  1  0  0  0  0
 31 48  1  0  0  0  0
 31 66  1  0  0  0  0
 31 67  1  0  0  0  0
 32 33  1  0  0  0  0
 32 38  2  0  0  0  0
 32 44  1  0  0  0  0
 33 37  1  0  0  0  0
 34 35  2  0  0  0  0
 34 40  1  0  0  0  0
 34 45  1  0  0  0  0
 35 36  1  0  0  0  0
 35 49  1  0  0  0  0
 36 39  2  0  0  0  0
 37 68  1  0  0  0  0
 38 42  1  0  0  0  0
 38 50  1  0  0  0  0
 39 69  1  0  0  0  0
 40 46  1  0  0  0  0
 41 53  1  0  0  0  0
 41 70  1  0  0  0  0
 41 71  1  0  0  0  0
 42 46  2  0  0  0  0
 43 54  1  0  0  0  0
 43 72  1  0  0  0  0
 43 73  1  0  0  0  0
 44 51  1  0  0  0  0
 44 74  1  0  0  0  0
 44 75  1  0  0  0  0
 45 52  1  0  0  0  0
 45 76  1  0  0  0  0
 45 77  1  0  0  0  0
 46 78  1  0  0  0  0
 47 55  1  0  0  0  0
 47 79  1  0  0  0  0
 47 80  1  0  0  0  0
 48 56  1  0  0  0  0
 48 81  1  0  0  0  0
 48 82  1  0  0  0  0
 49 57  1  0  0  0  0
 49 83  1  0  0  0  0
 49 84  1  0  0  0  0
 50 58  1  0  0  0  0
 50 85  1  0  0  0  0
 50 86  1  0  0  0  0
 51 59  1  0  0  0  0
 51 87  1  0  0  0  0
 51 88  1  0  0  0  0
 52 60  1  0  0  0  0
 52 89  1  0  0  0  0
 52 90  1  0  0  0  0
M  END
>  <PUBCHEM_COMPOUND_CID>
72423

>  <PUBCHEM_COMPOUND_CANONICALIZED>
1

>  <PUBCHEM_CACTVS_COMPLEXITY>
1630

>  <PUBCHEM_CACTVS_HBOND_ACCEPTOR>
18

>  <PUBCHEM_CACTVS_HBOND_DONOR>
10

>  <PUBCHEM_CACTVS_ROTATABLE_BOND>
20

>  <PUBCHEM_CACTVS_SUBSKEYS>
AAADcfB/vgAAAAAAAAAAAAAAAAAAAWLFiwAAAAAAAAAAAAAB/gAAHgAQCAAADAiBngAwyLLJkgCoAyTyTACCgCAhAiAAmSEwZJgIIHLA1NGEZAhk0AHIyAe82fOegAAAAAAAAAAAAAAAAAAAAAAAAAAAAA==

>  <PUBCHEM_IUPAC_OPENEYE_NAME>
3-[7,12,18-tris(2-carboxyethyl)-3,8,13,17-tetrakis(carboxymethyl)-21,24-dihydroporphyrin-2-yl]propanoic acid

>  <PUBCHEM_IUPAC_CAS_NAME>
3-[7,12,18-tris(2-carboxyethyl)-3,8,13,17-tetrakis(carboxymethyl)-21,24-dihydroporphyrin-2-yl]propanoic acid

>  <PUBCHEM_IUPAC_NAME>
3-[7,12,18-tris(2-carboxyethyl)-3,8,13,17-tetrakis(carboxymethyl)-21,24-dihydroporphyrin-2-yl]propanoic acid

>  <PUBCHEM_IUPAC_SYSTEMATIC_NAME>
3-[3,8,13,17-tetrakis(2-hydroxy-2-oxoethyl)-7,12,18-tris(3-hydroxy-3-oxopropyl)-21,24-dihydroporphyrin-2-yl]propanoic acid

>  <PUBCHEM_IUPAC_TRADITIONAL_NAME>
3-[7,12,18-tris(2-carboxyethyl)-3,8,13,17-tetrakis(carboxymethyl)-21,24-dihydroporphin-2-yl]propionic acid

>  <PUBCHEM_IUPAC_INCHI>
InChI=1S/C40H38N4O16/c45-33(46)5-1-17-21(9-37(53)54)29-14-27-19(3-7-35(49)50)22(10-38(55)56)30(43-27)15-28-20(4-8-36(51)52)24(12-40(59)60)32(44-28)16-31-23(11-39(57)58)18(2-6-34(47)48)26(42-31)13-25(17)41-29/h13-16,41-42H,1-12H2,(H,45,46)(H,47,48)(H,49,50)(H,51,52)(H,53,54)(H,55,56)(H,57,58)(H,59,60)

>  <PUBCHEM_IUPAC_INCHIKEY>
PMCXJBQHQIFCOG-UHFFFAOYSA-N

>  <PUBCHEM_XLOGP3_AA>
-1

>  <PUBCHEM_EXACT_MASS>
830.228

>  <PUBCHEM_MOLECULAR_FORMULA>
C40H38N4O16

>  <PUBCHEM_MOLECULAR_WEIGHT>
830.756

>  <PUBCHEM_OPENEYE_CAN_SMILES>
C1=C2C(=C(C(=CC3=NC(=CC4=NC(=CC5=C(C(=C1N5)CCC(=O)O)CC(=O)O)C(=C4CC(=O)O)CCC(=O)O)C(=C3CC(=O)O)CCC(=O)O)N2)CC(=O)O)CCC(=O)O

>  <PUBCHEM_OPENEYE_ISO_SMILES>
C1=C2C(=C(C(=CC3=NC(=CC4=NC(=CC5=C(C(=C1N5)CCC(=O)O)CC(=O)O)C(=C4CC(=O)O)CCC(=O)O)C(=C3CC(=O)O)CCC(=O)O)N2)CC(=O)O)CCC(=O)O

>  <PUBCHEM_CACTVS_TPSA>
356

>  <PUBCHEM_MONOISOTOPIC_WEIGHT>
830.228

>  <PUBCHEM_TOTAL_CHARGE>
0

>  <PUBCHEM_HEAVY_ATOM_COUNT>
60

>  <PUBCHEM_ATOM_DEF_STEREO_COUNT>
0

>  <PUBCHEM_ATOM_UDEF_STEREO_COUNT>
0

>  <PUBCHEM_BOND_DEF_STEREO_COUNT>
0

>  <PUBCHEM_BOND_UDEF_STEREO_COUNT>
0

>  <PUBCHEM_ISOTOPIC_ATOM_COUNT>
0

>  <PUBCHEM_COMPONENT_COUNT>
1

>  <PUBCHEM_CACTVS_TAUTO_COUNT>
6

>  <PUBCHEM_COORDINATE_TYPE>
1
5
255

>  <PUBCHEM_BONDANNOTATIONS>
17  23  8
17  27  8
18  24  8
18  28  8
19  33  8
19  42  8
20  36  8
20  40  8
21  23  8
21  25  8
22  24  8
22  26  8
23  29  8
24  29  8
25  27  8
26  28  8
27  37  8
28  39  8
33  37  8
36  39  8
40  46  8
42  46  8

$$$$
