72551457
 OpenBabel06101807152D

 37 37  0  0  1  0  0  0  0  0999 V2000
    6.3301    1.3450    0.0000 O   0  0  0  0  0  0  0  0  0  0  0  0
    8.0622    2.3450    0.0000 O   0  0  0  0  0  0  0  0  0  0  0  0
    5.4641    3.8450    0.0000 O   0  0  0  0  0  0  0  0  0  0  0  0
    2.8660   -3.6550    0.0000 O   0  0  0  0  0  0  0  0  0  0  0  0
    8.0622    4.3450    0.0000 O   0  0  0  0  0  0  0  0  0  0  0  0
    4.5981    2.3450    0.0000 O   0  0  0  0  0  0  0  0  0  0  0  0
    6.3301    4.3450    0.0000 O   0  0  0  0  0  0  0  0  0  0  0  0
    4.5981   -4.6550    0.0000 O   0  0  0  0  0  0  0  0  0  0  0  0
    4.5981    1.3450    0.0000 O   0  0  0  0  0  0  0  0  0  0  0  0
    6.3301    2.3450    0.0000 C   0  0  2  0  0  0  0  0  0  0  0  0
    7.1962    2.8450    0.0000 C   0  0  2  0  0  0  0  0  0  0  0  0
    5.4641    2.8450    0.0000 C   0  0  0  0  0  0  0  0  0  0  0  0
    4.5981   -1.6550    0.0000 C   0  0  0  0  0  0  0  0  0  0  0  0
    7.1962    3.8450    0.0000 C   0  0  0  0  0  0  0  0  0  0  0  0
    3.7320   -2.1550    0.0000 C   0  0  0  0  0  0  0  0  0  0  0  0
    5.4641    0.8450    0.0000 C   0  0  0  0  0  0  0  0  0  0  0  0
    4.5981   -0.6550    0.0000 C   0  0  0  0  0  0  0  0  0  0  0  0
    3.7320   -3.1550    0.0000 C   0  0  0  0  0  0  0  0  0  0  0  0
    5.4641   -2.1550    0.0000 C   0  0  0  0  0  0  0  0  0  0  0  0
    5.4641   -0.1550    0.0000 C   0  0  0  0  0  0  0  0  0  0  0  0
    4.5981   -3.6550    0.0000 C   0  0  0  0  0  0  0  0  0  0  0  0
    5.4641   -3.1550    0.0000 C   0  0  0  0  0  0  0  0  0  0  0  0
    2.0000   -3.1550    0.0000 C   0  0  0  0  0  0  0  0  0  0  0  0
    6.8671    2.0350    0.0000 H   0  0  0  0  0  0  0  0  0  0  0  0
    7.7331    3.1550    0.0000 H   0  0  0  0  0  0  0  0  0  0  0  0
    3.1951   -1.8450    0.0000 H   0  0  0  0  0  0  0  0  0  0  0  0
    4.0611   -0.3450    0.0000 H   0  0  0  0  0  0  0  0  0  0  0  0
    6.0010   -1.8450    0.0000 H   0  0  0  0  0  0  0  0  0  0  0  0
    6.0010   -0.4650    0.0000 H   0  0  0  0  0  0  0  0  0  0  0  0
    8.5991    2.6550    0.0000 H   0  0  0  0  0  0  0  0  0  0  0  0
    6.0010   -3.4650    0.0000 H   0  0  0  0  0  0  0  0  0  0  0  0
    4.9272    4.1550    0.0000 H   0  0  0  0  0  0  0  0  0  0  0  0
    8.0622    4.9650    0.0000 H   0  0  0  0  0  0  0  0  0  0  0  0
    5.1350   -4.9650    0.0000 H   0  0  0  0  0  0  0  0  0  0  0  0
    2.3100   -2.6181    0.0000 H   0  0  0  0  0  0  0  0  0  0  0  0
    1.4631   -2.8450    0.0000 H   0  0  0  0  0  0  0  0  0  0  0  0
    1.6900   -3.6919    0.0000 H   0  0  0  0  0  0  0  0  0  0  0  0
  1 16  1  0  0  0  0
  2 30  1  0  0  0  0
  3 12  1  0  0  0  0
  3 32  1  0  0  0  0
  4 18  1  0  0  0  0
  4 23  1  0  0  0  0
  5 14  1  0  0  0  0
  5 33  1  0  0  0  0
  6 12  2  0  0  0  0
  7 14  2  0  0  0  0
  8 21  1  0  0  0  0
  8 34  1  0  0  0  0
  9 16  2  0  0  0  0
 10  1  1  0  0  0  0
 10 11  1  0  0  0  0
 10 12  1  0  0  0  0
 10 24  1  6  0  0  0
 11  2  1  0  0  0  0
 11 14  1  0  0  0  0
 11 25  1  1  0  0  0
 13 15  2  0  0  0  0
 13 17  1  0  0  0  0
 13 19  1  0  0  0  0
 15 18  1  0  0  0  0
 15 26  1  0  0  0  0
 16 20  1  0  0  0  0
 17 20  2  0  0  0  0
 17 27  1  0  0  0  0
 18 21  2  0  0  0  0
 19 22  2  0  0  0  0
 19 28  1  0  0  0  0
 20 29  1  0  0  0  0
 21 22  1  0  0  0  0
 22 31  1  0  0  0  0
 23 35  1  0  0  0  0
 23 36  1  0  0  0  0
 23 37  1  0  0  0  0
M  END
>  <PUBCHEM_COMPOUND_CID>
72551457

>  <PUBCHEM_COMPOUND_CANONICALIZED>
1

>  <PUBCHEM_CACTVS_COMPLEXITY>
473

>  <PUBCHEM_CACTVS_HBOND_ACCEPTOR>
9

>  <PUBCHEM_CACTVS_HBOND_DONOR>
4

>  <PUBCHEM_CACTVS_ROTATABLE_BOND>
8

>  <PUBCHEM_CACTVS_SUBSKEYS>
AAADccBwPAAAAAAAAAAAAAAAAAAAAAAAAAAwAAAAAAAAAAABAAAAGgAACAAADBSgmAIyDoAABgCIAiDSCAICCAAgIAAIiAFGiMgNNjaGMR6CcCMl4BELuYfDwBAOIAABAAAAQABAAAIAAACAAAAAAAAAAA==

>  <PUBCHEM_IUPAC_OPENEYE_NAME>
(2R,3R)-2-hydroxy-3-[(E)-3-(4-hydroxy-3-methoxy-phenyl)prop-2-enoyl]oxy-butanedioic acid

>  <PUBCHEM_IUPAC_CAS_NAME>
(2R,3R)-2-hydroxy-3-[(E)-3-(4-hydroxy-3-methoxyphenyl)-1-oxoprop-2-enoxy]butanedioic acid

>  <PUBCHEM_IUPAC_NAME>
(2R,3R)-2-hydroxy-3-[(E)-3-(4-hydroxy-3-methoxyphenyl)prop-2-enoyl]oxybutanedioic acid

>  <PUBCHEM_IUPAC_SYSTEMATIC_NAME>
(2R,3R)-2-[(E)-3-(3-methoxy-4-oxidanyl-phenyl)prop-2-enoyl]oxy-3-oxidanyl-butanedioic acid

>  <PUBCHEM_IUPAC_TRADITIONAL_NAME>
(2R,3R)-2-hydroxy-3-[(E)-3-(4-hydroxy-3-methoxy-phenyl)acryloyl]oxy-succinic acid

>  <PUBCHEM_IUPAC_INCHI>
InChI=1S/C14H14O9/c1-22-9-6-7(2-4-8(9)15)3-5-10(16)23-12(14(20)21)11(17)13(18)19/h2-6,11-12,15,17H,1H3,(H,18,19)(H,20,21)/b5-3+/t11-,12-/m1/s1

>  <PUBCHEM_IUPAC_INCHIKEY>
XIWXUSFCUBAMFH-WEPHUFDCSA-N

>  <PUBCHEM_XLOGP3_AA>
0.4

>  <PUBCHEM_EXACT_MASS>
326.064

>  <PUBCHEM_MOLECULAR_FORMULA>
C14H14O9

>  <PUBCHEM_MOLECULAR_WEIGHT>
326.257

>  <PUBCHEM_OPENEYE_CAN_SMILES>
COC1=C(C=CC(=C1)C=CC(=O)OC(C(C(=O)O)O)C(=O)O)O

>  <PUBCHEM_OPENEYE_ISO_SMILES>
COC1=C(C=CC(=C1)/C=C/C(=O)O[C@H]([C@H](C(=O)O)O)C(=O)O)O

>  <PUBCHEM_CACTVS_TPSA>
151

>  <PUBCHEM_MONOISOTOPIC_WEIGHT>
326.064

>  <PUBCHEM_TOTAL_CHARGE>
0

>  <PUBCHEM_HEAVY_ATOM_COUNT>
23

>  <PUBCHEM_ATOM_DEF_STEREO_COUNT>
2

>  <PUBCHEM_ATOM_UDEF_STEREO_COUNT>
0

>  <PUBCHEM_BOND_DEF_STEREO_COUNT>
1

>  <PUBCHEM_BOND_UDEF_STEREO_COUNT>
0

>  <PUBCHEM_ISOTOPIC_ATOM_COUNT>
0

>  <PUBCHEM_COMPONENT_COUNT>
1

>  <PUBCHEM_CACTVS_TAUTO_COUNT>
5

>  <PUBCHEM_COORDINATE_TYPE>
1
5
255

>  <PUBCHEM_BONDANNOTATIONS>
10  1  5
13  15  8
13  19  8
15  18  8
18  21  8
19  22  8
11  2  6
21  22  8

$$$$
