72616
 OpenBabel06101807152D

 50 53  0  0  1  0  0  0  0  0999 V2000
    4.5789   -3.6738    0.0000 O   0  0  0  0  0  0  0  0  0  0  0  0
    3.1336   -4.5232    0.0000 O   0  0  0  0  0  0  0  0  0  0  0  0
    3.7898   -0.9433    0.0000 O   0  0  0  0  0  0  0  0  0  0  0  0
    3.7777    4.1259    0.0000 O   0  0  0  0  0  0  0  0  0  0  0  0
    2.0038    3.1018    0.0000 O   0  0  0  0  0  0  0  0  0  0  0  0
    4.6559   -0.4433    0.0000 N   0  0  0  0  0  0  0  0  0  0  0  0
    4.6559   -1.4433    0.0000 C   0  0  0  0  0  0  0  0  0  0  0  0
    3.7898   -1.9433    0.0000 C   0  0  0  0  0  0  0  0  0  0  0  0
    5.5219    0.0567    0.0000 C   0  0  0  0  0  0  0  0  0  0  0  0
    5.5219    1.0567    0.0000 C   0  0  0  0  0  0  0  0  0  0  0  0
    2.9238   -1.4433    0.0000 C   0  0  0  0  0  0  0  0  0  0  0  0
    4.6559    1.5567    0.0000 C   0  0  0  0  0  0  0  0  0  0  0  0
    2.9238   -0.4433    0.0000 C   0  0  0  0  0  0  0  0  0  0  0  0
    3.8059   -2.9848    0.0000 C   0  0  0  0  0  0  0  0  0  0  0  0
    3.7898    1.0567    0.0000 C   0  0  0  0  0  0  0  0  0  0  0  0
    3.7898    0.0567    0.0000 C   0  0  0  0  0  0  0  0  0  0  0  0
    2.9078   -3.5126    0.0000 C   0  0  0  0  0  0  0  0  0  0  0  0
    2.0138   -1.9502    0.0000 C   0  0  0  0  0  0  0  0  0  0  0  0
    4.6559    0.5567    0.0000 C   0  0  0  0  0  0  0  0  0  0  0  0
    4.6719    2.5982    0.0000 C   0  0  0  0  0  0  0  0  0  0  0  0
    2.0058   -2.9918    0.0000 C   0  0  0  0  0  0  0  0  0  0  0  0
    2.8798    1.5635    0.0000 C   0  0  0  0  0  0  0  0  0  0  0  0
    3.7739    3.1259    0.0000 C   0  0  0  0  0  0  0  0  0  0  0  0
    2.8718    2.6051    0.0000 C   0  0  0  0  0  0  0  0  0  0  0  0
    4.1642   -4.6226    0.0000 C   0  0  0  0  0  0  0  0  0  0  0  0
    4.6457    4.6226    0.0000 C   0  0  0  0  0  0  0  0  0  0  0  0
    2.0000    4.1018    0.0000 C   0  0  0  0  0  0  0  0  0  0  0  0
    4.8679   -2.0260    0.0000 H   0  0  0  0  0  0  0  0  0  0  0  0
    5.2664   -1.3357    0.0000 H   0  0  0  0  0  0  0  0  0  0  0  0
    5.7339   -0.5260    0.0000 H   0  0  0  0  0  0  0  0  0  0  0  0
    6.1325    0.1643    0.0000 H   0  0  0  0  0  0  0  0  0  0  0  0
    6.1325    0.9490    0.0000 H   0  0  0  0  0  0  0  0  0  0  0  0
    5.7339    1.6393    0.0000 H   0  0  0  0  0  0  0  0  0  0  0  0
    2.7118    0.1393    0.0000 H   0  0  0  0  0  0  0  0  0  0  0  0
    2.3132   -0.5510    0.0000 H   0  0  0  0  0  0  0  0  0  0  0  0
    1.4805   -1.6340    0.0000 H   0  0  0  0  0  0  0  0  0  0  0  0
    5.2759    0.5567    0.0000 H   0  0  0  0  0  0  0  0  0  0  0  0
    4.6559    1.1767    0.0000 H   0  0  0  0  0  0  0  0  0  0  0  0
    4.0359    0.5567    0.0000 H   0  0  0  0  0  0  0  0  0  0  0  0
    5.2124    2.9019    0.0000 H   0  0  0  0  0  0  0  0  0  0  0  0
    1.4676   -3.2997    0.0000 H   0  0  0  0  0  0  0  0  0  0  0  0
    2.3465    1.2473    0.0000 H   0  0  0  0  0  0  0  0  0  0  0  0
    4.0402   -5.2300    0.0000 H   0  0  0  0  0  0  0  0  0  0  0  0
    4.7553   -4.8098    0.0000 H   0  0  0  0  0  0  0  0  0  0  0  0
    4.9536    4.0844    0.0000 H   0  0  0  0  0  0  0  0  0  0  0  0
    5.1838    4.9305    0.0000 H   0  0  0  0  0  0  0  0  0  0  0  0
    4.3378    5.1607    0.0000 H   0  0  0  0  0  0  0  0  0  0  0  0
    2.6200    4.1041    0.0000 H   0  0  0  0  0  0  0  0  0  0  0  0
    1.9976    4.7218    0.0000 H   0  0  0  0  0  0  0  0  0  0  0  0
    1.3800    4.0994    0.0000 H   0  0  0  0  0  0  0  0  0  0  0  0
  1 14  1  0  0  0  0
  1 25  1  0  0  0  0
  2 17  1  0  0  0  0
  2 25  1  0  0  0  0
  3 16  2  0  0  0  0
  4 23  1  0  0  0  0
  4 26  1  0  0  0  0
  5 24  1  0  0  0  0
  5 27  1  0  0  0  0
  6  7  1  0  0  0  0
  6  9  1  0  0  0  0
  6 19  1  0  0  0  0
  7  8  1  0  0  0  0
  7 28  1  0  0  0  0
  7 29  1  0  0  0  0
  8 11  2  0  0  0  0
  8 14  1  0  0  0  0
  9 10  1  0  0  0  0
  9 30  1  0  0  0  0
  9 31  1  0  0  0  0
 10 12  1  0  0  0  0
 10 32  1  0  0  0  0
 10 33  1  0  0  0  0
 11 13  1  0  0  0  0
 11 18  1  0  0  0  0
 12 15  1  0  0  0  0
 12 20  2  0  0  0  0
 13 16  1  0  0  0  0
 13 34  1  0  0  0  0
 13 35  1  0  0  0  0
 14 17  2  0  0  0  0
 15 16  1  0  0  0  0
 15 22  2  0  0  0  0
 17 21  1  0  0  0  0
 18 21  2  0  0  0  0
 18 36  1  0  0  0  0
 19 37  1  0  0  0  0
 19 38  1  0  0  0  0
 19 39  1  0  0  0  0
 20 23  1  0  0  0  0
 20 40  1  0  0  0  0
 21 41  1  0  0  0  0
 22 24  1  0  0  0  0
 22 42  1  0  0  0  0
 23 24  2  0  0  0  0
 25 43  1  0  0  0  0
 25 44  1  0  0  0  0
 26 45  1  0  0  0  0
 26 46  1  0  0  0  0
 26 47  1  0  0  0  0
 27 48  1  0  0  0  0
 27 49  1  0  0  0  0
 27 50  1  0  0  0  0
M  END
>  <PUBCHEM_COMPOUND_CID>
72616

>  <PUBCHEM_COMPOUND_CANONICALIZED>
1

>  <PUBCHEM_CACTVS_COMPLEXITY>
529

>  <PUBCHEM_CACTVS_HBOND_ACCEPTOR>
6

>  <PUBCHEM_CACTVS_HBOND_DONOR>
0

>  <PUBCHEM_CACTVS_ROTATABLE_BOND>
2

>  <PUBCHEM_CACTVS_SUBSKEYS>
AAADceB6OAAAAAAAAAAAAAAAAAAAASAAAAAwYAAAAAAAAEixQAAAHgAAAAAADATBmAcyDoMABACIAqBSAACCCAAkIAAIiAEOjMgdJjKEtRukMSpmwBGOqYe63fLOoAABAAAYQABAAAIAADCAAAAAAAAAAA==

>  <PUBCHEM_IUPAC_INCHI>
InChI=1S/C21H23NO5/c1-22-7-6-14-9-19(24-2)20(25-3)10-15(14)17(23)8-13-4-5-18-21(16(13)11-22)27-12-26-18/h4-5,9-10H,6-8,11-12H2,1-3H3

>  <PUBCHEM_IUPAC_INCHIKEY>
XPOJSWHIKCNLEQ-UHFFFAOYSA-N

>  <PUBCHEM_XLOGP3_AA>
2.9

>  <PUBCHEM_EXACT_MASS>
369.158

>  <PUBCHEM_MOLECULAR_FORMULA>
C21H23NO5

>  <PUBCHEM_MOLECULAR_WEIGHT>
369.417

>  <PUBCHEM_OPENEYE_CAN_SMILES>
CN1CCC2=CC(=C(C=C2C(=O)CC3=C(C1)C4=C(C=C3)OCO4)OC)OC

>  <PUBCHEM_OPENEYE_ISO_SMILES>
CN1CCC2=CC(=C(C=C2C(=O)CC3=C(C1)C4=C(C=C3)OCO4)OC)OC

>  <PUBCHEM_CACTVS_TPSA>
57.2

>  <PUBCHEM_MONOISOTOPIC_WEIGHT>
369.158

>  <PUBCHEM_TOTAL_CHARGE>
0

>  <PUBCHEM_HEAVY_ATOM_COUNT>
27

>  <PUBCHEM_ATOM_DEF_STEREO_COUNT>
0

>  <PUBCHEM_ATOM_UDEF_STEREO_COUNT>
0

>  <PUBCHEM_BOND_DEF_STEREO_COUNT>
0

>  <PUBCHEM_BOND_UDEF_STEREO_COUNT>
0

>  <PUBCHEM_ISOTOPIC_ATOM_COUNT>
0

>  <PUBCHEM_COMPONENT_COUNT>
1

>  <PUBCHEM_CACTVS_TAUTO_COUNT>
2

>  <PUBCHEM_COORDINATE_TYPE>
1
5
255

>  <PUBCHEM_BONDANNOTATIONS>
11  18  8
12  15  8
12  20  8
14  17  8
15  22  8
17  21  8
18  21  8
20  23  8
22  24  8
23  24  8
8  11  8
8  14  8

$$$$
