72682772
 OpenBabel06101807152D

181186  0  0  1  0  0  0  0  0999 V2000
    1.7720    0.5370    0.0000 Co  0  2  0  0  0 15  0  0  0  0  0  0
   15.1646    3.9806    0.0000 P   0  0  3  0  0  0  0  0  0  0  0  0
    7.9846    2.1457    0.0000 O   0  0  0  0  0  0  0  0  0  0  0  0
    8.2315    3.5995    0.0000 O   0  0  0  0  0  0  0  0  0  0  0  0
   11.6829    6.9601    0.0000 O   0  0  0  0  0  0  0  0  0  0  0  0
    2.2720    1.4030    0.0000 O   0  5  0  0  0  0  0  0  0  0  0  0
    1.8405    3.7536    0.0000 O   0  0  0  0  0  0  0  0  0  0  0  0
    0.4145    8.2979    0.0000 O   0  5  0  0  0  0  0  0  0  0  0  0
    7.9406   11.3395    0.0000 O   0  5  0  0  0  0  0  0  0  0  0  0
   14.5414    4.7626    0.0000 O   0  0  0  0  0  0  0  0  0  0  0  0
   15.7878    3.1985    0.0000 O   0  0  0  0  0  0  0  0  0  0  0  0
   15.9467    4.6038    0.0000 O   0  0  0  0  0  0  0  0  0  0  0  0
   14.3825    3.3574    0.0000 O   0  0  0  0  0  0  0  0  0  0  0  0
   18.2241    4.0704    0.0000 O   0  0  0  0  0  0  0  0  0  0  0  0
   17.3140    1.6481    0.0000 O   0  0  0  0  0  0  0  0  0  0  0  0
   17.3419    5.9635    0.0000 O   0  0  0  0  0  0  0  0  0  0  0  0
    5.7592    4.6617    0.0000 N   0  0  0  0  0  0  0  0  0  0  0  0
    7.2206    5.9944    0.0000 N   0  0  0  0  0  0  0  0  0  0  0  0
    4.2961    5.9944    0.0000 N   0  0  0  0  0  0  0  0  0  0  0  0
    5.7266    7.3272    0.0000 N   0  0  0  0  0  0  0  0  0  0  0  0
    7.1278    0.6404    0.0000 N   0  0  0  0  0  0  0  0  0  0  0  0
    9.9119    3.1797    0.0000 N   0  0  0  0  0  0  0  0  0  0  0  0
   11.9404    5.2473    0.0000 N   0  0  0  0  0  0  0  0  0  0  0  0
    3.7720    0.5369    0.0000 N   0  0  0  0  0  0  0  0  0  0  0  0
    0.3218    4.5864    0.0000 N   0  0  0  0  0  0  0  0  0  0  0  0
    1.4632    9.6764    0.0000 N   0  0  0  0  0  0  0  0  0  0  0  0
    6.5243   12.3365    0.0000 N   0  0  0  0  0  0  0  0  0  0  0  0
   19.2602    2.6206    0.0000 N   0  3  0  0  0  0  0  0  0  0  0  0
   20.3873    1.4717    0.0000 N   0  0  0  0  0  0  0  0  0  0  0  0
   11.3273   14.8430    0.0000 N   0  0  0  0  0  0  0  0  0  0  0  0
    6.5396    4.0767    0.0000 C   0  0  3  0  0  0  0  0  0  0  0  0
    6.2464    3.1350    0.0000 C   0  0  3  0  0  0  0  0  0  0  0  0
    7.8056    5.2792    0.0000 C   0  0  3  0  0  0  0  0  0  0  0  0
    8.7163    5.5399    0.0000 C   0  0  3  0  0  0  0  0  0  0  0  0
    5.2720    3.1350    0.0000 C   0  0  3  0  0  0  0  0  0  0  0  0
    8.7163    6.5141    0.0000 C   0  0  3  0  0  0  0  0  0  0  0  0
    4.9787    4.0441    0.0000 C   0  0  0  0  0  0  0  0  0  0  0  0
    6.2526    2.1350    0.0000 C   0  0  0  0  0  0  0  0  0  0  0  0
    7.7730    6.7748    0.0000 C   0  0  0  0  0  0  0  0  0  0  0  0
    7.3887    3.5485    0.0000 C   0  0  0  0  0  0  0  0  0  0  0  0
    7.1993    2.8319    0.0000 C   0  0  0  0  0  0  0  0  0  0  0  0
    4.7720    2.2690    0.0000 C   0  0  0  0  0  0  0  0  0  0  0  0
    9.4353    4.8449    0.0000 C   0  0  0  0  0  0  0  0  0  0  0  0
    9.7051    6.6628    0.0000 C   0  0  0  0  0  0  0  0  0  0  0  0
    8.8804    7.5005    0.0000 C   0  0  0  0  0  0  0  0  0  0  0  0
    4.0370    4.3374    0.0000 C   0  0  0  0  0  0  0  0  0  0  0  0
    7.4813    7.6839    0.0000 C   0  0  0  0  0  0  0  0  0  0  0  0
    2.8021    5.5073    0.0000 C   0  0  3  0  0  0  0  0  0  0  0  0
    3.7438    5.2466    0.0000 C   0  0  0  0  0  0  0  0  0  0  0  0
    3.7720    2.2690    0.0000 C   0  0  0  0  0  0  0  0  0  0  0  0
    7.1217    1.6404    0.0000 C   0  0  0  0  0  0  0  0  0  0  0  0
   10.3283    5.8807    0.0000 C   0  0  0  0  0  0  0  0  0  0  0  0
    2.8021    6.4815    0.0000 C   0  0  3  0  0  0  0  0  0  0  0  0
    6.5396    7.9772    0.0000 C   0  0  0  0  0  0  0  0  0  0  0  0
    6.2138    8.8864    0.0000 C   0  0  3  0  0  0  0  0  0  0  0  0
    9.1929    3.8747    0.0000 C   0  0  0  0  0  0  0  0  0  0  0  0
    5.2394    8.8864    0.0000 C   0  0  0  0  0  0  0  0  0  0  0  0
    3.7438    6.7422    0.0000 C   0  0  0  0  0  0  0  0  0  0  0  0
    3.3663    3.5957    0.0000 C   0  0  0  0  0  0  0  0  0  0  0  0
    8.2162    8.3621    0.0000 C   0  0  0  0  0  0  0  0  0  0  0  0
    4.9461    7.9446    0.0000 C   0  0  0  0  0  0  0  0  0  0  0  0
    1.8023    5.4852    0.0000 C   0  0  0  0  0  0  0  0  0  0  0  0
    2.5141    4.5496    0.0000 C   0  0  0  0  0  0  0  0  0  0  0  0
    2.0062    7.0870    0.0000 C   0  0  0  0  0  0  0  0  0  0  0  0
    4.0045    7.6839    0.0000 C   0  0  0  0  0  0  0  0  0  0  0  0
    6.7894    9.7041    0.0000 C   0  0  0  0  0  0  0  0  0  0  0  0
   11.3172    6.0294    0.0000 C   0  0  0  0  0  0  0  0  0  0  0  0
    3.2720    1.4030    0.0000 C   0  0  0  0  0  0  0  0  0  0  0  0
    5.2333    9.8864    0.0000 C   0  0  0  0  0  0  0  0  0  0  0  0
    4.2865    9.1896    0.0000 C   0  0  0  0  0  0  0  0  0  0  0  0
    2.1326    8.0790    0.0000 C   0  0  0  0  0  0  0  0  0  0  0  0
    1.3215    4.6084    0.0000 C   0  0  0  0  0  0  0  0  0  0  0  0
    6.3690   10.6115    0.0000 C   0  0  0  0  0  0  0  0  0  0  0  0
   12.9293    5.3960    0.0000 C   0  0  0  0  0  0  0  0  0  0  0  0
    1.3368    8.6844    0.0000 C   0  0  0  0  0  0  0  0  0  0  0  0
    6.9446   11.4292    0.0000 C   0  0  0  0  0  0  0  0  0  0  0  0
   13.5525    4.6140    0.0000 C   0  0  3  0  0  0  0  0  0  0  0  0
   13.1868    3.6832    0.0000 C   0  0  0  0  0  0  0  0  0  0  0  0
   16.7767    3.3472    0.0000 C   0  0  3  0  0  0  0  0  0  0  0  0
   17.4782    2.6346    0.0000 C   0  0  3  0  0  0  0  0  0  0  0  0
   17.2377    4.2346    0.0000 C   0  0  3  0  0  0  0  0  0  0  0  0
   18.3728    3.0815    0.0000 C   0  0  3  0  0  0  0  0  0  0  0  0
   16.7907    5.1292    0.0000 C   0  0  0  0  0  0  0  0  0  0  0  0
   20.1490    3.0657    0.0000 C   0  0  0  0  0  0  0  0  0  0  0  0
   19.4071    1.6374    0.0000 C   0  0  0  0  0  0  0  0  0  0  0  0
   20.8493    2.3518    0.0000 C   0  0  0  0  0  0  0  0  0  0  0  0
   20.4171    4.0291    0.0000 C   0  0  0  0  0  0  0  0  0  0  0  0
   21.8177    2.6014    0.0000 C   0  0  0  0  0  0  0  0  0  0  0  0
   21.3855    4.2786    0.0000 C   0  0  0  0  0  0  0  0  0  0  0  0
   22.0858    3.5648    0.0000 C   0  0  0  0  0  0  0  0  0  0  0  0
   21.6535    5.2420    0.0000 C   0  0  0  0  0  0  0  0  0  0  0  0
   23.0541    3.8143    0.0000 C   0  0  0  0  0  0  0  0  0  0  0  0
   12.3273   14.8430    0.0000 C   0  0  0  0  0  0  0  0  0  0  0  0
    8.1132    4.7409    0.0000 H   0  0  0  0  0  0  0  0  0  0  0  0
    9.2870    5.7820    0.0000 H   0  0  0  0  0  0  0  0  0  0  0  0
    4.6555    3.2004    0.0000 H   0  0  0  0  0  0  0  0  0  0  0  0
    5.6413    2.2389    0.0000 H   0  0  0  0  0  0  0  0  0  0  0  0
    6.0441    1.5511    0.0000 H   0  0  0  0  0  0  0  0  0  0  0  0
    7.0612    3.0221    0.0000 H   0  0  0  0  0  0  0  0  0  0  0  0
    7.9152    3.2210    0.0000 H   0  0  0  0  0  0  0  0  0  0  0  0
    7.7162    4.0750    0.0000 H   0  0  0  0  0  0  0  0  0  0  0  0
    7.0114    2.2410    0.0000 H   0  0  0  0  0  0  0  0  0  0  0  0
    7.7902    2.6439    0.0000 H   0  0  0  0  0  0  0  0  0  0  0  0
    7.3873    3.4227    0.0000 H   0  0  0  0  0  0  0  0  0  0  0  0
    4.6644    1.6584    0.0000 H   0  0  0  0  0  0  0  0  0  0  0  0
    5.3546    2.0569    0.0000 H   0  0  0  0  0  0  0  0  0  0  0  0
   10.0015    4.5924    0.0000 H   0  0  0  0  0  0  0  0  0  0  0  0
    9.7822    5.3587    0.0000 H   0  0  0  0  0  0  0  0  0  0  0  0
   10.2497    6.9591    0.0000 H   0  0  0  0  0  0  0  0  0  0  0  0
    9.5079    7.2506    0.0000 H   0  0  0  0  0  0  0  0  0  0  0  0
    9.4920    7.3987    0.0000 H   0  0  0  0  0  0  0  0  0  0  0  0
    8.9822    8.1121    0.0000 H   0  0  0  0  0  0  0  0  0  0  0  0
    8.2688    7.6023    0.0000 H   0  0  0  0  0  0  0  0  0  0  0  0
    3.8797    2.8796    0.0000 H   0  0  0  0  0  0  0  0  0  0  0  0
    3.1894    2.4810    0.0000 H   0  0  0  0  0  0  0  0  0  0  0  0
    9.7837    5.5844    0.0000 H   0  0  0  0  0  0  0  0  0  0  0  0
   10.5256    5.2929    0.0000 H   0  0  0  0  0  0  0  0  0  0  0  0
    2.2466    6.2061    0.0000 H   0  0  0  0  0  0  0  0  0  0  0  0
    5.9282    9.4367    0.0000 H   0  0  0  0  0  0  0  0  0  0  0  0
    2.9064    4.0116    0.0000 H   0  0  0  0  0  0  0  0  0  0  0  0
    2.9504    3.1358    0.0000 H   0  0  0  0  0  0  0  0  0  0  0  0
    3.8262    3.1799    0.0000 H   0  0  0  0  0  0  0  0  0  0  0  0
    4.9121    6.0640    0.0000 H   0  0  0  0  0  0  0  0  0  0  0  0
    8.6367    7.9065    0.0000 H   0  0  0  0  0  0  0  0  0  0  0  0
    8.6718    8.7826    0.0000 H   0  0  0  0  0  0  0  0  0  0  0  0
    7.7957    8.8178    0.0000 H   0  0  0  0  0  0  0  0  0  0  0  0
    1.8965    6.0980    0.0000 H   0  0  0  0  0  0  0  0  0  0  0  0
    1.2152    5.6844    0.0000 H   0  0  0  0  0  0  0  0  0  0  0  0
    1.9204    4.7282    0.0000 H   0  0  0  0  0  0  0  0  0  0  0  0
    2.3355    3.9559    0.0000 H   0  0  0  0  0  0  0  0  0  0  0  0
    3.1078    4.3711    0.0000 H   0  0  0  0  0  0  0  0  0  0  0  0
    1.4141    7.2710    0.0000 H   0  0  0  0  0  0  0  0  0  0  0  0
    1.7222    6.5358    0.0000 H   0  0  0  0  0  0  0  0  0  0  0  0
    3.5661    8.1223    0.0000 H   0  0  0  0  0  0  0  0  0  0  0  0
    7.2267    9.2646    0.0000 H   0  0  0  0  0  0  0  0  0  0  0  0
    7.2982   10.0584    0.0000 H   0  0  0  0  0  0  0  0  0  0  0  0
    7.6667    0.3337    0.0000 H   0  0  0  0  0  0  0  0  0  0  0  0
    6.5928    0.3271    0.0000 H   0  0  0  0  0  0  0  0  0  0  0  0
    4.4745    9.7804    0.0000 H   0  0  0  0  0  0  0  0  0  0  0  0
    3.6957    9.3776    0.0000 H   0  0  0  0  0  0  0  0  0  0  0  0
    5.8533    9.8901    0.0000 H   0  0  0  0  0  0  0  0  0  0  0  0
    5.2296   10.5063    0.0000 H   0  0  0  0  0  0  0  0  0  0  0  0
    4.0985    8.5988    0.0000 H   0  0  0  0  0  0  0  0  0  0  0  0
    4.6133    9.8826    0.0000 H   0  0  0  0  0  0  0  0  0  0  0  0
   10.5079    3.3503    0.0000 H   0  0  0  0  0  0  0  0  0  0  0  0
    9.7616    2.5782    0.0000 H   0  0  0  0  0  0  0  0  0  0  0  0
    2.7247    7.8950    0.0000 H   0  0  0  0  0  0  0  0  0  0  0  0
    2.4166    8.6301    0.0000 H   0  0  0  0  0  0  0  0  0  0  0  0
    5.9317   11.0509    0.0000 H   0  0  0  0  0  0  0  0  0  0  0  0
    5.8603   10.2571    0.0000 H   0  0  0  0  0  0  0  0  0  0  0  0
   11.7137    4.6703    0.0000 H   0  0  0  0  0  0  0  0  0  0  0  0
    3.4620    0.0000    0.0000 H   0  0  0  0  0  0  0  0  0  0  0  0
   13.4739    5.6923    0.0000 H   0  0  0  0  0  0  0  0  0  0  0  0
   12.7321    5.9838    0.0000 H   0  0  0  0  0  0  0  0  0  0  0  0
    0.0237    4.0427    0.0000 H   0  0  0  0  0  0  0  0  0  0  0  0
    0.0000    5.1163    0.0000 H   0  0  0  0  0  0  0  0  0  0  0  0
   13.9389    4.1291    0.0000 H   0  0  0  0  0  0  0  0  0  0  0  0
    0.9698   10.0518    0.0000 H   0  0  0  0  0  0  0  0  0  0  0  0
    6.8812   12.8435    0.0000 H   0  0  0  0  0  0  0  0  0  0  0  0
   12.6098    3.9099    0.0000 H   0  0  0  0  0  0  0  0  0  0  0  0
   12.9601    3.1062    0.0000 H   0  0  0  0  0  0  0  0  0  0  0  0
   13.7639    3.4565    0.0000 H   0  0  0  0  0  0  0  0  0  0  0  0
   16.4162    3.8516    0.0000 H   0  0  0  0  0  0  0  0  0  0  0  0
   17.9769    2.2662    0.0000 H   0  0  0  0  0  0  0  0  0  0  0  0
   17.6060    4.7333    0.0000 H   0  0  0  0  0  0  0  0  0  0  0  0
   15.8545    5.2169    0.0000 H   0  0  0  0  0  0  0  0  0  0  0  0
   18.3679    2.4616    0.0000 H   0  0  0  0  0  0  0  0  0  0  0  0
   16.3406    5.5555    0.0000 H   0  0  0  0  0  0  0  0  0  0  0  0
   16.2926    4.7599    0.0000 H   0  0  0  0  0  0  0  0  0  0  0  0
   16.7335    1.4305    0.0000 H   0  0  0  0  0  0  0  0  0  0  0  0
   18.9646    1.2032    0.0000 H   0  0  0  0  0  0  0  0  0  0  0  0
   20.6625    0.9161    0.0000 H   0  0  0  0  0  0  0  0  0  0  0  0
   17.0648    6.5181    0.0000 H   0  0  0  0  0  0  0  0  0  0  0  0
   19.9829    4.4717    0.0000 H   0  0  0  0  0  0  0  0  0  0  0  0
   22.2519    2.1588    0.0000 H   0  0  0  0  0  0  0  0  0  0  0  0
   22.2508    5.0758    0.0000 H   0  0  0  0  0  0  0  0  0  0  0  0
   21.8197    5.8393    0.0000 H   0  0  0  0  0  0  0  0  0  0  0  0
   21.0562    5.4082    0.0000 H   0  0  0  0  0  0  0  0  0  0  0  0
   23.2089    3.2140    0.0000 H   0  0  0  0  0  0  0  0  0  0  0  0
   23.6545    3.9691    0.0000 H   0  0  0  0  0  0  0  0  0  0  0  0
   22.8994    4.4147    0.0000 H   0  0  0  0  0  0  0  0  0  0  0  0
  2 10  1  0  0  0  0
  2 11  1  0  0  0  0
  2 12  1  0  0  0  0
  2 13  2  0  0  0  0
  3 51  2  0  0  0  0
  4 56  2  0  0  0  0
  5 67  2  0  0  0  0
  6 68  1  0  0  0  0
  7 72  2  0  0  0  0
  8 75  1  0  0  0  0
  9 76  1  0  0  0  0
 10 77  1  0  0  0  0
 11 79  1  0  0  0  0
 12166  1  0  0  0  0
 14 81  1  0  0  0  0
 14 82  1  0  0  0  0
 15 80  1  0  0  0  0
 15170  1  0  0  0  0
 16 83  1  0  0  0  0
 16173  1  0  0  0  0
 17 31  1  0  0  0  0
 17 37  2  0  0  0  0
 18 33  1  0  0  0  0
 18 39  2  0  0  0  0
 19 49  1  0  0  0  0
 19 58  1  0  0  0  0
 19123  1  0  0  0  0
 20 54  1  0  0  0  0
 20 61  2  0  0  0  0
 21 51  1  0  0  0  0
 21137  1  0  0  0  0
 21138  1  0  0  0  0
 22 56  1  0  0  0  0
 22145  1  0  0  0  0
 22146  1  0  0  0  0
 23 67  1  0  0  0  0
 23 74  1  0  0  0  0
 23151  1  0  0  0  0
 24 68  2  0  0  0  0
 24152  1  0  0  0  0
 25 72  1  0  0  0  0
 25155  1  0  0  0  0
 25156  1  0  0  0  0
 26 75  2  0  0  0  0
 26158  1  0  0  0  0
 27 76  2  0  0  0  0
 27159  1  0  0  0  0
 28 82  1  0  0  0  0
 28 84  1  0  0  0  0
 28 85  2  0  0  0  0
 29 85  1  0  0  0  0
 29 86  1  0  0  0  0
 29172  1  0  0  0  0
 30 93  3  0  0  0  0
 31 32  1  0  0  0  0
 31 33  1  0  0  0  0
 31 40  1  0  0  0  0
 32 35  1  0  0  0  0
 32 38  1  0  0  0  0
 32 41  1  0  0  0  0
 33 34  1  0  0  0  0
 33 94  1  0  0  0  0
 34 36  1  0  0  0  0
 34 43  1  0  0  0  0
 34 95  1  0  0  0  0
 35 37  1  0  0  0  0
 35 42  1  0  0  0  0
 35 96  1  0  0  0  0
 36 39  1  0  0  0  0
 36 44  1  0  0  0  0
 36 45  1  0  0  0  0
 37 46  1  0  0  0  0
 38 51  1  0  0  0  0
 38 97  1  0  0  0  0
 38 98  1  0  0  0  0
 39 47  1  0  0  0  0
 40 99  1  0  0  0  0
 40100  1  0  0  0  0
 40101  1  0  0  0  0
 41102  1  0  0  0  0
 41103  1  0  0  0  0
 41104  1  0  0  0  0
 42 50  1  0  0  0  0
 42105  1  0  0  0  0
 42106  1  0  0  0  0
 43 56  1  0  0  0  0
 43107  1  0  0  0  0
 43108  1  0  0  0  0
 44 52  1  0  0  0  0
 44109  1  0  0  0  0
 44110  1  0  0  0  0
 45111  1  0  0  0  0
 45112  1  0  0  0  0
 45113  1  0  0  0  0
 46 49  2  3  0  0  0
 46 59  1  0  0  0  0
 47 54  2  3  0  0  0
 47 60  1  0  0  0  0
 48 49  1  0  0  0  0
 48 53  1  0  0  0  0
 48 62  1  0  0  0  0
 48 63  1  0  0  0  0
 50 68  1  0  0  0  0
 50114  1  0  0  0  0
 50115  1  0  0  0  0
 52 67  1  0  0  0  0
 52116  1  0  0  0  0
 52117  1  0  0  0  0
 53 58  1  0  0  0  0
 53 64  1  0  0  0  0
 53118  1  0  0  0  0
 54 55  1  0  0  0  0
 55 57  1  0  0  0  0
 55 66  1  0  0  0  0
 55119  1  0  0  0  0
 57 61  1  0  0  0  0
 57 69  1  0  0  0  0
 57 70  1  0  0  0  0
 58 65  2  3  0  0  0
 59120  1  0  0  0  0
 59121  1  0  0  0  0
 59122  1  0  0  0  0
 60124  1  0  0  0  0
 60125  1  0  0  0  0
 60126  1  0  0  0  0
 61 65  1  0  0  0  0
 62 72  1  0  0  0  0
 62127  1  0  0  0  0
 62128  1  0  0  0  0
 63129  1  0  0  0  0
 63130  1  0  0  0  0
 63131  1  0  0  0  0
 64 71  1  0  0  0  0
 64132  1  0  0  0  0
 64133  1  0  0  0  0
 65134  1  0  0  0  0
 66 73  1  0  0  0  0
 66135  1  0  0  0  0
 66136  1  0  0  0  0
 69141  1  0  0  0  0
 69142  1  0  0  0  0
 69144  1  0  0  0  0
 70139  1  0  0  0  0
 70140  1  0  0  0  0
 70143  1  0  0  0  0
 71 75  1  0  0  0  0
 71147  1  0  0  0  0
 71148  1  0  0  0  0
 73 76  1  0  0  0  0
 73149  1  0  0  0  0
 73150  1  0  0  0  0
 74 77  1  0  0  0  0
 74153  1  0  0  0  0
 74154  1  0  0  0  0
 77 78  1  0  0  0  0
 77157  1  0  0  0  0
 78160  1  0  0  0  0
 78161  1  0  0  0  0
 78162  1  0  0  0  0
 79 80  1  0  0  0  0
 79 81  1  0  0  0  0
 79163  1  0  0  0  0
 80 82  1  0  0  0  0
 80164  1  0  0  0  0
 81 83  1  0  0  0  0
 81165  1  0  0  0  0
 82167  1  0  0  0  0
 83168  1  0  0  0  0
 83169  1  0  0  0  0
 84 86  2  0  0  0  0
 84 87  1  0  0  0  0
 85171  1  0  0  0  0
 86 88  1  0  0  0  0
 87 89  2  0  0  0  0
 87174  1  0  0  0  0
 88 90  2  0  0  0  0
 88175  1  0  0  0  0
 89 90  1  0  0  0  0
 89 91  1  0  0  0  0
 90 92  1  0  0  0  0
 91176  1  0  0  0  0
 91177  1  0  0  0  0
 91178  1  0  0  0  0
 92179  1  0  0  0  0
 92180  1  0  0  0  0
 92181  1  0  0  0  0
M  RAD  1  93   2
M  CHG  5   1   2   6  -1   8  -1   9  -1  28   1
M  END
>  <PUBCHEM_COMPOUND_CID>
72682772

>  <PUBCHEM_COMPOUND_CANONICALIZED>
1

>  <PUBCHEM_CACTVS_COMPLEXITY>
3160

>  <PUBCHEM_CACTVS_HBOND_ACCEPTOR>
22

>  <PUBCHEM_CACTVS_HBOND_DONOR>
12

>  <PUBCHEM_CACTVS_ROTATABLE_BOND>
26

>  <PUBCHEM_CACTVS_SUBSKEYS>
AAADcfB//AIAAAAQAAAAAAAAAAAAAWLEiBAwAAAAAAAAAFgB8AAAHgAQCCAAD7zhngY30LfNlxC4QyVzdICCgC2xEqAB2aE4dJiLeLLAmZGeYAhvlgLbyCf8+fKfiAAAQAAQACAQAACAACAAQAAAAAAAAA==

>  <PUBCHEM_IUPAC_OPENEYE_NAME>
cobaltous;nitridomethane;3-[2,7,18-tris(2-amino-2-oxo-ethyl)-17-[3-[2-[[5-(5,6-dimethyl-3H-benzimidazol-1-ium-1-yl)-4-hydroxy-2-(hydroxymethyl)tetrahydrofuran-3-yl]oxy-hydroxy-phosphoryl]oxypropylamino]-3-oxo-propyl]-3,13-bis(3-imino-3-oxido-propyl)-1,2,5,7,12,12,15,17-octamethyl-3,8,13,18,19,22-hexahydrocorrin-8-yl]propanimidate

>  <PUBCHEM_IUPAC_CAS_NAME>
cobalt(2+);nitrilomethane;3-[2,7,18-tris(2-amino-2-oxoethyl)-17-[3-[2-[[5-(5,6-dimethyl-3H-benzimidazol-1-ium-1-yl)-4-hydroxy-2-(hydroxymethyl)-3-oxolanyl]oxy-hydroxyphosphoryl]oxypropylamino]-3-oxopropyl]-3,13-bis(3-imino-3-oxidopropyl)-1,2,5,7,12,12,15,17-octamethyl-3,8,13,18,19,22-hexahydrocorrin-8-yl]propanimidate

>  <PUBCHEM_IUPAC_NAME>
azanylidynemethane;cobalt(2+);3-[2,7,18-tris(2-amino-2-oxoethyl)-17-[3-[2-[[5-(5,6-dimethyl-3H-benzimidazol-1-ium-1-yl)-4-hydroxy-2-(hydroxymethyl)oxolan-3-yl]oxy-hydroxyphosphoryl]oxypropylamino]-3-oxopropyl]-3,13-bis(3-imino-3-oxidopropyl)-1,2,5,7,12,12,15,17-octamethyl-3,8,13,18,19,22-hexahydrocorrin-8-yl]propanimidate

>  <PUBCHEM_IUPAC_SYSTEMATIC_NAME>
azanylidynemethane;3-[3,13-bis(3-azanylidene-3-oxidanidyl-propyl)-2,7,18-tris(2-azanyl-2-oxidanylidene-ethyl)-17-[3-[2-[[5-(5,6-dimethyl-3H-benzimidazol-1-ium-1-yl)-2-(hydroxymethyl)-4-oxidanyl-oxolan-3-yl]oxy-oxidanyl-phosphoryl]oxypropylamino]-3-oxidanylidene-propyl]-1,2,5,7,12,12,15,17-octamethyl-3,8,13,18,19,22-hexahydrocorrin-8-yl]propanimidate;cobalt(2+)

>  <PUBCHEM_IUPAC_TRADITIONAL_NAME>
cobaltous;nitrilomethane;3-[2,7,18-tris(2-amino-2-keto-ethyl)-17-[3-[2-[[5-(5,6-dimethyl-3H-benzimidazol-1-ium-1-yl)-4-hydroxy-2-methylol-tetrahydrofuran-3-yl]oxy-hydroxy-phosphoryl]oxypropylamino]-3-keto-propyl]-3,13-bis(3-imino-3-oxido-propyl)-1,2,5,7,12,12,15,17-octamethyl-3,8,13,18,19,22-hexahydrocorrin-8-yl]propionimidate

>  <PUBCHEM_IUPAC_INCHI>
InChI=1S/C62H90N13O14P.CN.Co/c1-29-20-39-40(21-30(29)2)75(28-70-39)57-52(84)53(41(27-76)87-57)89-90(85,86)88-31(3)26-69-49(83)18-19-59(8)37(22-46(66)80)56-62(11)61(10,25-48(68)82)36(14-17-45(65)79)51(74-62)33(5)55-60(9,24-47(67)81)34(12-15-43(63)77)38(71-55)23-42-58(6,7)35(13-16-44(64)78)50(72-42)32(4)54(59)73-56;1-2;/h20-21,23,28,31,34-37,41,52-53,56-57,76,84H,12-19,22,24-27H2,1-11H3,(H15,63,64,65,66,67,68,69,71,72,73,74,77,78,79,80,81,82,83,85,86);;/q;;+2/p-2

>  <PUBCHEM_IUPAC_INCHIKEY>
RMRCNWBMXRMIRW-UHFFFAOYSA-L

>  <PUBCHEM_EXACT_MASS>
1354.567

>  <PUBCHEM_MOLECULAR_FORMULA>
C63H88CoN14O14P

>  <PUBCHEM_MOLECULAR_WEIGHT>
1355.388

>  <PUBCHEM_OPENEYE_CAN_SMILES>
CC1=CC2=C(C=C1C)[N+](=CN2)C3C(C(C(O3)CO)OP(=O)(O)OC(C)CNC(=O)CCC4(C(C5C6(C(C(C(=N6)C(=C7C(C(C(=CC8=NC(=C(C4=N5)C)C(C8(C)C)CCC(=N)[O-])N7)CCC(=N)[O-])(C)CC(=O)N)C)CCC(=N)[O-])(C)CC(=O)N)C)CC(=O)N)C)O.[C]#N.[Co+2]

>  <PUBCHEM_OPENEYE_ISO_SMILES>
CC1=CC2=C(C=C1C)[N+](=CN2)C3C(C(C(O3)CO)OP(=O)(O)OC(C)CNC(=O)CCC4(C(C5C6(C(C(C(=N6)C(=C7C(C(C(=CC8=NC(=C(C4=N5)C)C(C8(C)C)CCC(=N)[O-])N7)CCC(=N)[O-])(C)CC(=O)N)C)CCC(=N)[O-])(C)CC(=O)N)C)CC(=O)N)C)O.[C]#N.[Co+2]

>  <PUBCHEM_CACTVS_TPSA>
497

>  <PUBCHEM_MONOISOTOPIC_WEIGHT>
1354.567

>  <PUBCHEM_TOTAL_CHARGE>
0

>  <PUBCHEM_HEAVY_ATOM_COUNT>
93

>  <PUBCHEM_ATOM_DEF_STEREO_COUNT>
0

>  <PUBCHEM_ATOM_UDEF_STEREO_COUNT>
14

>  <PUBCHEM_BOND_DEF_STEREO_COUNT>
0

>  <PUBCHEM_BOND_UDEF_STEREO_COUNT>
3

>  <PUBCHEM_ISOTOPIC_ATOM_COUNT>
0

>  <PUBCHEM_COMPONENT_COUNT>
3

>  <PUBCHEM_CACTVS_TAUTO_COUNT>
999

>  <PUBCHEM_COORDINATE_TYPE>
1
5
255

>  <PUBCHEM_BONDANNOTATIONS>
79  11  3
80  15  3
33  18  3
82  28  3
28  84  8
28  85  8
29  85  8
29  86  8
31  40  3
32  41  3
34  43  3
35  42  3
36  45  3
46  49  1
47  54  1
48  63  3
53  64  3
55  66  3
58  65  1
77  78  3
81  83  3
84  86  8
84  87  8
86  88  8
87  89  8
88  90  8
89  90  8

$$$$
