72732
 OpenBabel06101807152D

 32 34  0  0  0  0  0  0  0  0999 V2000
    6.4260    1.0347    0.0000 O   0  0  0  0  0  0  0  0  0  0  0  0
    4.6660   -2.0000    0.0000 O   0  0  0  0  0  0  0  0  0  0  0  0
    4.6660    2.0000    0.0000 O   0  0  0  0  0  0  0  0  0  0  0  0
    7.3321    0.5208    0.0000 C   0  0  0  0  0  0  0  0  0  0  0  0
    7.3321   -0.5208    0.0000 C   0  0  0  0  0  0  0  0  0  0  0  0
    6.4260   -1.0347    0.0000 C   0  0  0  0  0  0  0  0  0  0  0  0
    5.5321   -0.5000    0.0000 C   0  0  0  0  0  0  0  0  0  0  0  0
    5.5321    0.5000    0.0000 C   0  0  0  0  0  0  0  0  0  0  0  0
    8.3321    0.5247    0.0000 C   0  0  0  0  0  0  0  0  0  0  0  0
    7.8287    1.3888    0.0000 C   0  0  0  0  0  0  0  0  0  0  0  0
    4.6660   -1.0000    0.0000 C   0  0  0  0  0  0  0  0  0  0  0  0
    4.6660    1.0000    0.0000 C   0  0  0  0  0  0  0  0  0  0  0  0
    3.8000   -0.5000    0.0000 C   0  0  0  0  0  0  0  0  0  0  0  0
    3.8000    0.5000    0.0000 C   0  0  0  0  0  0  0  0  0  0  0  0
    2.9061   -1.0347    0.0000 C   0  0  0  0  0  0  0  0  0  0  0  0
    2.9061    1.0347    0.0000 C   0  0  0  0  0  0  0  0  0  0  0  0
    2.0000   -0.5208    0.0000 C   0  0  0  0  0  0  0  0  0  0  0  0
    2.0000    0.5208    0.0000 C   0  0  0  0  0  0  0  0  0  0  0  0
    7.5411   -1.1045    0.0000 H   0  0  0  0  0  0  0  0  0  0  0  0
    7.9429   -0.4147    0.0000 H   0  0  0  0  0  0  0  0  0  0  0  0
    6.0214   -1.5044    0.0000 H   0  0  0  0  0  0  0  0  0  0  0  0
    6.8196   -1.5137    0.0000 H   0  0  0  0  0  0  0  0  0  0  0  0
    8.3344   -0.0953    0.0000 H   0  0  0  0  0  0  0  0  0  0  0  0
    8.9521    0.5271    0.0000 H   0  0  0  0  0  0  0  0  0  0  0  0
    8.3297    1.1447    0.0000 H   0  0  0  0  0  0  0  0  0  0  0  0
    8.3668    1.0808    0.0000 H   0  0  0  0  0  0  0  0  0  0  0  0
    8.1366    1.9269    0.0000 H   0  0  0  0  0  0  0  0  0  0  0  0
    7.2906    1.6967    0.0000 H   0  0  0  0  0  0  0  0  0  0  0  0
    2.9132   -1.6546    0.0000 H   0  0  0  0  0  0  0  0  0  0  0  0
    2.9132    1.6546    0.0000 H   0  0  0  0  0  0  0  0  0  0  0  0
    1.4643   -0.8329    0.0000 H   0  0  0  0  0  0  0  0  0  0  0  0
    1.4643    0.8329    0.0000 H   0  0  0  0  0  0  0  0  0  0  0  0
  1  4  1  0  0  0  0
  1  8  1  0  0  0  0
  2 11  2  0  0  0  0
  3 12  2  0  0  0  0
  4  5  1  0  0  0  0
  4  9  1  0  0  0  0
  4 10  1  0  0  0  0
  5  6  1  0  0  0  0
  5 19  1  0  0  0  0
  5 20  1  0  0  0  0
  6  7  1  0  0  0  0
  6 21  1  0  0  0  0
  6 22  1  0  0  0  0
  7  8  2  0  0  0  0
  7 11  1  0  0  0  0
  8 12  1  0  0  0  0
  9 23  1  0  0  0  0
  9 24  1  0  0  0  0
  9 25  1  0  0  0  0
 10 26  1  0  0  0  0
 10 27  1  0  0  0  0
 10 28  1  0  0  0  0
 11 13  1  0  0  0  0
 12 14  1  0  0  0  0
 13 14  1  0  0  0  0
 13 15  2  0  0  0  0
 14 16  2  0  0  0  0
 15 17  1  0  0  0  0
 15 29  1  0  0  0  0
 16 18  1  0  0  0  0
 16 30  1  0  0  0  0
 17 18  2  0  0  0  0
 17 31  1  0  0  0  0
 18 32  1  0  0  0  0
M  END
>  <PUBCHEM_COMPOUND_CID>
72732

>  <PUBCHEM_COMPOUND_CANONICALIZED>
1

>  <PUBCHEM_CACTVS_COMPLEXITY>
445

>  <PUBCHEM_CACTVS_HBOND_ACCEPTOR>
3

>  <PUBCHEM_CACTVS_HBOND_DONOR>
0

>  <PUBCHEM_CACTVS_ROTATABLE_BOND>
0

>  <PUBCHEM_CACTVS_SUBSKEYS>
AAADccBwMAAAAAAAAAAAAAAAAAAAAAAAAAAwQIAAAAAAAACRAAAAGgAAAAAADESAmAAyAIAABACIAqBSAAICCAAkIAAIiAFAAMgIIDKAFRSCIQAkwAEIiYeJzODOgAAAAAAQAAAAAAAAACAAAAAAAAAAAA==

>  <PUBCHEM_IUPAC_OPENEYE_NAME>
2,2-dimethyl-3,4-dihydrobenzo[g]chromene-5,10-dione

>  <PUBCHEM_IUPAC_CAS_NAME>
2,2-dimethyl-3,4-dihydrobenzo[g][1]benzopyran-5,10-dione

>  <PUBCHEM_IUPAC_NAME>
2,2-dimethyl-3,4-dihydrobenzo[g]chromene-5,10-dione

>  <PUBCHEM_IUPAC_SYSTEMATIC_NAME>
2,2-dimethyl-3,4-dihydrobenzo[g]chromene-5,10-dione

>  <PUBCHEM_IUPAC_TRADITIONAL_NAME>
2,2-dimethyl-3,4-dihydrobenzo[g]chromene-5,10-quinone

>  <PUBCHEM_IUPAC_INCHI>
InChI=1S/C15H14O3/c1-15(2)8-7-11-12(16)9-5-3-4-6-10(9)13(17)14(11)18-15/h3-6H,7-8H2,1-2H3

>  <PUBCHEM_IUPAC_INCHIKEY>
PJWHOPKRRBUSDH-UHFFFAOYSA-N

>  <PUBCHEM_XLOGP3_AA>
2.6

>  <PUBCHEM_EXACT_MASS>
242.094

>  <PUBCHEM_MOLECULAR_FORMULA>
C15H14O3

>  <PUBCHEM_MOLECULAR_WEIGHT>
242.274

>  <PUBCHEM_OPENEYE_CAN_SMILES>
CC1(CCC2=C(O1)C(=O)C3=CC=CC=C3C2=O)C

>  <PUBCHEM_OPENEYE_ISO_SMILES>
CC1(CCC2=C(O1)C(=O)C3=CC=CC=C3C2=O)C

>  <PUBCHEM_CACTVS_TPSA>
43.4

>  <PUBCHEM_MONOISOTOPIC_WEIGHT>
242.094

>  <PUBCHEM_TOTAL_CHARGE>
0

>  <PUBCHEM_HEAVY_ATOM_COUNT>
18

>  <PUBCHEM_ATOM_DEF_STEREO_COUNT>
0

>  <PUBCHEM_ATOM_UDEF_STEREO_COUNT>
0

>  <PUBCHEM_BOND_DEF_STEREO_COUNT>
0

>  <PUBCHEM_BOND_UDEF_STEREO_COUNT>
0

>  <PUBCHEM_ISOTOPIC_ATOM_COUNT>
0

>  <PUBCHEM_COMPONENT_COUNT>
1

>  <PUBCHEM_CACTVS_TAUTO_COUNT>
7

>  <PUBCHEM_COORDINATE_TYPE>
1
5
255

>  <PUBCHEM_BONDANNOTATIONS>
13  14  8
13  15  8
14  16  8
15  17  8
16  18  8
17  18  8

$$$$
