72757
 OpenBabel06101807152D

 18 19  0  0  0  0  0  0  0  0999 V2000
    4.6660    1.2927    0.0000 O   0  0  0  0  0  0  0  0  0  0  0  0
    6.3981   -0.7073    0.0000 O   0  0  0  0  0  0  0  0  0  0  0  0
    4.6660   -0.7073    0.0000 N   0  0  0  0  0  0  0  0  0  0  0  0
    3.8000   -0.2073    0.0000 C   0  0  0  0  0  0  0  0  0  0  0  0
    3.8000    0.7927    0.0000 C   0  0  0  0  0  0  0  0  0  0  0  0
    5.5321    0.7927    0.0000 C   0  0  0  0  0  0  0  0  0  0  0  0
    5.5321   -0.2073    0.0000 C   0  0  0  0  0  0  0  0  0  0  0  0
    2.9061   -0.7420    0.0000 C   0  0  0  0  0  0  0  0  0  0  0  0
    2.9061    1.3273    0.0000 C   0  0  0  0  0  0  0  0  0  0  0  0
    2.0000   -0.2281    0.0000 C   0  0  0  0  0  0  0  0  0  0  0  0
    2.0000    0.8135    0.0000 C   0  0  0  0  0  0  0  0  0  0  0  0
    6.1426    0.6850    0.0000 H   0  0  0  0  0  0  0  0  0  0  0  0
    5.7441    1.3753    0.0000 H   0  0  0  0  0  0  0  0  0  0  0  0
    4.6660   -1.3273    0.0000 H   0  0  0  0  0  0  0  0  0  0  0  0
    2.9132   -1.3620    0.0000 H   0  0  0  0  0  0  0  0  0  0  0  0
    2.9132    1.9473    0.0000 H   0  0  0  0  0  0  0  0  0  0  0  0
    1.4643   -0.5402    0.0000 H   0  0  0  0  0  0  0  0  0  0  0  0
    1.4643    1.1256    0.0000 H   0  0  0  0  0  0  0  0  0  0  0  0
  1  5  1  0  0  0  0
  1  6  1  0  0  0  0
  2  7  2  0  0  0  0
  3  4  1  0  0  0  0
  3  7  1  0  0  0  0
  3 14  1  0  0  0  0
  4  5  1  0  0  0  0
  4  8  2  0  0  0  0
  5  9  2  0  0  0  0
  6  7  1  0  0  0  0
  6 12  1  0  0  0  0
  6 13  1  0  0  0  0
  8 10  1  0  0  0  0
  8 15  1  0  0  0  0
  9 11  1  0  0  0  0
  9 16  1  0  0  0  0
 10 11  2  0  0  0  0
 10 17  1  0  0  0  0
 11 18  1  0  0  0  0
M  END
>  <PUBCHEM_COMPOUND_CID>
72757

>  <PUBCHEM_COMPOUND_CANONICALIZED>
1

>  <PUBCHEM_CACTVS_COMPLEXITY>
170

>  <PUBCHEM_CACTVS_HBOND_ACCEPTOR>
2

>  <PUBCHEM_CACTVS_HBOND_DONOR>
1

>  <PUBCHEM_CACTVS_ROTATABLE_BOND>
0

>  <PUBCHEM_CACTVS_SUBSKEYS>
AAADcYByMAAAAAAAAAAAAAAAAAAAAAAAAAA8QAAAAAAAAACxAAAAHgAQAAAACAyhkAIwxoLABACIACVSUAKCCAAhIgAIiABHbIgOJiLEsZ+HOCjk1BHY6AeQQAAAAAAAAAAAEAAAAAAAAAAgAAAAAAAAAA==

>  <PUBCHEM_IUPAC_OPENEYE_NAME>
4H-1,4-benzoxazin-3-one

>  <PUBCHEM_IUPAC_CAS_NAME>
4H-1,4-benzoxazin-3-one

>  <PUBCHEM_IUPAC_NAME>
4H-1,4-benzoxazin-3-one

>  <PUBCHEM_IUPAC_SYSTEMATIC_NAME>
4H-1,4-benzoxazin-3-one

>  <PUBCHEM_IUPAC_TRADITIONAL_NAME>
4H-1,4-benzoxazin-3-one

>  <PUBCHEM_IUPAC_INCHI>
InChI=1S/C8H7NO2/c10-8-5-11-7-4-2-1-3-6(7)9-8/h1-4H,5H2,(H,9,10)

>  <PUBCHEM_IUPAC_INCHIKEY>
QRCGFTXRXYMJOS-UHFFFAOYSA-N

>  <PUBCHEM_XLOGP3_AA>
0.9

>  <PUBCHEM_EXACT_MASS>
149.048

>  <PUBCHEM_MOLECULAR_FORMULA>
C8H7NO2

>  <PUBCHEM_MOLECULAR_WEIGHT>
149.149

>  <PUBCHEM_OPENEYE_CAN_SMILES>
C1C(=O)NC2=CC=CC=C2O1

>  <PUBCHEM_OPENEYE_ISO_SMILES>
C1C(=O)NC2=CC=CC=C2O1

>  <PUBCHEM_CACTVS_TPSA>
38.3

>  <PUBCHEM_MONOISOTOPIC_WEIGHT>
149.048

>  <PUBCHEM_TOTAL_CHARGE>
0

>  <PUBCHEM_HEAVY_ATOM_COUNT>
11

>  <PUBCHEM_ATOM_DEF_STEREO_COUNT>
0

>  <PUBCHEM_ATOM_UDEF_STEREO_COUNT>
0

>  <PUBCHEM_BOND_DEF_STEREO_COUNT>
0

>  <PUBCHEM_BOND_UDEF_STEREO_COUNT>
0

>  <PUBCHEM_ISOTOPIC_ATOM_COUNT>
0

>  <PUBCHEM_COMPONENT_COUNT>
1

>  <PUBCHEM_CACTVS_TAUTO_COUNT>
3

>  <PUBCHEM_COORDINATE_TYPE>
1
5
255

>  <PUBCHEM_BONDANNOTATIONS>
10  11  8
4  5  8
4  8  8
5  9  8
8  10  8
9  11  8

$$$$
