72812405
 OpenBabel06101807152D

 52 55  0  0  1  0  0  0  0  0999 V2000
    4.2690   -1.2857    0.0000 O   0  0  0  0  0  0  0  0  0  0  0  0
    6.0010   -1.2857    0.0000 O   0  0  0  0  0  0  0  0  0  0  0  0
    4.2690   -4.2857    0.0000 O   0  0  0  0  0  0  0  0  0  0  0  0
    2.5369   -3.2857    0.0000 O   0  0  0  0  0  0  0  0  0  0  0  0
    6.0010   -3.2857    0.0000 O   0  0  0  0  0  0  0  0  0  0  0  0
    6.8671    1.2143    0.0000 O   0  3  0  0  0  0  0  0  0  0  0  0
    3.3648    1.2112    0.0000 O   0  0  0  0  0  0  0  0  0  0  0  0
    5.1229    4.2836    0.0000 O   0  0  0  0  0  0  0  0  0  0  0  0
    8.5991   -2.7857    0.0000 O   0  0  0  0  0  0  0  0  0  0  0  0
   10.3312   -1.7857    0.0000 O   0  0  0  0  0  0  0  0  0  0  0  0
    4.2690   -3.2857    0.0000 C   0  0  3  0  0  0  0  0  0  0  0  0
    3.4030   -2.7857    0.0000 C   0  0  3  0  0  0  0  0  0  0  0  0
    5.1350   -2.7857    0.0000 C   0  0  3  0  0  0  0  0  0  0  0  0
    3.4030   -1.7857    0.0000 C   0  0  3  0  0  0  0  0  0  0  0  0
    5.1350   -1.7857    0.0000 C   0  0  3  0  0  0  0  0  0  0  0  0
    2.5369   -1.2857    0.0000 C   0  0  0  0  0  0  0  0  0  0  0  0
    6.0010   -0.2857    0.0000 C   0  0  0  0  0  0  0  0  0  0  0  0
    6.8671    0.2143    0.0000 C   0  0  0  0  0  0  0  0  0  0  0  0
    5.1350    0.2143    0.0000 C   0  0  0  0  0  0  0  0  0  0  0  0
    5.1350    1.2143    0.0000 C   0  0  0  0  0  0  0  0  0  0  0  0
    6.0010    1.7143    0.0000 C   0  0  0  0  0  0  0  0  0  0  0  0
    7.7331   -0.2857    0.0000 C   0  0  0  0  0  0  0  0  0  0  0  0
    4.2250    1.7212    0.0000 C   0  0  0  0  0  0  0  0  0  0  0  0
    6.0171    2.7558    0.0000 C   0  0  0  0  0  0  0  0  0  0  0  0
    7.7331   -1.2857    0.0000 C   0  0  0  0  0  0  0  0  0  0  0  0
    8.5991    0.2143    0.0000 C   0  0  0  0  0  0  0  0  0  0  0  0
    4.2170    2.7628    0.0000 C   0  0  0  0  0  0  0  0  0  0  0  0
    5.1191    3.2836    0.0000 C   0  0  0  0  0  0  0  0  0  0  0  0
    8.5991   -1.7857    0.0000 C   0  0  0  0  0  0  0  0  0  0  0  0
    9.4651   -0.2857    0.0000 C   0  0  0  0  0  0  0  0  0  0  0  0
    9.4651   -1.2857    0.0000 C   0  0  0  0  0  0  0  0  0  0  0  0
    4.8059   -3.5957    0.0000 H   0  0  0  0  0  0  0  0  0  0  0  0
    3.4030   -3.4057    0.0000 H   0  0  0  0  0  0  0  0  0  0  0  0
    5.6720   -2.4757    0.0000 H   0  0  0  0  0  0  0  0  0  0  0  0
    3.4030   -1.1657    0.0000 H   0  0  0  0  0  0  0  0  0  0  0  0
    5.1350   -1.1657    0.0000 H   0  0  0  0  0  0  0  0  0  0  0  0
    2.8469   -0.7487    0.0000 H   0  0  0  0  0  0  0  0  0  0  0  0
    2.0000   -0.9757    0.0000 H   0  0  0  0  0  0  0  0  0  0  0  0
    2.2269   -1.8226    0.0000 H   0  0  0  0  0  0  0  0  0  0  0  0
    3.7320   -4.5957    0.0000 H   0  0  0  0  0  0  0  0  0  0  0  0
    2.0000   -2.9757    0.0000 H   0  0  0  0  0  0  0  0  0  0  0  0
    6.0010   -3.9057    0.0000 H   0  0  0  0  0  0  0  0  0  0  0  0
    4.5981   -0.0957    0.0000 H   0  0  0  0  0  0  0  0  0  0  0  0
    6.5576    3.0596    0.0000 H   0  0  0  0  0  0  0  0  0  0  0  0
    7.1962   -1.5957    0.0000 H   0  0  0  0  0  0  0  0  0  0  0  0
    8.5991    0.8343    0.0000 H   0  0  0  0  0  0  0  0  0  0  0  0
    3.6788    3.0707    0.0000 H   0  0  0  0  0  0  0  0  0  0  0  0
   10.0021    0.0243    0.0000 H   0  0  0  0  0  0  0  0  0  0  0  0
    2.8243    1.5150    0.0000 H   0  0  0  0  0  0  0  0  0  0  0  0
    4.5872    4.5957    0.0000 H   0  0  0  0  0  0  0  0  0  0  0  0
    9.1360   -3.0957    0.0000 H   0  0  0  0  0  0  0  0  0  0  0  0
   10.8681   -1.4757    0.0000 H   0  0  0  0  0  0  0  0  0  0  0  0
  1 14  1  0  0  0  0
  1 15  1  0  0  0  0
  2 15  1  0  0  0  0
  2 17  1  0  0  0  0
  3 11  1  0  0  0  0
  3 40  1  0  0  0  0
  4 12  1  0  0  0  0
  4 41  1  0  0  0  0
  5 13  1  0  0  0  0
  5 42  1  0  0  0  0
  6 18  2  0  0  0  0
  6 21  1  0  0  0  0
  7 23  1  0  0  0  0
  7 49  1  0  0  0  0
  8 28  1  0  0  0  0
  8 50  1  0  0  0  0
  9 29  1  0  0  0  0
  9 51  1  0  0  0  0
 10 31  1  0  0  0  0
 10 52  1  0  0  0  0
 11 12  1  0  0  0  0
 11 13  1  0  0  0  0
 11 32  1  0  0  0  0
 12 14  1  0  0  0  0
 12 33  1  0  0  0  0
 13 15  1  0  0  0  0
 13 34  1  0  0  0  0
 14 16  1  0  0  0  0
 14 35  1  0  0  0  0
 15 36  1  0  0  0  0
 16 37  1  0  0  0  0
 16 38  1  0  0  0  0
 16 39  1  0  0  0  0
 17 18  1  0  0  0  0
 17 19  2  0  0  0  0
 18 22  1  0  0  0  0
 19 20  1  0  0  0  0
 19 43  1  0  0  0  0
 20 21  1  0  0  0  0
 20 23  2  0  0  0  0
 21 24  2  0  0  0  0
 22 25  2  0  0  0  0
 22 26  1  0  0  0  0
 23 27  1  0  0  0  0
 24 28  1  0  0  0  0
 24 44  1  0  0  0  0
 25 29  1  0  0  0  0
 25 45  1  0  0  0  0
 26 30  2  0  0  0  0
 26 46  1  0  0  0  0
 27 28  2  0  0  0  0
 27 47  1  0  0  0  0
 29 31  2  0  0  0  0
 30 31  1  0  0  0  0
 30 48  1  0  0  0  0
M  CHG  1   6   1
M  END
>  <PUBCHEM_COMPOUND_CID>
72812405

>  <PUBCHEM_COMPOUND_CANONICALIZED>
1

>  <PUBCHEM_CACTVS_COMPLEXITY>
607

>  <PUBCHEM_CACTVS_HBOND_ACCEPTOR>
9

>  <PUBCHEM_CACTVS_HBOND_DONOR>
7

>  <PUBCHEM_CACTVS_ROTATABLE_BOND>
3

>  <PUBCHEM_CACTVS_SUBSKEYS>
AAADceB4PAAAAAAAAAAAAAAAAAAAAAAAAAA0aIEAAAAAAACR9AAAGgAACAAADBSwmAMyDsAABkCIAqBSAAICCAAkIAAIiAFGiMgdNzaGNR6ieWOl4BUPuYfK7PzOIAABCAAIQABAAAIQABCAAAAAAAAAAA==

>  <PUBCHEM_IUPAC_OPENEYE_NAME>
2-[2-(3,4-dihydroxyphenyl)-5,7-dihydroxy-chromenylium-3-yl]oxy-6-methyl-tetrahydropyran-3,4,5-triol

>  <PUBCHEM_IUPAC_CAS_NAME>
2-[[2-(3,4-dihydroxyphenyl)-5,7-dihydroxy-1-benzopyrylium-3-yl]oxy]-6-methyloxane-3,4,5-triol

>  <PUBCHEM_IUPAC_NAME>
2-[2-(3,4-dihydroxyphenyl)-5,7-dihydroxychromenylium-3-yl]oxy-6-methyloxane-3,4,5-triol

>  <PUBCHEM_IUPAC_SYSTEMATIC_NAME>
2-[2-[3,4-bis(oxidanyl)phenyl]-5,7-bis(oxidanyl)chromenylium-3-yl]oxy-6-methyl-oxane-3,4,5-triol

>  <PUBCHEM_IUPAC_TRADITIONAL_NAME>
2-[[2-(3,4-dihydroxyphenyl)-5,7-dihydroxy-1-benzopyrylium-3-yl]oxy]-6-methyl-tetrahydropyran-3,4,5-triol

>  <PUBCHEM_IUPAC_INCHI>
InChI=1S/C21H20O10/c1-8-17(26)18(27)19(28)21(29-8)31-16-7-11-13(24)5-10(22)6-15(11)30-20(16)9-2-3-12(23)14(25)4-9/h2-8,17-19,21,26-28H,1H3,(H3-,22,23,24,25)/p+1

>  <PUBCHEM_IUPAC_INCHIKEY>
USWXMMRFOWNEOR-UHFFFAOYSA-O

>  <PUBCHEM_EXACT_MASS>
433.113

>  <PUBCHEM_MOLECULAR_FORMULA>
C21H21O10+

>  <PUBCHEM_MOLECULAR_WEIGHT>
433.389

>  <PUBCHEM_OPENEYE_CAN_SMILES>
CC1C(C(C(C(O1)OC2=C([O+]=C3C=C(C=C(C3=C2)O)O)C4=CC(=C(C=C4)O)O)O)O)O

>  <PUBCHEM_OPENEYE_ISO_SMILES>
CC1C(C(C(C(O1)OC2=C([O+]=C3C=C(C=C(C3=C2)O)O)C4=CC(=C(C=C4)O)O)O)O)O

>  <PUBCHEM_CACTVS_TPSA>
161

>  <PUBCHEM_MONOISOTOPIC_WEIGHT>
433.113

>  <PUBCHEM_TOTAL_CHARGE>
1

>  <PUBCHEM_HEAVY_ATOM_COUNT>
31

>  <PUBCHEM_ATOM_DEF_STEREO_COUNT>
0

>  <PUBCHEM_ATOM_UDEF_STEREO_COUNT>
5

>  <PUBCHEM_BOND_DEF_STEREO_COUNT>
0

>  <PUBCHEM_BOND_UDEF_STEREO_COUNT>
0

>  <PUBCHEM_ISOTOPIC_ATOM_COUNT>
0

>  <PUBCHEM_COMPONENT_COUNT>
1

>  <PUBCHEM_CACTVS_TAUTO_COUNT>
171

>  <PUBCHEM_COORDINATE_TYPE>
1
5
255

>  <PUBCHEM_BONDANNOTATIONS>
14  16  3
17  18  8
17  19  8
19  20  8
15  2  3
20  21  8
20  23  8
21  24  8
22  25  8
22  26  8
23  27  8
24  28  8
25  29  8
26  30  8
27  28  8
29  31  8
11  3  3
30  31  8
12  4  3
13  5  3
6  18  8
6  21  8

$$$$
