73021944
 OpenBabel06101807152D

 82 86  0  0  1  0  0  0  0  0999 V2000
   11.4408    3.0930    0.0000 O   0  0  0  0  0  0  0  0  0  0  0  0
    2.3162   -0.5105    0.0000 O   0  0  0  0  0  0  0  0  0  0  0  0
    4.3052   -3.0931    0.0000 O   0  0  0  0  0  0  0  0  0  0  0  0
    6.0372   -3.1064    0.0000 O   0  0  0  0  0  0  0  0  0  0  0  0
    7.8329   -0.0513    0.0000 C   0  0  3  0  0  0  0  0  0  0  0  0
    7.8329    0.9487    0.0000 C   0  0  3  0  0  0  0  0  0  0  0  0
    8.7268    1.4833    0.0000 C   0  0  3  0  0  0  0  0  0  0  0  0
    6.9669   -0.5513    0.0000 C   0  0  3  0  0  0  0  0  0  0  0  0
    9.6329    0.9695    0.0000 C   0  0  3  0  0  0  0  0  0  0  0  0
    8.7268   -0.5860    0.0000 C   0  0  0  0  0  0  0  0  0  0  0  0
    6.1008   -0.0513    0.0000 C   0  0  0  0  0  0  0  0  0  0  0  0
    9.6329   -0.0722    0.0000 C   0  0  0  0  0  0  0  0  0  0  0  0
    5.1908   -0.5582    0.0000 C   0  0  3  0  0  0  0  0  0  0  0  0
   10.5767    1.5047    0.0000 C   0  0  0  0  0  0  0  0  0  0  0  0
    6.9669    1.4487    0.0000 C   0  0  0  0  0  0  0  0  0  0  0  0
    6.9829   -1.5928    0.0000 C   0  0  0  0  0  0  0  0  0  0  0  0
    5.1828   -1.5998    0.0000 C   0  0  3  0  0  0  0  0  0  0  0  0
    8.7018    2.5680    0.0000 C   0  0  0  0  0  0  0  0  0  0  0  0
    6.0849   -2.1206    0.0000 C   0  0  0  0  0  0  0  0  0  0  0  0
    8.1750   -0.9910    0.0000 C   0  0  0  0  0  0  0  0  0  0  0  0
    6.1008    0.9487    0.0000 C   0  0  0  0  0  0  0  0  0  0  0  0
   10.5767    2.5897    0.0000 C   0  0  3  0  0  0  0  0  0  0  0  0
    7.8570    1.9766    0.0000 C   0  0  0  0  0  0  0  0  0  0  0  0
    4.2640    0.0059    0.0000 C   0  0  3  0  0  0  0  0  0  0  0  0
    7.6097   -1.3174    0.0000 C   0  0  0  0  0  0  0  0  0  0  0  0
    9.6329    3.1250    0.0000 C   0  0  0  0  0  0  0  0  0  0  0  0
    4.2474   -2.1495    0.0000 C   0  0  0  0  0  0  0  0  0  0  0  0
    3.3161   -0.5220    0.0000 C   0  0  3  0  0  0  0  0  0  0  0  0
    3.3078   -1.6070    0.0000 C   0  0  0  0  0  0  0  0  0  0  0  0
   11.5767    1.5009    0.0000 C   0  0  0  0  0  0  0  0  0  0  0  0
   11.0733    0.6368    0.0000 C   0  0  0  0  0  0  0  0  0  0  0  0
    5.1751   -2.5997    0.0000 C   0  0  0  0  0  0  0  0  0  0  0  0
    4.2833    1.0057    0.0000 C   0  0  0  0  0  0  0  0  0  0  0  0
    2.8262    0.3497    0.0000 C   0  0  0  0  0  0  0  0  0  0  0  0
    8.3722    0.6428    0.0000 H   0  0  0  0  0  0  0  0  0  0  0  0
   10.1686    0.6574    0.0000 H   0  0  0  0  0  0  0  0  0  0  0  0
    8.3222   -1.0558    0.0000 H   0  0  0  0  0  0  0  0  0  0  0  0
    9.1205   -1.0650    0.0000 H   0  0  0  0  0  0  0  0  0  0  0  0
    9.8420   -0.6558    0.0000 H   0  0  0  0  0  0  0  0  0  0  0  0
   10.2438    0.0339    0.0000 H   0  0  0  0  0  0  0  0  0  0  0  0
    5.2028    0.0617    0.0000 H   0  0  0  0  0  0  0  0  0  0  0  0
    7.3654    1.9236    0.0000 H   0  0  0  0  0  0  0  0  0  0  0  0
    6.5683    1.9236    0.0000 H   0  0  0  0  0  0  0  0  0  0  0  0
    7.2010   -2.1732    0.0000 H   0  0  0  0  0  0  0  0  0  0  0  0
    7.5921   -1.4774    0.0000 H   0  0  0  0  0  0  0  0  0  0  0  0
    8.4792    3.1467    0.0000 H   0  0  0  0  0  0  0  0  0  0  0  0
    8.0935    2.4478    0.0000 H   0  0  0  0  0  0  0  0  0  0  0  0
    5.6876   -2.5966    0.0000 H   0  0  0  0  0  0  0  0  0  0  0  0
    6.4859   -2.5935    0.0000 H   0  0  0  0  0  0  0  0  0  0  0  0
    7.5924   -1.2031    0.0000 H   0  0  0  0  0  0  0  0  0  0  0  0
    8.3871   -1.5736    0.0000 H   0  0  0  0  0  0  0  0  0  0  0  0
    8.7576   -0.7789    0.0000 H   0  0  0  0  0  0  0  0  0  0  0  0
    5.5639    1.2587    0.0000 H   0  0  0  0  0  0  0  0  0  0  0  0
   10.5731    3.2097    0.0000 H   0  0  0  0  0  0  0  0  0  0  0  0
    8.1628    2.5159    0.0000 H   0  0  0  0  0  0  0  0  0  0  0  0
    7.3177    2.2825    0.0000 H   0  0  0  0  0  0  0  0  0  0  0  0
    7.5511    1.4373    0.0000 H   0  0  0  0  0  0  0  0  0  0  0  0
    4.8074    0.3044    0.0000 H   0  0  0  0  0  0  0  0  0  0  0  0
    7.1347   -1.7159    0.0000 H   0  0  0  0  0  0  0  0  0  0  0  0
    8.0082   -1.7923    0.0000 H   0  0  0  0  0  0  0  0  0  0  0  0
    8.0846   -0.9189    0.0000 H   0  0  0  0  0  0  0  0  0  0  0  0
   10.0265    3.6040    0.0000 H   0  0  0  0  0  0  0  0  0  0  0  0
    9.2283    3.5947    0.0000 H   0  0  0  0  0  0  0  0  0  0  0  0
    3.8501   -2.6255    0.0000 H   0  0  0  0  0  0  0  0  0  0  0  0
    4.6484   -2.6224    0.0000 H   0  0  0  0  0  0  0  0  0  0  0  0
    2.6977   -1.4962    0.0000 H   0  0  0  0  0  0  0  0  0  0  0  0
    3.0942   -2.1891    0.0000 H   0  0  0  0  0  0  0  0  0  0  0  0
   10.5352    0.3288    0.0000 H   0  0  0  0  0  0  0  0  0  0  0  0
   11.3813    0.0986    0.0000 H   0  0  0  0  0  0  0  0  0  0  0  0
   11.6115    0.9447    0.0000 H   0  0  0  0  0  0  0  0  0  0  0  0
   11.5743    0.8809    0.0000 H   0  0  0  0  0  0  0  0  0  0  0  0
   12.1967    1.4985    0.0000 H   0  0  0  0  0  0  0  0  0  0  0  0
   11.5791    2.1209    0.0000 H   0  0  0  0  0  0  0  0  0  0  0  0
    4.9032    0.9938    0.0000 H   0  0  0  0  0  0  0  0  0  0  0  0
    4.2952    1.6256    0.0000 H   0  0  0  0  0  0  0  0  0  0  0  0
    3.6634    1.0177    0.0000 H   0  0  0  0  0  0  0  0  0  0  0  0
    3.3666    0.6535    0.0000 H   0  0  0  0  0  0  0  0  0  0  0  0
    2.5224    0.8902    0.0000 H   0  0  0  0  0  0  0  0  0  0  0  0
    2.2857    0.0459    0.0000 H   0  0  0  0  0  0  0  0  0  0  0  0
   11.4384    3.7130    0.0000 H   0  0  0  0  0  0  0  0  0  0  0  0
    2.0000   -1.0438    0.0000 H   0  0  0  0  0  0  0  0  0  0  0  0
    4.3005   -3.7130    0.0000 H   0  0  0  0  0  0  0  0  0  0  0  0
  1 22  1  0  0  0  0
  1 80  1  0  0  0  0
  2 28  1  0  0  0  0
  2 81  1  0  0  0  0
  3 32  1  0  0  0  0
  3 82  1  0  0  0  0
  4 32  2  0  0  0  0
  5  6  1  0  0  0  0
  5  8  1  0  0  0  0
  5 10  1  0  0  0  0
  5 20  1  0  0  0  0
  6  7  1  0  0  0  0
  6 15  1  0  0  0  0
  6 35  1  0  0  0  0
  7  9  1  0  0  0  0
  7 18  1  0  0  0  0
  7 23  1  0  0  0  0
  8 11  1  0  0  0  0
  8 16  1  0  0  0  0
  8 25  1  0  0  0  0
  9 12  1  0  0  0  0
  9 14  1  0  0  0  0
  9 36  1  0  0  0  0
 10 12  1  0  0  0  0
 10 37  1  0  0  0  0
 10 38  1  0  0  0  0
 11 13  1  0  0  0  0
 11 21  2  0  0  0  0
 12 39  1  0  0  0  0
 12 40  1  0  0  0  0
 13 17  1  0  0  0  0
 13 24  1  0  0  0  0
 13 41  1  0  0  0  0
 14 22  1  0  0  0  0
 14 30  1  0  0  0  0
 14 31  1  0  0  0  0
 15 21  1  0  0  0  0
 15 42  1  0  0  0  0
 15 43  1  0  0  0  0
 16 19  1  0  0  0  0
 16 44  1  0  0  0  0
 16 45  1  0  0  0  0
 17 19  1  0  0  0  0
 17 27  1  0  0  0  0
 17 32  1  0  0  0  0
 18 26  1  0  0  0  0
 18 46  1  0  0  0  0
 18 47  1  0  0  0  0
 19 48  1  0  0  0  0
 19 49  1  0  0  0  0
 20 50  1  0  0  0  0
 20 51  1  0  0  0  0
 20 52  1  0  0  0  0
 21 53  1  0  0  0  0
 22 26  1  0  0  0  0
 22 54  1  0  0  0  0
 23 55  1  0  0  0  0
 23 56  1  0  0  0  0
 23 57  1  0  0  0  0
 24 28  1  0  0  0  0
 24 33  1  0  0  0  0
 24 58  1  0  0  0  0
 25 59  1  0  0  0  0
 25 60  1  0  0  0  0
 25 61  1  0  0  0  0
 26 62  1  0  0  0  0
 26 63  1  0  0  0  0
 27 29  1  0  0  0  0
 27 64  1  0  0  0  0
 27 65  1  0  0  0  0
 28 29  1  0  0  0  0
 28 34  1  0  0  0  0
 29 66  1  0  0  0  0
 29 67  1  0  0  0  0
 30 71  1  0  0  0  0
 30 72  1  0  0  0  0
 30 73  1  0  0  0  0
 31 68  1  0  0  0  0
 31 69  1  0  0  0  0
 31 70  1  0  0  0  0
 33 74  1  0  0  0  0
 33 75  1  0  0  0  0
 33 76  1  0  0  0  0
 34 77  1  0  0  0  0
 34 78  1  0  0  0  0
 34 79  1  0  0  0  0
M  END
>  <PUBCHEM_COMPOUND_CID>
73021944

>  <PUBCHEM_COMPOUND_CANONICALIZED>
1

>  <PUBCHEM_CACTVS_COMPLEXITY>
923

>  <PUBCHEM_CACTVS_HBOND_ACCEPTOR>
4

>  <PUBCHEM_CACTVS_HBOND_DONOR>
3

>  <PUBCHEM_CACTVS_ROTATABLE_BOND>
1

>  <PUBCHEM_CACTVS_SUBSKEYS>
AAADcfB4OAAAAAAAAAAAAAAAAAAAAAAAAAAwYMGCAAAAAADAAAAAGgAACAAAD1SggAICCAAAAgCIAiDSCAAAAAAgAAAACAEAAAgAEBIAAQAAQAAEgAAIAAOI7PTPgAAAAAAAAADAAAYAADAAAAAAAAAAAA==

>  <PUBCHEM_IUPAC_OPENEYE_NAME>
2,10-dihydroxy-1,2,6a,6b,9,9,12a-heptamethyl-1,3,4,5,6,6a,7,8,8a,10,11,12,13,14b-tetradecahydropicene-4a-carboxylic acid

>  <PUBCHEM_IUPAC_CAS_NAME>
2,10-dihydroxy-1,2,6a,6b,9,9,12a-heptamethyl-1,3,4,5,6,6a,7,8,8a,10,11,12,13,14b-tetradecahydropicene-4a-carboxylic acid

>  <PUBCHEM_IUPAC_NAME>
2,10-dihydroxy-1,2,6a,6b,9,9,12a-heptamethyl-1,3,4,5,6,6a,7,8,8a,10,11,12,13,14b-tetradecahydropicene-4a-carboxylic acid

>  <PUBCHEM_IUPAC_SYSTEMATIC_NAME>
1,2,6a,6b,9,9,12a-heptamethyl-2,10-bis(oxidanyl)-1,3,4,5,6,6a,7,8,8a,10,11,12,13,14b-tetradecahydropicene-4a-carboxylic acid

>  <PUBCHEM_IUPAC_TRADITIONAL_NAME>
2,10-dihydroxy-1,2,6a,6b,9,9,12a-heptamethyl-1,3,4,5,6,6a,7,8,8a,10,11,12,13,14b-tetradecahydropicene-4a-carboxylic acid

>  <PUBCHEM_IUPAC_INCHI>
InChI=1S/C30H48O4/c1-18-23-19-8-9-21-26(4)12-11-22(31)25(2,3)20(26)10-13-28(21,6)27(19,5)14-16-30(23,24(32)33)17-15-29(18,7)34/h8,18,20-23,31,34H,9-17H2,1-7H3,(H,32,33)

>  <PUBCHEM_IUPAC_INCHIKEY>
URJPXMKINYSFCX-UHFFFAOYSA-N

>  <PUBCHEM_XLOGP3_AA>
5.9

>  <PUBCHEM_EXACT_MASS>
472.355

>  <PUBCHEM_MOLECULAR_FORMULA>
C30H48O4

>  <PUBCHEM_MOLECULAR_WEIGHT>
472.71

>  <PUBCHEM_OPENEYE_CAN_SMILES>
CC1C2C3=CCC4C5(CCC(C(C5CCC4(C3(CCC2(CCC1(C)O)C(=O)O)C)C)(C)C)O)C

>  <PUBCHEM_OPENEYE_ISO_SMILES>
CC1C2C3=CCC4C5(CCC(C(C5CCC4(C3(CCC2(CCC1(C)O)C(=O)O)C)C)(C)C)O)C

>  <PUBCHEM_CACTVS_TPSA>
77.8

>  <PUBCHEM_MONOISOTOPIC_WEIGHT>
472.355

>  <PUBCHEM_TOTAL_CHARGE>
0

>  <PUBCHEM_HEAVY_ATOM_COUNT>
34

>  <PUBCHEM_ATOM_DEF_STEREO_COUNT>
0

>  <PUBCHEM_ATOM_UDEF_STEREO_COUNT>
10

>  <PUBCHEM_BOND_DEF_STEREO_COUNT>
0

>  <PUBCHEM_BOND_UDEF_STEREO_COUNT>
0

>  <PUBCHEM_ISOTOPIC_ATOM_COUNT>
0

>  <PUBCHEM_COMPONENT_COUNT>
1

>  <PUBCHEM_CACTVS_TAUTO_COUNT>
1

>  <PUBCHEM_COORDINATE_TYPE>
1
5
255

>  <PUBCHEM_BONDANNOTATIONS>
22  1  3
13  11  3
17  32  3
28  2  3
24  33  3
5  20  3
6  15  3
7  23  3
8  25  3
9  12  3

$$$$
