73044
 OpenBabel06101807152D

 40 43  0  0  0  0  0  0  0  0999 V2000
    4.3771   -0.2032    0.0000 O   0  0  0  0  0  0  0  0  0  0  0  0
    2.8804   -1.1161    0.0000 O   0  0  0  0  0  0  0  0  0  0  0  0
    6.5247    3.2428    0.0000 O   0  0  0  0  0  0  0  0  0  0  0  0
    4.4764    3.2428    0.0000 O   0  0  0  0  0  0  0  0  0  0  0  0
    7.5990    0.0194    0.0000 O   0  0  0  0  0  0  0  0  0  0  0  0
    7.2711   -1.7515    0.0000 N   0  0  0  0  0  0  0  0  0  0  0  0
    5.5006   -1.6120    0.0000 C   0  0  0  0  0  0  0  0  0  0  0  0
    4.5996   -1.1781    0.0000 C   0  0  0  0  0  0  0  0  0  0  0  0
    6.4015   -1.1781    0.0000 C   0  0  0  0  0  0  0  0  0  0  0  0
    5.4067   -2.6494    0.0000 C   0  0  0  0  0  0  0  0  0  0  0  0
    6.0006    0.5787    0.0000 C   0  0  0  0  0  0  0  0  0  0  0  0
    5.0006    0.5787    0.0000 C   0  0  0  0  0  0  0  0  0  0  0  0
    6.6241   -0.2032    0.0000 C   0  0  0  0  0  0  0  0  0  0  0  0
    3.7313   -1.6415    0.0000 C   0  0  0  0  0  0  0  0  0  0  0  0
    4.5494   -3.1327    0.0000 C   0  0  0  0  0  0  0  0  0  0  0  0
    6.5352    1.4726    0.0000 C   0  0  0  0  0  0  0  0  0  0  0  0
    4.4659    1.4726    0.0000 C   0  0  0  0  0  0  0  0  0  0  0  0
    3.7060   -2.6253    0.0000 C   0  0  0  0  0  0  0  0  0  0  0  0
    6.2628   -3.2428    0.0000 C   0  0  0  0  0  0  0  0  0  0  0  0
    6.0214    2.3787    0.0000 C   0  0  0  0  0  0  0  0  0  0  0  0
    4.9798    2.3787    0.0000 C   0  0  0  0  0  0  0  0  0  0  0  0
    7.2013   -2.7908    0.0000 C   0  0  0  0  0  0  0  0  0  0  0  0
    2.0000   -1.5903    0.0000 C   0  0  0  0  0  0  0  0  0  0  0  0
    7.5247    3.2389    0.0000 C   0  0  0  0  0  0  0  0  0  0  0  0
    3.4764    3.2389    0.0000 C   0  0  0  0  0  0  0  0  0  0  0  0
    4.5406   -3.7526    0.0000 H   0  0  0  0  0  0  0  0  0  0  0  0
    7.1552    1.4654    0.0000 H   0  0  0  0  0  0  0  0  0  0  0  0
    3.8460    1.4654    0.0000 H   0  0  0  0  0  0  0  0  0  0  0  0
    3.1624   -2.9235    0.0000 H   0  0  0  0  0  0  0  0  0  0  0  0
    6.2141   -3.8608    0.0000 H   0  0  0  0  0  0  0  0  0  0  0  0
    7.7149   -3.1381    0.0000 H   0  0  0  0  0  0  0  0  0  0  0  0
    1.7060   -1.0444    0.0000 H   0  0  0  0  0  0  0  0  0  0  0  0
    1.4541   -1.8843    0.0000 H   0  0  0  0  0  0  0  0  0  0  0  0
    2.2940   -2.1361    0.0000 H   0  0  0  0  0  0  0  0  0  0  0  0
    7.5223    2.6189    0.0000 H   0  0  0  0  0  0  0  0  0  0  0  0
    8.1447    3.2365    0.0000 H   0  0  0  0  0  0  0  0  0  0  0  0
    7.5271    3.8589    0.0000 H   0  0  0  0  0  0  0  0  0  0  0  0
    3.4740    3.8589    0.0000 H   0  0  0  0  0  0  0  0  0  0  0  0
    2.8564    3.2365    0.0000 H   0  0  0  0  0  0  0  0  0  0  0  0
    3.4788    2.6189    0.0000 H   0  0  0  0  0  0  0  0  0  0  0  0
  1  8  1  0  0  0  0
  1 12  1  0  0  0  0
  2 14  1  0  0  0  0
  2 23  1  0  0  0  0
  3 20  1  0  0  0  0
  3 24  1  0  0  0  0
  4 21  1  0  0  0  0
  4 25  1  0  0  0  0
  5 13  2  0  0  0  0
  6  9  2  0  0  0  0
  6 22  1  0  0  0  0
  7  8  1  0  0  0  0
  7  9  1  0  0  0  0
  7 10  2  0  0  0  0
  8 14  2  0  0  0  0
  9 13  1  0  0  0  0
 10 15  1  0  0  0  0
 10 19  1  0  0  0  0
 11 12  1  0  0  0  0
 11 13  1  0  0  0  0
 11 16  2  0  0  0  0
 12 17  2  0  0  0  0
 14 18  1  0  0  0  0
 15 18  2  0  0  0  0
 15 26  1  0  0  0  0
 16 20  1  0  0  0  0
 16 27  1  0  0  0  0
 17 21  1  0  0  0  0
 17 28  1  0  0  0  0
 18 29  1  0  0  0  0
 19 22  2  0  0  0  0
 19 30  1  0  0  0  0
 20 21  2  0  0  0  0
 22 31  1  0  0  0  0
 23 32  1  0  0  0  0
 23 33  1  0  0  0  0
 23 34  1  0  0  0  0
 24 35  1  0  0  0  0
 24 36  1  0  0  0  0
 24 37  1  0  0  0  0
 25 38  1  0  0  0  0
 25 39  1  0  0  0  0
 25 40  1  0  0  0  0
M  END
>  <PUBCHEM_COMPOUND_CID>
73044

>  <PUBCHEM_COMPOUND_CANONICALIZED>
1

>  <PUBCHEM_CACTVS_COMPLEXITY>
500

>  <PUBCHEM_CACTVS_HBOND_ACCEPTOR>
6

>  <PUBCHEM_CACTVS_HBOND_DONOR>
0

>  <PUBCHEM_CACTVS_ROTATABLE_BOND>
3

>  <PUBCHEM_CACTVS_SUBSKEYS>
AAADccB6OAAAAAAAAAAAAAAAAAAAAAAAAAA8YIAABIAAAACx9AAAHgAAAAAADAzBngY+htIIFACoA7R3RACCiCA3IiAI2CG+7NgNJ3bEtbuGOWrn4B3K6Yf6/P/OoQABCAAYQABCAAIQADCAAAAAAAAAAA==

>  <PUBCHEM_IUPAC_INCHI>
InChI=1S/C19H15NO5/c1-22-12-5-4-10-6-7-20-17-16(10)19(12)25-13-9-15(24-3)14(23-2)8-11(13)18(17)21/h4-9H,1-3H3

>  <PUBCHEM_IUPAC_INCHIKEY>
AGKDNGLOUYCNMU-UHFFFAOYSA-N

>  <PUBCHEM_XLOGP3_AA>
3.4

>  <PUBCHEM_EXACT_MASS>
337.095

>  <PUBCHEM_MOLECULAR_FORMULA>
C19H15NO5

>  <PUBCHEM_MOLECULAR_WEIGHT>
337.331

>  <PUBCHEM_OPENEYE_CAN_SMILES>
COC1=C2C3=C(C=C1)C=CN=C3C(=O)C4=CC(=C(C=C4O2)OC)OC

>  <PUBCHEM_OPENEYE_ISO_SMILES>
COC1=C2C3=C(C=C1)C=CN=C3C(=O)C4=CC(=C(C=C4O2)OC)OC

>  <PUBCHEM_CACTVS_TPSA>
66.9

>  <PUBCHEM_MONOISOTOPIC_WEIGHT>
337.095

>  <PUBCHEM_TOTAL_CHARGE>
0

>  <PUBCHEM_HEAVY_ATOM_COUNT>
25

>  <PUBCHEM_ATOM_DEF_STEREO_COUNT>
0

>  <PUBCHEM_ATOM_UDEF_STEREO_COUNT>
0

>  <PUBCHEM_BOND_DEF_STEREO_COUNT>
0

>  <PUBCHEM_BOND_UDEF_STEREO_COUNT>
0

>  <PUBCHEM_ISOTOPIC_ATOM_COUNT>
0

>  <PUBCHEM_COMPONENT_COUNT>
1

>  <PUBCHEM_CACTVS_TAUTO_COUNT>
1

>  <PUBCHEM_COORDINATE_TYPE>
1
5
255

>  <PUBCHEM_BONDANNOTATIONS>
10  15  8
10  19  8
11  12  8
11  16  8
12  17  8
14  18  8
15  18  8
16  20  8
17  21  8
19  22  8
20  21  8
6  22  8
6  9  8
7  10  8
7  8  8
7  9  8
8  14  8

$$$$
