73088337
 OpenBabel06101807152D

 73 77  0  0  1  0  0  0  0  0999 V2000
    8.6405   -2.7787    0.0000 O   0  0  0  0  0  0  0  0  0  0  0  0
    6.9085   -2.7787    0.0000 O   0  0  0  0  0  0  0  0  0  0  0  0
    7.7745   -0.2787    0.0000 O   0  0  0  0  0  0  0  0  0  0  0  0
   10.3726   -1.7787    0.0000 O   0  0  0  0  0  0  0  0  0  0  0  0
    6.9085   -1.7787    0.0000 O   0  0  0  0  0  0  0  0  0  0  0  0
   10.3726    0.2213    0.0000 O   0  0  0  0  0  0  0  0  0  0  0  0
    8.6405   -4.7787    0.0000 O   0  0  0  0  0  0  0  0  0  0  0  0
    6.9085   -5.7787    0.0000 O   0  0  0  0  0  0  0  0  0  0  0  0
    5.1764   -4.7787    0.0000 O   0  0  0  0  0  0  0  0  0  0  0  0
    9.5066    1.7213    0.0000 O   0  0  0  0  0  0  0  0  0  0  0  0
    4.3104   -3.2787    0.0000 O   0  0  0  0  0  0  0  0  0  0  0  0
    5.1343    1.2733    0.0000 O   0  0  0  0  0  0  0  0  0  0  0  0
    3.3688   -1.7514    0.0000 O   0  0  0  0  0  0  0  0  0  0  0  0
    2.5304   -0.2167    0.0000 O   0  0  0  0  0  0  0  0  0  0  0  0
    2.5381    1.7833    0.0000 O   0  0  0  0  0  0  0  0  0  0  0  0
    4.2856    5.7766    0.0000 O   0  0  0  0  0  0  0  0  0  0  0  0
    8.6405   -1.7787    0.0000 C   0  0  3  0  0  0  0  0  0  0  0  0
    9.5066   -1.2787    0.0000 C   0  0  3  0  0  0  0  0  0  0  0  0
    9.5066   -0.2787    0.0000 C   0  0  3  0  0  0  0  0  0  0  0  0
    7.7745   -3.2787    0.0000 C   0  0  3  0  0  0  0  0  0  0  0  0
    7.7745   -4.2787    0.0000 C   0  0  3  0  0  0  0  0  0  0  0  0
    7.7745   -1.2787    0.0000 C   0  0  3  0  0  0  0  0  0  0  0  0
    6.9085   -4.7787    0.0000 C   0  0  3  0  0  0  0  0  0  0  0  0
    8.6405    0.2213    0.0000 C   0  0  3  0  0  0  0  0  0  0  0  0
    6.0425   -4.2787    0.0000 C   0  0  3  0  0  0  0  0  0  0  0  0
    6.0425   -3.2787    0.0000 C   0  0  3  0  0  0  0  0  0  0  0  0
    8.6405    1.2213    0.0000 C   0  0  0  0  0  0  0  0  0  0  0  0
    5.1764   -2.7787    0.0000 C   0  0  0  0  0  0  0  0  0  0  0  0
    6.0425   -1.2787    0.0000 C   0  0  0  0  0  0  0  0  0  0  0  0
    6.0384   -0.2370    0.0000 C   0  0  0  0  0  0  0  0  0  0  0  0
    5.1384   -1.7960    0.0000 C   0  0  0  0  0  0  0  0  0  0  0  0
    5.1304    0.2733    0.0000 C   0  0  0  0  0  0  0  0  0  0  0  0
    4.2424   -1.2648    0.0000 C   0  0  0  0  0  0  0  0  0  0  0  0
    4.2625   -0.2234    0.0000 C   0  0  0  0  0  0  0  0  0  0  0  0
    3.3984    0.2800    0.0000 C   0  0  0  0  0  0  0  0  0  0  0  0
    4.2702    1.7766    0.0000 C   0  0  0  0  0  0  0  0  0  0  0  0
    3.4022    1.2800    0.0000 C   0  0  0  0  0  0  0  0  0  0  0  0
    4.2740    2.7766    0.0000 C   0  0  0  0  0  0  0  0  0  0  0  0
    5.1420    3.2733    0.0000 C   0  0  0  0  0  0  0  0  0  0  0  0
    3.4099    3.2800    0.0000 C   0  0  0  0  0  0  0  0  0  0  0  0
    5.1458    4.2733    0.0000 C   0  0  0  0  0  0  0  0  0  0  0  0
    3.4138    4.2800    0.0000 C   0  0  0  0  0  0  0  0  0  0  0  0
    4.2817    4.7766    0.0000 C   0  0  0  0  0  0  0  0  0  0  0  0
    8.1036   -2.0887    0.0000 H   0  0  0  0  0  0  0  0  0  0  0  0
    9.5066   -1.8987    0.0000 H   0  0  0  0  0  0  0  0  0  0  0  0
   10.0435   -0.5887    0.0000 H   0  0  0  0  0  0  0  0  0  0  0  0
    8.3114   -3.5887    0.0000 H   0  0  0  0  0  0  0  0  0  0  0  0
    7.7745   -4.8987    0.0000 H   0  0  0  0  0  0  0  0  0  0  0  0
    7.2376   -0.9687    0.0000 H   0  0  0  0  0  0  0  0  0  0  0  0
    6.3716   -5.0887    0.0000 H   0  0  0  0  0  0  0  0  0  0  0  0
    8.1036    0.5313    0.0000 H   0  0  0  0  0  0  0  0  0  0  0  0
    5.5055   -3.9687    0.0000 H   0  0  0  0  0  0  0  0  0  0  0  0
    6.0425   -2.6587    0.0000 H   0  0  0  0  0  0  0  0  0  0  0  0
    8.4285    1.8039    0.0000 H   0  0  0  0  0  0  0  0  0  0  0  0
    8.0300    1.1137    0.0000 H   0  0  0  0  0  0  0  0  0  0  0  0
    5.5750   -2.3037    0.0000 H   0  0  0  0  0  0  0  0  0  0  0  0
    4.7779   -2.3037    0.0000 H   0  0  0  0  0  0  0  0  0  0  0  0
   10.9095   -1.4687    0.0000 H   0  0  0  0  0  0  0  0  0  0  0  0
   10.9095   -0.0887    0.0000 H   0  0  0  0  0  0  0  0  0  0  0  0
    9.1775   -4.4687    0.0000 H   0  0  0  0  0  0  0  0  0  0  0  0
    7.4454   -6.0887    0.0000 H   0  0  0  0  0  0  0  0  0  0  0  0
    5.1764   -5.3987    0.0000 H   0  0  0  0  0  0  0  0  0  0  0  0
    9.5066    2.3413    0.0000 H   0  0  0  0  0  0  0  0  0  0  0  0
    3.7735   -2.9687    0.0000 H   0  0  0  0  0  0  0  0  0  0  0  0
    6.5730    0.0771    0.0000 H   0  0  0  0  0  0  0  0  0  0  0  0
    5.1336   -2.4160    0.0000 H   0  0  0  0  0  0  0  0  0  0  0  0
    2.8367   -1.4331    0.0000 H   0  0  0  0  0  0  0  0  0  0  0  0
    5.6777    2.9612    0.0000 H   0  0  0  0  0  0  0  0  0  0  0  0
    2.8718    2.9720    0.0000 H   0  0  0  0  0  0  0  0  0  0  0  0
    2.0000    1.4754    0.0000 H   0  0  0  0  0  0  0  0  0  0  0  0
    5.6840    4.5812    0.0000 H   0  0  0  0  0  0  0  0  0  0  0  0
    2.8780    4.5920    0.0000 H   0  0  0  0  0  0  0  0  0  0  0  0
    3.7498    6.0887    0.0000 H   0  0  0  0  0  0  0  0  0  0  0  0
  1 17  1  0  0  0  0
  1 20  1  0  0  0  0
  2 20  1  0  0  0  0
  2 26  1  0  0  0  0
  3 22  1  0  0  0  0
  3 24  1  0  0  0  0
  4 18  1  0  0  0  0
  4 58  1  0  0  0  0
  5 22  1  0  0  0  0
  5 29  1  0  0  0  0
  6 19  1  0  0  0  0
  6 59  1  0  0  0  0
  7 21  1  0  0  0  0
  7 60  1  0  0  0  0
  8 23  1  0  0  0  0
  8 61  1  0  0  0  0
  9 25  1  0  0  0  0
  9 62  1  0  0  0  0
 10 27  1  0  0  0  0
 10 63  1  0  0  0  0
 11 28  1  0  0  0  0
 11 64  1  0  0  0  0
 12 32  1  0  0  0  0
 12 36  1  0  0  0  0
 13 33  1  0  0  0  0
 13 67  1  0  0  0  0
 14 35  2  0  0  0  0
 15 37  1  0  0  0  0
 15 70  1  0  0  0  0
 16 43  1  0  0  0  0
 16 73  1  0  0  0  0
 17 18  1  0  0  0  0
 17 22  1  0  0  0  0
 17 44  1  0  0  0  0
 18 19  1  0  0  0  0
 18 45  1  0  0  0  0
 19 24  1  0  0  0  0
 19 46  1  0  0  0  0
 20 21  1  0  0  0  0
 20 47  1  0  0  0  0
 21 23  1  0  0  0  0
 21 48  1  0  0  0  0
 22 49  1  0  0  0  0
 23 25  1  0  0  0  0
 23 50  1  0  0  0  0
 24 27  1  0  0  0  0
 24 51  1  0  0  0  0
 25 26  1  0  0  0  0
 25 52  1  0  0  0  0
 26 28  1  0  0  0  0
 26 53  1  0  0  0  0
 27 54  1  0  0  0  0
 27 55  1  0  0  0  0
 28 56  1  0  0  0  0
 28 57  1  0  0  0  0
 29 30  1  0  0  0  0
 29 31  2  0  0  0  0
 30 32  2  0  0  0  0
 30 65  1  0  0  0  0
 31 33  1  0  0  0  0
 31 66  1  0  0  0  0
 32 34  1  0  0  0  0
 33 34  2  0  0  0  0
 34 35  1  0  0  0  0
 35 37  1  0  0  0  0
 36 37  2  0  0  0  0
 36 38  1  0  0  0  0
 38 39  2  0  0  0  0
 38 40  1  0  0  0  0
 39 41  1  0  0  0  0
 39 68  1  0  0  0  0
 40 42  2  0  0  0  0
 40 69  1  0  0  0  0
 41 43  2  0  0  0  0
 41 71  1  0  0  0  0
 42 43  1  0  0  0  0
 42 72  1  0  0  0  0
M  END
>  <PUBCHEM_COMPOUND_CID>
73088337

>  <PUBCHEM_COMPOUND_CANONICALIZED>
1

>  <PUBCHEM_CACTVS_COMPLEXITY>
1000

>  <PUBCHEM_CACTVS_HBOND_ACCEPTOR>
16

>  <PUBCHEM_CACTVS_HBOND_DONOR>
10

>  <PUBCHEM_CACTVS_ROTATABLE_BOND>
7

>  <PUBCHEM_CACTVS_SUBSKEYS>
AAADceB4PgAAAAAAAAAAAAAAAAAAAAAAAAA0aIECAAAAAACBQAAAGgAACAAADBSwmAMwDoAABgCIAqBSAAICCAAkIAAIiAFGCMgdNzaGNRqieWCl4BUPuQfI7KzOIAAACAAIAABAAAAQABAAAAAAAAAAAA==

>  <PUBCHEM_IUPAC_OPENEYE_NAME>
7-[4,5-dihydroxy-6-(hydroxymethyl)-3-[3,4,5-trihydroxy-6-(hydroxymethyl)tetrahydropyran-2-yl]oxy-tetrahydropyran-2-yl]oxy-3,5-dihydroxy-2-(4-hydroxyphenyl)chromen-4-one

>  <PUBCHEM_IUPAC_CAS_NAME>
7-[[4,5-dihydroxy-6-(hydroxymethyl)-3-[[3,4,5-trihydroxy-6-(hydroxymethyl)-2-oxanyl]oxy]-2-oxanyl]oxy]-3,5-dihydroxy-2-(4-hydroxyphenyl)-1-benzopyran-4-one

>  <PUBCHEM_IUPAC_NAME>
7-[4,5-dihydroxy-6-(hydroxymethyl)-3-[3,4,5-trihydroxy-6-(hydroxymethyl)oxan-2-yl]oxyoxan-2-yl]oxy-3,5-dihydroxy-2-(4-hydroxyphenyl)chromen-4-one

>  <PUBCHEM_IUPAC_SYSTEMATIC_NAME>
7-[6-(hydroxymethyl)-3-[6-(hydroxymethyl)-3,4,5-tris(oxidanyl)oxan-2-yl]oxy-4,5-bis(oxidanyl)oxan-2-yl]oxy-2-(4-hydroxyphenyl)-3,5-bis(oxidanyl)chromen-4-one

>  <PUBCHEM_IUPAC_TRADITIONAL_NAME>
7-[4,5-dihydroxy-6-methylol-3-(3,4,5-trihydroxy-6-methylol-tetrahydropyran-2-yl)oxy-tetrahydropyran-2-yl]oxy-3,5-dihydroxy-2-(4-hydroxyphenyl)chromone

>  <PUBCHEM_IUPAC_INCHI>
InChI=1S/C27H30O16/c28-7-14-17(32)20(35)23(38)26(41-14)43-25-21(36)18(33)15(8-29)42-27(25)39-11-5-12(31)16-13(6-11)40-24(22(37)19(16)34)9-1-3-10(30)4-2-9/h1-6,14-15,17-18,20-21,23,25-33,35-38H,7-8H2

>  <PUBCHEM_IUPAC_INCHIKEY>
QIIWNLYXERJKDH-UHFFFAOYSA-N

>  <PUBCHEM_XLOGP3_AA>
-0.9

>  <PUBCHEM_EXACT_MASS>
610.153

>  <PUBCHEM_MOLECULAR_FORMULA>
C27H30O16

>  <PUBCHEM_MOLECULAR_WEIGHT>
610.521

>  <PUBCHEM_OPENEYE_CAN_SMILES>
C1=CC(=CC=C1C2=C(C(=O)C3=C(C=C(C=C3O2)OC4C(C(C(C(O4)CO)O)O)OC5C(C(C(C(O5)CO)O)O)O)O)O)O

>  <PUBCHEM_OPENEYE_ISO_SMILES>
C1=CC(=CC=C1C2=C(C(=O)C3=C(C=C(C=C3O2)OC4C(C(C(C(O4)CO)O)O)OC5C(C(C(C(O5)CO)O)O)O)O)O)O

>  <PUBCHEM_CACTVS_TPSA>
266

>  <PUBCHEM_MONOISOTOPIC_WEIGHT>
610.153

>  <PUBCHEM_TOTAL_CHARGE>
0

>  <PUBCHEM_HEAVY_ATOM_COUNT>
43

>  <PUBCHEM_ATOM_DEF_STEREO_COUNT>
0

>  <PUBCHEM_ATOM_UDEF_STEREO_COUNT>
10

>  <PUBCHEM_BOND_DEF_STEREO_COUNT>
0

>  <PUBCHEM_BOND_UDEF_STEREO_COUNT>
0

>  <PUBCHEM_ISOTOPIC_ATOM_COUNT>
0

>  <PUBCHEM_COMPONENT_COUNT>
1

>  <PUBCHEM_CACTVS_TAUTO_COUNT>
53

>  <PUBCHEM_COORDINATE_TYPE>
1
5
255

>  <PUBCHEM_BONDANNOTATIONS>
17  1  3
20  1  3
12  32  8
12  36  8
24  27  3
26  28  3
29  30  8
29  31  8
30  32  8
31  33  8
32  34  8
33  34  8
34  35  8
35  37  8
36  37  8
38  39  8
38  40  8
39  41  8
18  4  3
40  42  8
41  43  8
42  43  8
22  5  3
19  6  3
21  7  3
23  8  3
25  9  3

$$$$
