73111
 OpenBabel06101807152D

100107  0  0  1  0  0  0  0  0999 V2000
    6.8671   -3.9191    0.0000 O   0  0  0  0  0  0  0  0  0  0  0  0
   10.4454    3.1091    0.0000 O   0  0  0  0  0  0  0  0  0  0  0  0
    5.1350   -3.9191    0.0000 O   0  0  0  0  0  0  0  0  0  0  0  0
   11.3114    4.6091    0.0000 O   0  0  0  0  0  0  0  0  0  0  0  0
    6.8671   -5.9191    0.0000 O   0  0  0  0  0  0  0  0  0  0  0  0
   12.1774    2.1091    0.0000 O   0  0  0  0  0  0  0  0  0  0  0  0
    5.1350   -6.9191    0.0000 O   0  0  0  0  0  0  0  0  0  0  0  0
   13.9095    3.1091    0.0000 O   0  0  0  0  0  0  0  0  0  0  0  0
    3.4030   -5.9191    0.0000 O   0  0  0  0  0  0  0  0  0  0  0  0
   13.9095    5.1091    0.0000 O   0  0  0  0  0  0  0  0  0  0  0  0
    8.6158   -3.9048    0.0000 O   0  0  0  0  0  0  0  0  0  0  0  0
    8.6967    3.0948    0.0000 O   0  0  0  0  0  0  0  0  0  0  0  0
   10.3636   -3.9596    0.0000 O   0  0  0  0  0  0  0  0  0  0  0  0
    6.9488    3.1496    0.0000 O   0  0  0  0  0  0  0  0  0  0  0  0
    2.5369   -4.4191    0.0000 O   0  0  0  0  0  0  0  0  0  0  0  0
   11.3114    6.6091    0.0000 O   0  0  0  0  0  0  0  0  0  0  0  0
   13.0428   -1.4283    0.0000 O   0  0  0  0  0  0  0  0  0  0  0  0
    4.2697    0.6183    0.0000 O   0  0  0  0  0  0  0  0  0  0  0  0
   12.1883    0.0783    0.0000 O   0  0  0  0  0  0  0  0  0  0  0  0
    5.1241   -0.8883    0.0000 O   0  0  0  0  0  0  0  0  0  0  0  0
    8.6504   -0.9050    0.0000 C   0  0  2  0  0  0  0  0  0  0  0  0
    8.6620    0.0950    0.0000 C   0  0  2  0  0  0  0  0  0  0  0  0
    7.7787   -1.3949    0.0000 C   0  0  0  0  0  0  0  0  0  0  0  0
    9.5338    0.5849    0.0000 C   0  0  0  0  0  0  0  0  0  0  0  0
    9.5106   -1.4150    0.0000 C   0  0  0  0  0  0  0  0  0  0  0  0
    7.8018    0.6049    0.0000 C   0  0  0  0  0  0  0  0  0  0  0  0
    7.7671   -2.3948    0.0000 C   0  0  0  0  0  0  0  0  0  0  0  0
    9.5453    1.5849    0.0000 C   0  0  0  0  0  0  0  0  0  0  0  0
    9.4991   -2.4149    0.0000 C   0  0  0  0  0  0  0  0  0  0  0  0
    7.8134    1.6049    0.0000 C   0  0  0  0  0  0  0  0  0  0  0  0
    8.6273   -2.9048    0.0000 C   0  0  0  0  0  0  0  0  0  0  0  0
    8.6851    2.0948    0.0000 C   0  0  0  0  0  0  0  0  0  0  0  0
    6.0010   -5.4191    0.0000 C   0  0  1  0  0  0  0  0  0  0  0  0
    6.0010   -4.4191    0.0000 C   0  0  2  0  0  0  0  0  0  0  0  0
   12.1774    3.1091    0.0000 C   0  0  1  0  0  0  0  0  0  0  0  0
   11.3114    3.6091    0.0000 C   0  0  2  0  0  0  0  0  0  0  0  0
    5.1350   -5.9191    0.0000 C   0  0  2  0  0  0  0  0  0  0  0  0
   13.0435    3.6091    0.0000 C   0  0  2  0  0  0  0  0  0  0  0  0
    4.2690   -5.4191    0.0000 C   0  0  1  0  0  0  0  0  0  0  0  0
   13.0435    4.6091    0.0000 C   0  0  1  0  0  0  0  0  0  0  0  0
    6.8671   -2.9191    0.0000 C   0  0  0  0  0  0  0  0  0  0  0  0
   10.4454    2.1091    0.0000 C   0  0  0  0  0  0  0  0  0  0  0  0
    6.8910   -0.8500    0.0000 C   0  0  0  0  0  0  0  0  0  0  0  0
   10.4215    0.0400    0.0000 C   0  0  0  0  0  0  0  0  0  0  0  0
    4.2690   -4.4191    0.0000 C   0  0  1  0  0  0  0  0  0  0  0  0
   12.1774    5.1091    0.0000 C   0  0  1  0  0  0  0  0  0  0  0  0
   10.4107   -0.8907    0.0000 C   0  0  0  0  0  0  0  0  0  0  0  0
    6.9018    0.0807    0.0000 C   0  0  0  0  0  0  0  0  0  0  0  0
   10.3868   -2.9598    0.0000 C   0  0  0  0  0  0  0  0  0  0  0  0
    6.9257    2.1498    0.0000 C   0  0  0  0  0  0  0  0  0  0  0  0
    5.9670   -2.3948    0.0000 C   0  0  0  0  0  0  0  0  0  0  0  0
   11.3454    1.5849    0.0000 C   0  0  0  0  0  0  0  0  0  0  0  0
    5.9790   -1.3533    0.0000 C   0  0  0  0  0  0  0  0  0  0  0  0
   11.3334    0.5433    0.0000 C   0  0  0  0  0  0  0  0  0  0  0  0
   11.3108   -1.4150    0.0000 C   0  0  0  0  0  0  0  0  0  0  0  0
    6.0017    0.6049    0.0000 C   0  0  0  0  0  0  0  0  0  0  0  0
   11.2987   -2.4565    0.0000 C   0  0  0  0  0  0  0  0  0  0  0  0
    6.0137    1.6465    0.0000 C   0  0  0  0  0  0  0  0  0  0  0  0
    3.4030   -3.9191    0.0000 C   0  0  0  0  0  0  0  0  0  0  0  0
   12.1774    6.1091    0.0000 C   0  0  0  0  0  0  0  0  0  0  0  0
   12.1806   -0.9216    0.0000 C   0  0  0  0  0  0  0  0  0  0  0  0
    5.1318    0.1116    0.0000 C   0  0  0  0  0  0  0  0  0  0  0  0
    9.3914   -0.4885    0.0000 H   0  0  0  0  0  0  0  0  0  0  0  0
    7.9210   -0.3215    0.0000 H   0  0  0  0  0  0  0  0  0  0  0  0
    6.0010   -6.0391    0.0000 H   0  0  0  0  0  0  0  0  0  0  0  0
   12.7144    2.7991    0.0000 H   0  0  0  0  0  0  0  0  0  0  0  0
    6.0010   -3.7991    0.0000 H   0  0  0  0  0  0  0  0  0  0  0  0
   10.7745    3.9191    0.0000 H   0  0  0  0  0  0  0  0  0  0  0  0
    4.5981   -6.2291    0.0000 H   0  0  0  0  0  0  0  0  0  0  0  0
   13.5804    3.9191    0.0000 H   0  0  0  0  0  0  0  0  0  0  0  0
    3.7320   -5.1091    0.0000 H   0  0  0  0  0  0  0  0  0  0  0  0
   13.0435    5.2291    0.0000 H   0  0  0  0  0  0  0  0  0  0  0  0
    4.2690   -3.7991    0.0000 H   0  0  0  0  0  0  0  0  0  0  0  0
   11.6405    5.4191    0.0000 H   0  0  0  0  0  0  0  0  0  0  0  0
    6.9053   -0.2301    0.0000 H   0  0  0  0  0  0  0  0  0  0  0  0
   10.4071   -0.5799    0.0000 H   0  0  0  0  0  0  0  0  0  0  0  0
   10.4107   -0.2707    0.0000 H   0  0  0  0  0  0  0  0  0  0  0  0
    6.9018   -0.5393    0.0000 H   0  0  0  0  0  0  0  0  0  0  0  0
    5.4277   -2.7007    0.0000 H   0  0  0  0  0  0  0  0  0  0  0  0
   11.8848    1.8907    0.0000 H   0  0  0  0  0  0  0  0  0  0  0  0
    5.4470   -1.0350    0.0000 H   0  0  0  0  0  0  0  0  0  0  0  0
   11.8655    0.2250    0.0000 H   0  0  0  0  0  0  0  0  0  0  0  0
   11.8308   -2.7748    0.0000 H   0  0  0  0  0  0  0  0  0  0  0  0
    5.4816    1.9648    0.0000 H   0  0  0  0  0  0  0  0  0  0  0  0
    3.8015   -3.4442    0.0000 H   0  0  0  0  0  0  0  0  0  0  0  0
    3.0044   -3.4442    0.0000 H   0  0  0  0  0  0  0  0  0  0  0  0
   12.7880    6.0015    0.0000 H   0  0  0  0  0  0  0  0  0  0  0  0
   12.3895    6.6918    0.0000 H   0  0  0  0  0  0  0  0  0  0  0  0
    6.8671   -6.5391    0.0000 H   0  0  0  0  0  0  0  0  0  0  0  0
   12.7144    1.7991    0.0000 H   0  0  0  0  0  0  0  0  0  0  0  0
    4.5981   -7.2291    0.0000 H   0  0  0  0  0  0  0  0  0  0  0  0
   14.4464    3.4191    0.0000 H   0  0  0  0  0  0  0  0  0  0  0  0
    3.4030   -6.5391    0.0000 H   0  0  0  0  0  0  0  0  0  0  0  0
   13.9095    5.7291    0.0000 H   0  0  0  0  0  0  0  0  0  0  0  0
   10.8933   -4.2819    0.0000 H   0  0  0  0  0  0  0  0  0  0  0  0
    6.4192    3.4719    0.0000 H   0  0  0  0  0  0  0  0  0  0  0  0
    2.0000   -4.1091    0.0000 H   0  0  0  0  0  0  0  0  0  0  0  0
   11.3114    7.2291    0.0000 H   0  0  0  0  0  0  0  0  0  0  0  0
   13.5821   -1.1224    0.0000 H   0  0  0  0  0  0  0  0  0  0  0  0
    4.2745    1.2383    0.0000 H   0  0  0  0  0  0  0  0  0  0  0  0
  1 41  1  0  0  0  0
  2 42  1  0  0  0  0
  3 34  1  0  0  0  0
  3 45  1  0  0  0  0
  4 36  1  0  0  0  0
  4 46  1  0  0  0  0
  5 89  1  0  0  0  0
  6 90  1  0  0  0  0
  7 91  1  0  0  0  0
  8 92  1  0  0  0  0
  9 93  1  0  0  0  0
 10 94  1  0  0  0  0
 11 31  2  0  0  0  0
 12 32  2  0  0  0  0
 13 49  1  0  0  0  0
 13 95  1  0  0  0  0
 14 50  1  0  0  0  0
 14 96  1  0  0  0  0
 15 59  1  0  0  0  0
 15 97  1  0  0  0  0
 16 60  1  0  0  0  0
 16 98  1  0  0  0  0
 17 61  1  0  0  0  0
 17 99  1  0  0  0  0
 18 62  1  0  0  0  0
 18100  1  0  0  0  0
 19 61  2  0  0  0  0
 20 62  2  0  0  0  0
 21 22  1  0  0  0  0
 21 23  1  0  0  0  0
 21 25  1  0  0  0  0
 21 63  1  6  0  0  0
 22 24  1  0  0  0  0
 22 26  1  0  0  0  0
 22 64  1  6  0  0  0
 23 27  2  0  0  0  0
 23 43  1  0  0  0  0
 24 28  2  0  0  0  0
 24 44  1  0  0  0  0
 25 29  2  0  0  0  0
 25 47  1  0  0  0  0
 26 30  2  0  0  0  0
 26 48  1  0  0  0  0
 27 31  1  0  0  0  0
 27 41  1  0  0  0  0
 28 32  1  0  0  0  0
 28 42  1  0  0  0  0
 29 31  1  0  0  0  0
 29 49  1  0  0  0  0
 30 32  1  0  0  0  0
 30 50  1  0  0  0  0
 33  5  1  0  0  0  0
 33 34  1  1  0  0  0
 33 65  1  0  0  0  0
 34  1  1  0  0  0  0
 34 67  1  6  0  0  0
 35  6  1  0  0  0  0
 35 36  1  6  0  0  0
 35 66  1  0  0  0  0
 36  2  1  0  0  0  0
 36 68  1  1  0  0  0
 37  7  1  0  0  0  0
 37 33  1  6  0  0  0
 37 69  1  0  0  0  0
 38  8  1  0  0  0  0
 38 35  1  1  0  0  0
 38 70  1  0  0  0  0
 39  9  1  0  0  0  0
 39 37  1  1  0  0  0
 39 71  1  0  0  0  0
 40 10  1  0  0  0  0
 40 38  1  6  0  0  0
 40 72  1  0  0  0  0
 41 51  2  0  0  0  0
 42 52  2  0  0  0  0
 43 53  2  0  0  0  0
 43 75  1  0  0  0  0
 44 54  2  0  0  0  0
 44 76  1  0  0  0  0
 45 39  1  6  0  0  0
 45 59  1  0  0  0  0
 45 73  1  0  0  0  0
 46 40  1  1  0  0  0
 46 60  1  0  0  0  0
 46 74  1  0  0  0  0
 47 55  2  0  0  0  0
 47 77  1  0  0  0  0
 48 56  2  0  0  0  0
 48 78  1  0  0  0  0
 49 57  2  0  0  0  0
 50 58  2  0  0  0  0
 51 53  1  0  0  0  0
 51 79  1  0  0  0  0
 52 54  1  0  0  0  0
 52 80  1  0  0  0  0
 53 81  1  0  0  0  0
 54 82  1  0  0  0  0
 55 57  1  0  0  0  0
 55 61  1  0  0  0  0
 56 58  1  0  0  0  0
 56 62  1  0  0  0  0
 57 83  1  0  0  0  0
 58 84  1  0  0  0  0
 59 85  1  0  0  0  0
 59 86  1  0  0  0  0
 60 87  1  0  0  0  0
 60 88  1  0  0  0  0
M  END
>  <PUBCHEM_COMPOUND_CID>
73111

>  <PUBCHEM_COMPOUND_CANONICALIZED>
1

>  <PUBCHEM_CACTVS_COMPLEXITY>
1550

>  <PUBCHEM_CACTVS_HBOND_ACCEPTOR>
20

>  <PUBCHEM_CACTVS_HBOND_DONOR>
12

>  <PUBCHEM_CACTVS_ROTATABLE_BOND>
9

>  <PUBCHEM_CACTVS_SUBSKEYS>
AAADcfB8PgAAAAAAAAAAAAAAAAAAAAAAAAA0aMGDAAAAAADBVAAAGgAACAAADRSwmAMwDoAABgCIAqDSCAACCAAkIAAIiAEGCMgdNjaGNRqieWCl4BEPuYfK6PyOwAADAAAYAACAAAYAADAAAAAAAAAAAA==

>  <PUBCHEM_IUPAC_OPENEYE_NAME>
(9R)-9-[(9R)-2-carboxy-4-hydroxy-10-oxo-5-[(2S,3R,4S,5S,6R)-3,4,5-trihydroxy-6-(hydroxymethyl)tetrahydropyran-2-yl]oxy-9H-anthracen-9-yl]-4-hydroxy-10-oxo-5-[(2S,3R,4S,5S,6R)-3,4,5-trihydroxy-6-(hydroxymethyl)tetrahydropyran-2-yl]oxy-9H-anthracene-2-carboxylic acid

>  <PUBCHEM_IUPAC_CAS_NAME>
(9R)-9-[(9R)-2-carboxy-4-hydroxy-10-oxo-5-[[(2S,3R,4S,5S,6R)-3,4,5-trihydroxy-6-(hydroxymethyl)-2-oxanyl]oxy]-9H-anthracen-9-yl]-4-hydroxy-10-oxo-5-[[(2S,3R,4S,5S,6R)-3,4,5-trihydroxy-6-(hydroxymethyl)-2-oxanyl]oxy]-9H-anthracene-2-carboxylic acid

>  <PUBCHEM_IUPAC_NAME>
(9R)-9-[(9R)-2-carboxy-4-hydroxy-10-oxo-5-[(2S,3R,4S,5S,6R)-3,4,5-trihydroxy-6-(hydroxymethyl)oxan-2-yl]oxy-9H-anthracen-9-yl]-4-hydroxy-10-oxo-5-[(2S,3R,4S,5S,6R)-3,4,5-trihydroxy-6-(hydroxymethyl)oxan-2-yl]oxy-9H-anthracene-2-carboxylic acid

>  <PUBCHEM_IUPAC_SYSTEMATIC_NAME>
(9R)-9-[(9R)-2-carboxy-5-[(2S,3R,4S,5S,6R)-6-(hydroxymethyl)-3,4,5-tris(oxidanyl)oxan-2-yl]oxy-4-oxidanyl-10-oxidanylidene-9H-anthracen-9-yl]-5-[(2S,3R,4S,5S,6R)-6-(hydroxymethyl)-3,4,5-tris(oxidanyl)oxan-2-yl]oxy-4-oxidanyl-10-oxidanylidene-9H-anthracene-2-carboxylic acid

>  <PUBCHEM_IUPAC_TRADITIONAL_NAME>
(9R)-9-[(9R)-2-carboxy-4-hydroxy-10-keto-5-[(2S,3R,4S,5S,6R)-3,4,5-trihydroxy-6-methylol-tetrahydropyran-2-yl]oxy-9H-anthracen-9-yl]-4-hydroxy-10-keto-5-[(2S,3R,4S,5S,6R)-3,4,5-trihydroxy-6-methylol-tetrahydropyran-2-yl]oxy-9H-anthracene-2-carboxylic acid

>  <PUBCHEM_IUPAC_INCHI>
InChI=1S/C42H38O20/c43-11-23-31(47)35(51)37(53)41(61-23)59-21-5-1-3-15-25(17-7-13(39(55)56)9-19(45)27(17)33(49)29(15)21)26-16-4-2-6-22(60-42-38(54)36(52)32(48)24(12-44)62-42)30(16)34(50)28-18(26)8-14(40(57)58)10-20(28)46/h1-10,23-26,31-32,35-38,41-48,51-54H,11-12H2,(H,55,56)(H,57,58)/t23-,24-,25-,26-,31-,32-,35+,36+,37-,38-,41-,42-/m1/s1

>  <PUBCHEM_IUPAC_INCHIKEY>
IPQVTOJGNYVQEO-KGFNBKMBSA-N

>  <PUBCHEM_XLOGP3_AA>
1.2

>  <PUBCHEM_EXACT_MASS>
862.196

>  <PUBCHEM_MOLECULAR_FORMULA>
C42H38O20

>  <PUBCHEM_MOLECULAR_WEIGHT>
862.746

>  <PUBCHEM_OPENEYE_CAN_SMILES>
C1=CC2=C(C(=C1)OC3C(C(C(C(O3)CO)O)O)O)C(=O)C4=C(C2C5C6=C(C(=CC=C6)OC7C(C(C(C(O7)CO)O)O)O)C(=O)C8=C5C=C(C=C8O)C(=O)O)C=C(C=C4O)C(=O)O

>  <PUBCHEM_OPENEYE_ISO_SMILES>
C1=CC2=C(C(=C1)O[C@H]3[C@@H]([C@H]([C@@H]([C@H](O3)CO)O)O)O)C(=O)C4=C([C@@H]2[C@@H]5C6=C(C(=CC=C6)O[C@H]7[C@@H]([C@H]([C@@H]([C@H](O7)CO)O)O)O)C(=O)C8=C5C=C(C=C8O)C(=O)O)C=C(C=C4O)C(=O)O

>  <PUBCHEM_CACTVS_TPSA>
348

>  <PUBCHEM_MONOISOTOPIC_WEIGHT>
862.196

>  <PUBCHEM_TOTAL_CHARGE>
0

>  <PUBCHEM_HEAVY_ATOM_COUNT>
62

>  <PUBCHEM_ATOM_DEF_STEREO_COUNT>
12

>  <PUBCHEM_ATOM_UDEF_STEREO_COUNT>
0

>  <PUBCHEM_BOND_DEF_STEREO_COUNT>
0

>  <PUBCHEM_BOND_UDEF_STEREO_COUNT>
0

>  <PUBCHEM_ISOTOPIC_ATOM_COUNT>
0

>  <PUBCHEM_COMPONENT_COUNT>
1

>  <PUBCHEM_CACTVS_TAUTO_COUNT>
640

>  <PUBCHEM_COORDINATE_TYPE>
1
5
255

>  <PUBCHEM_BONDANNOTATIONS>
34  1  5
40  10  5
36  2  6
21  63  6
22  64  6
23  27  8
23  43  8
24  28  8
24  44  8
25  29  8
25  47  8
26  30  8
26  48  8
27  41  8
28  42  8
29  49  8
30  50  8
41  51  8
42  52  8
43  53  8
44  54  8
45  59  5
46  60  6
47  55  8
48  56  8
49  57  8
33  5  6
50  58  8
51  53  8
52  54  8
55  57  8
56  58  8
35  6  5
37  7  5
38  8  6
39  9  6

$$$$
