73157709
 OpenBabel06101807152D

 72 76  0  0  1  0  0  0  0  0999 V2000
    8.5991   -1.6725    0.0000 O   0  0  0  0  0  0  0  0  0  0  0  0
    5.1350   -1.6725    0.0000 O   0  0  0  0  0  0  0  0  0  0  0  0
    6.8671   -1.6725    0.0000 O   0  0  0  0  0  0  0  0  0  0  0  0
    9.4651    0.8275    0.0000 O   0  0  0  0  0  0  0  0  0  0  0  0
   11.1972   -0.1725    0.0000 O   0  0  0  0  0  0  0  0  0  0  0  0
   11.1972   -2.1725    0.0000 O   0  0  0  0  0  0  0  0  0  0  0  0
    5.1350   -4.6725    0.0000 O   0  0  0  0  0  0  0  0  0  0  0  0
    6.8671   -3.6725    0.0000 O   0  0  0  0  0  0  0  0  0  0  0  0
    3.4030   -3.6725    0.0000 O   0  0  0  0  0  0  0  0  0  0  0  0
    8.6431    1.3343    0.0000 O   0  0  0  0  0  0  0  0  0  0  0  0
   10.3312   -3.6725    0.0000 O   0  0  0  0  0  0  0  0  0  0  0  0
    2.5369   -2.1725    0.0000 O   0  0  0  0  0  0  0  0  0  0  0  0
    5.1350    1.3275    0.0000 O   0  0  0  0  0  0  0  0  0  0  0  0
    5.9793    2.8589    0.0000 O   0  0  0  0  0  0  0  0  0  0  0  0
   12.1229    4.3625    0.0000 O   0  0  0  0  0  0  0  0  0  0  0  0
    8.5991   -0.6725    0.0000 C   0  0  3  0  0  0  0  0  0  0  0  0
    9.4651   -0.1725    0.0000 C   0  0  3  0  0  0  0  0  0  0  0  0
   10.3312   -0.6725    0.0000 C   0  0  3  0  0  0  0  0  0  0  0  0
   10.3312   -1.6725    0.0000 C   0  0  3  0  0  0  0  0  0  0  0  0
    9.4651   -2.1725    0.0000 C   0  0  3  0  0  0  0  0  0  0  0  0
    7.7331   -0.1725    0.0000 C   0  0  0  0  0  0  0  0  0  0  0  0
    5.1350   -3.6725    0.0000 C   0  0  3  0  0  0  0  0  0  0  0  0
    6.0010   -3.1725    0.0000 C   0  0  3  0  0  0  0  0  0  0  0  0
    4.2690   -3.1725    0.0000 C   0  0  3  0  0  0  0  0  0  0  0  0
    6.0010   -2.1725    0.0000 C   0  0  3  0  0  0  0  0  0  0  0  0
    4.2690   -2.1725    0.0000 C   0  0  3  0  0  0  0  0  0  0  0  0
    6.8671   -0.6725    0.0000 C   0  0  0  0  0  0  0  0  0  0  0  0
    9.4651   -3.1725    0.0000 C   0  0  0  0  0  0  0  0  0  0  0  0
    7.7331    0.8275    0.0000 C   0  0  0  0  0  0  0  0  0  0  0  0
    3.4030   -1.6725    0.0000 C   0  0  0  0  0  0  0  0  0  0  0  0
    6.8671    1.3275    0.0000 C   0  0  0  0  0  0  0  0  0  0  0  0
    6.0010   -0.1725    0.0000 C   0  0  0  0  0  0  0  0  0  0  0  0
    6.0010    0.8275    0.0000 C   0  0  0  0  0  0  0  0  0  0  0  0
    6.8510    2.3690    0.0000 C   0  0  0  0  0  0  0  0  0  0  0  0
    8.6511    2.3759    0.0000 C   0  0  0  0  0  0  0  0  0  0  0  0
    7.7490    2.8967    0.0000 C   0  0  0  0  0  0  0  0  0  0  0  0
    9.5191    2.8726    0.0000 C   0  0  0  0  0  0  0  0  0  0  0  0
   10.3832    2.3692    0.0000 C   0  0  0  0  0  0  0  0  0  0  0  0
    9.5229    3.8726    0.0000 C   0  0  0  0  0  0  0  0  0  0  0  0
   11.2511    2.8659    0.0000 C   0  0  0  0  0  0  0  0  0  0  0  0
   10.3909    4.3692    0.0000 C   0  0  0  0  0  0  0  0  0  0  0  0
   11.2550    3.8659    0.0000 C   0  0  0  0  0  0  0  0  0  0  0  0
    8.5991   -0.0525    0.0000 H   0  0  0  0  0  0  0  0  0  0  0  0
   10.0021    0.1375    0.0000 H   0  0  0  0  0  0  0  0  0  0  0  0
   10.8681   -0.9825    0.0000 H   0  0  0  0  0  0  0  0  0  0  0  0
   10.3312   -2.2925    0.0000 H   0  0  0  0  0  0  0  0  0  0  0  0
    8.9282   -2.4825    0.0000 H   0  0  0  0  0  0  0  0  0  0  0  0
    5.6720   -3.9825    0.0000 H   0  0  0  0  0  0  0  0  0  0  0  0
    6.5380   -2.8625    0.0000 H   0  0  0  0  0  0  0  0  0  0  0  0
    4.2690   -3.7925    0.0000 H   0  0  0  0  0  0  0  0  0  0  0  0
    6.0010   -1.5525    0.0000 H   0  0  0  0  0  0  0  0  0  0  0  0
    4.2690   -1.5525    0.0000 H   0  0  0  0  0  0  0  0  0  0  0  0
    8.8546   -3.0649    0.0000 H   0  0  0  0  0  0  0  0  0  0  0  0
    9.2531   -3.7552    0.0000 H   0  0  0  0  0  0  0  0  0  0  0  0
    3.8015   -1.1976    0.0000 H   0  0  0  0  0  0  0  0  0  0  0  0
    3.0044   -1.1976    0.0000 H   0  0  0  0  0  0  0  0  0  0  0  0
   10.0021    1.1375    0.0000 H   0  0  0  0  0  0  0  0  0  0  0  0
   11.7341   -0.4825    0.0000 H   0  0  0  0  0  0  0  0  0  0  0  0
   11.7341   -1.8625    0.0000 H   0  0  0  0  0  0  0  0  0  0  0  0
    5.4641   -0.4825    0.0000 H   0  0  0  0  0  0  0  0  0  0  0  0
    4.5981   -4.9825    0.0000 H   0  0  0  0  0  0  0  0  0  0  0  0
    6.8671   -4.2925    0.0000 H   0  0  0  0  0  0  0  0  0  0  0  0
    3.4030   -4.2925    0.0000 H   0  0  0  0  0  0  0  0  0  0  0  0
   10.3312   -4.2925    0.0000 H   0  0  0  0  0  0  0  0  0  0  0  0
    7.7466    3.5167    0.0000 H   0  0  0  0  0  0  0  0  0  0  0  0
    2.0000   -1.8625    0.0000 H   0  0  0  0  0  0  0  0  0  0  0  0
    4.5981    1.0175    0.0000 H   0  0  0  0  0  0  0  0  0  0  0  0
   10.3808    1.7492    0.0000 H   0  0  0  0  0  0  0  0  0  0  0  0
    8.9872    4.1846    0.0000 H   0  0  0  0  0  0  0  0  0  0  0  0
   11.7868    2.5538    0.0000 H   0  0  0  0  0  0  0  0  0  0  0  0
   10.3933    4.9892    0.0000 H   0  0  0  0  0  0  0  0  0  0  0  0
   12.1253    4.9825    0.0000 H   0  0  0  0  0  0  0  0  0  0  0  0
  1 16  1  0  0  0  0
  1 20  1  0  0  0  0
  2 25  1  0  0  0  0
  2 26  1  0  0  0  0
  3 25  1  0  0  0  0
  3 27  1  0  0  0  0
  4 17  1  0  0  0  0
  4 57  1  0  0  0  0
  5 18  1  0  0  0  0
  5 58  1  0  0  0  0
  6 19  1  0  0  0  0
  6 59  1  0  0  0  0
  7 22  1  0  0  0  0
  7 61  1  0  0  0  0
  8 23  1  0  0  0  0
  8 62  1  0  0  0  0
  9 24  1  0  0  0  0
  9 63  1  0  0  0  0
 10 29  1  0  0  0  0
 10 35  1  0  0  0  0
 11 28  1  0  0  0  0
 11 64  1  0  0  0  0
 12 30  1  0  0  0  0
 12 66  1  0  0  0  0
 13 33  1  0  0  0  0
 13 67  1  0  0  0  0
 14 34  2  0  0  0  0
 15 42  1  0  0  0  0
 15 72  1  0  0  0  0
 16 17  1  0  0  0  0
 16 21  1  0  0  0  0
 16 43  1  0  0  0  0
 17 18  1  0  0  0  0
 17 44  1  0  0  0  0
 18 19  1  0  0  0  0
 18 45  1  0  0  0  0
 19 20  1  0  0  0  0
 19 46  1  0  0  0  0
 20 28  1  0  0  0  0
 20 47  1  0  0  0  0
 21 27  2  0  0  0  0
 21 29  1  0  0  0  0
 22 23  1  0  0  0  0
 22 24  1  0  0  0  0
 22 48  1  0  0  0  0
 23 25  1  0  0  0  0
 23 49  1  0  0  0  0
 24 26  1  0  0  0  0
 24 50  1  0  0  0  0
 25 51  1  0  0  0  0
 26 30  1  0  0  0  0
 26 52  1  0  0  0  0
 27 32  1  0  0  0  0
 28 53  1  0  0  0  0
 28 54  1  0  0  0  0
 29 31  2  0  0  0  0
 30 55  1  0  0  0  0
 30 56  1  0  0  0  0
 31 33  1  0  0  0  0
 31 34  1  0  0  0  0
 32 33  2  0  0  0  0
 32 60  1  0  0  0  0
 34 36  1  0  0  0  0
 35 36  2  0  0  0  0
 35 37  1  0  0  0  0
 36 65  1  0  0  0  0
 37 38  2  0  0  0  0
 37 39  1  0  0  0  0
 38 40  1  0  0  0  0
 38 68  1  0  0  0  0
 39 41  2  0  0  0  0
 39 69  1  0  0  0  0
 40 42  2  0  0  0  0
 40 70  1  0  0  0  0
 41 42  1  0  0  0  0
 41 71  1  0  0  0  0
M  END
>  <PUBCHEM_COMPOUND_CID>
73157709

>  <PUBCHEM_COMPOUND_CANONICALIZED>
1

>  <PUBCHEM_CACTVS_COMPLEXITY>
971

>  <PUBCHEM_CACTVS_HBOND_ACCEPTOR>
15

>  <PUBCHEM_CACTVS_HBOND_DONOR>
10

>  <PUBCHEM_CACTVS_ROTATABLE_BOND>
6

>  <PUBCHEM_CACTVS_SUBSKEYS>
AAADceB4PAAAAAAAAAAAAAAAAAAAAAAAAAA0aIECAAAAAACBQAAAGgAACAAADBSwmAMwDoAABgCIAqBSAAACCAAkIAAIiAEGCMgdNzaGNRqieWCl4BUPuQfI7PzOIAACCAAIAABAAAQQABAAAAAAAAAAAA==

>  <PUBCHEM_IUPAC_OPENEYE_NAME>
5-hydroxy-2-(4-hydroxyphenyl)-8-[3,4,5-trihydroxy-6-(hydroxymethyl)tetrahydropyran-2-yl]-7-[3,4,5-trihydroxy-6-(hydroxymethyl)tetrahydropyran-2-yl]oxy-chromen-4-one

>  <PUBCHEM_IUPAC_CAS_NAME>
5-hydroxy-2-(4-hydroxyphenyl)-8-[3,4,5-trihydroxy-6-(hydroxymethyl)-2-oxanyl]-7-[[3,4,5-trihydroxy-6-(hydroxymethyl)-2-oxanyl]oxy]-1-benzopyran-4-one

>  <PUBCHEM_IUPAC_NAME>
5-hydroxy-2-(4-hydroxyphenyl)-8-[3,4,5-trihydroxy-6-(hydroxymethyl)oxan-2-yl]-7-[3,4,5-trihydroxy-6-(hydroxymethyl)oxan-2-yl]oxychromen-4-one

>  <PUBCHEM_IUPAC_SYSTEMATIC_NAME>
8-[6-(hydroxymethyl)-3,4,5-tris(oxidanyl)oxan-2-yl]-7-[6-(hydroxymethyl)-3,4,5-tris(oxidanyl)oxan-2-yl]oxy-2-(4-hydroxyphenyl)-5-oxidanyl-chromen-4-one

>  <PUBCHEM_IUPAC_TRADITIONAL_NAME>
5-hydroxy-2-(4-hydroxyphenyl)-8-(3,4,5-trihydroxy-6-methylol-tetrahydropyran-2-yl)-7-(3,4,5-trihydroxy-6-methylol-tetrahydropyran-2-yl)oxy-chromone

>  <PUBCHEM_IUPAC_INCHI>
InChI=1S/C27H30O15/c28-7-15-19(33)21(35)23(37)26(40-15)18-14(41-27-24(38)22(36)20(34)16(8-29)42-27)6-12(32)17-11(31)5-13(39-25(17)18)9-1-3-10(30)4-2-9/h1-6,15-16,19-24,26-30,32-38H,7-8H2

>  <PUBCHEM_IUPAC_INCHIKEY>
HHRPSKAYQPDDGQ-UHFFFAOYSA-N

>  <PUBCHEM_XLOGP3_AA>
-1.6

>  <PUBCHEM_EXACT_MASS>
594.158

>  <PUBCHEM_MOLECULAR_FORMULA>
C27H30O15

>  <PUBCHEM_MOLECULAR_WEIGHT>
594.522

>  <PUBCHEM_OPENEYE_CAN_SMILES>
C1=CC(=CC=C1C2=CC(=O)C3=C(O2)C(=C(C=C3O)OC4C(C(C(C(O4)CO)O)O)O)C5C(C(C(C(O5)CO)O)O)O)O

>  <PUBCHEM_OPENEYE_ISO_SMILES>
C1=CC(=CC=C1C2=CC(=O)C3=C(O2)C(=C(C=C3O)OC4C(C(C(C(O4)CO)O)O)O)C5C(C(C(C(O5)CO)O)O)O)O

>  <PUBCHEM_CACTVS_TPSA>
256

>  <PUBCHEM_MONOISOTOPIC_WEIGHT>
594.158

>  <PUBCHEM_TOTAL_CHARGE>
0

>  <PUBCHEM_HEAVY_ATOM_COUNT>
42

>  <PUBCHEM_ATOM_DEF_STEREO_COUNT>
0

>  <PUBCHEM_ATOM_UDEF_STEREO_COUNT>
10

>  <PUBCHEM_BOND_DEF_STEREO_COUNT>
0

>  <PUBCHEM_BOND_UDEF_STEREO_COUNT>
0

>  <PUBCHEM_ISOTOPIC_ATOM_COUNT>
0

>  <PUBCHEM_COMPONENT_COUNT>
1

>  <PUBCHEM_CACTVS_TAUTO_COUNT>
24

>  <PUBCHEM_COORDINATE_TYPE>
1
5
255

>  <PUBCHEM_BONDANNOTATIONS>
10  29  8
10  35  8
16  21  3
20  28  3
21  27  8
21  29  8
26  30  3
27  32  8
29  31  8
25  3  3
31  33  8
31  34  8
32  33  8
34  36  8
35  36  8
37  38  8
37  39  8
38  40  8
39  41  8
17  4  3
40  42  8
41  42  8
18  5  3
19  6  3
22  7  3
23  8  3
24  9  3

$$$$
