73157268
 OpenBabel06101807152D

 74 78  0  0  1  0  0  0  0  0999 V2000
    5.1350   -3.5289    0.0000 O   0  0  0  0  0  0  0  0  0  0  0  0
   11.2384    4.0235    0.0000 O   0  0  0  0  0  0  0  0  0  0  0  0
    6.8671   -3.5289    0.0000 O   0  0  0  0  0  0  0  0  0  0  0  0
    5.1350   -6.5289    0.0000 O   0  0  0  0  0  0  0  0  0  0  0  0
    3.4030   -5.5289    0.0000 O   0  0  0  0  0  0  0  0  0  0  0  0
   12.1141    6.5202    0.0000 O   0  0  0  0  0  0  0  0  0  0  0  0
   13.8423    5.5135    0.0000 O   0  0  0  0  0  0  0  0  0  0  0  0
   12.0987    2.5202    0.0000 O   0  0  0  0  0  0  0  0  0  0  0  0
    6.8671   -5.5289    0.0000 O   0  0  0  0  0  0  0  0  0  0  0  0
   13.8346    3.5135    0.0000 O   0  0  0  0  0  0  0  0  0  0  0  0
    2.5369   -4.0289    0.0000 O   0  0  0  0  0  0  0  0  0  0  0  0
   10.3820    6.5269    0.0000 O   0  0  0  0  0  0  0  0  0  0  0  0
    8.6230   -0.4664    0.0000 O   0  0  0  0  0  0  0  0  0  0  0  0
   12.0910    0.5202    0.0000 O   0  0  0  0  0  0  0  0  0  0  0  0
    5.1208   -0.4498    0.0000 O   0  0  0  0  0  0  0  0  0  0  0  0
    7.7666    2.0369    0.0000 O   0  0  0  0  0  0  0  0  0  0  0  0
    6.0308    1.0436    0.0000 O   0  0  0  0  0  0  0  0  0  0  0  0
    5.1350   -5.5289    0.0000 C   0  0  3  0  0  0  0  0  0  0  0  0
    4.2690   -5.0289    0.0000 C   0  0  3  0  0  0  0  0  0  0  0  0
   12.1102    5.5202    0.0000 C   0  0  3  0  0  0  0  0  0  0  0  0
   12.9743    5.0168    0.0000 C   0  0  3  0  0  0  0  0  0  0  0  0
    4.2690   -4.0289    0.0000 C   0  0  3  0  0  0  0  0  0  0  0  0
    6.0010   -5.0289    0.0000 C   0  0  3  0  0  0  0  0  0  0  0  0
   11.2423    5.0235    0.0000 C   0  0  3  0  0  0  0  0  0  0  0  0
   12.9705    4.0169    0.0000 C   0  0  3  0  0  0  0  0  0  0  0  0
    6.0010   -4.0289    0.0000 C   0  0  3  0  0  0  0  0  0  0  0  0
   12.1025    3.5202    0.0000 C   0  0  3  0  0  0  0  0  0  0  0  0
    3.4030   -3.5289    0.0000 C   0  0  0  0  0  0  0  0  0  0  0  0
   10.3782    5.5269    0.0000 C   0  0  0  0  0  0  0  0  0  0  0  0
    6.8671   -2.5289    0.0000 C   0  0  0  0  0  0  0  0  0  0  0  0
   11.2307    2.0236    0.0000 C   0  0  0  0  0  0  0  0  0  0  0  0
    7.7671   -2.0046    0.0000 C   0  0  0  0  0  0  0  0  0  0  0  0
    5.9670   -2.0046    0.0000 C   0  0  0  0  0  0  0  0  0  0  0  0
   11.2269    1.0236    0.0000 C   0  0  0  0  0  0  0  0  0  0  0  0
   10.3666    2.5269    0.0000 C   0  0  0  0  0  0  0  0  0  0  0  0
    7.7551   -0.9631    0.0000 C   0  0  0  0  0  0  0  0  0  0  0  0
    6.8910   -0.4597    0.0000 C   0  0  0  0  0  0  0  0  0  0  0  0
    9.4948    1.0302    0.0000 C   0  0  0  0  0  0  0  0  0  0  0  0
    5.9790   -0.9631    0.0000 C   0  0  0  0  0  0  0  0  0  0  0  0
   10.3589    0.5269    0.0000 C   0  0  0  0  0  0  0  0  0  0  0  0
    8.6269    0.5336    0.0000 C   0  0  0  0  0  0  0  0  0  0  0  0
    9.4987    2.0302    0.0000 C   0  0  0  0  0  0  0  0  0  0  0  0
    6.8948    0.5403    0.0000 C   0  0  0  0  0  0  0  0  0  0  0  0
    7.7628    1.0369    0.0000 C   0  0  0  0  0  0  0  0  0  0  0  0
    5.6720   -5.8389    0.0000 H   0  0  0  0  0  0  0  0  0  0  0  0
    4.2690   -5.6489    0.0000 H   0  0  0  0  0  0  0  0  0  0  0  0
   11.5745    5.8322    0.0000 H   0  0  0  0  0  0  0  0  0  0  0  0
   12.9767    5.6368    0.0000 H   0  0  0  0  0  0  0  0  0  0  0  0
    4.2690   -3.4089    0.0000 H   0  0  0  0  0  0  0  0  0  0  0  0
    6.5380   -4.7189    0.0000 H   0  0  0  0  0  0  0  0  0  0  0  0
   10.7042    4.7156    0.0000 H   0  0  0  0  0  0  0  0  0  0  0  0
   13.5086    4.3248    0.0000 H   0  0  0  0  0  0  0  0  0  0  0  0
    6.0010   -3.4089    0.0000 H   0  0  0  0  0  0  0  0  0  0  0  0
   12.6383    3.2081    0.0000 H   0  0  0  0  0  0  0  0  0  0  0  0
    3.8015   -3.0540    0.0000 H   0  0  0  0  0  0  0  0  0  0  0  0
    3.0044   -3.0540    0.0000 H   0  0  0  0  0  0  0  0  0  0  0  0
    9.7680    5.6369    0.0000 H   0  0  0  0  0  0  0  0  0  0  0  0
   10.1639    4.9451    0.0000 H   0  0  0  0  0  0  0  0  0  0  0  0
    4.5981   -6.8389    0.0000 H   0  0  0  0  0  0  0  0  0  0  0  0
    3.4030   -6.1489    0.0000 H   0  0  0  0  0  0  0  0  0  0  0  0
   12.6522    6.8281    0.0000 H   0  0  0  0  0  0  0  0  0  0  0  0
   13.8447    6.1335    0.0000 H   0  0  0  0  0  0  0  0  0  0  0  0
    6.8671   -6.1489    0.0000 H   0  0  0  0  0  0  0  0  0  0  0  0
   14.3727    3.8214    0.0000 H   0  0  0  0  0  0  0  0  0  0  0  0
    2.0000   -3.7189    0.0000 H   0  0  0  0  0  0  0  0  0  0  0  0
    9.8463    6.8389    0.0000 H   0  0  0  0  0  0  0  0  0  0  0  0
    8.3064   -2.3105    0.0000 H   0  0  0  0  0  0  0  0  0  0  0  0
    5.4277   -2.3105    0.0000 H   0  0  0  0  0  0  0  0  0  0  0  0
   10.3690    3.1469    0.0000 H   0  0  0  0  0  0  0  0  0  0  0  0
   10.3565   -0.0931    0.0000 H   0  0  0  0  0  0  0  0  0  0  0  0
    8.9630    2.3423    0.0000 H   0  0  0  0  0  0  0  0  0  0  0  0
   12.0886   -0.0998    0.0000 H   0  0  0  0  0  0  0  0  0  0  0  0
    4.5792   -0.7515    0.0000 H   0  0  0  0  0  0  0  0  0  0  0  0
    7.2309    2.3490    0.0000 H   0  0  0  0  0  0  0  0  0  0  0  0
  1 22  1  0  0  0  0
  1 26  1  0  0  0  0
  2 24  1  0  0  0  0
  2 27  1  0  0  0  0
  3 26  1  0  0  0  0
  3 30  1  0  0  0  0
  4 18  1  0  0  0  0
  4 59  1  0  0  0  0
  5 19  1  0  0  0  0
  5 60  1  0  0  0  0
  6 20  1  0  0  0  0
  6 61  1  0  0  0  0
  7 21  1  0  0  0  0
  7 62  1  0  0  0  0
  8 27  1  0  0  0  0
  8 31  1  0  0  0  0
  9 23  1  0  0  0  0
  9 63  1  0  0  0  0
 10 25  1  0  0  0  0
 10 64  1  0  0  0  0
 11 28  1  0  0  0  0
 11 65  1  0  0  0  0
 12 29  1  0  0  0  0
 12 66  1  0  0  0  0
 13 36  1  0  0  0  0
 13 41  1  0  0  0  0
 14 34  1  0  0  0  0
 14 72  1  0  0  0  0
 15 39  1  0  0  0  0
 15 73  1  0  0  0  0
 16 44  1  0  0  0  0
 16 74  1  0  0  0  0
 17 43  2  0  0  0  0
 18 19  1  0  0  0  0
 18 23  1  0  0  0  0
 18 45  1  0  0  0  0
 19 22  1  0  0  0  0
 19 46  1  0  0  0  0
 20 21  1  0  0  0  0
 20 24  1  0  0  0  0
 20 47  1  0  0  0  0
 21 25  1  0  0  0  0
 21 48  1  0  0  0  0
 22 28  1  0  0  0  0
 22 49  1  0  0  0  0
 23 26  1  0  0  0  0
 23 50  1  0  0  0  0
 24 29  1  0  0  0  0
 24 51  1  0  0  0  0
 25 27  1  0  0  0  0
 25 52  1  0  0  0  0
 26 53  1  0  0  0  0
 27 54  1  0  0  0  0
 28 55  1  0  0  0  0
 28 56  1  0  0  0  0
 29 57  1  0  0  0  0
 29 58  1  0  0  0  0
 30 32  1  0  0  0  0
 30 33  2  0  0  0  0
 31 34  2  0  0  0  0
 31 35  1  0  0  0  0
 32 36  2  0  0  0  0
 32 67  1  0  0  0  0
 33 39  1  0  0  0  0
 33 68  1  0  0  0  0
 34 40  1  0  0  0  0
 35 42  2  0  0  0  0
 35 69  1  0  0  0  0
 36 37  1  0  0  0  0
 37 39  2  0  0  0  0
 37 43  1  0  0  0  0
 38 40  2  0  0  0  0
 38 41  1  0  0  0  0
 38 42  1  0  0  0  0
 40 70  1  0  0  0  0
 41 44  2  0  0  0  0
 42 71  1  0  0  0  0
 43 44  1  0  0  0  0
M  END
>  <PUBCHEM_COMPOUND_CID>
73157268

>  <PUBCHEM_COMPOUND_CANONICALIZED>
1

>  <PUBCHEM_CACTVS_COMPLEXITY>
1040

>  <PUBCHEM_CACTVS_HBOND_ACCEPTOR>
17

>  <PUBCHEM_CACTVS_HBOND_DONOR>
11

>  <PUBCHEM_CACTVS_ROTATABLE_BOND>
7

>  <PUBCHEM_CACTVS_SUBSKEYS>
AAADceB4PgAAAAAAAAAAAAAAAAAAAAAAAAA0aIECAAAAAACBQAAAGgAACAAADBSwmAMwDoAABgCIAqBSAAICCAAkIAAIiAFGiMgdNzaGNRqieWOl4BUPuQfI7LzOIAABCAAIQABAAAIQABCAAAAAAAAAAA==

>  <PUBCHEM_IUPAC_OPENEYE_NAME>
3,5-dihydroxy-2-[3-hydroxy-4-[3,4,5-trihydroxy-6-(hydroxymethyl)tetrahydropyran-2-yl]oxy-phenyl]-7-[3,4,5-trihydroxy-6-(hydroxymethyl)tetrahydropyran-2-yl]oxy-chromen-4-one

>  <PUBCHEM_IUPAC_CAS_NAME>
3,5-dihydroxy-2-[3-hydroxy-4-[[3,4,5-trihydroxy-6-(hydroxymethyl)-2-oxanyl]oxy]phenyl]-7-[[3,4,5-trihydroxy-6-(hydroxymethyl)-2-oxanyl]oxy]-1-benzopyran-4-one

>  <PUBCHEM_IUPAC_NAME>
3,5-dihydroxy-2-[3-hydroxy-4-[3,4,5-trihydroxy-6-(hydroxymethyl)oxan-2-yl]oxyphenyl]-7-[3,4,5-trihydroxy-6-(hydroxymethyl)oxan-2-yl]oxychromen-4-one

>  <PUBCHEM_IUPAC_SYSTEMATIC_NAME>
7-[6-(hydroxymethyl)-3,4,5-tris(oxidanyl)oxan-2-yl]oxy-2-[4-[6-(hydroxymethyl)-3,4,5-tris(oxidanyl)oxan-2-yl]oxy-3-oxidanyl-phenyl]-3,5-bis(oxidanyl)chromen-4-one

>  <PUBCHEM_IUPAC_TRADITIONAL_NAME>
3,5-dihydroxy-2-[3-hydroxy-4-(3,4,5-trihydroxy-6-methylol-tetrahydropyran-2-yl)oxy-phenyl]-7-(3,4,5-trihydroxy-6-methylol-tetrahydropyran-2-yl)oxy-chromone

>  <PUBCHEM_IUPAC_INCHI>
InChI=1S/C27H30O17/c28-6-14-17(32)20(35)23(38)26(43-14)40-9-4-11(31)16-13(5-9)41-25(22(37)19(16)34)8-1-2-12(10(30)3-8)42-27-24(39)21(36)18(33)15(7-29)44-27/h1-5,14-15,17-18,20-21,23-24,26-33,35-39H,6-7H2

>  <PUBCHEM_IUPAC_INCHIKEY>
QZXHFNCQMMUANB-UHFFFAOYSA-N

>  <PUBCHEM_XLOGP3_AA>
-1.4

>  <PUBCHEM_EXACT_MASS>
626.148

>  <PUBCHEM_MOLECULAR_FORMULA>
C27H30O17

>  <PUBCHEM_MOLECULAR_WEIGHT>
626.52

>  <PUBCHEM_OPENEYE_CAN_SMILES>
C1=CC(=C(C=C1C2=C(C(=O)C3=C(C=C(C=C3O2)OC4C(C(C(C(O4)CO)O)O)O)O)O)O)OC5C(C(C(C(O5)CO)O)O)O

>  <PUBCHEM_OPENEYE_ISO_SMILES>
C1=CC(=C(C=C1C2=C(C(=O)C3=C(C=C(C=C3O2)OC4C(C(C(C(O4)CO)O)O)O)O)O)O)OC5C(C(C(C(O5)CO)O)O)O

>  <PUBCHEM_CACTVS_TPSA>
286

>  <PUBCHEM_MONOISOTOPIC_WEIGHT>
626.148

>  <PUBCHEM_TOTAL_CHARGE>
0

>  <PUBCHEM_HEAVY_ATOM_COUNT>
44

>  <PUBCHEM_ATOM_DEF_STEREO_COUNT>
0

>  <PUBCHEM_ATOM_UDEF_STEREO_COUNT>
10

>  <PUBCHEM_BOND_DEF_STEREO_COUNT>
0

>  <PUBCHEM_BOND_UDEF_STEREO_COUNT>
0

>  <PUBCHEM_ISOTOPIC_ATOM_COUNT>
0

>  <PUBCHEM_COMPONENT_COUNT>
1

>  <PUBCHEM_CACTVS_TAUTO_COUNT>
65

>  <PUBCHEM_COORDINATE_TYPE>
1
5
255

>  <PUBCHEM_BONDANNOTATIONS>
25  10  3
13  36  8
13  41  8
22  28  3
24  29  3
26  3  3
30  32  8
30  33  8
31  34  8
31  35  8
32  36  8
33  39  8
34  40  8
35  42  8
36  37  8
37  39  8
37  43  8
38  40  8
38  42  8
18  4  3
41  44  8
43  44  8
19  5  3
20  6  3
21  7  3
27  8  3
23  9  3

$$$$
