73157738
 OpenBabel06101807152D

 91 95  0  0  1  0  0  0  0  0999 V2000
    8.5991   -3.1282    0.0000 O   0  0  0  0  0  0  0  0  0  0  0  0
    6.8116    0.8586    0.0000 O   0  0  0  0  0  0  0  0  0  0  0  0
   10.3312   -3.1282    0.0000 O   0  0  0  0  0  0  0  0  0  0  0  0
    7.6950   -0.6313    0.0000 O   0  0  0  0  0  0  0  0  0  0  0  0
    6.8671   -5.1282    0.0000 O   0  0  0  0  0  0  0  0  0  0  0  0
    8.5991   -6.1282    0.0000 O   0  0  0  0  0  0  0  0  0  0  0  0
    4.2080    1.3285    0.0000 O   0  0  0  0  0  0  0  0  0  0  0  0
    4.2311   -0.6714    0.0000 O   0  0  0  0  0  0  0  0  0  0  0  0
   10.3312   -5.1282    0.0000 O   0  0  0  0  0  0  0  0  0  0  0  0
    5.9746   -1.6513    0.0000 O   0  0  0  0  0  0  0  0  0  0  0  0
    6.0010   -3.6282    0.0000 O   0  0  0  0  0  0  0  0  0  0  0  0
    5.0566    2.8384    0.0000 O   0  0  0  0  0  0  0  0  0  0  0  0
   11.1972   -0.6282    0.0000 O   0  3  0  0  0  0  0  0  0  0  0  0
    9.4530    2.4411    0.0000 O   0  0  0  0  0  0  0  0  0  0  0  0
    5.1350   -2.1282    0.0000 O   0  0  0  0  0  0  0  0  0  0  0  0
    5.9052    4.3483    0.0000 O   0  0  0  0  0  0  0  0  0  0  0  0
   14.6613   -1.6282    0.0000 O   0  0  0  0  0  0  0  0  0  0  0  0
   12.9292   -4.6282    0.0000 O   0  0  0  0  0  0  0  0  0  0  0  0
   14.6613   -3.6282    0.0000 O   0  0  0  0  0  0  0  0  0  0  0  0
    2.5369   -3.6282    0.0000 O   0  0  0  0  0  0  0  0  0  0  0  0
    3.2900    5.8182    0.0000 O   0  0  0  0  0  0  0  0  0  0  0  0
    3.4030   -2.1282    0.0000 O   0  0  0  0  0  0  0  0  0  0  0  0
    5.0219    5.8382    0.0000 O   0  0  0  0  0  0  0  0  0  0  0  0
    7.7331   -4.6282    0.0000 C   0  0  3  0  0  0  0  0  0  0  0  0
    8.5991   -5.1282    0.0000 C   0  0  3  0  0  0  0  0  0  0  0  0
    5.0797    0.8386    0.0000 C   0  0  3  0  0  0  0  0  0  0  0  0
    5.0913   -0.1614    0.0000 C   0  0  3  0  0  0  0  0  0  0  0  0
    7.7331   -3.6282    0.0000 C   0  0  3  0  0  0  0  0  0  0  0  0
    9.4651   -4.6282    0.0000 C   0  0  3  0  0  0  0  0  0  0  0  0
    5.9399    1.3485    0.0000 C   0  0  3  0  0  0  0  0  0  0  0  0
    5.9630   -0.6513    0.0000 C   0  0  3  0  0  0  0  0  0  0  0  0
    9.4651   -3.6282    0.0000 C   0  0  3  0  0  0  0  0  0  0  0  0
    6.8232   -0.1413    0.0000 C   0  0  3  0  0  0  0  0  0  0  0  0
    6.8671   -3.1282    0.0000 C   0  0  0  0  0  0  0  0  0  0  0  0
    5.9283    2.3485    0.0000 C   0  0  0  0  0  0  0  0  0  0  0  0
    8.5551   -0.1213    0.0000 C   0  0  0  0  0  0  0  0  0  0  0  0
   10.3312   -2.1282    0.0000 C   0  0  0  0  0  0  0  0  0  0  0  0
    9.4651   -0.6282    0.0000 C   0  0  0  0  0  0  0  0  0  0  0  0
    9.4651   -1.6282    0.0000 C   0  0  0  0  0  0  0  0  0  0  0  0
   11.1972   -1.6282    0.0000 C   0  0  0  0  0  0  0  0  0  0  0  0
   10.3312   -0.1282    0.0000 C   0  0  0  0  0  0  0  0  0  0  0  0
    8.5471    0.9203    0.0000 C   0  0  0  0  0  0  0  0  0  0  0  0
   10.3472    0.9133    0.0000 C   0  0  0  0  0  0  0  0  0  0  0  0
    9.4492    1.4411    0.0000 C   0  0  0  0  0  0  0  0  0  0  0  0
   12.0632   -2.1282    0.0000 C   0  0  0  0  0  0  0  0  0  0  0  0
    5.1350   -3.1282    0.0000 C   0  0  0  0  0  0  0  0  0  0  0  0
    5.0450    3.8384    0.0000 C   0  0  0  0  0  0  0  0  0  0  0  0
    4.2690   -3.6282    0.0000 C   0  0  0  0  0  0  0  0  0  0  0  0
    4.1733    4.3283    0.0000 C   0  0  0  0  0  0  0  0  0  0  0  0
   12.0632   -3.1282    0.0000 C   0  0  0  0  0  0  0  0  0  0  0  0
   12.9292   -1.6282    0.0000 C   0  0  0  0  0  0  0  0  0  0  0  0
   13.7953   -2.1282    0.0000 C   0  0  0  0  0  0  0  0  0  0  0  0
   12.9292   -3.6282    0.0000 C   0  0  0  0  0  0  0  0  0  0  0  0
   13.7953   -3.1282    0.0000 C   0  0  0  0  0  0  0  0  0  0  0  0
    3.4030   -3.1282    0.0000 C   0  0  0  0  0  0  0  0  0  0  0  0
    4.1617    5.3282    0.0000 C   0  0  0  0  0  0  0  0  0  0  0  0
    7.7331   -5.2482    0.0000 H   0  0  0  0  0  0  0  0  0  0  0  0
    9.1360   -5.4382    0.0000 H   0  0  0  0  0  0  0  0  0  0  0  0
    4.5464    0.5224    0.0000 H   0  0  0  0  0  0  0  0  0  0  0  0
    5.0984   -0.7813    0.0000 H   0  0  0  0  0  0  0  0  0  0  0  0
    7.7331   -3.0082    0.0000 H   0  0  0  0  0  0  0  0  0  0  0  0
   10.0021   -4.3182    0.0000 H   0  0  0  0  0  0  0  0  0  0  0  0
    6.4732    1.6647    0.0000 H   0  0  0  0  0  0  0  0  0  0  0  0
    6.5035   -0.9551    0.0000 H   0  0  0  0  0  0  0  0  0  0  0  0
    9.4651   -3.0082    0.0000 H   0  0  0  0  0  0  0  0  0  0  0  0
    7.3565    0.1748    0.0000 H   0  0  0  0  0  0  0  0  0  0  0  0
    7.2656   -2.6532    0.0000 H   0  0  0  0  0  0  0  0  0  0  0  0
    6.4685   -2.6532    0.0000 H   0  0  0  0  0  0  0  0  0  0  0  0
    6.5401    2.2479    0.0000 H   0  0  0  0  0  0  0  0  0  0  0  0
    6.1336    2.9335    0.0000 H   0  0  0  0  0  0  0  0  0  0  0  0
    6.8671   -5.7482    0.0000 H   0  0  0  0  0  0  0  0  0  0  0  0
    8.0622   -6.4382    0.0000 H   0  0  0  0  0  0  0  0  0  0  0  0
    3.6746    1.0123    0.0000 H   0  0  0  0  0  0  0  0  0  0  0  0
    3.6906   -0.3676    0.0000 H   0  0  0  0  0  0  0  0  0  0  0  0
   10.3312   -5.7482    0.0000 H   0  0  0  0  0  0  0  0  0  0  0  0
    6.5151   -1.9550    0.0000 H   0  0  0  0  0  0  0  0  0  0  0  0
    8.9282   -1.9382    0.0000 H   0  0  0  0  0  0  0  0  0  0  0  0
    8.0090    1.2282    0.0000 H   0  0  0  0  0  0  0  0  0  0  0  0
   10.8877    1.2171    0.0000 H   0  0  0  0  0  0  0  0  0  0  0  0
    3.8705   -4.1031    0.0000 H   0  0  0  0  0  0  0  0  0  0  0  0
    4.6675   -4.1031    0.0000 H   0  0  0  0  0  0  0  0  0  0  0  0
    3.5615    4.4289    0.0000 H   0  0  0  0  0  0  0  0  0  0  0  0
    3.9680    3.7433    0.0000 H   0  0  0  0  0  0  0  0  0  0  0  0
   11.5263   -3.4382    0.0000 H   0  0  0  0  0  0  0  0  0  0  0  0
   12.9292   -1.0082    0.0000 H   0  0  0  0  0  0  0  0  0  0  0  0
    9.9912    2.7490    0.0000 H   0  0  0  0  0  0  0  0  0  0  0  0
   14.6613   -1.0082    0.0000 H   0  0  0  0  0  0  0  0  0  0  0  0
   13.4662   -4.9382    0.0000 H   0  0  0  0  0  0  0  0  0  0  0  0
   15.1982   -3.3182    0.0000 H   0  0  0  0  0  0  0  0  0  0  0  0
    2.0000   -3.3182    0.0000 H   0  0  0  0  0  0  0  0  0  0  0  0
    3.2828    6.4382    0.0000 H   0  0  0  0  0  0  0  0  0  0  0  0
  1 28  1  0  0  0  0
  1 32  1  0  0  0  0
  2 30  1  0  0  0  0
  2 33  1  0  0  0  0
  3 32  1  0  0  0  0
  3 37  1  0  0  0  0
  4 33  1  0  0  0  0
  4 36  1  0  0  0  0
  5 24  1  0  0  0  0
  5 71  1  0  0  0  0
  6 25  1  0  0  0  0
  6 72  1  0  0  0  0
  7 26  1  0  0  0  0
  7 73  1  0  0  0  0
  8 27  1  0  0  0  0
  8 74  1  0  0  0  0
  9 29  1  0  0  0  0
  9 75  1  0  0  0  0
 10 31  1  0  0  0  0
 10 76  1  0  0  0  0
 11 34  1  0  0  0  0
 11 46  1  0  0  0  0
 12 35  1  0  0  0  0
 12 47  1  0  0  0  0
 13 40  1  0  0  0  0
 13 41  2  0  0  0  0
 14 44  1  0  0  0  0
 14 86  1  0  0  0  0
 15 46  2  0  0  0  0
 16 47  2  0  0  0  0
 17 52  1  0  0  0  0
 17 87  1  0  0  0  0
 18 53  1  0  0  0  0
 18 88  1  0  0  0  0
 19 54  1  0  0  0  0
 19 89  1  0  0  0  0
 20 55  1  0  0  0  0
 20 90  1  0  0  0  0
 21 56  1  0  0  0  0
 21 91  1  0  0  0  0
 22 55  2  0  0  0  0
 23 56  2  0  0  0  0
 24 25  1  0  0  0  0
 24 28  1  0  0  0  0
 24 57  1  0  0  0  0
 25 29  1  0  0  0  0
 25 58  1  0  0  0  0
 26 27  1  0  0  0  0
 26 30  1  0  0  0  0
 26 59  1  0  0  0  0
 27 31  1  0  0  0  0
 27 60  1  0  0  0  0
 28 34  1  0  0  0  0
 28 61  1  0  0  0  0
 29 32  1  0  0  0  0
 29 62  1  0  0  0  0
 30 35  1  0  0  0  0
 30 63  1  0  0  0  0
 31 33  1  0  0  0  0
 31 64  1  0  0  0  0
 32 65  1  0  0  0  0
 33 66  1  0  0  0  0
 34 67  1  0  0  0  0
 34 68  1  0  0  0  0
 35 69  1  0  0  0  0
 35 70  1  0  0  0  0
 36 38  1  0  0  0  0
 36 42  2  0  0  0  0
 37 39  1  0  0  0  0
 37 40  2  0  0  0  0
 38 39  2  0  0  0  0
 38 41  1  0  0  0  0
 39 77  1  0  0  0  0
 40 45  1  0  0  0  0
 41 43  1  0  0  0  0
 42 44  1  0  0  0  0
 42 78  1  0  0  0  0
 43 44  2  0  0  0  0
 43 79  1  0  0  0  0
 45 50  2  0  0  0  0
 45 51  1  0  0  0  0
 46 48  1  0  0  0  0
 47 49  1  0  0  0  0
 48 55  1  0  0  0  0
 48 80  1  0  0  0  0
 48 81  1  0  0  0  0
 49 56  1  0  0  0  0
 49 82  1  0  0  0  0
 49 83  1  0  0  0  0
 50 53  1  0  0  0  0
 50 84  1  0  0  0  0
 51 52  2  0  0  0  0
 51 85  1  0  0  0  0
 52 54  1  0  0  0  0
 53 54  2  0  0  0  0
M  CHG  1  13   1
M  END
>  <PUBCHEM_COMPOUND_CID>
73157738

>  <PUBCHEM_COMPOUND_CANONICALIZED>
1

>  <PUBCHEM_CACTVS_COMPLEXITY>
1360

>  <PUBCHEM_CACTVS_HBOND_ACCEPTOR>
22

>  <PUBCHEM_CACTVS_HBOND_DONOR>
12

>  <PUBCHEM_CACTVS_ROTATABLE_BOND>
15

>  <PUBCHEM_CACTVS_SUBSKEYS>
AAADcfB8PgAAAAAAAAAAAAAAAAAAAAAAAAA0aJECAAAAAACR9AAAGgAACAAADBSwmAMwDsAABkCIAqDSCAICCAAkIAAAiAFGiMgdNzaONR6ieWOl4BUPuYfK7PzOIAABCAAIQABAAAIQABCAAAAAAAAAAA==

>  <PUBCHEM_IUPAC_OPENEYE_NAME>
3-[[6-[3-[6-[(2-carboxyacetyl)oxymethyl]-3,4,5-trihydroxy-tetrahydropyran-2-yl]oxy-7-hydroxy-2-(3,4,5-trihydroxyphenyl)chromenylium-5-yl]oxy-3,4,5-trihydroxy-tetrahydropyran-2-yl]methoxy]-3-oxo-propanoic acid

>  <PUBCHEM_IUPAC_CAS_NAME>
3-[[6-[[3-[[6-[(2-carboxy-1-oxoethoxy)methyl]-3,4,5-trihydroxy-2-oxanyl]oxy]-7-hydroxy-2-(3,4,5-trihydroxyphenyl)-1-benzopyrylium-5-yl]oxy]-3,4,5-trihydroxy-2-oxanyl]methoxy]-3-oxopropanoic acid

>  <PUBCHEM_IUPAC_NAME>
3-[[6-[3-[6-[(2-carboxyacetyl)oxymethyl]-3,4,5-trihydroxyoxan-2-yl]oxy-7-hydroxy-2-(3,4,5-trihydroxyphenyl)chromenylium-5-yl]oxy-3,4,5-trihydroxyoxan-2-yl]methoxy]-3-oxopropanoic acid

>  <PUBCHEM_IUPAC_SYSTEMATIC_NAME>
3-oxidanylidene-3-[[3,4,5-tris(oxidanyl)-6-[7-oxidanyl-3-[3,4,5-tris(oxidanyl)-6-[(3-oxidanyl-3-oxidanylidene-propanoyl)oxymethyl]oxan-2-yl]oxy-2-[3,4,5-tris(oxidanyl)phenyl]chromenylium-5-yl]oxy-oxan-2-yl]methoxy]propanoic acid

>  <PUBCHEM_IUPAC_TRADITIONAL_NAME>
3-[[6-[[3-[6-[(2-carboxyacetyl)oxymethyl]-3,4,5-trihydroxy-tetrahydropyran-2-yl]oxy-7-hydroxy-2-(3,4,5-trihydroxyphenyl)-1-benzopyrylium-5-yl]oxy]-3,4,5-trihydroxy-tetrahydropyran-2-yl]methoxy]-3-keto-propionic acid

>  <PUBCHEM_IUPAC_INCHI>
InChI=1S/C33H34O23/c34-11-3-15-12(16(4-11)53-32-29(48)27(46)25(44)18(55-32)8-50-22(41)6-20(37)38)5-17(31(52-15)10-1-13(35)24(43)14(36)2-10)54-33-30(49)28(47)26(45)19(56-33)9-51-23(42)7-21(39)40/h1-5,18-19,25-30,32-33,44-49H,6-9H2,(H5-,34,35,36,37,38,39,40,43)/p+1

>  <PUBCHEM_IUPAC_INCHIKEY>
YUUVWWMPUDXXPV-UHFFFAOYSA-O

>  <PUBCHEM_EXACT_MASS>
799.157

>  <PUBCHEM_MOLECULAR_FORMULA>
C33H35O23+

>  <PUBCHEM_MOLECULAR_WEIGHT>
799.62

>  <PUBCHEM_OPENEYE_CAN_SMILES>
C1=C(C=C(C(=C1O)O)O)C2=C(C=C3C(=CC(=CC3=[O+]2)O)OC4C(C(C(C(O4)COC(=O)CC(=O)O)O)O)O)OC5C(C(C(C(O5)COC(=O)CC(=O)O)O)O)O

>  <PUBCHEM_OPENEYE_ISO_SMILES>
C1=C(C=C(C(=C1O)O)O)C2=C(C=C3C(=CC(=CC3=[O+]2)O)OC4C(C(C(C(O4)COC(=O)CC(=O)O)O)O)O)OC5C(C(C(C(O5)COC(=O)CC(=O)O)O)O)O

>  <PUBCHEM_CACTVS_TPSA>
367

>  <PUBCHEM_MONOISOTOPIC_WEIGHT>
799.157

>  <PUBCHEM_TOTAL_CHARGE>
1

>  <PUBCHEM_HEAVY_ATOM_COUNT>
56

>  <PUBCHEM_ATOM_DEF_STEREO_COUNT>
0

>  <PUBCHEM_ATOM_UDEF_STEREO_COUNT>
10

>  <PUBCHEM_BOND_DEF_STEREO_COUNT>
0

>  <PUBCHEM_BOND_UDEF_STEREO_COUNT>
0

>  <PUBCHEM_ISOTOPIC_ATOM_COUNT>
0

>  <PUBCHEM_COMPONENT_COUNT>
1

>  <PUBCHEM_CACTVS_TAUTO_COUNT>
100

>  <PUBCHEM_COORDINATE_TYPE>
1
5
255

>  <PUBCHEM_BONDANNOTATIONS>
31  10  3
13  40  8
13  41  8
28  34  3
32  3  3
30  35  3
36  38  8
36  42  8
37  39  8
37  40  8
38  39  8
38  41  8
33  4  3
41  43  8
42  44  8
43  44  8
45  50  8
45  51  8
24  5  3
50  53  8
51  52  8
52  54  8
53  54  8
25  6  3
26  7  3
27  8  3
29  9  3

$$$$
