73265364
 OpenBabel06101807152D

 65 68  0  0  1  0  0  0  0  0999 V2000
    6.2723   -2.9616    0.0000 O   0  0  0  0  0  0  0  0  0  0  0  0
    8.0044   -2.9616    0.0000 O   0  0  0  0  0  0  0  0  0  0  0  0
    6.2723   -5.9616    0.0000 O   0  0  0  0  0  0  0  0  0  0  0  0
    4.5403   -4.9616    0.0000 O   0  0  0  0  0  0  0  0  0  0  0  0
    8.0044   -4.9616    0.0000 O   0  0  0  0  0  0  0  0  0  0  0  0
    3.6742   -3.4616    0.0000 O   0  0  0  0  0  0  0  0  0  0  0  0
    6.2723   -1.9616    0.0000 O   0  0  0  0  0  0  0  0  0  0  0  0
   10.7023    1.9793    0.0000 O   0  0  0  0  0  0  0  0  0  0  0  0
    9.2023    2.8453    0.0000 O   0  0  0  0  0  0  0  0  0  0  0  0
    2.6067    3.3688    0.0000 O   0  0  0  0  0  0  0  0  0  0  0  0
    2.9639    1.6740    0.0000 O   0  0  0  0  0  0  0  0  0  0  0  0
    5.1850    5.6823    0.0000 O   0  0  0  0  0  0  0  0  0  0  0  0
    6.8314    5.1442    0.0000 O   0  0  0  0  0  0  0  0  0  0  0  0
    8.2136    1.0102    0.0000 N   0  0  0  0  0  0  0  0  0  0  0  0
    4.5637    3.7812    0.0000 N   0  0  0  0  0  0  0  0  0  0  0  0
    6.2723   -4.9616    0.0000 C   0  0  3  0  0  0  0  0  0  0  0  0
    5.4063   -4.4616    0.0000 C   0  0  3  0  0  0  0  0  0  0  0  0
    7.1383   -4.4616    0.0000 C   0  0  3  0  0  0  0  0  0  0  0  0
    5.4063   -3.4616    0.0000 C   0  0  3  0  0  0  0  0  0  0  0  0
    7.1383   -3.4616    0.0000 C   0  0  3  0  0  0  0  0  0  0  0  0
    9.2023    1.1133    0.0000 C   0  0  3  0  0  0  0  0  0  0  0  0
    9.6074    0.2055    0.0000 C   0  0  0  0  0  0  0  0  0  0  0  0
    8.8704   -0.4616    0.0000 C   0  0  0  0  0  0  0  0  0  0  0  0
    8.0044    0.0384    0.0000 C   0  0  0  0  0  0  0  0  0  0  0  0
    4.5403   -2.9616    0.0000 C   0  0  0  0  0  0  0  0  0  0  0  0
    8.0044   -1.9616    0.0000 C   0  0  0  0  0  0  0  0  0  0  0  0
    8.8704   -1.4616    0.0000 C   0  0  0  0  0  0  0  0  0  0  0  0
    7.1383   -0.4616    0.0000 C   0  0  0  0  0  0  0  0  0  0  0  0
    7.1383   -1.4616    0.0000 C   0  0  0  0  0  0  0  0  0  0  0  0
    7.5457    1.7545    0.0000 C   0  0  0  0  0  0  0  0  0  0  0  0
    9.7023    1.9793    0.0000 C   0  0  0  0  0  0  0  0  0  0  0  0
    6.5672    1.5483    0.0000 C   0  0  0  0  0  0  0  0  0  0  0  0
    5.8994    2.2926    0.0000 C   0  0  0  0  0  0  0  0  0  0  0  0
    4.9209    2.0864    0.0000 C   0  0  0  0  0  0  0  0  0  0  0  0
    4.2530    2.8307    0.0000 C   0  0  3  0  0  0  0  0  0  0  0  0
    6.2100    3.2431    0.0000 C   0  0  0  0  0  0  0  0  0  0  0  0
    5.5422    3.9874    0.0000 C   0  0  0  0  0  0  0  0  0  0  0  0
    3.2745    2.6245    0.0000 C   0  0  0  0  0  0  0  0  0  0  0  0
    5.8528    4.9380    0.0000 C   0  0  0  0  0  0  0  0  0  0  0  0
    6.8092   -5.2716    0.0000 H   0  0  0  0  0  0  0  0  0  0  0  0
    5.4063   -5.0816    0.0000 H   0  0  0  0  0  0  0  0  0  0  0  0
    7.6753   -4.1516    0.0000 H   0  0  0  0  0  0  0  0  0  0  0  0
    5.4063   -2.8416    0.0000 H   0  0  0  0  0  0  0  0  0  0  0  0
    7.1383   -2.8416    0.0000 H   0  0  0  0  0  0  0  0  0  0  0  0
    8.8648    1.6334    0.0000 H   0  0  0  0  0  0  0  0  0  0  0  0
    9.9728   -0.2954    0.0000 H   0  0  0  0  0  0  0  0  0  0  0  0
   10.1439    0.5163    0.0000 H   0  0  0  0  0  0  0  0  0  0  0  0
    4.9388   -2.4866    0.0000 H   0  0  0  0  0  0  0  0  0  0  0  0
    4.1417   -2.4866    0.0000 H   0  0  0  0  0  0  0  0  0  0  0  0
    9.4073   -1.7716    0.0000 H   0  0  0  0  0  0  0  0  0  0  0  0
    6.6014   -0.1516    0.0000 H   0  0  0  0  0  0  0  0  0  0  0  0
    5.7354   -6.2716    0.0000 H   0  0  0  0  0  0  0  0  0  0  0  0
    4.5403   -5.5816    0.0000 H   0  0  0  0  0  0  0  0  0  0  0  0
    8.0044   -5.5816    0.0000 H   0  0  0  0  0  0  0  0  0  0  0  0
    7.7383    2.3439    0.0000 H   0  0  0  0  0  0  0  0  0  0  0  0
    3.1373   -3.1516    0.0000 H   0  0  0  0  0  0  0  0  0  0  0  0
    6.3746    0.9590    0.0000 H   0  0  0  0  0  0  0  0  0  0  0  0
    4.3945    1.7588    0.0000 H   0  0  0  0  0  0  0  0  0  0  0  0
    5.1521    1.5111    0.0000 H   0  0  0  0  0  0  0  0  0  0  0  0
    5.7354   -1.6516    0.0000 H   0  0  0  0  0  0  0  0  0  0  0  0
    3.8390    3.2922    0.0000 H   0  0  0  0  0  0  0  0  0  0  0  0
   11.0123    2.5162    0.0000 H   0  0  0  0  0  0  0  0  0  0  0  0
    6.8167    3.3710    0.0000 H   0  0  0  0  0  0  0  0  0  0  0  0
    2.0000    3.2409    0.0000 H   0  0  0  0  0  0  0  0  0  0  0  0
    5.3776    6.2716    0.0000 H   0  0  0  0  0  0  0  0  0  0  0  0
  1 19  1  0  0  0  0
  1 20  1  0  0  0  0
  2 20  1  0  0  0  0
  2 26  1  0  0  0  0
  3 16  1  0  0  0  0
  3 52  1  0  0  0  0
  4 17  1  0  0  0  0
  4 53  1  0  0  0  0
  5 18  1  0  0  0  0
  5 54  1  0  0  0  0
  6 25  1  0  0  0  0
  6 56  1  0  0  0  0
  7 29  1  0  0  0  0
  7 60  1  0  0  0  0
  8 31  1  0  0  0  0
  8 62  1  0  0  0  0
  9 31  2  0  0  0  0
 10 38  1  0  0  0  0
 10 64  1  0  0  0  0
 11 38  2  0  0  0  0
 12 39  1  0  0  0  0
 12 65  1  0  0  0  0
 13 39  2  0  0  0  0
 14 21  1  0  0  0  0
 14 24  1  0  0  0  0
 14 30  1  0  0  0  0
 15 35  1  0  0  0  0
 15 37  2  0  0  0  0
 16 17  1  0  0  0  0
 16 18  1  0  0  0  0
 16 40  1  0  0  0  0
 17 19  1  0  0  0  0
 17 41  1  0  0  0  0
 18 20  1  0  0  0  0
 18 42  1  0  0  0  0
 19 25  1  0  0  0  0
 19 43  1  0  0  0  0
 20 44  1  0  0  0  0
 21 22  1  0  0  0  0
 21 31  1  0  0  0  0
 21 45  1  0  0  0  0
 22 23  1  0  0  0  0
 22 46  1  0  0  0  0
 22 47  1  0  0  0  0
 23 24  1  0  0  0  0
 23 27  2  0  0  0  0
 24 28  2  0  0  0  0
 25 48  1  0  0  0  0
 25 49  1  0  0  0  0
 26 27  1  0  0  0  0
 26 29  2  0  0  0  0
 27 50  1  0  0  0  0
 28 29  1  0  0  0  0
 28 51  1  0  0  0  0
 30 32  2  3  0  0  0
 30 55  1  0  0  0  0
 32 33  1  0  0  0  0
 32 57  1  0  0  0  0
 33 34  1  0  0  0  0
 33 36  2  0  0  0  0
 34 35  1  0  0  0  0
 34 58  1  0  0  0  0
 34 59  1  0  0  0  0
 35 38  1  0  0  0  0
 35 61  1  0  0  0  0
 36 37  1  0  0  0  0
 36 63  1  0  0  0  0
 37 39  1  0  0  0  0
M  END
>  <PUBCHEM_COMPOUND_CID>
73265364

>  <PUBCHEM_COMPOUND_CANONICALIZED>
1

>  <PUBCHEM_CACTVS_COMPLEXITY>
1060

>  <PUBCHEM_CACTVS_HBOND_ACCEPTOR>
15

>  <PUBCHEM_CACTVS_HBOND_DONOR>
8

>  <PUBCHEM_CACTVS_ROTATABLE_BOND>
8

>  <PUBCHEM_CACTVS_SUBSKEYS>
AAADceB7PAAAAAAAAAAAAAAAAAAAAWAAAAA0QIAAAAAAAFgBAAAAHgAACAAADDzxmAcwzoMABgCoAyT2TASCCAAhIgAIiAGe7JgfNjLGsbumeCvnwBnf+Af4+b+eIEABAgACQABAgAIEAASAAAAAAAAAAA==

>  <PUBCHEM_IUPAC_OPENEYE_NAME>
4-[2-[2-carboxy-6-hydroxy-5-[3,4,5-trihydroxy-6-(hydroxymethyl)tetrahydropyran-2-yl]oxy-indolin-1-yl]vinyl]-2,3-dihydropyridine-2,6-dicarboxylic acid

>  <PUBCHEM_IUPAC_CAS_NAME>
4-[2-[2-carboxy-6-hydroxy-5-[[3,4,5-trihydroxy-6-(hydroxymethyl)-2-oxanyl]oxy]-2,3-dihydroindol-1-yl]ethenyl]-2,3-dihydropyridine-2,6-dicarboxylic acid

>  <PUBCHEM_IUPAC_NAME>
4-[2-[2-carboxy-6-hydroxy-5-[3,4,5-trihydroxy-6-(hydroxymethyl)oxan-2-yl]oxy-2,3-dihydroindol-1-yl]ethenyl]-2,3-dihydropyridine-2,6-dicarboxylic acid

>  <PUBCHEM_IUPAC_SYSTEMATIC_NAME>
4-[2-[2-carboxy-5-[6-(hydroxymethyl)-3,4,5-tris(oxidanyl)oxan-2-yl]oxy-6-oxidanyl-2,3-dihydroindol-1-yl]ethenyl]-2,3-dihydropyridine-2,6-dicarboxylic acid

>  <PUBCHEM_IUPAC_TRADITIONAL_NAME>
4-[2-[2-carboxy-6-hydroxy-5-(3,4,5-trihydroxy-6-methylol-tetrahydropyran-2-yl)oxy-indolin-1-yl]vinyl]-2,3-dihydropyridine-2,6-dicarboxylic acid

>  <PUBCHEM_IUPAC_INCHI>
InChI=1S/C24H26N2O13/c27-8-17-18(29)19(30)20(31)24(39-17)38-16-6-10-5-14(23(36)37)26(13(10)7-15(16)28)2-1-9-3-11(21(32)33)25-12(4-9)22(34)35/h1-3,6-7,12,14,17-20,24,27-31H,4-5,8H2,(H,32,33)(H,34,35)(H,36,37)

>  <PUBCHEM_IUPAC_INCHIKEY>
CTMLKIKAUFEMLE-UHFFFAOYSA-N

>  <PUBCHEM_XLOGP3_AA>
-1.3

>  <PUBCHEM_EXACT_MASS>
550.143

>  <PUBCHEM_MOLECULAR_FORMULA>
C24H26N2O13

>  <PUBCHEM_MOLECULAR_WEIGHT>
550.473

>  <PUBCHEM_OPENEYE_CAN_SMILES>
C1C(N=C(C=C1C=CN2C(CC3=CC(=C(C=C32)O)OC4C(C(C(C(O4)CO)O)O)O)C(=O)O)C(=O)O)C(=O)O

>  <PUBCHEM_OPENEYE_ISO_SMILES>
C1C(N=C(C=C1C=CN2C(CC3=CC(=C(C=C32)O)OC4C(C(C(C(O4)CO)O)O)O)C(=O)O)C(=O)O)C(=O)O

>  <PUBCHEM_CACTVS_TPSA>
247

>  <PUBCHEM_MONOISOTOPIC_WEIGHT>
550.143

>  <PUBCHEM_TOTAL_CHARGE>
0

>  <PUBCHEM_HEAVY_ATOM_COUNT>
39

>  <PUBCHEM_ATOM_DEF_STEREO_COUNT>
0

>  <PUBCHEM_ATOM_UDEF_STEREO_COUNT>
7

>  <PUBCHEM_BOND_DEF_STEREO_COUNT>
0

>  <PUBCHEM_BOND_UDEF_STEREO_COUNT>
1

>  <PUBCHEM_ISOTOPIC_ATOM_COUNT>
0

>  <PUBCHEM_COMPONENT_COUNT>
1

>  <PUBCHEM_CACTVS_TAUTO_COUNT>
3

>  <PUBCHEM_COORDINATE_TYPE>
1
5
255

>  <PUBCHEM_BONDANNOTATIONS>
19  25  3
20  2  3
21  31  3
23  24  8
23  27  8
24  28  8
26  27  8
26  29  8
28  29  8
16  3  3
30  32  1
35  38  3
17  4  3
18  5  3

$$$$
