73268
 OpenBabel06101807152D

 13 13  0  0  0  0  0  0  0  0999 V2000
    2.0000    1.0000    0.0000 O   0  0  0  0  0  0  0  0  0  0  0  0
    2.0000   -1.0000    0.0000 O   0  0  0  0  0  0  0  0  0  0  0  0
    5.4641   -1.0000    0.0000 O   0  0  0  0  0  0  0  0  0  0  0  0
    3.7320   -1.0000    0.0000 N   0  0  0  0  0  0  0  0  0  0  0  0
    4.5981    0.5000    0.0000 N   0  0  0  0  0  0  0  0  0  0  0  0
    2.8660    0.5000    0.0000 C   0  0  0  0  0  0  0  0  0  0  0  0
    2.8660   -0.5000    0.0000 C   0  0  0  0  0  0  0  0  0  0  0  0
    3.7320    1.0000    0.0000 C   0  0  0  0  0  0  0  0  0  0  0  0
    4.5981   -0.5000    0.0000 C   0  0  0  0  0  0  0  0  0  0  0  0
    3.7320    1.6200    0.0000 H   0  0  0  0  0  0  0  0  0  0  0  0
    3.7320   -1.6200    0.0000 H   0  0  0  0  0  0  0  0  0  0  0  0
    5.1350    0.8100    0.0000 H   0  0  0  0  0  0  0  0  0  0  0  0
    2.0000    1.6200    0.0000 H   0  0  0  0  0  0  0  0  0  0  0  0
  1  6  1  0  0  0  0
  1 13  1  0  0  0  0
  2  7  2  0  0  0  0
  3  9  2  0  0  0  0
  4  7  1  0  0  0  0
  4  9  1  0  0  0  0
  4 11  1  0  0  0  0
  5  8  1  0  0  0  0
  5  9  1  0  0  0  0
  5 12  1  0  0  0  0
  6  7  1  0  0  0  0
  6  8  2  0  0  0  0
  8 10  1  0  0  0  0
M  END
>  <PUBCHEM_COMPOUND_CID>
73268

>  <PUBCHEM_COMPOUND_CANONICALIZED>
1

>  <PUBCHEM_CACTVS_COMPLEXITY>
196

>  <PUBCHEM_CACTVS_HBOND_ACCEPTOR>
3

>  <PUBCHEM_CACTVS_HBOND_DONOR>
3

>  <PUBCHEM_CACTVS_ROTATABLE_BOND>
0

>  <PUBCHEM_CACTVS_SUBSKEYS>
AAADcYBjMAAAAAAAAAAAAAAAAAAAAAAAAAAgAAAAAAAAAAAAAAAAHgAQCAAACATBgAQBAALAAgCIAAFWUAKAAAAAAAAAAIBIAECCAAAAAAAAAAAIByIQAMAAAAAAAAAAAAAAAAAAAAAAAAAAAAAAAAAAAA==

>  <PUBCHEM_IUPAC_OPENEYE_NAME>
5-hydroxy-1H-pyrimidine-2,4-dione

>  <PUBCHEM_IUPAC_CAS_NAME>
5-hydroxy-1H-pyrimidine-2,4-dione

>  <PUBCHEM_IUPAC_NAME>
5-hydroxy-1H-pyrimidine-2,4-dione

>  <PUBCHEM_IUPAC_SYSTEMATIC_NAME>
5-oxidanyl-1H-pyrimidine-2,4-dione

>  <PUBCHEM_IUPAC_TRADITIONAL_NAME>
5-hydroxyuracil

>  <PUBCHEM_IUPAC_INCHI>
InChI=1S/C4H4N2O3/c7-2-1-5-4(9)6-3(2)8/h1,7H,(H2,5,6,8,9)

>  <PUBCHEM_IUPAC_INCHIKEY>
OFJNVANOCZHTMW-UHFFFAOYSA-N

>  <PUBCHEM_XLOGP3>
-1.1

>  <PUBCHEM_EXACT_MASS>
128.022

>  <PUBCHEM_MOLECULAR_FORMULA>
C4H4N2O3

>  <PUBCHEM_MOLECULAR_WEIGHT>
128.087

>  <PUBCHEM_OPENEYE_CAN_SMILES>
C1=C(C(=O)NC(=O)N1)O

>  <PUBCHEM_OPENEYE_ISO_SMILES>
C1=C(C(=O)NC(=O)N1)O

>  <PUBCHEM_CACTVS_TPSA>
78.4

>  <PUBCHEM_MONOISOTOPIC_WEIGHT>
128.022

>  <PUBCHEM_TOTAL_CHARGE>
0

>  <PUBCHEM_HEAVY_ATOM_COUNT>
9

>  <PUBCHEM_ATOM_DEF_STEREO_COUNT>
0

>  <PUBCHEM_ATOM_UDEF_STEREO_COUNT>
0

>  <PUBCHEM_BOND_DEF_STEREO_COUNT>
0

>  <PUBCHEM_BOND_UDEF_STEREO_COUNT>
0

>  <PUBCHEM_ISOTOPIC_ATOM_COUNT>
0

>  <PUBCHEM_COMPONENT_COUNT>
1

>  <PUBCHEM_CACTVS_TAUTO_COUNT>
16

>  <PUBCHEM_COORDINATE_TYPE>
1
5
255

>  <PUBCHEM_BONDANNOTATIONS>
4  7  8
4  9  8
5  8  8
5  9  8
6  7  8
6  8  8

$$$$
