73533
 OpenBabel06101807152D

 52 55  0  0  1  0  0  0  0  0999 V2000
    5.1304    1.2021    0.0000 O   0  0  0  0  0  0  0  0  0  0  0  0
    9.5323   -0.2704    0.0000 O   0  0  0  0  0  0  0  0  0  0  0  0
    6.0022   -0.2945    0.0000 O   0  0  0  0  0  0  0  0  0  0  0  0
    4.2740   -1.3012    0.0000 O   0  0  0  0  0  0  0  0  0  0  0  0
    2.5381   -0.3079    0.0000 O   0  0  0  0  0  0  0  0  0  0  0  0
    2.5304    1.6921    0.0000 O   0  0  0  0  0  0  0  0  0  0  0  0
   11.2644    1.7296    0.0000 O   0  0  0  0  0  0  0  0  0  0  0  0
    7.7839    2.7642    0.0000 O   0  0  0  0  0  0  0  0  0  0  0  0
   12.1304   -2.7704    0.0000 O   0  0  0  0  0  0  0  0  0  0  0  0
   13.8625   -1.7704    0.0000 O   0  0  0  0  0  0  0  0  0  0  0  0
    4.2702   -0.3012    0.0000 C   0  0  2  0  0  0  0  0  0  0  0  0
    3.4022    0.1954    0.0000 C   0  0  2  0  0  0  0  0  0  0  0  0
    5.1343    0.2021    0.0000 C   0  0  1  0  0  0  0  0  0  0  0  0
    3.3984    1.1954    0.0000 C   0  0  1  0  0  0  0  0  0  0  0  0
   10.3984    1.2296    0.0000 C   0  0  2  0  0  0  0  0  0  0  0  0
   10.3984    0.2296    0.0000 C   0  0  1  0  0  0  0  0  0  0  0  0
    9.5323    1.7296    0.0000 C   0  0  0  0  0  0  0  0  0  0  0  0
    4.2625    1.6988    0.0000 C   0  0  0  0  0  0  0  0  0  0  0  0
    8.6663    1.2296    0.0000 C   0  0  0  0  0  0  0  0  0  0  0  0
    8.6663    0.2296    0.0000 C   0  0  0  0  0  0  0  0  0  0  0  0
   11.2644   -0.2704    0.0000 C   0  0  0  0  0  0  0  0  0  0  0  0
    6.8663    0.2088    0.0000 C   0  0  0  0  0  0  0  0  0  0  0  0
    7.7724   -0.3051    0.0000 C   0  0  0  0  0  0  0  0  0  0  0  0
    7.7724    1.7643    0.0000 C   0  0  0  0  0  0  0  0  0  0  0  0
    6.8663    1.2504    0.0000 C   0  0  0  0  0  0  0  0  0  0  0  0
   11.2644   -1.2704    0.0000 C   0  0  0  0  0  0  0  0  0  0  0  0
   12.1304    0.2296    0.0000 C   0  0  0  0  0  0  0  0  0  0  0  0
   12.1304   -1.7704    0.0000 C   0  0  0  0  0  0  0  0  0  0  0  0
   12.9964   -0.2704    0.0000 C   0  0  0  0  0  0  0  0  0  0  0  0
   12.9964   -1.2704    0.0000 C   0  0  0  0  0  0  0  0  0  0  0  0
    3.7344   -0.6133    0.0000 H   0  0  0  0  0  0  0  0  0  0  0  0
    2.8641    0.5034    0.0000 H   0  0  0  0  0  0  0  0  0  0  0  0
    5.1367   -0.4179    0.0000 H   0  0  0  0  0  0  0  0  0  0  0  0
    3.3960    1.8154    0.0000 H   0  0  0  0  0  0  0  0  0  0  0  0
   10.3984    1.8496    0.0000 H   0  0  0  0  0  0  0  0  0  0  0  0
   10.3984   -0.3904    0.0000 H   0  0  0  0  0  0  0  0  0  0  0  0
    9.9309    2.2046    0.0000 H   0  0  0  0  0  0  0  0  0  0  0  0
    9.1338    2.2046    0.0000 H   0  0  0  0  0  0  0  0  0  0  0  0
    4.6592    2.1752    0.0000 H   0  0  0  0  0  0  0  0  0  0  0  0
    3.8621    2.1722    0.0000 H   0  0  0  0  0  0  0  0  0  0  0  0
    7.7795   -0.9250    0.0000 H   0  0  0  0  0  0  0  0  0  0  0  0
    6.3306    1.5625    0.0000 H   0  0  0  0  0  0  0  0  0  0  0  0
    3.7383   -1.6133    0.0000 H   0  0  0  0  0  0  0  0  0  0  0  0
    2.0000    0.0000    0.0000 H   0  0  0  0  0  0  0  0  0  0  0  0
    2.5280    2.3121    0.0000 H   0  0  0  0  0  0  0  0  0  0  0  0
   11.2644    2.3496    0.0000 H   0  0  0  0  0  0  0  0  0  0  0  0
   10.7274   -1.5804    0.0000 H   0  0  0  0  0  0  0  0  0  0  0  0
   12.1304    0.8496    0.0000 H   0  0  0  0  0  0  0  0  0  0  0  0
   13.5334    0.0396    0.0000 H   0  0  0  0  0  0  0  0  0  0  0  0
    7.2506    3.0804    0.0000 H   0  0  0  0  0  0  0  0  0  0  0  0
   12.6673   -3.0804    0.0000 H   0  0  0  0  0  0  0  0  0  0  0  0
   14.3994   -1.4604    0.0000 H   0  0  0  0  0  0  0  0  0  0  0  0
  1 13  1  0  0  0  0
  1 18  1  0  0  0  0
  2 16  1  0  0  0  0
  2 20  1  0  0  0  0
  3 22  1  0  0  0  0
  4 43  1  0  0  0  0
  5 44  1  0  0  0  0
  6 45  1  0  0  0  0
  7 46  1  0  0  0  0
  8 24  1  0  0  0  0
  8 50  1  0  0  0  0
  9 28  1  0  0  0  0
  9 51  1  0  0  0  0
 10 30  1  0  0  0  0
 10 52  1  0  0  0  0
 11  4  1  0  0  0  0
 11 12  1  6  0  0  0
 11 31  1  0  0  0  0
 12  5  1  0  0  0  0
 12 14  1  1  0  0  0
 12 32  1  0  0  0  0
 13  3  1  0  0  0  0
 13 11  1  1  0  0  0
 13 33  1  0  0  0  0
 14  6  1  0  0  0  0
 14 18  1  0  0  0  0
 14 34  1  1  0  0  0
 15  7  1  0  0  0  0
 15 16  1  1  0  0  0
 15 17  1  0  0  0  0
 15 35  1  0  0  0  0
 16 21  1  0  0  0  0
 16 36  1  6  0  0  0
 17 19  1  0  0  0  0
 17 37  1  0  0  0  0
 17 38  1  0  0  0  0
 18 39  1  0  0  0  0
 18 40  1  0  0  0  0
 19 20  1  0  0  0  0
 19 24  2  0  0  0  0
 20 23  2  0  0  0  0
 21 26  2  0  0  0  0
 21 27  1  0  0  0  0
 22 23  1  0  0  0  0
 22 25  2  0  0  0  0
 23 41  1  0  0  0  0
 24 25  1  0  0  0  0
 25 42  1  0  0  0  0
 26 28  1  0  0  0  0
 26 47  1  0  0  0  0
 27 29  2  0  0  0  0
 27 48  1  0  0  0  0
 28 30  2  0  0  0  0
 29 30  1  0  0  0  0
 29 49  1  0  0  0  0
M  END
>  <PUBCHEM_COMPOUND_CID>
73533

>  <PUBCHEM_COMPOUND_CANONICALIZED>
1

>  <PUBCHEM_CACTVS_COMPLEXITY>
578

>  <PUBCHEM_CACTVS_HBOND_ACCEPTOR>
10

>  <PUBCHEM_CACTVS_HBOND_DONOR>
7

>  <PUBCHEM_CACTVS_ROTATABLE_BOND>
3

>  <PUBCHEM_CACTVS_SUBSKEYS>
AAADceB4PAAAAAAAAAAAAAAAAAAAAAAAAAA0aIEAAAAAAACRQAAAGgAACAAADBSwmAMwDoAABgCAAiBCAAACCAAgIAAIiAAGiIgdNyKGMRqieCGlwBUPuAfA4PwOIAABCAAIQABAAAIQABCAAAAAAAAAAA==

>  <PUBCHEM_IUPAC_OPENEYE_NAME>
(2S,3R,4S,5R)-2-[(2R,3S)-2-(3,4-dihydroxyphenyl)-3,5-dihydroxy-chroman-7-yl]oxytetrahydropyran-3,4,5-triol

>  <PUBCHEM_IUPAC_CAS_NAME>
(2S,3R,4S,5R)-2-[[(2R,3S)-2-(3,4-dihydroxyphenyl)-3,5-dihydroxy-3,4-dihydro-2H-1-benzopyran-7-yl]oxy]oxane-3,4,5-triol

>  <PUBCHEM_IUPAC_NAME>
(2S,3R,4S,5R)-2-[[(2R,3S)-2-(3,4-dihydroxyphenyl)-3,5-dihydroxy-3,4-dihydro-2H-chromen-7-yl]oxy]oxane-3,4,5-triol

>  <PUBCHEM_IUPAC_SYSTEMATIC_NAME>
(2S,3R,4S,5R)-2-[[(2R,3S)-2-[3,4-bis(oxidanyl)phenyl]-3,5-bis(oxidanyl)-3,4-dihydro-2H-chromen-7-yl]oxy]oxane-3,4,5-triol

>  <PUBCHEM_IUPAC_TRADITIONAL_NAME>
(2S,3R,4S,5R)-2-[(2R,3S)-2-(3,4-dihydroxyphenyl)-3,5-dihydroxy-chroman-7-yl]oxytetrahydropyran-3,4,5-triol

>  <PUBCHEM_IUPAC_INCHI>
InChI=1S/C20H22O10/c21-11-2-1-8(3-13(11)23)19-14(24)6-10-12(22)4-9(5-16(10)30-19)29-20-18(27)17(26)15(25)7-28-20/h1-5,14-15,17-27H,6-7H2/t14-,15+,17-,18+,19+,20-/m0/s1

>  <PUBCHEM_IUPAC_INCHIKEY>
UQKKDJWFQBNZBJ-MLYGIHNMSA-N

>  <PUBCHEM_XLOGP3>
-1.4

>  <PUBCHEM_EXACT_MASS>
422.121

>  <PUBCHEM_MOLECULAR_FORMULA>
C20H22O10

>  <PUBCHEM_MOLECULAR_WEIGHT>
422.386

>  <PUBCHEM_OPENEYE_CAN_SMILES>
C1C(C(OC2=CC(=CC(=C21)O)OC3C(C(C(CO3)O)O)O)C4=CC(=C(C=C4)O)O)O

>  <PUBCHEM_OPENEYE_ISO_SMILES>
C1[C@@H]([C@H](OC2=CC(=CC(=C21)O)O[C@H]3[C@@H]([C@H]([C@@H](CO3)O)O)O)C4=CC(=C(C=C4)O)O)O

>  <PUBCHEM_CACTVS_TPSA>
169

>  <PUBCHEM_MONOISOTOPIC_WEIGHT>
422.121

>  <PUBCHEM_TOTAL_CHARGE>
0

>  <PUBCHEM_HEAVY_ATOM_COUNT>
30

>  <PUBCHEM_ATOM_DEF_STEREO_COUNT>
6

>  <PUBCHEM_ATOM_UDEF_STEREO_COUNT>
0

>  <PUBCHEM_BOND_DEF_STEREO_COUNT>
0

>  <PUBCHEM_BOND_UDEF_STEREO_COUNT>
0

>  <PUBCHEM_ISOTOPIC_ATOM_COUNT>
0

>  <PUBCHEM_COMPONENT_COUNT>
1

>  <PUBCHEM_CACTVS_TAUTO_COUNT>
13

>  <PUBCHEM_COORDINATE_TYPE>
1
5
255

>  <PUBCHEM_BONDANNOTATIONS>
16  21  5
19  20  8
19  24  8
20  23  8
21  26  8
21  27  8
22  23  8
22  25  8
24  25  8
26  28  8
27  29  8
28  30  8
29  30  8
13  3  5
11  4  6
12  5  5
14  6  6
15  7  6

$$$$
