73795908
 OpenBabel06101807152D

183192  0  0  1  0  0  0  0  0999 V2000
   14.3523    4.9330    0.0000 O   0  0  0  0  0  0  0  0  0  0  0  0
   15.6241   -0.6491    0.0000 O   0  0  0  0  0  0  0  0  0  0  0  0
   12.8233    6.1649    0.0000 O   0  0  0  0  0  0  0  0  0  0  0  0
   12.9292   -3.3111    0.0000 O   0  0  0  0  0  0  0  0  0  0  0  0
   11.1972   -3.3111    0.0000 O   0  0  0  0  0  0  0  0  0  0  0  0
   16.9869    8.0323    0.0000 O   0  0  0  0  0  0  0  0  0  0  0  0
   12.9292   -5.3111    0.0000 O   0  0  0  0  0  0  0  0  0  0  0  0
   11.1972   -6.3111    0.0000 O   0  0  0  0  0  0  0  0  0  0  0  0
    9.4651   -5.3111    0.0000 O   0  0  0  0  0  0  0  0  0  0  0  0
    9.4651   -2.3111    0.0000 O   0  0  0  0  0  0  0  0  0  0  0  0
   18.4894    7.1708    0.0000 O   0  0  0  0  0  0  0  0  0  0  0  0
    8.5991   -3.8111    0.0000 O   0  0  0  0  0  0  0  0  0  0  0  0
   17.9817    9.7673    0.0000 O   0  0  0  0  0  0  0  0  0  0  0  0
    7.7331   -6.3111    0.0000 O   0  0  0  0  0  0  0  0  0  0  0  0
   19.9817    9.7733    0.0000 O   0  0  0  0  0  0  0  0  0  0  0  0
   20.9868    8.0442    0.0000 O   0  0  0  0  0  0  0  0  0  0  0  0
    6.0010   -5.3111    0.0000 O   0  0  0  0  0  0  0  0  0  0  0  0
    6.0010   -3.3111    0.0000 O   0  0  0  0  0  0  0  0  0  0  0  0
   20.9920    6.3122    0.0000 O   0  0  0  0  0  0  0  0  0  0  0  0
    6.4062   -7.4244    0.0000 O   0  0  0  0  0  0  0  0  0  0  0  0
    6.8671   -1.8111    0.0000 O   0  0  0  0  0  0  0  0  0  0  0  0
    5.1350   -3.8111    0.0000 O   0  0  0  0  0  0  0  0  0  0  0  0
    9.0187   -7.8431    0.0000 O   0  0  0  0  0  0  0  0  0  0  0  0
    4.2690   -6.3111    0.0000 O   0  0  0  0  0  0  0  0  0  0  0  0
    8.3347   -9.7226    0.0000 O   0  0  0  0  0  0  0  0  0  0  0  0
    6.3650  -10.0699    0.0000 O   0  0  0  0  0  0  0  0  0  0  0  0
    2.5369   -5.3111    0.0000 O   0  0  0  0  0  0  0  0  0  0  0  0
    2.5369   -3.3111    0.0000 O   0  0  0  0  0  0  0  0  0  0  0  0
    4.7374   -9.4774    0.0000 O   0  0  0  0  0  0  0  0  0  0  0  0
    3.4030   -1.8111    0.0000 O   0  0  0  0  0  0  0  0  0  0  0  0
   12.9585    2.8858    0.0000 C   0  0  3  0  0  0  0  0  0  0  0  0
   13.8264    2.3891    0.0000 C   0  0  3  0  0  0  0  0  0  0  0  0
   13.8303    1.3891    0.0000 C   0  0  3  0  0  0  0  0  0  0  0  0
   13.1640    3.8584    0.0000 C   0  0  3  0  0  0  0  0  0  0  0  0
   12.9662    0.8858    0.0000 C   0  0  3  0  0  0  0  0  0  0  0  0
   12.9542   -0.1558    0.0000 C   0  0  3  0  0  0  0  0  0  0  0  0
   14.1523    3.9652    0.0000 C   0  0  3  0  0  0  0  0  0  0  0  0
   14.5609    3.0590    0.0000 C   0  0  0  0  0  0  0  0  0  0  0  0
   12.0944    2.3824    0.0000 C   0  0  0  0  0  0  0  0  0  0  0  0
   12.0983    1.3824    0.0000 C   0  0  0  0  0  0  0  0  0  0  0  0
   13.8542   -0.6801    0.0000 C   0  0  3  0  0  0  0  0  0  0  0  0
   12.7617    4.7610    0.0000 C   0  0  3  0  0  0  0  0  0  0  0  0
   14.7422    0.8858    0.0000 C   0  0  0  0  0  0  0  0  0  0  0  0
   14.7543   -0.1558    0.0000 C   0  0  3  0  0  0  0  0  0  0  0  0
   12.0906    3.3824    0.0000 C   0  0  0  0  0  0  0  0  0  0  0  0
   13.4946    5.4238    0.0000 C   0  0  3  0  0  0  0  0  0  0  0  0
   12.0043   -0.6801    0.0000 C   0  0  0  0  0  0  0  0  0  0  0  0
   13.8668   -1.7650    0.0000 C   0  0  0  0  0  0  0  0  0  0  0  0
   12.0901    0.3476    0.0000 C   0  0  0  0  0  0  0  0  0  0  0  0
   11.9917   -1.7650    0.0000 C   0  0  0  0  0  0  0  0  0  0  0  0
   12.9292   -2.3111    0.0000 C   0  0  3  0  0  0  0  0  0  0  0  0
   11.7833    4.9677    0.0000 C   0  0  0  0  0  0  0  0  0  0  0  0
   13.9920    6.2913    0.0000 C   0  0  0  0  0  0  0  0  0  0  0  0
   14.9920    6.2943    0.0000 C   0  0  0  0  0  0  0  0  0  0  0  0
   15.4894    7.1618    0.0000 C   0  0  3  0  0  0  0  0  0  0  0  0
   12.0632   -3.8111    0.0000 C   0  0  3  0  0  0  0  0  0  0  0  0
   12.0632   -4.8111    0.0000 C   0  0  3  0  0  0  0  0  0  0  0  0
   16.4894    7.1648    0.0000 C   0  0  0  0  0  0  0  0  0  0  0  0
   14.9869    8.0263    0.0000 C   0  0  0  0  0  0  0  0  0  0  0  0
   11.1972   -5.3111    0.0000 C   0  0  3  0  0  0  0  0  0  0  0  0
   10.3312   -3.8111    0.0000 C   0  0  3  0  0  0  0  0  0  0  0  0
   10.3312   -4.8111    0.0000 C   0  0  3  0  0  0  0  0  0  0  0  0
    9.4651   -3.3111    0.0000 C   0  0  0  0  0  0  0  0  0  0  0  0
   17.9868    8.0353    0.0000 C   0  0  3  0  0  0  0  0  0  0  0  0
   18.4843    8.9028    0.0000 C   0  0  3  0  0  0  0  0  0  0  0  0
    8.5991   -4.8111    0.0000 C   0  0  3  0  0  0  0  0  0  0  0  0
   19.4843    8.9058    0.0000 C   0  0  3  0  0  0  0  0  0  0  0  0
    7.7331   -5.3111    0.0000 C   0  0  3  0  0  0  0  0  0  0  0  0
   19.4894    7.1738    0.0000 C   0  0  3  0  0  0  0  0  0  0  0  0
   19.9868    8.0413    0.0000 C   0  0  3  0  0  0  0  0  0  0  0  0
    6.8671   -4.8111    0.0000 C   0  0  3  0  0  0  0  0  0  0  0  0
    7.7331   -3.3111    0.0000 C   0  0  3  0  0  0  0  0  0  0  0  0
    6.8671   -3.8111    0.0000 C   0  0  3  0  0  0  0  0  0  0  0  0
   19.9920    6.3092    0.0000 C   0  0  0  0  0  0  0  0  0  0  0  0
    7.7331   -2.3111    0.0000 C   0  0  0  0  0  0  0  0  0  0  0  0
    7.3910   -7.2508    0.0000 C   0  0  3  0  0  0  0  0  0  0  0  0
    5.1350   -4.8111    0.0000 C   0  0  3  0  0  0  0  0  0  0  0  0
    8.0339   -8.0168    0.0000 C   0  0  3  0  0  0  0  0  0  0  0  0
    4.2690   -5.3111    0.0000 C   0  0  3  0  0  0  0  0  0  0  0  0
    7.6918   -8.9565    0.0000 C   0  0  3  0  0  0  0  0  0  0  0  0
    6.0642   -8.3641    0.0000 C   0  0  3  0  0  0  0  0  0  0  0  0
    6.7070   -9.1302    0.0000 C   0  0  3  0  0  0  0  0  0  0  0  0
    3.4030   -4.8111    0.0000 C   0  0  3  0  0  0  0  0  0  0  0  0
    4.2690   -3.3111    0.0000 C   0  0  3  0  0  0  0  0  0  0  0  0
    3.4030   -3.8111    0.0000 C   0  0  3  0  0  0  0  0  0  0  0  0
    5.0794   -8.5377    0.0000 C   0  0  0  0  0  0  0  0  0  0  0  0
    4.2690   -2.3111    0.0000 C   0  0  0  0  0  0  0  0  0  0  0  0
   14.3941    2.1398    0.0000 H   0  0  0  0  0  0  0  0  0  0  0  0
   14.3636    1.7053    0.0000 H   0  0  0  0  0  0  0  0  0  0  0  0
   12.5474    3.7931    0.0000 H   0  0  0  0  0  0  0  0  0  0  0  0
   13.5019    0.5737    0.0000 H   0  0  0  0  0  0  0  0  0  0  0  0
   14.7685    4.0332    0.0000 H   0  0  0  0  0  0  0  0  0  0  0  0
   14.9283    2.5596    0.0000 H   0  0  0  0  0  0  0  0  0  0  0  0
   15.0962    3.3719    0.0000 H   0  0  0  0  0  0  0  0  0  0  0  0
   11.8801    2.9642    0.0000 H   0  0  0  0  0  0  0  0  0  0  0  0
   11.4842    2.2724    0.0000 H   0  0  0  0  0  0  0  0  0  0  0  0
   11.4873    1.4877    0.0000 H   0  0  0  0  0  0  0  0  0  0  0  0
   11.8885    0.7990    0.0000 H   0  0  0  0  0  0  0  0  0  0  0  0
   14.3935   -0.9859    0.0000 H   0  0  0  0  0  0  0  0  0  0  0  0
   12.3719    4.2788    0.0000 H   0  0  0  0  0  0  0  0  0  0  0  0
   15.3543    0.7868    0.0000 H   0  0  0  0  0  0  0  0  0  0  0  0
   14.9445    1.4719    0.0000 H   0  0  0  0  0  0  0  0  0  0  0  0
   15.2882    0.1594    0.0000 H   0  0  0  0  0  0  0  0  0  0  0  0
   12.3985    3.9206    0.0000 H   0  0  0  0  0  0  0  0  0  0  0  0
   11.5524    3.6904    0.0000 H   0  0  0  0  0  0  0  0  0  0  0  0
   11.7826    2.8443    0.0000 H   0  0  0  0  0  0  0  0  0  0  0  0
   11.8020   -0.0940    0.0000 H   0  0  0  0  0  0  0  0  0  0  0  0
   11.3922   -0.7791    0.0000 H   0  0  0  0  0  0  0  0  0  0  0  0
   14.0826   -2.3462    0.0000 H   0  0  0  0  0  0  0  0  0  0  0  0
   14.4764   -1.6518    0.0000 H   0  0  0  0  0  0  0  0  0  0  0  0
   12.4021    0.8833    0.0000 H   0  0  0  0  0  0  0  0  0  0  0  0
   11.5543    0.6596    0.0000 H   0  0  0  0  0  0  0  0  0  0  0  0
   11.7780   -0.1882    0.0000 H   0  0  0  0  0  0  0  0  0  0  0  0
   11.3821   -1.6518    0.0000 H   0  0  0  0  0  0  0  0  0  0  0  0
   11.7759   -2.3462    0.0000 H   0  0  0  0  0  0  0  0  0  0  0  0
   12.3917   -2.6201    0.0000 H   0  0  0  0  0  0  0  0  0  0  0  0
   11.9114    5.5743    0.0000 H   0  0  0  0  0  0  0  0  0  0  0  0
   11.1766    5.0958    0.0000 H   0  0  0  0  0  0  0  0  0  0  0  0
   11.6551    4.3610    0.0000 H   0  0  0  0  0  0  0  0  0  0  0  0
   14.0979    6.9022    0.0000 H   0  0  0  0  0  0  0  0  0  0  0  0
   13.4088    6.5016    0.0000 H   0  0  0  0  0  0  0  0  0  0  0  0
   16.1587   -0.3350    0.0000 H   0  0  0  0  0  0  0  0  0  0  0  0
   13.0131    6.7551    0.0000 H   0  0  0  0  0  0  0  0  0  0  0  0
   14.8862    5.6834    0.0000 H   0  0  0  0  0  0  0  0  0  0  0  0
   15.5753    6.0840    0.0000 H   0  0  0  0  0  0  0  0  0  0  0  0
   14.8694    7.1599    0.0000 H   0  0  0  0  0  0  0  0  0  0  0  0
   12.0632   -3.1911    0.0000 H   0  0  0  0  0  0  0  0  0  0  0  0
   12.0632   -5.4311    0.0000 H   0  0  0  0  0  0  0  0  0  0  0  0
   16.3836    6.5539    0.0000 H   0  0  0  0  0  0  0  0  0  0  0  0
   17.0727    6.9545    0.0000 H   0  0  0  0  0  0  0  0  0  0  0  0
   15.5229    8.3379    0.0000 H   0  0  0  0  0  0  0  0  0  0  0  0
   14.6753    8.5623    0.0000 H   0  0  0  0  0  0  0  0  0  0  0  0
   14.4509    7.7147    0.0000 H   0  0  0  0  0  0  0  0  0  0  0  0
   10.6603   -5.6211    0.0000 H   0  0  0  0  0  0  0  0  0  0  0  0
   10.3312   -3.1911    0.0000 H   0  0  0  0  0  0  0  0  0  0  0  0
    9.7942   -4.5011    0.0000 H   0  0  0  0  0  0  0  0  0  0  0  0
   13.4662   -5.0011    0.0000 H   0  0  0  0  0  0  0  0  0  0  0  0
    8.8546   -3.2034    0.0000 H   0  0  0  0  0  0  0  0  0  0  0  0
    9.2531   -3.8937    0.0000 H   0  0  0  0  0  0  0  0  0  0  0  0
   11.7341   -6.6211    0.0000 H   0  0  0  0  0  0  0  0  0  0  0  0
   17.6752    8.5713    0.0000 H   0  0  0  0  0  0  0  0  0  0  0  0
   18.7926    9.4407    0.0000 H   0  0  0  0  0  0  0  0  0  0  0  0
    8.5991   -5.4311    0.0000 H   0  0  0  0  0  0  0  0  0  0  0  0
    8.9282   -2.0011    0.0000 H   0  0  0  0  0  0  0  0  0  0  0  0
   20.1042    8.9076    0.0000 H   0  0  0  0  0  0  0  0  0  0  0  0
    7.1962   -5.6211    0.0000 H   0  0  0  0  0  0  0  0  0  0  0  0
   19.1810    6.6359    0.0000 H   0  0  0  0  0  0  0  0  0  0  0  0
   20.2984    7.5053    0.0000 H   0  0  0  0  0  0  0  0  0  0  0  0
    6.3301   -4.5011    0.0000 H   0  0  0  0  0  0  0  0  0  0  0  0
   18.2901   10.3052    0.0000 H   0  0  0  0  0  0  0  0  0  0  0  0
    8.2700   -3.0011    0.0000 H   0  0  0  0  0  0  0  0  0  0  0  0
    6.8671   -3.1911    0.0000 H   0  0  0  0  0  0  0  0  0  0  0  0
   19.4100    6.0954    0.0000 H   0  0  0  0  0  0  0  0  0  0  0  0
   20.1015    5.6990    0.0000 H   0  0  0  0  0  0  0  0  0  0  0  0
   20.6017    9.7752    0.0000 H   0  0  0  0  0  0  0  0  0  0  0  0
   21.2952    8.5821    0.0000 H   0  0  0  0  0  0  0  0  0  0  0  0
    8.3437   -2.4188    0.0000 H   0  0  0  0  0  0  0  0  0  0  0  0
    7.9451   -1.7285    0.0000 H   0  0  0  0  0  0  0  0  0  0  0  0
    6.9925   -6.7758    0.0000 H   0  0  0  0  0  0  0  0  0  0  0  0
    6.0010   -2.6911    0.0000 H   0  0  0  0  0  0  0  0  0  0  0  0
   21.3036    5.7762    0.0000 H   0  0  0  0  0  0  0  0  0  0  0  0
    5.1350   -5.4311    0.0000 H   0  0  0  0  0  0  0  0  0  0  0  0
    8.4324   -8.4918    0.0000 H   0  0  0  0  0  0  0  0  0  0  0  0
    6.8671   -1.1911    0.0000 H   0  0  0  0  0  0  0  0  0  0  0  0
    3.7320   -5.6211    0.0000 H   0  0  0  0  0  0  0  0  0  0  0  0
    7.4798   -9.5392    0.0000 H   0  0  0  0  0  0  0  0  0  0  0  0
    5.6656   -7.8891    0.0000 H   0  0  0  0  0  0  0  0  0  0  0  0
    6.0964   -9.2378    0.0000 H   0  0  0  0  0  0  0  0  0  0  0  0
    2.8660   -4.5011    0.0000 H   0  0  0  0  0  0  0  0  0  0  0  0
    4.8059   -3.0011    0.0000 H   0  0  0  0  0  0  0  0  0  0  0  0
    3.4030   -3.1911    0.0000 H   0  0  0  0  0  0  0  0  0  0  0  0
    9.2307   -7.2606    0.0000 H   0  0  0  0  0  0  0  0  0  0  0  0
    5.0794   -7.9177    0.0000 H   0  0  0  0  0  0  0  0  0  0  0  0
    4.4688   -8.4300    0.0000 H   0  0  0  0  0  0  0  0  0  0  0  0
    3.7320   -6.6211    0.0000 H   0  0  0  0  0  0  0  0  0  0  0  0
    8.1226  -10.3052    0.0000 H   0  0  0  0  0  0  0  0  0  0  0  0
    4.8796   -2.4188    0.0000 H   0  0  0  0  0  0  0  0  0  0  0  0
    4.4810   -1.7285    0.0000 H   0  0  0  0  0  0  0  0  0  0  0  0
    5.7544  -10.1775    0.0000 H   0  0  0  0  0  0  0  0  0  0  0  0
    2.0000   -5.0011    0.0000 H   0  0  0  0  0  0  0  0  0  0  0  0
    2.0000   -3.6211    0.0000 H   0  0  0  0  0  0  0  0  0  0  0  0
    4.1268   -9.5851    0.0000 H   0  0  0  0  0  0  0  0  0  0  0  0
    3.4030   -1.1911    0.0000 H   0  0  0  0  0  0  0  0  0  0  0  0
  1 37  1  0  0  0  0
  1 46  1  0  0  0  0
  2 44  1  0  0  0  0
  2122  1  0  0  0  0
  3 46  1  0  0  0  0
  3123  1  0  0  0  0
  4 51  1  0  0  0  0
  4 56  1  0  0  0  0
  5 56  1  0  0  0  0
  5 61  1  0  0  0  0
  6 58  1  0  0  0  0
  6 64  1  0  0  0  0
  7 57  1  0  0  0  0
  7137  1  0  0  0  0
  8 60  1  0  0  0  0
  8140  1  0  0  0  0
  9 62  1  0  0  0  0
  9 66  1  0  0  0  0
 10 63  1  0  0  0  0
 10144  1  0  0  0  0
 11 64  1  0  0  0  0
 11 69  1  0  0  0  0
 12 66  1  0  0  0  0
 12 72  1  0  0  0  0
 13 65  1  0  0  0  0
 13150  1  0  0  0  0
 14 68  1  0  0  0  0
 14 76  1  0  0  0  0
 15 67  1  0  0  0  0
 15155  1  0  0  0  0
 16 70  1  0  0  0  0
 16156  1  0  0  0  0
 17 71  1  0  0  0  0
 17 77  1  0  0  0  0
 18 73  1  0  0  0  0
 18160  1  0  0  0  0
 19 74  1  0  0  0  0
 19161  1  0  0  0  0
 20 76  1  0  0  0  0
 20 81  1  0  0  0  0
 21 75  1  0  0  0  0
 21164  1  0  0  0  0
 22 77  1  0  0  0  0
 22 84  1  0  0  0  0
 23 78  1  0  0  0  0
 23172  1  0  0  0  0
 24 79  1  0  0  0  0
 24175  1  0  0  0  0
 25 80  1  0  0  0  0
 25176  1  0  0  0  0
 26 82  1  0  0  0  0
 26179  1  0  0  0  0
 27 83  1  0  0  0  0
 27180  1  0  0  0  0
 28 85  1  0  0  0  0
 28181  1  0  0  0  0
 29 86  1  0  0  0  0
 29182  1  0  0  0  0
 30 87  1  0  0  0  0
 30183  1  0  0  0  0
 31 32  1  0  0  0  0
 31 34  1  0  0  0  0
 31 39  1  0  0  0  0
 31 45  1  0  0  0  0
 32 33  1  0  0  0  0
 32 38  1  0  0  0  0
 32 88  1  0  0  0  0
 33 35  1  0  0  0  0
 33 43  1  0  0  0  0
 33 89  1  0  0  0  0
 34 37  1  0  0  0  0
 34 42  1  0  0  0  0
 34 90  1  0  0  0  0
 35 36  1  0  0  0  0
 35 40  1  0  0  0  0
 35 91  1  0  0  0  0
 36 41  1  0  0  0  0
 36 47  1  0  0  0  0
 36 49  1  0  0  0  0
 37 38  1  0  0  0  0
 37 92  1  0  0  0  0
 38 93  1  0  0  0  0
 38 94  1  0  0  0  0
 39 40  1  0  0  0  0
 39 95  1  0  0  0  0
 39 96  1  0  0  0  0
 40 97  1  0  0  0  0
 40 98  1  0  0  0  0
 41 44  1  0  0  0  0
 41 48  1  0  0  0  0
 41 99  1  0  0  0  0
 42 46  1  0  0  0  0
 42 52  1  0  0  0  0
 42100  1  0  0  0  0
 43 44  1  0  0  0  0
 43101  1  0  0  0  0
 43102  1  0  0  0  0
 44103  1  0  0  0  0
 45104  1  0  0  0  0
 45105  1  0  0  0  0
 45106  1  0  0  0  0
 46 53  1  0  0  0  0
 47 50  1  0  0  0  0
 47107  1  0  0  0  0
 47108  1  0  0  0  0
 48 51  1  0  0  0  0
 48109  1  0  0  0  0
 48110  1  0  0  0  0
 49111  1  0  0  0  0
 49112  1  0  0  0  0
 49113  1  0  0  0  0
 50 51  1  0  0  0  0
 50114  1  0  0  0  0
 50115  1  0  0  0  0
 51116  1  0  0  0  0
 52117  1  0  0  0  0
 52118  1  0  0  0  0
 52119  1  0  0  0  0
 53 54  1  0  0  0  0
 53120  1  0  0  0  0
 53121  1  0  0  0  0
 54 55  1  0  0  0  0
 54124  1  0  0  0  0
 54125  1  0  0  0  0
 55 58  1  0  0  0  0
 55 59  1  0  0  0  0
 55126  1  0  0  0  0
 56 57  1  0  0  0  0
 56127  1  0  0  0  0
 57 60  1  0  0  0  0
 57128  1  0  0  0  0
 58129  1  0  0  0  0
 58130  1  0  0  0  0
 59131  1  0  0  0  0
 59132  1  0  0  0  0
 59133  1  0  0  0  0
 60 62  1  0  0  0  0
 60134  1  0  0  0  0
 61 62  1  0  0  0  0
 61 63  1  0  0  0  0
 61135  1  0  0  0  0
 62136  1  0  0  0  0
 63138  1  0  0  0  0
 63139  1  0  0  0  0
 64 65  1  0  0  0  0
 64141  1  0  0  0  0
 65 67  1  0  0  0  0
 65142  1  0  0  0  0
 66 68  1  0  0  0  0
 66143  1  0  0  0  0
 67 70  1  0  0  0  0
 67145  1  0  0  0  0
 68 71  1  0  0  0  0
 68146  1  0  0  0  0
 69 70  1  0  0  0  0
 69 74  1  0  0  0  0
 69147  1  0  0  0  0
 70148  1  0  0  0  0
 71 73  1  0  0  0  0
 71149  1  0  0  0  0
 72 73  1  0  0  0  0
 72 75  1  0  0  0  0
 72151  1  0  0  0  0
 73152  1  0  0  0  0
 74153  1  0  0  0  0
 74154  1  0  0  0  0
 75157  1  0  0  0  0
 75158  1  0  0  0  0
 76 78  1  0  0  0  0
 76159  1  0  0  0  0
 77 79  1  0  0  0  0
 77162  1  0  0  0  0
 78 80  1  0  0  0  0
 78163  1  0  0  0  0
 79 83  1  0  0  0  0
 79165  1  0  0  0  0
 80 82  1  0  0  0  0
 80166  1  0  0  0  0
 81 82  1  0  0  0  0
 81 86  1  0  0  0  0
 81167  1  0  0  0  0
 82168  1  0  0  0  0
 83 85  1  0  0  0  0
 83169  1  0  0  0  0
 84 85  1  0  0  0  0
 84 87  1  0  0  0  0
 84170  1  0  0  0  0
 85171  1  0  0  0  0
 86173  1  0  0  0  0
 86174  1  0  0  0  0
 87177  1  0  0  0  0
 87178  1  0  0  0  0
M  END
>  <PUBCHEM_COMPOUND_CID>
73795908

>  <PUBCHEM_COMPOUND_CANONICALIZED>
1

>  <PUBCHEM_CACTVS_COMPLEXITY>
2230

>  <PUBCHEM_CACTVS_HBOND_ACCEPTOR>
30

>  <PUBCHEM_CACTVS_HBOND_DONOR>
19

>  <PUBCHEM_CACTVS_ROTATABLE_BOND>
19

>  <PUBCHEM_CACTVS_SUBSKEYS>
AAADcfB8PgAAAAAAAAAAAAAAAAAAAaIAAAA0aNEiQAASAGDAAAAAGgAACAAADxSwgAMCCAAABgAAAAAAAAAAAAAAAAAAAAAAAAAREAIAAAAiQAAFAAAHAAHA4PwPgAAAAAAAAADAAAYAADAAAYAADAAAAA==

>  <PUBCHEM_IUPAC_INCHI>
InChI=1S/C57H96O30/c1-20(19-77-50-43(72)39(68)35(64)29(14-58)79-50)5-10-57(76)21(2)34-28(87-57)13-25-23-12-27(63)26-11-22(6-8-55(26,3)24(23)7-9-56(25,34)4)78-51-46(75)42(71)47(33(18-62)83-51)84-54-49(86-53-45(74)41(70)37(66)31(16-60)81-53)48(38(67)32(17-61)82-54)85-52-44(73)40(69)36(65)30(15-59)80-52/h20-54,58-76H,5-19H2,1-4H3

>  <PUBCHEM_IUPAC_INCHIKEY>
WYWLHHWQKOHXHW-UHFFFAOYSA-N

>  <PUBCHEM_XLOGP3_AA>
-4.4

>  <PUBCHEM_EXACT_MASS>
1260.599

>  <PUBCHEM_MOLECULAR_FORMULA>
C57H96O30

>  <PUBCHEM_MOLECULAR_WEIGHT>
1261.365

>  <PUBCHEM_OPENEYE_CAN_SMILES>
CC1C2C(CC3C2(CCC4C3CC(C5C4(CCC(C5)OC6C(C(C(C(O6)CO)OC7C(C(C(C(O7)CO)O)OC8C(C(C(C(O8)CO)O)O)O)OC9C(C(C(C(O9)CO)O)O)O)O)O)C)O)C)OC1(CCC(C)COC1C(C(C(C(O1)CO)O)O)O)O

>  <PUBCHEM_OPENEYE_ISO_SMILES>
CC1C2C(CC3C2(CCC4C3CC(C5C4(CCC(C5)OC6C(C(C(C(O6)CO)OC7C(C(C(C(O7)CO)O)OC8C(C(C(C(O8)CO)O)O)O)OC9C(C(C(C(O9)CO)O)O)O)O)O)C)O)C)OC1(CCC(C)COC1C(C(C(C(O1)CO)O)O)O)O

>  <PUBCHEM_CACTVS_TPSA>
486

>  <PUBCHEM_MONOISOTOPIC_WEIGHT>
1260.599

>  <PUBCHEM_TOTAL_CHARGE>
0

>  <PUBCHEM_HEAVY_ATOM_COUNT>
87

>  <PUBCHEM_ATOM_DEF_STEREO_COUNT>
0

>  <PUBCHEM_ATOM_UDEF_STEREO_COUNT>
38

>  <PUBCHEM_BOND_DEF_STEREO_COUNT>
0

>  <PUBCHEM_BOND_UDEF_STEREO_COUNT>
0

>  <PUBCHEM_ISOTOPIC_ATOM_COUNT>
0

>  <PUBCHEM_COMPONENT_COUNT>
1

>  <PUBCHEM_CACTVS_TAUTO_COUNT>
1

>  <PUBCHEM_COORDINATE_TYPE>
1
5
255

>  <PUBCHEM_BONDANNOTATIONS>
65  13  3
68  14  3
76  14  3
67  15  3
70  16  3
71  17  3
77  17  3
73  18  3
44  2  3
78  23  3
79  24  3
80  25  3
82  26  3
83  27  3
85  28  3
46  3  3
31  45  3
32  38  3
33  43  3
34  42  3
35  40  3
36  49  3
37  38  3
51  4  3
56  4  3
41  48  3
42  52  3
55  59  3
64  6  3
61  63  3
69  74  3
57  7  3
72  75  3
60  8  3
81  86  3
84  87  3
62  9  3
66  9  3

$$$$
