73803060
 OpenBabel06101807152D

 57 59  0  0  1  0  0  0  0  0999 V2000
    6.8671   -0.5950    0.0000 O   0  0  0  0  0  0  0  0  0  0  0  0
    9.4651    0.9050    0.0000 O   0  0  0  0  0  0  0  0  0  0  0  0
    9.4651   -4.0950    0.0000 O   0  0  0  0  0  0  0  0  0  0  0  0
    6.0010   -4.0950    0.0000 O   0  0  0  0  0  0  0  0  0  0  0  0
    7.7331   -5.0950    0.0000 O   0  0  0  0  0  0  0  0  0  0  0  0
    4.2690    4.9050    0.0000 O   0  0  0  0  0  0  0  0  0  0  0  0
    2.5369    3.9050    0.0000 O   0  0  0  0  0  0  0  0  0  0  0  0
    6.8671    0.4050    0.0000 C   0  0  3  0  0  0  0  0  0  0  0  0
    7.7331    0.9050    0.0000 C   0  0  0  0  0  0  0  0  0  0  0  0
    8.5991    0.4050    0.0000 C   0  0  3  0  0  0  0  0  0  0  0  0
    8.5991   -0.5950    0.0000 C   0  0  0  0  0  0  0  0  0  0  0  0
    7.7331   -1.0950    0.0000 C   0  0  3  0  0  0  0  0  0  0  0  0
    6.0010    0.9050    0.0000 C   0  0  0  0  0  0  0  0  0  0  0  0
    7.7331   -2.0950    0.0000 C   0  0  0  0  0  0  0  0  0  0  0  0
    6.0010    1.9050    0.0000 C   0  0  0  0  0  0  0  0  0  0  0  0
    5.1350    2.4050    0.0000 C   0  0  0  0  0  0  0  0  0  0  0  0
    6.8671   -2.5950    0.0000 C   0  0  0  0  0  0  0  0  0  0  0  0
    8.5991   -2.5950    0.0000 C   0  0  0  0  0  0  0  0  0  0  0  0
    8.5991   -3.5950    0.0000 C   0  0  0  0  0  0  0  0  0  0  0  0
    6.8671   -3.5950    0.0000 C   0  0  0  0  0  0  0  0  0  0  0  0
    5.1350    3.4050    0.0000 C   0  0  0  0  0  0  0  0  0  0  0  0
    7.7331   -4.0950    0.0000 C   0  0  0  0  0  0  0  0  0  0  0  0
    4.2690    1.9050    0.0000 C   0  0  0  0  0  0  0  0  0  0  0  0
    4.2690    3.9050    0.0000 C   0  0  0  0  0  0  0  0  0  0  0  0
    3.4030    2.4050    0.0000 C   0  0  0  0  0  0  0  0  0  0  0  0
    3.4030    3.4050    0.0000 C   0  0  0  0  0  0  0  0  0  0  0  0
   10.3312   -3.5950    0.0000 C   0  0  0  0  0  0  0  0  0  0  0  0
    5.1350   -3.5950    0.0000 C   0  0  0  0  0  0  0  0  0  0  0  0
    5.1350    5.4050    0.0000 C   0  0  0  0  0  0  0  0  0  0  0  0
    6.3301    0.0950    0.0000 H   0  0  0  0  0  0  0  0  0  0  0  0
    8.1316    1.3800    0.0000 H   0  0  0  0  0  0  0  0  0  0  0  0
    7.3346    1.3800    0.0000 H   0  0  0  0  0  0  0  0  0  0  0  0
    8.5991    1.0250    0.0000 H   0  0  0  0  0  0  0  0  0  0  0  0
    8.8112   -1.1776    0.0000 H   0  0  0  0  0  0  0  0  0  0  0  0
    9.2097   -0.4873    0.0000 H   0  0  0  0  0  0  0  0  0  0  0  0
    8.2700   -1.4050    0.0000 H   0  0  0  0  0  0  0  0  0  0  0  0
    5.3905    1.0127    0.0000 H   0  0  0  0  0  0  0  0  0  0  0  0
    5.7890    0.3224    0.0000 H   0  0  0  0  0  0  0  0  0  0  0  0
    6.6116    1.7973    0.0000 H   0  0  0  0  0  0  0  0  0  0  0  0
    6.2131    2.4876    0.0000 H   0  0  0  0  0  0  0  0  0  0  0  0
    9.4651    1.5250    0.0000 H   0  0  0  0  0  0  0  0  0  0  0  0
    6.3301   -2.2850    0.0000 H   0  0  0  0  0  0  0  0  0  0  0  0
    9.1360   -2.2850    0.0000 H   0  0  0  0  0  0  0  0  0  0  0  0
    5.6720    3.7150    0.0000 H   0  0  0  0  0  0  0  0  0  0  0  0
    4.2690    1.2850    0.0000 H   0  0  0  0  0  0  0  0  0  0  0  0
    2.8660    2.0950    0.0000 H   0  0  0  0  0  0  0  0  0  0  0  0
    7.1962   -5.4050    0.0000 H   0  0  0  0  0  0  0  0  0  0  0  0
   10.6412   -4.1319    0.0000 H   0  0  0  0  0  0  0  0  0  0  0  0
   10.8681   -3.2850    0.0000 H   0  0  0  0  0  0  0  0  0  0  0  0
   10.0212   -3.0581    0.0000 H   0  0  0  0  0  0  0  0  0  0  0  0
    5.4450   -3.0581    0.0000 H   0  0  0  0  0  0  0  0  0  0  0  0
    4.5981   -3.2850    0.0000 H   0  0  0  0  0  0  0  0  0  0  0  0
    4.8250   -4.1319    0.0000 H   0  0  0  0  0  0  0  0  0  0  0  0
    2.0000    3.5950    0.0000 H   0  0  0  0  0  0  0  0  0  0  0  0
    5.4450    4.8681    0.0000 H   0  0  0  0  0  0  0  0  0  0  0  0
    5.6720    5.7150    0.0000 H   0  0  0  0  0  0  0  0  0  0  0  0
    4.8250    5.9419    0.0000 H   0  0  0  0  0  0  0  0  0  0  0  0
  1  8  1  0  0  0  0
  1 12  1  0  0  0  0
  2 10  1  0  0  0  0
  2 41  1  0  0  0  0
  3 19  1  0  0  0  0
  3 27  1  0  0  0  0
  4 20  1  0  0  0  0
  4 28  1  0  0  0  0
  5 22  1  0  0  0  0
  5 47  1  0  0  0  0
  6 24  1  0  0  0  0
  6 29  1  0  0  0  0
  7 26  1  0  0  0  0
  7 54  1  0  0  0  0
  8  9  1  0  0  0  0
  8 13  1  0  0  0  0
  8 30  1  0  0  0  0
  9 10  1  0  0  0  0
  9 31  1  0  0  0  0
  9 32  1  0  0  0  0
 10 11  1  0  0  0  0
 10 33  1  0  0  0  0
 11 12  1  0  0  0  0
 11 34  1  0  0  0  0
 11 35  1  0  0  0  0
 12 14  1  0  0  0  0
 12 36  1  0  0  0  0
 13 15  1  0  0  0  0
 13 37  1  0  0  0  0
 13 38  1  0  0  0  0
 14 17  2  0  0  0  0
 14 18  1  0  0  0  0
 15 16  1  0  0  0  0
 15 39  1  0  0  0  0
 15 40  1  0  0  0  0
 16 21  2  0  0  0  0
 16 23  1  0  0  0  0
 17 20  1  0  0  0  0
 17 42  1  0  0  0  0
 18 19  2  0  0  0  0
 18 43  1  0  0  0  0
 19 22  1  0  0  0  0
 20 22  2  0  0  0  0
 21 24  1  0  0  0  0
 21 44  1  0  0  0  0
 23 25  2  0  0  0  0
 23 45  1  0  0  0  0
 24 26  2  0  0  0  0
 25 26  1  0  0  0  0
 25 46  1  0  0  0  0
 27 48  1  0  0  0  0
 27 49  1  0  0  0  0
 27 50  1  0  0  0  0
 28 51  1  0  0  0  0
 28 52  1  0  0  0  0
 28 53  1  0  0  0  0
 29 55  1  0  0  0  0
 29 56  1  0  0  0  0
 29 57  1  0  0  0  0
M  END
>  <PUBCHEM_COMPOUND_CID>
73803060

>  <PUBCHEM_COMPOUND_CANONICALIZED>
1

>  <PUBCHEM_CACTVS_COMPLEXITY>
476

>  <PUBCHEM_CACTVS_HBOND_ACCEPTOR>
7

>  <PUBCHEM_CACTVS_HBOND_DONOR>
3

>  <PUBCHEM_CACTVS_ROTATABLE_BOND>
7

>  <PUBCHEM_CACTVS_SUBSKEYS>
AAADceB4OAAAAAAAAAAAAAAAAAAAAAAAAAA0YIAAAAAAAAABQAAAGgAACAAADBSgmAIyBoAABgCAAiBCAAACCAAgIAAIiAAGiIgNNyKGMRqCcCMlwBULuAfA4PwOIAABCAAAQABAAAIQAACAAAAAAAAAAA==

>  <PUBCHEM_IUPAC_OPENEYE_NAME>
2-(4-hydroxy-3,5-dimethoxy-phenyl)-6-[2-(4-hydroxy-3-methoxy-phenyl)ethyl]tetrahydropyran-4-ol

>  <PUBCHEM_IUPAC_CAS_NAME>
2-(4-hydroxy-3,5-dimethoxyphenyl)-6-[2-(4-hydroxy-3-methoxyphenyl)ethyl]-4-oxanol

>  <PUBCHEM_IUPAC_NAME>
2-(4-hydroxy-3,5-dimethoxyphenyl)-6-[2-(4-hydroxy-3-methoxyphenyl)ethyl]oxan-4-ol

>  <PUBCHEM_IUPAC_SYSTEMATIC_NAME>
2-(3,5-dimethoxy-4-oxidanyl-phenyl)-6-[2-(3-methoxy-4-oxidanyl-phenyl)ethyl]oxan-4-ol

>  <PUBCHEM_IUPAC_TRADITIONAL_NAME>
2-homovanillyl-6-(4-hydroxy-3,5-dimethoxy-phenyl)tetrahydropyran-4-ol

>  <PUBCHEM_IUPAC_INCHI>
InChI=1S/C22H28O7/c1-26-19-8-13(5-7-17(19)24)4-6-16-11-15(23)12-18(29-16)14-9-20(27-2)22(25)21(10-14)28-3/h5,7-10,15-16,18,23-25H,4,6,11-12H2,1-3H3

>  <PUBCHEM_IUPAC_INCHIKEY>
FSJJNEYYEKNFEZ-UHFFFAOYSA-N

>  <PUBCHEM_XLOGP3_AA>
3.1

>  <PUBCHEM_EXACT_MASS>
404.184

>  <PUBCHEM_MOLECULAR_FORMULA>
C22H28O7

>  <PUBCHEM_MOLECULAR_WEIGHT>
404.459

>  <PUBCHEM_OPENEYE_CAN_SMILES>
COC1=CC(=CC(=C1O)OC)C2CC(CC(O2)CCC3=CC(=C(C=C3)O)OC)O

>  <PUBCHEM_OPENEYE_ISO_SMILES>
COC1=CC(=CC(=C1O)OC)C2CC(CC(O2)CCC3=CC(=C(C=C3)O)OC)O

>  <PUBCHEM_CACTVS_TPSA>
97.6

>  <PUBCHEM_MONOISOTOPIC_WEIGHT>
404.184

>  <PUBCHEM_TOTAL_CHARGE>
0

>  <PUBCHEM_HEAVY_ATOM_COUNT>
29

>  <PUBCHEM_ATOM_DEF_STEREO_COUNT>
0

>  <PUBCHEM_ATOM_UDEF_STEREO_COUNT>
3

>  <PUBCHEM_BOND_DEF_STEREO_COUNT>
0

>  <PUBCHEM_BOND_UDEF_STEREO_COUNT>
0

>  <PUBCHEM_ISOTOPIC_ATOM_COUNT>
0

>  <PUBCHEM_COMPONENT_COUNT>
1

>  <PUBCHEM_CACTVS_TAUTO_COUNT>
6

>  <PUBCHEM_COORDINATE_TYPE>
1
5
255

>  <PUBCHEM_BONDANNOTATIONS>
12  14  3
14  17  8
14  18  8
16  21  8
16  23  8
17  20  8
18  19  8
19  22  8
10  2  3
20  22  8
21  24  8
23  25  8
24  26  8
25  26  8
8  13  3

$$$$
