73815131
 OpenBabel06101807152D

 30 31  0  0  1  0  0  0  0  0999 V2000
    3.7690    1.4330    0.0000 O   0  0  0  0  0  0  0  0  0  0  0  0
    2.5369   -1.4330    0.0000 O   0  0  0  0  0  0  0  0  0  0  0  0
    4.7690    1.4330    0.0000 C   0  0  0  0  0  0  0  0  0  0  0  0
    4.2690    0.5670    0.0000 C   0  0  3  0  0  0  0  0  0  0  0  0
    5.6350    1.9330    0.0000 C   0  0  0  0  0  0  0  0  0  0  0  0
    4.7690    2.4330    0.0000 C   0  0  0  0  0  0  0  0  0  0  0  0
    3.4030    0.0670    0.0000 C   0  0  0  0  0  0  0  0  0  0  0  0
    5.1350    0.0670    0.0000 C   0  0  0  0  0  0  0  0  0  0  0  0
    3.4030   -0.9330    0.0000 C   0  0  3  0  0  0  0  0  0  0  0  0
    4.2690   -1.4330    0.0000 C   0  0  3  0  0  0  0  0  0  0  0  0
    5.1350   -0.9330    0.0000 C   0  0  0  0  0  0  0  0  0  0  0  0
    4.2690   -2.4330    0.0000 C   0  0  0  0  0  0  0  0  0  0  0  0
    4.1701    1.5935    0.0000 H   0  0  0  0  0  0  0  0  0  0  0  0
    6.0335    1.4581    0.0000 H   0  0  0  0  0  0  0  0  0  0  0  0
    6.0335    2.4080    0.0000 H   0  0  0  0  0  0  0  0  0  0  0  0
    4.9810    3.0156    0.0000 H   0  0  0  0  0  0  0  0  0  0  0  0
    4.1584    2.5407    0.0000 H   0  0  0  0  0  0  0  0  0  0  0  0
    3.1909    0.6496    0.0000 H   0  0  0  0  0  0  0  0  0  0  0  0
    2.7924   -0.0407    0.0000 H   0  0  0  0  0  0  0  0  0  0  0  0
    5.7456   -0.0407    0.0000 H   0  0  0  0  0  0  0  0  0  0  0  0
    5.3471    0.6496    0.0000 H   0  0  0  0  0  0  0  0  0  0  0  0
    3.4030   -1.5530    0.0000 H   0  0  0  0  0  0  0  0  0  0  0  0
    4.8059   -1.7430    0.0000 H   0  0  0  0  0  0  0  0  0  0  0  0
    5.3471   -1.5156    0.0000 H   0  0  0  0  0  0  0  0  0  0  0  0
    5.7456   -0.8254    0.0000 H   0  0  0  0  0  0  0  0  0  0  0  0
    3.1490    1.4330    0.0000 H   0  0  0  0  0  0  0  0  0  0  0  0
    3.6490   -2.4330    0.0000 H   0  0  0  0  0  0  0  0  0  0  0  0
    4.2690   -3.0530    0.0000 H   0  0  0  0  0  0  0  0  0  0  0  0
    4.8890   -2.4330    0.0000 H   0  0  0  0  0  0  0  0  0  0  0  0
    2.0000   -1.1230    0.0000 H   0  0  0  0  0  0  0  0  0  0  0  0
  1  4  1  0  0  0  0
  1 26  1  0  0  0  0
  2  9  1  0  0  0  0
  2 30  1  0  0  0  0
  3  4  1  0  0  0  0
  3  5  1  0  0  0  0
  3  6  1  0  0  0  0
  3 13  1  0  0  0  0
  4  7  1  0  0  0  0
  4  8  1  0  0  0  0
  5  6  1  0  0  0  0
  5 14  1  0  0  0  0
  5 15  1  0  0  0  0
  6 16  1  0  0  0  0
  6 17  1  0  0  0  0
  7  9  1  0  0  0  0
  7 18  1  0  0  0  0
  7 19  1  0  0  0  0
  8 11  1  0  0  0  0
  8 20  1  0  0  0  0
  8 21  1  0  0  0  0
  9 10  1  0  0  0  0
  9 22  1  0  0  0  0
 10 11  1  0  0  0  0
 10 12  1  0  0  0  0
 10 23  1  0  0  0  0
 11 24  1  0  0  0  0
 11 25  1  0  0  0  0
 12 27  1  0  0  0  0
 12 28  1  0  0  0  0
 12 29  1  0  0  0  0
M  END
>  <PUBCHEM_COMPOUND_CID>
73815131

>  <PUBCHEM_COMPOUND_CANONICALIZED>
1

>  <PUBCHEM_CACTVS_COMPLEXITY>
177

>  <PUBCHEM_CACTVS_HBOND_ACCEPTOR>
2

>  <PUBCHEM_CACTVS_HBOND_DONOR>
2

>  <PUBCHEM_CACTVS_ROTATABLE_BOND>
1

>  <PUBCHEM_CACTVS_SUBSKEYS>
AAADceBwMAAAAAAAAAAAAAAAGAAAAAAAAAAwAAAAAAAAAAAAAAAAGgAACAAADVSggAICAAAAAgAAAAAAAAAAAAAAAAAAAAAAAAAAEAIAAAAAQAAFAAAAAAGA4PQOgAAAAAAAAADAAAIQABAAAAAAAAAAAA==

>  <PUBCHEM_IUPAC_OPENEYE_NAME>
1-cyclopropyl-4-methyl-cyclohexane-1,3-diol

>  <PUBCHEM_IUPAC_CAS_NAME>
1-cyclopropyl-4-methylcyclohexane-1,3-diol

>  <PUBCHEM_IUPAC_NAME>
1-cyclopropyl-4-methylcyclohexane-1,3-diol

>  <PUBCHEM_IUPAC_SYSTEMATIC_NAME>
1-cyclopropyl-4-methyl-cyclohexane-1,3-diol

>  <PUBCHEM_IUPAC_TRADITIONAL_NAME>
1-cyclopropyl-4-methyl-cyclohexane-1,3-diol

>  <PUBCHEM_IUPAC_INCHI>
InChI=1S/C10H18O2/c1-7-4-5-10(12,6-9(7)11)8-2-3-8/h7-9,11-12H,2-6H2,1H3

>  <PUBCHEM_IUPAC_INCHIKEY>
NTSNDVXMQVLQPO-UHFFFAOYSA-N

>  <PUBCHEM_XLOGP3_AA>
1.2

>  <PUBCHEM_EXACT_MASS>
170.131

>  <PUBCHEM_MOLECULAR_FORMULA>
C10H18O2

>  <PUBCHEM_MOLECULAR_WEIGHT>
170.252

>  <PUBCHEM_OPENEYE_CAN_SMILES>
CC1CCC(CC1O)(C2CC2)O

>  <PUBCHEM_OPENEYE_ISO_SMILES>
CC1CCC(CC1O)(C2CC2)O

>  <PUBCHEM_CACTVS_TPSA>
40.5

>  <PUBCHEM_MONOISOTOPIC_WEIGHT>
170.131

>  <PUBCHEM_TOTAL_CHARGE>
0

>  <PUBCHEM_HEAVY_ATOM_COUNT>
12

>  <PUBCHEM_ATOM_DEF_STEREO_COUNT>
0

>  <PUBCHEM_ATOM_UDEF_STEREO_COUNT>
3

>  <PUBCHEM_BOND_DEF_STEREO_COUNT>
0

>  <PUBCHEM_BOND_UDEF_STEREO_COUNT>
0

>  <PUBCHEM_ISOTOPIC_ATOM_COUNT>
0

>  <PUBCHEM_COMPONENT_COUNT>
1

>  <PUBCHEM_CACTVS_TAUTO_COUNT>
1

>  <PUBCHEM_COORDINATE_TYPE>
1
5
255

>  <PUBCHEM_BONDANNOTATIONS>
4  1  3
10  12  3
9  2  3

$$$$
