73822534
 OpenBabel06101807152D

 81 85  0  0  1  0  0  0  0  0999 V2000
    7.2641   -0.3450    0.0000 O   0  0  0  0  0  0  0  0  0  0  0  0
    4.6660   -2.8450    0.0000 O   0  0  0  0  0  0  0  0  0  0  0  0
    6.3981   -2.8450    0.0000 O   0  0  0  0  0  0  0  0  0  0  0  0
    8.1301   -2.8450    0.0000 O   0  0  0  0  0  0  0  0  0  0  0  0
    9.8622   -1.8450    0.0000 O   0  0  0  0  0  0  0  0  0  0  0  0
    8.1301    1.1550    0.0000 O   0  0  0  0  0  0  0  0  0  0  0  0
    6.3981   -4.8450    0.0000 O   0  0  0  0  0  0  0  0  0  0  0  0
    9.8622    0.1550    0.0000 O   0  0  0  0  0  0  0  0  0  0  0  0
    4.6660   -5.8450    0.0000 O   0  0  0  0  0  0  0  0  0  0  0  0
    2.9340   -4.8450    0.0000 O   0  0  0  0  0  0  0  0  0  0  0  0
    2.9340   -1.8450    0.0000 O   0  0  0  0  0  0  0  0  0  0  0  0
    6.3981    3.1550    0.0000 O   0  0  0  0  0  0  0  0  0  0  0  0
    6.3981    0.1550    0.0000 O   0  0  0  0  0  0  0  0  0  0  0  0
    4.6497    0.1204    0.0000 O   0  0  0  0  0  0  0  0  0  0  0  0
    2.8680    1.1308    0.0000 O   0  0  0  0  0  0  0  0  0  0  0  0
    2.8680    3.1792    0.0000 O   0  0  0  0  0  0  0  0  0  0  0  0
    8.9962    5.6550    0.0000 O   0  0  0  0  0  0  0  0  0  0  0  0
   10.7282    4.6550    0.0000 O   0  0  0  0  0  0  0  0  0  0  0  0
    7.2641   -1.3450    0.0000 C   0  0  3  0  0  0  0  0  0  0  0  0
    8.1301   -1.8450    0.0000 C   0  0  3  0  0  0  0  0  0  0  0  0
    8.9962   -1.3450    0.0000 C   0  0  3  0  0  0  0  0  0  0  0  0
    5.5320   -4.3450    0.0000 C   0  0  3  0  0  0  0  0  0  0  0  0
    8.9962   -0.3450    0.0000 C   0  0  3  0  0  0  0  0  0  0  0  0
    4.6660   -4.8450    0.0000 C   0  0  3  0  0  0  0  0  0  0  0  0
    5.5320   -3.3450    0.0000 C   0  0  3  0  0  0  0  0  0  0  0  0
    3.8000   -4.3450    0.0000 C   0  0  3  0  0  0  0  0  0  0  0  0
    3.8000   -3.3450    0.0000 C   0  0  3  0  0  0  0  0  0  0  0  0
    8.1301    0.1550    0.0000 C   0  0  3  0  0  0  0  0  0  0  0  0
    6.3981   -1.8450    0.0000 C   0  0  0  0  0  0  0  0  0  0  0  0
    2.9340   -2.8450    0.0000 C   0  0  0  0  0  0  0  0  0  0  0  0
    7.2641    1.6550    0.0000 C   0  0  0  0  0  0  0  0  0  0  0  0
    7.2641    2.6550    0.0000 C   0  0  0  0  0  0  0  0  0  0  0  0
    6.3981    1.1550    0.0000 C   0  0  0  0  0  0  0  0  0  0  0  0
    5.5320    1.6550    0.0000 C   0  0  0  0  0  0  0  0  0  0  0  0
    5.5320    2.6550    0.0000 C   0  0  0  0  0  0  0  0  0  0  0  0
    8.1301    3.1550    0.0000 C   0  0  0  0  0  0  0  0  0  0  0  0
    4.6381    1.1203    0.0000 C   0  0  0  0  0  0  0  0  0  0  0  0
    4.6381    3.1897    0.0000 C   0  0  0  0  0  0  0  0  0  0  0  0
    8.1301    4.1550    0.0000 C   0  0  0  0  0  0  0  0  0  0  0  0
    8.9962    2.6550    0.0000 C   0  0  0  0  0  0  0  0  0  0  0  0
    3.7320    1.6342    0.0000 C   0  0  0  0  0  0  0  0  0  0  0  0
    3.7320    2.6758    0.0000 C   0  0  0  0  0  0  0  0  0  0  0  0
    8.9962    4.6550    0.0000 C   0  0  0  0  0  0  0  0  0  0  0  0
    9.8622    3.1550    0.0000 C   0  0  0  0  0  0  0  0  0  0  0  0
    9.8622    4.1550    0.0000 C   0  0  0  0  0  0  0  0  0  0  0  0
    2.0000    1.6275    0.0000 C   0  0  0  0  0  0  0  0  0  0  0  0
    8.1301    6.1550    0.0000 C   0  0  0  0  0  0  0  0  0  0  0  0
    6.7272   -1.0350    0.0000 H   0  0  0  0  0  0  0  0  0  0  0  0
    8.6671   -2.1550    0.0000 H   0  0  0  0  0  0  0  0  0  0  0  0
    9.5331   -1.0350    0.0000 H   0  0  0  0  0  0  0  0  0  0  0  0
    6.0690   -4.0350    0.0000 H   0  0  0  0  0  0  0  0  0  0  0  0
    8.9962    0.2750    0.0000 H   0  0  0  0  0  0  0  0  0  0  0  0
    5.2030   -5.1550    0.0000 H   0  0  0  0  0  0  0  0  0  0  0  0
    5.5320   -2.7250    0.0000 H   0  0  0  0  0  0  0  0  0  0  0  0
    3.2631   -4.0350    0.0000 H   0  0  0  0  0  0  0  0  0  0  0  0
    3.8000   -2.7250    0.0000 H   0  0  0  0  0  0  0  0  0  0  0  0
    7.5932    0.4650    0.0000 H   0  0  0  0  0  0  0  0  0  0  0  0
    6.1860   -1.2624    0.0000 H   0  0  0  0  0  0  0  0  0  0  0  0
    5.7875   -1.9527    0.0000 H   0  0  0  0  0  0  0  0  0  0  0  0
    2.3234   -2.7373    0.0000 H   0  0  0  0  0  0  0  0  0  0  0  0
    2.7219   -3.4276    0.0000 H   0  0  0  0  0  0  0  0  0  0  0  0
    7.5932   -3.1550    0.0000 H   0  0  0  0  0  0  0  0  0  0  0  0
    9.8622   -2.4650    0.0000 H   0  0  0  0  0  0  0  0  0  0  0  0
    6.9350   -4.5350    0.0000 H   0  0  0  0  0  0  0  0  0  0  0  0
   10.3991   -0.1550    0.0000 H   0  0  0  0  0  0  0  0  0  0  0  0
    4.1291   -6.1550    0.0000 H   0  0  0  0  0  0  0  0  0  0  0  0
    2.3970   -4.5350    0.0000 H   0  0  0  0  0  0  0  0  0  0  0  0
    2.3970   -1.5350    0.0000 H   0  0  0  0  0  0  0  0  0  0  0  0
    4.6453    3.8096    0.0000 H   0  0  0  0  0  0  0  0  0  0  0  0
    7.5932    4.4650    0.0000 H   0  0  0  0  0  0  0  0  0  0  0  0
    8.9962    2.0350    0.0000 H   0  0  0  0  0  0  0  0  0  0  0  0
   10.3991    2.8450    0.0000 H   0  0  0  0  0  0  0  0  0  0  0  0
    4.1164   -0.1958    0.0000 H   0  0  0  0  0  0  0  0  0  0  0  0
    2.8703    3.7992    0.0000 H   0  0  0  0  0  0  0  0  0  0  0  0
    2.3079    2.1656    0.0000 H   0  0  0  0  0  0  0  0  0  0  0  0
    1.4619    1.9354    0.0000 H   0  0  0  0  0  0  0  0  0  0  0  0
    1.6921    1.0894    0.0000 H   0  0  0  0  0  0  0  0  0  0  0  0
   10.7282    5.2750    0.0000 H   0  0  0  0  0  0  0  0  0  0  0  0
    8.4401    6.6919    0.0000 H   0  0  0  0  0  0  0  0  0  0  0  0
    7.5932    6.4650    0.0000 H   0  0  0  0  0  0  0  0  0  0  0  0
    7.8201    5.6181    0.0000 H   0  0  0  0  0  0  0  0  0  0  0  0
  1 19  1  0  0  0  0
  1 28  1  0  0  0  0
  2 25  1  0  0  0  0
  2 27  1  0  0  0  0
  3 25  1  0  0  0  0
  3 29  1  0  0  0  0
  4 20  1  0  0  0  0
  4 62  1  0  0  0  0
  5 21  1  0  0  0  0
  5 63  1  0  0  0  0
  6 28  1  0  0  0  0
  6 31  1  0  0  0  0
  7 22  1  0  0  0  0
  7 64  1  0  0  0  0
  8 23  1  0  0  0  0
  8 65  1  0  0  0  0
  9 24  1  0  0  0  0
  9 66  1  0  0  0  0
 10 26  1  0  0  0  0
 10 67  1  0  0  0  0
 11 30  1  0  0  0  0
 11 68  1  0  0  0  0
 12 32  1  0  0  0  0
 12 35  1  0  0  0  0
 13 33  2  0  0  0  0
 14 37  1  0  0  0  0
 14 73  1  0  0  0  0
 15 41  1  0  0  0  0
 15 46  1  0  0  0  0
 16 42  1  0  0  0  0
 16 74  1  0  0  0  0
 17 43  1  0  0  0  0
 17 47  1  0  0  0  0
 18 45  1  0  0  0  0
 18 78  1  0  0  0  0
 19 20  1  0  0  0  0
 19 29  1  0  0  0  0
 19 48  1  0  0  0  0
 20 21  1  0  0  0  0
 20 49  1  0  0  0  0
 21 23  1  0  0  0  0
 21 50  1  0  0  0  0
 22 24  1  0  0  0  0
 22 25  1  0  0  0  0
 22 51  1  0  0  0  0
 23 28  1  0  0  0  0
 23 52  1  0  0  0  0
 24 26  1  0  0  0  0
 24 53  1  0  0  0  0
 25 54  1  0  0  0  0
 26 27  1  0  0  0  0
 26 55  1  0  0  0  0
 27 30  1  0  0  0  0
 27 56  1  0  0  0  0
 28 57  1  0  0  0  0
 29 58  1  0  0  0  0
 29 59  1  0  0  0  0
 30 60  1  0  0  0  0
 30 61  1  0  0  0  0
 31 32  2  0  0  0  0
 31 33  1  0  0  0  0
 32 36  1  0  0  0  0
 33 34  1  0  0  0  0
 34 35  2  0  0  0  0
 34 37  1  0  0  0  0
 35 38  1  0  0  0  0
 36 39  2  0  0  0  0
 36 40  1  0  0  0  0
 37 41  2  0  0  0  0
 38 42  2  0  0  0  0
 38 69  1  0  0  0  0
 39 43  1  0  0  0  0
 39 70  1  0  0  0  0
 40 44  2  0  0  0  0
 40 71  1  0  0  0  0
 41 42  1  0  0  0  0
 43 45  2  0  0  0  0
 44 45  1  0  0  0  0
 44 72  1  0  0  0  0
 46 75  1  0  0  0  0
 46 76  1  0  0  0  0
 46 77  1  0  0  0  0
 47 79  1  0  0  0  0
 47 80  1  0  0  0  0
 47 81  1  0  0  0  0
M  END
>  <PUBCHEM_COMPOUND_CID>
73822534

>  <PUBCHEM_COMPOUND_CANONICALIZED>
1

>  <PUBCHEM_CACTVS_COMPLEXITY>
1110

>  <PUBCHEM_CACTVS_HBOND_ACCEPTOR>
18

>  <PUBCHEM_CACTVS_HBOND_DONOR>
10

>  <PUBCHEM_CACTVS_ROTATABLE_BOND>
9

>  <PUBCHEM_CACTVS_SUBSKEYS>
AAADcfB4PgAAAAAAAAAAAAAAAAAAAAAAAAA0aIECAAAAAACBQAAAGgAACAAADBSwmAMyDoAABgCIAqBSAAICCAAkIAAIiAFGiMgdNzaGNR6ieWOl4BUPuQfK7LzOIQABCAAIQABCAAIQABCAAAAAAAAAAA==

>  <PUBCHEM_IUPAC_OPENEYE_NAME>
5,7-dihydroxy-2-(4-hydroxy-3-methoxy-phenyl)-6-methoxy-3-[3,4,5-trihydroxy-6-[[3,4,5-trihydroxy-6-(hydroxymethyl)tetrahydropyran-2-yl]oxymethyl]tetrahydropyran-2-yl]oxy-chromen-4-one

>  <PUBCHEM_IUPAC_CAS_NAME>
5,7-dihydroxy-2-(4-hydroxy-3-methoxyphenyl)-6-methoxy-3-[[3,4,5-trihydroxy-6-[[3,4,5-trihydroxy-6-(hydroxymethyl)-2-oxanyl]oxymethyl]-2-oxanyl]oxy]-1-benzopyran-4-one

>  <PUBCHEM_IUPAC_NAME>
5,7-dihydroxy-2-(4-hydroxy-3-methoxyphenyl)-6-methoxy-3-[3,4,5-trihydroxy-6-[[3,4,5-trihydroxy-6-(hydroxymethyl)oxan-2-yl]oxymethyl]oxan-2-yl]oxychromen-4-one

>  <PUBCHEM_IUPAC_SYSTEMATIC_NAME>
3-[6-[[6-(hydroxymethyl)-3,4,5-tris(oxidanyl)oxan-2-yl]oxymethyl]-3,4,5-tris(oxidanyl)oxan-2-yl]oxy-6-methoxy-2-(3-methoxy-4-oxidanyl-phenyl)-5,7-bis(oxidanyl)chromen-4-one

>  <PUBCHEM_IUPAC_TRADITIONAL_NAME>
5,7-dihydroxy-2-(4-hydroxy-3-methoxy-phenyl)-6-methoxy-3-[3,4,5-trihydroxy-6-[(3,4,5-trihydroxy-6-methylol-tetrahydropyran-2-yl)oxymethyl]tetrahydropyran-2-yl]oxy-chromone

>  <PUBCHEM_IUPAC_INCHI>
InChI=1S/C29H34O18/c1-41-12-5-9(3-4-10(12)31)25-27(20(36)16-13(44-25)6-11(32)26(42-2)19(16)35)47-29-24(40)22(38)18(34)15(46-29)8-43-28-23(39)21(37)17(33)14(7-30)45-28/h3-6,14-15,17-18,21-24,28-35,37-40H,7-8H2,1-2H3

>  <PUBCHEM_IUPAC_INCHIKEY>
ZZNVCZGRNCQHCQ-UHFFFAOYSA-N

>  <PUBCHEM_XLOGP3_AA>
-1.5

>  <PUBCHEM_EXACT_MASS>
670.175

>  <PUBCHEM_MOLECULAR_FORMULA>
C29H34O18

>  <PUBCHEM_MOLECULAR_WEIGHT>
670.573

>  <PUBCHEM_OPENEYE_CAN_SMILES>
COC1=C(C=CC(=C1)C2=C(C(=O)C3=C(C(=C(C=C3O2)O)OC)O)OC4C(C(C(C(O4)COC5C(C(C(C(O5)CO)O)O)O)O)O)O)O

>  <PUBCHEM_OPENEYE_ISO_SMILES>
COC1=C(C=CC(=C1)C2=C(C(=O)C3=C(C(=C(C=C3O2)O)OC)O)OC4C(C(C(C(O4)COC5C(C(C(C(O5)CO)O)O)O)O)O)O)O

>  <PUBCHEM_CACTVS_TPSA>
284

>  <PUBCHEM_MONOISOTOPIC_WEIGHT>
670.175

>  <PUBCHEM_TOTAL_CHARGE>
0

>  <PUBCHEM_HEAVY_ATOM_COUNT>
47

>  <PUBCHEM_ATOM_DEF_STEREO_COUNT>
0

>  <PUBCHEM_ATOM_UDEF_STEREO_COUNT>
10

>  <PUBCHEM_BOND_DEF_STEREO_COUNT>
0

>  <PUBCHEM_BOND_UDEF_STEREO_COUNT>
0

>  <PUBCHEM_ISOTOPIC_ATOM_COUNT>
0

>  <PUBCHEM_COMPONENT_COUNT>
1

>  <PUBCHEM_CACTVS_TAUTO_COUNT>
69

>  <PUBCHEM_COORDINATE_TYPE>
1
5
255

>  <PUBCHEM_BONDANNOTATIONS>
26  10  3
12  32  8
12  35  8
19  29  3
27  30  3
25  3  3
31  32  8
31  33  8
33  34  8
34  35  8
34  37  8
35  38  8
36  39  8
36  40  8
37  41  8
38  42  8
39  43  8
20  4  3
40  44  8
41  42  8
43  45  8
44  45  8
21  5  3
28  6  3
22  7  3
23  8  3
24  9  3

$$$$
