74079453
 OpenBabel06101807152D

111119  0  0  1  0  0  0  0  0999 V2000
    5.9860    1.3776    0.0000 O   0  0  0  0  0  0  0  0  0  0  0  0
    8.4266   -0.6168    0.0000 O   0  0  0  0  0  0  0  0  0  0  0  0
    6.8680   -1.1638    0.0000 O   0  0  0  0  0  0  0  0  0  0  0  0
    8.4494    2.3343    0.0000 O   0  0  0  0  0  0  0  0  0  0  0  0
    6.8802    2.9054    0.0000 O   0  0  0  0  0  0  0  0  0  0  0  0
    4.8772   -1.1298    0.0000 O   0  0  0  0  0  0  0  0  0  0  0  0
    9.4939   -2.0046    0.0000 O   0  0  0  0  0  0  0  0  0  0  0  0
    5.8477   -2.8441    0.0000 O   0  0  0  0  0  0  0  0  0  0  0  0
    9.5379    3.7054    0.0000 O   0  0  0  0  0  0  0  0  0  0  0  0
    5.1481    2.8987    0.0000 O   0  0  0  0  0  0  0  0  0  0  0  0
    5.8772   -1.1298    0.0000 O   0  0  0  0  0  0  0  0  0  0  0  0
    8.9054   -3.0080    0.0000 O   0  0  0  0  0  0  0  0  0  0  0  0
   13.4922    0.3718    0.0000 O   0  0  0  0  0  0  0  0  0  0  0  0
   13.4991    1.2677    0.0000 O   0  0  0  0  0  0  0  0  0  0  0  0
    6.3741   -5.4980    0.0000 O   0  0  0  0  0  0  0  0  0  0  0  0
    5.3803   -5.4980    0.0000 O   0  0  0  0  0  0  0  0  0  0  0  0
    9.3105   -3.2405    0.0000 O   0  0  0  0  0  0  0  0  0  0  0  0
   12.6718   -2.8596    0.0000 O   0  0  0  0  0  0  0  0  0  0  0  0
   13.9982   -1.0879    0.0000 O   0  0  0  0  0  0  0  0  0  0  0  0
   12.7286    4.5114    0.0000 O   0  0  0  0  0  0  0  0  0  0  0  0
   14.0275    2.7194    0.0000 O   0  0  0  0  0  0  0  0  0  0  0  0
    8.2640   -5.5869    0.0000 O   0  0  0  0  0  0  0  0  0  0  0  0
    3.3321   -5.5138    0.0000 O   0  0  0  0  0  0  0  0  0  0  0  0
    2.3079   -3.7400    0.0000 O   0  0  0  0  0  0  0  0  0  0  0  0
    4.2686    6.3954    0.0000 O   0  0  0  0  0  0  0  0  0  0  0  0
    7.7327    6.4087    0.0000 O   0  0  0  0  0  0  0  0  0  0  0  0
    5.9968    7.4020    0.0000 O   0  0  0  0  0  0  0  0  0  0  0  0
   10.9053   -2.9849    0.0000 O   0  0  0  0  0  0  0  0  0  0  0  0
   11.9253   -4.7053    0.0000 O   0  0  0  0  0  0  0  0  0  0  0  0
   10.3188   -7.0900    0.0000 O   0  0  0  0  0  0  0  0  0  0  0  0
    8.5868   -7.1100    0.0000 O   0  0  0  0  0  0  0  0  0  0  0  0
    7.7780    0.3430    0.0000 C   0  0  3  0  0  0  0  0  0  0  0  0
    6.8680   -0.1639    0.0000 C   0  0  3  0  0  0  0  0  0  0  0  0
    7.7861    1.3846    0.0000 C   0  0  3  0  0  0  0  0  0  0  0  0
    6.0020    0.3361    0.0000 C   0  0  3  0  0  0  0  0  0  0  0  0
    6.8840    1.9054    0.0000 C   0  0  3  0  0  0  0  0  0  0  0  0
    5.1360   -0.1639    0.0000 C   0  0  0  0  0  0  0  0  0  0  0  0
    9.5180   -1.0049    0.0000 C   0  0  0  0  0  0  0  0  0  0  0  0
    6.3772   -1.9958    0.0000 C   0  0  0  0  0  0  0  0  0  0  0  0
    9.5466    2.7055    0.0000 C   0  0  0  0  0  0  0  0  0  0  0  0
   10.6270   -0.6700    0.0000 C   0  0  0  0  0  0  0  0  0  0  0  0
    6.8772   -2.8618    0.0000 C   0  0  0  0  0  0  0  0  0  0  0  0
   10.6503    2.3535    0.0000 C   0  0  0  0  0  0  0  0  0  0  0  0
    6.0122    3.4021    0.0000 C   0  0  0  0  0  0  0  0  0  0  0  0
   11.3212    0.2573    0.0000 C   0  0  0  0  0  0  0  0  0  0  0  0
   11.3301    1.4156    0.0000 C   0  0  0  0  0  0  0  0  0  0  0  0
    5.3772   -1.9958    0.0000 C   0  0  0  0  0  0  0  0  0  0  0  0
    6.3772   -3.7278    0.0000 C   0  0  0  0  0  0  0  0  0  0  0  0
    4.8772   -2.8618    0.0000 C   0  0  0  0  0  0  0  0  0  0  0  0
    5.3772   -3.7278    0.0000 C   0  0  0  0  0  0  0  0  0  0  0  0
    7.9187   -2.8458    0.0000 C   0  0  0  0  0  0  0  0  0  0  0  0
   11.0848   -1.7864    0.0000 C   0  0  0  0  0  0  0  0  0  0  0  0
   11.1252    3.4627    0.0000 C   0  0  0  0  0  0  0  0  0  0  0  0
    6.0084    4.4020    0.0000 C   0  0  0  0  0  0  0  0  0  0  0  0
   12.5213    0.1325    0.0000 C   0  0  0  0  0  0  0  0  0  0  0  0
   12.5320    1.5219    0.0000 C   0  0  0  0  0  0  0  0  0  0  0  0
    6.8840   -4.6379    0.0000 C   0  0  0  0  0  0  0  0  0  0  0  0
    4.8703   -4.6379    0.0000 C   0  0  0  0  0  0  0  0  0  0  0  0
    8.4464   -3.7438    0.0000 C   0  0  0  0  0  0  0  0  0  0  0  0
   12.2817   -1.9389    0.0000 C   0  0  0  0  0  0  0  0  0  0  0  0
    3.8357   -2.8458    0.0000 C   0  0  0  0  0  0  0  0  0  0  0  0
   13.0048   -0.9730    0.0000 C   0  0  0  0  0  0  0  0  0  0  0  0
   12.3243    3.5968    0.0000 C   0  0  0  0  0  0  0  0  0  0  0  0
   13.0325    2.6198    0.0000 C   0  0  0  0  0  0  0  0  0  0  0  0
    7.9256   -4.6459    0.0000 C   0  0  0  0  0  0  0  0  0  0  0  0
    6.8724    4.9054    0.0000 C   0  0  0  0  0  0  0  0  0  0  0  0
    5.1404    4.8987    0.0000 C   0  0  0  0  0  0  0  0  0  0  0  0
    3.8287   -4.6459    0.0000 C   0  0  0  0  0  0  0  0  0  0  0  0
    3.3079   -3.7438    0.0000 C   0  0  0  0  0  0  0  0  0  0  0  0
    5.1366    5.8987    0.0000 C   0  0  0  0  0  0  0  0  0  0  0  0
    6.8686    5.9054    0.0000 C   0  0  0  0  0  0  0  0  0  0  0  0
    6.0006    6.4020    0.0000 C   0  0  0  0  0  0  0  0  0  0  0  0
    9.4154   -3.8682    0.0000 C   0  0  0  0  0  0  0  0  0  0  0  0
   10.4154   -3.8566    0.0000 C   0  0  0  0  0  0  0  0  0  0  0  0
    8.9256   -4.7400    0.0000 C   0  0  0  0  0  0  0  0  0  0  0  0
    9.4354   -5.6001    0.0000 C   0  0  0  0  0  0  0  0  0  0  0  0
   10.9253   -4.7168    0.0000 C   0  0  0  0  0  0  0  0  0  0  0  0
   10.4354   -5.5886    0.0000 C   0  0  0  0  0  0  0  0  0  0  0  0
    9.4471   -6.6001    0.0000 C   0  0  0  0  0  0  0  0  0  0  0  0
    7.6342   -0.2601    0.0000 H   0  0  0  0  0  0  0  0  0  0  0  0
    7.4026   -0.4780    0.0000 H   0  0  0  0  0  0  0  0  0  0  0  0
    7.6515    1.9898    0.0000 H   0  0  0  0  0  0  0  0  0  0  0  0
    5.4627    0.6420    0.0000 H   0  0  0  0  0  0  0  0  0  0  0  0
    6.3453    2.2123    0.0000 H   0  0  0  0  0  0  0  0  0  0  0  0
    4.9755    0.4350    0.0000 H   0  0  0  0  0  0  0  0  0  0  0  0
    4.5160   -0.1639    0.0000 H   0  0  0  0  0  0  0  0  0  0  0  0
   10.7075   -2.2784    0.0000 H   0  0  0  0  0  0  0  0  0  0  0  0
   10.7556    3.9605    0.0000 H   0  0  0  0  0  0  0  0  0  0  0  0
    3.5319   -2.3053    0.0000 H   0  0  0  0  0  0  0  0  0  0  0  0
    7.4106    4.5975    0.0000 H   0  0  0  0  0  0  0  0  0  0  0  0
    4.6047    4.5866    0.0000 H   0  0  0  0  0  0  0  0  0  0  0  0
   13.9217   -0.0754    0.0000 H   0  0  0  0  0  0  0  0  0  0  0  0
   13.9355    1.7082    0.0000 H   0  0  0  0  0  0  0  0  0  0  0  0
    6.6778   -6.0385    0.0000 H   0  0  0  0  0  0  0  0  0  0  0  0
    5.0766   -6.0385    0.0000 H   0  0  0  0  0  0  0  0  0  0  0  0
    9.9305   -3.2381    0.0000 H   0  0  0  0  0  0  0  0  0  0  0  0
   13.2871   -2.9356    0.0000 H   0  0  0  0  0  0  0  0  0  0  0  0
   14.2444   -1.6569    0.0000 H   0  0  0  0  0  0  0  0  0  0  0  0
   12.3628    5.0120    0.0000 H   0  0  0  0  0  0  0  0  0  0  0  0
   14.2825    3.2845    0.0000 H   0  0  0  0  0  0  0  0  0  0  0  0
    7.6807   -5.7968    0.0000 H   0  0  0  0  0  0  0  0  0  0  0  0
    2.7121   -5.5162    0.0000 H   0  0  0  0  0  0  0  0  0  0  0  0
    2.0000   -3.2018    0.0000 H   0  0  0  0  0  0  0  0  0  0  0  0
    8.3056   -4.7471    0.0000 H   0  0  0  0  0  0  0  0  0  0  0  0
    3.7329    6.0833    0.0000 H   0  0  0  0  0  0  0  0  0  0  0  0
    7.7303    7.0287    0.0000 H   0  0  0  0  0  0  0  0  0  0  0  0
    5.4587    7.7100    0.0000 H   0  0  0  0  0  0  0  0  0  0  0  0
   10.7516   -6.1219    0.0000 H   0  0  0  0  0  0  0  0  0  0  0  0
   10.5891   -2.4516    0.0000 H   0  0  0  0  0  0  0  0  0  0  0  0
   12.2415   -5.2386    0.0000 H   0  0  0  0  0  0  0  0  0  0  0  0
   10.3260   -7.7100    0.0000 H   0  0  0  0  0  0  0  0  0  0  0  0
  1 35  1  0  0  0  0
  1 36  1  0  0  0  0
  2 32  1  0  0  0  0
  2 38  1  0  0  0  0
  3 33  1  0  0  0  0
  3 39  1  0  0  0  0
  4 34  1  0  0  0  0
  4 40  1  0  0  0  0
  5 36  1  0  0  0  0
  5 44  1  0  0  0  0
  6 37  1  0  0  0  0
  6 47  1  0  0  0  0
  7 38  2  0  0  0  0
  8 39  2  0  0  0  0
  9 40  2  0  0  0  0
 10 44  2  0  0  0  0
 11 47  2  0  0  0  0
 12 51  1  0  0  0  0
 12 73  1  0  0  0  0
 13 55  1  0  0  0  0
 13 92  1  0  0  0  0
 14 56  1  0  0  0  0
 14 93  1  0  0  0  0
 15 57  1  0  0  0  0
 15 94  1  0  0  0  0
 16 58  1  0  0  0  0
 16 95  1  0  0  0  0
 17 59  1  0  0  0  0
 17 96  1  0  0  0  0
 18 60  1  0  0  0  0
 18 97  1  0  0  0  0
 19 62  1  0  0  0  0
 19 98  1  0  0  0  0
 20 63  1  0  0  0  0
 20 99  1  0  0  0  0
 21 64  1  0  0  0  0
 21100  1  0  0  0  0
 22 65  1  0  0  0  0
 22101  1  0  0  0  0
 23 68  1  0  0  0  0
 23102  1  0  0  0  0
 24 69  1  0  0  0  0
 24103  1  0  0  0  0
 25 70  1  0  0  0  0
 25105  1  0  0  0  0
 26 71  1  0  0  0  0
 26106  1  0  0  0  0
 27 72  1  0  0  0  0
 27107  1  0  0  0  0
 28 74  1  0  0  0  0
 28109  1  0  0  0  0
 29 77  1  0  0  0  0
 29110  1  0  0  0  0
 30 79  1  0  0  0  0
 30111  1  0  0  0  0
 31 79  2  0  0  0  0
 32 33  1  0  0  0  0
 32 34  1  0  0  0  0
 32 80  1  0  0  0  0
 33 35  1  0  0  0  0
 33 81  1  0  0  0  0
 34 36  1  0  0  0  0
 34 82  1  0  0  0  0
 35 37  1  0  0  0  0
 35 83  1  0  0  0  0
 36 84  1  0  0  0  0
 37 85  1  0  0  0  0
 37 86  1  0  0  0  0
 38 41  1  0  0  0  0
 39 42  1  0  0  0  0
 40 43  1  0  0  0  0
 41 45  1  0  0  0  0
 41 52  2  0  0  0  0
 42 48  2  0  0  0  0
 42 51  1  0  0  0  0
 43 46  1  0  0  0  0
 43 53  2  0  0  0  0
 44 54  1  0  0  0  0
 45 46  1  0  0  0  0
 45 55  2  0  0  0  0
 46 56  2  0  0  0  0
 47 49  1  0  0  0  0
 48 50  1  0  0  0  0
 48 57  1  0  0  0  0
 49 50  1  0  0  0  0
 49 61  2  0  0  0  0
 50 58  2  0  0  0  0
 51 59  2  0  0  0  0
 52 60  1  0  0  0  0
 52 87  1  0  0  0  0
 53 63  1  0  0  0  0
 53 88  1  0  0  0  0
 54 66  2  0  0  0  0
 54 67  1  0  0  0  0
 55 62  1  0  0  0  0
 56 64  1  0  0  0  0
 57 65  2  0  0  0  0
 58 68  1  0  0  0  0
 59 65  1  0  0  0  0
 60 62  2  0  0  0  0
 61 69  1  0  0  0  0
 61 89  1  0  0  0  0
 63 64  2  0  0  0  0
 66 71  1  0  0  0  0
 66 90  1  0  0  0  0
 67 70  2  0  0  0  0
 67 91  1  0  0  0  0
 68 69  2  0  0  0  0
 70 72  1  0  0  0  0
 71 72  2  0  0  0  0
 73 74  1  0  0  0  0
 73 75  2  0  0  0  0
 74 77  2  0  0  0  0
 75 76  1  0  0  0  0
 75104  1  0  0  0  0
 76 78  2  0  0  0  0
 76 79  1  0  0  0  0
 77 78  1  0  0  0  0
 78108  1  0  0  0  0
M  END
>  <PUBCHEM_COMPOUND_CID>
74079453

>  <PUBCHEM_COMPOUND_CANONICALIZED>
0

>  <PUBCHEM_CACTVS_COMPLEXITY>
2260

>  <PUBCHEM_CACTVS_HBOND_ACCEPTOR>
31

>  <PUBCHEM_CACTVS_HBOND_DONOR>
18

>  <PUBCHEM_CACTVS_ROTATABLE_BOND>
6

>  <PUBCHEM_CACTVS_SUBSKEYS>
AAADcfB8PgAAAAAAAAAAAAAAAAAAAAAAAAA0YMGDAAAAAACRVAAAGgAACAAADBSwmAMwDoAABgCIAiDSCAACCAAkIAAAiAEGiMgdJzaGNRqieWOl4BUPuYfK7PzOoQABCAAYQABCAAIQADCAAAAAAAAAAA==

>  <PUBCHEM_IUPAC_INCHI>
InChI=1S/C48H32O31/c49-14-2-10(3-15(50)27(14)55)43(68)79-48-41-40(77-45(70)12-6-18(53)29(57)32(60)22(12)23-13(46(71)78-41)7-19(54)30(58)33(23)61)38-21(75-48)8-73-44(69)11-5-17(52)31(59)34(62)24(11)25-26(47(72)76-38)39(37(65)36(64)35(25)63)74-20-4-9(42(66)67)1-16(51)28(20)56/h1-7,21,38,40-41,48-65H,8H2,(H,66,67)

>  <PUBCHEM_IUPAC_INCHIKEY>
VQIUUNUVZNWSSC-UHFFFAOYSA-N

>  <PUBCHEM_XLOGP3_AA>
2.4

>  <PUBCHEM_EXACT_MASS>
1104.093

>  <PUBCHEM_MOLECULAR_FORMULA>
C48H32O31

>  <PUBCHEM_MOLECULAR_WEIGHT>
1104.753

>  <PUBCHEM_OPENEYE_CAN_SMILES>
C1C2C(C3C(C(O2)OC(=O)C4=CC(=C(C(=C4)O)O)O)OC(=O)C5=CC(=C(C(=C5C6=C(C(=C(C=C6C(=O)O3)O)O)O)O)O)O)OC(=O)C7=C(C8=C(C(=C(C=C8C(=O)O1)O)O)O)C(=C(C(=C7OC9=CC(=CC(=C9O)O)C(=O)O)O)O)O

>  <PUBCHEM_OPENEYE_ISO_SMILES>
C1C2C(C3C(C(O2)OC(=O)C4=CC(=C(C(=C4)O)O)O)OC(=O)C5=CC(=C(C(=C5C6=C(C(=C(C=C6C(=O)O3)O)O)O)O)O)O)OC(=O)C7=C(C8=C(C(=C(C=C8C(=O)O1)O)O)O)C(=C(C(=C7OC9=CC(=CC(=C9O)O)C(=O)O)O)O)O

>  <PUBCHEM_CACTVS_TPSA>
531

>  <PUBCHEM_MONOISOTOPIC_WEIGHT>
1104.093

>  <PUBCHEM_TOTAL_CHARGE>
0

>  <PUBCHEM_HEAVY_ATOM_COUNT>
79

>  <PUBCHEM_ATOM_DEF_STEREO_COUNT>
0

>  <PUBCHEM_ATOM_UDEF_STEREO_COUNT>
5

>  <PUBCHEM_BOND_DEF_STEREO_COUNT>
0

>  <PUBCHEM_BOND_UDEF_STEREO_COUNT>
0

>  <PUBCHEM_ISOTOPIC_ATOM_COUNT>
0

>  <PUBCHEM_COMPONENT_COUNT>
1

>  <PUBCHEM_CACTVS_TAUTO_COUNT>
970

>  <PUBCHEM_COORDINATE_TYPE>
1
5
255

>  <PUBCHEM_BONDANNOTATIONS>
32  2  3
33  3  3
35  37  3
34  4  3
41  45  8
41  52  8
42  48  8
42  51  8
43  46  8
43  53  8
45  55  8
46  56  8
48  57  8
49  50  8
49  61  8
36  5  3
50  58  8
51  59  8
52  60  8
53  63  8
54  66  8
54  67  8
55  62  8
56  64  8
57  65  8
58  68  8
59  65  8
60  62  8
61  69  8
63  64  8
66  71  8
67  70  8
68  69  8
70  72  8
71  72  8
73  74  8
73  75  8
74  77  8
75  76  8
76  78  8
77  78  8

$$$$
