74427786
 OpenBabel06101807152D

 44 45  0  0  1  0  0  0  0  0999 V2000
    3.3100   -2.4335    0.0000 O   0  0  0  0  0  0  0  0  0  0  0  0
    2.3100   -0.7015    0.0000 O   0  0  0  0  0  0  0  0  0  0  0  0
    4.8100    1.8966    0.0000 O   0  0  0  0  0  0  0  0  0  0  0  0
    5.3100   -0.7015    0.0000 C   0  0  3  0  0  0  0  0  0  0  0  0
    4.8100   -1.5675    0.0000 C   0  0  3  0  0  0  0  0  0  0  0  0
    4.8100    0.1645    0.0000 C   0  0  3  0  0  0  0  0  0  0  0  0
    5.8978    0.1075    0.0000 C   0  0  0  0  0  0  0  0  0  0  0  0
    5.8978   -1.5105    0.0000 C   0  0  0  0  0  0  0  0  0  0  0  0
    6.8488   -0.2015    0.0000 C   0  0  3  0  0  0  0  0  0  0  0  0
    6.8488   -1.2015    0.0000 C   0  0  0  0  0  0  0  0  0  0  0  0
    3.8100   -1.5675    0.0000 C   0  0  3  0  0  0  0  0  0  0  0  0
    3.8100    0.1645    0.0000 C   0  0  0  0  0  0  0  0  0  0  0  0
    3.3100   -0.7015    0.0000 C   0  0  3  0  0  0  0  0  0  0  0  0
    5.3100    1.0306    0.0000 C   0  0  0  0  0  0  0  0  0  0  0  0
    5.3100   -2.4335    0.0000 C   0  0  0  0  0  0  0  0  0  0  0  0
    7.6579    0.3863    0.0000 C   0  0  0  0  0  0  0  0  0  0  0  0
    8.5714   -0.0204    0.0000 C   0  0  0  0  0  0  0  0  0  0  0  0
    7.5533    1.3808    0.0000 C   0  0  0  0  0  0  0  0  0  0  0  0
    4.5000   -2.1044    0.0000 H   0  0  0  0  0  0  0  0  0  0  0  0
    5.4300    0.1645    0.0000 H   0  0  0  0  0  0  0  0  0  0  0  0
    6.1500    0.6739    0.0000 H   0  0  0  0  0  0  0  0  0  0  0  0
    5.3608    0.4175    0.0000 H   0  0  0  0  0  0  0  0  0  0  0  0
    5.3608   -1.8205    0.0000 H   0  0  0  0  0  0  0  0  0  0  0  0
    6.1500   -2.0769    0.0000 H   0  0  0  0  0  0  0  0  0  0  0  0
    6.7518    0.4109    0.0000 H   0  0  0  0  0  0  0  0  0  0  0  0
    6.9778   -1.8079    0.0000 H   0  0  0  0  0  0  0  0  0  0  0  0
    7.4654   -1.1367    0.0000 H   0  0  0  0  0  0  0  0  0  0  0  0
    3.1900   -1.5675    0.0000 H   0  0  0  0  0  0  0  0  0  0  0  0
    3.9177    0.7751    0.0000 H   0  0  0  0  0  0  0  0  0  0  0  0
    3.2274    0.3766    0.0000 H   0  0  0  0  0  0  0  0  0  0  0  0
    3.0000   -0.1645    0.0000 H   0  0  0  0  0  0  0  0  0  0  0  0
    5.7850    0.6320    0.0000 H   0  0  0  0  0  0  0  0  0  0  0  0
    5.7850    1.4291    0.0000 H   0  0  0  0  0  0  0  0  0  0  0  0
    4.7731   -2.7435    0.0000 H   0  0  0  0  0  0  0  0  0  0  0  0
    5.6200   -2.9705    0.0000 H   0  0  0  0  0  0  0  0  0  0  0  0
    5.8469   -2.1235    0.0000 H   0  0  0  0  0  0  0  0  0  0  0  0
    2.6900   -2.4335    0.0000 H   0  0  0  0  0  0  0  0  0  0  0  0
    2.0000   -0.1645    0.0000 H   0  0  0  0  0  0  0  0  0  0  0  0
    8.3192   -0.5868    0.0000 H   0  0  0  0  0  0  0  0  0  0  0  0
    9.1378   -0.2726    0.0000 H   0  0  0  0  0  0  0  0  0  0  0  0
    8.8236    0.5460    0.0000 H   0  0  0  0  0  0  0  0  0  0  0  0
    5.1200    2.4335    0.0000 H   0  0  0  0  0  0  0  0  0  0  0  0
    8.0549    1.7452    0.0000 H   0  0  0  0  0  0  0  0  0  0  0  0
    6.9869    1.6330    0.0000 H   0  0  0  0  0  0  0  0  0  0  0  0
  1 11  1  0  0  0  0
  1 37  1  0  0  0  0
  2 13  1  0  0  0  0
  2 38  1  0  0  0  0
  3 14  1  0  0  0  0
  3 42  1  0  0  0  0
  4  5  1  0  0  0  0
  4  6  1  0  0  0  0
  4  7  1  0  0  0  0
  4  8  1  0  0  0  0
  5 11  1  0  0  0  0
  5 15  1  0  0  0  0
  5 19  1  0  0  0  0
  6 12  1  0  0  0  0
  6 14  1  0  0  0  0
  6 20  1  0  0  0  0
  7  9  1  0  0  0  0
  7 21  1  0  0  0  0
  7 22  1  0  0  0  0
  8 10  1  0  0  0  0
  8 23  1  0  0  0  0
  8 24  1  0  0  0  0
  9 10  1  0  0  0  0
  9 16  1  0  0  0  0
  9 25  1  0  0  0  0
 10 26  1  0  0  0  0
 10 27  1  0  0  0  0
 11 13  1  0  0  0  0
 11 28  1  0  0  0  0
 12 13  1  0  0  0  0
 12 29  1  0  0  0  0
 12 30  1  0  0  0  0
 13 31  1  0  0  0  0
 14 32  1  0  0  0  0
 14 33  1  0  0  0  0
 15 34  1  0  0  0  0
 15 35  1  0  0  0  0
 15 36  1  0  0  0  0
 16 17  1  0  0  0  0
 16 18  2  0  0  0  0
 17 39  1  0  0  0  0
 17 40  1  0  0  0  0
 17 41  1  0  0  0  0
 18 43  1  0  0  0  0
 18 44  1  0  0  0  0
M  END
>  <PUBCHEM_COMPOUND_CID>
74427786

>  <PUBCHEM_COMPOUND_CANONICALIZED>
1

>  <PUBCHEM_CACTVS_COMPLEXITY>
328

>  <PUBCHEM_CACTVS_HBOND_ACCEPTOR>
3

>  <PUBCHEM_CACTVS_HBOND_DONOR>
3

>  <PUBCHEM_CACTVS_ROTATABLE_BOND>
2

>  <PUBCHEM_CACTVS_SUBSKEYS>
AAADceBwMAAAAAAAAAAAAAAAAAAAAYAAAAAwAAAAAAAAAAAAAAAAGgAACAAADxSggAICAAAAAgCAAgBCAAAAAAAgAAAAAAAAAAgBEAIAAQAAQAAEgAABAAHA4PQPgAAAAAAAAABAAAYAADCAAQAAAAAAAA==

>  <PUBCHEM_IUPAC_OPENEYE_NAME>
10-(hydroxymethyl)-3-isopropenyl-6-methyl-spiro[4.5]decane-7,8-diol

>  <PUBCHEM_IUPAC_CAS_NAME>
10-(hydroxymethyl)-6-methyl-3-(1-methylethenyl)spiro[4.5]decane-7,8-diol

>  <PUBCHEM_IUPAC_NAME>
10-(hydroxymethyl)-6-methyl-3-prop-1-en-2-ylspiro[4.5]decane-7,8-diol

>  <PUBCHEM_IUPAC_SYSTEMATIC_NAME>
10-(hydroxymethyl)-6-methyl-3-prop-1-en-2-yl-spiro[4.5]decane-7,8-diol

>  <PUBCHEM_IUPAC_TRADITIONAL_NAME>
3-isopropenyl-6-methyl-10-methylol-spiro[4.5]decane-7,8-diol

>  <PUBCHEM_IUPAC_INCHI>
InChI=1S/C15H26O3/c1-9(2)11-4-5-15(7-11)10(3)14(18)13(17)6-12(15)8-16/h10-14,16-18H,1,4-8H2,2-3H3

>  <PUBCHEM_IUPAC_INCHIKEY>
NPIIWZCGVADPIE-UHFFFAOYSA-N

>  <PUBCHEM_XLOGP3_AA>
2.5

>  <PUBCHEM_EXACT_MASS>
254.188

>  <PUBCHEM_MOLECULAR_FORMULA>
C15H26O3

>  <PUBCHEM_MOLECULAR_WEIGHT>
254.37

>  <PUBCHEM_OPENEYE_CAN_SMILES>
CC1C(C(CC(C12CCC(C2)C(=C)C)CO)O)O

>  <PUBCHEM_OPENEYE_ISO_SMILES>
CC1C(C(CC(C12CCC(C2)C(=C)C)CO)O)O

>  <PUBCHEM_CACTVS_TPSA>
60.7

>  <PUBCHEM_MONOISOTOPIC_WEIGHT>
254.188

>  <PUBCHEM_TOTAL_CHARGE>
0

>  <PUBCHEM_HEAVY_ATOM_COUNT>
18

>  <PUBCHEM_ATOM_DEF_STEREO_COUNT>
0

>  <PUBCHEM_ATOM_UDEF_STEREO_COUNT>
6

>  <PUBCHEM_BOND_DEF_STEREO_COUNT>
0

>  <PUBCHEM_BOND_UDEF_STEREO_COUNT>
0

>  <PUBCHEM_ISOTOPIC_ATOM_COUNT>
0

>  <PUBCHEM_COMPONENT_COUNT>
1

>  <PUBCHEM_CACTVS_TAUTO_COUNT>
1

>  <PUBCHEM_COORDINATE_TYPE>
1
5
255

>  <PUBCHEM_BONDANNOTATIONS>
11  1  3
13  2  3
4  8  3
5  15  3
6  14  3
9  16  3

$$$$
