74428114
 OpenBabel06101807152D

 54 57  0  0  1  0  0  0  0  0999 V2000
    7.2203    3.5692    0.0000 O   0  0  0  0  0  0  0  0  0  0  0  0
    2.3275   -0.6810    0.0000 O   0  0  0  0  0  0  0  0  0  0  0  0
    8.0438   -0.9947    0.0000 O   0  0  0  0  0  0  0  0  0  0  0  0
    6.8446   -2.2445    0.0000 O   0  0  0  0  0  0  0  0  0  0  0  0
    3.9615   -3.1320    0.0000 O   0  0  0  0  0  0  0  0  0  0  0  0
    5.6933   -3.1623    0.0000 O   0  0  0  0  0  0  0  0  0  0  0  0
    6.4978    0.4036    0.0000 C   0  0  3  0  0  0  0  0  0  0  0  0
    5.5968    0.8375    0.0000 C   0  0  3  0  0  0  0  0  0  0  0  0
    4.9117    0.1172    0.0000 C   0  0  3  0  0  0  0  0  0  0  0  0
    5.3836   -0.7578    0.0000 C   0  0  3  0  0  0  0  0  0  0  0  0
    6.3618   -0.5811    0.0000 C   0  0  3  0  0  0  0  0  0  0  0  0
    6.3910    1.5804    0.0000 C   0  0  0  0  0  0  0  0  0  0  0  0
    6.9978    2.5942    0.0000 C   0  0  3  0  0  0  0  0  0  0  0  0
    7.3988    0.8375    0.0000 C   0  0  0  0  0  0  0  0  0  0  0  0
    4.8536   -1.6474    0.0000 C   0  0  3  0  0  0  0  0  0  0  0  0
    5.3743    1.8124    0.0000 C   0  0  0  0  0  0  0  0  0  0  0  0
    3.8773    0.1632    0.0000 C   0  0  0  0  0  0  0  0  0  0  0  0
    5.9978    2.5942    0.0000 C   0  0  0  0  0  0  0  0  0  0  0  0
    7.6213    1.8124    0.0000 C   0  0  0  0  0  0  0  0  0  0  0  0
    4.4371    0.9974    0.0000 C   0  0  0  0  0  0  0  0  0  0  0  0
    3.8184   -1.6253    0.0000 C   0  0  0  0  0  0  0  0  0  0  0  0
    3.3270   -0.7139    0.0000 C   0  0  3  0  0  0  0  0  0  0  0  0
    7.0834   -1.2734    0.0000 C   0  0  0  0  0  0  0  0  0  0  0  0
    5.7108   -2.1625    0.0000 C   0  0  0  0  0  0  0  0  0  0  0  0
    4.8362   -2.6472    0.0000 C   0  0  0  0  0  0  0  0  0  0  0  0
    8.5962    2.0349    0.0000 C   0  0  0  0  0  0  0  0  0  0  0  0
    4.9990    1.0016    0.0000 H   0  0  0  0  0  0  0  0  0  0  0  0
    5.7368   -1.2674    0.0000 H   0  0  0  0  0  0  0  0  0  0  0  0
    6.1827   -1.1747    0.0000 H   0  0  0  0  0  0  0  0  0  0  0  0
    5.9832    2.0474    0.0000 H   0  0  0  0  0  0  0  0  0  0  0  0
    5.8209    1.3365    0.0000 H   0  0  0  0  0  0  0  0  0  0  0  0
    7.5367    0.2330    0.0000 H   0  0  0  0  0  0  0  0  0  0  0  0
    8.0188    0.8375    0.0000 H   0  0  0  0  0  0  0  0  0  0  0  0
    4.9878    2.2971    0.0000 H   0  0  0  0  0  0  0  0  0  0  0  0
    4.8157    1.5434    0.0000 H   0  0  0  0  0  0  0  0  0  0  0  0
    4.0104    0.7688    0.0000 H   0  0  0  0  0  0  0  0  0  0  0  0
    3.3035    0.3980    0.0000 H   0  0  0  0  0  0  0  0  0  0  0  0
    6.1358    3.1987    0.0000 H   0  0  0  0  0  0  0  0  0  0  0  0
    5.4392    2.8632    0.0000 H   0  0  0  0  0  0  0  0  0  0  0  0
    4.9828    1.2916    0.0000 H   0  0  0  0  0  0  0  0  0  0  0  0
    4.1428    1.5431    0.0000 H   0  0  0  0  0  0  0  0  0  0  0  0
    3.8914    0.7031    0.0000 H   0  0  0  0  0  0  0  0  0  0  0  0
    3.2304   -1.8218    0.0000 H   0  0  0  0  0  0  0  0  0  0  0  0
    3.9114   -2.2383    0.0000 H   0  0  0  0  0  0  0  0  0  0  0  0
    3.0005   -1.2410    0.0000 H   0  0  0  0  0  0  0  0  0  0  0  0
    5.3914   -2.6939    0.0000 H   0  0  0  0  0  0  0  0  0  0  0  0
    6.2422   -2.4818    0.0000 H   0  0  0  0  0  0  0  0  0  0  0  0
    6.0301   -1.6310    0.0000 H   0  0  0  0  0  0  0  0  0  0  0  0
    7.8128    3.7519    0.0000 H   0  0  0  0  0  0  0  0  0  0  0  0
    9.0179    1.5804    0.0000 H   0  0  0  0  0  0  0  0  0  0  0  0
    8.7790    2.6274    0.0000 H   0  0  0  0  0  0  0  0  0  0  0  0
    2.0000   -1.2074    0.0000 H   0  0  0  0  0  0  0  0  0  0  0  0
    8.4912   -1.4239    0.0000 H   0  0  0  0  0  0  0  0  0  0  0  0
    3.9507   -3.7519    0.0000 H   0  0  0  0  0  0  0  0  0  0  0  0
  1 13  1  0  0  0  0
  1 49  1  0  0  0  0
  2 22  1  0  0  0  0
  2 52  1  0  0  0  0
  3 23  1  0  0  0  0
  3 53  1  0  0  0  0
  4 23  2  0  0  0  0
  5 25  1  0  0  0  0
  5 54  1  0  0  0  0
  6 25  2  0  0  0  0
  7  8  1  0  0  0  0
  7 11  1  0  0  0  0
  7 12  1  0  0  0  0
  7 14  1  0  0  0  0
  8  9  1  0  0  0  0
  8 16  1  0  0  0  0
  8 27  1  0  0  0  0
  9 10  1  0  0  0  0
  9 17  1  0  0  0  0
  9 20  1  0  0  0  0
 10 11  1  0  0  0  0
 10 15  1  0  0  0  0
 10 28  1  0  0  0  0
 11 23  1  0  0  0  0
 11 29  1  0  0  0  0
 12 13  1  0  0  0  0
 12 30  1  0  0  0  0
 12 31  1  0  0  0  0
 13 18  1  0  0  0  0
 13 19  1  0  0  0  0
 14 19  1  0  0  0  0
 14 32  1  0  0  0  0
 14 33  1  0  0  0  0
 15 21  1  0  0  0  0
 15 24  1  0  0  0  0
 15 25  1  0  0  0  0
 16 18  1  0  0  0  0
 16 34  1  0  0  0  0
 16 35  1  0  0  0  0
 17 22  1  0  0  0  0
 17 36  1  0  0  0  0
 17 37  1  0  0  0  0
 18 38  1  0  0  0  0
 18 39  1  0  0  0  0
 19 26  2  0  0  0  0
 20 40  1  0  0  0  0
 20 41  1  0  0  0  0
 20 42  1  0  0  0  0
 21 22  1  0  0  0  0
 21 43  1  0  0  0  0
 21 44  1  0  0  0  0
 22 45  1  0  0  0  0
 24 46  1  0  0  0  0
 24 47  1  0  0  0  0
 24 48  1  0  0  0  0
 26 50  1  0  0  0  0
 26 51  1  0  0  0  0
M  END
>  <PUBCHEM_COMPOUND_CID>
74428114

>  <PUBCHEM_COMPOUND_CANONICALIZED>
1

>  <PUBCHEM_CACTVS_COMPLEXITY>
717

>  <PUBCHEM_CACTVS_HBOND_ACCEPTOR>
6

>  <PUBCHEM_CACTVS_HBOND_DONOR>
4

>  <PUBCHEM_CACTVS_ROTATABLE_BOND>
2

>  <PUBCHEM_CACTVS_SUBSKEYS>
AAADceB4OAAAAAAAAAAAAAAAAAAAAYMAAAAwYAAABgAAAGDAAAAAGgAACAAAD1SggAICCAAAAgCIAgDSCAAAAAAgAAAAAAEAAAgAFBIAAQAAQAAEgAAAEAHK7vTPgAAAAAAAAADAAAYAACAAAYAACAAAAA==

>  <PUBCHEM_IUPAC_INCHI>
InChI=1S/C20H28O6/c1-10-6-19-9-20(10,26)5-4-12(19)17(2)7-11(21)8-18(3,16(24)25)14(17)13(19)15(22)23/h11-14,21,26H,1,4-9H2,2-3H3,(H,22,23)(H,24,25)

>  <PUBCHEM_IUPAC_INCHIKEY>
DBFXNHHIIKEXPP-UHFFFAOYSA-N

>  <PUBCHEM_XLOGP3_AA>
0.9

>  <PUBCHEM_EXACT_MASS>
364.189

>  <PUBCHEM_MOLECULAR_FORMULA>
C20H28O6

>  <PUBCHEM_MOLECULAR_WEIGHT>
364.438

>  <PUBCHEM_OPENEYE_CAN_SMILES>
CC12CC(CC(C1C(C34C2CCC(C3)(C(=C)C4)O)C(=O)O)(C)C(=O)O)O

>  <PUBCHEM_OPENEYE_ISO_SMILES>
CC12CC(CC(C1C(C34C2CCC(C3)(C(=C)C4)O)C(=O)O)(C)C(=O)O)O

>  <PUBCHEM_CACTVS_TPSA>
115

>  <PUBCHEM_MONOISOTOPIC_WEIGHT>
364.189

>  <PUBCHEM_TOTAL_CHARGE>
0

>  <PUBCHEM_HEAVY_ATOM_COUNT>
26

>  <PUBCHEM_ATOM_DEF_STEREO_COUNT>
0

>  <PUBCHEM_ATOM_UDEF_STEREO_COUNT>
8

>  <PUBCHEM_BOND_DEF_STEREO_COUNT>
0

>  <PUBCHEM_BOND_UDEF_STEREO_COUNT>
0

>  <PUBCHEM_ISOTOPIC_ATOM_COUNT>
0

>  <PUBCHEM_COMPONENT_COUNT>
1

>  <PUBCHEM_CACTVS_TAUTO_COUNT>
1

>  <PUBCHEM_COORDINATE_TYPE>
1
5
255

>  <PUBCHEM_BONDANNOTATIONS>
13  1  3
10  11  3
11  23  3
15  24  3
22  2  3
7  12  3
8  16  3
9  20  3

$$$$
