74821607
 OpenBabel06101807152D

 78 84  0  0  1  0  0  0  0  0999 V2000
    3.8201    2.1241    0.0000 O   0  0  0  0  0  0  0  0  0  0  0  0
    5.3100    1.2408    0.0000 O   0  0  0  0  0  0  0  0  0  0  0  0
    4.2841   -4.1882    0.0000 C   0  0  3  0  0  0  0  0  0  0  0  0
    3.2841   -4.1882    0.0000 C   0  0  3  0  0  0  0  0  0  0  0  0
    3.7841   -5.0548    0.0000 C   0  0  3  0  0  0  0  0  0  0  0  0
    3.7841   -2.6494    0.0000 C   0  0  3  0  0  0  0  0  0  0  0  0
    2.9180   -2.1494    0.0000 C   0  0  3  0  0  0  0  0  0  0  0  0
    4.5931   -3.2372    0.0000 C   0  0  0  0  0  0  0  0  0  0  0  0
    2.9750   -3.2372    0.0000 C   0  0  0  0  0  0  0  0  0  0  0  0
    2.5123   -3.8521    0.0000 C   0  0  0  0  0  0  0  0  0  0  0  0
    2.9180   -1.1494    0.0000 C   0  0  3  0  0  0  0  0  0  0  0  0
    4.6501   -2.1494    0.0000 C   0  0  0  0  0  0  0  0  0  0  0  0
    5.2841   -4.1882    0.0000 C   0  0  0  0  0  0  0  0  0  0  0  0
    3.7841   -0.6494    0.0000 C   0  0  3  0  0  0  0  0  0  0  0  0
    4.6501   -1.1494    0.0000 C   0  0  0  0  0  0  0  0  0  0  0  0
    2.0080   -0.6425    0.0000 C   0  0  0  0  0  0  0  0  0  0  0  0
    3.8001    0.3921    0.0000 C   0  0  3  0  0  0  0  0  0  0  0  0
    2.0520   -1.6494    0.0000 C   0  0  0  0  0  0  0  0  0  0  0  0
    2.0000    0.3991    0.0000 C   0  0  0  0  0  0  0  0  0  0  0  0
    2.9021    0.9199    0.0000 C   0  0  0  0  0  0  0  0  0  0  0  0
    5.5450    4.0530    0.0000 C   0  0  3  0  0  0  0  0  0  0  0  0
    4.5493    3.9599    0.0000 C   0  0  3  0  0  0  0  0  0  0  0  0
    4.3301    2.9842    0.0000 C   0  0  3  0  0  0  0  0  0  0  0  0
    4.9666    4.8692    0.0000 C   0  0  0  0  0  0  0  0  0  0  0  0
    4.3101    1.2523    0.0000 C   0  0  0  0  0  0  0  0  0  0  0  0
    4.8000    0.3806    0.0000 C   0  0  0  0  0  0  0  0  0  0  0  0
    5.9411    3.1348    0.0000 C   0  0  0  0  0  0  0  0  0  0  0  0
    5.1903    2.4743    0.0000 C   0  0  0  0  0  0  0  0  0  0  0  0
    6.5407    4.1460    0.0000 C   0  0  0  0  0  0  0  0  0  0  0  0
    3.3544    3.2035    0.0000 C   0  0  0  0  0  0  0  0  0  0  0  0
    6.9579    5.0548    0.0000 C   0  0  0  0  0  0  0  0  0  0  0  0
    7.1190    3.3302    0.0000 C   0  0  0  0  0  0  0  0  0  0  0  0
    2.7176   -4.4403    0.0000 H   0  0  0  0  0  0  0  0  0  0  0  0
    3.8736   -5.6682    0.0000 H   0  0  0  0  0  0  0  0  0  0  0  0
    2.3023   -2.0770    0.0000 H   0  0  0  0  0  0  0  0  0  0  0  0
    5.1595   -3.4893    0.0000 H   0  0  0  0  0  0  0  0  0  0  0  0
    4.9031   -2.7002    0.0000 H   0  0  0  0  0  0  0  0  0  0  0  0
    2.6650   -2.7002    0.0000 H   0  0  0  0  0  0  0  0  0  0  0  0
    2.4086   -3.4893    0.0000 H   0  0  0  0  0  0  0  0  0  0  0  0
    1.9433   -3.6058    0.0000 H   0  0  0  0  0  0  0  0  0  0  0  0
    2.1710   -4.3697    0.0000 H   0  0  0  0  0  0  0  0  0  0  0  0
    4.8621   -2.7320    0.0000 H   0  0  0  0  0  0  0  0  0  0  0  0
    5.2607   -2.0417    0.0000 H   0  0  0  0  0  0  0  0  0  0  0  0
    5.2841   -4.8082    0.0000 H   0  0  0  0  0  0  0  0  0  0  0  0
    5.9041   -4.1882    0.0000 H   0  0  0  0  0  0  0  0  0  0  0  0
    5.2841   -3.5682    0.0000 H   0  0  0  0  0  0  0  0  0  0  0  0
    4.3234   -0.3435    0.0000 H   0  0  0  0  0  0  0  0  0  0  0  0
    5.2607   -1.2570    0.0000 H   0  0  0  0  0  0  0  0  0  0  0  0
    4.8621   -0.5668    0.0000 H   0  0  0  0  0  0  0  0  0  0  0  0
    1.3964   -0.5412    0.0000 H   0  0  0  0  0  0  0  0  0  0  0  0
    1.8035   -1.2278    0.0000 H   0  0  0  0  0  0  0  0  0  0  0  0
    1.7420   -1.1124    0.0000 H   0  0  0  0  0  0  0  0  0  0  0  0
    1.5151   -1.9594    0.0000 H   0  0  0  0  0  0  0  0  0  0  0  0
    2.3620   -2.1863    0.0000 H   0  0  0  0  0  0  0  0  0  0  0  0
    1.7864    0.9811    0.0000 H   0  0  0  0  0  0  0  0  0  0  0  0
    1.3900    0.2883    0.0000 H   0  0  0  0  0  0  0  0  0  0  0  0
    3.3030    1.3928    0.0000 H   0  0  0  0  0  0  0  0  0  0  0  0
    2.5048    1.3959    0.0000 H   0  0  0  0  0  0  0  0  0  0  0  0
    3.9619    4.1582    0.0000 H   0  0  0  0  0  0  0  0  0  0  0  0
    5.4024    5.3102    0.0000 H   0  0  0  0  0  0  0  0  0  0  0  0
    4.4566    5.2218    0.0000 H   0  0  0  0  0  0  0  0  0  0  0  0
    4.7929   -0.2394    0.0000 H   0  0  0  0  0  0  0  0  0  0  0  0
    5.4200    0.3734    0.0000 H   0  0  0  0  0  0  0  0  0  0  0  0
    4.8072    1.0005    0.0000 H   0  0  0  0  0  0  0  0  0  0  0  0
    6.2998    2.6290    0.0000 H   0  0  0  0  0  0  0  0  0  0  0  0
    6.4816    3.4385    0.0000 H   0  0  0  0  0  0  0  0  0  0  0  0
    4.8201    1.9769    0.0000 H   0  0  0  0  0  0  0  0  0  0  0  0
    5.6462    2.0541    0.0000 H   0  0  0  0  0  0  0  0  0  0  0  0
    6.2820    3.5825    0.0000 H   0  0  0  0  0  0  0  0  0  0  0  0
    3.4904    3.8084    0.0000 H   0  0  0  0  0  0  0  0  0  0  0  0
    2.7495    3.3394    0.0000 H   0  0  0  0  0  0  0  0  0  0  0  0
    3.2185    2.5985    0.0000 H   0  0  0  0  0  0  0  0  0  0  0  0
    7.5214    4.7960    0.0000 H   0  0  0  0  0  0  0  0  0  0  0  0
    7.2166    5.6182    0.0000 H   0  0  0  0  0  0  0  0  0  0  0  0
    6.3945    5.3135    0.0000 H   0  0  0  0  0  0  0  0  0  0  0  0
    6.6133    2.9716    0.0000 H   0  0  0  0  0  0  0  0  0  0  0  0
    7.4776    2.8244    0.0000 H   0  0  0  0  0  0  0  0  0  0  0  0
    7.6248    3.6888    0.0000 H   0  0  0  0  0  0  0  0  0  0  0  0
  1 23  1  0  0  0  0
  1 25  1  0  0  0  0
  2 25  2  0  0  0  0
  3  4  1  0  0  0  0
  3  5  1  0  0  0  0
  3  8  1  0  0  0  0
  3 13  1  0  0  0  0
  4  5  1  0  0  0  0
  4  9  1  0  0  0  0
  4 33  1  0  0  0  0
  5 10  1  0  0  0  0
  5 34  1  0  0  0  0
  6  7  1  0  0  0  0
  6  8  1  0  0  0  0
  6  9  1  0  0  0  0
  6 12  1  0  0  0  0
  7 10  1  0  0  0  0
  7 11  1  0  0  0  0
  7 35  1  0  0  0  0
  8 36  1  0  0  0  0
  8 37  1  0  0  0  0
  9 38  1  0  0  0  0
  9 39  1  0  0  0  0
 10 40  1  0  0  0  0
 10 41  1  0  0  0  0
 11 14  1  0  0  0  0
 11 16  1  0  0  0  0
 11 18  1  0  0  0  0
 12 15  1  0  0  0  0
 12 42  1  0  0  0  0
 12 43  1  0  0  0  0
 13 44  1  0  0  0  0
 13 45  1  0  0  0  0
 13 46  1  0  0  0  0
 14 15  1  0  0  0  0
 14 17  1  0  0  0  0
 14 47  1  0  0  0  0
 15 48  1  0  0  0  0
 15 49  1  0  0  0  0
 16 19  1  0  0  0  0
 16 50  1  0  0  0  0
 16 51  1  0  0  0  0
 17 20  1  0  0  0  0
 17 25  1  0  0  0  0
 17 26  1  0  0  0  0
 18 52  1  0  0  0  0
 18 53  1  0  0  0  0
 18 54  1  0  0  0  0
 19 20  1  0  0  0  0
 19 55  1  0  0  0  0
 19 56  1  0  0  0  0
 20 57  1  0  0  0  0
 20 58  1  0  0  0  0
 21 22  1  0  0  0  0
 21 24  1  0  0  0  0
 21 27  1  0  0  0  0
 21 29  1  0  0  0  0
 22 23  1  0  0  0  0
 22 24  1  0  0  0  0
 22 59  1  0  0  0  0
 23 28  1  0  0  0  0
 23 30  1  0  0  0  0
 24 60  1  0  0  0  0
 24 61  1  0  0  0  0
 26 62  1  0  0  0  0
 26 63  1  0  0  0  0
 26 64  1  0  0  0  0
 27 28  1  0  0  0  0
 27 65  1  0  0  0  0
 27 66  1  0  0  0  0
 28 67  1  0  0  0  0
 28 68  1  0  0  0  0
 29 31  1  0  0  0  0
 29 32  1  0  0  0  0
 29 69  1  0  0  0  0
 30 70  1  0  0  0  0
 30 71  1  0  0  0  0
 30 72  1  0  0  0  0
 31 73  1  0  0  0  0
 31 74  1  0  0  0  0
 31 75  1  0  0  0  0
 32 76  1  0  0  0  0
 32 77  1  0  0  0  0
 32 78  1  0  0  0  0
M  END
>  <PUBCHEM_COMPOUND_CID>
74821607

>  <PUBCHEM_COMPOUND_CANONICALIZED>
1

>  <PUBCHEM_CACTVS_COMPLEXITY>
893

>  <PUBCHEM_CACTVS_HBOND_ACCEPTOR>
2

>  <PUBCHEM_CACTVS_HBOND_DONOR>
0

>  <PUBCHEM_CACTVS_ROTATABLE_BOND>
4

>  <PUBCHEM_CACTVS_SUBSKEYS>
AAADcfB4MAAAAAAAAAAAAAAAGDAAAYMAAAAwYMGDAAAAAADAAAAAGgAAAAAAD0SAgAACCAAABAAIAACQCAAAAAAAAAAAAAEAAAAAABIAAAACAAAEAAAAAAGIyPCPgAAAAAAAAADAAAQAACAAAYAADAAAAA==

>  <PUBCHEM_IUPAC_INCHI>
InChI=1S/C30H46O2/c1-18(2)30-13-12-28(6,23(30)16-30)32-24(31)26(4)10-7-9-25(3)21(26)8-11-29-15-20-19(14-22(25)29)27(20,5)17-29/h18-23H,7-17H2,1-6H3

>  <PUBCHEM_IUPAC_INCHIKEY>
PLICBZQBAQRVRT-UHFFFAOYSA-N

>  <PUBCHEM_XLOGP3_AA>
8.5

>  <PUBCHEM_EXACT_MASS>
438.35

>  <PUBCHEM_MOLECULAR_FORMULA>
C30H46O2

>  <PUBCHEM_MOLECULAR_WEIGHT>
438.696

>  <PUBCHEM_OPENEYE_CAN_SMILES>
CC(C)C12CCC(C1C2)(C)OC(=O)C3(CCCC4(C3CCC56C4CC7C(C5)C7(C6)C)C)C

>  <PUBCHEM_OPENEYE_ISO_SMILES>
CC(C)C12CCC(C1C2)(C)OC(=O)C3(CCCC4(C3CCC56C4CC7C(C5)C7(C6)C)C)C

>  <PUBCHEM_CACTVS_TPSA>
26.3

>  <PUBCHEM_MONOISOTOPIC_WEIGHT>
438.35

>  <PUBCHEM_TOTAL_CHARGE>
0

>  <PUBCHEM_HEAVY_ATOM_COUNT>
32

>  <PUBCHEM_ATOM_DEF_STEREO_COUNT>
0

>  <PUBCHEM_ATOM_UDEF_STEREO_COUNT>
11

>  <PUBCHEM_BOND_DEF_STEREO_COUNT>
0

>  <PUBCHEM_BOND_UDEF_STEREO_COUNT>
0

>  <PUBCHEM_ISOTOPIC_ATOM_COUNT>
0

>  <PUBCHEM_COMPONENT_COUNT>
1

>  <PUBCHEM_CACTVS_TAUTO_COUNT>
1

>  <PUBCHEM_COORDINATE_TYPE>
1
5
255

>  <PUBCHEM_BONDANNOTATIONS>
11  18  3
14  15  3
17  26  3
21  29  3
22  24  3
23  30  3
3  13  3
4  9  3
5  10  3
6  12  3
7  10  3

$$$$
