74977109
 OpenBabel06101807152D

 81 85  0  0  1  0  0  0  0  0999 V2000
    6.8671   -2.7857    0.0000 O   0  0  0  0  0  0  0  0  0  0  0  0
    5.1350   -2.7857    0.0000 O   0  0  0  0  0  0  0  0  0  0  0  0
    6.8671    0.2143    0.0000 O   0  0  0  0  0  0  0  0  0  0  0  0
    5.1350   -1.7857    0.0000 O   0  0  0  0  0  0  0  0  0  0  0  0
    8.5991   -1.7857    0.0000 O   0  0  0  0  0  0  0  0  0  0  0  0
    8.5991    0.2143    0.0000 O   0  0  0  0  0  0  0  0  0  0  0  0
    6.8671   -4.7857    0.0000 O   0  0  0  0  0  0  0  0  0  0  0  0
    5.1350   -5.7857    0.0000 O   0  0  0  0  0  0  0  0  0  0  0  0
    3.4030   -4.7857    0.0000 O   0  0  0  0  0  0  0  0  0  0  0  0
    5.1350    1.2143    0.0000 O   0  0  0  0  0  0  0  0  0  0  0  0
    2.5369   -3.2857    0.0000 O   0  0  0  0  0  0  0  0  0  0  0  0
    9.4651    2.7143    0.0000 O   0  3  0  0  0  0  0  0  0  0  0  0
    5.9629    2.7112    0.0000 O   0  0  0  0  0  0  0  0  0  0  0  0
   11.1972   -1.2857    0.0000 O   0  0  0  0  0  0  0  0  0  0  0  0
   12.9292    1.7143    0.0000 O   0  0  0  0  0  0  0  0  0  0  0  0
    7.7210    5.7836    0.0000 O   0  0  0  0  0  0  0  0  0  0  0  0
   12.9292   -0.2857    0.0000 O   0  0  0  0  0  0  0  0  0  0  0  0
    6.8671   -1.7857    0.0000 C   0  0  3  0  0  0  0  0  0  0  0  0
    6.0010   -1.2857    0.0000 C   0  0  3  0  0  0  0  0  0  0  0  0
    7.7331   -1.2857    0.0000 C   0  0  3  0  0  0  0  0  0  0  0  0
    6.0010   -3.2857    0.0000 C   0  0  3  0  0  0  0  0  0  0  0  0
    6.0010   -0.2857    0.0000 C   0  0  3  0  0  0  0  0  0  0  0  0
    6.0010   -4.2857    0.0000 C   0  0  3  0  0  0  0  0  0  0  0  0
    5.1350   -4.7857    0.0000 C   0  0  3  0  0  0  0  0  0  0  0  0
    4.2690   -4.2857    0.0000 C   0  0  3  0  0  0  0  0  0  0  0  0
    7.7331   -0.2857    0.0000 C   0  0  3  0  0  0  0  0  0  0  0  0
    4.2690   -3.2857    0.0000 C   0  0  3  0  0  0  0  0  0  0  0  0
    5.1350    0.2143    0.0000 C   0  0  0  0  0  0  0  0  0  0  0  0
    3.4030   -2.7857    0.0000 C   0  0  0  0  0  0  0  0  0  0  0  0
    8.5991    1.2143    0.0000 C   0  0  0  0  0  0  0  0  0  0  0  0
    9.4651    1.7143    0.0000 C   0  0  0  0  0  0  0  0  0  0  0  0
    7.7331    1.7143    0.0000 C   0  0  0  0  0  0  0  0  0  0  0  0
    7.7331    2.7143    0.0000 C   0  0  0  0  0  0  0  0  0  0  0  0
   10.3312    1.2143    0.0000 C   0  0  0  0  0  0  0  0  0  0  0  0
    8.5991    3.2143    0.0000 C   0  0  0  0  0  0  0  0  0  0  0  0
    6.8231    3.2212    0.0000 C   0  0  0  0  0  0  0  0  0  0  0  0
    8.6152    4.2558    0.0000 C   0  0  0  0  0  0  0  0  0  0  0  0
   11.1972    1.7143    0.0000 C   0  0  0  0  0  0  0  0  0  0  0  0
   10.3312    0.2143    0.0000 C   0  0  0  0  0  0  0  0  0  0  0  0
    6.8151    4.2628    0.0000 C   0  0  0  0  0  0  0  0  0  0  0  0
    7.7171    4.7836    0.0000 C   0  0  0  0  0  0  0  0  0  0  0  0
   11.1972   -0.2857    0.0000 C   0  0  0  0  0  0  0  0  0  0  0  0
   12.0632    1.2143    0.0000 C   0  0  0  0  0  0  0  0  0  0  0  0
   12.0632    0.2143    0.0000 C   0  0  0  0  0  0  0  0  0  0  0  0
   12.0632   -1.7857    0.0000 C   0  0  0  0  0  0  0  0  0  0  0  0
   12.9292    2.7143    0.0000 C   0  0  0  0  0  0  0  0  0  0  0  0
    7.4040   -2.0957    0.0000 H   0  0  0  0  0  0  0  0  0  0  0  0
    6.0010   -1.9057    0.0000 H   0  0  0  0  0  0  0  0  0  0  0  0
    8.2700   -0.9757    0.0000 H   0  0  0  0  0  0  0  0  0  0  0  0
    6.0010   -2.6657    0.0000 H   0  0  0  0  0  0  0  0  0  0  0  0
    6.0010    0.3343    0.0000 H   0  0  0  0  0  0  0  0  0  0  0  0
    6.0010   -4.9057    0.0000 H   0  0  0  0  0  0  0  0  0  0  0  0
    4.5981   -5.0957    0.0000 H   0  0  0  0  0  0  0  0  0  0  0  0
    3.7320   -3.9757    0.0000 H   0  0  0  0  0  0  0  0  0  0  0  0
    7.7331    0.3343    0.0000 H   0  0  0  0  0  0  0  0  0  0  0  0
    4.2690   -2.6657    0.0000 H   0  0  0  0  0  0  0  0  0  0  0  0
    4.5244    0.3220    0.0000 H   0  0  0  0  0  0  0  0  0  0  0  0
    4.9230   -0.3683    0.0000 H   0  0  0  0  0  0  0  0  0  0  0  0
    3.8015   -2.3107    0.0000 H   0  0  0  0  0  0  0  0  0  0  0  0
    3.0044   -2.3107    0.0000 H   0  0  0  0  0  0  0  0  0  0  0  0
    4.5981   -1.4757    0.0000 H   0  0  0  0  0  0  0  0  0  0  0  0
    9.1360   -1.4757    0.0000 H   0  0  0  0  0  0  0  0  0  0  0  0
    6.8671   -5.4057    0.0000 H   0  0  0  0  0  0  0  0  0  0  0  0
    4.5981   -6.0957    0.0000 H   0  0  0  0  0  0  0  0  0  0  0  0
    3.4030   -5.4057    0.0000 H   0  0  0  0  0  0  0  0  0  0  0  0
    4.5981    1.5243    0.0000 H   0  0  0  0  0  0  0  0  0  0  0  0
    2.0000   -2.9757    0.0000 H   0  0  0  0  0  0  0  0  0  0  0  0
    7.1962    1.4043    0.0000 H   0  0  0  0  0  0  0  0  0  0  0  0
    9.1557    4.5596    0.0000 H   0  0  0  0  0  0  0  0  0  0  0  0
   11.1972    2.3343    0.0000 H   0  0  0  0  0  0  0  0  0  0  0  0
    9.7942   -0.0957    0.0000 H   0  0  0  0  0  0  0  0  0  0  0  0
    6.2769    4.5707    0.0000 H   0  0  0  0  0  0  0  0  0  0  0  0
    5.4224    3.0150    0.0000 H   0  0  0  0  0  0  0  0  0  0  0  0
    7.1852    6.0957    0.0000 H   0  0  0  0  0  0  0  0  0  0  0  0
   13.4662    0.0243    0.0000 H   0  0  0  0  0  0  0  0  0  0  0  0
   11.7532   -2.3226    0.0000 H   0  0  0  0  0  0  0  0  0  0  0  0
   12.6002   -2.0957    0.0000 H   0  0  0  0  0  0  0  0  0  0  0  0
   12.3732   -1.2487    0.0000 H   0  0  0  0  0  0  0  0  0  0  0  0
   13.5492    2.7143    0.0000 H   0  0  0  0  0  0  0  0  0  0  0  0
   12.9292    3.3343    0.0000 H   0  0  0  0  0  0  0  0  0  0  0  0
   12.3092    2.7143    0.0000 H   0  0  0  0  0  0  0  0  0  0  0  0
  1 18  1  0  0  0  0
  1 21  1  0  0  0  0
  2 21  1  0  0  0  0
  2 27  1  0  0  0  0
  3 22  1  0  0  0  0
  3 26  1  0  0  0  0
  4 19  1  0  0  0  0
  4 61  1  0  0  0  0
  5 20  1  0  0  0  0
  5 62  1  0  0  0  0
  6 26  1  0  0  0  0
  6 30  1  0  0  0  0
  7 23  1  0  0  0  0
  7 63  1  0  0  0  0
  8 24  1  0  0  0  0
  8 64  1  0  0  0  0
  9 25  1  0  0  0  0
  9 65  1  0  0  0  0
 10 28  1  0  0  0  0
 10 66  1  0  0  0  0
 11 29  1  0  0  0  0
 11 67  1  0  0  0  0
 12 31  2  0  0  0  0
 12 35  1  0  0  0  0
 13 36  1  0  0  0  0
 13 73  1  0  0  0  0
 14 42  1  0  0  0  0
 14 45  1  0  0  0  0
 15 43  1  0  0  0  0
 15 46  1  0  0  0  0
 16 41  1  0  0  0  0
 16 74  1  0  0  0  0
 17 44  1  0  0  0  0
 17 75  1  0  0  0  0
 18 19  1  0  0  0  0
 18 20  1  0  0  0  0
 18 47  1  0  0  0  0
 19 22  1  0  0  0  0
 19 48  1  0  0  0  0
 20 26  1  0  0  0  0
 20 49  1  0  0  0  0
 21 23  1  0  0  0  0
 21 50  1  0  0  0  0
 22 28  1  0  0  0  0
 22 51  1  0  0  0  0
 23 24  1  0  0  0  0
 23 52  1  0  0  0  0
 24 25  1  0  0  0  0
 24 53  1  0  0  0  0
 25 27  1  0  0  0  0
 25 54  1  0  0  0  0
 26 55  1  0  0  0  0
 27 29  1  0  0  0  0
 27 56  1  0  0  0  0
 28 57  1  0  0  0  0
 28 58  1  0  0  0  0
 29 59  1  0  0  0  0
 29 60  1  0  0  0  0
 30 31  1  0  0  0  0
 30 32  2  0  0  0  0
 31 34  1  0  0  0  0
 32 33  1  0  0  0  0
 32 68  1  0  0  0  0
 33 35  1  0  0  0  0
 33 36  2  0  0  0  0
 34 38  2  0  0  0  0
 34 39  1  0  0  0  0
 35 37  2  0  0  0  0
 36 40  1  0  0  0  0
 37 41  1  0  0  0  0
 37 69  1  0  0  0  0
 38 43  1  0  0  0  0
 38 70  1  0  0  0  0
 39 42  2  0  0  0  0
 39 71  1  0  0  0  0
 40 41  2  0  0  0  0
 40 72  1  0  0  0  0
 42 44  1  0  0  0  0
 43 44  2  0  0  0  0
 45 76  1  0  0  0  0
 45 77  1  0  0  0  0
 45 78  1  0  0  0  0
 46 79  1  0  0  0  0
 46 80  1  0  0  0  0
 46 81  1  0  0  0  0
M  CHG  1  12   1
M  END
>  <PUBCHEM_COMPOUND_CID>
74977109

>  <PUBCHEM_COMPOUND_CANONICALIZED>
1

>  <PUBCHEM_CACTVS_COMPLEXITY>
949

>  <PUBCHEM_CACTVS_HBOND_ACCEPTOR>
16

>  <PUBCHEM_CACTVS_HBOND_DONOR>
10

>  <PUBCHEM_CACTVS_ROTATABLE_BOND>
9

>  <PUBCHEM_CACTVS_SUBSKEYS>
AAADcfB4PgAAAAAAAAAAAAAAAAAAAAAAAAA0aJECAAAAAACR9AAAGgAACAAADBSwmAMyDsAABkCIAqBSAAICCAAkIAAAiAFGiMgdNzaGNR6ieWOl4BUPuYfK7PzOIAABCAAIQABAAAIQABCAAAAAAAAAAA==

>  <PUBCHEM_IUPAC_OPENEYE_NAME>
2-[2-[5,7-dihydroxy-2-(4-hydroxy-3,5-dimethoxy-phenyl)chromenylium-3-yl]oxy-3,5-dihydroxy-6-(hydroxymethyl)tetrahydropyran-4-yl]oxy-6-(hydroxymethyl)tetrahydropyran-3,4,5-triol

>  <PUBCHEM_IUPAC_CAS_NAME>
2-[[2-[[5,7-dihydroxy-2-(4-hydroxy-3,5-dimethoxyphenyl)-1-benzopyrylium-3-yl]oxy]-3,5-dihydroxy-6-(hydroxymethyl)-4-oxanyl]oxy]-6-(hydroxymethyl)oxane-3,4,5-triol

>  <PUBCHEM_IUPAC_NAME>
2-[2-[5,7-dihydroxy-2-(4-hydroxy-3,5-dimethoxyphenyl)chromenylium-3-yl]oxy-3,5-dihydroxy-6-(hydroxymethyl)oxan-4-yl]oxy-6-(hydroxymethyl)oxane-3,4,5-triol

>  <PUBCHEM_IUPAC_SYSTEMATIC_NAME>
2-[2-[2-(3,5-dimethoxy-4-oxidanyl-phenyl)-5,7-bis(oxidanyl)chromenylium-3-yl]oxy-6-(hydroxymethyl)-3,5-bis(oxidanyl)oxan-4-yl]oxy-6-(hydroxymethyl)oxane-3,4,5-triol

>  <PUBCHEM_IUPAC_TRADITIONAL_NAME>
2-[2-[[5,7-dihydroxy-2-(4-hydroxy-3,5-dimethoxy-phenyl)-1-benzopyrylium-3-yl]oxy]-3,5-dihydroxy-6-methylol-tetrahydropyran-4-yl]oxy-6-methylol-tetrahydropyran-3,4,5-triol

>  <PUBCHEM_IUPAC_INCHI>
InChI=1S/C29H34O17/c1-40-15-3-10(4-16(41-2)20(15)34)26-17(7-12-13(33)5-11(32)6-14(12)42-26)43-29-25(39)27(22(36)19(9-31)45-29)46-28-24(38)23(37)21(35)18(8-30)44-28/h3-7,18-19,21-25,27-31,35-39H,8-9H2,1-2H3,(H2-,32,33,34)/p+1

>  <PUBCHEM_IUPAC_INCHIKEY>
JEUXKMNBLUZESY-UHFFFAOYSA-O

>  <PUBCHEM_EXACT_MASS>
655.187

>  <PUBCHEM_MOLECULAR_FORMULA>
C29H35O17+

>  <PUBCHEM_MOLECULAR_WEIGHT>
655.582

>  <PUBCHEM_OPENEYE_CAN_SMILES>
COC1=CC(=CC(=C1O)OC)C2=C(C=C3C(=CC(=CC3=[O+]2)O)O)OC4C(C(C(C(O4)CO)O)OC5C(C(C(C(O5)CO)O)O)O)O

>  <PUBCHEM_OPENEYE_ISO_SMILES>
COC1=CC(=CC(=C1O)OC)C2=C(C=C3C(=CC(=CC3=[O+]2)O)O)OC4C(C(C(C(O4)CO)O)OC5C(C(C(C(O5)CO)O)O)O)O

>  <PUBCHEM_CACTVS_TPSA>
259

>  <PUBCHEM_MONOISOTOPIC_WEIGHT>
655.187

>  <PUBCHEM_TOTAL_CHARGE>
1

>  <PUBCHEM_HEAVY_ATOM_COUNT>
46

>  <PUBCHEM_ATOM_DEF_STEREO_COUNT>
0

>  <PUBCHEM_ATOM_UDEF_STEREO_COUNT>
10

>  <PUBCHEM_BOND_DEF_STEREO_COUNT>
0

>  <PUBCHEM_BOND_UDEF_STEREO_COUNT>
0

>  <PUBCHEM_ISOTOPIC_ATOM_COUNT>
0

>  <PUBCHEM_COMPONENT_COUNT>
1

>  <PUBCHEM_CACTVS_TAUTO_COUNT>
53

>  <PUBCHEM_COORDINATE_TYPE>
1
5
255

>  <PUBCHEM_BONDANNOTATIONS>
18  1  3
21  1  3
12  31  8
12  35  8
22  28  3
27  29  3
30  31  8
30  32  8
32  33  8
33  35  8
33  36  8
34  38  8
34  39  8
35  37  8
36  40  8
37  41  8
38  43  8
39  42  8
19  4  3
40  41  8
42  44  8
43  44  8
20  5  3
26  6  3
23  7  3
24  8  3
25  9  3

$$$$
