74976933
 OpenBabel06101807152D

 91 96  0  0  1  0  0  0  0  0999 V2000
    8.6565   -2.1383    0.0000 O   0  0  0  0  0  0  0  0  0  0  0  0
    6.9245   -0.1383    0.0000 O   0  0  0  0  0  0  0  0  0  0  0  0
    7.7905   -3.6383    0.0000 O   0  0  0  0  0  0  0  0  0  0  0  0
    8.6565   -0.1383    0.0000 O   0  0  0  0  0  0  0  0  0  0  0  0
    6.9245   -3.1383    0.0000 O   0  0  0  0  0  0  0  0  0  0  0  0
    5.1924   -2.1383    0.0000 O   0  0  0  0  0  0  0  0  0  0  0  0
    5.1370    3.8485    0.0000 O   0  0  0  0  0  0  0  0  0  0  0  0
   10.3886   -3.1383    0.0000 O   0  0  0  0  0  0  0  0  0  0  0  0
   10.3886   -5.1383    0.0000 O   0  0  0  0  0  0  0  0  0  0  0  0
    6.0203    2.3586    0.0000 O   0  0  0  0  0  0  0  0  0  0  0  0
    8.6565   -6.1383    0.0000 O   0  0  0  0  0  0  0  0  0  0  0  0
    4.3264   -0.6383    0.0000 O   0  0  0  0  0  0  0  0  0  0  0  0
    2.5564    2.3185    0.0000 O   0  0  0  0  0  0  0  0  0  0  0  0
    2.5333    4.3184    0.0000 O   0  0  0  0  0  0  0  0  0  0  0  0
    4.2999    1.3386    0.0000 O   0  0  0  0  0  0  0  0  0  0  0  0
    9.5226    2.3617    0.0000 O   0  3  0  0  0  0  0  0  0  0  0  0
    3.3819    5.8283    0.0000 O   0  0  0  0  0  0  0  0  0  0  0  0
    7.7784    5.4310    0.0000 O   0  0  0  0  0  0  0  0  0  0  0  0
   12.9867    1.3617    0.0000 O   0  0  0  0  0  0  0  0  0  0  0  0
   12.9867   -0.6383    0.0000 O   0  0  0  0  0  0  0  0  0  0  0  0
    7.7905   -1.6383    0.0000 C   0  0  3  0  0  0  0  0  0  0  0  0
    6.9245   -2.1383    0.0000 C   0  0  3  0  0  0  0  0  0  0  0  0
    6.0584   -1.6383    0.0000 C   0  0  3  0  0  0  0  0  0  0  0  0
    7.7905   -0.6383    0.0000 C   0  0  3  0  0  0  0  0  0  0  0  0
    6.0584   -0.6383    0.0000 C   0  0  3  0  0  0  0  0  0  0  0  0
    8.6565   -3.1383    0.0000 C   0  0  3  0  0  0  0  0  0  0  0  0
    9.5226   -3.6383    0.0000 C   0  0  3  0  0  0  0  0  0  0  0  0
    9.5226   -4.6383    0.0000 C   0  0  3  0  0  0  0  0  0  0  0  0
    8.6565   -5.1383    0.0000 C   0  0  3  0  0  0  0  0  0  0  0  0
    5.1924   -0.1383    0.0000 C   0  0  0  0  0  0  0  0  0  0  0  0
    7.7905   -4.6383    0.0000 C   0  0  0  0  0  0  0  0  0  0  0  0
    3.4166    2.8285    0.0000 C   0  0  3  0  0  0  0  0  0  0  0  0
    3.4051    3.8284    0.0000 C   0  0  3  0  0  0  0  0  0  0  0  0
    4.2884    2.3386    0.0000 C   0  0  3  0  0  0  0  0  0  0  0  0
    4.2652    4.3384    0.0000 C   0  0  3  0  0  0  0  0  0  0  0  0
    5.1486    2.8485    0.0000 C   0  0  3  0  0  0  0  0  0  0  0  0
    8.6565    0.8617    0.0000 C   0  0  0  0  0  0  0  0  0  0  0  0
    4.2537    5.3384    0.0000 C   0  0  0  0  0  0  0  0  0  0  0  0
    7.7905    2.3617    0.0000 C   0  0  0  0  0  0  0  0  0  0  0  0
    7.7905    1.3617    0.0000 C   0  0  0  0  0  0  0  0  0  0  0  0
    6.8805    2.8686    0.0000 C   0  0  0  0  0  0  0  0  0  0  0  0
    9.5226    1.3617    0.0000 C   0  0  0  0  0  0  0  0  0  0  0  0
    8.6565    2.8617    0.0000 C   0  0  0  0  0  0  0  0  0  0  0  0
    6.8725    3.9102    0.0000 C   0  0  0  0  0  0  0  0  0  0  0  0
   10.3886    0.8617    0.0000 C   0  0  0  0  0  0  0  0  0  0  0  0
    8.6726    3.9032    0.0000 C   0  0  0  0  0  0  0  0  0  0  0  0
    7.7746    4.4310    0.0000 C   0  0  0  0  0  0  0  0  0  0  0  0
   11.2546    1.3617    0.0000 C   0  0  0  0  0  0  0  0  0  0  0  0
   10.3886   -0.1383    0.0000 C   0  0  0  0  0  0  0  0  0  0  0  0
   12.1206    0.8617    0.0000 C   0  0  0  0  0  0  0  0  0  0  0  0
   11.2546   -0.6383    0.0000 C   0  0  0  0  0  0  0  0  0  0  0  0
   12.1206   -0.1383    0.0000 C   0  0  0  0  0  0  0  0  0  0  0  0
    7.7905   -2.2583    0.0000 H   0  0  0  0  0  0  0  0  0  0  0  0
    6.3875   -2.4483    0.0000 H   0  0  0  0  0  0  0  0  0  0  0  0
    5.5215   -1.3283    0.0000 H   0  0  0  0  0  0  0  0  0  0  0  0
    7.7905   -0.0183    0.0000 H   0  0  0  0  0  0  0  0  0  0  0  0
    6.0584   -0.0183    0.0000 H   0  0  0  0  0  0  0  0  0  0  0  0
    9.1935   -2.8283    0.0000 H   0  0  0  0  0  0  0  0  0  0  0  0
   10.0595   -3.9483    0.0000 H   0  0  0  0  0  0  0  0  0  0  0  0
    9.5226   -5.2583    0.0000 H   0  0  0  0  0  0  0  0  0  0  0  0
    8.1196   -5.4483    0.0000 H   0  0  0  0  0  0  0  0  0  0  0  0
    5.5910    0.3367    0.0000 H   0  0  0  0  0  0  0  0  0  0  0  0
    4.7939    0.3367    0.0000 H   0  0  0  0  0  0  0  0  0  0  0  0
    2.8761    3.1323    0.0000 H   0  0  0  0  0  0  0  0  0  0  0  0
    7.1799   -4.5306    0.0000 H   0  0  0  0  0  0  0  0  0  0  0  0
    7.5784   -5.2209    0.0000 H   0  0  0  0  0  0  0  0  0  0  0  0
    3.3979    4.4484    0.0000 H   0  0  0  0  0  0  0  0  0  0  0  0
    3.7551    2.0224    0.0000 H   0  0  0  0  0  0  0  0  0  0  0  0
    4.7986    4.6546    0.0000 H   0  0  0  0  0  0  0  0  0  0  0  0
    5.1557    2.2286    0.0000 H   0  0  0  0  0  0  0  0  0  0  0  0
    6.3875   -3.4483    0.0000 H   0  0  0  0  0  0  0  0  0  0  0  0
    5.1924   -2.7583    0.0000 H   0  0  0  0  0  0  0  0  0  0  0  0
    4.8655    5.2378    0.0000 H   0  0  0  0  0  0  0  0  0  0  0  0
    4.4590    5.9234    0.0000 H   0  0  0  0  0  0  0  0  0  0  0  0
   10.9255   -3.4483    0.0000 H   0  0  0  0  0  0  0  0  0  0  0  0
   10.3886   -5.7583    0.0000 H   0  0  0  0  0  0  0  0  0  0  0  0
    8.1196   -6.4483    0.0000 H   0  0  0  0  0  0  0  0  0  0  0  0
    7.2536    1.0517    0.0000 H   0  0  0  0  0  0  0  0  0  0  0  0
    3.7895   -0.3283    0.0000 H   0  0  0  0  0  0  0  0  0  0  0  0
    2.0160    2.6223    0.0000 H   0  0  0  0  0  0  0  0  0  0  0  0
    2.0000    4.0022    0.0000 H   0  0  0  0  0  0  0  0  0  0  0  0
    3.7666    1.0224    0.0000 H   0  0  0  0  0  0  0  0  0  0  0  0
    6.3343    4.2181    0.0000 H   0  0  0  0  0  0  0  0  0  0  0  0
    3.3748    6.4483    0.0000 H   0  0  0  0  0  0  0  0  0  0  0  0
    9.2131    4.2070    0.0000 H   0  0  0  0  0  0  0  0  0  0  0  0
   11.2546    1.9817    0.0000 H   0  0  0  0  0  0  0  0  0  0  0  0
    9.8516   -0.4483    0.0000 H   0  0  0  0  0  0  0  0  0  0  0  0
   11.2546   -1.2583    0.0000 H   0  0  0  0  0  0  0  0  0  0  0  0
    8.3165    5.7389    0.0000 H   0  0  0  0  0  0  0  0  0  0  0  0
   12.9867    1.9817    0.0000 H   0  0  0  0  0  0  0  0  0  0  0  0
   12.9867   -1.2583    0.0000 H   0  0  0  0  0  0  0  0  0  0  0  0
  1 21  1  0  0  0  0
  1 26  1  0  0  0  0
  2 24  1  0  0  0  0
  2 25  1  0  0  0  0
  3 26  1  0  0  0  0
  3 31  1  0  0  0  0
  4 24  1  0  0  0  0
  4 37  1  0  0  0  0
  5 22  1  0  0  0  0
  5 71  1  0  0  0  0
  6 23  1  0  0  0  0
  6 72  1  0  0  0  0
  7 35  1  0  0  0  0
  7 36  1  0  0  0  0
  8 27  1  0  0  0  0
  8 75  1  0  0  0  0
  9 28  1  0  0  0  0
  9 76  1  0  0  0  0
 10 36  1  0  0  0  0
 10 41  1  0  0  0  0
 11 29  1  0  0  0  0
 11 77  1  0  0  0  0
 12 30  1  0  0  0  0
 12 79  1  0  0  0  0
 13 32  1  0  0  0  0
 13 80  1  0  0  0  0
 14 33  1  0  0  0  0
 14 81  1  0  0  0  0
 15 34  1  0  0  0  0
 15 82  1  0  0  0  0
 16 42  1  0  0  0  0
 16 43  2  0  0  0  0
 17 38  1  0  0  0  0
 17 84  1  0  0  0  0
 18 47  1  0  0  0  0
 18 89  1  0  0  0  0
 19 50  1  0  0  0  0
 19 90  1  0  0  0  0
 20 52  1  0  0  0  0
 20 91  1  0  0  0  0
 21 22  1  0  0  0  0
 21 24  1  0  0  0  0
 21 53  1  0  0  0  0
 22 23  1  0  0  0  0
 22 54  1  0  0  0  0
 23 25  1  0  0  0  0
 23 55  1  0  0  0  0
 24 56  1  0  0  0  0
 25 30  1  0  0  0  0
 25 57  1  0  0  0  0
 26 27  1  0  0  0  0
 26 58  1  0  0  0  0
 27 28  1  0  0  0  0
 27 59  1  0  0  0  0
 28 29  1  0  0  0  0
 28 60  1  0  0  0  0
 29 31  1  0  0  0  0
 29 61  1  0  0  0  0
 30 62  1  0  0  0  0
 30 63  1  0  0  0  0
 31 65  1  0  0  0  0
 31 66  1  0  0  0  0
 32 33  1  0  0  0  0
 32 34  1  0  0  0  0
 32 64  1  0  0  0  0
 33 35  1  0  0  0  0
 33 67  1  0  0  0  0
 34 36  1  0  0  0  0
 34 68  1  0  0  0  0
 35 38  1  0  0  0  0
 35 69  1  0  0  0  0
 36 70  1  0  0  0  0
 37 40  1  0  0  0  0
 37 42  2  0  0  0  0
 38 73  1  0  0  0  0
 38 74  1  0  0  0  0
 39 40  2  0  0  0  0
 39 41  1  0  0  0  0
 39 43  1  0  0  0  0
 40 78  1  0  0  0  0
 41 44  2  0  0  0  0
 42 45  1  0  0  0  0
 43 46  1  0  0  0  0
 44 47  1  0  0  0  0
 44 83  1  0  0  0  0
 45 48  2  0  0  0  0
 45 49  1  0  0  0  0
 46 47  2  0  0  0  0
 46 85  1  0  0  0  0
 48 50  1  0  0  0  0
 48 86  1  0  0  0  0
 49 51  2  0  0  0  0
 49 87  1  0  0  0  0
 50 52  2  0  0  0  0
 51 52  1  0  0  0  0
 51 88  1  0  0  0  0
M  CHG  1  16   1
M  END
>  <PUBCHEM_COMPOUND_CID>
74976933

>  <PUBCHEM_COMPOUND_CANONICALIZED>
1

>  <PUBCHEM_CACTVS_COMPLEXITY>
1140

>  <PUBCHEM_CACTVS_HBOND_ACCEPTOR>
19

>  <PUBCHEM_CACTVS_HBOND_DONOR>
13

>  <PUBCHEM_CACTVS_ROTATABLE_BOND>
9

>  <PUBCHEM_CACTVS_SUBSKEYS>
AAADcfB8PgAAAAAAAAAAAAAAAAAAAAAAAAA0aJEiAAAAAACR9AAAGgAACAAADBSwmAMwDsAABkCIAqBSAAICCAAkIAAIiAFGiMgdNzaGNR6ieWOl4BUPuYfK7PzOIAABCAAIQABAAAIQABCAAAAAAAAAAA==

>  <PUBCHEM_IUPAC_OPENEYE_NAME>
2-[3-[4,5-dihydroxy-6-(hydroxymethyl)-3-(3,4,5-trihydroxytetrahydropyran-2-yl)oxy-tetrahydropyran-2-yl]oxy-2-(3,4-dihydroxyphenyl)-7-hydroxy-chromenylium-5-yl]oxy-6-(hydroxymethyl)tetrahydropyran-3,4,5-triol

>  <PUBCHEM_IUPAC_CAS_NAME>
2-[[3-[[4,5-dihydroxy-6-(hydroxymethyl)-3-[(3,4,5-trihydroxy-2-oxanyl)oxy]-2-oxanyl]oxy]-2-(3,4-dihydroxyphenyl)-7-hydroxy-1-benzopyrylium-5-yl]oxy]-6-(hydroxymethyl)oxane-3,4,5-triol

>  <PUBCHEM_IUPAC_NAME>
2-[3-[4,5-dihydroxy-6-(hydroxymethyl)-3-(3,4,5-trihydroxyoxan-2-yl)oxyoxan-2-yl]oxy-2-(3,4-dihydroxyphenyl)-7-hydroxychromenylium-5-yl]oxy-6-(hydroxymethyl)oxane-3,4,5-triol

>  <PUBCHEM_IUPAC_SYSTEMATIC_NAME>
2-[2-[3,4-bis(oxidanyl)phenyl]-3-[6-(hydroxymethyl)-4,5-bis(oxidanyl)-3-[3,4,5-tris(oxidanyl)oxan-2-yl]oxy-oxan-2-yl]oxy-7-oxidanyl-chromenylium-5-yl]oxy-6-(hydroxymethyl)oxane-3,4,5-triol

>  <PUBCHEM_IUPAC_TRADITIONAL_NAME>
2-[[3-[4,5-dihydroxy-6-methylol-3-(3,4,5-trihydroxytetrahydropyran-2-yl)oxy-tetrahydropyran-2-yl]oxy-2-(3,4-dihydroxyphenyl)-7-hydroxy-1-benzopyrylium-5-yl]oxy]-6-methylol-tetrahydropyran-3,4,5-triol

>  <PUBCHEM_IUPAC_INCHI>
InChI=1S/C32H38O20/c33-7-19-22(40)24(42)27(45)31(50-19)48-17-5-11(35)4-16-12(17)6-18(28(47-16)10-1-2-13(36)14(37)3-10)49-32-29(25(43)23(41)20(8-34)51-32)52-30-26(44)21(39)15(38)9-46-30/h1-6,15,19-27,29-34,38-45H,7-9H2,(H2-,35,36,37)/p+1

>  <PUBCHEM_IUPAC_INCHIKEY>
OLBLWNPOURNBCY-UHFFFAOYSA-O

>  <PUBCHEM_EXACT_MASS>
743.203

>  <PUBCHEM_MOLECULAR_FORMULA>
C32H39O20+

>  <PUBCHEM_MOLECULAR_WEIGHT>
743.644

>  <PUBCHEM_OPENEYE_CAN_SMILES>
C1C(C(C(C(O1)OC2C(C(C(OC2OC3=C([O+]=C4C=C(C=C(C4=C3)OC5C(C(C(C(O5)CO)O)O)O)O)C6=CC(=C(C=C6)O)O)CO)O)O)O)O)O

>  <PUBCHEM_OPENEYE_ISO_SMILES>
C1C(C(C(C(O1)OC2C(C(C(OC2OC3=C([O+]=C4C=C(C=C(C4=C3)OC5C(C(C(C(O5)CO)O)O)O)O)C6=CC(=C(C=C6)O)O)CO)O)O)O)O)O

>  <PUBCHEM_CACTVS_TPSA>
319

>  <PUBCHEM_MONOISOTOPIC_WEIGHT>
743.203

>  <PUBCHEM_TOTAL_CHARGE>
1

>  <PUBCHEM_HEAVY_ATOM_COUNT>
52

>  <PUBCHEM_ATOM_DEF_STEREO_COUNT>
0

>  <PUBCHEM_ATOM_UDEF_STEREO_COUNT>
14

>  <PUBCHEM_BOND_DEF_STEREO_COUNT>
0

>  <PUBCHEM_BOND_UDEF_STEREO_COUNT>
0

>  <PUBCHEM_ISOTOPIC_ATOM_COUNT>
0

>  <PUBCHEM_COMPONENT_COUNT>
1

>  <PUBCHEM_CACTVS_TAUTO_COUNT>
77

>  <PUBCHEM_COORDINATE_TYPE>
1
5
255

>  <PUBCHEM_BONDANNOTATIONS>
21  1  3
26  1  3
36  10  3
29  11  3
32  13  3
33  14  3
34  15  3
16  42  8
16  43  8
25  30  3
35  38  3
37  40  8
37  42  8
39  40  8
39  41  8
39  43  8
24  4  3
41  44  8
43  46  8
44  47  8
45  48  8
45  49  8
46  47  8
48  50  8
49  51  8
22  5  3
50  52  8
51  52  8
23  6  3
27  8  3
28  9  3

$$$$
