74977589
 OpenBabel06101807152D

 72 76  0  0  1  0  0  0  0  0999 V2000
    7.7331   -1.6725    0.0000 O   0  0  0  0  0  0  0  0  0  0  0  0
    4.2690   -1.6725    0.0000 O   0  0  0  0  0  0  0  0  0  0  0  0
    6.0010   -1.6725    0.0000 O   0  0  0  0  0  0  0  0  0  0  0  0
    8.5991    0.8275    0.0000 O   0  0  0  0  0  0  0  0  0  0  0  0
   10.3312   -0.1725    0.0000 O   0  0  0  0  0  0  0  0  0  0  0  0
   10.3312   -2.1725    0.0000 O   0  0  0  0  0  0  0  0  0  0  0  0
    6.0010   -3.6725    0.0000 O   0  0  0  0  0  0  0  0  0  0  0  0
    4.2690   -4.6725    0.0000 O   0  0  0  0  0  0  0  0  0  0  0  0
    2.5369   -3.6725    0.0000 O   0  0  0  0  0  0  0  0  0  0  0  0
    7.7771    1.3343    0.0000 O   0  0  0  0  0  0  0  0  0  0  0  0
    9.4651   -3.6725    0.0000 O   0  0  0  0  0  0  0  0  0  0  0  0
    4.2690    1.3275    0.0000 O   0  0  0  0  0  0  0  0  0  0  0  0
    5.1132    2.8589    0.0000 O   0  0  0  0  0  0  0  0  0  0  0  0
   11.2492    2.3626    0.0000 O   0  0  0  0  0  0  0  0  0  0  0  0
   11.2569    4.3625    0.0000 O   0  0  0  0  0  0  0  0  0  0  0  0
    7.7331   -0.6725    0.0000 C   0  0  3  0  0  0  0  0  0  0  0  0
    8.5991   -0.1725    0.0000 C   0  0  3  0  0  0  0  0  0  0  0  0
    9.4651   -0.6725    0.0000 C   0  0  3  0  0  0  0  0  0  0  0  0
    9.4651   -1.6725    0.0000 C   0  0  3  0  0  0  0  0  0  0  0  0
    8.5991   -2.1725    0.0000 C   0  0  3  0  0  0  0  0  0  0  0  0
    6.8671   -0.1725    0.0000 C   0  0  0  0  0  0  0  0  0  0  0  0
    5.1350   -3.1725    0.0000 C   0  0  3  0  0  0  0  0  0  0  0  0
    4.2690   -3.6725    0.0000 C   0  0  3  0  0  0  0  0  0  0  0  0
    5.1350   -2.1725    0.0000 C   0  0  3  0  0  0  0  0  0  0  0  0
    3.4030   -3.1725    0.0000 C   0  0  3  0  0  0  0  0  0  0  0  0
    3.4030   -2.1725    0.0000 C   0  0  3  0  0  0  0  0  0  0  0  0
    6.0010   -0.6725    0.0000 C   0  0  0  0  0  0  0  0  0  0  0  0
    8.5991   -3.1725    0.0000 C   0  0  0  0  0  0  0  0  0  0  0  0
    6.8671    0.8275    0.0000 C   0  0  0  0  0  0  0  0  0  0  0  0
    6.0010    1.3275    0.0000 C   0  0  0  0  0  0  0  0  0  0  0  0
    2.5369   -1.6725    0.0000 C   0  0  0  0  0  0  0  0  0  0  0  0
    5.1350   -0.1725    0.0000 C   0  0  0  0  0  0  0  0  0  0  0  0
    5.1350    0.8275    0.0000 C   0  0  0  0  0  0  0  0  0  0  0  0
    5.9850    2.3690    0.0000 C   0  0  0  0  0  0  0  0  0  0  0  0
    7.7851    2.3759    0.0000 C   0  0  0  0  0  0  0  0  0  0  0  0
    6.8830    2.8967    0.0000 C   0  0  0  0  0  0  0  0  0  0  0  0
    8.6530    2.8726    0.0000 C   0  0  0  0  0  0  0  0  0  0  0  0
    9.5171    2.3692    0.0000 C   0  0  0  0  0  0  0  0  0  0  0  0
    8.6569    3.8726    0.0000 C   0  0  0  0  0  0  0  0  0  0  0  0
   10.3851    2.8659    0.0000 C   0  0  0  0  0  0  0  0  0  0  0  0
    9.5248    4.3692    0.0000 C   0  0  0  0  0  0  0  0  0  0  0  0
   10.3889    3.8659    0.0000 C   0  0  0  0  0  0  0  0  0  0  0  0
    7.1962   -0.9825    0.0000 H   0  0  0  0  0  0  0  0  0  0  0  0
    8.0622    0.1375    0.0000 H   0  0  0  0  0  0  0  0  0  0  0  0
   10.0021   -0.9825    0.0000 H   0  0  0  0  0  0  0  0  0  0  0  0
    9.4651   -2.2925    0.0000 H   0  0  0  0  0  0  0  0  0  0  0  0
    8.0622   -2.4825    0.0000 H   0  0  0  0  0  0  0  0  0  0  0  0
    5.1350   -3.7925    0.0000 H   0  0  0  0  0  0  0  0  0  0  0  0
    3.7320   -3.9825    0.0000 H   0  0  0  0  0  0  0  0  0  0  0  0
    5.1350   -1.5525    0.0000 H   0  0  0  0  0  0  0  0  0  0  0  0
    2.8660   -2.8625    0.0000 H   0  0  0  0  0  0  0  0  0  0  0  0
    3.4030   -1.5525    0.0000 H   0  0  0  0  0  0  0  0  0  0  0  0
    7.9885   -3.0649    0.0000 H   0  0  0  0  0  0  0  0  0  0  0  0
    8.3871   -3.7552    0.0000 H   0  0  0  0  0  0  0  0  0  0  0  0
    9.1360    1.1375    0.0000 H   0  0  0  0  0  0  0  0  0  0  0  0
   10.8681   -0.4825    0.0000 H   0  0  0  0  0  0  0  0  0  0  0  0
   10.8681   -1.8625    0.0000 H   0  0  0  0  0  0  0  0  0  0  0  0
    2.8469   -1.1356    0.0000 H   0  0  0  0  0  0  0  0  0  0  0  0
    2.0000   -1.3625    0.0000 H   0  0  0  0  0  0  0  0  0  0  0  0
    2.2269   -2.2095    0.0000 H   0  0  0  0  0  0  0  0  0  0  0  0
    4.5981   -0.4825    0.0000 H   0  0  0  0  0  0  0  0  0  0  0  0
    6.0010   -4.2925    0.0000 H   0  0  0  0  0  0  0  0  0  0  0  0
    3.7320   -4.9825    0.0000 H   0  0  0  0  0  0  0  0  0  0  0  0
    2.0000   -3.3625    0.0000 H   0  0  0  0  0  0  0  0  0  0  0  0
    9.4651   -4.2925    0.0000 H   0  0  0  0  0  0  0  0  0  0  0  0
    6.8806    3.5167    0.0000 H   0  0  0  0  0  0  0  0  0  0  0  0
    3.7320    1.0175    0.0000 H   0  0  0  0  0  0  0  0  0  0  0  0
    9.5147    1.7492    0.0000 H   0  0  0  0  0  0  0  0  0  0  0  0
    8.1212    4.1846    0.0000 H   0  0  0  0  0  0  0  0  0  0  0  0
    9.5272    4.9892    0.0000 H   0  0  0  0  0  0  0  0  0  0  0  0
   11.7873    2.6705    0.0000 H   0  0  0  0  0  0  0  0  0  0  0  0
   11.2593    4.9825    0.0000 H   0  0  0  0  0  0  0  0  0  0  0  0
  1 16  1  0  0  0  0
  1 20  1  0  0  0  0
  2 24  1  0  0  0  0
  2 26  1  0  0  0  0
  3 24  1  0  0  0  0
  3 27  1  0  0  0  0
  4 17  1  0  0  0  0
  4 55  1  0  0  0  0
  5 18  1  0  0  0  0
  5 56  1  0  0  0  0
  6 19  1  0  0  0  0
  6 57  1  0  0  0  0
  7 22  1  0  0  0  0
  7 62  1  0  0  0  0
  8 23  1  0  0  0  0
  8 63  1  0  0  0  0
  9 25  1  0  0  0  0
  9 64  1  0  0  0  0
 10 29  1  0  0  0  0
 10 35  1  0  0  0  0
 11 28  1  0  0  0  0
 11 65  1  0  0  0  0
 12 33  1  0  0  0  0
 12 67  1  0  0  0  0
 13 34  2  0  0  0  0
 14 40  1  0  0  0  0
 14 71  1  0  0  0  0
 15 42  1  0  0  0  0
 15 72  1  0  0  0  0
 16 17  1  0  0  0  0
 16 21  1  0  0  0  0
 16 43  1  0  0  0  0
 17 18  1  0  0  0  0
 17 44  1  0  0  0  0
 18 19  1  0  0  0  0
 18 45  1  0  0  0  0
 19 20  1  0  0  0  0
 19 46  1  0  0  0  0
 20 28  1  0  0  0  0
 20 47  1  0  0  0  0
 21 27  2  0  0  0  0
 21 29  1  0  0  0  0
 22 23  1  0  0  0  0
 22 24  1  0  0  0  0
 22 48  1  0  0  0  0
 23 25  1  0  0  0  0
 23 49  1  0  0  0  0
 24 50  1  0  0  0  0
 25 26  1  0  0  0  0
 25 51  1  0  0  0  0
 26 31  1  0  0  0  0
 26 52  1  0  0  0  0
 27 32  1  0  0  0  0
 28 53  1  0  0  0  0
 28 54  1  0  0  0  0
 29 30  2  0  0  0  0
 30 33  1  0  0  0  0
 30 34  1  0  0  0  0
 31 58  1  0  0  0  0
 31 59  1  0  0  0  0
 31 60  1  0  0  0  0
 32 33  2  0  0  0  0
 32 61  1  0  0  0  0
 34 36  1  0  0  0  0
 35 36  2  0  0  0  0
 35 37  1  0  0  0  0
 36 66  1  0  0  0  0
 37 38  2  0  0  0  0
 37 39  1  0  0  0  0
 38 40  1  0  0  0  0
 38 68  1  0  0  0  0
 39 41  2  0  0  0  0
 39 69  1  0  0  0  0
 40 42  2  0  0  0  0
 41 42  1  0  0  0  0
 41 70  1  0  0  0  0
M  END
>  <PUBCHEM_COMPOUND_CID>
74977589

>  <PUBCHEM_COMPOUND_CANONICALIZED>
1

>  <PUBCHEM_CACTVS_COMPLEXITY>
995

>  <PUBCHEM_CACTVS_HBOND_ACCEPTOR>
15

>  <PUBCHEM_CACTVS_HBOND_DONOR>
10

>  <PUBCHEM_CACTVS_ROTATABLE_BOND>
5

>  <PUBCHEM_CACTVS_SUBSKEYS>
AAADceB4PAAAAAAAAAAAAAAAAAAAAAAAAAA0aIECAAAAAACBQAAAGgAACAAADBSwmAMyDoAABgCIAqBSAAACCAAkIAAIiAEGiMgdNzaGNRqieWGl4BUPuQfI7PzOIAADCAAIQABAAAYQABCAAAAAAAAAAA==

>  <PUBCHEM_IUPAC_OPENEYE_NAME>
2-(3,4-dihydroxyphenyl)-5-hydroxy-8-[3,4,5-trihydroxy-6-(hydroxymethyl)tetrahydropyran-2-yl]-7-(3,4,5-trihydroxy-6-methyl-tetrahydropyran-2-yl)oxy-chromen-4-one

>  <PUBCHEM_IUPAC_CAS_NAME>
2-(3,4-dihydroxyphenyl)-5-hydroxy-8-[3,4,5-trihydroxy-6-(hydroxymethyl)-2-oxanyl]-7-[(3,4,5-trihydroxy-6-methyl-2-oxanyl)oxy]-1-benzopyran-4-one

>  <PUBCHEM_IUPAC_NAME>
2-(3,4-dihydroxyphenyl)-5-hydroxy-8-[3,4,5-trihydroxy-6-(hydroxymethyl)oxan-2-yl]-7-(3,4,5-trihydroxy-6-methyloxan-2-yl)oxychromen-4-one

>  <PUBCHEM_IUPAC_SYSTEMATIC_NAME>
2-[3,4-bis(oxidanyl)phenyl]-8-[6-(hydroxymethyl)-3,4,5-tris(oxidanyl)oxan-2-yl]-7-[6-methyl-3,4,5-tris(oxidanyl)oxan-2-yl]oxy-5-oxidanyl-chromen-4-one

>  <PUBCHEM_IUPAC_TRADITIONAL_NAME>
2-(3,4-dihydroxyphenyl)-5-hydroxy-8-(3,4,5-trihydroxy-6-methylol-tetrahydropyran-2-yl)-7-(3,4,5-trihydroxy-6-methyl-tetrahydropyran-2-yl)oxy-chromone

>  <PUBCHEM_IUPAC_INCHI>
InChI=1S/C27H30O15/c1-8-19(33)21(35)24(38)27(39-8)42-15-6-13(32)17-12(31)5-14(9-2-3-10(29)11(30)4-9)40-25(17)18(15)26-23(37)22(36)20(34)16(7-28)41-26/h2-6,8,16,19-24,26-30,32-38H,7H2,1H3

>  <PUBCHEM_IUPAC_INCHIKEY>
WNHQLQDLHBPVNM-UHFFFAOYSA-N

>  <PUBCHEM_XLOGP3_AA>
-1.5

>  <PUBCHEM_EXACT_MASS>
594.158

>  <PUBCHEM_MOLECULAR_FORMULA>
C27H30O15

>  <PUBCHEM_MOLECULAR_WEIGHT>
594.522

>  <PUBCHEM_OPENEYE_CAN_SMILES>
CC1C(C(C(C(O1)OC2=C(C3=C(C(=C2)O)C(=O)C=C(O3)C4=CC(=C(C=C4)O)O)C5C(C(C(C(O5)CO)O)O)O)O)O)O

>  <PUBCHEM_OPENEYE_ISO_SMILES>
CC1C(C(C(C(O1)OC2=C(C3=C(C(=C2)O)C(=O)C=C(O3)C4=CC(=C(C=C4)O)O)C5C(C(C(C(O5)CO)O)O)O)O)O)O

>  <PUBCHEM_CACTVS_TPSA>
256

>  <PUBCHEM_MONOISOTOPIC_WEIGHT>
594.158

>  <PUBCHEM_TOTAL_CHARGE>
0

>  <PUBCHEM_HEAVY_ATOM_COUNT>
42

>  <PUBCHEM_ATOM_DEF_STEREO_COUNT>
0

>  <PUBCHEM_ATOM_UDEF_STEREO_COUNT>
10

>  <PUBCHEM_BOND_DEF_STEREO_COUNT>
0

>  <PUBCHEM_BOND_UDEF_STEREO_COUNT>
0

>  <PUBCHEM_ISOTOPIC_ATOM_COUNT>
0

>  <PUBCHEM_COMPONENT_COUNT>
1

>  <PUBCHEM_CACTVS_TAUTO_COUNT>
68

>  <PUBCHEM_COORDINATE_TYPE>
1
5
255

>  <PUBCHEM_BONDANNOTATIONS>
10  29  8
10  35  8
16  21  3
20  28  3
21  27  8
21  29  8
26  31  3
27  32  8
29  30  8
24  3  3
30  33  8
30  34  8
32  33  8
34  36  8
35  36  8
37  38  8
37  39  8
38  40  8
39  41  8
17  4  3
40  42  8
41  42  8
18  5  3
19  6  3
22  7  3
23  8  3
25  9  3

$$$$
