74977699
 OpenBabel06101807152D

 76 80  0  0  1  0  0  0  0  0999 V2000
    9.5236   -2.1142    0.0000 O   0  0  0  0  0  0  0  0  0  0  0  0
    6.0595   -2.1142    0.0000 O   0  0  0  0  0  0  0  0  0  0  0  0
    7.7916   -2.1142    0.0000 O   0  0  0  0  0  0  0  0  0  0  0  0
   10.3897    0.3858    0.0000 O   0  0  0  0  0  0  0  0  0  0  0  0
   12.1217   -0.6142    0.0000 O   0  0  0  0  0  0  0  0  0  0  0  0
   12.1217   -2.6142    0.0000 O   0  0  0  0  0  0  0  0  0  0  0  0
    6.0595   -5.1142    0.0000 O   0  0  0  0  0  0  0  0  0  0  0  0
    7.7916   -4.1142    0.0000 O   0  0  0  0  0  0  0  0  0  0  0  0
    4.3275   -4.1142    0.0000 O   0  0  0  0  0  0  0  0  0  0  0  0
   11.2557   -4.1142    0.0000 O   0  0  0  0  0  0  0  0  0  0  0  0
    9.5236    0.8858    0.0000 O   0  0  0  0  0  0  0  0  0  0  0  0
    6.0156    0.8926    0.0000 O   0  0  0  0  0  0  0  0  0  0  0  0
    3.4614   -2.6142    0.0000 O   0  0  0  0  0  0  0  0  0  0  0  0
    8.6794    2.4173    0.0000 O   0  0  0  0  0  0  0  0  0  0  0  0
    4.2639    4.9275    0.0000 O   0  0  0  0  0  0  0  0  0  0  0  0
    2.5357    3.9209    0.0000 O   0  0  0  0  0  0  0  0  0  0  0  0
    9.5236   -1.1142    0.0000 C   0  0  3  0  0  0  0  0  0  0  0  0
   10.3897   -0.6142    0.0000 C   0  0  3  0  0  0  0  0  0  0  0  0
   11.2557   -1.1142    0.0000 C   0  0  3  0  0  0  0  0  0  0  0  0
   11.2557   -2.1142    0.0000 C   0  0  3  0  0  0  0  0  0  0  0  0
   10.3897   -2.6142    0.0000 C   0  0  3  0  0  0  0  0  0  0  0  0
    8.6576   -0.6142    0.0000 C   0  0  0  0  0  0  0  0  0  0  0  0
    6.0595   -4.1142    0.0000 C   0  0  3  0  0  0  0  0  0  0  0  0
    6.9256   -3.6142    0.0000 C   0  0  3  0  0  0  0  0  0  0  0  0
    5.1935   -3.6142    0.0000 C   0  0  3  0  0  0  0  0  0  0  0  0
    6.9256   -2.6142    0.0000 C   0  0  3  0  0  0  0  0  0  0  0  0
    5.1935   -2.6142    0.0000 C   0  0  3  0  0  0  0  0  0  0  0  0
    7.7916   -1.1142    0.0000 C   0  0  0  0  0  0  0  0  0  0  0  0
   10.3897   -3.6142    0.0000 C   0  0  0  0  0  0  0  0  0  0  0  0
    8.6576    0.3858    0.0000 C   0  0  0  0  0  0  0  0  0  0  0  0
    4.3275   -2.1142    0.0000 C   0  0  0  0  0  0  0  0  0  0  0  0
    6.9256   -0.6142    0.0000 C   0  0  0  0  0  0  0  0  0  0  0  0
    7.7916    0.8858    0.0000 C   0  0  0  0  0  0  0  0  0  0  0  0
    6.9256    0.3858    0.0000 C   0  0  0  0  0  0  0  0  0  0  0  0
    7.8076    1.9273    0.0000 C   0  0  0  0  0  0  0  0  0  0  0  0
    6.0075    1.9342    0.0000 C   0  0  0  0  0  0  0  0  0  0  0  0
    6.9096    2.4551    0.0000 C   0  0  0  0  0  0  0  0  0  0  0  0
    5.1396    2.4309    0.0000 C   0  0  0  0  0  0  0  0  0  0  0  0
    5.1357    3.4309    0.0000 C   0  0  0  0  0  0  0  0  0  0  0  0
    4.2755    1.9276    0.0000 C   0  0  0  0  0  0  0  0  0  0  0  0
    4.2678    3.9276    0.0000 C   0  0  0  0  0  0  0  0  0  0  0  0
    3.4075    2.4242    0.0000 C   0  0  0  0  0  0  0  0  0  0  0  0
    3.4037    3.4242    0.0000 C   0  0  0  0  0  0  0  0  0  0  0  0
    3.3960    5.4242    0.0000 C   0  0  0  0  0  0  0  0  0  0  0  0
    9.5236   -0.4942    0.0000 H   0  0  0  0  0  0  0  0  0  0  0  0
   10.9266   -0.3042    0.0000 H   0  0  0  0  0  0  0  0  0  0  0  0
   11.7926   -1.4242    0.0000 H   0  0  0  0  0  0  0  0  0  0  0  0
   11.2557   -2.7342    0.0000 H   0  0  0  0  0  0  0  0  0  0  0  0
    9.8527   -2.9242    0.0000 H   0  0  0  0  0  0  0  0  0  0  0  0
    6.5965   -4.4242    0.0000 H   0  0  0  0  0  0  0  0  0  0  0  0
    7.4625   -3.3042    0.0000 H   0  0  0  0  0  0  0  0  0  0  0  0
    5.1935   -4.2342    0.0000 H   0  0  0  0  0  0  0  0  0  0  0  0
    6.9256   -1.9942    0.0000 H   0  0  0  0  0  0  0  0  0  0  0  0
    5.1935   -1.9942    0.0000 H   0  0  0  0  0  0  0  0  0  0  0  0
    9.7791   -3.5065    0.0000 H   0  0  0  0  0  0  0  0  0  0  0  0
   10.1776   -4.1968    0.0000 H   0  0  0  0  0  0  0  0  0  0  0  0
    4.7260   -1.6393    0.0000 H   0  0  0  0  0  0  0  0  0  0  0  0
    3.9290   -1.6393    0.0000 H   0  0  0  0  0  0  0  0  0  0  0  0
   10.9266    0.6958    0.0000 H   0  0  0  0  0  0  0  0  0  0  0  0
   12.6586   -0.9242    0.0000 H   0  0  0  0  0  0  0  0  0  0  0  0
   12.6586   -2.3042    0.0000 H   0  0  0  0  0  0  0  0  0  0  0  0
    6.3886   -0.9242    0.0000 H   0  0  0  0  0  0  0  0  0  0  0  0
    5.5226   -5.4242    0.0000 H   0  0  0  0  0  0  0  0  0  0  0  0
    7.7916   -4.7342    0.0000 H   0  0  0  0  0  0  0  0  0  0  0  0
    4.3275   -4.7342    0.0000 H   0  0  0  0  0  0  0  0  0  0  0  0
   11.2557   -4.7342    0.0000 H   0  0  0  0  0  0  0  0  0  0  0  0
    9.5236    1.5058    0.0000 H   0  0  0  0  0  0  0  0  0  0  0  0
    2.9245   -2.3042    0.0000 H   0  0  0  0  0  0  0  0  0  0  0  0
    6.9120    3.0750    0.0000 H   0  0  0  0  0  0  0  0  0  0  0  0
    5.6715    3.7430    0.0000 H   0  0  0  0  0  0  0  0  0  0  0  0
    4.2779    1.3076    0.0000 H   0  0  0  0  0  0  0  0  0  0  0  0
    2.8718    2.1122    0.0000 H   0  0  0  0  0  0  0  0  0  0  0  0
    2.0000    3.6088    0.0000 H   0  0  0  0  0  0  0  0  0  0  0  0
    3.7039    5.9623    0.0000 H   0  0  0  0  0  0  0  0  0  0  0  0
    2.8578    5.7321    0.0000 H   0  0  0  0  0  0  0  0  0  0  0  0
    3.0880    4.8861    0.0000 H   0  0  0  0  0  0  0  0  0  0  0  0
  1 17  1  0  0  0  0
  1 21  1  0  0  0  0
  2 26  1  0  0  0  0
  2 27  1  0  0  0  0
  3 26  1  0  0  0  0
  3 28  1  0  0  0  0
  4 18  1  0  0  0  0
  4 59  1  0  0  0  0
  5 19  1  0  0  0  0
  5 60  1  0  0  0  0
  6 20  1  0  0  0  0
  6 61  1  0  0  0  0
  7 23  1  0  0  0  0
  7 63  1  0  0  0  0
  8 24  1  0  0  0  0
  8 64  1  0  0  0  0
  9 25  1  0  0  0  0
  9 65  1  0  0  0  0
 10 29  1  0  0  0  0
 10 66  1  0  0  0  0
 11 30  1  0  0  0  0
 11 67  1  0  0  0  0
 12 34  1  0  0  0  0
 12 36  1  0  0  0  0
 13 31  1  0  0  0  0
 13 68  1  0  0  0  0
 14 35  2  0  0  0  0
 15 41  1  0  0  0  0
 15 44  1  0  0  0  0
 16 43  1  0  0  0  0
 16 73  1  0  0  0  0
 17 18  1  0  0  0  0
 17 22  1  0  0  0  0
 17 45  1  0  0  0  0
 18 19  1  0  0  0  0
 18 46  1  0  0  0  0
 19 20  1  0  0  0  0
 19 47  1  0  0  0  0
 20 21  1  0  0  0  0
 20 48  1  0  0  0  0
 21 29  1  0  0  0  0
 21 49  1  0  0  0  0
 22 28  2  0  0  0  0
 22 30  1  0  0  0  0
 23 24  1  0  0  0  0
 23 25  1  0  0  0  0
 23 50  1  0  0  0  0
 24 26  1  0  0  0  0
 24 51  1  0  0  0  0
 25 27  1  0  0  0  0
 25 52  1  0  0  0  0
 26 53  1  0  0  0  0
 27 31  1  0  0  0  0
 27 54  1  0  0  0  0
 28 32  1  0  0  0  0
 29 55  1  0  0  0  0
 29 56  1  0  0  0  0
 30 33  2  0  0  0  0
 31 57  1  0  0  0  0
 31 58  1  0  0  0  0
 32 34  2  0  0  0  0
 32 62  1  0  0  0  0
 33 34  1  0  0  0  0
 33 35  1  0  0  0  0
 35 37  1  0  0  0  0
 36 37  2  0  0  0  0
 36 38  1  0  0  0  0
 37 69  1  0  0  0  0
 38 39  2  0  0  0  0
 38 40  1  0  0  0  0
 39 41  1  0  0  0  0
 39 70  1  0  0  0  0
 40 42  2  0  0  0  0
 40 71  1  0  0  0  0
 41 43  2  0  0  0  0
 42 43  1  0  0  0  0
 42 72  1  0  0  0  0
 44 74  1  0  0  0  0
 44 75  1  0  0  0  0
 44 76  1  0  0  0  0
M  END
>  <PUBCHEM_COMPOUND_CID>
74977699

>  <PUBCHEM_COMPOUND_CANONICALIZED>
1

>  <PUBCHEM_CACTVS_COMPLEXITY>
1030

>  <PUBCHEM_CACTVS_HBOND_ACCEPTOR>
16

>  <PUBCHEM_CACTVS_HBOND_DONOR>
10

>  <PUBCHEM_CACTVS_ROTATABLE_BOND>
7

>  <PUBCHEM_CACTVS_SUBSKEYS>
AAADcfB4PgAAAAAAAAAAAAAAAAAAAAAAAAA0aIECAAAAAACBQAAAGgAACAAADBSwmAMyDoAABgCIAqBSAAACCAAkIAAIiAEGiMgdNzaGNRqieWOl4BUPuQfI7PzOIAADCAAIQABAAAYQABCAAAAAAAAAAA==

>  <PUBCHEM_IUPAC_OPENEYE_NAME>
5-hydroxy-2-(4-hydroxy-3-methoxy-phenyl)-6-[3,4,5-trihydroxy-6-(hydroxymethyl)tetrahydropyran-2-yl]-7-[3,4,5-trihydroxy-6-(hydroxymethyl)tetrahydropyran-2-yl]oxy-chromen-4-one

>  <PUBCHEM_IUPAC_CAS_NAME>
5-hydroxy-2-(4-hydroxy-3-methoxyphenyl)-6-[3,4,5-trihydroxy-6-(hydroxymethyl)-2-oxanyl]-7-[[3,4,5-trihydroxy-6-(hydroxymethyl)-2-oxanyl]oxy]-1-benzopyran-4-one

>  <PUBCHEM_IUPAC_NAME>
5-hydroxy-2-(4-hydroxy-3-methoxyphenyl)-6-[3,4,5-trihydroxy-6-(hydroxymethyl)oxan-2-yl]-7-[3,4,5-trihydroxy-6-(hydroxymethyl)oxan-2-yl]oxychromen-4-one

>  <PUBCHEM_IUPAC_SYSTEMATIC_NAME>
6-[6-(hydroxymethyl)-3,4,5-tris(oxidanyl)oxan-2-yl]-7-[6-(hydroxymethyl)-3,4,5-tris(oxidanyl)oxan-2-yl]oxy-2-(3-methoxy-4-oxidanyl-phenyl)-5-oxidanyl-chromen-4-one

>  <PUBCHEM_IUPAC_TRADITIONAL_NAME>
5-hydroxy-2-(4-hydroxy-3-methoxy-phenyl)-6-(3,4,5-trihydroxy-6-methylol-tetrahydropyran-2-yl)-7-(3,4,5-trihydroxy-6-methylol-tetrahydropyran-2-yl)oxy-chromone

>  <PUBCHEM_IUPAC_INCHI>
InChI=1S/C28H32O16/c1-40-13-4-9(2-3-10(13)31)12-5-11(32)18-14(41-12)6-15(43-28-26(39)24(37)21(34)17(8-30)44-28)19(22(18)35)27-25(38)23(36)20(33)16(7-29)42-27/h2-6,16-17,20-21,23-31,33-39H,7-8H2,1H3

>  <PUBCHEM_IUPAC_INCHIKEY>
OIGSSDJKYJBKMU-UHFFFAOYSA-N

>  <PUBCHEM_XLOGP3_AA>
-1.6

>  <PUBCHEM_EXACT_MASS>
624.169

>  <PUBCHEM_MOLECULAR_FORMULA>
C28H32O16

>  <PUBCHEM_MOLECULAR_WEIGHT>
624.548

>  <PUBCHEM_OPENEYE_CAN_SMILES>
COC1=C(C=CC(=C1)C2=CC(=O)C3=C(C(=C(C=C3O2)OC4C(C(C(C(O4)CO)O)O)O)C5C(C(C(C(O5)CO)O)O)O)O)O

>  <PUBCHEM_OPENEYE_ISO_SMILES>
COC1=C(C=CC(=C1)C2=CC(=O)C3=C(C(=C(C=C3O2)OC4C(C(C(C(O4)CO)O)O)O)C5C(C(C(C(O5)CO)O)O)O)O)O

>  <PUBCHEM_CACTVS_TPSA>
266

>  <PUBCHEM_MONOISOTOPIC_WEIGHT>
624.169

>  <PUBCHEM_TOTAL_CHARGE>
0

>  <PUBCHEM_HEAVY_ATOM_COUNT>
44

>  <PUBCHEM_ATOM_DEF_STEREO_COUNT>
0

>  <PUBCHEM_ATOM_UDEF_STEREO_COUNT>
10

>  <PUBCHEM_BOND_DEF_STEREO_COUNT>
0

>  <PUBCHEM_BOND_UDEF_STEREO_COUNT>
0

>  <PUBCHEM_ISOTOPIC_ATOM_COUNT>
0

>  <PUBCHEM_COMPONENT_COUNT>
1

>  <PUBCHEM_CACTVS_TAUTO_COUNT>
29

>  <PUBCHEM_COORDINATE_TYPE>
1
5
255

>  <PUBCHEM_BONDANNOTATIONS>
12  34  8
12  36  8
17  22  3
21  29  3
22  28  8
22  30  8
27  31  3
28  32  8
26  3  3
30  33  8
32  34  8
33  34  8
33  35  8
35  37  8
36  37  8
38  39  8
38  40  8
39  41  8
18  4  3
40  42  8
41  43  8
42  43  8
19  5  3
20  6  3
23  7  3
24  8  3
25  9  3

$$$$
