74977387
 OpenBabel06101807152D

 45 48  0  0  1  0  0  0  0  0999 V2000
    6.3687    0.1005    0.0000 O   0  0  0  0  0  0  0  0  0  0  0  0
    8.5127    2.1690    0.0000 O   0  0  0  0  0  0  0  0  0  0  0  0
    2.8792    1.0048    0.0000 O   0  0  0  0  0  0  0  0  0  0  0  0
    2.6048    0.0137    0.0000 O   0  0  0  0  0  0  0  0  0  0  0  0
   11.1523   -0.1752    0.0000 O   0  0  0  0  0  0  0  0  0  0  0  0
    6.8654    1.6338    0.0000 C   0  0  3  0  0  0  0  0  0  0  0  0
    7.1744    0.6827    0.0000 C   0  0  3  0  0  0  0  0  0  0  0  0
    5.8713    1.6312    0.0000 C   0  0  0  0  0  0  0  0  0  0  0  0
    7.5346    2.3769    0.0000 C   0  0  0  0  0  0  0  0  0  0  0  0
    5.5650    0.6855    0.0000 C   0  0  0  0  0  0  0  0  0  0  0  0
    8.1526    0.4748    0.0000 C   0  0  0  0  0  0  0  0  0  0  0  0
    4.5558    0.4538    0.0000 C   0  0  0  0  0  0  0  0  0  0  0  0
    8.8217    1.2180    0.0000 C   0  0  0  0  0  0  0  0  0  0  0  0
    5.1898    2.4107    0.0000 C   0  0  0  0  0  0  0  0  0  0  0  0
    4.2586   -0.5011    0.0000 C   0  0  0  0  0  0  0  0  0  0  0  0
    3.8564    1.2173    0.0000 C   0  0  0  0  0  0  0  0  0  0  0  0
    8.4592   -0.5207    0.0000 C   0  0  0  0  0  0  0  0  0  0  0  0
    4.1755    2.2024    0.0000 C   0  0  0  0  0  0  0  0  0  0  0  0
    9.8438    1.0171    0.0000 C   0  0  0  0  0  0  0  0  0  0  0  0
    3.2831   -0.7211    0.0000 C   0  0  3  0  0  0  0  0  0  0  0  0
    9.4763   -0.7451    0.0000 C   0  0  0  0  0  0  0  0  0  0  0  0
   10.1733    0.0290    0.0000 C   0  0  0  0  0  0  0  0  0  0  0  0
    2.9859   -1.6759    0.0000 C   0  0  0  0  0  0  0  0  0  0  0  0
    2.0105   -1.8960    0.0000 C   0  0  0  0  0  0  0  0  0  0  0  0
    3.6643   -2.4107    0.0000 C   0  0  0  0  0  0  0  0  0  0  0  0
    6.6125    2.1999    0.0000 H   0  0  0  0  0  0  0  0  0  0  0  0
    7.3026    0.0761    0.0000 H   0  0  0  0  0  0  0  0  0  0  0  0
    7.7668    2.9518    0.0000 H   0  0  0  0  0  0  0  0  0  0  0  0
    7.0088    2.7055    0.0000 H   0  0  0  0  0  0  0  0  0  0  0  0
    5.3876    2.9983    0.0000 H   0  0  0  0  0  0  0  0  0  0  0  0
    4.2879   -1.1204    0.0000 H   0  0  0  0  0  0  0  0  0  0  0  0
    4.8736   -0.5797    0.0000 H   0  0  0  0  0  0  0  0  0  0  0  0
    8.0390   -0.9766    0.0000 H   0  0  0  0  0  0  0  0  0  0  0  0
    3.7620    2.6644    0.0000 H   0  0  0  0  0  0  0  0  0  0  0  0
    3.4674   -0.1291    0.0000 H   0  0  0  0  0  0  0  0  0  0  0  0
   10.2533    1.4826    0.0000 H   0  0  0  0  0  0  0  0  0  0  0  0
    9.6656   -1.3355    0.0000 H   0  0  0  0  0  0  0  0  0  0  0  0
    2.4622    1.4636    0.0000 H   0  0  0  0  0  0  0  0  0  0  0  0
    2.0000   -0.1228    0.0000 H   0  0  0  0  0  0  0  0  0  0  0  0
    1.8740   -1.2912    0.0000 H   0  0  0  0  0  0  0  0  0  0  0  0
    1.4056   -2.0324    0.0000 H   0  0  0  0  0  0  0  0  0  0  0  0
    2.1469   -2.5008    0.0000 H   0  0  0  0  0  0  0  0  0  0  0  0
   11.3461   -0.7641    0.0000 H   0  0  0  0  0  0  0  0  0  0  0  0
    3.4800   -3.0027    0.0000 H   0  0  0  0  0  0  0  0  0  0  0  0
    4.2691   -2.2743    0.0000 H   0  0  0  0  0  0  0  0  0  0  0  0
  1  7  1  0  0  0  0
  1 10  1  0  0  0  0
  2  9  1  0  0  0  0
  2 13  1  0  0  0  0
  3 16  1  0  0  0  0
  3 38  1  0  0  0  0
  4 20  1  0  0  0  0
  4 39  1  0  0  0  0
  5 22  1  0  0  0  0
  5 43  1  0  0  0  0
  6  7  1  0  0  0  0
  6  8  1  0  0  0  0
  6  9  1  0  0  0  0
  6 26  1  0  0  0  0
  7 11  1  0  0  0  0
  7 27  1  0  0  0  0
  8 10  2  0  0  0  0
  8 14  1  0  0  0  0
  9 28  1  0  0  0  0
  9 29  1  0  0  0  0
 10 12  1  0  0  0  0
 11 13  2  0  0  0  0
 11 17  1  0  0  0  0
 12 15  1  0  0  0  0
 12 16  2  0  0  0  0
 13 19  1  0  0  0  0
 14 18  2  0  0  0  0
 14 30  1  0  0  0  0
 15 20  1  0  0  0  0
 15 31  1  0  0  0  0
 15 32  1  0  0  0  0
 16 18  1  0  0  0  0
 17 21  2  0  0  0  0
 17 33  1  0  0  0  0
 18 34  1  0  0  0  0
 19 22  2  0  0  0  0
 19 36  1  0  0  0  0
 20 23  1  0  0  0  0
 20 35  1  0  0  0  0
 21 22  1  0  0  0  0
 21 37  1  0  0  0  0
 23 24  1  0  0  0  0
 23 25  2  0  0  0  0
 24 40  1  0  0  0  0
 24 41  1  0  0  0  0
 24 42  1  0  0  0  0
 25 44  1  0  0  0  0
 25 45  1  0  0  0  0
M  END
>  <PUBCHEM_COMPOUND_CID>
74977387

>  <PUBCHEM_COMPOUND_CANONICALIZED>
1

>  <PUBCHEM_CACTVS_COMPLEXITY>
508

>  <PUBCHEM_CACTVS_HBOND_ACCEPTOR>
5

>  <PUBCHEM_CACTVS_HBOND_DONOR>
3

>  <PUBCHEM_CACTVS_ROTATABLE_BOND>
3

>  <PUBCHEM_CACTVS_SUBSKEYS>
AAADceB4OAAAAAAAAAAAAAAAAAAAASAAAAA0YIAAAAAAAEiRQAAAGgAACAAADRSgmAIyBoAABgCAAiBCAAACCAAgIAAIiAAGCIgMNyKGMRqCeCClwBUIuAfA4PwOoAACCAAIAABAAAQQABAAAAAAAAAAAA==

>  <PUBCHEM_IUPAC_OPENEYE_NAME>
10-(2-hydroxy-3-methyl-but-3-enyl)-6a,11a-dihydro-6H-benzofuro[3,2-c]chromene-3,9-diol

>  <PUBCHEM_IUPAC_CAS_NAME>
10-(2-hydroxy-3-methylbut-3-enyl)-6a,11a-dihydro-6H-benzofuro[3,2-c][1]benzopyran-3,9-diol

>  <PUBCHEM_IUPAC_NAME>
10-(2-hydroxy-3-methylbut-3-enyl)-6a,11a-dihydro-6H-[1]benzofuro[3,2-c]chromene-3,9-diol

>  <PUBCHEM_IUPAC_SYSTEMATIC_NAME>
10-(3-methyl-2-oxidanyl-but-3-enyl)-6a,11a-dihydro-6H-[1]benzofuro[3,2-c]chromene-3,9-diol

>  <PUBCHEM_IUPAC_TRADITIONAL_NAME>
10-(2-hydroxy-3-methyl-but-3-enyl)-6a,11a-dihydro-6H-benzofuro[3,2-c]chromene-3,9-diol

>  <PUBCHEM_IUPAC_INCHI>
InChI=1S/C20H20O5/c1-10(2)17(23)8-14-16(22)6-5-12-15-9-24-18-7-11(21)3-4-13(18)20(15)25-19(12)14/h3-7,15,17,20-23H,1,8-9H2,2H3

>  <PUBCHEM_IUPAC_INCHIKEY>
LRCYZCCKRIVTHN-UHFFFAOYSA-N

>  <PUBCHEM_XLOGP3_AA>
3.2

>  <PUBCHEM_EXACT_MASS>
340.131

>  <PUBCHEM_MOLECULAR_FORMULA>
C20H20O5

>  <PUBCHEM_MOLECULAR_WEIGHT>
340.375

>  <PUBCHEM_OPENEYE_CAN_SMILES>
CC(=C)C(CC1=C(C=CC2=C1OC3C2COC4=C3C=CC(=C4)O)O)O

>  <PUBCHEM_OPENEYE_ISO_SMILES>
CC(=C)C(CC1=C(C=CC2=C1OC3C2COC4=C3C=CC(=C4)O)O)O

>  <PUBCHEM_CACTVS_TPSA>
79.2

>  <PUBCHEM_MONOISOTOPIC_WEIGHT>
340.131

>  <PUBCHEM_TOTAL_CHARGE>
0

>  <PUBCHEM_HEAVY_ATOM_COUNT>
25

>  <PUBCHEM_ATOM_DEF_STEREO_COUNT>
0

>  <PUBCHEM_ATOM_UDEF_STEREO_COUNT>
3

>  <PUBCHEM_BOND_DEF_STEREO_COUNT>
0

>  <PUBCHEM_BOND_UDEF_STEREO_COUNT>
0

>  <PUBCHEM_ISOTOPIC_ATOM_COUNT>
0

>  <PUBCHEM_COMPONENT_COUNT>
1

>  <PUBCHEM_CACTVS_TAUTO_COUNT>
8

>  <PUBCHEM_COORDINATE_TYPE>
1
5
255

>  <PUBCHEM_BONDANNOTATIONS>
7  1  3
10  12  8
11  13  8
11  17  8
12  16  8
13  19  8
14  18  8
16  18  8
17  21  8
19  22  8
21  22  8
20  4  3
6  9  3
8  10  8
8  14  8

$$$$
