74977513
 OpenBabel06101807152D

 47 50  0  0  1  0  0  0  0  0999 V2000
    5.1304    0.5471    0.0000 O   0  0  0  0  0  0  0  0  0  0  0  0
    6.0022   -0.9495    0.0000 O   0  0  0  0  0  0  0  0  0  0  0  0
    2.5381   -0.9629    0.0000 O   0  0  0  0  0  0  0  0  0  0  0  0
    4.2740   -1.9562    0.0000 O   0  0  0  0  0  0  0  0  0  0  0  0
    2.5304    1.0371    0.0000 O   0  0  0  0  0  0  0  0  0  0  0  0
    9.5323   -0.9254    0.0000 O   0  0  0  0  0  0  0  0  0  0  0  0
    7.7839    2.1092    0.0000 O   0  0  0  0  0  0  0  0  0  0  0  0
    9.5323    2.0746    0.0000 O   0  0  0  0  0  0  0  0  0  0  0  0
   13.8625   -2.4254    0.0000 O   0  0  0  0  0  0  0  0  0  0  0  0
    3.4022   -0.4596    0.0000 C   0  0  3  0  0  0  0  0  0  0  0  0
    4.2702   -0.9562    0.0000 C   0  0  3  0  0  0  0  0  0  0  0  0
    3.3984    0.5404    0.0000 C   0  0  3  0  0  0  0  0  0  0  0  0
    5.1343   -0.4529    0.0000 C   0  0  3  0  0  0  0  0  0  0  0  0
    4.2625    1.0438    0.0000 C   0  0  0  0  0  0  0  0  0  0  0  0
    6.8663   -0.4462    0.0000 C   0  0  0  0  0  0  0  0  0  0  0  0
    7.7724   -0.9601    0.0000 C   0  0  0  0  0  0  0  0  0  0  0  0
    6.8663    0.5954    0.0000 C   0  0  0  0  0  0  0  0  0  0  0  0
    8.6663   -0.4254    0.0000 C   0  0  0  0  0  0  0  0  0  0  0  0
    8.6663    0.5746    0.0000 C   0  0  0  0  0  0  0  0  0  0  0  0
    7.7724    1.1093    0.0000 C   0  0  0  0  0  0  0  0  0  0  0  0
    9.5323    1.0746    0.0000 C   0  0  0  0  0  0  0  0  0  0  0  0
   10.3984   -0.4254    0.0000 C   0  0  0  0  0  0  0  0  0  0  0  0
   10.3984    0.5746    0.0000 C   0  0  0  0  0  0  0  0  0  0  0  0
   11.2644   -0.9254    0.0000 C   0  0  0  0  0  0  0  0  0  0  0  0
   11.2644   -1.9254    0.0000 C   0  0  0  0  0  0  0  0  0  0  0  0
   12.1304   -0.4254    0.0000 C   0  0  0  0  0  0  0  0  0  0  0  0
   12.1304   -2.4254    0.0000 C   0  0  0  0  0  0  0  0  0  0  0  0
   12.9964   -0.9254    0.0000 C   0  0  0  0  0  0  0  0  0  0  0  0
   12.9964   -1.9254    0.0000 C   0  0  0  0  0  0  0  0  0  0  0  0
    2.8641   -0.1516    0.0000 H   0  0  0  0  0  0  0  0  0  0  0  0
    3.7344   -1.2683    0.0000 H   0  0  0  0  0  0  0  0  0  0  0  0
    3.3960    1.1604    0.0000 H   0  0  0  0  0  0  0  0  0  0  0  0
    5.1367   -1.0729    0.0000 H   0  0  0  0  0  0  0  0  0  0  0  0
    4.6592    1.5203    0.0000 H   0  0  0  0  0  0  0  0  0  0  0  0
    3.8621    1.5172    0.0000 H   0  0  0  0  0  0  0  0  0  0  0  0
    2.0000   -0.6550    0.0000 H   0  0  0  0  0  0  0  0  0  0  0  0
    3.7383   -2.2683    0.0000 H   0  0  0  0  0  0  0  0  0  0  0  0
    2.5280    1.6571    0.0000 H   0  0  0  0  0  0  0  0  0  0  0  0
    7.7795   -1.5800    0.0000 H   0  0  0  0  0  0  0  0  0  0  0  0
    6.3306    0.9075    0.0000 H   0  0  0  0  0  0  0  0  0  0  0  0
   10.9353    0.8846    0.0000 H   0  0  0  0  0  0  0  0  0  0  0  0
    7.2506    2.4254    0.0000 H   0  0  0  0  0  0  0  0  0  0  0  0
   10.7274   -2.2354    0.0000 H   0  0  0  0  0  0  0  0  0  0  0  0
   12.1304    0.1946    0.0000 H   0  0  0  0  0  0  0  0  0  0  0  0
   12.1304   -3.0454    0.0000 H   0  0  0  0  0  0  0  0  0  0  0  0
   13.5334   -0.6154    0.0000 H   0  0  0  0  0  0  0  0  0  0  0  0
   14.3994   -2.1154    0.0000 H   0  0  0  0  0  0  0  0  0  0  0  0
  1 13  1  0  0  0  0
  1 14  1  0  0  0  0
  2 13  1  0  0  0  0
  2 15  1  0  0  0  0
  3 10  1  0  0  0  0
  3 36  1  0  0  0  0
  4 11  1  0  0  0  0
  4 37  1  0  0  0  0
  5 12  1  0  0  0  0
  5 38  1  0  0  0  0
  6 18  1  0  0  0  0
  6 22  1  0  0  0  0
  7 20  1  0  0  0  0
  7 42  1  0  0  0  0
  8 21  2  0  0  0  0
  9 29  1  0  0  0  0
  9 47  1  0  0  0  0
 10 11  1  0  0  0  0
 10 12  1  0  0  0  0
 10 30  1  0  0  0  0
 11 13  1  0  0  0  0
 11 31  1  0  0  0  0
 12 14  1  0  0  0  0
 12 32  1  0  0  0  0
 13 33  1  0  0  0  0
 14 34  1  0  0  0  0
 14 35  1  0  0  0  0
 15 16  1  0  0  0  0
 15 17  2  0  0  0  0
 16 18  2  0  0  0  0
 16 39  1  0  0  0  0
 17 20  1  0  0  0  0
 17 40  1  0  0  0  0
 18 19  1  0  0  0  0
 19 20  2  0  0  0  0
 19 21  1  0  0  0  0
 21 23  1  0  0  0  0
 22 23  2  0  0  0  0
 22 24  1  0  0  0  0
 23 41  1  0  0  0  0
 24 25  2  0  0  0  0
 24 26  1  0  0  0  0
 25 27  1  0  0  0  0
 25 43  1  0  0  0  0
 26 28  2  0  0  0  0
 26 44  1  0  0  0  0
 27 29  2  0  0  0  0
 27 45  1  0  0  0  0
 28 29  1  0  0  0  0
 28 46  1  0  0  0  0
M  END
>  <PUBCHEM_COMPOUND_CID>
74977513

>  <PUBCHEM_COMPOUND_CANONICALIZED>
1

>  <PUBCHEM_CACTVS_COMPLEXITY>
629

>  <PUBCHEM_CACTVS_HBOND_ACCEPTOR>
9

>  <PUBCHEM_CACTVS_HBOND_DONOR>
5

>  <PUBCHEM_CACTVS_ROTATABLE_BOND>
3

>  <PUBCHEM_CACTVS_SUBSKEYS>
AAADceB4PAAAAAAAAAAAAAAAAAAAAAAAAAA0YIEAAAAAAACBQAAAGgAACAAADBSwmAMwDoAABgCIAqBSAAACCAAkIAAIiAEGCMgdNzaGNRqieWCl4BUPuQfI7KzOIAAACAAIAABAAAAQABAAAAAAAAAAAA==

>  <PUBCHEM_IUPAC_OPENEYE_NAME>
5-hydroxy-2-(4-hydroxyphenyl)-7-(3,4,5-trihydroxytetrahydropyran-2-yl)oxy-chromen-4-one

>  <PUBCHEM_IUPAC_CAS_NAME>
5-hydroxy-2-(4-hydroxyphenyl)-7-[(3,4,5-trihydroxy-2-oxanyl)oxy]-1-benzopyran-4-one

>  <PUBCHEM_IUPAC_NAME>
5-hydroxy-2-(4-hydroxyphenyl)-7-(3,4,5-trihydroxyoxan-2-yl)oxychromen-4-one

>  <PUBCHEM_IUPAC_SYSTEMATIC_NAME>
2-(4-hydroxyphenyl)-5-oxidanyl-7-[3,4,5-tris(oxidanyl)oxan-2-yl]oxy-chromen-4-one

>  <PUBCHEM_IUPAC_TRADITIONAL_NAME>
5-hydroxy-2-(4-hydroxyphenyl)-7-(3,4,5-trihydroxytetrahydropyran-2-yl)oxy-chromone

>  <PUBCHEM_IUPAC_INCHI>
InChI=1S/C20H18O9/c21-10-3-1-9(2-4-10)15-7-13(23)17-12(22)5-11(6-16(17)29-15)28-20-19(26)18(25)14(24)8-27-20/h1-7,14,18-22,24-26H,8H2

>  <PUBCHEM_IUPAC_INCHIKEY>
ASMYXLDPYBVDFS-UHFFFAOYSA-N

>  <PUBCHEM_XLOGP3>
0

>  <PUBCHEM_EXACT_MASS>
402.095

>  <PUBCHEM_MOLECULAR_FORMULA>
C20H18O9

>  <PUBCHEM_MOLECULAR_WEIGHT>
402.355

>  <PUBCHEM_OPENEYE_CAN_SMILES>
C1C(C(C(C(O1)OC2=CC(=C3C(=C2)OC(=CC3=O)C4=CC=C(C=C4)O)O)O)O)O

>  <PUBCHEM_OPENEYE_ISO_SMILES>
C1C(C(C(C(O1)OC2=CC(=C3C(=C2)OC(=CC3=O)C4=CC=C(C=C4)O)O)O)O)O

>  <PUBCHEM_CACTVS_TPSA>
146

>  <PUBCHEM_MONOISOTOPIC_WEIGHT>
402.095

>  <PUBCHEM_TOTAL_CHARGE>
0

>  <PUBCHEM_HEAVY_ATOM_COUNT>
29

>  <PUBCHEM_ATOM_DEF_STEREO_COUNT>
0

>  <PUBCHEM_ATOM_UDEF_STEREO_COUNT>
4

>  <PUBCHEM_BOND_DEF_STEREO_COUNT>
0

>  <PUBCHEM_BOND_UDEF_STEREO_COUNT>
0

>  <PUBCHEM_ISOTOPIC_ATOM_COUNT>
0

>  <PUBCHEM_COMPONENT_COUNT>
1

>  <PUBCHEM_CACTVS_TAUTO_COUNT>
24

>  <PUBCHEM_COORDINATE_TYPE>
1
5
255

>  <PUBCHEM_BONDANNOTATIONS>
15  16  8
15  17  8
16  18  8
17  20  8
18  19  8
19  20  8
19  21  8
13  2  3
21  23  8
22  23  8
24  25  8
24  26  8
25  27  8
26  28  8
27  29  8
28  29  8
10  3  3
11  4  3
12  5  3
6  18  8
6  22  8

$$$$
