74978015
 OpenBabel06101807152D

 94 99  0  0  1  0  0  0  0  0999 V2000
   10.3312   -1.7857    0.0000 O   0  0  0  0  0  0  0  0  0  0  0  0
    8.5991    0.2143    0.0000 O   0  0  0  0  0  0  0  0  0  0  0  0
    9.4651   -3.2857    0.0000 O   0  0  0  0  0  0  0  0  0  0  0  0
    6.0010   -0.2857    0.0000 O   0  0  0  0  0  0  0  0  0  0  0  0
    8.5991   -2.7857    0.0000 O   0  0  0  0  0  0  0  0  0  0  0  0
   10.3312    0.2143    0.0000 O   0  0  0  0  0  0  0  0  0  0  0  0
    6.8671   -1.7857    0.0000 O   0  0  0  0  0  0  0  0  0  0  0  0
    5.1350    1.2143    0.0000 O   0  0  0  0  0  0  0  0  0  0  0  0
   12.0632   -2.7857    0.0000 O   0  0  0  0  0  0  0  0  0  0  0  0
   12.0632   -4.7857    0.0000 O   0  0  0  0  0  0  0  0  0  0  0  0
   10.3312   -5.7857    0.0000 O   0  0  0  0  0  0  0  0  0  0  0  0
    4.2690   -1.2857    0.0000 O   0  0  0  0  0  0  0  0  0  0  0  0
    2.5369   -0.2857    0.0000 O   0  0  0  0  0  0  0  0  0  0  0  0
    2.5369    1.7143    0.0000 O   0  0  0  0  0  0  0  0  0  0  0  0
    7.7331   -4.2857    0.0000 O   0  0  0  0  0  0  0  0  0  0  0  0
    3.4030    3.2143    0.0000 O   0  0  0  0  0  0  0  0  0  0  0  0
   11.1972    2.7143    0.0000 O   0  0  0  0  0  0  0  0  0  0  0  0
    8.5991    1.2143    0.0000 O   0  0  0  0  0  0  0  0  0  0  0  0
    7.6950    2.7112    0.0000 O   0  0  0  0  0  0  0  0  0  0  0  0
    9.4530    5.7836    0.0000 O   0  0  0  0  0  0  0  0  0  0  0  0
   14.6613   -0.2857    0.0000 O   0  0  0  0  0  0  0  0  0  0  0  0
    9.4651   -1.2857    0.0000 C   0  0  3  0  0  0  0  0  0  0  0  0
    8.5991   -1.7857    0.0000 C   0  0  3  0  0  0  0  0  0  0  0  0
    7.7331   -1.2857    0.0000 C   0  0  3  0  0  0  0  0  0  0  0  0
    7.7331   -0.2857    0.0000 C   0  0  3  0  0  0  0  0  0  0  0  0
    9.4651   -0.2857    0.0000 C   0  0  3  0  0  0  0  0  0  0  0  0
   10.3312   -2.7857    0.0000 C   0  0  3  0  0  0  0  0  0  0  0  0
   11.1972   -3.2857    0.0000 C   0  0  3  0  0  0  0  0  0  0  0  0
   11.1972   -4.2857    0.0000 C   0  0  3  0  0  0  0  0  0  0  0  0
   10.3312   -4.7857    0.0000 C   0  0  3  0  0  0  0  0  0  0  0  0
    6.8671    0.2143    0.0000 C   0  0  0  0  0  0  0  0  0  0  0  0
    9.4651   -4.2857    0.0000 C   0  0  3  0  0  0  0  0  0  0  0  0
    5.1350    0.2143    0.0000 C   0  0  3  0  0  0  0  0  0  0  0  0
    4.2690   -0.2857    0.0000 C   0  0  3  0  0  0  0  0  0  0  0  0
    3.4030    0.2143    0.0000 C   0  0  3  0  0  0  0  0  0  0  0  0
    3.4030    1.2143    0.0000 C   0  0  3  0  0  0  0  0  0  0  0  0
    4.2690    1.7143    0.0000 C   0  0  3  0  0  0  0  0  0  0  0  0
    8.5991   -4.7857    0.0000 C   0  0  0  0  0  0  0  0  0  0  0  0
    4.2690    2.7143    0.0000 C   0  0  0  0  0  0  0  0  0  0  0  0
   10.3312    1.2143    0.0000 C   0  0  0  0  0  0  0  0  0  0  0  0
   11.1972    1.7143    0.0000 C   0  0  0  0  0  0  0  0  0  0  0  0
    9.4651    1.7143    0.0000 C   0  0  0  0  0  0  0  0  0  0  0  0
    9.4651    2.7143    0.0000 C   0  0  0  0  0  0  0  0  0  0  0  0
   12.0632    1.2143    0.0000 C   0  0  0  0  0  0  0  0  0  0  0  0
   10.3312    3.2143    0.0000 C   0  0  0  0  0  0  0  0  0  0  0  0
    8.5551    3.2212    0.0000 C   0  0  0  0  0  0  0  0  0  0  0  0
   10.3472    4.2558    0.0000 C   0  0  0  0  0  0  0  0  0  0  0  0
   12.9292    1.7143    0.0000 C   0  0  0  0  0  0  0  0  0  0  0  0
   12.0632    0.2143    0.0000 C   0  0  0  0  0  0  0  0  0  0  0  0
    8.5471    4.2628    0.0000 C   0  0  0  0  0  0  0  0  0  0  0  0
    9.4492    4.7836    0.0000 C   0  0  0  0  0  0  0  0  0  0  0  0
   13.7953    1.2143    0.0000 C   0  0  0  0  0  0  0  0  0  0  0  0
   12.9292   -0.2857    0.0000 C   0  0  0  0  0  0  0  0  0  0  0  0
   13.7953    0.2143    0.0000 C   0  0  0  0  0  0  0  0  0  0  0  0
   10.0021   -0.9757    0.0000 H   0  0  0  0  0  0  0  0  0  0  0  0
    8.0622   -2.0957    0.0000 H   0  0  0  0  0  0  0  0  0  0  0  0
    7.1962   -0.9757    0.0000 H   0  0  0  0  0  0  0  0  0  0  0  0
    7.7331    0.3343    0.0000 H   0  0  0  0  0  0  0  0  0  0  0  0
    9.4651    0.3343    0.0000 H   0  0  0  0  0  0  0  0  0  0  0  0
    9.7942   -2.4757    0.0000 H   0  0  0  0  0  0  0  0  0  0  0  0
   11.7341   -3.5957    0.0000 H   0  0  0  0  0  0  0  0  0  0  0  0
   11.1972   -4.9057    0.0000 H   0  0  0  0  0  0  0  0  0  0  0  0
    9.7942   -5.0957    0.0000 H   0  0  0  0  0  0  0  0  0  0  0  0
    7.2656    0.6893    0.0000 H   0  0  0  0  0  0  0  0  0  0  0  0
    6.4685    0.6893    0.0000 H   0  0  0  0  0  0  0  0  0  0  0  0
    8.9282   -3.9757    0.0000 H   0  0  0  0  0  0  0  0  0  0  0  0
    5.1350   -0.4057    0.0000 H   0  0  0  0  0  0  0  0  0  0  0  0
    3.7320   -0.5957    0.0000 H   0  0  0  0  0  0  0  0  0  0  0  0
    2.8660    0.5243    0.0000 H   0  0  0  0  0  0  0  0  0  0  0  0
    3.4030    1.8343    0.0000 H   0  0  0  0  0  0  0  0  0  0  0  0
    4.8059    2.0243    0.0000 H   0  0  0  0  0  0  0  0  0  0  0  0
    8.0622   -3.0957    0.0000 H   0  0  0  0  0  0  0  0  0  0  0  0
    8.2006   -5.2606    0.0000 H   0  0  0  0  0  0  0  0  0  0  0  0
    8.9976   -5.2606    0.0000 H   0  0  0  0  0  0  0  0  0  0  0  0
    6.8671   -2.4057    0.0000 H   0  0  0  0  0  0  0  0  0  0  0  0
    4.8796    2.6067    0.0000 H   0  0  0  0  0  0  0  0  0  0  0  0
    4.4810    3.2970    0.0000 H   0  0  0  0  0  0  0  0  0  0  0  0
   12.6002   -3.0957    0.0000 H   0  0  0  0  0  0  0  0  0  0  0  0
   12.0632   -5.4057    0.0000 H   0  0  0  0  0  0  0  0  0  0  0  0
    9.7942   -6.0957    0.0000 H   0  0  0  0  0  0  0  0  0  0  0  0
    3.7320   -1.5957    0.0000 H   0  0  0  0  0  0  0  0  0  0  0  0
    2.0000    0.0243    0.0000 H   0  0  0  0  0  0  0  0  0  0  0  0
    2.0000    1.4043    0.0000 H   0  0  0  0  0  0  0  0  0  0  0  0
    7.1962   -4.5957    0.0000 H   0  0  0  0  0  0  0  0  0  0  0  0
    3.4030    3.8343    0.0000 H   0  0  0  0  0  0  0  0  0  0  0  0
   10.8877    4.5596    0.0000 H   0  0  0  0  0  0  0  0  0  0  0  0
   12.9292    2.3343    0.0000 H   0  0  0  0  0  0  0  0  0  0  0  0
   11.5263   -0.0957    0.0000 H   0  0  0  0  0  0  0  0  0  0  0  0
    8.0090    4.5707    0.0000 H   0  0  0  0  0  0  0  0  0  0  0  0
   14.3322    1.5243    0.0000 H   0  0  0  0  0  0  0  0  0  0  0  0
   12.9292   -0.9057    0.0000 H   0  0  0  0  0  0  0  0  0  0  0  0
    7.1545    3.0150    0.0000 H   0  0  0  0  0  0  0  0  0  0  0  0
    8.9173    6.0957    0.0000 H   0  0  0  0  0  0  0  0  0  0  0  0
   14.6613   -0.9057    0.0000 H   0  0  0  0  0  0  0  0  0  0  0  0
  1 22  1  0  0  0  0
  1 27  1  0  0  0  0
  2 25  1  0  0  0  0
  2 26  1  0  0  0  0
  3 27  1  0  0  0  0
  3 32  1  0  0  0  0
  4 31  1  0  0  0  0
  4 33  1  0  0  0  0
  5 23  1  0  0  0  0
  5 72  1  0  0  0  0
  6 26  1  0  0  0  0
  6 40  1  0  0  0  0
  7 24  1  0  0  0  0
  7 75  1  0  0  0  0
  8 33  1  0  0  0  0
  8 37  1  0  0  0  0
  9 28  1  0  0  0  0
  9 78  1  0  0  0  0
 10 29  1  0  0  0  0
 10 79  1  0  0  0  0
 11 30  1  0  0  0  0
 11 80  1  0  0  0  0
 12 34  1  0  0  0  0
 12 81  1  0  0  0  0
 13 35  1  0  0  0  0
 13 82  1  0  0  0  0
 14 36  1  0  0  0  0
 14 83  1  0  0  0  0
 15 38  1  0  0  0  0
 15 84  1  0  0  0  0
 16 39  1  0  0  0  0
 16 85  1  0  0  0  0
 17 41  1  0  0  0  0
 17 45  1  0  0  0  0
 18 42  2  0  0  0  0
 19 46  1  0  0  0  0
 19 92  1  0  0  0  0
 20 51  1  0  0  0  0
 20 93  1  0  0  0  0
 21 54  1  0  0  0  0
 21 94  1  0  0  0  0
 22 23  1  0  0  0  0
 22 26  1  0  0  0  0
 22 55  1  0  0  0  0
 23 24  1  0  0  0  0
 23 56  1  0  0  0  0
 24 25  1  0  0  0  0
 24 57  1  0  0  0  0
 25 31  1  0  0  0  0
 25 58  1  0  0  0  0
 26 59  1  0  0  0  0
 27 28  1  0  0  0  0
 27 60  1  0  0  0  0
 28 29  1  0  0  0  0
 28 61  1  0  0  0  0
 29 30  1  0  0  0  0
 29 62  1  0  0  0  0
 30 32  1  0  0  0  0
 30 63  1  0  0  0  0
 31 64  1  0  0  0  0
 31 65  1  0  0  0  0
 32 38  1  0  0  0  0
 32 66  1  0  0  0  0
 33 34  1  0  0  0  0
 33 67  1  0  0  0  0
 34 35  1  0  0  0  0
 34 68  1  0  0  0  0
 35 36  1  0  0  0  0
 35 69  1  0  0  0  0
 36 37  1  0  0  0  0
 36 70  1  0  0  0  0
 37 39  1  0  0  0  0
 37 71  1  0  0  0  0
 38 73  1  0  0  0  0
 38 74  1  0  0  0  0
 39 76  1  0  0  0  0
 39 77  1  0  0  0  0
 40 41  2  0  0  0  0
 40 42  1  0  0  0  0
 41 44  1  0  0  0  0
 42 43  1  0  0  0  0
 43 45  1  0  0  0  0
 43 46  2  0  0  0  0
 44 48  2  0  0  0  0
 44 49  1  0  0  0  0
 45 47  2  0  0  0  0
 46 50  1  0  0  0  0
 47 51  1  0  0  0  0
 47 86  1  0  0  0  0
 48 52  1  0  0  0  0
 48 87  1  0  0  0  0
 49 53  2  0  0  0  0
 49 88  1  0  0  0  0
 50 51  2  0  0  0  0
 50 89  1  0  0  0  0
 52 54  2  0  0  0  0
 52 90  1  0  0  0  0
 53 54  1  0  0  0  0
 53 91  1  0  0  0  0
M  END
>  <PUBCHEM_COMPOUND_CID>
74978015

>  <PUBCHEM_COMPOUND_CANONICALIZED>
1

>  <PUBCHEM_CACTVS_COMPLEXITY>
1300

>  <PUBCHEM_CACTVS_HBOND_ACCEPTOR>
21

>  <PUBCHEM_CACTVS_HBOND_DONOR>
13

>  <PUBCHEM_CACTVS_ROTATABLE_BOND>
10

>  <PUBCHEM_CACTVS_SUBSKEYS>
AAADcfB8PgAAAAAAAAAAAAAAAAAAAAAAAAA0aJECAAAAAACBQAAAGgAACAAADBSwmAMwDoAABgCIAqBSAAICCAAkIAAIiAFGCMgdNzaGNR6ieWCl4BUPuQfI7KzOIAAACAAIAABAAAAQABAAAAAAAAAAAA==

>  <PUBCHEM_IUPAC_OPENEYE_NAME>
3-[4,5-dihydroxy-3-[3,4,5-trihydroxy-6-(hydroxymethyl)tetrahydropyran-2-yl]oxy-6-[[3,4,5-trihydroxy-6-(hydroxymethyl)tetrahydropyran-2-yl]oxymethyl]tetrahydropyran-2-yl]oxy-5,7-dihydroxy-2-(4-hydroxyphenyl)chromen-4-one

>  <PUBCHEM_IUPAC_CAS_NAME>
3-[[4,5-dihydroxy-3-[[3,4,5-trihydroxy-6-(hydroxymethyl)-2-oxanyl]oxy]-6-[[3,4,5-trihydroxy-6-(hydroxymethyl)-2-oxanyl]oxymethyl]-2-oxanyl]oxy]-5,7-dihydroxy-2-(4-hydroxyphenyl)-1-benzopyran-4-one

>  <PUBCHEM_IUPAC_NAME>
3-[4,5-dihydroxy-3-[3,4,5-trihydroxy-6-(hydroxymethyl)oxan-2-yl]oxy-6-[[3,4,5-trihydroxy-6-(hydroxymethyl)oxan-2-yl]oxymethyl]oxan-2-yl]oxy-5,7-dihydroxy-2-(4-hydroxyphenyl)chromen-4-one

>  <PUBCHEM_IUPAC_SYSTEMATIC_NAME>
3-[3-[6-(hydroxymethyl)-3,4,5-tris(oxidanyl)oxan-2-yl]oxy-6-[[6-(hydroxymethyl)-3,4,5-tris(oxidanyl)oxan-2-yl]oxymethyl]-4,5-bis(oxidanyl)oxan-2-yl]oxy-2-(4-hydroxyphenyl)-5,7-bis(oxidanyl)chromen-4-one

>  <PUBCHEM_IUPAC_TRADITIONAL_NAME>
3-[4,5-dihydroxy-3-(3,4,5-trihydroxy-6-methylol-tetrahydropyran-2-yl)oxy-6-[(3,4,5-trihydroxy-6-methylol-tetrahydropyran-2-yl)oxymethyl]tetrahydropyran-2-yl]oxy-5,7-dihydroxy-2-(4-hydroxyphenyl)chromone

>  <PUBCHEM_IUPAC_INCHI>
InChI=1S/C33H40O21/c34-7-15-19(39)23(43)26(46)31(50-15)48-9-17-21(41)25(45)30(54-32-27(47)24(44)20(40)16(8-35)51-32)33(52-17)53-29-22(42)18-13(38)5-12(37)6-14(18)49-28(29)10-1-3-11(36)4-2-10/h1-6,15-17,19-21,23-27,30-41,43-47H,7-9H2

>  <PUBCHEM_IUPAC_INCHIKEY>
TUHDCQMVEFSHOS-UHFFFAOYSA-N

>  <PUBCHEM_XLOGP3_AA>
-3

>  <PUBCHEM_EXACT_MASS>
772.206

>  <PUBCHEM_MOLECULAR_FORMULA>
C33H40O21

>  <PUBCHEM_MOLECULAR_WEIGHT>
772.662

>  <PUBCHEM_OPENEYE_CAN_SMILES>
C1=CC(=CC=C1C2=C(C(=O)C3=C(C=C(C=C3O2)O)O)OC4C(C(C(C(O4)COC5C(C(C(C(O5)CO)O)O)O)O)O)OC6C(C(C(C(O6)CO)O)O)O)O

>  <PUBCHEM_OPENEYE_ISO_SMILES>
C1=CC(=CC=C1C2=C(C(=O)C3=C(C=C(C=C3O2)O)O)OC4C(C(C(C(O4)COC5C(C(C(C(O5)CO)O)O)O)O)O)OC6C(C(C(C(O6)CO)O)O)O)O

>  <PUBCHEM_CACTVS_TPSA>
345

>  <PUBCHEM_MONOISOTOPIC_WEIGHT>
772.206

>  <PUBCHEM_TOTAL_CHARGE>
0

>  <PUBCHEM_HEAVY_ATOM_COUNT>
54

>  <PUBCHEM_ATOM_DEF_STEREO_COUNT>
0

>  <PUBCHEM_ATOM_UDEF_STEREO_COUNT>
15

>  <PUBCHEM_BOND_DEF_STEREO_COUNT>
0

>  <PUBCHEM_BOND_UDEF_STEREO_COUNT>
0

>  <PUBCHEM_ISOTOPIC_ATOM_COUNT>
0

>  <PUBCHEM_COMPONENT_COUNT>
1

>  <PUBCHEM_CACTVS_TAUTO_COUNT>
57

>  <PUBCHEM_COORDINATE_TYPE>
1
5
255

>  <PUBCHEM_BONDANNOTATIONS>
22  1  3
27  1  3
29  10  3
30  11  3
34  12  3
35  13  3
36  14  3
17  41  8
17  45  8
25  31  3
32  38  3
37  39  3
33  4  3
40  41  8
40  42  8
42  43  8
43  45  8
43  46  8
44  48  8
44  49  8
45  47  8
46  50  8
47  51  8
48  52  8
49  53  8
23  5  3
50  51  8
52  54  8
53  54  8
26  6  3
24  7  3
28  9  3

$$$$
