74978176
 OpenBabel06101807152D

115121  0  0  1  0  0  0  0  0999 V2000
   10.4037   -1.7500    0.0000 O   0  0  0  0  0  0  0  0  0  0  0  0
    9.5376   -4.2500    0.0000 O   0  0  0  0  0  0  0  0  0  0  0  0
    7.8056   -4.2500    0.0000 O   0  0  0  0  0  0  0  0  0  0  0  0
   11.2697   -4.2500    0.0000 O   0  0  0  0  0  0  0  0  0  0  0  0
   11.2697   -0.2500    0.0000 O   0  0  0  0  0  0  0  0  0  0  0  0
   13.0017   -3.2500    0.0000 O   0  0  0  0  0  0  0  0  0  0  0  0
   13.0017   -1.2500    0.0000 O   0  0  0  0  0  0  0  0  0  0  0  0
    9.5376   -6.2500    0.0000 O   0  0  0  0  0  0  0  0  0  0  0  0
    7.8056   -7.2500    0.0000 O   0  0  0  0  0  0  0  0  0  0  0  0
    4.2755    1.7808    0.0000 O   0  0  0  0  0  0  0  0  0  0  0  0
    6.0736   -6.2500    0.0000 O   0  0  0  0  0  0  0  0  0  0  0  0
   10.4037    4.2500    0.0000 O   0  0  0  0  0  0  0  0  0  0  0  0
    6.0075    1.7742    0.0000 O   0  0  0  0  0  0  0  0  0  0  0  0
   12.1357    4.2500    0.0000 O   0  0  0  0  0  0  0  0  0  0  0  0
    4.2639   -1.2192    0.0000 O   0  0  0  0  0  0  0  0  0  0  0  0
    2.5357   -0.2125    0.0000 O   0  0  0  0  0  0  0  0  0  0  0  0
   10.4037    7.2500    0.0000 O   0  0  0  0  0  0  0  0  0  0  0  0
    8.6716    6.2500    0.0000 O   0  0  0  0  0  0  0  0  0  0  0  0
    5.9998   -0.2258    0.0000 O   0  0  0  0  0  0  0  0  0  0  0  0
   12.1357    6.2500    0.0000 O   0  0  0  0  0  0  0  0  0  0  0  0
    9.5376    1.7500    0.0000 O   0  0  0  0  0  0  0  0  0  0  0  0
    2.5473    2.7875    0.0000 O   0  0  0  0  0  0  0  0  0  0  0  0
    7.8056    4.7500    0.0000 O   0  0  0  0  0  0  0  0  0  0  0  0
    9.5376   -1.2500    0.0000 O   0  0  0  0  0  0  0  0  0  0  0  0
    7.7892   -1.2846    0.0000 O   0  0  0  0  0  0  0  0  0  0  0  0
   13.8678    3.2500    0.0000 O   0  0  0  0  0  0  0  0  0  0  0  0
   10.4037   -2.7500    0.0000 C   0  0  3  0  0  0  0  0  0  0  0  0
   11.2697   -3.2500    0.0000 C   0  0  3  0  0  0  0  0  0  0  0  0
   12.1357   -2.7500    0.0000 C   0  0  3  0  0  0  0  0  0  0  0  0
   12.1357   -1.7500    0.0000 C   0  0  3  0  0  0  0  0  0  0  0  0
    8.6716   -5.7500    0.0000 C   0  0  3  0  0  0  0  0  0  0  0  0
    8.6716   -4.7500    0.0000 C   0  0  3  0  0  0  0  0  0  0  0  0
    7.8056   -6.2500    0.0000 C   0  0  3  0  0  0  0  0  0  0  0  0
   11.2697   -1.2500    0.0000 C   0  0  3  0  0  0  0  0  0  0  0  0
    6.9396   -5.7500    0.0000 C   0  0  3  0  0  0  0  0  0  0  0  0
    9.5376   -3.2500    0.0000 C   0  0  0  0  0  0  0  0  0  0  0  0
    6.9396   -4.7500    0.0000 C   0  0  3  0  0  0  0  0  0  0  0  0
    4.2678   -0.2192    0.0000 C   0  0  3  0  0  0  0  0  0  0  0  0
    3.4037    0.2842    0.0000 C   0  0  3  0  0  0  0  0  0  0  0  0
   10.4037    6.2500    0.0000 C   0  0  3  0  0  0  0  0  0  0  0  0
    9.5376    5.7500    0.0000 C   0  0  3  0  0  0  0  0  0  0  0  0
    5.1357    0.2775    0.0000 C   0  0  3  0  0  0  0  0  0  0  0  0
    3.4075    1.2842    0.0000 C   0  0  3  0  0  0  0  0  0  0  0  0
   11.2697    5.7500    0.0000 C   0  0  3  0  0  0  0  0  0  0  0  0
    9.5376    4.7500    0.0000 C   0  0  3  0  0  0  0  0  0  0  0  0
    6.0736   -4.2500    0.0000 C   0  0  0  0  0  0  0  0  0  0  0  0
    5.1396    1.2775    0.0000 C   0  0  3  0  0  0  0  0  0  0  0  0
   11.2697    4.7500    0.0000 C   0  0  3  0  0  0  0  0  0  0  0  0
   10.4037    0.2500    0.0000 C   0  0  0  0  0  0  0  0  0  0  0  0
    2.5434    1.7875    0.0000 C   0  0  0  0  0  0  0  0  0  0  0  0
    8.6716    4.2500    0.0000 C   0  0  0  0  0  0  0  0  0  0  0  0
   10.4037    1.2500    0.0000 C   0  0  0  0  0  0  0  0  0  0  0  0
    9.5376   -0.2500    0.0000 C   0  0  0  0  0  0  0  0  0  0  0  0
    8.6716    0.2500    0.0000 C   0  0  0  0  0  0  0  0  0  0  0  0
    6.8716    1.2708    0.0000 C   0  0  0  0  0  0  0  0  0  0  0  0
   11.2697    1.7500    0.0000 C   0  0  0  0  0  0  0  0  0  0  0  0
    8.6716    1.2500    0.0000 C   0  0  0  0  0  0  0  0  0  0  0  0
   12.1357    3.2500    0.0000 C   0  0  0  0  0  0  0  0  0  0  0  0
    7.7777    1.7847    0.0000 C   0  0  0  0  0  0  0  0  0  0  0  0
   11.2697    2.7500    0.0000 C   0  0  0  0  0  0  0  0  0  0  0  0
    7.7777   -0.2847    0.0000 C   0  0  0  0  0  0  0  0  0  0  0  0
    6.8716    0.2292    0.0000 C   0  0  0  0  0  0  0  0  0  0  0  0
   13.0017    2.7500    0.0000 C   0  0  0  0  0  0  0  0  0  0  0  0
   12.1357    1.2500    0.0000 C   0  0  0  0  0  0  0  0  0  0  0  0
   13.0017    1.7500    0.0000 C   0  0  0  0  0  0  0  0  0  0  0  0
    9.8667   -2.4400    0.0000 H   0  0  0  0  0  0  0  0  0  0  0  0
   10.7328   -3.5600    0.0000 H   0  0  0  0  0  0  0  0  0  0  0  0
   12.6727   -2.4400    0.0000 H   0  0  0  0  0  0  0  0  0  0  0  0
   12.1357   -1.1300    0.0000 H   0  0  0  0  0  0  0  0  0  0  0  0
    8.6716   -6.3700    0.0000 H   0  0  0  0  0  0  0  0  0  0  0  0
    8.6716   -4.1300    0.0000 H   0  0  0  0  0  0  0  0  0  0  0  0
    7.2687   -6.5600    0.0000 H   0  0  0  0  0  0  0  0  0  0  0  0
   10.7328   -0.9400    0.0000 H   0  0  0  0  0  0  0  0  0  0  0  0
    6.4026   -5.4400    0.0000 H   0  0  0  0  0  0  0  0  0  0  0  0
    9.3256   -2.6674    0.0000 H   0  0  0  0  0  0  0  0  0  0  0  0
    8.9271   -3.3577    0.0000 H   0  0  0  0  0  0  0  0  0  0  0  0
    6.9396   -4.1300    0.0000 H   0  0  0  0  0  0  0  0  0  0  0  0
    3.7296   -0.5271    0.0000 H   0  0  0  0  0  0  0  0  0  0  0  0
    2.8680    0.5962    0.0000 H   0  0  0  0  0  0  0  0  0  0  0  0
   10.9406    6.5600    0.0000 H   0  0  0  0  0  0  0  0  0  0  0  0
    9.0007    5.4400    0.0000 H   0  0  0  0  0  0  0  0  0  0  0  0
    5.6738    0.5854    0.0000 H   0  0  0  0  0  0  0  0  0  0  0  0
    3.4099    1.9042    0.0000 H   0  0  0  0  0  0  0  0  0  0  0  0
   11.8066    5.4400    0.0000 H   0  0  0  0  0  0  0  0  0  0  0  0
    9.5376    4.1300    0.0000 H   0  0  0  0  0  0  0  0  0  0  0  0
    6.3835   -3.7131    0.0000 H   0  0  0  0  0  0  0  0  0  0  0  0
    5.5366   -3.9400    0.0000 H   0  0  0  0  0  0  0  0  0  0  0  0
    5.7636   -4.7869    0.0000 H   0  0  0  0  0  0  0  0  0  0  0  0
    5.1420    1.8975    0.0000 H   0  0  0  0  0  0  0  0  0  0  0  0
   11.2697    4.1300    0.0000 H   0  0  0  0  0  0  0  0  0  0  0  0
   10.7328   -4.5600    0.0000 H   0  0  0  0  0  0  0  0  0  0  0  0
   13.0017   -3.8700    0.0000 H   0  0  0  0  0  0  0  0  0  0  0  0
   13.5387   -1.5600    0.0000 H   0  0  0  0  0  0  0  0  0  0  0  0
   10.0746   -5.9400    0.0000 H   0  0  0  0  0  0  0  0  0  0  0  0
    7.2687   -7.5600    0.0000 H   0  0  0  0  0  0  0  0  0  0  0  0
    5.5366   -5.9400    0.0000 H   0  0  0  0  0  0  0  0  0  0  0  0
    1.9333    1.8975    0.0000 H   0  0  0  0  0  0  0  0  0  0  0  0
    2.3292    1.2057    0.0000 H   0  0  0  0  0  0  0  0  0  0  0  0
    8.2731    3.7750    0.0000 H   0  0  0  0  0  0  0  0  0  0  0  0
    9.0702    3.7750    0.0000 H   0  0  0  0  0  0  0  0  0  0  0  0
    3.7258   -1.5271    0.0000 H   0  0  0  0  0  0  0  0  0  0  0  0
    2.0000    0.0996    0.0000 H   0  0  0  0  0  0  0  0  0  0  0  0
   10.9406    7.5600    0.0000 H   0  0  0  0  0  0  0  0  0  0  0  0
    8.1347    5.9400    0.0000 H   0  0  0  0  0  0  0  0  0  0  0  0
    5.9974   -0.8458    0.0000 H   0  0  0  0  0  0  0  0  0  0  0  0
   12.1357    6.8700    0.0000 H   0  0  0  0  0  0  0  0  0  0  0  0
    7.7848    2.4046    0.0000 H   0  0  0  0  0  0  0  0  0  0  0  0
   10.7328    3.0600    0.0000 H   0  0  0  0  0  0  0  0  0  0  0  0
    6.3359   -0.0829    0.0000 H   0  0  0  0  0  0  0  0  0  0  0  0
    2.0116    3.0996    0.0000 H   0  0  0  0  0  0  0  0  0  0  0  0
    7.2687    4.4400    0.0000 H   0  0  0  0  0  0  0  0  0  0  0  0
   12.1357    0.6300    0.0000 H   0  0  0  0  0  0  0  0  0  0  0  0
   13.5387    1.4400    0.0000 H   0  0  0  0  0  0  0  0  0  0  0  0
    7.2559   -1.6008    0.0000 H   0  0  0  0  0  0  0  0  0  0  0  0
   14.4047    2.9400    0.0000 H   0  0  0  0  0  0  0  0  0  0  0  0
  1 27  1  0  0  0  0
  1 34  1  0  0  0  0
  2 32  1  0  0  0  0
  2 36  1  0  0  0  0
  3 32  1  0  0  0  0
  3 37  1  0  0  0  0
  4 28  1  0  0  0  0
  4 91  1  0  0  0  0
  5 34  1  0  0  0  0
  5 49  1  0  0  0  0
  6 29  1  0  0  0  0
  6 92  1  0  0  0  0
  7 30  1  0  0  0  0
  7 93  1  0  0  0  0
  8 31  1  0  0  0  0
  8 94  1  0  0  0  0
  9 33  1  0  0  0  0
  9 95  1  0  0  0  0
 10 43  1  0  0  0  0
 10 47  1  0  0  0  0
 11 35  1  0  0  0  0
 11 96  1  0  0  0  0
 12 45  1  0  0  0  0
 12 48  1  0  0  0  0
 13 47  1  0  0  0  0
 13 55  1  0  0  0  0
 14 48  1  0  0  0  0
 14 58  1  0  0  0  0
 15 38  1  0  0  0  0
 15101  1  0  0  0  0
 16 39  1  0  0  0  0
 16102  1  0  0  0  0
 17 40  1  0  0  0  0
 17103  1  0  0  0  0
 18 41  1  0  0  0  0
 18104  1  0  0  0  0
 19 42  1  0  0  0  0
 19105  1  0  0  0  0
 20 44  1  0  0  0  0
 20106  1  0  0  0  0
 21 52  1  0  0  0  0
 21 57  1  0  0  0  0
 22 50  1  0  0  0  0
 22110  1  0  0  0  0
 23 51  1  0  0  0  0
 23111  1  0  0  0  0
 24 53  2  0  0  0  0
 25 61  1  0  0  0  0
 25114  1  0  0  0  0
 26 63  1  0  0  0  0
 26115  1  0  0  0  0
 27 28  1  0  0  0  0
 27 36  1  0  0  0  0
 27 66  1  0  0  0  0
 28 29  1  0  0  0  0
 28 67  1  0  0  0  0
 29 30  1  0  0  0  0
 29 68  1  0  0  0  0
 30 34  1  0  0  0  0
 30 69  1  0  0  0  0
 31 32  1  0  0  0  0
 31 33  1  0  0  0  0
 31 70  1  0  0  0  0
 32 71  1  0  0  0  0
 33 35  1  0  0  0  0
 33 72  1  0  0  0  0
 34 73  1  0  0  0  0
 35 37  1  0  0  0  0
 35 74  1  0  0  0  0
 36 75  1  0  0  0  0
 36 76  1  0  0  0  0
 37 46  1  0  0  0  0
 37 77  1  0  0  0  0
 38 39  1  0  0  0  0
 38 42  1  0  0  0  0
 38 78  1  0  0  0  0
 39 43  1  0  0  0  0
 39 79  1  0  0  0  0
 40 41  1  0  0  0  0
 40 44  1  0  0  0  0
 40 80  1  0  0  0  0
 41 45  1  0  0  0  0
 41 81  1  0  0  0  0
 42 47  1  0  0  0  0
 42 82  1  0  0  0  0
 43 50  1  0  0  0  0
 43 83  1  0  0  0  0
 44 48  1  0  0  0  0
 44 84  1  0  0  0  0
 45 51  1  0  0  0  0
 45 85  1  0  0  0  0
 46 86  1  0  0  0  0
 46 87  1  0  0  0  0
 46 88  1  0  0  0  0
 47 89  1  0  0  0  0
 48 90  1  0  0  0  0
 49 52  2  0  0  0  0
 49 53  1  0  0  0  0
 50 97  1  0  0  0  0
 50 98  1  0  0  0  0
 51 99  1  0  0  0  0
 51100  1  0  0  0  0
 52 56  1  0  0  0  0
 53 54  1  0  0  0  0
 54 57  1  0  0  0  0
 54 61  2  0  0  0  0
 55 59  1  0  0  0  0
 55 62  2  0  0  0  0
 56 60  2  0  0  0  0
 56 64  1  0  0  0  0
 57 59  2  0  0  0  0
 58 60  1  0  0  0  0
 58 63  2  0  0  0  0
 59107  1  0  0  0  0
 60108  1  0  0  0  0
 61 62  1  0  0  0  0
 62109  1  0  0  0  0
 63 65  1  0  0  0  0
 64 65  2  0  0  0  0
 64112  1  0  0  0  0
 65113  1  0  0  0  0
M  END
>  <PUBCHEM_COMPOUND_CID>
74978176

>  <PUBCHEM_COMPOUND_CANONICALIZED>
1

>  <PUBCHEM_CACTVS_COMPLEXITY>
1630

>  <PUBCHEM_CACTVS_HBOND_ACCEPTOR>
26

>  <PUBCHEM_CACTVS_HBOND_DONOR>
16

>  <PUBCHEM_CACTVS_ROTATABLE_BOND>
12

>  <PUBCHEM_CACTVS_SUBSKEYS>
AAADcfB8PgAAAAAAAAAAAAAAAAAAAAAAAAA0aJEiAAAAAACBQAAAGgAACAAADBSwmAMyDoAABgCIAqBSAAICCAAkIAAIiAFGiMgdNzaGNR6ieWOl4BUPuQfI7LzOIAABCAAIQABAAAIQABCAAAAAAAAAAA==

>  <PUBCHEM_IUPAC_OPENEYE_NAME>
5-hydroxy-2-[4-hydroxy-3-[3,4,5-trihydroxy-6-(hydroxymethyl)tetrahydropyran-2-yl]oxy-phenyl]-7-[3,4,5-trihydroxy-6-(hydroxymethyl)tetrahydropyran-2-yl]oxy-3-[3,4,5-trihydroxy-6-[(3,4,5-trihydroxy-6-methyl-tetrahydropyran-2-yl)oxymethyl]tetrahydropyran-2-yl]oxy-chromen-4-one

>  <PUBCHEM_IUPAC_CAS_NAME>
5-hydroxy-2-[4-hydroxy-3-[[3,4,5-trihydroxy-6-(hydroxymethyl)-2-oxanyl]oxy]phenyl]-7-[[3,4,5-trihydroxy-6-(hydroxymethyl)-2-oxanyl]oxy]-3-[[3,4,5-trihydroxy-6-[(3,4,5-trihydroxy-6-methyl-2-oxanyl)oxymethyl]-2-oxanyl]oxy]-1-benzopyran-4-one

>  <PUBCHEM_IUPAC_NAME>
5-hydroxy-2-[4-hydroxy-3-[3,4,5-trihydroxy-6-(hydroxymethyl)oxan-2-yl]oxyphenyl]-7-[3,4,5-trihydroxy-6-(hydroxymethyl)oxan-2-yl]oxy-3-[3,4,5-trihydroxy-6-[(3,4,5-trihydroxy-6-methyloxan-2-yl)oxymethyl]oxan-2-yl]oxychromen-4-one

>  <PUBCHEM_IUPAC_SYSTEMATIC_NAME>
7-[6-(hydroxymethyl)-3,4,5-tris(oxidanyl)oxan-2-yl]oxy-2-[3-[6-(hydroxymethyl)-3,4,5-tris(oxidanyl)oxan-2-yl]oxy-4-oxidanyl-phenyl]-3-[6-[[6-methyl-3,4,5-tris(oxidanyl)oxan-2-yl]oxymethyl]-3,4,5-tris(oxidanyl)oxan-2-yl]oxy-5-oxidanyl-chromen-4-one

>  <PUBCHEM_IUPAC_TRADITIONAL_NAME>
5-hydroxy-2-[4-hydroxy-3-(3,4,5-trihydroxy-6-methylol-tetrahydropyran-2-yl)oxy-phenyl]-7-(3,4,5-trihydroxy-6-methylol-tetrahydropyran-2-yl)oxy-3-[3,4,5-trihydroxy-6-[(3,4,5-trihydroxy-6-methyl-tetrahydropyran-2-yl)oxymethyl]tetrahydropyran-2-yl]oxy-chromone

>  <PUBCHEM_IUPAC_INCHI>
InChI=1S/C39H50O26/c1-10-21(44)26(49)30(53)36(58-10)57-9-19-24(47)29(52)33(56)39(64-19)65-35-25(48)20-14(43)5-12(59-37-31(54)27(50)22(45)17(7-40)62-37)6-16(20)60-34(35)11-2-3-13(42)15(4-11)61-38-32(55)28(51)23(46)18(8-41)63-38/h2-6,10,17-19,21-24,26-33,36-47,49-56H,7-9H2,1H3

>  <PUBCHEM_IUPAC_INCHIKEY>
OMIUWTZERGHBER-UHFFFAOYSA-N

>  <PUBCHEM_XLOGP3_AA>
-4.9

>  <PUBCHEM_EXACT_MASS>
934.259

>  <PUBCHEM_MOLECULAR_FORMULA>
C39H50O26

>  <PUBCHEM_MOLECULAR_WEIGHT>
934.803

>  <PUBCHEM_OPENEYE_CAN_SMILES>
CC1C(C(C(C(O1)OCC2C(C(C(C(O2)OC3=C(OC4=CC(=CC(=C4C3=O)O)OC5C(C(C(C(O5)CO)O)O)O)C6=CC(=C(C=C6)O)OC7C(C(C(C(O7)CO)O)O)O)O)O)O)O)O)O

>  <PUBCHEM_OPENEYE_ISO_SMILES>
CC1C(C(C(C(O1)OCC2C(C(C(C(O2)OC3=C(OC4=CC(=CC(=C4C3=O)O)OC5C(C(C(C(O5)CO)O)O)O)C6=CC(=C(C=C6)O)OC7C(C(C(C(O7)CO)O)O)O)O)O)O)O)O)O

>  <PUBCHEM_CACTVS_TPSA>
424

>  <PUBCHEM_MONOISOTOPIC_WEIGHT>
934.259

>  <PUBCHEM_TOTAL_CHARGE>
0

>  <PUBCHEM_HEAVY_ATOM_COUNT>
65

>  <PUBCHEM_ATOM_DEF_STEREO_COUNT>
0

>  <PUBCHEM_ATOM_UDEF_STEREO_COUNT>
20

>  <PUBCHEM_BOND_DEF_STEREO_COUNT>
0

>  <PUBCHEM_BOND_UDEF_STEREO_COUNT>
0

>  <PUBCHEM_ISOTOPIC_ATOM_COUNT>
0

>  <PUBCHEM_COMPONENT_COUNT>
1

>  <PUBCHEM_CACTVS_TAUTO_COUNT>
29

>  <PUBCHEM_COORDINATE_TYPE>
1
5
255

>  <PUBCHEM_BONDANNOTATIONS>
35  11  3
47  13  3
48  14  3
38  15  3
39  16  3
40  17  3
41  18  3
42  19  3
32  2  3
44  20  3
21  52  8
21  57  8
27  36  3
37  46  3
28  4  3
43  50  3
45  51  3
49  52  8
49  53  8
34  5  3
53  54  8
54  57  8
54  61  8
55  59  8
55  62  8
56  60  8
56  64  8
57  59  8
58  60  8
58  63  8
29  6  3
61  62  8
63  65  8
64  65  8
30  7  3
31  8  3
33  9  3

$$$$
