74977051
 OpenBabel06101807152D

 92 97  0  0  1  0  0  0  0  0999 V2000
   11.1972   -1.6383    0.0000 O   0  0  0  0  0  0  0  0  0  0  0  0
    9.4097    2.3485    0.0000 O   0  0  0  0  0  0  0  0  0  0  0  0
   12.9292   -1.6383    0.0000 O   0  0  0  0  0  0  0  0  0  0  0  0
   10.2930    0.8586    0.0000 O   0  0  0  0  0  0  0  0  0  0  0  0
    9.4651   -3.6383    0.0000 O   0  0  0  0  0  0  0  0  0  0  0  0
   11.1972   -4.6383    0.0000 O   0  0  0  0  0  0  0  0  0  0  0  0
   12.9292   -3.6383    0.0000 O   0  0  0  0  0  0  0  0  0  0  0  0
    6.8292    0.8185    0.0000 O   0  0  0  0  0  0  0  0  0  0  0  0
    6.8060    2.8184    0.0000 O   0  0  0  0  0  0  0  0  0  0  0  0
    8.5727   -0.1614    0.0000 O   0  0  0  0  0  0  0  0  0  0  0  0
    8.5991   -2.1383    0.0000 O   0  0  0  0  0  0  0  0  0  0  0  0
    7.6546    4.3283    0.0000 O   0  0  0  0  0  0  0  0  0  0  0  0
   13.7953    0.8617    0.0000 O   0  3  0  0  0  0  0  0  0  0  0  0
   12.0511    3.9310    0.0000 O   0  0  0  0  0  0  0  0  0  0  0  0
    7.7331   -0.6383    0.0000 O   0  0  0  0  0  0  0  0  0  0  0  0
   17.2594   -0.1383    0.0000 O   0  0  0  0  0  0  0  0  0  0  0  0
   15.5273   -3.1383    0.0000 O   0  0  0  0  0  0  0  0  0  0  0  0
   17.2594   -2.1383    0.0000 O   0  0  0  0  0  0  0  0  0  0  0  0
    2.5369   -3.6383    0.0000 O   0  0  0  0  0  0  0  0  0  0  0  0
   10.3312   -3.1383    0.0000 C   0  0  3  0  0  0  0  0  0  0  0  0
   11.1972   -3.6383    0.0000 C   0  0  3  0  0  0  0  0  0  0  0  0
   10.3312   -2.1383    0.0000 C   0  0  3  0  0  0  0  0  0  0  0  0
   12.0632   -3.1383    0.0000 C   0  0  3  0  0  0  0  0  0  0  0  0
    7.6893    1.3285    0.0000 C   0  0  3  0  0  0  0  0  0  0  0  0
    7.6778    2.3284    0.0000 C   0  0  3  0  0  0  0  0  0  0  0  0
    8.5611    0.8386    0.0000 C   0  0  3  0  0  0  0  0  0  0  0  0
    8.5380    2.8384    0.0000 C   0  0  3  0  0  0  0  0  0  0  0  0
   12.0632   -2.1383    0.0000 C   0  0  3  0  0  0  0  0  0  0  0  0
    9.4213    1.3485    0.0000 C   0  0  3  0  0  0  0  0  0  0  0  0
    9.4651   -1.6383    0.0000 C   0  0  0  0  0  0  0  0  0  0  0  0
    8.5264    3.8384    0.0000 C   0  0  0  0  0  0  0  0  0  0  0  0
   12.9292   -0.6383    0.0000 C   0  0  0  0  0  0  0  0  0  0  0  0
   11.1532    1.3686    0.0000 C   0  0  0  0  0  0  0  0  0  0  0  0
   12.0632    0.8617    0.0000 C   0  0  0  0  0  0  0  0  0  0  0  0
   12.0632   -0.1383    0.0000 C   0  0  0  0  0  0  0  0  0  0  0  0
   13.7953   -0.1383    0.0000 C   0  0  0  0  0  0  0  0  0  0  0  0
   12.9292    1.3617    0.0000 C   0  0  0  0  0  0  0  0  0  0  0  0
   11.1452    2.4102    0.0000 C   0  0  0  0  0  0  0  0  0  0  0  0
   12.9453    2.4032    0.0000 C   0  0  0  0  0  0  0  0  0  0  0  0
   12.0473    2.9310    0.0000 C   0  0  0  0  0  0  0  0  0  0  0  0
   14.6613   -0.6383    0.0000 C   0  0  0  0  0  0  0  0  0  0  0  0
    7.7331   -1.6383    0.0000 C   0  0  0  0  0  0  0  0  0  0  0  0
   14.6613   -1.6383    0.0000 C   0  0  0  0  0  0  0  0  0  0  0  0
   15.5273   -0.1383    0.0000 C   0  0  0  0  0  0  0  0  0  0  0  0
    6.8671   -2.1383    0.0000 C   0  0  0  0  0  0  0  0  0  0  0  0
   16.3933   -0.6383    0.0000 C   0  0  0  0  0  0  0  0  0  0  0  0
   15.5273   -2.1383    0.0000 C   0  0  0  0  0  0  0  0  0  0  0  0
   16.3933   -1.6383    0.0000 C   0  0  0  0  0  0  0  0  0  0  0  0
    6.0010   -1.6383    0.0000 C   0  0  0  0  0  0  0  0  0  0  0  0
    5.1350   -2.1383    0.0000 C   0  0  0  0  0  0  0  0  0  0  0  0
    4.2690   -1.6383    0.0000 C   0  0  0  0  0  0  0  0  0  0  0  0
    5.1350   -3.1383    0.0000 C   0  0  0  0  0  0  0  0  0  0  0  0
    3.4030   -2.1383    0.0000 C   0  0  0  0  0  0  0  0  0  0  0  0
    4.2690   -3.6383    0.0000 C   0  0  0  0  0  0  0  0  0  0  0  0
    3.4030   -3.1383    0.0000 C   0  0  0  0  0  0  0  0  0  0  0  0
    9.7942   -2.8283    0.0000 H   0  0  0  0  0  0  0  0  0  0  0  0
   11.7341   -3.9483    0.0000 H   0  0  0  0  0  0  0  0  0  0  0  0
   10.3312   -1.5183    0.0000 H   0  0  0  0  0  0  0  0  0  0  0  0
   12.6002   -2.8283    0.0000 H   0  0  0  0  0  0  0  0  0  0  0  0
    7.1489    1.6323    0.0000 H   0  0  0  0  0  0  0  0  0  0  0  0
    7.6706    2.9484    0.0000 H   0  0  0  0  0  0  0  0  0  0  0  0
    9.1016    0.5348    0.0000 H   0  0  0  0  0  0  0  0  0  0  0  0
    9.0713    3.1546    0.0000 H   0  0  0  0  0  0  0  0  0  0  0  0
   12.0632   -1.5183    0.0000 H   0  0  0  0  0  0  0  0  0  0  0  0
    9.9546    1.6647    0.0000 H   0  0  0  0  0  0  0  0  0  0  0  0
    9.8637   -1.1633    0.0000 H   0  0  0  0  0  0  0  0  0  0  0  0
    9.0666   -1.1633    0.0000 H   0  0  0  0  0  0  0  0  0  0  0  0
    9.1382    3.7378    0.0000 H   0  0  0  0  0  0  0  0  0  0  0  0
    8.7317    4.4234    0.0000 H   0  0  0  0  0  0  0  0  0  0  0  0
    9.4651   -4.2583    0.0000 H   0  0  0  0  0  0  0  0  0  0  0  0
   10.6603   -4.9483    0.0000 H   0  0  0  0  0  0  0  0  0  0  0  0
   12.9292   -4.2583    0.0000 H   0  0  0  0  0  0  0  0  0  0  0  0
    6.2887    1.1223    0.0000 H   0  0  0  0  0  0  0  0  0  0  0  0
    6.2727    2.5022    0.0000 H   0  0  0  0  0  0  0  0  0  0  0  0
    9.1131   -0.4651    0.0000 H   0  0  0  0  0  0  0  0  0  0  0  0
   11.5263   -0.4483    0.0000 H   0  0  0  0  0  0  0  0  0  0  0  0
    7.6475    4.9483    0.0000 H   0  0  0  0  0  0  0  0  0  0  0  0
   10.6071    2.7181    0.0000 H   0  0  0  0  0  0  0  0  0  0  0  0
   13.4858    2.7070    0.0000 H   0  0  0  0  0  0  0  0  0  0  0  0
   14.1244   -1.9483    0.0000 H   0  0  0  0  0  0  0  0  0  0  0  0
   15.5273    0.4817    0.0000 H   0  0  0  0  0  0  0  0  0  0  0  0
    6.8671   -2.7583    0.0000 H   0  0  0  0  0  0  0  0  0  0  0  0
   12.5892    4.2389    0.0000 H   0  0  0  0  0  0  0  0  0  0  0  0
    6.0010   -1.0183    0.0000 H   0  0  0  0  0  0  0  0  0  0  0  0
   17.2594    0.4817    0.0000 H   0  0  0  0  0  0  0  0  0  0  0  0
   16.0643   -3.4483    0.0000 H   0  0  0  0  0  0  0  0  0  0  0  0
   17.7963   -1.8283    0.0000 H   0  0  0  0  0  0  0  0  0  0  0  0
    4.2690   -1.0183    0.0000 H   0  0  0  0  0  0  0  0  0  0  0  0
    5.6720   -3.4483    0.0000 H   0  0  0  0  0  0  0  0  0  0  0  0
    2.8660   -1.8283    0.0000 H   0  0  0  0  0  0  0  0  0  0  0  0
    4.2690   -4.2583    0.0000 H   0  0  0  0  0  0  0  0  0  0  0  0
    2.0000   -3.3283    0.0000 H   0  0  0  0  0  0  0  0  0  0  0  0
  1 22  1  0  0  0  0
  1 28  1  0  0  0  0
  2 27  1  0  0  0  0
  2 29  1  0  0  0  0
  3 28  1  0  0  0  0
  3 32  1  0  0  0  0
  4 29  1  0  0  0  0
  4 33  1  0  0  0  0
  5 20  1  0  0  0  0
  5 70  1  0  0  0  0
  6 21  1  0  0  0  0
  6 71  1  0  0  0  0
  7 23  1  0  0  0  0
  7 72  1  0  0  0  0
  8 24  1  0  0  0  0
  8 73  1  0  0  0  0
  9 25  1  0  0  0  0
  9 74  1  0  0  0  0
 10 26  1  0  0  0  0
 10 75  1  0  0  0  0
 11 30  1  0  0  0  0
 11 42  1  0  0  0  0
 12 31  1  0  0  0  0
 12 77  1  0  0  0  0
 13 36  1  0  0  0  0
 13 37  2  0  0  0  0
 14 40  1  0  0  0  0
 14 83  1  0  0  0  0
 15 42  2  0  0  0  0
 16 46  1  0  0  0  0
 16 85  1  0  0  0  0
 17 47  1  0  0  0  0
 17 86  1  0  0  0  0
 18 48  1  0  0  0  0
 18 87  1  0  0  0  0
 19 55  1  0  0  0  0
 19 92  1  0  0  0  0
 20 21  1  0  0  0  0
 20 22  1  0  0  0  0
 20 56  1  0  0  0  0
 21 23  1  0  0  0  0
 21 57  1  0  0  0  0
 22 30  1  0  0  0  0
 22 58  1  0  0  0  0
 23 28  1  0  0  0  0
 23 59  1  0  0  0  0
 24 25  1  0  0  0  0
 24 26  1  0  0  0  0
 24 60  1  0  0  0  0
 25 27  1  0  0  0  0
 25 61  1  0  0  0  0
 26 29  1  0  0  0  0
 26 62  1  0  0  0  0
 27 31  1  0  0  0  0
 27 63  1  0  0  0  0
 28 64  1  0  0  0  0
 29 65  1  0  0  0  0
 30 66  1  0  0  0  0
 30 67  1  0  0  0  0
 31 68  1  0  0  0  0
 31 69  1  0  0  0  0
 32 35  1  0  0  0  0
 32 36  2  0  0  0  0
 33 34  1  0  0  0  0
 33 38  2  0  0  0  0
 34 35  2  0  0  0  0
 34 37  1  0  0  0  0
 35 76  1  0  0  0  0
 36 41  1  0  0  0  0
 37 39  1  0  0  0  0
 38 40  1  0  0  0  0
 38 78  1  0  0  0  0
 39 40  2  0  0  0  0
 39 79  1  0  0  0  0
 41 43  2  0  0  0  0
 41 44  1  0  0  0  0
 42 45  1  0  0  0  0
 43 47  1  0  0  0  0
 43 80  1  0  0  0  0
 44 46  2  0  0  0  0
 44 81  1  0  0  0  0
 45 49  2  3  0  0  0
 45 82  1  0  0  0  0
 46 48  1  0  0  0  0
 47 48  2  0  0  0  0
 49 50  1  0  0  0  0
 49 84  1  0  0  0  0
 50 51  2  0  0  0  0
 50 52  1  0  0  0  0
 51 53  1  0  0  0  0
 51 88  1  0  0  0  0
 52 54  2  0  0  0  0
 52 89  1  0  0  0  0
 53 55  2  0  0  0  0
 53 90  1  0  0  0  0
 54 55  1  0  0  0  0
 54 91  1  0  0  0  0
M  CHG  1  13   1
M  END
>  <PUBCHEM_COMPOUND_CID>
74977051

>  <PUBCHEM_COMPOUND_CANONICALIZED>
1

>  <PUBCHEM_CACTVS_COMPLEXITY>
1260

>  <PUBCHEM_CACTVS_HBOND_ACCEPTOR>
18

>  <PUBCHEM_CACTVS_HBOND_DONOR>
12

>  <PUBCHEM_CACTVS_ROTATABLE_BOND>
11

>  <PUBCHEM_CACTVS_SUBSKEYS>
AAADcfB8PgAAAAAAAAAAAAAAAAAAAAAAAAA0aNECAAAAAACR9AAAGgAACAAADBSwmAMwDsAABkCIAqDSCAICCAAkIAAIiAFGiMgdNzaGNR6ieWOl4BUPuYfK7PzOIAABCAAIQABAAAIQABCAAAAAAAAAAA==

>  <PUBCHEM_IUPAC_OPENEYE_NAME>
[3,4,5-trihydroxy-6-[7-hydroxy-5-[3,4,5-trihydroxy-6-(hydroxymethyl)tetrahydropyran-2-yl]oxy-2-(3,4,5-trihydroxyphenyl)chromenylium-3-yl]oxy-tetrahydropyran-2-yl]methyl 3-(4-hydroxyphenyl)prop-2-enoate

>  <PUBCHEM_IUPAC_CAS_NAME>
3-(4-hydroxyphenyl)-2-propenoic acid [3,4,5-trihydroxy-6-[[7-hydroxy-5-[[3,4,5-trihydroxy-6-(hydroxymethyl)-2-oxanyl]oxy]-2-(3,4,5-trihydroxyphenyl)-1-benzopyrylium-3-yl]oxy]-2-oxanyl]methyl ester

>  <PUBCHEM_IUPAC_NAME>
[3,4,5-trihydroxy-6-[7-hydroxy-5-[3,4,5-trihydroxy-6-(hydroxymethyl)oxan-2-yl]oxy-2-(3,4,5-trihydroxyphenyl)chromenylium-3-yl]oxyoxan-2-yl]methyl 3-(4-hydroxyphenyl)prop-2-enoate

>  <PUBCHEM_IUPAC_SYSTEMATIC_NAME>
[6-[5-[6-(hydroxymethyl)-3,4,5-tris(oxidanyl)oxan-2-yl]oxy-7-oxidanyl-2-[3,4,5-tris(oxidanyl)phenyl]chromenylium-3-yl]oxy-3,4,5-tris(oxidanyl)oxan-2-yl]methyl 3-(4-hydroxyphenyl)prop-2-enoate

>  <PUBCHEM_IUPAC_TRADITIONAL_NAME>
3-(4-hydroxyphenyl)acrylic acid [3,4,5-trihydroxy-6-[[7-hydroxy-5-(3,4,5-trihydroxy-6-methylol-tetrahydropyran-2-yl)oxy-2-(3,4,5-trihydroxyphenyl)-1-benzopyrylium-3-yl]oxy]tetrahydropyran-2-yl]methyl ester

>  <PUBCHEM_IUPAC_INCHI>
InChI=1S/C36H36O19/c37-12-24-28(44)30(46)32(48)35(54-24)52-22-10-17(39)9-21-18(22)11-23(34(51-21)15-7-19(40)27(43)20(41)8-15)53-36-33(49)31(47)29(45)25(55-36)13-50-26(42)6-3-14-1-4-16(38)5-2-14/h1-11,24-25,28-33,35-37,44-49H,12-13H2,(H4-,38,39,40,41,42,43)/p+1

>  <PUBCHEM_IUPAC_INCHIKEY>
HXWHJZIJSNBCJX-UHFFFAOYSA-O

>  <PUBCHEM_EXACT_MASS>
773.193

>  <PUBCHEM_MOLECULAR_FORMULA>
C36H37O19+

>  <PUBCHEM_MOLECULAR_WEIGHT>
773.673

>  <PUBCHEM_OPENEYE_CAN_SMILES>
C1=CC(=CC=C1C=CC(=O)OCC2C(C(C(C(O2)OC3=C([O+]=C4C=C(C=C(C4=C3)OC5C(C(C(C(O5)CO)O)O)O)O)C6=CC(=C(C(=C6)O)O)O)O)O)O)O

>  <PUBCHEM_OPENEYE_ISO_SMILES>
C1=CC(=CC=C1C=CC(=O)OCC2C(C(C(C(O2)OC3=C([O+]=C4C=C(C=C(C4=C3)OC5C(C(C(C(O5)CO)O)O)O)O)C6=CC(=C(C(=C6)O)O)O)O)O)O)O

>  <PUBCHEM_CACTVS_TPSA>
307

>  <PUBCHEM_MONOISOTOPIC_WEIGHT>
773.193

>  <PUBCHEM_TOTAL_CHARGE>
1

>  <PUBCHEM_HEAVY_ATOM_COUNT>
55

>  <PUBCHEM_ATOM_DEF_STEREO_COUNT>
0

>  <PUBCHEM_ATOM_UDEF_STEREO_COUNT>
10

>  <PUBCHEM_BOND_DEF_STEREO_COUNT>
0

>  <PUBCHEM_BOND_UDEF_STEREO_COUNT>
1

>  <PUBCHEM_ISOTOPIC_ATOM_COUNT>
0

>  <PUBCHEM_COMPONENT_COUNT>
1

>  <PUBCHEM_CACTVS_TAUTO_COUNT>
400

>  <PUBCHEM_COORDINATE_TYPE>
1
5
255

>  <PUBCHEM_BONDANNOTATIONS>
26  10  3
13  36  8
13  37  8
22  30  3
27  31  3
28  3  3
32  35  8
32  36  8
33  34  8
33  38  8
34  35  8
34  37  8
37  39  8
38  40  8
39  40  8
29  4  3
41  43  8
41  44  8
43  47  8
44  46  8
45  49  1
46  48  8
47  48  8
20  5  3
50  51  8
50  52  8
51  53  8
52  54  8
53  55  8
54  55  8
21  6  3
23  7  3
24  8  3
25  9  3

$$$$
