74976931
 OpenBabel06101807152D

 74 78  0  0  1  0  0  0  0  0999 V2000
    5.1350   -1.2857    0.0000 O   0  0  0  0  0  0  0  0  0  0  0  0
   12.0632   -0.2857    0.0000 O   0  0  0  0  0  0  0  0  0  0  0  0
    6.8671   -1.2857    0.0000 O   0  0  0  0  0  0  0  0  0  0  0  0
    5.1350   -4.2857    0.0000 O   0  0  0  0  0  0  0  0  0  0  0  0
    3.4030   -3.2857    0.0000 O   0  0  0  0  0  0  0  0  0  0  0  0
   11.1972   -1.7857    0.0000 O   0  0  0  0  0  0  0  0  0  0  0  0
   14.6613   -1.7857    0.0000 O   0  0  0  0  0  0  0  0  0  0  0  0
   14.6613    0.2143    0.0000 O   0  0  0  0  0  0  0  0  0  0  0  0
    6.8671   -3.2857    0.0000 O   0  0  0  0  0  0  0  0  0  0  0  0
   12.9292   -2.7857    0.0000 O   0  0  0  0  0  0  0  0  0  0  0  0
    2.5369   -1.7857    0.0000 O   0  0  0  0  0  0  0  0  0  0  0  0
   13.7953    1.7143    0.0000 O   0  0  0  0  0  0  0  0  0  0  0  0
    7.7331    1.2143    0.0000 O   0  3  0  0  0  0  0  0  0  0  0  0
    9.4651   -2.7857    0.0000 O   0  0  0  0  0  0  0  0  0  0  0  0
    4.2308    1.2112    0.0000 O   0  0  0  0  0  0  0  0  0  0  0  0
    5.9889    4.2836    0.0000 O   0  0  0  0  0  0  0  0  0  0  0  0
    5.1350   -3.2857    0.0000 C   0  0  3  0  0  0  0  0  0  0  0  0
    4.2690   -2.7857    0.0000 C   0  0  3  0  0  0  0  0  0  0  0  0
   13.7953   -1.2857    0.0000 C   0  0  3  0  0  0  0  0  0  0  0  0
    6.0010   -2.7857    0.0000 C   0  0  3  0  0  0  0  0  0  0  0  0
   13.7953   -0.2857    0.0000 C   0  0  3  0  0  0  0  0  0  0  0  0
    4.2690   -1.7857    0.0000 C   0  0  3  0  0  0  0  0  0  0  0  0
   12.9292   -1.7857    0.0000 C   0  0  3  0  0  0  0  0  0  0  0  0
   12.9292    0.2143    0.0000 C   0  0  3  0  0  0  0  0  0  0  0  0
    6.0010   -1.7857    0.0000 C   0  0  3  0  0  0  0  0  0  0  0  0
   12.0632   -1.2857    0.0000 C   0  0  3  0  0  0  0  0  0  0  0  0
    3.4030   -1.2857    0.0000 C   0  0  0  0  0  0  0  0  0  0  0  0
   12.9292    1.2143    0.0000 C   0  0  0  0  0  0  0  0  0  0  0  0
    6.8671   -0.2857    0.0000 C   0  0  0  0  0  0  0  0  0  0  0  0
   10.3312   -1.2857    0.0000 C   0  0  0  0  0  0  0  0  0  0  0  0
    7.7331    0.2143    0.0000 C   0  0  0  0  0  0  0  0  0  0  0  0
    8.5991   -0.2857    0.0000 C   0  0  0  0  0  0  0  0  0  0  0  0
    6.0010    0.2143    0.0000 C   0  0  0  0  0  0  0  0  0  0  0  0
    9.4651   -1.7857    0.0000 C   0  0  0  0  0  0  0  0  0  0  0  0
   10.3312   -0.2857    0.0000 C   0  0  0  0  0  0  0  0  0  0  0  0
    8.5991   -1.2857    0.0000 C   0  0  0  0  0  0  0  0  0  0  0  0
    9.4651    0.2143    0.0000 C   0  0  0  0  0  0  0  0  0  0  0  0
    6.0010    1.2143    0.0000 C   0  0  0  0  0  0  0  0  0  0  0  0
    6.8671    1.7143    0.0000 C   0  0  0  0  0  0  0  0  0  0  0  0
    5.0910    1.7212    0.0000 C   0  0  0  0  0  0  0  0  0  0  0  0
    6.8831    2.7558    0.0000 C   0  0  0  0  0  0  0  0  0  0  0  0
    5.0830    2.7628    0.0000 C   0  0  0  0  0  0  0  0  0  0  0  0
    5.9851    3.2836    0.0000 C   0  0  0  0  0  0  0  0  0  0  0  0
    5.6720   -3.5957    0.0000 H   0  0  0  0  0  0  0  0  0  0  0  0
    4.2690   -3.4057    0.0000 H   0  0  0  0  0  0  0  0  0  0  0  0
   14.3322   -0.9757    0.0000 H   0  0  0  0  0  0  0  0  0  0  0  0
   13.7953    0.3343    0.0000 H   0  0  0  0  0  0  0  0  0  0  0  0
    6.5380   -2.4757    0.0000 H   0  0  0  0  0  0  0  0  0  0  0  0
    4.2690   -1.1657    0.0000 H   0  0  0  0  0  0  0  0  0  0  0  0
   12.3923   -2.0957    0.0000 H   0  0  0  0  0  0  0  0  0  0  0  0
   12.3923    0.5243    0.0000 H   0  0  0  0  0  0  0  0  0  0  0  0
    6.0010   -1.1657    0.0000 H   0  0  0  0  0  0  0  0  0  0  0  0
   11.5263   -0.9757    0.0000 H   0  0  0  0  0  0  0  0  0  0  0  0
    3.8015   -0.8107    0.0000 H   0  0  0  0  0  0  0  0  0  0  0  0
    3.0044   -0.8107    0.0000 H   0  0  0  0  0  0  0  0  0  0  0  0
   12.7172    1.7970    0.0000 H   0  0  0  0  0  0  0  0  0  0  0  0
   12.3187    1.1067    0.0000 H   0  0  0  0  0  0  0  0  0  0  0  0
    4.5981   -4.5957    0.0000 H   0  0  0  0  0  0  0  0  0  0  0  0
    3.4030   -3.9057    0.0000 H   0  0  0  0  0  0  0  0  0  0  0  0
   15.1982   -1.4757    0.0000 H   0  0  0  0  0  0  0  0  0  0  0  0
   15.1982   -0.0957    0.0000 H   0  0  0  0  0  0  0  0  0  0  0  0
    6.8671   -3.9057    0.0000 H   0  0  0  0  0  0  0  0  0  0  0  0
   13.4662   -3.0957    0.0000 H   0  0  0  0  0  0  0  0  0  0  0  0
    2.0000   -1.4757    0.0000 H   0  0  0  0  0  0  0  0  0  0  0  0
   13.7953    2.3343    0.0000 H   0  0  0  0  0  0  0  0  0  0  0  0
    5.4641   -0.0957    0.0000 H   0  0  0  0  0  0  0  0  0  0  0  0
   10.8681    0.0243    0.0000 H   0  0  0  0  0  0  0  0  0  0  0  0
    8.0622   -1.5957    0.0000 H   0  0  0  0  0  0  0  0  0  0  0  0
    9.4651    0.8343    0.0000 H   0  0  0  0  0  0  0  0  0  0  0  0
    7.4236    3.0596    0.0000 H   0  0  0  0  0  0  0  0  0  0  0  0
   10.0021   -3.0957    0.0000 H   0  0  0  0  0  0  0  0  0  0  0  0
    4.5449    3.0707    0.0000 H   0  0  0  0  0  0  0  0  0  0  0  0
    3.6904    1.5150    0.0000 H   0  0  0  0  0  0  0  0  0  0  0  0
    5.4532    4.5957    0.0000 H   0  0  0  0  0  0  0  0  0  0  0  0
  1 22  1  0  0  0  0
  1 25  1  0  0  0  0
  2 24  1  0  0  0  0
  2 26  1  0  0  0  0
  3 25  1  0  0  0  0
  3 29  1  0  0  0  0
  4 17  1  0  0  0  0
  4 58  1  0  0  0  0
  5 18  1  0  0  0  0
  5 59  1  0  0  0  0
  6 26  1  0  0  0  0
  6 30  1  0  0  0  0
  7 19  1  0  0  0  0
  7 60  1  0  0  0  0
  8 21  1  0  0  0  0
  8 61  1  0  0  0  0
  9 20  1  0  0  0  0
  9 62  1  0  0  0  0
 10 23  1  0  0  0  0
 10 63  1  0  0  0  0
 11 27  1  0  0  0  0
 11 64  1  0  0  0  0
 12 28  1  0  0  0  0
 12 65  1  0  0  0  0
 13 31  2  0  0  0  0
 13 39  1  0  0  0  0
 14 34  1  0  0  0  0
 14 71  1  0  0  0  0
 15 40  1  0  0  0  0
 15 73  1  0  0  0  0
 16 43  1  0  0  0  0
 16 74  1  0  0  0  0
 17 18  1  0  0  0  0
 17 20  1  0  0  0  0
 17 44  1  0  0  0  0
 18 22  1  0  0  0  0
 18 45  1  0  0  0  0
 19 21  1  0  0  0  0
 19 23  1  0  0  0  0
 19 46  1  0  0  0  0
 20 25  1  0  0  0  0
 20 48  1  0  0  0  0
 21 24  1  0  0  0  0
 21 47  1  0  0  0  0
 22 27  1  0  0  0  0
 22 49  1  0  0  0  0
 23 26  1  0  0  0  0
 23 50  1  0  0  0  0
 24 28  1  0  0  0  0
 24 51  1  0  0  0  0
 25 52  1  0  0  0  0
 26 53  1  0  0  0  0
 27 54  1  0  0  0  0
 27 55  1  0  0  0  0
 28 56  1  0  0  0  0
 28 57  1  0  0  0  0
 29 31  1  0  0  0  0
 29 33  2  0  0  0  0
 30 34  2  0  0  0  0
 30 35  1  0  0  0  0
 31 32  1  0  0  0  0
 32 36  2  0  0  0  0
 32 37  1  0  0  0  0
 33 38  1  0  0  0  0
 33 66  1  0  0  0  0
 34 36  1  0  0  0  0
 35 37  2  0  0  0  0
 35 67  1  0  0  0  0
 36 68  1  0  0  0  0
 37 69  1  0  0  0  0
 38 39  1  0  0  0  0
 38 40  2  0  0  0  0
 39 41  2  0  0  0  0
 40 42  1  0  0  0  0
 41 43  1  0  0  0  0
 41 70  1  0  0  0  0
 42 43  2  0  0  0  0
 42 72  1  0  0  0  0
M  CHG  1  13   1
M  END
>  <PUBCHEM_COMPOUND_CID>
74976931

>  <PUBCHEM_COMPOUND_CANONICALIZED>
1

>  <PUBCHEM_CACTVS_COMPLEXITY>
899

>  <PUBCHEM_CACTVS_HBOND_ACCEPTOR>
15

>  <PUBCHEM_CACTVS_HBOND_DONOR>
11

>  <PUBCHEM_CACTVS_ROTATABLE_BOND>
7

>  <PUBCHEM_CACTVS_SUBSKEYS>
AAADceB4PgAAAAAAAAAAAAAAAAAAAAAAAAA0aJECAAAAAACR9AAAGgAACAAADBSwmAMwDsAABkCIAqBSAAICCAAkIAAIiAFGiMgdNzaGNR6ieWOl4BUPuYfK7PzOIAABCAAIQABAAAIQABCAAAAAAAAAAA==

>  <PUBCHEM_IUPAC_OPENEYE_NAME>
2-[4-[5,7-dihydroxy-3-[3,4,5-trihydroxy-6-(hydroxymethyl)tetrahydropyran-2-yl]oxy-chromenylium-2-yl]-2-hydroxy-phenoxy]-6-(hydroxymethyl)tetrahydropyran-3,4,5-triol

>  <PUBCHEM_IUPAC_CAS_NAME>
2-[4-[5,7-dihydroxy-3-[[3,4,5-trihydroxy-6-(hydroxymethyl)-2-oxanyl]oxy]-1-benzopyrylium-2-yl]-2-hydroxyphenoxy]-6-(hydroxymethyl)oxane-3,4,5-triol

>  <PUBCHEM_IUPAC_NAME>
2-[4-[5,7-dihydroxy-3-[3,4,5-trihydroxy-6-(hydroxymethyl)oxan-2-yl]oxychromenylium-2-yl]-2-hydroxyphenoxy]-6-(hydroxymethyl)oxane-3,4,5-triol

>  <PUBCHEM_IUPAC_SYSTEMATIC_NAME>
2-(hydroxymethyl)-6-[4-[3-[6-(hydroxymethyl)-3,4,5-tris(oxidanyl)oxan-2-yl]oxy-5,7-bis(oxidanyl)chromenylium-2-yl]-2-oxidanyl-phenoxy]oxane-3,4,5-triol

>  <PUBCHEM_IUPAC_TRADITIONAL_NAME>
2-[4-[5,7-dihydroxy-3-(3,4,5-trihydroxy-6-methylol-tetrahydropyran-2-yl)oxy-1-benzopyrylium-2-yl]-2-hydroxy-phenoxy]-6-methylol-tetrahydropyran-3,4,5-triol

>  <PUBCHEM_IUPAC_INCHI>
InChI=1S/C27H30O16/c28-7-17-19(33)21(35)23(37)26(42-17)40-14-2-1-9(3-13(14)32)25-16(6-11-12(31)4-10(30)5-15(11)39-25)41-27-24(38)22(36)20(34)18(8-29)43-27/h1-6,17-24,26-29,33-38H,7-8H2,(H2-,30,31,32)/p+1

>  <PUBCHEM_IUPAC_INCHIKEY>
RNNDUDNKXCUQFJ-UHFFFAOYSA-O

>  <PUBCHEM_EXACT_MASS>
611.161

>  <PUBCHEM_MOLECULAR_FORMULA>
C27H31O16+

>  <PUBCHEM_MOLECULAR_WEIGHT>
611.529

>  <PUBCHEM_OPENEYE_CAN_SMILES>
C1=CC(=C(C=C1C2=C(C=C3C(=CC(=CC3=[O+]2)O)O)OC4C(C(C(C(O4)CO)O)O)O)O)OC5C(C(C(C(O5)CO)O)O)O

>  <PUBCHEM_OPENEYE_ISO_SMILES>
C1=CC(=C(C=C1C2=C(C=C3C(=CC(=CC3=[O+]2)O)O)OC4C(C(C(C(O4)CO)O)O)O)O)OC5C(C(C(C(O5)CO)O)O)O

>  <PUBCHEM_CACTVS_TPSA>
260

>  <PUBCHEM_MONOISOTOPIC_WEIGHT>
611.161

>  <PUBCHEM_TOTAL_CHARGE>
1

>  <PUBCHEM_HEAVY_ATOM_COUNT>
43

>  <PUBCHEM_ATOM_DEF_STEREO_COUNT>
0

>  <PUBCHEM_ATOM_UDEF_STEREO_COUNT>
10

>  <PUBCHEM_BOND_DEF_STEREO_COUNT>
0

>  <PUBCHEM_BOND_UDEF_STEREO_COUNT>
0

>  <PUBCHEM_ISOTOPIC_ATOM_COUNT>
0

>  <PUBCHEM_COMPONENT_COUNT>
1

>  <PUBCHEM_CACTVS_TAUTO_COUNT>
36

>  <PUBCHEM_COORDINATE_TYPE>
1
5
255

>  <PUBCHEM_BONDANNOTATIONS>
23  10  3
13  31  8
13  39  8
22  27  3
24  28  3
29  31  8
29  33  8
25  3  3
30  34  8
30  35  8
32  36  8
32  37  8
33  38  8
34  36  8
35  37  8
38  39  8
38  40  8
39  41  8
17  4  3
40  42  8
41  43  8
42  43  8
18  5  3
26  6  3
19  7  3
21  8  3
20  9  3

$$$$
