74978238
 OpenBabel06101807152D

 82 86  0  0  1  0  0  0  0  0999 V2000
    8.5991   -2.7890    0.0000 O   0  0  0  0  0  0  0  0  0  0  0  0
    7.7210    2.7869    0.0000 O   0  0  0  0  0  0  0  0  0  0  0  0
   10.3312   -2.7890    0.0000 O   0  0  0  0  0  0  0  0  0  0  0  0
    6.8671   -4.7890    0.0000 O   0  0  0  0  0  0  0  0  0  0  0  0
    8.5991   -5.7890    0.0000 O   0  0  0  0  0  0  0  0  0  0  0  0
    9.4530    2.7803    0.0000 O   0  0  0  0  0  0  0  0  0  0  0  0
   10.3312   -4.7890    0.0000 O   0  0  0  0  0  0  0  0  0  0  0  0
    7.7326    5.7869    0.0000 O   0  0  0  0  0  0  0  0  0  0  0  0
    5.9967    4.7936    0.0000 O   0  0  0  0  0  0  0  0  0  0  0  0
    9.4608    4.7802    0.0000 O   0  0  0  0  0  0  0  0  0  0  0  0
    6.0010   -3.2890    0.0000 O   0  0  0  0  0  0  0  0  0  0  0  0
    5.1249    3.2970    0.0000 O   0  0  0  0  0  0  0  0  0  0  0  0
   11.1972   -0.2890    0.0000 O   0  0  0  0  0  0  0  0  0  0  0  0
    8.5991   -1.7890    0.0000 O   0  0  0  0  0  0  0  0  0  0  0  0
    7.6950   -0.2921    0.0000 O   0  0  0  0  0  0  0  0  0  0  0  0
    5.1350   -1.7890    0.0000 O   0  0  0  0  0  0  0  0  0  0  0  0
   14.6613   -1.2890    0.0000 O   0  0  0  0  0  0  0  0  0  0  0  0
   14.6613   -3.2890    0.0000 O   0  0  0  0  0  0  0  0  0  0  0  0
    2.5369   -3.2890    0.0000 O   0  0  0  0  0  0  0  0  0  0  0  0
    3.4030   -1.7890    0.0000 O   0  0  0  0  0  0  0  0  0  0  0  0
    7.7331   -4.2890    0.0000 C   0  0  3  0  0  0  0  0  0  0  0  0
    8.5991   -4.7890    0.0000 C   0  0  3  0  0  0  0  0  0  0  0  0
    7.7331   -3.2890    0.0000 C   0  0  3  0  0  0  0  0  0  0  0  0
    9.4651   -4.2890    0.0000 C   0  0  3  0  0  0  0  0  0  0  0  0
    7.7287    4.7869    0.0000 C   0  0  3  0  0  0  0  0  0  0  0  0
    6.8608    4.2903    0.0000 C   0  0  3  0  0  0  0  0  0  0  0  0
    9.4651   -3.2890    0.0000 C   0  0  3  0  0  0  0  0  0  0  0  0
    8.5928    4.2836    0.0000 C   0  0  3  0  0  0  0  0  0  0  0  0
    6.8569    3.2903    0.0000 C   0  0  3  0  0  0  0  0  0  0  0  0
    8.5890    3.2836    0.0000 C   0  0  3  0  0  0  0  0  0  0  0  0
    6.8671   -2.7890    0.0000 C   0  0  0  0  0  0  0  0  0  0  0  0
    5.9890    2.7936    0.0000 C   0  0  0  0  0  0  0  0  0  0  0  0
   10.3312   -1.7890    0.0000 C   0  0  0  0  0  0  0  0  0  0  0  0
    9.4492    1.7803    0.0000 C   0  0  0  0  0  0  0  0  0  0  0  0
    9.4651   -0.2890    0.0000 C   0  0  0  0  0  0  0  0  0  0  0  0
    9.4651   -1.2890    0.0000 C   0  0  0  0  0  0  0  0  0  0  0  0
   11.1972   -1.2890    0.0000 C   0  0  0  0  0  0  0  0  0  0  0  0
   10.3312    0.2110    0.0000 C   0  0  0  0  0  0  0  0  0  0  0  0
   10.3472    1.2525    0.0000 C   0  0  0  0  0  0  0  0  0  0  0  0
    8.5471    1.2595    0.0000 C   0  0  0  0  0  0  0  0  0  0  0  0
    8.5551    0.2179    0.0000 C   0  0  0  0  0  0  0  0  0  0  0  0
    5.1350   -2.7890    0.0000 C   0  0  0  0  0  0  0  0  0  0  0  0
   12.0632   -1.7890    0.0000 C   0  0  0  0  0  0  0  0  0  0  0  0
    4.2690   -3.2890    0.0000 C   0  0  0  0  0  0  0  0  0  0  0  0
   12.9292   -1.2890    0.0000 C   0  0  0  0  0  0  0  0  0  0  0  0
   12.0632   -2.7890    0.0000 C   0  0  0  0  0  0  0  0  0  0  0  0
   13.7953   -1.7890    0.0000 C   0  0  0  0  0  0  0  0  0  0  0  0
   12.9292   -3.2890    0.0000 C   0  0  0  0  0  0  0  0  0  0  0  0
   13.7953   -2.7890    0.0000 C   0  0  0  0  0  0  0  0  0  0  0  0
    3.4030   -2.7890    0.0000 C   0  0  0  0  0  0  0  0  0  0  0  0
    7.7331   -4.9090    0.0000 H   0  0  0  0  0  0  0  0  0  0  0  0
    9.1360   -5.0990    0.0000 H   0  0  0  0  0  0  0  0  0  0  0  0
    7.7331   -2.6690    0.0000 H   0  0  0  0  0  0  0  0  0  0  0  0
   10.0021   -3.9790    0.0000 H   0  0  0  0  0  0  0  0  0  0  0  0
    7.1930    5.0990    0.0000 H   0  0  0  0  0  0  0  0  0  0  0  0
    6.3226    3.9823    0.0000 H   0  0  0  0  0  0  0  0  0  0  0  0
    9.4651   -2.6690    0.0000 H   0  0  0  0  0  0  0  0  0  0  0  0
    9.1285    3.9715    0.0000 H   0  0  0  0  0  0  0  0  0  0  0  0
    6.8545    2.6703    0.0000 H   0  0  0  0  0  0  0  0  0  0  0  0
    8.5866    2.6636    0.0000 H   0  0  0  0  0  0  0  0  0  0  0  0
    7.2656   -2.3140    0.0000 H   0  0  0  0  0  0  0  0  0  0  0  0
    6.4685   -2.3140    0.0000 H   0  0  0  0  0  0  0  0  0  0  0  0
    5.5886    2.3202    0.0000 H   0  0  0  0  0  0  0  0  0  0  0  0
    6.3857    2.3171    0.0000 H   0  0  0  0  0  0  0  0  0  0  0  0
    6.8671   -5.4090    0.0000 H   0  0  0  0  0  0  0  0  0  0  0  0
    8.0622   -6.0990    0.0000 H   0  0  0  0  0  0  0  0  0  0  0  0
   10.3312   -5.4090    0.0000 H   0  0  0  0  0  0  0  0  0  0  0  0
    7.1968    6.0990    0.0000 H   0  0  0  0  0  0  0  0  0  0  0  0
    5.9991    5.4136    0.0000 H   0  0  0  0  0  0  0  0  0  0  0  0
    9.4631    5.4002    0.0000 H   0  0  0  0  0  0  0  0  0  0  0  0
   10.8877    1.5563    0.0000 H   0  0  0  0  0  0  0  0  0  0  0  0
    4.5868    2.9890    0.0000 H   0  0  0  0  0  0  0  0  0  0  0  0
    8.0090    1.5674    0.0000 H   0  0  0  0  0  0  0  0  0  0  0  0
    3.8705   -3.7639    0.0000 H   0  0  0  0  0  0  0  0  0  0  0  0
    4.6675   -3.7639    0.0000 H   0  0  0  0  0  0  0  0  0  0  0  0
   12.9292   -0.6690    0.0000 H   0  0  0  0  0  0  0  0  0  0  0  0
   11.5263   -3.0990    0.0000 H   0  0  0  0  0  0  0  0  0  0  0  0
    7.1545    0.0116    0.0000 H   0  0  0  0  0  0  0  0  0  0  0  0
   12.9292   -3.9090    0.0000 H   0  0  0  0  0  0  0  0  0  0  0  0
   14.6613   -0.6690    0.0000 H   0  0  0  0  0  0  0  0  0  0  0  0
   14.6613   -3.9090    0.0000 H   0  0  0  0  0  0  0  0  0  0  0  0
    2.0000   -2.9790    0.0000 H   0  0  0  0  0  0  0  0  0  0  0  0
  1 23  1  0  0  0  0
  1 27  1  0  0  0  0
  2 29  1  0  0  0  0
  2 30  1  0  0  0  0
  3 27  1  0  0  0  0
  3 33  1  0  0  0  0
  4 21  1  0  0  0  0
  4 65  1  0  0  0  0
  5 22  1  0  0  0  0
  5 66  1  0  0  0  0
  6 30  1  0  0  0  0
  6 34  1  0  0  0  0
  7 24  1  0  0  0  0
  7 67  1  0  0  0  0
  8 25  1  0  0  0  0
  8 68  1  0  0  0  0
  9 26  1  0  0  0  0
  9 69  1  0  0  0  0
 10 28  1  0  0  0  0
 10 70  1  0  0  0  0
 11 31  1  0  0  0  0
 11 42  1  0  0  0  0
 12 32  1  0  0  0  0
 12 72  1  0  0  0  0
 13 37  1  0  0  0  0
 13 38  1  0  0  0  0
 14 36  2  0  0  0  0
 15 41  1  0  0  0  0
 15 78  1  0  0  0  0
 16 42  2  0  0  0  0
 17 47  1  0  0  0  0
 17 80  1  0  0  0  0
 18 49  1  0  0  0  0
 18 81  1  0  0  0  0
 19 50  1  0  0  0  0
 19 82  1  0  0  0  0
 20 50  2  0  0  0  0
 21 22  1  0  0  0  0
 21 23  1  0  0  0  0
 21 51  1  0  0  0  0
 22 24  1  0  0  0  0
 22 52  1  0  0  0  0
 23 31  1  0  0  0  0
 23 53  1  0  0  0  0
 24 27  1  0  0  0  0
 24 54  1  0  0  0  0
 25 26  1  0  0  0  0
 25 28  1  0  0  0  0
 25 55  1  0  0  0  0
 26 29  1  0  0  0  0
 26 56  1  0  0  0  0
 27 57  1  0  0  0  0
 28 30  1  0  0  0  0
 28 58  1  0  0  0  0
 29 32  1  0  0  0  0
 29 59  1  0  0  0  0
 30 60  1  0  0  0  0
 31 61  1  0  0  0  0
 31 62  1  0  0  0  0
 32 63  1  0  0  0  0
 32 64  1  0  0  0  0
 33 36  1  0  0  0  0
 33 37  2  0  0  0  0
 34 39  1  0  0  0  0
 34 40  2  0  0  0  0
 35 36  1  0  0  0  0
 35 38  1  0  0  0  0
 35 41  2  0  0  0  0
 37 43  1  0  0  0  0
 38 39  2  0  0  0  0
 39 71  1  0  0  0  0
 40 41  1  0  0  0  0
 40 73  1  0  0  0  0
 42 44  1  0  0  0  0
 43 45  2  0  0  0  0
 43 46  1  0  0  0  0
 44 50  1  0  0  0  0
 44 74  1  0  0  0  0
 44 75  1  0  0  0  0
 45 47  1  0  0  0  0
 45 76  1  0  0  0  0
 46 48  2  0  0  0  0
 46 77  1  0  0  0  0
 47 49  2  0  0  0  0
 48 49  1  0  0  0  0
 48 79  1  0  0  0  0
M  END
>  <PUBCHEM_COMPOUND_CID>
74978238

>  <PUBCHEM_COMPOUND_CANONICALIZED>
1

>  <PUBCHEM_CACTVS_COMPLEXITY>
1260

>  <PUBCHEM_CACTVS_HBOND_ACCEPTOR>
20

>  <PUBCHEM_CACTVS_HBOND_DONOR>
11

>  <PUBCHEM_CACTVS_ROTATABLE_BOND>
11

>  <PUBCHEM_CACTVS_SUBSKEYS>
AAADcfB4PgAAAAAAAAAAAAAAAAAAAAAAAAA0aIECAAAAAACBQAAAGgAACAAADBSwmAMwDoAABgCIAqDSCAICCAAkIAAIiAFGiMgdNzaONR6ieWGl4BUPuQfI7LzOIAABCAAIQABAAAIQABCAAAAAAAAAAA==

>  <PUBCHEM_IUPAC_OPENEYE_NAME>
3-[[6-[2-(3,4-dihydroxyphenyl)-5-hydroxy-4-oxo-7-[3,4,5-trihydroxy-6-(hydroxymethyl)tetrahydropyran-2-yl]oxy-chromen-3-yl]oxy-3,4,5-trihydroxy-tetrahydropyran-2-yl]methoxy]-3-oxo-propanoic acid

>  <PUBCHEM_IUPAC_CAS_NAME>
3-[[6-[[2-(3,4-dihydroxyphenyl)-5-hydroxy-4-oxo-7-[[3,4,5-trihydroxy-6-(hydroxymethyl)-2-oxanyl]oxy]-1-benzopyran-3-yl]oxy]-3,4,5-trihydroxy-2-oxanyl]methoxy]-3-oxopropanoic acid

>  <PUBCHEM_IUPAC_NAME>
3-[[6-[2-(3,4-dihydroxyphenyl)-5-hydroxy-4-oxo-7-[3,4,5-trihydroxy-6-(hydroxymethyl)oxan-2-yl]oxychromen-3-yl]oxy-3,4,5-trihydroxyoxan-2-yl]methoxy]-3-oxopropanoic acid

>  <PUBCHEM_IUPAC_SYSTEMATIC_NAME>
3-[[6-[2-[3,4-bis(oxidanyl)phenyl]-7-[6-(hydroxymethyl)-3,4,5-tris(oxidanyl)oxan-2-yl]oxy-5-oxidanyl-4-oxidanylidene-chromen-3-yl]oxy-3,4,5-tris(oxidanyl)oxan-2-yl]methoxy]-3-oxidanylidene-propanoic acid

>  <PUBCHEM_IUPAC_TRADITIONAL_NAME>
3-[[6-[2-(3,4-dihydroxyphenyl)-5-hydroxy-4-keto-7-(3,4,5-trihydroxy-6-methylol-tetrahydropyran-2-yl)oxy-chromen-3-yl]oxy-3,4,5-trihydroxy-tetrahydropyran-2-yl]methoxy]-3-keto-propionic acid

>  <PUBCHEM_IUPAC_INCHI>
InChI=1S/C30H32O20/c31-7-15-20(38)23(41)25(43)29(48-15)46-10-4-13(34)19-14(5-10)47-27(9-1-2-11(32)12(33)3-9)28(22(19)40)50-30-26(44)24(42)21(39)16(49-30)8-45-18(37)6-17(35)36/h1-5,15-16,20-21,23-26,29-34,38-39,41-44H,6-8H2,(H,35,36)

>  <PUBCHEM_IUPAC_INCHIKEY>
ZLQYEKDHCDLAGO-UHFFFAOYSA-N

>  <PUBCHEM_XLOGP3_AA>
-1.7

>  <PUBCHEM_EXACT_MASS>
712.149

>  <PUBCHEM_MOLECULAR_FORMULA>
C30H32O20

>  <PUBCHEM_MOLECULAR_WEIGHT>
712.566

>  <PUBCHEM_OPENEYE_CAN_SMILES>
C1=CC(=C(C=C1C2=C(C(=O)C3=C(C=C(C=C3O2)OC4C(C(C(C(O4)CO)O)O)O)O)OC5C(C(C(C(O5)COC(=O)CC(=O)O)O)O)O)O)O

>  <PUBCHEM_OPENEYE_ISO_SMILES>
C1=CC(=C(C=C1C2=C(C(=O)C3=C(C=C(C=C3O2)OC4C(C(C(C(O4)CO)O)O)O)O)OC5C(C(C(C(O5)COC(=O)CC(=O)O)O)O)O)O)O

>  <PUBCHEM_CACTVS_TPSA>
329

>  <PUBCHEM_MONOISOTOPIC_WEIGHT>
712.149

>  <PUBCHEM_TOTAL_CHARGE>
0

>  <PUBCHEM_HEAVY_ATOM_COUNT>
50

>  <PUBCHEM_ATOM_DEF_STEREO_COUNT>
0

>  <PUBCHEM_ATOM_UDEF_STEREO_COUNT>
10

>  <PUBCHEM_BOND_DEF_STEREO_COUNT>
0

>  <PUBCHEM_BOND_UDEF_STEREO_COUNT>
0

>  <PUBCHEM_ISOTOPIC_ATOM_COUNT>
0

>  <PUBCHEM_COMPONENT_COUNT>
1

>  <PUBCHEM_CACTVS_TAUTO_COUNT>
68

>  <PUBCHEM_COORDINATE_TYPE>
1
5
255

>  <PUBCHEM_BONDANNOTATIONS>
28  10  3
13  37  8
13  38  8
23  31  3
29  32  3
27  3  3
33  36  8
33  37  8
34  39  8
34  40  8
35  36  8
35  38  8
35  41  8
38  39  8
21  4  3
40  41  8
43  45  8
43  46  8
45  47  8
46  48  8
47  49  8
48  49  8
22  5  3
30  6  3
24  7  3
25  8  3
26  9  3

$$$$
