74978422
 OpenBabel06101807152D

 59 62  0  0  1  0  0  0  0  0999 V2000
    5.1350   -0.8870    0.0000 O   0  0  0  0  0  0  0  0  0  0  0  0
    6.8671   -0.8870    0.0000 O   0  0  0  0  0  0  0  0  0  0  0  0
    5.1350   -3.8870    0.0000 O   0  0  0  0  0  0  0  0  0  0  0  0
    3.4030   -2.8870    0.0000 O   0  0  0  0  0  0  0  0  0  0  0  0
    6.8671   -2.8870    0.0000 O   0  0  0  0  0  0  0  0  0  0  0  0
    2.5369   -1.3870    0.0000 O   0  0  0  0  0  0  0  0  0  0  0  0
    8.6504    2.1272    0.0000 O   0  0  0  0  0  0  0  0  0  0  0  0
    5.1208    2.1922    0.0000 O   0  0  0  0  0  0  0  0  0  0  0  0
   10.3592    0.1073    0.0000 O   0  0  0  0  0  0  0  0  0  0  0  0
    8.6158   -0.8726    0.0000 O   0  0  0  0  0  0  0  0  0  0  0  0
   12.9745    1.5772    0.0000 O   0  0  0  0  0  0  0  0  0  0  0  0
   12.9976    3.5770    0.0000 O   0  0  0  0  0  0  0  0  0  0  0  0
    5.1350   -2.8870    0.0000 C   0  0  3  0  0  0  0  0  0  0  0  0
    4.2690   -2.3870    0.0000 C   0  0  3  0  0  0  0  0  0  0  0  0
    6.0010   -2.3870    0.0000 C   0  0  3  0  0  0  0  0  0  0  0  0
    4.2690   -1.3870    0.0000 C   0  0  3  0  0  0  0  0  0  0  0  0
    6.0010   -1.3870    0.0000 C   0  0  3  0  0  0  0  0  0  0  0  0
    3.4030   -0.8870    0.0000 C   0  0  0  0  0  0  0  0  0  0  0  0
    6.8671    0.1130    0.0000 C   0  0  0  0  0  0  0  0  0  0  0  0
    7.7671    0.6373    0.0000 C   0  0  0  0  0  0  0  0  0  0  0  0
    5.9670    0.6373    0.0000 C   0  0  0  0  0  0  0  0  0  0  0  0
    7.7787    1.6372    0.0000 C   0  0  0  0  0  0  0  0  0  0  0  0
    8.6273    0.1273    0.0000 C   0  0  0  0  0  0  0  0  0  0  0  0
    5.9790    1.6789    0.0000 C   0  0  0  0  0  0  0  0  0  0  0  0
    6.8910    2.1822    0.0000 C   0  0  0  0  0  0  0  0  0  0  0  0
    9.4991    0.6173    0.0000 C   0  0  0  0  0  0  0  0  0  0  0  0
    9.5106    1.6172    0.0000 C   0  0  0  0  0  0  0  0  0  0  0  0
   10.3824    2.1072    0.0000 C   0  0  0  0  0  0  0  0  0  0  0  0
   11.2426    1.5972    0.0000 C   0  0  0  0  0  0  0  0  0  0  0  0
   10.3939    3.1071    0.0000 C   0  0  0  0  0  0  0  0  0  0  0  0
    5.1363    3.1920    0.0000 C   0  0  0  0  0  0  0  0  0  0  0  0
   12.1143    2.0871    0.0000 C   0  0  0  0  0  0  0  0  0  0  0  0
   11.2657    3.5970    0.0000 C   0  0  0  0  0  0  0  0  0  0  0  0
   10.3477   -0.8926    0.0000 C   0  0  0  0  0  0  0  0  0  0  0  0
   12.1259    3.0871    0.0000 C   0  0  0  0  0  0  0  0  0  0  0  0
    5.6720   -3.1970    0.0000 H   0  0  0  0  0  0  0  0  0  0  0  0
    4.2690   -3.0070    0.0000 H   0  0  0  0  0  0  0  0  0  0  0  0
    6.5380   -2.0770    0.0000 H   0  0  0  0  0  0  0  0  0  0  0  0
    4.2690   -0.7670    0.0000 H   0  0  0  0  0  0  0  0  0  0  0  0
    6.0010   -0.7670    0.0000 H   0  0  0  0  0  0  0  0  0  0  0  0
    3.8015   -0.4120    0.0000 H   0  0  0  0  0  0  0  0  0  0  0  0
    3.0044   -0.4120    0.0000 H   0  0  0  0  0  0  0  0  0  0  0  0
    4.5981   -4.1970    0.0000 H   0  0  0  0  0  0  0  0  0  0  0  0
    3.4030   -3.5070    0.0000 H   0  0  0  0  0  0  0  0  0  0  0  0
    6.8671   -3.5070    0.0000 H   0  0  0  0  0  0  0  0  0  0  0  0
    2.0000   -1.0770    0.0000 H   0  0  0  0  0  0  0  0  0  0  0  0
    5.4277    0.3315    0.0000 H   0  0  0  0  0  0  0  0  0  0  0  0
    6.9053    2.8020    0.0000 H   0  0  0  0  0  0  0  0  0  0  0  0
   11.2354    0.9772    0.0000 H   0  0  0  0  0  0  0  0  0  0  0  0
    9.8606    3.4233    0.0000 H   0  0  0  0  0  0  0  0  0  0  0  0
    5.7562    3.1825    0.0000 H   0  0  0  0  0  0  0  0  0  0  0  0
    5.1458    3.8120    0.0000 H   0  0  0  0  0  0  0  0  0  0  0  0
    4.5163    3.2016    0.0000 H   0  0  0  0  0  0  0  0  0  0  0  0
   11.2729    4.2170    0.0000 H   0  0  0  0  0  0  0  0  0  0  0  0
    9.7277   -0.8855    0.0000 H   0  0  0  0  0  0  0  0  0  0  0  0
   10.3405   -1.5126    0.0000 H   0  0  0  0  0  0  0  0  0  0  0  0
   10.9676   -0.8998    0.0000 H   0  0  0  0  0  0  0  0  0  0  0  0
   13.5150    1.8809    0.0000 H   0  0  0  0  0  0  0  0  0  0  0  0
   13.0048    4.1970    0.0000 H   0  0  0  0  0  0  0  0  0  0  0  0
  1 16  1  0  0  0  0
  1 17  1  0  0  0  0
  2 17  1  0  0  0  0
  2 19  1  0  0  0  0
  3 13  1  0  0  0  0
  3 43  1  0  0  0  0
  4 14  1  0  0  0  0
  4 44  1  0  0  0  0
  5 15  1  0  0  0  0
  5 45  1  0  0  0  0
  6 18  1  0  0  0  0
  6 46  1  0  0  0  0
  7 22  1  0  0  0  0
  7 27  1  0  0  0  0
  8 24  1  0  0  0  0
  8 31  1  0  0  0  0
  9 26  1  0  0  0  0
  9 34  1  0  0  0  0
 10 23  2  0  0  0  0
 11 32  1  0  0  0  0
 11 58  1  0  0  0  0
 12 35  1  0  0  0  0
 12 59  1  0  0  0  0
 13 14  1  0  0  0  0
 13 15  1  0  0  0  0
 13 36  1  0  0  0  0
 14 16  1  0  0  0  0
 14 37  1  0  0  0  0
 15 17  1  0  0  0  0
 15 38  1  0  0  0  0
 16 18  1  0  0  0  0
 16 39  1  0  0  0  0
 17 40  1  0  0  0  0
 18 41  1  0  0  0  0
 18 42  1  0  0  0  0
 19 20  1  0  0  0  0
 19 21  2  0  0  0  0
 20 22  2  0  0  0  0
 20 23  1  0  0  0  0
 21 24  1  0  0  0  0
 21 47  1  0  0  0  0
 22 25  1  0  0  0  0
 23 26  1  0  0  0  0
 24 25  2  0  0  0  0
 25 48  1  0  0  0  0
 26 27  2  0  0  0  0
 27 28  1  0  0  0  0
 28 29  2  0  0  0  0
 28 30  1  0  0  0  0
 29 32  1  0  0  0  0
 29 49  1  0  0  0  0
 30 33  2  0  0  0  0
 30 50  1  0  0  0  0
 31 51  1  0  0  0  0
 31 52  1  0  0  0  0
 31 53  1  0  0  0  0
 32 35  2  0  0  0  0
 33 35  1  0  0  0  0
 33 54  1  0  0  0  0
 34 55  1  0  0  0  0
 34 56  1  0  0  0  0
 34 57  1  0  0  0  0
M  END
>  <PUBCHEM_COMPOUND_CID>
74978422

>  <PUBCHEM_COMPOUND_CANONICALIZED>
1

>  <PUBCHEM_CACTVS_COMPLEXITY>
789

>  <PUBCHEM_CACTVS_HBOND_ACCEPTOR>
12

>  <PUBCHEM_CACTVS_HBOND_DONOR>
6

>  <PUBCHEM_CACTVS_ROTATABLE_BOND>
6

>  <PUBCHEM_CACTVS_SUBSKEYS>
AAADceB4PAAAAAAAAAAAAAAAAAAAAAAAAAA0YIEAAAAAAACBQAAAGgAACAAADBSwmAMyDoAABgCIAqBSAAICCAAkIAAIiAFGiMgdNzaGNR6ieWGl4BUPuQfI7LzOIAABCAAIQABAAAIQABCAAAAAAAAAAA==

>  <PUBCHEM_IUPAC_OPENEYE_NAME>
2-(3,4-dihydroxyphenyl)-3,7-dimethoxy-5-[3,4,5-trihydroxy-6-(hydroxymethyl)tetrahydropyran-2-yl]oxy-chromen-4-one

>  <PUBCHEM_IUPAC_CAS_NAME>
2-(3,4-dihydroxyphenyl)-3,7-dimethoxy-5-[[3,4,5-trihydroxy-6-(hydroxymethyl)-2-oxanyl]oxy]-1-benzopyran-4-one

>  <PUBCHEM_IUPAC_NAME>
2-(3,4-dihydroxyphenyl)-3,7-dimethoxy-5-[3,4,5-trihydroxy-6-(hydroxymethyl)oxan-2-yl]oxychromen-4-one

>  <PUBCHEM_IUPAC_SYSTEMATIC_NAME>
2-[3,4-bis(oxidanyl)phenyl]-5-[6-(hydroxymethyl)-3,4,5-tris(oxidanyl)oxan-2-yl]oxy-3,7-dimethoxy-chromen-4-one

>  <PUBCHEM_IUPAC_TRADITIONAL_NAME>
2-(3,4-dihydroxyphenyl)-3,7-dimethoxy-5-(3,4,5-trihydroxy-6-methylol-tetrahydropyran-2-yl)oxy-chromone

>  <PUBCHEM_IUPAC_INCHI>
InChI=1S/C23H24O12/c1-31-10-6-13-16(14(7-10)34-23-20(30)19(29)17(27)15(8-24)35-23)18(28)22(32-2)21(33-13)9-3-4-11(25)12(26)5-9/h3-7,15,17,19-20,23-27,29-30H,8H2,1-2H3

>  <PUBCHEM_IUPAC_INCHIKEY>
IRESPESAHWABCC-UHFFFAOYSA-N

>  <PUBCHEM_XLOGP3_AA>
0.5

>  <PUBCHEM_EXACT_MASS>
492.127

>  <PUBCHEM_MOLECULAR_FORMULA>
C23H24O12

>  <PUBCHEM_MOLECULAR_WEIGHT>
492.433

>  <PUBCHEM_OPENEYE_CAN_SMILES>
COC1=CC(=C2C(=C1)OC(=C(C2=O)OC)C3=CC(=C(C=C3)O)O)OC4C(C(C(C(O4)CO)O)O)O

>  <PUBCHEM_OPENEYE_ISO_SMILES>
COC1=CC(=C2C(=C1)OC(=C(C2=O)OC)C3=CC(=C(C=C3)O)O)OC4C(C(C(C(O4)CO)O)O)O

>  <PUBCHEM_CACTVS_TPSA>
185

>  <PUBCHEM_MONOISOTOPIC_WEIGHT>
492.127

>  <PUBCHEM_TOTAL_CHARGE>
0

>  <PUBCHEM_HEAVY_ATOM_COUNT>
35

>  <PUBCHEM_ATOM_DEF_STEREO_COUNT>
0

>  <PUBCHEM_ATOM_UDEF_STEREO_COUNT>
5

>  <PUBCHEM_BOND_DEF_STEREO_COUNT>
0

>  <PUBCHEM_BOND_UDEF_STEREO_COUNT>
0

>  <PUBCHEM_ISOTOPIC_ATOM_COUNT>
0

>  <PUBCHEM_COMPONENT_COUNT>
1

>  <PUBCHEM_CACTVS_TAUTO_COUNT>
14

>  <PUBCHEM_COORDINATE_TYPE>
1
5
255

>  <PUBCHEM_BONDANNOTATIONS>
16  18  3
19  20  8
19  21  8
17  2  3
20  22  8
20  23  8
21  24  8
22  25  8
23  26  8
24  25  8
26  27  8
28  29  8
28  30  8
29  32  8
13  3  3
30  33  8
32  35  8
33  35  8
14  4  3
15  5  3
7  22  8
7  27  8

$$$$
