74976937
 OpenBabel06101807152D

 58 61  0  0  1  0  0  0  0  0999 V2000
    5.1350   -1.1907    0.0000 O   0  0  0  0  0  0  0  0  0  0  0  0
    3.4030   -3.1907    0.0000 O   0  0  0  0  0  0  0  0  0  0  0  0
    6.8671   -1.1907    0.0000 O   0  0  0  0  0  0  0  0  0  0  0  0
    5.1350   -4.1907    0.0000 O   0  0  0  0  0  0  0  0  0  0  0  0
    6.8671   -3.1907    0.0000 O   0  0  0  0  0  0  0  0  0  0  0  0
    2.5369   -1.6907    0.0000 O   0  0  0  0  0  0  0  0  0  0  0  0
    7.7331    1.3093    0.0000 O   0  3  0  0  0  0  0  0  0  0  0  0
    4.2690   -4.6907    0.0000 O   0  0  0  0  0  0  0  0  0  0  0  0
    4.2308    1.3062    0.0000 O   0  0  0  0  0  0  0  0  0  0  0  0
    5.9889    4.3786    0.0000 O   0  0  0  0  0  0  0  0  0  0  0  0
    9.4651   -2.6907    0.0000 O   0  0  0  0  0  0  0  0  0  0  0  0
   11.1972   -1.6907    0.0000 O   0  0  0  0  0  0  0  0  0  0  0  0
    4.2690   -2.6907    0.0000 C   0  0  3  0  0  0  0  0  0  0  0  0
    5.1350   -3.1907    0.0000 C   0  0  3  0  0  0  0  0  0  0  0  0
    4.2690   -1.6907    0.0000 C   0  0  3  0  0  0  0  0  0  0  0  0
    6.0010   -2.6907    0.0000 C   0  0  3  0  0  0  0  0  0  0  0  0
    6.0010   -1.6907    0.0000 C   0  0  3  0  0  0  0  0  0  0  0  0
    3.4030   -1.1907    0.0000 C   0  0  0  0  0  0  0  0  0  0  0  0
    6.8671   -0.1907    0.0000 C   0  0  0  0  0  0  0  0  0  0  0  0
    3.4030   -4.1907    0.0000 C   0  0  0  0  0  0  0  0  0  0  0  0
    7.7331    0.3093    0.0000 C   0  0  0  0  0  0  0  0  0  0  0  0
    6.0010    0.3093    0.0000 C   0  0  0  0  0  0  0  0  0  0  0  0
    6.0010    1.3093    0.0000 C   0  0  0  0  0  0  0  0  0  0  0  0
    2.5369   -4.6907    0.0000 C   0  0  0  0  0  0  0  0  0  0  0  0
    6.8671    1.8093    0.0000 C   0  0  0  0  0  0  0  0  0  0  0  0
    8.5991   -0.1907    0.0000 C   0  0  0  0  0  0  0  0  0  0  0  0
    5.0910    1.8162    0.0000 C   0  0  0  0  0  0  0  0  0  0  0  0
    6.8831    2.8508    0.0000 C   0  0  0  0  0  0  0  0  0  0  0  0
    8.5991   -1.1907    0.0000 C   0  0  0  0  0  0  0  0  0  0  0  0
    9.4651    0.3093    0.0000 C   0  0  0  0  0  0  0  0  0  0  0  0
    5.0830    2.8578    0.0000 C   0  0  0  0  0  0  0  0  0  0  0  0
    5.9851    3.3786    0.0000 C   0  0  0  0  0  0  0  0  0  0  0  0
    9.4651   -1.6907    0.0000 C   0  0  0  0  0  0  0  0  0  0  0  0
   10.3312   -0.1907    0.0000 C   0  0  0  0  0  0  0  0  0  0  0  0
   10.3312   -1.1907    0.0000 C   0  0  0  0  0  0  0  0  0  0  0  0
    4.2690   -3.3107    0.0000 H   0  0  0  0  0  0  0  0  0  0  0  0
    5.6720   -3.5007    0.0000 H   0  0  0  0  0  0  0  0  0  0  0  0
    4.2690   -1.0707    0.0000 H   0  0  0  0  0  0  0  0  0  0  0  0
    6.5380   -2.3807    0.0000 H   0  0  0  0  0  0  0  0  0  0  0  0
    6.0010   -1.0707    0.0000 H   0  0  0  0  0  0  0  0  0  0  0  0
    3.8015   -0.7157    0.0000 H   0  0  0  0  0  0  0  0  0  0  0  0
    3.0044   -0.7157    0.0000 H   0  0  0  0  0  0  0  0  0  0  0  0
    5.6720   -4.5007    0.0000 H   0  0  0  0  0  0  0  0  0  0  0  0
    7.4040   -2.8807    0.0000 H   0  0  0  0  0  0  0  0  0  0  0  0
    2.0000   -1.3807    0.0000 H   0  0  0  0  0  0  0  0  0  0  0  0
    5.4641   -0.0007    0.0000 H   0  0  0  0  0  0  0  0  0  0  0  0
    2.2269   -4.1537    0.0000 H   0  0  0  0  0  0  0  0  0  0  0  0
    2.0000   -5.0007    0.0000 H   0  0  0  0  0  0  0  0  0  0  0  0
    2.8469   -5.2276    0.0000 H   0  0  0  0  0  0  0  0  0  0  0  0
    7.4236    3.1546    0.0000 H   0  0  0  0  0  0  0  0  0  0  0  0
    8.0622   -1.5007    0.0000 H   0  0  0  0  0  0  0  0  0  0  0  0
    9.4651    0.9293    0.0000 H   0  0  0  0  0  0  0  0  0  0  0  0
    4.5449    3.1657    0.0000 H   0  0  0  0  0  0  0  0  0  0  0  0
   10.8681    0.1193    0.0000 H   0  0  0  0  0  0  0  0  0  0  0  0
    3.6904    1.6100    0.0000 H   0  0  0  0  0  0  0  0  0  0  0  0
    5.4532    4.6907    0.0000 H   0  0  0  0  0  0  0  0  0  0  0  0
   10.0021   -3.0007    0.0000 H   0  0  0  0  0  0  0  0  0  0  0  0
   11.7341   -1.3807    0.0000 H   0  0  0  0  0  0  0  0  0  0  0  0
  1 15  1  0  0  0  0
  1 17  1  0  0  0  0
  2 13  1  0  0  0  0
  2 20  1  0  0  0  0
  3 17  1  0  0  0  0
  3 19  1  0  0  0  0
  4 14  1  0  0  0  0
  4 43  1  0  0  0  0
  5 16  1  0  0  0  0
  5 44  1  0  0  0  0
  6 18  1  0  0  0  0
  6 45  1  0  0  0  0
  7 21  2  0  0  0  0
  7 25  1  0  0  0  0
  8 20  2  0  0  0  0
  9 27  1  0  0  0  0
  9 55  1  0  0  0  0
 10 32  1  0  0  0  0
 10 56  1  0  0  0  0
 11 33  1  0  0  0  0
 11 57  1  0  0  0  0
 12 35  1  0  0  0  0
 12 58  1  0  0  0  0
 13 14  1  0  0  0  0
 13 15  1  0  0  0  0
 13 36  1  0  0  0  0
 14 16  1  0  0  0  0
 14 37  1  0  0  0  0
 15 18  1  0  0  0  0
 15 38  1  0  0  0  0
 16 17  1  0  0  0  0
 16 39  1  0  0  0  0
 17 40  1  0  0  0  0
 18 41  1  0  0  0  0
 18 42  1  0  0  0  0
 19 21  1  0  0  0  0
 19 22  2  0  0  0  0
 20 24  1  0  0  0  0
 21 26  1  0  0  0  0
 22 23  1  0  0  0  0
 22 46  1  0  0  0  0
 23 25  1  0  0  0  0
 23 27  2  0  0  0  0
 24 47  1  0  0  0  0
 24 48  1  0  0  0  0
 24 49  1  0  0  0  0
 25 28  2  0  0  0  0
 26 29  2  0  0  0  0
 26 30  1  0  0  0  0
 27 31  1  0  0  0  0
 28 32  1  0  0  0  0
 28 50  1  0  0  0  0
 29 33  1  0  0  0  0
 29 51  1  0  0  0  0
 30 34  2  0  0  0  0
 30 52  1  0  0  0  0
 31 32  2  0  0  0  0
 31 53  1  0  0  0  0
 33 35  2  0  0  0  0
 34 35  1  0  0  0  0
 34 54  1  0  0  0  0
M  CHG  1   7   1
M  END
>  <PUBCHEM_COMPOUND_CID>
74976937

>  <PUBCHEM_COMPOUND_CANONICALIZED>
1

>  <PUBCHEM_CACTVS_COMPLEXITY>
723

>  <PUBCHEM_CACTVS_HBOND_ACCEPTOR>
11

>  <PUBCHEM_CACTVS_HBOND_DONOR>
7

>  <PUBCHEM_CACTVS_ROTATABLE_BOND>
6

>  <PUBCHEM_CACTVS_SUBSKEYS>
AAADceB4PAAAAAAAAAAAAAAAAAAAAAAAAAA0aIEAAAAAAACR9AAAGgAACAAADBSwmAMyDsAABkCIAqDSCAICCAAkIAAIiAFGiMgdNzaGNR6ieWOl4BUPuYfK7PzOIAABCAAIQABAAAIQABCAAAAAAAAAAA==

>  <PUBCHEM_IUPAC_OPENEYE_NAME>
[6-[2-(3,4-dihydroxyphenyl)-5,7-dihydroxy-chromenylium-3-yl]oxy-4,5-dihydroxy-2-(hydroxymethyl)tetrahydropyran-3-yl] acetate

>  <PUBCHEM_IUPAC_CAS_NAME>
acetic acid [6-[[2-(3,4-dihydroxyphenyl)-5,7-dihydroxy-1-benzopyrylium-3-yl]oxy]-4,5-dihydroxy-2-(hydroxymethyl)-3-oxanyl] ester

>  <PUBCHEM_IUPAC_NAME>
[6-[2-(3,4-dihydroxyphenyl)-5,7-dihydroxychromenylium-3-yl]oxy-4,5-dihydroxy-2-(hydroxymethyl)oxan-3-yl] acetate

>  <PUBCHEM_IUPAC_SYSTEMATIC_NAME>
[6-[2-[3,4-bis(oxidanyl)phenyl]-5,7-bis(oxidanyl)chromenylium-3-yl]oxy-2-(hydroxymethyl)-4,5-bis(oxidanyl)oxan-3-yl] ethanoate

>  <PUBCHEM_IUPAC_TRADITIONAL_NAME>
acetic acid [6-[[2-(3,4-dihydroxyphenyl)-5,7-dihydroxy-1-benzopyrylium-3-yl]oxy]-4,5-dihydroxy-2-methylol-tetrahydropyran-3-yl] ester

>  <PUBCHEM_IUPAC_INCHI>
InChI=1S/C23H22O12/c1-9(25)32-22-18(8-24)35-23(20(31)19(22)30)34-17-7-12-14(28)5-11(26)6-16(12)33-21(17)10-2-3-13(27)15(29)4-10/h2-7,18-20,22-24,30-31H,8H2,1H3,(H3-,26,27,28,29)/p+1

>  <PUBCHEM_IUPAC_INCHIKEY>
WCYSXTJZNKVDKY-UHFFFAOYSA-O

>  <PUBCHEM_EXACT_MASS>
491.119

>  <PUBCHEM_MOLECULAR_FORMULA>
C23H23O12+

>  <PUBCHEM_MOLECULAR_WEIGHT>
491.425

>  <PUBCHEM_OPENEYE_CAN_SMILES>
CC(=O)OC1C(OC(C(C1O)O)OC2=C([O+]=C3C=C(C=C(C3=C2)O)O)C4=CC(=C(C=C4)O)O)CO

>  <PUBCHEM_OPENEYE_ISO_SMILES>
CC(=O)OC1C(OC(C(C1O)O)OC2=C([O+]=C3C=C(C=C(C3=C2)O)O)C4=CC(=C(C=C4)O)O)CO

>  <PUBCHEM_CACTVS_TPSA>
187

>  <PUBCHEM_MONOISOTOPIC_WEIGHT>
491.119

>  <PUBCHEM_TOTAL_CHARGE>
1

>  <PUBCHEM_HEAVY_ATOM_COUNT>
35

>  <PUBCHEM_ATOM_DEF_STEREO_COUNT>
0

>  <PUBCHEM_ATOM_UDEF_STEREO_COUNT>
5

>  <PUBCHEM_BOND_DEF_STEREO_COUNT>
0

>  <PUBCHEM_BOND_UDEF_STEREO_COUNT>
0

>  <PUBCHEM_ISOTOPIC_ATOM_COUNT>
0

>  <PUBCHEM_COMPONENT_COUNT>
1

>  <PUBCHEM_CACTVS_TAUTO_COUNT>
171

>  <PUBCHEM_COORDINATE_TYPE>
1
5
255

>  <PUBCHEM_BONDANNOTATIONS>
15  18  3
19  21  8
19  22  8
13  2  3
22  23  8
23  25  8
23  27  8
25  28  8
26  29  8
26  30  8
27  31  8
28  32  8
29  33  8
17  3  3
30  34  8
31  32  8
33  35  8
34  35  8
14  4  3
16  5  3
7  21  8
7  25  8

$$$$
