74977751
 OpenBabel06101807152D

 58 61  0  0  1  0  0  0  0  0999 V2000
    5.1350   -2.1246    0.0000 O   0  0  0  0  0  0  0  0  0  0  0  0
    6.8671   -2.1246    0.0000 O   0  0  0  0  0  0  0  0  0  0  0  0
    5.1350   -5.1246    0.0000 O   0  0  0  0  0  0  0  0  0  0  0  0
    3.4030   -4.1246    0.0000 O   0  0  0  0  0  0  0  0  0  0  0  0
    6.8671   -4.1246    0.0000 O   0  0  0  0  0  0  0  0  0  0  0  0
    2.5369   -2.6246    0.0000 O   0  0  0  0  0  0  0  0  0  0  0  0
    3.4030   -1.1246    0.0000 O   0  0  0  0  0  0  0  0  0  0  0  0
    8.6230    0.9379    0.0000 O   0  0  0  0  0  0  0  0  0  0  0  0
    5.1208    0.9546    0.0000 O   0  0  0  0  0  0  0  0  0  0  0  0
    6.0308    2.4479    0.0000 O   0  0  0  0  0  0  0  0  0  0  0  0
   10.3705    4.9312    0.0000 O   0  0  0  0  0  0  0  0  0  0  0  0
   12.0910    1.9246    0.0000 O   0  0  0  0  0  0  0  0  0  0  0  0
   12.0987    3.9246    0.0000 O   0  0  0  0  0  0  0  0  0  0  0  0
    5.1350   -4.1246    0.0000 C   0  0  3  0  0  0  0  0  0  0  0  0
    4.2690   -3.6246    0.0000 C   0  0  3  0  0  0  0  0  0  0  0  0
    6.0010   -3.6246    0.0000 C   0  0  3  0  0  0  0  0  0  0  0  0
    4.2690   -2.6246    0.0000 C   0  0  3  0  0  0  0  0  0  0  0  0
    6.0010   -2.6246    0.0000 C   0  0  3  0  0  0  0  0  0  0  0  0
    3.4030   -2.1246    0.0000 C   0  0  0  0  0  0  0  0  0  0  0  0
    6.8671   -1.1246    0.0000 C   0  0  0  0  0  0  0  0  0  0  0  0
    7.7671   -0.6003    0.0000 C   0  0  0  0  0  0  0  0  0  0  0  0
    5.9670   -0.6003    0.0000 C   0  0  0  0  0  0  0  0  0  0  0  0
    7.7551    0.4413    0.0000 C   0  0  0  0  0  0  0  0  0  0  0  0
    6.8910    0.9446    0.0000 C   0  0  0  0  0  0  0  0  0  0  0  0
    5.9790    0.4413    0.0000 C   0  0  0  0  0  0  0  0  0  0  0  0
    6.8948    1.9446    0.0000 C   0  0  0  0  0  0  0  0  0  0  0  0
    8.6269    1.9379    0.0000 C   0  0  0  0  0  0  0  0  0  0  0  0
    7.7628    2.4413    0.0000 C   0  0  0  0  0  0  0  0  0  0  0  0
    9.4948    2.4346    0.0000 C   0  0  0  0  0  0  0  0  0  0  0  0
   10.3589    1.9313    0.0000 C   0  0  0  0  0  0  0  0  0  0  0  0
    9.4987    3.4346    0.0000 C   0  0  0  0  0  0  0  0  0  0  0  0
   10.3666    3.9312    0.0000 C   0  0  0  0  0  0  0  0  0  0  0  0
   11.2269    2.4279    0.0000 C   0  0  0  0  0  0  0  0  0  0  0  0
   11.2307    3.4279    0.0000 C   0  0  0  0  0  0  0  0  0  0  0  0
    9.5064    5.4346    0.0000 C   0  0  0  0  0  0  0  0  0  0  0  0
   12.0871    0.9246    0.0000 C   0  0  0  0  0  0  0  0  0  0  0  0
    5.6720   -4.4346    0.0000 H   0  0  0  0  0  0  0  0  0  0  0  0
    3.7320   -3.3146    0.0000 H   0  0  0  0  0  0  0  0  0  0  0  0
    6.5380   -3.3146    0.0000 H   0  0  0  0  0  0  0  0  0  0  0  0
    4.2690   -2.0046    0.0000 H   0  0  0  0  0  0  0  0  0  0  0  0
    6.0010   -2.0046    0.0000 H   0  0  0  0  0  0  0  0  0  0  0  0
    5.6720   -5.4346    0.0000 H   0  0  0  0  0  0  0  0  0  0  0  0
    3.4030   -4.7446    0.0000 H   0  0  0  0  0  0  0  0  0  0  0  0
    7.4040   -3.8146    0.0000 H   0  0  0  0  0  0  0  0  0  0  0  0
    8.3064   -0.9061    0.0000 H   0  0  0  0  0  0  0  0  0  0  0  0
    5.4277   -0.9061    0.0000 H   0  0  0  0  0  0  0  0  0  0  0  0
    2.0000   -2.3146    0.0000 H   0  0  0  0  0  0  0  0  0  0  0  0
    7.7652    3.0613    0.0000 H   0  0  0  0  0  0  0  0  0  0  0  0
    4.5792    0.6529    0.0000 H   0  0  0  0  0  0  0  0  0  0  0  0
   10.3565    1.3113    0.0000 H   0  0  0  0  0  0  0  0  0  0  0  0
    8.9630    3.7466    0.0000 H   0  0  0  0  0  0  0  0  0  0  0  0
   12.1011    4.5446    0.0000 H   0  0  0  0  0  0  0  0  0  0  0  0
    9.8185    5.9703    0.0000 H   0  0  0  0  0  0  0  0  0  0  0  0
    8.9707    5.7466    0.0000 H   0  0  0  0  0  0  0  0  0  0  0  0
    9.1943    4.8988    0.0000 H   0  0  0  0  0  0  0  0  0  0  0  0
   11.4671    0.9270    0.0000 H   0  0  0  0  0  0  0  0  0  0  0  0
   12.0847    0.3046    0.0000 H   0  0  0  0  0  0  0  0  0  0  0  0
   12.7071    0.9222    0.0000 H   0  0  0  0  0  0  0  0  0  0  0  0
  1 17  1  0  0  0  0
  1 18  1  0  0  0  0
  2 18  1  0  0  0  0
  2 20  1  0  0  0  0
  3 14  1  0  0  0  0
  3 42  1  0  0  0  0
  4 15  1  0  0  0  0
  4 43  1  0  0  0  0
  5 16  1  0  0  0  0
  5 44  1  0  0  0  0
  6 19  1  0  0  0  0
  6 47  1  0  0  0  0
  7 19  2  0  0  0  0
  8 23  1  0  0  0  0
  8 27  1  0  0  0  0
  9 25  1  0  0  0  0
  9 49  1  0  0  0  0
 10 26  2  0  0  0  0
 11 32  1  0  0  0  0
 11 35  1  0  0  0  0
 12 33  1  0  0  0  0
 12 36  1  0  0  0  0
 13 34  1  0  0  0  0
 13 52  1  0  0  0  0
 14 15  1  0  0  0  0
 14 16  1  0  0  0  0
 14 37  1  0  0  0  0
 15 17  1  0  0  0  0
 15 38  1  0  0  0  0
 16 18  1  0  0  0  0
 16 39  1  0  0  0  0
 17 19  1  0  0  0  0
 17 40  1  0  0  0  0
 18 41  1  0  0  0  0
 20 21  1  0  0  0  0
 20 22  2  0  0  0  0
 21 23  2  0  0  0  0
 21 45  1  0  0  0  0
 22 25  1  0  0  0  0
 22 46  1  0  0  0  0
 23 24  1  0  0  0  0
 24 25  2  0  0  0  0
 24 26  1  0  0  0  0
 26 28  1  0  0  0  0
 27 28  2  0  0  0  0
 27 29  1  0  0  0  0
 28 48  1  0  0  0  0
 29 30  2  0  0  0  0
 29 31  1  0  0  0  0
 30 33  1  0  0  0  0
 30 50  1  0  0  0  0
 31 32  2  0  0  0  0
 31 51  1  0  0  0  0
 32 34  1  0  0  0  0
 33 34  2  0  0  0  0
 35 53  1  0  0  0  0
 35 54  1  0  0  0  0
 35 55  1  0  0  0  0
 36 56  1  0  0  0  0
 36 57  1  0  0  0  0
 36 58  1  0  0  0  0
M  END
>  <PUBCHEM_COMPOUND_CID>
74977751

>  <PUBCHEM_COMPOUND_CANONICALIZED>
1

>  <PUBCHEM_CACTVS_COMPLEXITY>
834

>  <PUBCHEM_CACTVS_HBOND_ACCEPTOR>
13

>  <PUBCHEM_CACTVS_HBOND_DONOR>
6

>  <PUBCHEM_CACTVS_ROTATABLE_BOND>
6

>  <PUBCHEM_CACTVS_SUBSKEYS>
AAADceB4PAAAAAAAAAAAAAAAAAAAAAAAAAA0YIEAAAAAAACBQAAAGgAACAAADBSwmAMyDoAABgCIAqDSCAICCAAkIAAAiAFGiMgdNzaGNR6ieWOl4BUPuQfK7LzOIAABCAAIQABAAAIQABCAAAAAAAAAAA==

>  <PUBCHEM_IUPAC_OPENEYE_NAME>
3,4,5-trihydroxy-6-[5-hydroxy-2-(4-hydroxy-3,5-dimethoxy-phenyl)-4-oxo-chromen-7-yl]oxy-tetrahydropyran-2-carboxylic acid

>  <PUBCHEM_IUPAC_CAS_NAME>
3,4,5-trihydroxy-6-[[5-hydroxy-2-(4-hydroxy-3,5-dimethoxyphenyl)-4-oxo-1-benzopyran-7-yl]oxy]-2-oxanecarboxylic acid

>  <PUBCHEM_IUPAC_NAME>
3,4,5-trihydroxy-6-[5-hydroxy-2-(4-hydroxy-3,5-dimethoxyphenyl)-4-oxochromen-7-yl]oxyoxane-2-carboxylic acid

>  <PUBCHEM_IUPAC_SYSTEMATIC_NAME>
6-[2-(3,5-dimethoxy-4-oxidanyl-phenyl)-5-oxidanyl-4-oxidanylidene-chromen-7-yl]oxy-3,4,5-tris(oxidanyl)oxane-2-carboxylic acid

>  <PUBCHEM_IUPAC_TRADITIONAL_NAME>
3,4,5-trihydroxy-6-[5-hydroxy-2-(4-hydroxy-3,5-dimethoxy-phenyl)-4-keto-chromen-7-yl]oxy-tetrahydropyran-2-carboxylic acid

>  <PUBCHEM_IUPAC_INCHI>
InChI=1S/C23H22O13/c1-32-14-3-8(4-15(33-2)17(14)26)12-7-11(25)16-10(24)5-9(6-13(16)35-12)34-23-20(29)18(27)19(28)21(36-23)22(30)31/h3-7,18-21,23-24,26-29H,1-2H3,(H,30,31)

>  <PUBCHEM_IUPAC_INCHIKEY>
HJWFFBNADKDQPV-UHFFFAOYSA-N

>  <PUBCHEM_XLOGP3_AA>
1.1

>  <PUBCHEM_EXACT_MASS>
506.106

>  <PUBCHEM_MOLECULAR_FORMULA>
C23H22O13

>  <PUBCHEM_MOLECULAR_WEIGHT>
506.416

>  <PUBCHEM_OPENEYE_CAN_SMILES>
COC1=CC(=CC(=C1O)OC)C2=CC(=O)C3=C(C=C(C=C3O2)OC4C(C(C(C(O4)C(=O)O)O)O)O)O

>  <PUBCHEM_OPENEYE_ISO_SMILES>
COC1=CC(=CC(=C1O)OC)C2=CC(=O)C3=C(C=C(C=C3O2)OC4C(C(C(C(O4)C(=O)O)O)O)O)O

>  <PUBCHEM_CACTVS_TPSA>
202

>  <PUBCHEM_MONOISOTOPIC_WEIGHT>
506.106

>  <PUBCHEM_TOTAL_CHARGE>
0

>  <PUBCHEM_HEAVY_ATOM_COUNT>
36

>  <PUBCHEM_ATOM_DEF_STEREO_COUNT>
0

>  <PUBCHEM_ATOM_UDEF_STEREO_COUNT>
5

>  <PUBCHEM_BOND_DEF_STEREO_COUNT>
0

>  <PUBCHEM_BOND_UDEF_STEREO_COUNT>
0

>  <PUBCHEM_ISOTOPIC_ATOM_COUNT>
0

>  <PUBCHEM_COMPONENT_COUNT>
1

>  <PUBCHEM_CACTVS_TAUTO_COUNT>
24

>  <PUBCHEM_COORDINATE_TYPE>
1
5
255

>  <PUBCHEM_BONDANNOTATIONS>
17  19  3
18  2  3
20  21  8
20  22  8
21  23  8
22  25  8
23  24  8
24  25  8
24  26  8
26  28  8
27  28  8
29  30  8
29  31  8
14  3  3
30  33  8
31  32  8
32  34  8
33  34  8
15  4  3
16  5  3
8  23  8
8  27  8

$$$$
