74976920
 OpenBabel06101807152D

 70 74  0  0  1  0  0  0  0  0999 V2000
    6.8671   -1.7857    0.0000 O   0  0  0  0  0  0  0  0  0  0  0  0
    5.1350    0.2143    0.0000 O   0  0  0  0  0  0  0  0  0  0  0  0
    6.0010   -3.2857    0.0000 O   0  0  0  0  0  0  0  0  0  0  0  0
    6.8671    0.2143    0.0000 O   0  0  0  0  0  0  0  0  0  0  0  0
    5.1350   -2.7857    0.0000 O   0  0  0  0  0  0  0  0  0  0  0  0
    3.4030   -1.7857    0.0000 O   0  0  0  0  0  0  0  0  0  0  0  0
    8.5991   -2.7857    0.0000 O   0  0  0  0  0  0  0  0  0  0  0  0
    8.5991   -4.7857    0.0000 O   0  0  0  0  0  0  0  0  0  0  0  0
    6.8671   -5.7857    0.0000 O   0  0  0  0  0  0  0  0  0  0  0  0
    2.5369   -0.2857    0.0000 O   0  0  0  0  0  0  0  0  0  0  0  0
    7.7331    2.7143    0.0000 O   0  3  0  0  0  0  0  0  0  0  0  0
    4.2308    2.7112    0.0000 O   0  0  0  0  0  0  0  0  0  0  0  0
    5.9889    5.7836    0.0000 O   0  0  0  0  0  0  0  0  0  0  0  0
   11.1972    1.7143    0.0000 O   0  0  0  0  0  0  0  0  0  0  0  0
   11.1972   -0.2857    0.0000 O   0  0  0  0  0  0  0  0  0  0  0  0
    6.0010   -1.2857    0.0000 C   0  0  3  0  0  0  0  0  0  0  0  0
    5.1350   -1.7857    0.0000 C   0  0  3  0  0  0  0  0  0  0  0  0
    4.2690   -1.2857    0.0000 C   0  0  3  0  0  0  0  0  0  0  0  0
    4.2690   -0.2857    0.0000 C   0  0  3  0  0  0  0  0  0  0  0  0
    6.0010   -0.2857    0.0000 C   0  0  3  0  0  0  0  0  0  0  0  0
    6.8671   -2.7857    0.0000 C   0  0  3  0  0  0  0  0  0  0  0  0
    7.7331   -3.2857    0.0000 C   0  0  3  0  0  0  0  0  0  0  0  0
    7.7331   -4.2857    0.0000 C   0  0  3  0  0  0  0  0  0  0  0  0
    6.8671   -4.7857    0.0000 C   0  0  3  0  0  0  0  0  0  0  0  0
    3.4030    0.2143    0.0000 C   0  0  0  0  0  0  0  0  0  0  0  0
    6.0010   -4.2857    0.0000 C   0  0  0  0  0  0  0  0  0  0  0  0
    6.8671    1.2143    0.0000 C   0  0  0  0  0  0  0  0  0  0  0  0
    7.7331    1.7143    0.0000 C   0  0  0  0  0  0  0  0  0  0  0  0
    6.0010    1.7143    0.0000 C   0  0  0  0  0  0  0  0  0  0  0  0
    6.0010    2.7143    0.0000 C   0  0  0  0  0  0  0  0  0  0  0  0
    8.5991    1.2143    0.0000 C   0  0  0  0  0  0  0  0  0  0  0  0
    6.8671    3.2143    0.0000 C   0  0  0  0  0  0  0  0  0  0  0  0
    5.0910    3.2212    0.0000 C   0  0  0  0  0  0  0  0  0  0  0  0
    6.8831    4.2558    0.0000 C   0  0  0  0  0  0  0  0  0  0  0  0
    9.4651    1.7143    0.0000 C   0  0  0  0  0  0  0  0  0  0  0  0
    8.5991    0.2143    0.0000 C   0  0  0  0  0  0  0  0  0  0  0  0
    5.0830    4.2628    0.0000 C   0  0  0  0  0  0  0  0  0  0  0  0
    5.9851    4.7836    0.0000 C   0  0  0  0  0  0  0  0  0  0  0  0
   10.3312    1.2143    0.0000 C   0  0  0  0  0  0  0  0  0  0  0  0
    9.4651   -0.2857    0.0000 C   0  0  0  0  0  0  0  0  0  0  0  0
   10.3312    0.2143    0.0000 C   0  0  0  0  0  0  0  0  0  0  0  0
    6.0010   -1.9057    0.0000 H   0  0  0  0  0  0  0  0  0  0  0  0
    4.5981   -2.0957    0.0000 H   0  0  0  0  0  0  0  0  0  0  0  0
    3.7320   -0.9757    0.0000 H   0  0  0  0  0  0  0  0  0  0  0  0
    4.2690    0.3343    0.0000 H   0  0  0  0  0  0  0  0  0  0  0  0
    6.0010    0.3343    0.0000 H   0  0  0  0  0  0  0  0  0  0  0  0
    7.4040   -2.4757    0.0000 H   0  0  0  0  0  0  0  0  0  0  0  0
    8.2700   -3.5957    0.0000 H   0  0  0  0  0  0  0  0  0  0  0  0
    7.7331   -4.9057    0.0000 H   0  0  0  0  0  0  0  0  0  0  0  0
    6.3301   -5.0957    0.0000 H   0  0  0  0  0  0  0  0  0  0  0  0
    3.8015    0.6893    0.0000 H   0  0  0  0  0  0  0  0  0  0  0  0
    3.0044    0.6893    0.0000 H   0  0  0  0  0  0  0  0  0  0  0  0
    5.3905   -4.1780    0.0000 H   0  0  0  0  0  0  0  0  0  0  0  0
    5.7890   -4.8683    0.0000 H   0  0  0  0  0  0  0  0  0  0  0  0
    4.5981   -3.0957    0.0000 H   0  0  0  0  0  0  0  0  0  0  0  0
    3.4030   -2.4057    0.0000 H   0  0  0  0  0  0  0  0  0  0  0  0
    9.1360   -3.0957    0.0000 H   0  0  0  0  0  0  0  0  0  0  0  0
    8.5991   -5.4057    0.0000 H   0  0  0  0  0  0  0  0  0  0  0  0
    6.3301   -6.0957    0.0000 H   0  0  0  0  0  0  0  0  0  0  0  0
    2.0000    0.0243    0.0000 H   0  0  0  0  0  0  0  0  0  0  0  0
    5.4641    1.4043    0.0000 H   0  0  0  0  0  0  0  0  0  0  0  0
    7.4236    4.5596    0.0000 H   0  0  0  0  0  0  0  0  0  0  0  0
    9.4651    2.3343    0.0000 H   0  0  0  0  0  0  0  0  0  0  0  0
    8.0622   -0.0957    0.0000 H   0  0  0  0  0  0  0  0  0  0  0  0
    4.5449    4.5707    0.0000 H   0  0  0  0  0  0  0  0  0  0  0  0
    9.4651   -0.9057    0.0000 H   0  0  0  0  0  0  0  0  0  0  0  0
    3.6904    3.0150    0.0000 H   0  0  0  0  0  0  0  0  0  0  0  0
    5.4532    6.0957    0.0000 H   0  0  0  0  0  0  0  0  0  0  0  0
   11.1972    2.3343    0.0000 H   0  0  0  0  0  0  0  0  0  0  0  0
   11.1972   -0.9057    0.0000 H   0  0  0  0  0  0  0  0  0  0  0  0
  1 16  1  0  0  0  0
  1 21  1  0  0  0  0
  2 19  1  0  0  0  0
  2 20  1  0  0  0  0
  3 21  1  0  0  0  0
  3 26  1  0  0  0  0
  4 20  1  0  0  0  0
  4 27  1  0  0  0  0
  5 17  1  0  0  0  0
  5 55  1  0  0  0  0
  6 18  1  0  0  0  0
  6 56  1  0  0  0  0
  7 22  1  0  0  0  0
  7 57  1  0  0  0  0
  8 23  1  0  0  0  0
  8 58  1  0  0  0  0
  9 24  1  0  0  0  0
  9 59  1  0  0  0  0
 10 25  1  0  0  0  0
 10 60  1  0  0  0  0
 11 28  2  0  0  0  0
 11 32  1  0  0  0  0
 12 33  1  0  0  0  0
 12 67  1  0  0  0  0
 13 38  1  0  0  0  0
 13 68  1  0  0  0  0
 14 39  1  0  0  0  0
 14 69  1  0  0  0  0
 15 41  1  0  0  0  0
 15 70  1  0  0  0  0
 16 17  1  0  0  0  0
 16 20  1  0  0  0  0
 16 42  1  0  0  0  0
 17 18  1  0  0  0  0
 17 43  1  0  0  0  0
 18 19  1  0  0  0  0
 18 44  1  0  0  0  0
 19 25  1  0  0  0  0
 19 45  1  0  0  0  0
 20 46  1  0  0  0  0
 21 22  1  0  0  0  0
 21 47  1  0  0  0  0
 22 23  1  0  0  0  0
 22 48  1  0  0  0  0
 23 24  1  0  0  0  0
 23 49  1  0  0  0  0
 24 26  1  0  0  0  0
 24 50  1  0  0  0  0
 25 51  1  0  0  0  0
 25 52  1  0  0  0  0
 26 53  1  0  0  0  0
 26 54  1  0  0  0  0
 27 28  1  0  0  0  0
 27 29  2  0  0  0  0
 28 31  1  0  0  0  0
 29 30  1  0  0  0  0
 29 61  1  0  0  0  0
 30 32  1  0  0  0  0
 30 33  2  0  0  0  0
 31 35  2  0  0  0  0
 31 36  1  0  0  0  0
 32 34  2  0  0  0  0
 33 37  1  0  0  0  0
 34 38  1  0  0  0  0
 34 62  1  0  0  0  0
 35 39  1  0  0  0  0
 35 63  1  0  0  0  0
 36 40  2  0  0  0  0
 36 64  1  0  0  0  0
 37 38  2  0  0  0  0
 37 65  1  0  0  0  0
 39 41  2  0  0  0  0
 40 41  1  0  0  0  0
 40 66  1  0  0  0  0
M  CHG  1  11   1
M  END
>  <PUBCHEM_COMPOUND_CID>
74976920

>  <PUBCHEM_COMPOUND_CANONICALIZED>
1

>  <PUBCHEM_CACTVS_COMPLEXITY>
852

>  <PUBCHEM_CACTVS_HBOND_ACCEPTOR>
14

>  <PUBCHEM_CACTVS_HBOND_DONOR>
10

>  <PUBCHEM_CACTVS_ROTATABLE_BOND>
6

>  <PUBCHEM_CACTVS_SUBSKEYS>
AAADceB4PAAAAAAAAAAAAAAAAAAAAAAAAAA0aJECAAAAAACR9AAAGgAACAAADBSwmAMwDsAABkCIAqBSAAICCAAkIAAIiAFGiMgdNzaGNR6ieWOl4BUPuYfK7PzOIAABCAAIQABAAAIQABCAAAAAAAAAAA==

>  <PUBCHEM_IUPAC_OPENEYE_NAME>
2-[2-[2-(3,4-dihydroxyphenyl)-5,7-dihydroxy-chromenylium-3-yl]oxy-4,5-dihydroxy-6-(hydroxymethyl)tetrahydropyran-3-yl]oxytetrahydropyran-3,4,5-triol

>  <PUBCHEM_IUPAC_CAS_NAME>
2-[[2-[[2-(3,4-dihydroxyphenyl)-5,7-dihydroxy-1-benzopyrylium-3-yl]oxy]-4,5-dihydroxy-6-(hydroxymethyl)-3-oxanyl]oxy]oxane-3,4,5-triol

>  <PUBCHEM_IUPAC_NAME>
2-[2-[2-(3,4-dihydroxyphenyl)-5,7-dihydroxychromenylium-3-yl]oxy-4,5-dihydroxy-6-(hydroxymethyl)oxan-3-yl]oxyoxane-3,4,5-triol

>  <PUBCHEM_IUPAC_SYSTEMATIC_NAME>
2-[2-[2-[3,4-bis(oxidanyl)phenyl]-5,7-bis(oxidanyl)chromenylium-3-yl]oxy-6-(hydroxymethyl)-4,5-bis(oxidanyl)oxan-3-yl]oxyoxane-3,4,5-triol

>  <PUBCHEM_IUPAC_TRADITIONAL_NAME>
2-[2-[[2-(3,4-dihydroxyphenyl)-5,7-dihydroxy-1-benzopyrylium-3-yl]oxy]-4,5-dihydroxy-6-methylol-tetrahydropyran-3-yl]oxytetrahydropyran-3,4,5-triol

>  <PUBCHEM_IUPAC_INCHI>
InChI=1S/C26H28O15/c27-7-18-20(34)21(35)24(41-25-22(36)19(33)15(32)8-37-25)26(40-18)39-17-6-11-13(30)4-10(28)5-16(11)38-23(17)9-1-2-12(29)14(31)3-9/h1-6,15,18-22,24-27,32-36H,7-8H2,(H3-,28,29,30,31)/p+1

>  <PUBCHEM_IUPAC_INCHIKEY>
ZPPQIOUITZSYAO-UHFFFAOYSA-O

>  <PUBCHEM_EXACT_MASS>
581.151

>  <PUBCHEM_MOLECULAR_FORMULA>
C26H29O15+

>  <PUBCHEM_MOLECULAR_WEIGHT>
581.503

>  <PUBCHEM_OPENEYE_CAN_SMILES>
C1C(C(C(C(O1)OC2C(C(C(OC2OC3=C([O+]=C4C=C(C=C(C4=C3)O)O)C5=CC(=C(C=C5)O)O)CO)O)O)O)O)O

>  <PUBCHEM_OPENEYE_ISO_SMILES>
C1C(C(C(C(O1)OC2C(C(C(OC2OC3=C([O+]=C4C=C(C=C(C4=C3)O)O)C5=CC(=C(C=C5)O)O)CO)O)O)O)O)O

>  <PUBCHEM_CACTVS_TPSA>
240

>  <PUBCHEM_MONOISOTOPIC_WEIGHT>
581.151

>  <PUBCHEM_TOTAL_CHARGE>
1

>  <PUBCHEM_HEAVY_ATOM_COUNT>
41

>  <PUBCHEM_ATOM_DEF_STEREO_COUNT>
0

>  <PUBCHEM_ATOM_UDEF_STEREO_COUNT>
9

>  <PUBCHEM_BOND_DEF_STEREO_COUNT>
0

>  <PUBCHEM_BOND_UDEF_STEREO_COUNT>
0

>  <PUBCHEM_ISOTOPIC_ATOM_COUNT>
0

>  <PUBCHEM_COMPONENT_COUNT>
1

>  <PUBCHEM_CACTVS_TAUTO_COUNT>
171

>  <PUBCHEM_COORDINATE_TYPE>
1
5
255

>  <PUBCHEM_BONDANNOTATIONS>
16  1  3
21  1  3
11  28  8
11  32  8
19  25  3
27  28  8
27  29  8
29  30  8
30  32  8
30  33  8
31  35  8
31  36  8
32  34  8
33  37  8
34  38  8
35  39  8
36  40  8
37  38  8
39  41  8
20  4  3
40  41  8
17  5  3
18  6  3
22  7  3
23  8  3
24  9  3

$$$$
