74978435
 OpenBabel06101807152D

 85 89  0  0  1  0  0  0  0  0999 V2000
    7.2641   -0.3450    0.0000 O   0  0  0  0  0  0  0  0  0  0  0  0
    6.3981   -2.8450    0.0000 O   0  0  0  0  0  0  0  0  0  0  0  0
    4.6660   -2.8450    0.0000 O   0  0  0  0  0  0  0  0  0  0  0  0
    8.1301   -2.8450    0.0000 O   0  0  0  0  0  0  0  0  0  0  0  0
    9.8622   -1.8450    0.0000 O   0  0  0  0  0  0  0  0  0  0  0  0
    8.1301    1.1550    0.0000 O   0  0  0  0  0  0  0  0  0  0  0  0
    9.8622    0.1550    0.0000 O   0  0  0  0  0  0  0  0  0  0  0  0
    6.3981   -4.8450    0.0000 O   0  0  0  0  0  0  0  0  0  0  0  0
    4.6660   -5.8450    0.0000 O   0  0  0  0  0  0  0  0  0  0  0  0
    2.9340   -4.8450    0.0000 O   0  0  0  0  0  0  0  0  0  0  0  0
    6.3981    3.1550    0.0000 O   0  0  0  0  0  0  0  0  0  0  0  0
    6.3981    0.1550    0.0000 O   0  0  0  0  0  0  0  0  0  0  0  0
    4.6497    0.1204    0.0000 O   0  0  0  0  0  0  0  0  0  0  0  0
    2.8680    3.1792    0.0000 O   0  0  0  0  0  0  0  0  0  0  0  0
    8.9962    5.6550    0.0000 O   0  0  0  0  0  0  0  0  0  0  0  0
   10.7282    4.6550    0.0000 O   0  0  0  0  0  0  0  0  0  0  0  0
    7.2641   -1.3450    0.0000 C   0  0  3  0  0  0  0  0  0  0  0  0
    8.1301   -1.8450    0.0000 C   0  0  3  0  0  0  0  0  0  0  0  0
    8.9962   -1.3450    0.0000 C   0  0  3  0  0  0  0  0  0  0  0  0
    8.9962   -0.3450    0.0000 C   0  0  3  0  0  0  0  0  0  0  0  0
    5.5320   -4.3450    0.0000 C   0  0  3  0  0  0  0  0  0  0  0  0
    5.5320   -3.3450    0.0000 C   0  0  3  0  0  0  0  0  0  0  0  0
    4.6660   -4.8450    0.0000 C   0  0  3  0  0  0  0  0  0  0  0  0
    3.8000   -4.3450    0.0000 C   0  0  3  0  0  0  0  0  0  0  0  0
    8.1301    0.1550    0.0000 C   0  0  3  0  0  0  0  0  0  0  0  0
    6.3981   -1.8450    0.0000 C   0  0  0  0  0  0  0  0  0  0  0  0
    3.8000   -3.3450    0.0000 C   0  0  3  0  0  0  0  0  0  0  0  0
    2.9340   -2.8450    0.0000 C   0  0  0  0  0  0  0  0  0  0  0  0
    7.2641    1.6550    0.0000 C   0  0  0  0  0  0  0  0  0  0  0  0
    7.2641    2.6550    0.0000 C   0  0  0  0  0  0  0  0  0  0  0  0
    6.3981    1.1550    0.0000 C   0  0  0  0  0  0  0  0  0  0  0  0
    5.5320    1.6550    0.0000 C   0  0  0  0  0  0  0  0  0  0  0  0
    5.5320    2.6550    0.0000 C   0  0  0  0  0  0  0  0  0  0  0  0
    8.1301    3.1550    0.0000 C   0  0  0  0  0  0  0  0  0  0  0  0
    4.6381    1.1203    0.0000 C   0  0  0  0  0  0  0  0  0  0  0  0
    4.6381    3.1897    0.0000 C   0  0  0  0  0  0  0  0  0  0  0  0
    8.1301    4.1550    0.0000 C   0  0  0  0  0  0  0  0  0  0  0  0
    8.9962    2.6550    0.0000 C   0  0  0  0  0  0  0  0  0  0  0  0
    3.7320    1.6342    0.0000 C   0  0  0  0  0  0  0  0  0  0  0  0
    3.7320    2.6758    0.0000 C   0  0  0  0  0  0  0  0  0  0  0  0
    8.9962    4.6550    0.0000 C   0  0  0  0  0  0  0  0  0  0  0  0
    9.8622    3.1550    0.0000 C   0  0  0  0  0  0  0  0  0  0  0  0
    9.8622    4.1550    0.0000 C   0  0  0  0  0  0  0  0  0  0  0  0
    3.7895   -0.3896    0.0000 C   0  0  0  0  0  0  0  0  0  0  0  0
    2.0000    2.6825    0.0000 C   0  0  0  0  0  0  0  0  0  0  0  0
    8.1301    6.1550    0.0000 C   0  0  0  0  0  0  0  0  0  0  0  0
   10.7282    5.6550    0.0000 C   0  0  0  0  0  0  0  0  0  0  0  0
    6.7272   -1.0350    0.0000 H   0  0  0  0  0  0  0  0  0  0  0  0
    8.6671   -2.1550    0.0000 H   0  0  0  0  0  0  0  0  0  0  0  0
    9.5331   -1.0350    0.0000 H   0  0  0  0  0  0  0  0  0  0  0  0
    8.9962    0.2750    0.0000 H   0  0  0  0  0  0  0  0  0  0  0  0
    6.0690   -4.0350    0.0000 H   0  0  0  0  0  0  0  0  0  0  0  0
    5.5320   -2.7250    0.0000 H   0  0  0  0  0  0  0  0  0  0  0  0
    5.2030   -5.1550    0.0000 H   0  0  0  0  0  0  0  0  0  0  0  0
    3.2631   -4.0350    0.0000 H   0  0  0  0  0  0  0  0  0  0  0  0
    7.5932    0.4650    0.0000 H   0  0  0  0  0  0  0  0  0  0  0  0
    6.1860   -1.2624    0.0000 H   0  0  0  0  0  0  0  0  0  0  0  0
    5.7875   -1.9527    0.0000 H   0  0  0  0  0  0  0  0  0  0  0  0
    3.8000   -2.7250    0.0000 H   0  0  0  0  0  0  0  0  0  0  0  0
    3.2440   -2.3081    0.0000 H   0  0  0  0  0  0  0  0  0  0  0  0
    2.3970   -2.5350    0.0000 H   0  0  0  0  0  0  0  0  0  0  0  0
    2.6240   -3.3819    0.0000 H   0  0  0  0  0  0  0  0  0  0  0  0
    7.5932   -3.1550    0.0000 H   0  0  0  0  0  0  0  0  0  0  0  0
    9.8622   -2.4650    0.0000 H   0  0  0  0  0  0  0  0  0  0  0  0
   10.3991   -0.1550    0.0000 H   0  0  0  0  0  0  0  0  0  0  0  0
    6.9350   -4.5350    0.0000 H   0  0  0  0  0  0  0  0  0  0  0  0
    4.1291   -6.1550    0.0000 H   0  0  0  0  0  0  0  0  0  0  0  0
    2.3970   -4.5350    0.0000 H   0  0  0  0  0  0  0  0  0  0  0  0
    4.6453    3.8096    0.0000 H   0  0  0  0  0  0  0  0  0  0  0  0
    7.5932    4.4650    0.0000 H   0  0  0  0  0  0  0  0  0  0  0  0
    8.9962    2.0350    0.0000 H   0  0  0  0  0  0  0  0  0  0  0  0
    3.1963    1.3221    0.0000 H   0  0  0  0  0  0  0  0  0  0  0  0
   10.3991    2.8450    0.0000 H   0  0  0  0  0  0  0  0  0  0  0  0
    3.4733    0.1437    0.0000 H   0  0  0  0  0  0  0  0  0  0  0  0
    3.2562   -0.7058    0.0000 H   0  0  0  0  0  0  0  0  0  0  0  0
    4.1057   -0.9229    0.0000 H   0  0  0  0  0  0  0  0  0  0  0  0
    1.6921    3.2206    0.0000 H   0  0  0  0  0  0  0  0  0  0  0  0
    1.4619    2.3746    0.0000 H   0  0  0  0  0  0  0  0  0  0  0  0
    2.3079    2.1444    0.0000 H   0  0  0  0  0  0  0  0  0  0  0  0
    8.4401    6.6919    0.0000 H   0  0  0  0  0  0  0  0  0  0  0  0
    7.5932    6.4650    0.0000 H   0  0  0  0  0  0  0  0  0  0  0  0
    7.8201    5.6181    0.0000 H   0  0  0  0  0  0  0  0  0  0  0  0
   11.3482    5.6550    0.0000 H   0  0  0  0  0  0  0  0  0  0  0  0
   10.7282    6.2750    0.0000 H   0  0  0  0  0  0  0  0  0  0  0  0
   10.1082    5.6550    0.0000 H   0  0  0  0  0  0  0  0  0  0  0  0
  1 17  1  0  0  0  0
  1 25  1  0  0  0  0
  2 22  1  0  0  0  0
  2 26  1  0  0  0  0
  3 22  1  0  0  0  0
  3 27  1  0  0  0  0
  4 18  1  0  0  0  0
  4 63  1  0  0  0  0
  5 19  1  0  0  0  0
  5 64  1  0  0  0  0
  6 25  1  0  0  0  0
  6 29  1  0  0  0  0
  7 20  1  0  0  0  0
  7 65  1  0  0  0  0
  8 21  1  0  0  0  0
  8 66  1  0  0  0  0
  9 23  1  0  0  0  0
  9 67  1  0  0  0  0
 10 24  1  0  0  0  0
 10 68  1  0  0  0  0
 11 30  1  0  0  0  0
 11 33  1  0  0  0  0
 12 31  2  0  0  0  0
 13 35  1  0  0  0  0
 13 44  1  0  0  0  0
 14 40  1  0  0  0  0
 14 45  1  0  0  0  0
 15 41  1  0  0  0  0
 15 46  1  0  0  0  0
 16 43  1  0  0  0  0
 16 47  1  0  0  0  0
 17 18  1  0  0  0  0
 17 26  1  0  0  0  0
 17 48  1  0  0  0  0
 18 19  1  0  0  0  0
 18 49  1  0  0  0  0
 19 20  1  0  0  0  0
 19 50  1  0  0  0  0
 20 25  1  0  0  0  0
 20 51  1  0  0  0  0
 21 22  1  0  0  0  0
 21 23  1  0  0  0  0
 21 52  1  0  0  0  0
 22 53  1  0  0  0  0
 23 24  1  0  0  0  0
 23 54  1  0  0  0  0
 24 27  1  0  0  0  0
 24 55  1  0  0  0  0
 25 56  1  0  0  0  0
 26 57  1  0  0  0  0
 26 58  1  0  0  0  0
 27 28  1  0  0  0  0
 27 59  1  0  0  0  0
 28 60  1  0  0  0  0
 28 61  1  0  0  0  0
 28 62  1  0  0  0  0
 29 30  2  0  0  0  0
 29 31  1  0  0  0  0
 30 34  1  0  0  0  0
 31 32  1  0  0  0  0
 32 33  2  0  0  0  0
 32 35  1  0  0  0  0
 33 36  1  0  0  0  0
 34 37  2  0  0  0  0
 34 38  1  0  0  0  0
 35 39  2  0  0  0  0
 36 40  2  0  0  0  0
 36 69  1  0  0  0  0
 37 41  1  0  0  0  0
 37 70  1  0  0  0  0
 38 42  2  0  0  0  0
 38 71  1  0  0  0  0
 39 40  1  0  0  0  0
 39 72  1  0  0  0  0
 41 43  2  0  0  0  0
 42 43  1  0  0  0  0
 42 73  1  0  0  0  0
 44 74  1  0  0  0  0
 44 75  1  0  0  0  0
 44 76  1  0  0  0  0
 45 77  1  0  0  0  0
 45 78  1  0  0  0  0
 45 79  1  0  0  0  0
 46 80  1  0  0  0  0
 46 81  1  0  0  0  0
 46 82  1  0  0  0  0
 47 83  1  0  0  0  0
 47 84  1  0  0  0  0
 47 85  1  0  0  0  0
M  END
>  <PUBCHEM_COMPOUND_CID>
74978435

>  <PUBCHEM_COMPOUND_CANONICALIZED>
1

>  <PUBCHEM_CACTVS_COMPLEXITY>
1090

>  <PUBCHEM_CACTVS_HBOND_ACCEPTOR>
16

>  <PUBCHEM_CACTVS_HBOND_DONOR>
6

>  <PUBCHEM_CACTVS_ROTATABLE_BOND>
10

>  <PUBCHEM_CACTVS_SUBSKEYS>
AAADcfB4PgAAAAAAAAAAAAAAAAAAAAAAAAA0aIECAAAAAACBQAAAGgAACAAADBSwmAMyDoAABgCIAqBSAAICCAAkIAAIiAFGiMgdNzaENR6ieWKl4BUPqQfI7LzOIAABCAAIQABAAAIQABCAAAAAAAAAAA==

>  <PUBCHEM_IUPAC_OPENEYE_NAME>
2-(3,4-dimethoxyphenyl)-5,7-dimethoxy-3-[3,4,5-trihydroxy-6-[(3,4,5-trihydroxy-6-methyl-tetrahydropyran-2-yl)oxymethyl]tetrahydropyran-2-yl]oxy-chromen-4-one

>  <PUBCHEM_IUPAC_CAS_NAME>
2-(3,4-dimethoxyphenyl)-5,7-dimethoxy-3-[[3,4,5-trihydroxy-6-[(3,4,5-trihydroxy-6-methyl-2-oxanyl)oxymethyl]-2-oxanyl]oxy]-1-benzopyran-4-one

>  <PUBCHEM_IUPAC_NAME>
2-(3,4-dimethoxyphenyl)-5,7-dimethoxy-3-[3,4,5-trihydroxy-6-[(3,4,5-trihydroxy-6-methyloxan-2-yl)oxymethyl]oxan-2-yl]oxychromen-4-one

>  <PUBCHEM_IUPAC_SYSTEMATIC_NAME>
2-(3,4-dimethoxyphenyl)-5,7-dimethoxy-3-[6-[[6-methyl-3,4,5-tris(oxidanyl)oxan-2-yl]oxymethyl]-3,4,5-tris(oxidanyl)oxan-2-yl]oxy-chromen-4-one

>  <PUBCHEM_IUPAC_TRADITIONAL_NAME>
2-(3,4-dimethoxyphenyl)-5,7-dimethoxy-3-[3,4,5-trihydroxy-6-[(3,4,5-trihydroxy-6-methyl-tetrahydropyran-2-yl)oxymethyl]tetrahydropyran-2-yl]oxy-chromone

>  <PUBCHEM_IUPAC_INCHI>
InChI=1S/C31H38O16/c1-12-21(32)24(35)26(37)30(44-12)43-11-19-22(33)25(36)27(38)31(46-19)47-29-23(34)20-17(42-5)9-14(39-2)10-18(20)45-28(29)13-6-7-15(40-3)16(8-13)41-4/h6-10,12,19,21-22,24-27,30-33,35-38H,11H2,1-5H3

>  <PUBCHEM_IUPAC_INCHIKEY>
MEJNXDYVXPUWEN-UHFFFAOYSA-N

>  <PUBCHEM_XLOGP3_AA>
-0.5

>  <PUBCHEM_EXACT_MASS>
666.216

>  <PUBCHEM_MOLECULAR_FORMULA>
C31H38O16

>  <PUBCHEM_MOLECULAR_WEIGHT>
666.629

>  <PUBCHEM_OPENEYE_CAN_SMILES>
CC1C(C(C(C(O1)OCC2C(C(C(C(O2)OC3=C(OC4=CC(=CC(=C4C3=O)OC)OC)C5=CC(=C(C=C5)OC)OC)O)O)O)O)O)O

>  <PUBCHEM_OPENEYE_ISO_SMILES>
CC1C(C(C(C(O1)OCC2C(C(C(C(O2)OC3=C(OC4=CC(=CC(=C4C3=O)OC)OC)C5=CC(=C(C=C5)OC)OC)O)O)O)O)O)O

>  <PUBCHEM_CACTVS_TPSA>
222

>  <PUBCHEM_MONOISOTOPIC_WEIGHT>
666.216

>  <PUBCHEM_TOTAL_CHARGE>
0

>  <PUBCHEM_HEAVY_ATOM_COUNT>
47

>  <PUBCHEM_ATOM_DEF_STEREO_COUNT>
0

>  <PUBCHEM_ATOM_UDEF_STEREO_COUNT>
10

>  <PUBCHEM_BOND_DEF_STEREO_COUNT>
0

>  <PUBCHEM_BOND_UDEF_STEREO_COUNT>
0

>  <PUBCHEM_ISOTOPIC_ATOM_COUNT>
0

>  <PUBCHEM_COMPONENT_COUNT>
1

>  <PUBCHEM_CACTVS_TAUTO_COUNT>
1

>  <PUBCHEM_COORDINATE_TYPE>
1
5
255

>  <PUBCHEM_BONDANNOTATIONS>
24  10  3
11  30  8
11  33  8
17  26  3
22  2  3
27  28  3
29  30  8
29  31  8
31  32  8
32  33  8
32  35  8
33  36  8
34  37  8
34  38  8
35  39  8
36  40  8
37  41  8
38  42  8
39  40  8
18  4  3
41  43  8
42  43  8
19  5  3
25  6  3
20  7  3
21  8  3
23  9  3

$$$$
