74977588
 OpenBabel06101807152D

 73 77  0  0  1  0  0  0  0  0999 V2000
    8.5991   -1.6725    0.0000 O   0  0  0  0  0  0  0  0  0  0  0  0
    5.1350   -1.6725    0.0000 O   0  0  0  0  0  0  0  0  0  0  0  0
    6.8671   -1.6725    0.0000 O   0  0  0  0  0  0  0  0  0  0  0  0
    9.4651    0.8275    0.0000 O   0  0  0  0  0  0  0  0  0  0  0  0
   11.1972   -0.1725    0.0000 O   0  0  0  0  0  0  0  0  0  0  0  0
   11.1972   -2.1725    0.0000 O   0  0  0  0  0  0  0  0  0  0  0  0
    5.1350   -4.6725    0.0000 O   0  0  0  0  0  0  0  0  0  0  0  0
    6.8671   -3.6725    0.0000 O   0  0  0  0  0  0  0  0  0  0  0  0
    3.4030   -3.6725    0.0000 O   0  0  0  0  0  0  0  0  0  0  0  0
    8.6431    1.3343    0.0000 O   0  0  0  0  0  0  0  0  0  0  0  0
   10.3312   -3.6725    0.0000 O   0  0  0  0  0  0  0  0  0  0  0  0
    2.5369   -2.1725    0.0000 O   0  0  0  0  0  0  0  0  0  0  0  0
    5.1350    1.3275    0.0000 O   0  0  0  0  0  0  0  0  0  0  0  0
    5.9793    2.8589    0.0000 O   0  0  0  0  0  0  0  0  0  0  0  0
   12.1152    2.3626    0.0000 O   0  0  0  0  0  0  0  0  0  0  0  0
   12.1229    4.3625    0.0000 O   0  0  0  0  0  0  0  0  0  0  0  0
    8.5991   -0.6725    0.0000 C   0  0  3  0  0  0  0  0  0  0  0  0
    9.4651   -0.1725    0.0000 C   0  0  3  0  0  0  0  0  0  0  0  0
   10.3312   -0.6725    0.0000 C   0  0  3  0  0  0  0  0  0  0  0  0
   10.3312   -1.6725    0.0000 C   0  0  3  0  0  0  0  0  0  0  0  0
    9.4651   -2.1725    0.0000 C   0  0  3  0  0  0  0  0  0  0  0  0
    7.7331   -0.1725    0.0000 C   0  0  0  0  0  0  0  0  0  0  0  0
    5.1350   -3.6725    0.0000 C   0  0  3  0  0  0  0  0  0  0  0  0
    6.0010   -3.1725    0.0000 C   0  0  3  0  0  0  0  0  0  0  0  0
    4.2690   -3.1725    0.0000 C   0  0  3  0  0  0  0  0  0  0  0  0
    6.0010   -2.1725    0.0000 C   0  0  3  0  0  0  0  0  0  0  0  0
    4.2690   -2.1725    0.0000 C   0  0  3  0  0  0  0  0  0  0  0  0
    6.8671   -0.6725    0.0000 C   0  0  0  0  0  0  0  0  0  0  0  0
    9.4651   -3.1725    0.0000 C   0  0  0  0  0  0  0  0  0  0  0  0
    7.7331    0.8275    0.0000 C   0  0  0  0  0  0  0  0  0  0  0  0
    3.4030   -1.6725    0.0000 C   0  0  0  0  0  0  0  0  0  0  0  0
    6.8671    1.3275    0.0000 C   0  0  0  0  0  0  0  0  0  0  0  0
    6.0010   -0.1725    0.0000 C   0  0  0  0  0  0  0  0  0  0  0  0
    6.0010    0.8275    0.0000 C   0  0  0  0  0  0  0  0  0  0  0  0
    6.8510    2.3690    0.0000 C   0  0  0  0  0  0  0  0  0  0  0  0
    8.6511    2.3759    0.0000 C   0  0  0  0  0  0  0  0  0  0  0  0
    7.7490    2.8967    0.0000 C   0  0  0  0  0  0  0  0  0  0  0  0
    9.5191    2.8726    0.0000 C   0  0  0  0  0  0  0  0  0  0  0  0
   10.3832    2.3692    0.0000 C   0  0  0  0  0  0  0  0  0  0  0  0
    9.5229    3.8726    0.0000 C   0  0  0  0  0  0  0  0  0  0  0  0
   11.2511    2.8659    0.0000 C   0  0  0  0  0  0  0  0  0  0  0  0
   10.3909    4.3692    0.0000 C   0  0  0  0  0  0  0  0  0  0  0  0
   11.2550    3.8659    0.0000 C   0  0  0  0  0  0  0  0  0  0  0  0
    8.5991   -0.0525    0.0000 H   0  0  0  0  0  0  0  0  0  0  0  0
   10.0021    0.1375    0.0000 H   0  0  0  0  0  0  0  0  0  0  0  0
   10.8681   -0.9825    0.0000 H   0  0  0  0  0  0  0  0  0  0  0  0
   10.3312   -2.2925    0.0000 H   0  0  0  0  0  0  0  0  0  0  0  0
    8.9282   -2.4825    0.0000 H   0  0  0  0  0  0  0  0  0  0  0  0
    5.6720   -3.9825    0.0000 H   0  0  0  0  0  0  0  0  0  0  0  0
    6.5380   -2.8625    0.0000 H   0  0  0  0  0  0  0  0  0  0  0  0
    4.2690   -3.7925    0.0000 H   0  0  0  0  0  0  0  0  0  0  0  0
    6.0010   -1.5525    0.0000 H   0  0  0  0  0  0  0  0  0  0  0  0
    4.2690   -1.5525    0.0000 H   0  0  0  0  0  0  0  0  0  0  0  0
    8.8546   -3.0649    0.0000 H   0  0  0  0  0  0  0  0  0  0  0  0
    9.2531   -3.7552    0.0000 H   0  0  0  0  0  0  0  0  0  0  0  0
    3.8015   -1.1976    0.0000 H   0  0  0  0  0  0  0  0  0  0  0  0
    3.0044   -1.1976    0.0000 H   0  0  0  0  0  0  0  0  0  0  0  0
   10.0021    1.1375    0.0000 H   0  0  0  0  0  0  0  0  0  0  0  0
   11.7341   -0.4825    0.0000 H   0  0  0  0  0  0  0  0  0  0  0  0
   11.7341   -1.8625    0.0000 H   0  0  0  0  0  0  0  0  0  0  0  0
    5.4641   -0.4825    0.0000 H   0  0  0  0  0  0  0  0  0  0  0  0
    4.5981   -4.9825    0.0000 H   0  0  0  0  0  0  0  0  0  0  0  0
    6.8671   -4.2925    0.0000 H   0  0  0  0  0  0  0  0  0  0  0  0
    3.4030   -4.2925    0.0000 H   0  0  0  0  0  0  0  0  0  0  0  0
   10.3312   -4.2925    0.0000 H   0  0  0  0  0  0  0  0  0  0  0  0
    7.7466    3.5167    0.0000 H   0  0  0  0  0  0  0  0  0  0  0  0
    2.0000   -1.8625    0.0000 H   0  0  0  0  0  0  0  0  0  0  0  0
    4.5981    1.0175    0.0000 H   0  0  0  0  0  0  0  0  0  0  0  0
   10.3808    1.7492    0.0000 H   0  0  0  0  0  0  0  0  0  0  0  0
    8.9872    4.1846    0.0000 H   0  0  0  0  0  0  0  0  0  0  0  0
   10.3933    4.9892    0.0000 H   0  0  0  0  0  0  0  0  0  0  0  0
   12.6533    2.6705    0.0000 H   0  0  0  0  0  0  0  0  0  0  0  0
   12.1253    4.9825    0.0000 H   0  0  0  0  0  0  0  0  0  0  0  0
  1 17  1  0  0  0  0
  1 21  1  0  0  0  0
  2 26  1  0  0  0  0
  2 27  1  0  0  0  0
  3 26  1  0  0  0  0
  3 28  1  0  0  0  0
  4 18  1  0  0  0  0
  4 58  1  0  0  0  0
  5 19  1  0  0  0  0
  5 59  1  0  0  0  0
  6 20  1  0  0  0  0
  6 60  1  0  0  0  0
  7 23  1  0  0  0  0
  7 62  1  0  0  0  0
  8 24  1  0  0  0  0
  8 63  1  0  0  0  0
  9 25  1  0  0  0  0
  9 64  1  0  0  0  0
 10 30  1  0  0  0  0
 10 36  1  0  0  0  0
 11 29  1  0  0  0  0
 11 65  1  0  0  0  0
 12 31  1  0  0  0  0
 12 67  1  0  0  0  0
 13 34  1  0  0  0  0
 13 68  1  0  0  0  0
 14 35  2  0  0  0  0
 15 41  1  0  0  0  0
 15 72  1  0  0  0  0
 16 43  1  0  0  0  0
 16 73  1  0  0  0  0
 17 18  1  0  0  0  0
 17 22  1  0  0  0  0
 17 44  1  0  0  0  0
 18 19  1  0  0  0  0
 18 45  1  0  0  0  0
 19 20  1  0  0  0  0
 19 46  1  0  0  0  0
 20 21  1  0  0  0  0
 20 47  1  0  0  0  0
 21 29  1  0  0  0  0
 21 48  1  0  0  0  0
 22 28  2  0  0  0  0
 22 30  1  0  0  0  0
 23 24  1  0  0  0  0
 23 25  1  0  0  0  0
 23 49  1  0  0  0  0
 24 26  1  0  0  0  0
 24 50  1  0  0  0  0
 25 27  1  0  0  0  0
 25 51  1  0  0  0  0
 26 52  1  0  0  0  0
 27 31  1  0  0  0  0
 27 53  1  0  0  0  0
 28 33  1  0  0  0  0
 29 54  1  0  0  0  0
 29 55  1  0  0  0  0
 30 32  2  0  0  0  0
 31 56  1  0  0  0  0
 31 57  1  0  0  0  0
 32 34  1  0  0  0  0
 32 35  1  0  0  0  0
 33 34  2  0  0  0  0
 33 61  1  0  0  0  0
 35 37  1  0  0  0  0
 36 37  2  0  0  0  0
 36 38  1  0  0  0  0
 37 66  1  0  0  0  0
 38 39  2  0  0  0  0
 38 40  1  0  0  0  0
 39 41  1  0  0  0  0
 39 69  1  0  0  0  0
 40 42  2  0  0  0  0
 40 70  1  0  0  0  0
 41 43  2  0  0  0  0
 42 43  1  0  0  0  0
 42 71  1  0  0  0  0
M  END
>  <PUBCHEM_COMPOUND_CID>
74977588

>  <PUBCHEM_COMPOUND_CANONICALIZED>
1

>  <PUBCHEM_CACTVS_COMPLEXITY>
1010

>  <PUBCHEM_CACTVS_HBOND_ACCEPTOR>
16

>  <PUBCHEM_CACTVS_HBOND_DONOR>
11

>  <PUBCHEM_CACTVS_ROTATABLE_BOND>
6

>  <PUBCHEM_CACTVS_SUBSKEYS>
AAADceB4PgAAAAAAAAAAAAAAAAAAAAAAAAA0aIECAAAAAACBQAAAGgAACAAADBSwmAMwDoAABgCIAqBSAAACCAAkIAAIiAEGiMgdNzaGNRqieWGl4BUPuQfI7PzOIAADCAAIQABAAAYQABCAAAAAAAAAAA==

>  <PUBCHEM_IUPAC_OPENEYE_NAME>
2-(3,4-dihydroxyphenyl)-5-hydroxy-8-[3,4,5-trihydroxy-6-(hydroxymethyl)tetrahydropyran-2-yl]-7-[3,4,5-trihydroxy-6-(hydroxymethyl)tetrahydropyran-2-yl]oxy-chromen-4-one

>  <PUBCHEM_IUPAC_CAS_NAME>
2-(3,4-dihydroxyphenyl)-5-hydroxy-8-[3,4,5-trihydroxy-6-(hydroxymethyl)-2-oxanyl]-7-[[3,4,5-trihydroxy-6-(hydroxymethyl)-2-oxanyl]oxy]-1-benzopyran-4-one

>  <PUBCHEM_IUPAC_NAME>
2-(3,4-dihydroxyphenyl)-5-hydroxy-8-[3,4,5-trihydroxy-6-(hydroxymethyl)oxan-2-yl]-7-[3,4,5-trihydroxy-6-(hydroxymethyl)oxan-2-yl]oxychromen-4-one

>  <PUBCHEM_IUPAC_SYSTEMATIC_NAME>
2-[3,4-bis(oxidanyl)phenyl]-8-[6-(hydroxymethyl)-3,4,5-tris(oxidanyl)oxan-2-yl]-7-[6-(hydroxymethyl)-3,4,5-tris(oxidanyl)oxan-2-yl]oxy-5-oxidanyl-chromen-4-one

>  <PUBCHEM_IUPAC_TRADITIONAL_NAME>
2-(3,4-dihydroxyphenyl)-5-hydroxy-8-(3,4,5-trihydroxy-6-methylol-tetrahydropyran-2-yl)-7-(3,4,5-trihydroxy-6-methylol-tetrahydropyran-2-yl)oxy-chromone

>  <PUBCHEM_IUPAC_INCHI>
InChI=1S/C27H30O16/c28-6-15-19(34)21(36)23(38)26(41-15)18-14(42-27-24(39)22(37)20(35)16(7-29)43-27)5-12(33)17-11(32)4-13(40-25(17)18)8-1-2-9(30)10(31)3-8/h1-5,15-16,19-24,26-31,33-39H,6-7H2

>  <PUBCHEM_IUPAC_INCHIKEY>
SPAHGZOYBCREJA-UHFFFAOYSA-N

>  <PUBCHEM_XLOGP3_AA>
-2

>  <PUBCHEM_EXACT_MASS>
610.153

>  <PUBCHEM_MOLECULAR_FORMULA>
C27H30O16

>  <PUBCHEM_MOLECULAR_WEIGHT>
610.521

>  <PUBCHEM_OPENEYE_CAN_SMILES>
C1=CC(=C(C=C1C2=CC(=O)C3=C(O2)C(=C(C=C3O)OC4C(C(C(C(O4)CO)O)O)O)C5C(C(C(C(O5)CO)O)O)O)O)O

>  <PUBCHEM_OPENEYE_ISO_SMILES>
C1=CC(=C(C=C1C2=CC(=O)C3=C(O2)C(=C(C=C3O)OC4C(C(C(C(O4)CO)O)O)O)C5C(C(C(C(O5)CO)O)O)O)O)O

>  <PUBCHEM_CACTVS_TPSA>
277

>  <PUBCHEM_MONOISOTOPIC_WEIGHT>
610.153

>  <PUBCHEM_TOTAL_CHARGE>
0

>  <PUBCHEM_HEAVY_ATOM_COUNT>
43

>  <PUBCHEM_ATOM_DEF_STEREO_COUNT>
0

>  <PUBCHEM_ATOM_UDEF_STEREO_COUNT>
10

>  <PUBCHEM_BOND_DEF_STEREO_COUNT>
0

>  <PUBCHEM_BOND_UDEF_STEREO_COUNT>
0

>  <PUBCHEM_ISOTOPIC_ATOM_COUNT>
0

>  <PUBCHEM_COMPONENT_COUNT>
1

>  <PUBCHEM_CACTVS_TAUTO_COUNT>
68

>  <PUBCHEM_COORDINATE_TYPE>
1
5
255

>  <PUBCHEM_BONDANNOTATIONS>
10  30  8
10  36  8
17  22  3
21  29  3
22  28  8
22  30  8
27  31  3
28  33  8
26  3  3
30  32  8
32  34  8
32  35  8
33  34  8
35  37  8
36  37  8
38  39  8
38  40  8
39  41  8
18  4  3
40  42  8
41  43  8
42  43  8
19  5  3
20  6  3
23  7  3
24  8  3
25  9  3

$$$$
