74977669
 OpenBabel06101807152D

 56 59  0  0  1  0  0  0  0  0999 V2000
    6.0427   -1.9407    0.0000 O   0  0  0  0  0  0  0  0  0  0  0  0
    4.3107   -3.9407    0.0000 O   0  0  0  0  0  0  0  0  0  0  0  0
    7.7748   -1.9407    0.0000 O   0  0  0  0  0  0  0  0  0  0  0  0
    6.0427   -4.9407    0.0000 O   0  0  0  0  0  0  0  0  0  0  0  0
    7.7748   -3.9407    0.0000 O   0  0  0  0  0  0  0  0  0  0  0  0
    3.4446   -2.4407    0.0000 O   0  0  0  0  0  0  0  0  0  0  0  0
    4.3107   -0.9407    0.0000 O   0  0  0  0  0  0  0  0  0  0  0  0
    5.1767   -5.4407    0.0000 O   0  0  0  0  0  0  0  0  0  0  0  0
    6.0427    2.0593    0.0000 O   0  0  0  0  0  0  0  0  0  0  0  0
    9.5068   -0.9407    0.0000 O   0  0  0  0  0  0  0  0  0  0  0  0
    3.4446    0.5593    0.0000 O   0  0  0  0  0  0  0  0  0  0  0  0
    2.5405    2.0562    0.0000 O   0  0  0  0  0  0  0  0  0  0  0  0
    4.2986    5.1286    0.0000 O   0  0  0  0  0  0  0  0  0  0  0  0
    6.0427   -3.9407    0.0000 C   0  0  3  0  0  0  0  0  0  0  0  0
    5.1767   -3.4407    0.0000 C   0  0  3  0  0  0  0  0  0  0  0  0
    6.9088   -3.4407    0.0000 C   0  0  3  0  0  0  0  0  0  0  0  0
    5.1767   -2.4407    0.0000 C   0  0  3  0  0  0  0  0  0  0  0  0
    6.9088   -2.4407    0.0000 C   0  0  3  0  0  0  0  0  0  0  0  0
    4.3107   -1.9407    0.0000 C   0  0  0  0  0  0  0  0  0  0  0  0
    7.7748   -0.9407    0.0000 C   0  0  0  0  0  0  0  0  0  0  0  0
    4.3107   -4.9407    0.0000 C   0  0  0  0  0  0  0  0  0  0  0  0
    6.9088   -0.4407    0.0000 C   0  0  0  0  0  0  0  0  0  0  0  0
    8.6408   -0.4407    0.0000 C   0  0  0  0  0  0  0  0  0  0  0  0
    6.9088    0.5593    0.0000 C   0  0  0  0  0  0  0  0  0  0  0  0
    3.4446   -5.4407    0.0000 C   0  0  0  0  0  0  0  0  0  0  0  0
    8.6408    0.5593    0.0000 C   0  0  0  0  0  0  0  0  0  0  0  0
    7.7748    1.0593    0.0000 C   0  0  0  0  0  0  0  0  0  0  0  0
    6.0427    1.0593    0.0000 C   0  0  0  0  0  0  0  0  0  0  0  0
    5.1767    0.5593    0.0000 C   0  0  0  0  0  0  0  0  0  0  0  0
    5.1767    2.5593    0.0000 C   0  0  0  0  0  0  0  0  0  0  0  0
    4.3107    2.0593    0.0000 C   0  0  0  0  0  0  0  0  0  0  0  0
    4.3107    1.0593    0.0000 C   0  0  0  0  0  0  0  0  0  0  0  0
    3.4007    2.5662    0.0000 C   0  0  0  0  0  0  0  0  0  0  0  0
    5.1928    3.6008    0.0000 C   0  0  0  0  0  0  0  0  0  0  0  0
    4.2947    4.1286    0.0000 C   0  0  0  0  0  0  0  0  0  0  0  0
    3.3926    3.6078    0.0000 C   0  0  0  0  0  0  0  0  0  0  0  0
    6.5797   -4.2507    0.0000 H   0  0  0  0  0  0  0  0  0  0  0  0
    5.1767   -4.0607    0.0000 H   0  0  0  0  0  0  0  0  0  0  0  0
    7.4457   -3.1307    0.0000 H   0  0  0  0  0  0  0  0  0  0  0  0
    5.1767   -1.8207    0.0000 H   0  0  0  0  0  0  0  0  0  0  0  0
    6.9088   -1.8207    0.0000 H   0  0  0  0  0  0  0  0  0  0  0  0
    6.5797   -5.2507    0.0000 H   0  0  0  0  0  0  0  0  0  0  0  0
    8.3117   -3.6307    0.0000 H   0  0  0  0  0  0  0  0  0  0  0  0
    6.3718   -0.7507    0.0000 H   0  0  0  0  0  0  0  0  0  0  0  0
    2.9077   -2.1307    0.0000 H   0  0  0  0  0  0  0  0  0  0  0  0
    3.1346   -4.9037    0.0000 H   0  0  0  0  0  0  0  0  0  0  0  0
    2.9077   -5.7507    0.0000 H   0  0  0  0  0  0  0  0  0  0  0  0
    3.7546   -5.9776    0.0000 H   0  0  0  0  0  0  0  0  0  0  0  0
    9.1777    0.8693    0.0000 H   0  0  0  0  0  0  0  0  0  0  0  0
    7.7748    1.6793    0.0000 H   0  0  0  0  0  0  0  0  0  0  0  0
    5.1767   -0.0607    0.0000 H   0  0  0  0  0  0  0  0  0  0  0  0
   10.0438   -0.6307    0.0000 H   0  0  0  0  0  0  0  0  0  0  0  0
    5.7332    3.9046    0.0000 H   0  0  0  0  0  0  0  0  0  0  0  0
    2.8545    3.9157    0.0000 H   0  0  0  0  0  0  0  0  0  0  0  0
    2.0000    2.3600    0.0000 H   0  0  0  0  0  0  0  0  0  0  0  0
    3.7628    5.4407    0.0000 H   0  0  0  0  0  0  0  0  0  0  0  0
  1 17  1  0  0  0  0
  1 18  1  0  0  0  0
  2 15  1  0  0  0  0
  2 21  1  0  0  0  0
  3 18  1  0  0  0  0
  3 20  1  0  0  0  0
  4 14  1  0  0  0  0
  4 42  1  0  0  0  0
  5 16  1  0  0  0  0
  5 43  1  0  0  0  0
  6 19  1  0  0  0  0
  6 45  1  0  0  0  0
  7 19  2  0  0  0  0
  8 21  2  0  0  0  0
  9 28  1  0  0  0  0
  9 30  1  0  0  0  0
 10 23  1  0  0  0  0
 10 52  1  0  0  0  0
 11 32  2  0  0  0  0
 12 33  1  0  0  0  0
 12 55  1  0  0  0  0
 13 35  1  0  0  0  0
 13 56  1  0  0  0  0
 14 15  1  0  0  0  0
 14 16  1  0  0  0  0
 14 37  1  0  0  0  0
 15 17  1  0  0  0  0
 15 38  1  0  0  0  0
 16 18  1  0  0  0  0
 16 39  1  0  0  0  0
 17 19  1  0  0  0  0
 17 40  1  0  0  0  0
 18 41  1  0  0  0  0
 20 22  1  0  0  0  0
 20 23  2  0  0  0  0
 21 25  1  0  0  0  0
 22 24  2  0  0  0  0
 22 44  1  0  0  0  0
 23 26  1  0  0  0  0
 24 27  1  0  0  0  0
 24 28  1  0  0  0  0
 25 46  1  0  0  0  0
 25 47  1  0  0  0  0
 25 48  1  0  0  0  0
 26 27  2  0  0  0  0
 26 49  1  0  0  0  0
 27 50  1  0  0  0  0
 28 29  2  0  0  0  0
 29 32  1  0  0  0  0
 29 51  1  0  0  0  0
 30 31  1  0  0  0  0
 30 34  2  0  0  0  0
 31 32  1  0  0  0  0
 31 33  2  0  0  0  0
 33 36  1  0  0  0  0
 34 35  1  0  0  0  0
 34 53  1  0  0  0  0
 35 36  2  0  0  0  0
 36 54  1  0  0  0  0
M  END
>  <PUBCHEM_COMPOUND_CID>
74977669

>  <PUBCHEM_COMPOUND_CANONICALIZED>
1

>  <PUBCHEM_CACTVS_COMPLEXITY>
889

>  <PUBCHEM_CACTVS_HBOND_ACCEPTOR>
13

>  <PUBCHEM_CACTVS_HBOND_DONOR>
6

>  <PUBCHEM_CACTVS_ROTATABLE_BOND>
6

>  <PUBCHEM_CACTVS_SUBSKEYS>
AAADceB4PAAAAAAAAAAAAAAAAAAAAAAAAAA0YIEAAAAAAACBQAAAGgAACAAADBSwmAMyDoAABgCIAqDSCAICCAAkIAAIiAFGiMgdNzaGNR6ieWOl4BUPuQfK7LzOIAABCAAIQABAAAIQABCAAAAAAAAAAA==

>  <PUBCHEM_IUPAC_OPENEYE_NAME>
3-acetoxy-6-[5-(5,7-dihydroxy-4-oxo-chromen-2-yl)-2-hydroxy-phenoxy]-4,5-dihydroxy-tetrahydropyran-2-carboxylic acid

>  <PUBCHEM_IUPAC_CAS_NAME>
3-acetyloxy-6-[5-(5,7-dihydroxy-4-oxo-1-benzopyran-2-yl)-2-hydroxyphenoxy]-4,5-dihydroxy-2-oxanecarboxylic acid

>  <PUBCHEM_IUPAC_NAME>
3-acetyloxy-6-[5-(5,7-dihydroxy-4-oxochromen-2-yl)-2-hydroxyphenoxy]-4,5-dihydroxyoxane-2-carboxylic acid

>  <PUBCHEM_IUPAC_SYSTEMATIC_NAME>
3-acetyloxy-6-[5-[5,7-bis(oxidanyl)-4-oxidanylidene-chromen-2-yl]-2-oxidanyl-phenoxy]-4,5-bis(oxidanyl)oxane-2-carboxylic acid

>  <PUBCHEM_IUPAC_TRADITIONAL_NAME>
3-acetoxy-6-[5-(5,7-dihydroxy-4-keto-chromen-2-yl)-2-hydroxy-phenoxy]-4,5-dihydroxy-tetrahydropyran-2-carboxylic acid

>  <PUBCHEM_IUPAC_INCHI>
InChI=1S/C23H20O13/c1-8(24)33-20-18(29)19(30)23(36-21(20)22(31)32)35-15-4-9(2-3-11(15)26)14-7-13(28)17-12(27)5-10(25)6-16(17)34-14/h2-7,18-21,23,25-27,29-30H,1H3,(H,31,32)

>  <PUBCHEM_IUPAC_INCHIKEY>
YXAMANJJQIUXMQ-UHFFFAOYSA-N

>  <PUBCHEM_XLOGP3_AA>
0.8

>  <PUBCHEM_EXACT_MASS>
504.09

>  <PUBCHEM_MOLECULAR_FORMULA>
C23H20O13

>  <PUBCHEM_MOLECULAR_WEIGHT>
504.4

>  <PUBCHEM_OPENEYE_CAN_SMILES>
CC(=O)OC1C(C(C(OC1C(=O)O)OC2=C(C=CC(=C2)C3=CC(=O)C4=C(C=C(C=C4O3)O)O)O)O)O

>  <PUBCHEM_OPENEYE_ISO_SMILES>
CC(=O)OC1C(C(C(OC1C(=O)O)OC2=C(C=CC(=C2)C3=CC(=O)C4=C(C=C(C=C4O3)O)O)O)O)O

>  <PUBCHEM_CACTVS_TPSA>
210

>  <PUBCHEM_MONOISOTOPIC_WEIGHT>
504.09

>  <PUBCHEM_TOTAL_CHARGE>
0

>  <PUBCHEM_HEAVY_ATOM_COUNT>
36

>  <PUBCHEM_ATOM_DEF_STEREO_COUNT>
0

>  <PUBCHEM_ATOM_UDEF_STEREO_COUNT>
5

>  <PUBCHEM_BOND_DEF_STEREO_COUNT>
0

>  <PUBCHEM_BOND_UDEF_STEREO_COUNT>
0

>  <PUBCHEM_ISOTOPIC_ATOM_COUNT>
0

>  <PUBCHEM_COMPONENT_COUNT>
1

>  <PUBCHEM_CACTVS_TAUTO_COUNT>
69

>  <PUBCHEM_COORDINATE_TYPE>
1
5
255

>  <PUBCHEM_BONDANNOTATIONS>
17  19  3
15  2  3
20  22  8
20  23  8
22  24  8
23  26  8
24  27  8
26  27  8
28  29  8
29  32  8
18  3  3
30  31  8
30  34  8
31  32  8
31  33  8
33  36  8
34  35  8
35  36  8
14  4  3
16  5  3
9  28  8
9  30  8

$$$$
