74977521
 OpenBabel06101807152D

 92 97  0  0  1  0  0  0  0  0999 V2000
   11.2212   -4.2820    0.0000 O   0  0  0  0  0  0  0  0  0  0  0  0
   10.3552   -1.7820    0.0000 O   0  0  0  0  0  0  0  0  0  0  0  0
    9.4892   -4.2820    0.0000 O   0  0  0  0  0  0  0  0  0  0  0  0
   12.9533   -3.2820    0.0000 O   0  0  0  0  0  0  0  0  0  0  0  0
    9.4892   -3.2820    0.0000 O   0  0  0  0  0  0  0  0  0  0  0  0
   12.9533   -1.2820    0.0000 O   0  0  0  0  0  0  0  0  0  0  0  0
   11.2212   -6.2820    0.0000 O   0  0  0  0  0  0  0  0  0  0  0  0
    9.4892   -7.2820    0.0000 O   0  0  0  0  0  0  0  0  0  0  0  0
    7.7571   -6.2820    0.0000 O   0  0  0  0  0  0  0  0  0  0  0  0
    5.1343    4.2800    0.0000 O   0  0  0  0  0  0  0  0  0  0  0  0
   12.0873    0.2180    0.0000 O   0  0  0  0  0  0  0  0  0  0  0  0
    3.4099    6.2866    0.0000 O   0  0  0  0  0  0  0  0  0  0  0  0
    5.1458    7.2799    0.0000 O   0  0  0  0  0  0  0  0  0  0  0  0
    6.8663    4.2733    0.0000 O   0  0  0  0  0  0  0  0  0  0  0  0
    6.8740    6.2733    0.0000 O   0  0  0  0  0  0  0  0  0  0  0  0
    2.5381    4.7900    0.0000 O   0  0  0  0  0  0  0  0  0  0  0  0
    7.7150   -0.2300    0.0000 O   0  0  0  0  0  0  0  0  0  0  0  0
    5.9495   -3.2547    0.0000 O   0  0  0  0  0  0  0  0  0  0  0  0
    5.1111   -1.7200    0.0000 O   0  0  0  0  0  0  0  0  0  0  0  0
   11.2212   -3.2820    0.0000 C   0  0  3  0  0  0  0  0  0  0  0  0
   12.0873   -2.7820    0.0000 C   0  0  3  0  0  0  0  0  0  0  0  0
   12.0873   -1.7820    0.0000 C   0  0  3  0  0  0  0  0  0  0  0  0
   10.3552   -4.7820    0.0000 C   0  0  3  0  0  0  0  0  0  0  0  0
   10.3552   -5.7820    0.0000 C   0  0  3  0  0  0  0  0  0  0  0  0
   10.3552   -2.7820    0.0000 C   0  0  3  0  0  0  0  0  0  0  0  0
   11.2212   -1.2820    0.0000 C   0  0  3  0  0  0  0  0  0  0  0  0
    9.4892   -6.2820    0.0000 C   0  0  3  0  0  0  0  0  0  0  0  0
    8.6232   -5.7820    0.0000 C   0  0  3  0  0  0  0  0  0  0  0  0
    8.6232   -4.7820    0.0000 C   0  0  3  0  0  0  0  0  0  0  0  0
   11.2212   -0.2820    0.0000 C   0  0  0  0  0  0  0  0  0  0  0  0
    7.7571   -4.2820    0.0000 C   0  0  0  0  0  0  0  0  0  0  0  0
    4.2740    5.7833    0.0000 C   0  0  3  0  0  0  0  0  0  0  0  0
    5.1420    6.2799    0.0000 C   0  0  3  0  0  0  0  0  0  0  0  0
    4.2702    4.7833    0.0000 C   0  0  3  0  0  0  0  0  0  0  0  0
    6.0061    5.7766    0.0000 C   0  0  3  0  0  0  0  0  0  0  0  0
    6.0022    4.7766    0.0000 C   0  0  3  0  0  0  0  0  0  0  0  0
    8.6232   -2.7820    0.0000 C   0  0  0  0  0  0  0  0  0  0  0  0
    3.4022    4.2866    0.0000 C   0  0  0  0  0  0  0  0  0  0  0  0
    8.6192   -1.7404    0.0000 C   0  0  0  0  0  0  0  0  0  0  0  0
    7.7191   -3.2993    0.0000 C   0  0  0  0  0  0  0  0  0  0  0  0
    7.7111   -1.2300    0.0000 C   0  0  0  0  0  0  0  0  0  0  0  0
    6.8624    3.2733    0.0000 C   0  0  0  0  0  0  0  0  0  0  0  0
    6.8231   -2.7681    0.0000 C   0  0  0  0  0  0  0  0  0  0  0  0
    6.8432   -1.7267    0.0000 C   0  0  0  0  0  0  0  0  0  0  0  0
    5.9945    2.7766    0.0000 C   0  0  0  0  0  0  0  0  0  0  0  0
    7.7265    2.7700    0.0000 C   0  0  0  0  0  0  0  0  0  0  0  0
    6.8509    0.2733    0.0000 C   0  0  0  0  0  0  0  0  0  0  0  0
    5.9791   -1.2234    0.0000 C   0  0  0  0  0  0  0  0  0  0  0  0
    6.8547    1.2733    0.0000 C   0  0  0  0  0  0  0  0  0  0  0  0
    5.9906    1.7766    0.0000 C   0  0  0  0  0  0  0  0  0  0  0  0
    7.7227    1.7700    0.0000 C   0  0  0  0  0  0  0  0  0  0  0  0
    5.9829   -0.2234    0.0000 C   0  0  0  0  0  0  0  0  0  0  0  0
   11.7582   -3.5920    0.0000 H   0  0  0  0  0  0  0  0  0  0  0  0
   12.6242   -2.4720    0.0000 H   0  0  0  0  0  0  0  0  0  0  0  0
   12.0873   -1.1620    0.0000 H   0  0  0  0  0  0  0  0  0  0  0  0
   10.3552   -4.1620    0.0000 H   0  0  0  0  0  0  0  0  0  0  0  0
   10.3552   -6.4020    0.0000 H   0  0  0  0  0  0  0  0  0  0  0  0
    9.8183   -2.4720    0.0000 H   0  0  0  0  0  0  0  0  0  0  0  0
   10.6843   -0.9720    0.0000 H   0  0  0  0  0  0  0  0  0  0  0  0
    8.9523   -6.5920    0.0000 H   0  0  0  0  0  0  0  0  0  0  0  0
    8.0862   -5.4720    0.0000 H   0  0  0  0  0  0  0  0  0  0  0  0
    8.6232   -4.1620    0.0000 H   0  0  0  0  0  0  0  0  0  0  0  0
   11.0092    0.3006    0.0000 H   0  0  0  0  0  0  0  0  0  0  0  0
   10.6107   -0.3897    0.0000 H   0  0  0  0  0  0  0  0  0  0  0  0
    8.0671   -3.7451    0.0000 H   0  0  0  0  0  0  0  0  0  0  0  0
    7.2202   -3.9720    0.0000 H   0  0  0  0  0  0  0  0  0  0  0  0
    7.4471   -4.8189    0.0000 H   0  0  0  0  0  0  0  0  0  0  0  0
   13.4902   -2.9720    0.0000 H   0  0  0  0  0  0  0  0  0  0  0  0
    4.2764    6.4033    0.0000 H   0  0  0  0  0  0  0  0  0  0  0  0
    5.6801    6.5879    0.0000 H   0  0  0  0  0  0  0  0  0  0  0  0
    4.2678    4.1633    0.0000 H   0  0  0  0  0  0  0  0  0  0  0  0
    6.5418    5.4645    0.0000 H   0  0  0  0  0  0  0  0  0  0  0  0
   13.4902   -1.5920    0.0000 H   0  0  0  0  0  0  0  0  0  0  0  0
   11.2212   -6.9020    0.0000 H   0  0  0  0  0  0  0  0  0  0  0  0
    8.9523   -7.5920    0.0000 H   0  0  0  0  0  0  0  0  0  0  0  0
    5.9998    4.1566    0.0000 H   0  0  0  0  0  0  0  0  0  0  0  0
    7.2202   -5.9720    0.0000 H   0  0  0  0  0  0  0  0  0  0  0  0
    3.0019    3.8132    0.0000 H   0  0  0  0  0  0  0  0  0  0  0  0
    3.7989    3.8102    0.0000 H   0  0  0  0  0  0  0  0  0  0  0  0
   12.0873    0.8380    0.0000 H   0  0  0  0  0  0  0  0  0  0  0  0
    3.4123    6.9066    0.0000 H   0  0  0  0  0  0  0  0  0  0  0  0
    4.6101    7.5920    0.0000 H   0  0  0  0  0  0  0  0  0  0  0  0
    6.8764    6.8932    0.0000 H   0  0  0  0  0  0  0  0  0  0  0  0
    9.1537   -1.4262    0.0000 H   0  0  0  0  0  0  0  0  0  0  0  0
    7.7143   -3.9193    0.0000 H   0  0  0  0  0  0  0  0  0  0  0  0
    2.0000    4.4820    0.0000 H   0  0  0  0  0  0  0  0  0  0  0  0
    5.4588    3.0887    0.0000 H   0  0  0  0  0  0  0  0  0  0  0  0
    8.2647    3.0779    0.0000 H   0  0  0  0  0  0  0  0  0  0  0  0
    5.4525    1.4687    0.0000 H   0  0  0  0  0  0  0  0  0  0  0  0
    8.2584    1.4579    0.0000 H   0  0  0  0  0  0  0  0  0  0  0  0
    5.4472    0.0887    0.0000 H   0  0  0  0  0  0  0  0  0  0  0  0
    5.9399   -3.8746    0.0000 H   0  0  0  0  0  0  0  0  0  0  0  0
  1 20  1  0  0  0  0
  1 23  1  0  0  0  0
  2 25  1  0  0  0  0
  2 26  1  0  0  0  0
  3 23  1  0  0  0  0
  3 29  1  0  0  0  0
  4 21  1  0  0  0  0
  4 68  1  0  0  0  0
  5 25  1  0  0  0  0
  5 37  1  0  0  0  0
  6 22  1  0  0  0  0
  6 73  1  0  0  0  0
  7 24  1  0  0  0  0
  7 74  1  0  0  0  0
  8 27  1  0  0  0  0
  8 75  1  0  0  0  0
  9 28  1  0  0  0  0
  9 77  1  0  0  0  0
 10 34  1  0  0  0  0
 10 36  1  0  0  0  0
 11 30  1  0  0  0  0
 11 80  1  0  0  0  0
 12 32  1  0  0  0  0
 12 81  1  0  0  0  0
 13 33  1  0  0  0  0
 13 82  1  0  0  0  0
 14 36  1  0  0  0  0
 14 42  1  0  0  0  0
 15 35  1  0  0  0  0
 15 83  1  0  0  0  0
 16 38  1  0  0  0  0
 16 86  1  0  0  0  0
 17 41  1  0  0  0  0
 17 47  1  0  0  0  0
 18 43  1  0  0  0  0
 18 92  1  0  0  0  0
 19 48  2  0  0  0  0
 20 21  1  0  0  0  0
 20 25  1  0  0  0  0
 20 53  1  0  0  0  0
 21 22  1  0  0  0  0
 21 54  1  0  0  0  0
 22 26  1  0  0  0  0
 22 55  1  0  0  0  0
 23 24  1  0  0  0  0
 23 56  1  0  0  0  0
 24 27  1  0  0  0  0
 24 57  1  0  0  0  0
 25 58  1  0  0  0  0
 26 30  1  0  0  0  0
 26 59  1  0  0  0  0
 27 28  1  0  0  0  0
 27 60  1  0  0  0  0
 28 29  1  0  0  0  0
 28 61  1  0  0  0  0
 29 31  1  0  0  0  0
 29 62  1  0  0  0  0
 30 63  1  0  0  0  0
 30 64  1  0  0  0  0
 31 65  1  0  0  0  0
 31 66  1  0  0  0  0
 31 67  1  0  0  0  0
 32 33  1  0  0  0  0
 32 34  1  0  0  0  0
 32 69  1  0  0  0  0
 33 35  1  0  0  0  0
 33 70  1  0  0  0  0
 34 38  1  0  0  0  0
 34 71  1  0  0  0  0
 35 36  1  0  0  0  0
 35 72  1  0  0  0  0
 36 76  1  0  0  0  0
 37 39  1  0  0  0  0
 37 40  2  0  0  0  0
 38 78  1  0  0  0  0
 38 79  1  0  0  0  0
 39 41  2  0  0  0  0
 39 84  1  0  0  0  0
 40 43  1  0  0  0  0
 40 85  1  0  0  0  0
 41 44  1  0  0  0  0
 42 45  2  0  0  0  0
 42 46  1  0  0  0  0
 43 44  2  0  0  0  0
 44 48  1  0  0  0  0
 45 50  1  0  0  0  0
 45 87  1  0  0  0  0
 46 51  2  0  0  0  0
 46 88  1  0  0  0  0
 47 49  1  0  0  0  0
 47 52  2  0  0  0  0
 48 52  1  0  0  0  0
 49 50  2  0  0  0  0
 49 51  1  0  0  0  0
 50 89  1  0  0  0  0
 51 90  1  0  0  0  0
 52 91  1  0  0  0  0
M  END
>  <PUBCHEM_COMPOUND_CID>
74977521

>  <PUBCHEM_COMPOUND_CANONICALIZED>
1

>  <PUBCHEM_CACTVS_COMPLEXITY>
1230

>  <PUBCHEM_CACTVS_HBOND_ACCEPTOR>
19

>  <PUBCHEM_CACTVS_HBOND_DONOR>
11

>  <PUBCHEM_CACTVS_ROTATABLE_BOND>
9

>  <PUBCHEM_CACTVS_SUBSKEYS>
AAADcfB8PgAAAAAAAAAAAAAAAAAAAAAAAAA0aJECAAAAAACBQAAAGgAACAAADBSwmAMyDoAABgCIAqBSAAACCAAkIAAIiAEGCMgdNzaGNRqieWCl4BUPuQfI7KzOIAAACAAIAABAAAAQABAAAAAAAAAAAA==

>  <PUBCHEM_IUPAC_OPENEYE_NAME>
7-[4,5-dihydroxy-6-(hydroxymethyl)-3-(3,4,5-trihydroxy-6-methyl-tetrahydropyran-2-yl)oxy-tetrahydropyran-2-yl]oxy-5-hydroxy-2-[4-[3,4,5-trihydroxy-6-(hydroxymethyl)tetrahydropyran-2-yl]oxyphenyl]chromen-4-one

>  <PUBCHEM_IUPAC_CAS_NAME>
7-[[4,5-dihydroxy-6-(hydroxymethyl)-3-[(3,4,5-trihydroxy-6-methyl-2-oxanyl)oxy]-2-oxanyl]oxy]-5-hydroxy-2-[4-[[3,4,5-trihydroxy-6-(hydroxymethyl)-2-oxanyl]oxy]phenyl]-1-benzopyran-4-one

>  <PUBCHEM_IUPAC_NAME>
7-[4,5-dihydroxy-6-(hydroxymethyl)-3-(3,4,5-trihydroxy-6-methyloxan-2-yl)oxyoxan-2-yl]oxy-5-hydroxy-2-[4-[3,4,5-trihydroxy-6-(hydroxymethyl)oxan-2-yl]oxyphenyl]chromen-4-one

>  <PUBCHEM_IUPAC_SYSTEMATIC_NAME>
7-[6-(hydroxymethyl)-3-[6-methyl-3,4,5-tris(oxidanyl)oxan-2-yl]oxy-4,5-bis(oxidanyl)oxan-2-yl]oxy-2-[4-[6-(hydroxymethyl)-3,4,5-tris(oxidanyl)oxan-2-yl]oxyphenyl]-5-oxidanyl-chromen-4-one

>  <PUBCHEM_IUPAC_TRADITIONAL_NAME>
7-[4,5-dihydroxy-6-methylol-3-(3,4,5-trihydroxy-6-methyl-tetrahydropyran-2-yl)oxy-tetrahydropyran-2-yl]oxy-5-hydroxy-2-[4-(3,4,5-trihydroxy-6-methylol-tetrahydropyran-2-yl)oxyphenyl]chromone

>  <PUBCHEM_IUPAC_INCHI>
InChI=1S/C33H40O19/c1-11-22(38)25(41)28(44)31(46-11)52-30-27(43)24(40)20(10-35)51-33(30)48-14-6-15(36)21-16(37)8-17(49-18(21)7-14)12-2-4-13(5-3-12)47-32-29(45)26(42)23(39)19(9-34)50-32/h2-8,11,19-20,22-36,38-45H,9-10H2,1H3

>  <PUBCHEM_IUPAC_INCHIKEY>
PTKZEWKSNFRXLZ-UHFFFAOYSA-N

>  <PUBCHEM_XLOGP3_AA>
-2

>  <PUBCHEM_EXACT_MASS>
740.216

>  <PUBCHEM_MOLECULAR_FORMULA>
C33H40O19

>  <PUBCHEM_MOLECULAR_WEIGHT>
740.664

>  <PUBCHEM_OPENEYE_CAN_SMILES>
CC1C(C(C(C(O1)OC2C(C(C(OC2OC3=CC(=C4C(=C3)OC(=CC4=O)C5=CC=C(C=C5)OC6C(C(C(C(O6)CO)O)O)O)O)CO)O)O)O)O)O

>  <PUBCHEM_OPENEYE_ISO_SMILES>
CC1C(C(C(C(O1)OC2C(C(C(OC2OC3=CC(=C4C(=C3)OC(=CC4=O)C5=CC=C(C=C5)OC6C(C(C(C(O6)CO)O)O)O)O)CO)O)O)O)O)O

>  <PUBCHEM_CACTVS_TPSA>
304

>  <PUBCHEM_MONOISOTOPIC_WEIGHT>
740.216

>  <PUBCHEM_TOTAL_CHARGE>
0

>  <PUBCHEM_HEAVY_ATOM_COUNT>
52

>  <PUBCHEM_ATOM_DEF_STEREO_COUNT>
0

>  <PUBCHEM_ATOM_UDEF_STEREO_COUNT>
15

>  <PUBCHEM_BOND_DEF_STEREO_COUNT>
0

>  <PUBCHEM_BOND_UDEF_STEREO_COUNT>
0

>  <PUBCHEM_ISOTOPIC_ATOM_COUNT>
0

>  <PUBCHEM_COMPONENT_COUNT>
1

>  <PUBCHEM_CACTVS_TAUTO_COUNT>
5

>  <PUBCHEM_COORDINATE_TYPE>
1
5
255

>  <PUBCHEM_BONDANNOTATIONS>
20  1  3
23  1  3
32  12  3
33  13  3
36  14  3
35  15  3
17  41  8
17  47  8
26  30  3
29  31  3
34  38  3
37  39  8
37  40  8
39  41  8
21  4  3
40  43  8
41  44  8
42  45  8
42  46  8
43  44  8
44  48  8
45  50  8
46  51  8
47  52  8
48  52  8
49  50  8
49  51  8
25  5  3
22  6  3
24  7  3
27  8  3
28  9  3

$$$$
