74977116
 OpenBabel06101807152D

 65 68  0  0  1  0  0  0  0  0999 V2000
    6.3301   -1.2857    0.0000 O   0  0  0  0  0  0  0  0  0  0  0  0
    8.0622   -1.2857    0.0000 O   0  0  0  0  0  0  0  0  0  0  0  0
    4.5981   -3.2857    0.0000 O   0  0  0  0  0  0  0  0  0  0  0  0
    6.3301   -4.2857    0.0000 O   0  0  0  0  0  0  0  0  0  0  0  0
    8.0622   -3.2857    0.0000 O   0  0  0  0  0  0  0  0  0  0  0  0
    3.7320   -1.7857    0.0000 O   0  0  0  0  0  0  0  0  0  0  0  0
    8.9282    1.2143    0.0000 O   0  3  0  0  0  0  0  0  0  0  0  0
    2.8660   -0.2857    0.0000 O   0  0  0  0  0  0  0  0  0  0  0  0
    5.4260    1.2112    0.0000 O   0  0  0  0  0  0  0  0  0  0  0  0
   12.3923    0.2143    0.0000 O   0  0  0  0  0  0  0  0  0  0  0  0
   10.6603   -2.7857    0.0000 O   0  0  0  0  0  0  0  0  0  0  0  0
    7.1840    4.2836    0.0000 O   0  0  0  0  0  0  0  0  0  0  0  0
   12.3923   -1.7857    0.0000 O   0  0  0  0  0  0  0  0  0  0  0  0
    5.4641   -2.7857    0.0000 C   0  0  3  0  0  0  0  0  0  0  0  0
    6.3301   -3.2857    0.0000 C   0  0  3  0  0  0  0  0  0  0  0  0
    5.4641   -1.7857    0.0000 C   0  0  3  0  0  0  0  0  0  0  0  0
    7.1962   -2.7857    0.0000 C   0  0  3  0  0  0  0  0  0  0  0  0
    7.1962   -1.7857    0.0000 C   0  0  3  0  0  0  0  0  0  0  0  0
    4.5981   -1.2857    0.0000 C   0  0  0  0  0  0  0  0  0  0  0  0
    8.0622   -0.2857    0.0000 C   0  0  0  0  0  0  0  0  0  0  0  0
    8.9282    0.2143    0.0000 C   0  0  0  0  0  0  0  0  0  0  0  0
    7.1962    0.2143    0.0000 C   0  0  0  0  0  0  0  0  0  0  0  0
    7.1962    1.2143    0.0000 C   0  0  0  0  0  0  0  0  0  0  0  0
    9.7942   -0.2857    0.0000 C   0  0  0  0  0  0  0  0  0  0  0  0
    2.8660   -1.2857    0.0000 C   0  0  0  0  0  0  0  0  0  0  0  0
    8.0622    1.7143    0.0000 C   0  0  0  0  0  0  0  0  0  0  0  0
    6.2862    1.7212    0.0000 C   0  0  0  0  0  0  0  0  0  0  0  0
    8.0782    2.7558    0.0000 C   0  0  0  0  0  0  0  0  0  0  0  0
    9.7942   -1.2857    0.0000 C   0  0  0  0  0  0  0  0  0  0  0  0
   10.6603    0.2143    0.0000 C   0  0  0  0  0  0  0  0  0  0  0  0
    2.0000   -1.7857    0.0000 C   0  0  0  0  0  0  0  0  0  0  0  0
    6.2781    2.7628    0.0000 C   0  0  0  0  0  0  0  0  0  0  0  0
    7.1802    3.2836    0.0000 C   0  0  0  0  0  0  0  0  0  0  0  0
   11.5263   -0.2857    0.0000 C   0  0  0  0  0  0  0  0  0  0  0  0
   10.6603   -1.7857    0.0000 C   0  0  0  0  0  0  0  0  0  0  0  0
   11.5263   -1.2857    0.0000 C   0  0  0  0  0  0  0  0  0  0  0  0
   12.3923    1.2143    0.0000 C   0  0  0  0  0  0  0  0  0  0  0  0
   11.5263   -3.2857    0.0000 C   0  0  0  0  0  0  0  0  0  0  0  0
    5.4641   -3.4057    0.0000 H   0  0  0  0  0  0  0  0  0  0  0  0
    6.8671   -3.5957    0.0000 H   0  0  0  0  0  0  0  0  0  0  0  0
    5.4641   -1.1657    0.0000 H   0  0  0  0  0  0  0  0  0  0  0  0
    7.7331   -2.4757    0.0000 H   0  0  0  0  0  0  0  0  0  0  0  0
    7.1962   -1.1657    0.0000 H   0  0  0  0  0  0  0  0  0  0  0  0
    4.9966   -0.8107    0.0000 H   0  0  0  0  0  0  0  0  0  0  0  0
    4.1996   -0.8107    0.0000 H   0  0  0  0  0  0  0  0  0  0  0  0
    4.5981   -3.9057    0.0000 H   0  0  0  0  0  0  0  0  0  0  0  0
    5.7932   -4.5957    0.0000 H   0  0  0  0  0  0  0  0  0  0  0  0
    8.0622   -3.9057    0.0000 H   0  0  0  0  0  0  0  0  0  0  0  0
    6.6592   -0.0957    0.0000 H   0  0  0  0  0  0  0  0  0  0  0  0
    8.6187    3.0596    0.0000 H   0  0  0  0  0  0  0  0  0  0  0  0
    9.2573   -1.5957    0.0000 H   0  0  0  0  0  0  0  0  0  0  0  0
   10.6603    0.8343    0.0000 H   0  0  0  0  0  0  0  0  0  0  0  0
    1.6900   -1.2487    0.0000 H   0  0  0  0  0  0  0  0  0  0  0  0
    1.4631   -2.0957    0.0000 H   0  0  0  0  0  0  0  0  0  0  0  0
    2.3100   -2.3226    0.0000 H   0  0  0  0  0  0  0  0  0  0  0  0
    5.7400    3.0707    0.0000 H   0  0  0  0  0  0  0  0  0  0  0  0
    4.8855    1.5150    0.0000 H   0  0  0  0  0  0  0  0  0  0  0  0
    6.6483    4.5957    0.0000 H   0  0  0  0  0  0  0  0  0  0  0  0
   12.9292   -1.4757    0.0000 H   0  0  0  0  0  0  0  0  0  0  0  0
   13.0123    1.2143    0.0000 H   0  0  0  0  0  0  0  0  0  0  0  0
   12.3923    1.8343    0.0000 H   0  0  0  0  0  0  0  0  0  0  0  0
   11.7723    1.2143    0.0000 H   0  0  0  0  0  0  0  0  0  0  0  0
   11.2163   -3.8226    0.0000 H   0  0  0  0  0  0  0  0  0  0  0  0
   12.0632   -3.5957    0.0000 H   0  0  0  0  0  0  0  0  0  0  0  0
   11.8363   -2.7487    0.0000 H   0  0  0  0  0  0  0  0  0  0  0  0
  1 16  1  0  0  0  0
  1 18  1  0  0  0  0
  2 18  1  0  0  0  0
  2 20  1  0  0  0  0
  3 14  1  0  0  0  0
  3 46  1  0  0  0  0
  4 15  1  0  0  0  0
  4 47  1  0  0  0  0
  5 17  1  0  0  0  0
  5 48  1  0  0  0  0
  6 19  1  0  0  0  0
  6 25  1  0  0  0  0
  7 21  2  0  0  0  0
  7 26  1  0  0  0  0
  8 25  2  0  0  0  0
  9 27  1  0  0  0  0
  9 57  1  0  0  0  0
 10 34  1  0  0  0  0
 10 37  1  0  0  0  0
 11 35  1  0  0  0  0
 11 38  1  0  0  0  0
 12 33  1  0  0  0  0
 12 58  1  0  0  0  0
 13 36  1  0  0  0  0
 13 59  1  0  0  0  0
 14 15  1  0  0  0  0
 14 16  1  0  0  0  0
 14 39  1  0  0  0  0
 15 17  1  0  0  0  0
 15 40  1  0  0  0  0
 16 19  1  0  0  0  0
 16 41  1  0  0  0  0
 17 18  1  0  0  0  0
 17 42  1  0  0  0  0
 18 43  1  0  0  0  0
 19 44  1  0  0  0  0
 19 45  1  0  0  0  0
 20 21  1  0  0  0  0
 20 22  2  0  0  0  0
 21 24  1  0  0  0  0
 22 23  1  0  0  0  0
 22 49  1  0  0  0  0
 23 26  1  0  0  0  0
 23 27  2  0  0  0  0
 24 29  2  0  0  0  0
 24 30  1  0  0  0  0
 25 31  1  0  0  0  0
 26 28  2  0  0  0  0
 27 32  1  0  0  0  0
 28 33  1  0  0  0  0
 28 50  1  0  0  0  0
 29 35  1  0  0  0  0
 29 51  1  0  0  0  0
 30 34  2  0  0  0  0
 30 52  1  0  0  0  0
 31 53  1  0  0  0  0
 31 54  1  0  0  0  0
 31 55  1  0  0  0  0
 32 33  2  0  0  0  0
 32 56  1  0  0  0  0
 34 36  1  0  0  0  0
 35 36  2  0  0  0  0
 37 60  1  0  0  0  0
 37 61  1  0  0  0  0
 37 62  1  0  0  0  0
 38 63  1  0  0  0  0
 38 64  1  0  0  0  0
 38 65  1  0  0  0  0
M  CHG  1   7   1
M  END
>  <PUBCHEM_COMPOUND_CID>
74977116

>  <PUBCHEM_COMPOUND_CANONICALIZED>
1

>  <PUBCHEM_CACTVS_COMPLEXITY>
770

>  <PUBCHEM_CACTVS_HBOND_ACCEPTOR>
12

>  <PUBCHEM_CACTVS_HBOND_DONOR>
6

>  <PUBCHEM_CACTVS_ROTATABLE_BOND>
8

>  <PUBCHEM_CACTVS_SUBSKEYS>
AAADceB4PAAAAAAAAAAAAAAAAAAAAAAAAAA0aIEAAAAAAACR9AAAGgAACAAADBSwmAMyDsAABkCIAqDSCAICCAAkIAAAiAFGiMgdNzaGNR6ieWOl4BUPuYfK7PzOIAABCAAIQABAAAIQABCAAAAAAAAAAA==

>  <PUBCHEM_IUPAC_OPENEYE_NAME>
[6-[5,7-dihydroxy-2-(4-hydroxy-3,5-dimethoxy-phenyl)chromenylium-3-yl]oxy-3,4,5-trihydroxy-tetrahydropyran-2-yl]methyl acetate

>  <PUBCHEM_IUPAC_CAS_NAME>
acetic acid [6-[[5,7-dihydroxy-2-(4-hydroxy-3,5-dimethoxyphenyl)-1-benzopyrylium-3-yl]oxy]-3,4,5-trihydroxy-2-oxanyl]methyl ester

>  <PUBCHEM_IUPAC_NAME>
[6-[5,7-dihydroxy-2-(4-hydroxy-3,5-dimethoxyphenyl)chromenylium-3-yl]oxy-3,4,5-trihydroxyoxan-2-yl]methyl acetate

>  <PUBCHEM_IUPAC_SYSTEMATIC_NAME>
[6-[2-(3,5-dimethoxy-4-oxidanyl-phenyl)-5,7-bis(oxidanyl)chromenylium-3-yl]oxy-3,4,5-tris(oxidanyl)oxan-2-yl]methyl ethanoate

>  <PUBCHEM_IUPAC_TRADITIONAL_NAME>
acetic acid [6-[[5,7-dihydroxy-2-(4-hydroxy-3,5-dimethoxy-phenyl)-1-benzopyrylium-3-yl]oxy]-3,4,5-trihydroxy-tetrahydropyran-2-yl]methyl ester

>  <PUBCHEM_IUPAC_INCHI>
InChI=1S/C25H26O13/c1-10(26)35-9-19-21(30)22(31)23(32)25(38-19)37-18-8-13-14(28)6-12(27)7-15(13)36-24(18)11-4-16(33-2)20(29)17(5-11)34-3/h4-8,19,21-23,25,30-32H,9H2,1-3H3,(H2-,27,28,29)/p+1

>  <PUBCHEM_IUPAC_INCHIKEY>
WGYWEDJQQFKGID-UHFFFAOYSA-O

>  <PUBCHEM_EXACT_MASS>
535.145

>  <PUBCHEM_MOLECULAR_FORMULA>
C25H27O13+

>  <PUBCHEM_MOLECULAR_WEIGHT>
535.478

>  <PUBCHEM_OPENEYE_CAN_SMILES>
CC(=O)OCC1C(C(C(C(O1)OC2=C([O+]=C3C=C(C=C(C3=C2)O)O)C4=CC(=C(C(=C4)OC)O)OC)O)O)O

>  <PUBCHEM_OPENEYE_ISO_SMILES>
CC(=O)OCC1C(C(C(C(O1)OC2=C([O+]=C3C=C(C=C(C3=C2)O)O)C4=CC(=C(C(=C4)OC)O)OC)O)O)O

>  <PUBCHEM_CACTVS_TPSA>
186

>  <PUBCHEM_MONOISOTOPIC_WEIGHT>
535.145

>  <PUBCHEM_TOTAL_CHARGE>
1

>  <PUBCHEM_HEAVY_ATOM_COUNT>
38

>  <PUBCHEM_ATOM_DEF_STEREO_COUNT>
0

>  <PUBCHEM_ATOM_UDEF_STEREO_COUNT>
5

>  <PUBCHEM_BOND_DEF_STEREO_COUNT>
0

>  <PUBCHEM_BOND_UDEF_STEREO_COUNT>
0

>  <PUBCHEM_ISOTOPIC_ATOM_COUNT>
0

>  <PUBCHEM_COMPONENT_COUNT>
1

>  <PUBCHEM_CACTVS_TAUTO_COUNT>
53

>  <PUBCHEM_COORDINATE_TYPE>
1
5
255

>  <PUBCHEM_BONDANNOTATIONS>
16  19  3
18  2  3
20  21  8
20  22  8
22  23  8
23  26  8
23  27  8
24  29  8
24  30  8
26  28  8
27  32  8
28  33  8
29  35  8
14  3  3
30  34  8
32  33  8
34  36  8
35  36  8
15  4  3
17  5  3
7  21  8
7  26  8

$$$$
