74977721
 OpenBabel06101807152D

 76 80  0  0  1  0  0  0  0  0999 V2000
    5.1916   -1.7543    0.0000 O   0  0  0  0  0  0  0  0  0  0  0  0
    8.6663    1.2703    0.0000 O   0  0  0  0  0  0  0  0  0  0  0  0
    6.0682   -0.2297    0.0000 O   0  0  0  0  0  0  0  0  0  0  0  0
    2.5879   -1.2843    0.0000 O   0  0  0  0  0  0  0  0  0  0  0  0
    6.9343    3.2703    0.0000 O   0  0  0  0  0  0  0  0  0  0  0  0
    8.6663    4.2703    0.0000 O   0  0  0  0  0  0  0  0  0  0  0  0
    2.6110   -3.2842    0.0000 O   0  0  0  0  0  0  0  0  0  0  0  0
   10.3984    3.2703    0.0000 O   0  0  0  0  0  0  0  0  0  0  0  0
    4.3545   -4.2641    0.0000 O   0  0  0  0  0  0  0  0  0  0  0  0
   11.2644    1.7703    0.0000 O   0  0  0  0  0  0  0  0  0  0  0  0
    6.0865   -4.2441    0.0000 O   0  0  0  0  0  0  0  0  0  0  0  0
    6.0682    2.7703    0.0000 O   0  0  0  0  0  0  0  0  0  0  0  0
    2.5381   -0.2539    0.0000 O   0  0  0  0  0  0  0  0  0  0  0  0
    4.3198    2.8049    0.0000 O   0  0  0  0  0  0  0  0  0  0  0  0
    8.6663   -2.7297    0.0000 O   0  0  0  0  0  0  0  0  0  0  0  0
   10.3984   -1.7297    0.0000 O   0  0  0  0  0  0  0  0  0  0  0  0
    4.3198   -1.2643    0.0000 C   0  0  3  0  0  0  0  0  0  0  0  0
    7.8003    1.7703    0.0000 C   0  0  3  0  0  0  0  0  0  0  0  0
    3.4597   -1.7743    0.0000 C   0  0  3  0  0  0  0  0  0  0  0  0
    7.8003    2.7703    0.0000 C   0  0  3  0  0  0  0  0  0  0  0  0
    8.6663    3.2703    0.0000 C   0  0  3  0  0  0  0  0  0  0  0  0
    3.4712   -2.7742    0.0000 C   0  0  3  0  0  0  0  0  0  0  0  0
    9.5323    2.7703    0.0000 C   0  0  3  0  0  0  0  0  0  0  0  0
    4.3430   -3.2642    0.0000 C   0  0  3  0  0  0  0  0  0  0  0  0
    9.5323    1.7703    0.0000 C   0  0  3  0  0  0  0  0  0  0  0  0
    5.2032   -2.7542    0.0000 C   0  0  3  0  0  0  0  0  0  0  0  0
    4.3083   -0.2644    0.0000 C   0  0  0  0  0  0  0  0  0  0  0  0
    6.9343    1.2703    0.0000 C   0  0  0  0  0  0  0  0  0  0  0  0
    5.2022    0.2703    0.0000 C   0  0  0  0  0  0  0  0  0  0  0  0
    5.2022    1.2703    0.0000 C   0  0  0  0  0  0  0  0  0  0  0  0
    6.0682    1.7703    0.0000 C   0  0  0  0  0  0  0  0  0  0  0  0
    6.9343    0.2703    0.0000 C   0  0  0  0  0  0  0  0  0  0  0  0
   10.3984    1.2703    0.0000 C   0  0  0  0  0  0  0  0  0  0  0  0
    6.0749   -3.2441    0.0000 C   0  0  0  0  0  0  0  0  0  0  0  0
    3.4022    0.2495    0.0000 C   0  0  0  0  0  0  0  0  0  0  0  0
    4.3083    1.8050    0.0000 C   0  0  0  0  0  0  0  0  0  0  0  0
    3.4022    1.2911    0.0000 C   0  0  0  0  0  0  0  0  0  0  0  0
    7.8003   -0.2297    0.0000 C   0  0  0  0  0  0  0  0  0  0  0  0
    7.8003   -1.2297    0.0000 C   0  0  0  0  0  0  0  0  0  0  0  0
    8.6663    0.2703    0.0000 C   0  0  0  0  0  0  0  0  0  0  0  0
    8.6663   -1.7297    0.0000 C   0  0  0  0  0  0  0  0  0  0  0  0
    9.5323   -0.2297    0.0000 C   0  0  0  0  0  0  0  0  0  0  0  0
    9.5323   -1.2297    0.0000 C   0  0  0  0  0  0  0  0  0  0  0  0
   11.2644   -1.2297    0.0000 C   0  0  0  0  0  0  0  0  0  0  0  0
    3.7794   -0.9605    0.0000 H   0  0  0  0  0  0  0  0  0  0  0  0
    7.2634    2.0803    0.0000 H   0  0  0  0  0  0  0  0  0  0  0  0
    4.0002   -2.0780    0.0000 H   0  0  0  0  0  0  0  0  0  0  0  0
    7.8003    3.3903    0.0000 H   0  0  0  0  0  0  0  0  0  0  0  0
    9.2033    3.5803    0.0000 H   0  0  0  0  0  0  0  0  0  0  0  0
    3.4784   -3.3942    0.0000 H   0  0  0  0  0  0  0  0  0  0  0  0
   10.0693    2.4603    0.0000 H   0  0  0  0  0  0  0  0  0  0  0  0
    4.8835   -3.5679    0.0000 H   0  0  0  0  0  0  0  0  0  0  0  0
    9.5323    1.1503    0.0000 H   0  0  0  0  0  0  0  0  0  0  0  0
    5.7365   -2.4380    0.0000 H   0  0  0  0  0  0  0  0  0  0  0  0
    9.9998    0.7953    0.0000 H   0  0  0  0  0  0  0  0  0  0  0  0
   10.7969    0.7953    0.0000 H   0  0  0  0  0  0  0  0  0  0  0  0
    6.6867   -3.3447    0.0000 H   0  0  0  0  0  0  0  0  0  0  0  0
    6.2802   -2.6591    0.0000 H   0  0  0  0  0  0  0  0  0  0  0  0
    2.0546   -1.6005    0.0000 H   0  0  0  0  0  0  0  0  0  0  0  0
    6.9343    3.8903    0.0000 H   0  0  0  0  0  0  0  0  0  0  0  0
    9.2033    4.5803    0.0000 H   0  0  0  0  0  0  0  0  0  0  0  0
    2.6182   -3.9042    0.0000 H   0  0  0  0  0  0  0  0  0  0  0  0
   10.3984    3.8903    0.0000 H   0  0  0  0  0  0  0  0  0  0  0  0
    3.8212   -4.5803    0.0000 H   0  0  0  0  0  0  0  0  0  0  0  0
    2.8665    1.6032    0.0000 H   0  0  0  0  0  0  0  0  0  0  0  0
   11.8013    1.4603    0.0000 H   0  0  0  0  0  0  0  0  0  0  0  0
    6.6270   -4.5479    0.0000 H   0  0  0  0  0  0  0  0  0  0  0  0
    2.0000    0.0541    0.0000 H   0  0  0  0  0  0  0  0  0  0  0  0
    7.2634   -1.5397    0.0000 H   0  0  0  0  0  0  0  0  0  0  0  0
    8.6663    0.8903    0.0000 H   0  0  0  0  0  0  0  0  0  0  0  0
    3.7865    3.1211    0.0000 H   0  0  0  0  0  0  0  0  0  0  0  0
   10.0693    0.0803    0.0000 H   0  0  0  0  0  0  0  0  0  0  0  0
    9.2033   -3.0397    0.0000 H   0  0  0  0  0  0  0  0  0  0  0  0
   11.5744   -1.7666    0.0000 H   0  0  0  0  0  0  0  0  0  0  0  0
   11.8013   -0.9197    0.0000 H   0  0  0  0  0  0  0  0  0  0  0  0
   10.9544   -0.6928    0.0000 H   0  0  0  0  0  0  0  0  0  0  0  0
  1 17  1  0  0  0  0
  1 26  1  0  0  0  0
  2 18  1  0  0  0  0
  2 25  1  0  0  0  0
  3 29  1  0  0  0  0
  3 32  1  0  0  0  0
  4 19  1  0  0  0  0
  4 59  1  0  0  0  0
  5 20  1  0  0  0  0
  5 60  1  0  0  0  0
  6 21  1  0  0  0  0
  6 61  1  0  0  0  0
  7 22  1  0  0  0  0
  7 62  1  0  0  0  0
  8 23  1  0  0  0  0
  8 63  1  0  0  0  0
  9 24  1  0  0  0  0
  9 64  1  0  0  0  0
 10 33  1  0  0  0  0
 10 66  1  0  0  0  0
 11 34  1  0  0  0  0
 11 67  1  0  0  0  0
 12 31  2  0  0  0  0
 13 35  1  0  0  0  0
 13 68  1  0  0  0  0
 14 36  1  0  0  0  0
 14 71  1  0  0  0  0
 15 41  1  0  0  0  0
 15 73  1  0  0  0  0
 16 43  1  0  0  0  0
 16 44  1  0  0  0  0
 17 19  1  0  0  0  0
 17 27  1  0  0  0  0
 17 45  1  0  0  0  0
 18 20  1  0  0  0  0
 18 28  1  0  0  0  0
 18 46  1  0  0  0  0
 19 22  1  0  0  0  0
 19 47  1  0  0  0  0
 20 21  1  0  0  0  0
 20 48  1  0  0  0  0
 21 23  1  0  0  0  0
 21 49  1  0  0  0  0
 22 24  1  0  0  0  0
 22 50  1  0  0  0  0
 23 25  1  0  0  0  0
 23 51  1  0  0  0  0
 24 26  1  0  0  0  0
 24 52  1  0  0  0  0
 25 33  1  0  0  0  0
 25 53  1  0  0  0  0
 26 34  1  0  0  0  0
 26 54  1  0  0  0  0
 27 29  1  0  0  0  0
 27 35  2  0  0  0  0
 28 31  1  0  0  0  0
 28 32  2  0  0  0  0
 29 30  2  0  0  0  0
 30 31  1  0  0  0  0
 30 36  1  0  0  0  0
 32 38  1  0  0  0  0
 33 55  1  0  0  0  0
 33 56  1  0  0  0  0
 34 57  1  0  0  0  0
 34 58  1  0  0  0  0
 35 37  1  0  0  0  0
 36 37  2  0  0  0  0
 37 65  1  0  0  0  0
 38 39  2  0  0  0  0
 38 40  1  0  0  0  0
 39 41  1  0  0  0  0
 39 69  1  0  0  0  0
 40 42  2  0  0  0  0
 40 70  1  0  0  0  0
 41 43  2  0  0  0  0
 42 43  1  0  0  0  0
 42 72  1  0  0  0  0
 44 74  1  0  0  0  0
 44 75  1  0  0  0  0
 44 76  1  0  0  0  0
M  END
>  <PUBCHEM_COMPOUND_CID>
74977721

>  <PUBCHEM_COMPOUND_CANONICALIZED>
1

>  <PUBCHEM_CACTVS_COMPLEXITY>
1060

>  <PUBCHEM_CACTVS_HBOND_ACCEPTOR>
16

>  <PUBCHEM_CACTVS_HBOND_DONOR>
11

>  <PUBCHEM_CACTVS_ROTATABLE_BOND>
6

>  <PUBCHEM_CACTVS_SUBSKEYS>
AAADcfB4PgAAAAAAAAAAAAAAAAAAAAAAAAA0aIECAAAAAACBQAAAGgAACAAADBSgmAIyBoAABgCIAqBSAAACCAAkIAAIiAEGiMgNNzaGNRqCeWOl4BULuQfK7PzOIAADCAAIQABAAAYQABCAAAAAAAAAAA==

>  <PUBCHEM_IUPAC_OPENEYE_NAME>
5,7-dihydroxy-2-(3-hydroxy-4-methoxy-phenyl)-3,8-bis[3,4,5-trihydroxy-6-(hydroxymethyl)tetrahydropyran-2-yl]chromen-4-one

>  <PUBCHEM_IUPAC_CAS_NAME>
5,7-dihydroxy-2-(3-hydroxy-4-methoxyphenyl)-3,8-bis[3,4,5-trihydroxy-6-(hydroxymethyl)-2-oxanyl]-1-benzopyran-4-one

>  <PUBCHEM_IUPAC_NAME>
5,7-dihydroxy-2-(3-hydroxy-4-methoxyphenyl)-3,8-bis[3,4,5-trihydroxy-6-(hydroxymethyl)oxan-2-yl]chromen-4-one

>  <PUBCHEM_IUPAC_SYSTEMATIC_NAME>
3,8-bis[6-(hydroxymethyl)-3,4,5-tris(oxidanyl)oxan-2-yl]-2-(4-methoxy-3-oxidanyl-phenyl)-5,7-bis(oxidanyl)chromen-4-one

>  <PUBCHEM_IUPAC_TRADITIONAL_NAME>
5,7-dihydroxy-2-(3-hydroxy-4-methoxy-phenyl)-3,8-bis(3,4,5-trihydroxy-6-methylol-tetrahydropyran-2-yl)chromone

>  <PUBCHEM_IUPAC_INCHI>
InChI=1S/C28H32O16/c1-41-12-3-2-8(4-9(12)31)25-17(28-24(40)22(38)19(35)14(7-30)43-28)20(36)15-10(32)5-11(33)16(26(15)44-25)27-23(39)21(37)18(34)13(6-29)42-27/h2-5,13-14,18-19,21-24,27-35,37-40H,6-7H2,1H3

>  <PUBCHEM_IUPAC_INCHIKEY>
OZSVEJJFZRCNON-UHFFFAOYSA-N

>  <PUBCHEM_XLOGP3_AA>
-2.3

>  <PUBCHEM_EXACT_MASS>
624.169

>  <PUBCHEM_MOLECULAR_FORMULA>
C28H32O16

>  <PUBCHEM_MOLECULAR_WEIGHT>
624.548

>  <PUBCHEM_OPENEYE_CAN_SMILES>
COC1=C(C=C(C=C1)C2=C(C(=O)C3=C(O2)C(=C(C=C3O)O)C4C(C(C(C(O4)CO)O)O)O)C5C(C(C(C(O5)CO)O)O)O)O

>  <PUBCHEM_OPENEYE_ISO_SMILES>
COC1=C(C=C(C=C1)C2=C(C(=O)C3=C(O2)C(=C(C=C3O)O)C4C(C(C(C(O4)CO)O)O)O)C5C(C(C(C(O5)CO)O)O)O)O

>  <PUBCHEM_CACTVS_TPSA>
277

>  <PUBCHEM_MONOISOTOPIC_WEIGHT>
624.169

>  <PUBCHEM_TOTAL_CHARGE>
0

>  <PUBCHEM_HEAVY_ATOM_COUNT>
44

>  <PUBCHEM_ATOM_DEF_STEREO_COUNT>
0

>  <PUBCHEM_ATOM_UDEF_STEREO_COUNT>
10

>  <PUBCHEM_BOND_DEF_STEREO_COUNT>
0

>  <PUBCHEM_BOND_UDEF_STEREO_COUNT>
0

>  <PUBCHEM_ISOTOPIC_ATOM_COUNT>
0

>  <PUBCHEM_COMPONENT_COUNT>
1

>  <PUBCHEM_CACTVS_TAUTO_COUNT>
36

>  <PUBCHEM_COORDINATE_TYPE>
1
5
255

>  <PUBCHEM_BONDANNOTATIONS>
17  27  3
18  28  3
25  33  3
26  34  3
27  29  8
27  35  8
28  31  8
28  32  8
29  30  8
3  29  8
3  32  8
30  31  8
30  36  8
35  37  8
36  37  8
38  39  8
38  40  8
39  41  8
19  4  3
40  42  8
41  43  8
42  43  8
20  5  3
21  6  3
22  7  3
23  8  3
24  9  3

$$$$
