74978259
 OpenBabel06101807152D

 76 80  0  0  1  0  0  0  0  0999 V2000
    5.1350   -0.5357    0.0000 O   0  0  0  0  0  0  0  0  0  0  0  0
   10.3312   -2.5357    0.0000 O   0  0  0  0  0  0  0  0  0  0  0  0
    6.8671   -0.5357    0.0000 O   0  0  0  0  0  0  0  0  0  0  0  0
    5.1350   -3.5357    0.0000 O   0  0  0  0  0  0  0  0  0  0  0  0
    3.4030   -2.5357    0.0000 O   0  0  0  0  0  0  0  0  0  0  0  0
    6.8671   -2.5357    0.0000 O   0  0  0  0  0  0  0  0  0  0  0  0
   11.1972   -1.0357    0.0000 O   0  0  0  0  0  0  0  0  0  0  0  0
   12.9292   -4.0357    0.0000 O   0  0  0  0  0  0  0  0  0  0  0  0
   11.1972   -5.0357    0.0000 O   0  0  0  0  0  0  0  0  0  0  0  0
   12.9292   -2.0357    0.0000 O   0  0  0  0  0  0  0  0  0  0  0  0
    2.5369   -1.0357    0.0000 O   0  0  0  0  0  0  0  0  0  0  0  0
    7.7331    1.9643    0.0000 O   0  0  0  0  0  0  0  0  0  0  0  0
   11.1972    0.9643    0.0000 O   0  0  0  0  0  0  0  0  0  0  0  0
    5.1350    0.4643    0.0000 O   0  0  0  0  0  0  0  0  0  0  0  0
    4.2308    1.9612    0.0000 O   0  0  0  0  0  0  0  0  0  0  0  0
    5.9889    5.0336    0.0000 O   0  0  0  0  0  0  0  0  0  0  0  0
    5.1350   -2.5357    0.0000 C   0  0  3  0  0  0  0  0  0  0  0  0
    4.2690   -2.0357    0.0000 C   0  0  3  0  0  0  0  0  0  0  0  0
    6.0010   -2.0357    0.0000 C   0  0  3  0  0  0  0  0  0  0  0  0
    4.2690   -1.0357    0.0000 C   0  0  3  0  0  0  0  0  0  0  0  0
   12.0632   -3.5357    0.0000 C   0  0  3  0  0  0  0  0  0  0  0  0
   11.1972   -4.0357    0.0000 C   0  0  3  0  0  0  0  0  0  0  0  0
    6.0010   -1.0357    0.0000 C   0  0  3  0  0  0  0  0  0  0  0  0
   12.0632   -2.5357    0.0000 C   0  0  3  0  0  0  0  0  0  0  0  0
   10.3312   -3.5357    0.0000 C   0  0  3  0  0  0  0  0  0  0  0  0
   11.1972   -2.0357    0.0000 C   0  0  3  0  0  0  0  0  0  0  0  0
    3.4030   -0.5357    0.0000 C   0  0  0  0  0  0  0  0  0  0  0  0
    9.4651   -4.0357    0.0000 C   0  0  0  0  0  0  0  0  0  0  0  0
    6.8671    0.4643    0.0000 C   0  0  0  0  0  0  0  0  0  0  0  0
   10.3312   -0.5357    0.0000 C   0  0  0  0  0  0  0  0  0  0  0  0
    7.7331    0.9643    0.0000 C   0  0  0  0  0  0  0  0  0  0  0  0
    8.5991    0.4643    0.0000 C   0  0  0  0  0  0  0  0  0  0  0  0
    6.0010    0.9643    0.0000 C   0  0  0  0  0  0  0  0  0  0  0  0
   10.3312    0.4643    0.0000 C   0  0  0  0  0  0  0  0  0  0  0  0
    9.4651   -1.0357    0.0000 C   0  0  0  0  0  0  0  0  0  0  0  0
    9.4651    0.9643    0.0000 C   0  0  0  0  0  0  0  0  0  0  0  0
    8.5991   -0.5357    0.0000 C   0  0  0  0  0  0  0  0  0  0  0  0
    6.0010    1.9643    0.0000 C   0  0  0  0  0  0  0  0  0  0  0  0
    6.8671    2.4643    0.0000 C   0  0  0  0  0  0  0  0  0  0  0  0
    5.0910    2.4712    0.0000 C   0  0  0  0  0  0  0  0  0  0  0  0
    6.8831    3.5058    0.0000 C   0  0  0  0  0  0  0  0  0  0  0  0
    5.0830    3.5128    0.0000 C   0  0  0  0  0  0  0  0  0  0  0  0
    5.9851    4.0336    0.0000 C   0  0  0  0  0  0  0  0  0  0  0  0
   11.1972    1.9643    0.0000 C   0  0  0  0  0  0  0  0  0  0  0  0
    5.6720   -2.8457    0.0000 H   0  0  0  0  0  0  0  0  0  0  0  0
    4.2690   -2.6557    0.0000 H   0  0  0  0  0  0  0  0  0  0  0  0
    6.5380   -1.7257    0.0000 H   0  0  0  0  0  0  0  0  0  0  0  0
    4.2690   -0.4157    0.0000 H   0  0  0  0  0  0  0  0  0  0  0  0
   12.0632   -4.1557    0.0000 H   0  0  0  0  0  0  0  0  0  0  0  0
   10.6603   -4.3457    0.0000 H   0  0  0  0  0  0  0  0  0  0  0  0
    6.0010   -0.4157    0.0000 H   0  0  0  0  0  0  0  0  0  0  0  0
   12.0632   -1.9157    0.0000 H   0  0  0  0  0  0  0  0  0  0  0  0
    9.7942   -3.2257    0.0000 H   0  0  0  0  0  0  0  0  0  0  0  0
   10.6603   -1.7257    0.0000 H   0  0  0  0  0  0  0  0  0  0  0  0
    3.8015   -0.0607    0.0000 H   0  0  0  0  0  0  0  0  0  0  0  0
    3.0044   -0.0607    0.0000 H   0  0  0  0  0  0  0  0  0  0  0  0
    9.1551   -3.4987    0.0000 H   0  0  0  0  0  0  0  0  0  0  0  0
    8.9282   -4.3457    0.0000 H   0  0  0  0  0  0  0  0  0  0  0  0
    9.7751   -4.5726    0.0000 H   0  0  0  0  0  0  0  0  0  0  0  0
    4.5981   -3.8457    0.0000 H   0  0  0  0  0  0  0  0  0  0  0  0
    3.4030   -3.1557    0.0000 H   0  0  0  0  0  0  0  0  0  0  0  0
    6.8671   -3.1557    0.0000 H   0  0  0  0  0  0  0  0  0  0  0  0
   12.9292   -4.6557    0.0000 H   0  0  0  0  0  0  0  0  0  0  0  0
   10.6603   -5.3457    0.0000 H   0  0  0  0  0  0  0  0  0  0  0  0
   13.4662   -2.3457    0.0000 H   0  0  0  0  0  0  0  0  0  0  0  0
    2.0000   -0.7257    0.0000 H   0  0  0  0  0  0  0  0  0  0  0  0
    9.4651   -1.6557    0.0000 H   0  0  0  0  0  0  0  0  0  0  0  0
    9.4651    1.5843    0.0000 H   0  0  0  0  0  0  0  0  0  0  0  0
    8.0622   -0.8457    0.0000 H   0  0  0  0  0  0  0  0  0  0  0  0
    7.4236    3.8096    0.0000 H   0  0  0  0  0  0  0  0  0  0  0  0
    4.5449    3.8207    0.0000 H   0  0  0  0  0  0  0  0  0  0  0  0
   11.8172    1.9643    0.0000 H   0  0  0  0  0  0  0  0  0  0  0  0
   11.1972    2.5843    0.0000 H   0  0  0  0  0  0  0  0  0  0  0  0
   10.5772    1.9643    0.0000 H   0  0  0  0  0  0  0  0  0  0  0  0
    3.6904    2.2650    0.0000 H   0  0  0  0  0  0  0  0  0  0  0  0
    5.4532    5.3457    0.0000 H   0  0  0  0  0  0  0  0  0  0  0  0
  1 20  1  0  0  0  0
  1 23  1  0  0  0  0
  2 25  1  0  0  0  0
  2 26  1  0  0  0  0
  3 23  1  0  0  0  0
  3 29  1  0  0  0  0
  4 17  1  0  0  0  0
  4 60  1  0  0  0  0
  5 18  1  0  0  0  0
  5 61  1  0  0  0  0
  6 19  1  0  0  0  0
  6 62  1  0  0  0  0
  7 26  1  0  0  0  0
  7 30  1  0  0  0  0
  8 21  1  0  0  0  0
  8 63  1  0  0  0  0
  9 22  1  0  0  0  0
  9 64  1  0  0  0  0
 10 24  1  0  0  0  0
 10 65  1  0  0  0  0
 11 27  1  0  0  0  0
 11 66  1  0  0  0  0
 12 31  1  0  0  0  0
 12 39  1  0  0  0  0
 13 34  1  0  0  0  0
 13 44  1  0  0  0  0
 14 33  2  0  0  0  0
 15 40  1  0  0  0  0
 15 75  1  0  0  0  0
 16 43  1  0  0  0  0
 16 76  1  0  0  0  0
 17 18  1  0  0  0  0
 17 19  1  0  0  0  0
 17 45  1  0  0  0  0
 18 20  1  0  0  0  0
 18 46  1  0  0  0  0
 19 23  1  0  0  0  0
 19 47  1  0  0  0  0
 20 27  1  0  0  0  0
 20 48  1  0  0  0  0
 21 22  1  0  0  0  0
 21 24  1  0  0  0  0
 21 49  1  0  0  0  0
 22 25  1  0  0  0  0
 22 50  1  0  0  0  0
 23 51  1  0  0  0  0
 24 26  1  0  0  0  0
 24 52  1  0  0  0  0
 25 28  1  0  0  0  0
 25 53  1  0  0  0  0
 26 54  1  0  0  0  0
 27 55  1  0  0  0  0
 27 56  1  0  0  0  0
 28 57  1  0  0  0  0
 28 58  1  0  0  0  0
 28 59  1  0  0  0  0
 29 31  2  0  0  0  0
 29 33  1  0  0  0  0
 30 34  2  0  0  0  0
 30 35  1  0  0  0  0
 31 32  1  0  0  0  0
 32 36  2  0  0  0  0
 32 37  1  0  0  0  0
 33 38  1  0  0  0  0
 34 36  1  0  0  0  0
 35 37  2  0  0  0  0
 35 67  1  0  0  0  0
 36 68  1  0  0  0  0
 37 69  1  0  0  0  0
 38 39  1  0  0  0  0
 38 40  2  0  0  0  0
 39 41  2  0  0  0  0
 40 42  1  0  0  0  0
 41 43  1  0  0  0  0
 41 70  1  0  0  0  0
 42 43  2  0  0  0  0
 42 71  1  0  0  0  0
 44 72  1  0  0  0  0
 44 73  1  0  0  0  0
 44 74  1  0  0  0  0
M  END
>  <PUBCHEM_COMPOUND_CID>
74978259

>  <PUBCHEM_COMPOUND_CANONICALIZED>
1

>  <PUBCHEM_CACTVS_COMPLEXITY>
1040

>  <PUBCHEM_CACTVS_HBOND_ACCEPTOR>
16

>  <PUBCHEM_CACTVS_HBOND_DONOR>
9

>  <PUBCHEM_CACTVS_ROTATABLE_BOND>
7

>  <PUBCHEM_CACTVS_SUBSKEYS>
AAADcfB4PgAAAAAAAAAAAAAAAAAAAAAAAAA0aIECAAAAAACBQAAAGgAACAAADBSwmAMyDoAABgCIAqBSAAICCAAkIAAIiAFGiMgdNzaGNR6ieWKl4BUPuQfI7LzOIAABCAAIQABAAAIQABCAAAAAAAAAAA==

>  <PUBCHEM_IUPAC_OPENEYE_NAME>
5,7-dihydroxy-2-[3-methoxy-4-(3,4,5-trihydroxy-6-methyl-tetrahydropyran-2-yl)oxy-phenyl]-3-[3,4,5-trihydroxy-6-(hydroxymethyl)tetrahydropyran-2-yl]oxy-chromen-4-one

>  <PUBCHEM_IUPAC_CAS_NAME>
5,7-dihydroxy-2-[3-methoxy-4-[(3,4,5-trihydroxy-6-methyl-2-oxanyl)oxy]phenyl]-3-[[3,4,5-trihydroxy-6-(hydroxymethyl)-2-oxanyl]oxy]-1-benzopyran-4-one

>  <PUBCHEM_IUPAC_NAME>
5,7-dihydroxy-2-[3-methoxy-4-(3,4,5-trihydroxy-6-methyloxan-2-yl)oxyphenyl]-3-[3,4,5-trihydroxy-6-(hydroxymethyl)oxan-2-yl]oxychromen-4-one

>  <PUBCHEM_IUPAC_SYSTEMATIC_NAME>
3-[6-(hydroxymethyl)-3,4,5-tris(oxidanyl)oxan-2-yl]oxy-2-[3-methoxy-4-[6-methyl-3,4,5-tris(oxidanyl)oxan-2-yl]oxy-phenyl]-5,7-bis(oxidanyl)chromen-4-one

>  <PUBCHEM_IUPAC_TRADITIONAL_NAME>
5,7-dihydroxy-2-[3-methoxy-4-(3,4,5-trihydroxy-6-methyl-tetrahydropyran-2-yl)oxy-phenyl]-3-(3,4,5-trihydroxy-6-methylol-tetrahydropyran-2-yl)oxy-chromone

>  <PUBCHEM_IUPAC_INCHI>
InChI=1S/C28H32O16/c1-9-18(32)21(35)23(37)27(40-9)42-13-4-3-10(5-14(13)39-2)25-26(20(34)17-12(31)6-11(30)7-15(17)41-25)44-28-24(38)22(36)19(33)16(8-29)43-28/h3-7,9,16,18-19,21-24,27-33,35-38H,8H2,1-2H3

>  <PUBCHEM_IUPAC_INCHIKEY>
GVBDKXQDCPGLFU-UHFFFAOYSA-N

>  <PUBCHEM_XLOGP3_AA>
-0.6

>  <PUBCHEM_EXACT_MASS>
624.169

>  <PUBCHEM_MOLECULAR_FORMULA>
C28H32O16

>  <PUBCHEM_MOLECULAR_WEIGHT>
624.548

>  <PUBCHEM_OPENEYE_CAN_SMILES>
CC1C(C(C(C(O1)OC2=C(C=C(C=C2)C3=C(C(=O)C4=C(C=C(C=C4O3)O)O)OC5C(C(C(C(O5)CO)O)O)O)OC)O)O)O

>  <PUBCHEM_OPENEYE_ISO_SMILES>
CC1C(C(C(C(O1)OC2=C(C=C(C=C2)C3=C(C(=O)C4=C(C=C(C=C4O3)O)O)OC5C(C(C(C(O5)CO)O)O)O)OC)O)O)O

>  <PUBCHEM_CACTVS_TPSA>
255

>  <PUBCHEM_MONOISOTOPIC_WEIGHT>
624.169

>  <PUBCHEM_TOTAL_CHARGE>
0

>  <PUBCHEM_HEAVY_ATOM_COUNT>
44

>  <PUBCHEM_ATOM_DEF_STEREO_COUNT>
0

>  <PUBCHEM_ATOM_UDEF_STEREO_COUNT>
10

>  <PUBCHEM_BOND_DEF_STEREO_COUNT>
0

>  <PUBCHEM_BOND_UDEF_STEREO_COUNT>
0

>  <PUBCHEM_ISOTOPIC_ATOM_COUNT>
0

>  <PUBCHEM_COMPONENT_COUNT>
1

>  <PUBCHEM_CACTVS_TAUTO_COUNT>
12

>  <PUBCHEM_COORDINATE_TYPE>
1
5
255

>  <PUBCHEM_BONDANNOTATIONS>
24  10  3
12  31  8
12  39  8
20  27  3
25  28  3
29  31  8
29  33  8
23  3  3
30  34  8
30  35  8
32  36  8
32  37  8
33  38  8
34  36  8
35  37  8
38  39  8
38  40  8
39  41  8
17  4  3
40  42  8
41  43  8
42  43  8
18  5  3
19  6  3
26  7  3
21  8  3
22  9  3

$$$$
