74978268
 OpenBabel06101807152D

 76 80  0  0  1  0  0  0  0  0999 V2000
    6.0010   -1.2704    0.0000 O   0  0  0  0  0  0  0  0  0  0  0  0
    6.8671    1.2296    0.0000 O   0  0  0  0  0  0  0  0  0  0  0  0
    4.2690   -1.2704    0.0000 O   0  0  0  0  0  0  0  0  0  0  0  0
    4.2690   -0.2704    0.0000 O   0  0  0  0  0  0  0  0  0  0  0  0
    7.7331   -0.2704    0.0000 O   0  0  0  0  0  0  0  0  0  0  0  0
    4.2690    1.7296    0.0000 O   0  0  0  0  0  0  0  0  0  0  0  0
    6.0010   -3.2704    0.0000 O   0  0  0  0  0  0  0  0  0  0  0  0
    4.2690   -4.2704    0.0000 O   0  0  0  0  0  0  0  0  0  0  0  0
    2.5369   -3.2704    0.0000 O   0  0  0  0  0  0  0  0  0  0  0  0
    6.8671    3.2296    0.0000 O   0  0  0  0  0  0  0  0  0  0  0  0
    7.7331    1.7296    0.0000 O   0  0  0  0  0  0  0  0  0  0  0  0
   12.0632    1.2296    0.0000 O   0  0  0  0  0  0  0  0  0  0  0  0
   10.3312    3.2296    0.0000 O   0  0  0  0  0  0  0  0  0  0  0  0
   12.0632    4.2296    0.0000 O   0  0  0  0  0  0  0  0  0  0  0  0
   13.8116    4.2642    0.0000 O   0  0  0  0  0  0  0  0  0  0  0  0
   15.5933    1.2055    0.0000 O   0  0  0  0  0  0  0  0  0  0  0  0
    6.0010   -0.2704    0.0000 C   0  0  3  0  0  0  0  0  0  0  0  0
    5.1350    0.2296    0.0000 C   0  0  3  0  0  0  0  0  0  0  0  0
    5.1350    1.2296    0.0000 C   0  0  3  0  0  0  0  0  0  0  0  0
    5.1350   -1.7704    0.0000 C   0  0  3  0  0  0  0  0  0  0  0  0
    5.1350   -2.7704    0.0000 C   0  0  3  0  0  0  0  0  0  0  0  0
    6.8671    0.2296    0.0000 C   0  0  3  0  0  0  0  0  0  0  0  0
    6.0010    1.7296    0.0000 C   0  0  3  0  0  0  0  0  0  0  0  0
    4.2690   -3.2704    0.0000 C   0  0  3  0  0  0  0  0  0  0  0  0
    3.4030   -2.7704    0.0000 C   0  0  3  0  0  0  0  0  0  0  0  0
    3.4030   -1.7704    0.0000 C   0  0  3  0  0  0  0  0  0  0  0  0
    6.0010    2.7296    0.0000 C   0  0  0  0  0  0  0  0  0  0  0  0
    2.5369   -1.2704    0.0000 C   0  0  0  0  0  0  0  0  0  0  0  0
    8.5991    0.2296    0.0000 C   0  0  0  0  0  0  0  0  0  0  0  0
    8.5991    1.2296    0.0000 C   0  0  0  0  0  0  0  0  0  0  0  0
    9.4651   -0.2704    0.0000 C   0  0  0  0  0  0  0  0  0  0  0  0
    9.4651    1.7296    0.0000 C   0  0  0  0  0  0  0  0  0  0  0  0
   10.3312    0.2296    0.0000 C   0  0  0  0  0  0  0  0  0  0  0  0
   10.3312    1.2296    0.0000 C   0  0  0  0  0  0  0  0  0  0  0  0
   11.1972    1.7296    0.0000 C   0  0  0  0  0  0  0  0  0  0  0  0
    7.7331    2.7296    0.0000 C   0  0  0  0  0  0  0  0  0  0  0  0
   11.1972    2.7296    0.0000 C   0  0  0  0  0  0  0  0  0  0  0  0
   12.9292    1.7296    0.0000 C   0  0  0  0  0  0  0  0  0  0  0  0
   12.9292    2.7296    0.0000 C   0  0  0  0  0  0  0  0  0  0  0  0
   12.0632    3.2296    0.0000 C   0  0  0  0  0  0  0  0  0  0  0  0
   13.8232    1.1950    0.0000 C   0  0  0  0  0  0  0  0  0  0  0  0
   13.8232    3.2643    0.0000 C   0  0  0  0  0  0  0  0  0  0  0  0
   14.7292    1.7088    0.0000 C   0  0  0  0  0  0  0  0  0  0  0  0
   14.7292    2.7504    0.0000 C   0  0  0  0  0  0  0  0  0  0  0  0
    6.5380   -0.5804    0.0000 H   0  0  0  0  0  0  0  0  0  0  0  0
    5.1350   -0.3904    0.0000 H   0  0  0  0  0  0  0  0  0  0  0  0
    5.1350    1.8496    0.0000 H   0  0  0  0  0  0  0  0  0  0  0  0
    5.1350   -1.1504    0.0000 H   0  0  0  0  0  0  0  0  0  0  0  0
    5.1350   -3.3904    0.0000 H   0  0  0  0  0  0  0  0  0  0  0  0
    7.4040    0.5396    0.0000 H   0  0  0  0  0  0  0  0  0  0  0  0
    6.5380    2.0396    0.0000 H   0  0  0  0  0  0  0  0  0  0  0  0
    3.7320   -3.5804    0.0000 H   0  0  0  0  0  0  0  0  0  0  0  0
    2.8660   -2.4604    0.0000 H   0  0  0  0  0  0  0  0  0  0  0  0
    3.4030   -1.1504    0.0000 H   0  0  0  0  0  0  0  0  0  0  0  0
    5.7890    3.3122    0.0000 H   0  0  0  0  0  0  0  0  0  0  0  0
    5.3905    2.6220    0.0000 H   0  0  0  0  0  0  0  0  0  0  0  0
    2.8469   -0.7335    0.0000 H   0  0  0  0  0  0  0  0  0  0  0  0
    2.0000   -0.9604    0.0000 H   0  0  0  0  0  0  0  0  0  0  0  0
    2.2269   -1.8073    0.0000 H   0  0  0  0  0  0  0  0  0  0  0  0
    3.7320    0.0396    0.0000 H   0  0  0  0  0  0  0  0  0  0  0  0
    4.2690    2.3496    0.0000 H   0  0  0  0  0  0  0  0  0  0  0  0
    6.0010   -3.8904    0.0000 H   0  0  0  0  0  0  0  0  0  0  0  0
    3.7320   -4.5804    0.0000 H   0  0  0  0  0  0  0  0  0  0  0  0
    2.0000   -2.9604    0.0000 H   0  0  0  0  0  0  0  0  0  0  0  0
    6.8671    3.8496    0.0000 H   0  0  0  0  0  0  0  0  0  0  0  0
    9.4651   -0.8904    0.0000 H   0  0  0  0  0  0  0  0  0  0  0  0
    9.4651    2.3496    0.0000 H   0  0  0  0  0  0  0  0  0  0  0  0
   10.8681   -0.0804    0.0000 H   0  0  0  0  0  0  0  0  0  0  0  0
    8.3531    2.7296    0.0000 H   0  0  0  0  0  0  0  0  0  0  0  0
    7.7331    3.3496    0.0000 H   0  0  0  0  0  0  0  0  0  0  0  0
    7.1131    2.7296    0.0000 H   0  0  0  0  0  0  0  0  0  0  0  0
   13.8160    0.5750    0.0000 H   0  0  0  0  0  0  0  0  0  0  0  0
   10.3312    3.8496    0.0000 H   0  0  0  0  0  0  0  0  0  0  0  0
   15.2650    3.0625    0.0000 H   0  0  0  0  0  0  0  0  0  0  0  0
   14.3449    4.5804    0.0000 H   0  0  0  0  0  0  0  0  0  0  0  0
   16.1315    1.5134    0.0000 H   0  0  0  0  0  0  0  0  0  0  0  0
  1 17  1  0  0  0  0
  1 20  1  0  0  0  0
  2 22  1  0  0  0  0
  2 23  1  0  0  0  0
  3 20  1  0  0  0  0
  3 26  1  0  0  0  0
  4 18  1  0  0  0  0
  4 60  1  0  0  0  0
  5 22  1  0  0  0  0
  5 29  1  0  0  0  0
  6 19  1  0  0  0  0
  6 61  1  0  0  0  0
  7 21  1  0  0  0  0
  7 62  1  0  0  0  0
  8 24  1  0  0  0  0
  8 63  1  0  0  0  0
  9 25  1  0  0  0  0
  9 64  1  0  0  0  0
 10 27  1  0  0  0  0
 10 65  1  0  0  0  0
 11 30  1  0  0  0  0
 11 36  1  0  0  0  0
 12 35  1  0  0  0  0
 12 38  1  0  0  0  0
 13 37  1  0  0  0  0
 13 73  1  0  0  0  0
 14 40  2  0  0  0  0
 15 42  1  0  0  0  0
 15 75  1  0  0  0  0
 16 43  1  0  0  0  0
 16 76  1  0  0  0  0
 17 18  1  0  0  0  0
 17 22  1  0  0  0  0
 17 45  1  0  0  0  0
 18 19  1  0  0  0  0
 18 46  1  0  0  0  0
 19 23  1  0  0  0  0
 19 47  1  0  0  0  0
 20 21  1  0  0  0  0
 20 48  1  0  0  0  0
 21 24  1  0  0  0  0
 21 49  1  0  0  0  0
 22 50  1  0  0  0  0
 23 27  1  0  0  0  0
 23 51  1  0  0  0  0
 24 25  1  0  0  0  0
 24 52  1  0  0  0  0
 25 26  1  0  0  0  0
 25 53  1  0  0  0  0
 26 28  1  0  0  0  0
 26 54  1  0  0  0  0
 27 55  1  0  0  0  0
 27 56  1  0  0  0  0
 28 57  1  0  0  0  0
 28 58  1  0  0  0  0
 28 59  1  0  0  0  0
 29 30  2  0  0  0  0
 29 31  1  0  0  0  0
 30 32  1  0  0  0  0
 31 33  2  0  0  0  0
 31 66  1  0  0  0  0
 32 34  2  0  0  0  0
 32 67  1  0  0  0  0
 33 34  1  0  0  0  0
 33 68  1  0  0  0  0
 34 35  1  0  0  0  0
 35 37  2  0  0  0  0
 36 69  1  0  0  0  0
 36 70  1  0  0  0  0
 36 71  1  0  0  0  0
 37 40  1  0  0  0  0
 38 39  1  0  0  0  0
 38 41  2  0  0  0  0
 39 40  1  0  0  0  0
 39 42  2  0  0  0  0
 41 43  1  0  0  0  0
 41 72  1  0  0  0  0
 42 44  1  0  0  0  0
 43 44  2  0  0  0  0
 44 74  1  0  0  0  0
M  END
>  <PUBCHEM_COMPOUND_CID>
74978268

>  <PUBCHEM_COMPOUND_CANONICALIZED>
1

>  <PUBCHEM_CACTVS_COMPLEXITY>
1040

>  <PUBCHEM_CACTVS_HBOND_ACCEPTOR>
16

>  <PUBCHEM_CACTVS_HBOND_DONOR>
9

>  <PUBCHEM_CACTVS_ROTATABLE_BOND>
7

>  <PUBCHEM_CACTVS_SUBSKEYS>
AAADcfB4PgAAAAAAAAAAAAAAAAAAAAAAAAA0aIECAAAAAACBQAAAGgAACAAADBSwmAMyDoAABgCIAqBSAAICCAAkIAAIiAFGiMgdNzaGNRqieWKl4BUPuQfI7LzOIAABCAAIQABAAAIQABCAAAAAAAAAAA==

>  <PUBCHEM_IUPAC_OPENEYE_NAME>
2-[4-[4,5-dihydroxy-6-(hydroxymethyl)-3-(3,4,5-trihydroxy-6-methyl-tetrahydropyran-2-yl)oxy-tetrahydropyran-2-yl]oxy-3-methoxy-phenyl]-3,5,7-trihydroxy-chromen-4-one

>  <PUBCHEM_IUPAC_CAS_NAME>
2-[4-[[4,5-dihydroxy-6-(hydroxymethyl)-3-[(3,4,5-trihydroxy-6-methyl-2-oxanyl)oxy]-2-oxanyl]oxy]-3-methoxyphenyl]-3,5,7-trihydroxy-1-benzopyran-4-one

>  <PUBCHEM_IUPAC_NAME>
2-[4-[4,5-dihydroxy-6-(hydroxymethyl)-3-(3,4,5-trihydroxy-6-methyloxan-2-yl)oxyoxan-2-yl]oxy-3-methoxyphenyl]-3,5,7-trihydroxychromen-4-one

>  <PUBCHEM_IUPAC_SYSTEMATIC_NAME>
2-[4-[6-(hydroxymethyl)-3-[6-methyl-3,4,5-tris(oxidanyl)oxan-2-yl]oxy-4,5-bis(oxidanyl)oxan-2-yl]oxy-3-methoxy-phenyl]-3,5,7-tris(oxidanyl)chromen-4-one

>  <PUBCHEM_IUPAC_TRADITIONAL_NAME>
2-[4-[4,5-dihydroxy-6-methylol-3-(3,4,5-trihydroxy-6-methyl-tetrahydropyran-2-yl)oxy-tetrahydropyran-2-yl]oxy-3-methoxy-phenyl]-3,5,7-trihydroxy-chromone

>  <PUBCHEM_IUPAC_INCHI>
InChI=1S/C28H32O16/c1-9-18(32)21(35)24(38)27(40-9)44-26-22(36)19(33)16(8-29)43-28(26)42-13-4-3-10(5-14(13)39-2)25-23(37)20(34)17-12(31)6-11(30)7-15(17)41-25/h3-7,9,16,18-19,21-22,24,26-33,35-38H,8H2,1-2H3

>  <PUBCHEM_IUPAC_INCHIKEY>
KBVVGMZQNYSITN-UHFFFAOYSA-N

>  <PUBCHEM_XLOGP3_AA>
-0.4

>  <PUBCHEM_EXACT_MASS>
624.169

>  <PUBCHEM_MOLECULAR_FORMULA>
C28H32O16

>  <PUBCHEM_MOLECULAR_WEIGHT>
624.548

>  <PUBCHEM_OPENEYE_CAN_SMILES>
CC1C(C(C(C(O1)OC2C(C(C(OC2OC3=C(C=C(C=C3)C4=C(C(=O)C5=C(C=C(C=C5O4)O)O)O)OC)CO)O)O)O)O)O

>  <PUBCHEM_OPENEYE_ISO_SMILES>
CC1C(C(C(C(O1)OC2C(C(C(OC2OC3=C(C=C(C=C3)C4=C(C(=O)C5=C(C=C(C=C5O4)O)O)O)OC)CO)O)O)O)O)O

>  <PUBCHEM_CACTVS_TPSA>
255

>  <PUBCHEM_MONOISOTOPIC_WEIGHT>
624.169

>  <PUBCHEM_TOTAL_CHARGE>
0

>  <PUBCHEM_HEAVY_ATOM_COUNT>
44

>  <PUBCHEM_ATOM_DEF_STEREO_COUNT>
0

>  <PUBCHEM_ATOM_UDEF_STEREO_COUNT>
10

>  <PUBCHEM_BOND_DEF_STEREO_COUNT>
0

>  <PUBCHEM_BOND_UDEF_STEREO_COUNT>
0

>  <PUBCHEM_ISOTOPIC_ATOM_COUNT>
0

>  <PUBCHEM_COMPONENT_COUNT>
1

>  <PUBCHEM_CACTVS_TAUTO_COUNT>
24

>  <PUBCHEM_COORDINATE_TYPE>
1
5
255

>  <PUBCHEM_BONDANNOTATIONS>
17  1  3
20  1  3
12  35  8
12  38  8
23  27  3
26  28  3
29  30  8
29  31  8
30  32  8
31  33  8
32  34  8
33  34  8
35  37  8
37  40  8
38  39  8
38  41  8
39  40  8
39  42  8
18  4  3
41  43  8
42  44  8
43  44  8
22  5  3
19  6  3
21  7  3
24  8  3
25  9  3

$$$$
