74977716
 OpenBabel06101807152D

 74 78  0  0  1  0  0  0  0  0999 V2000
    5.1350   -3.5256    0.0000 O   0  0  0  0  0  0  0  0  0  0  0  0
   12.9705    4.0202    0.0000 O   0  0  0  0  0  0  0  0  0  0  0  0
    6.8671   -3.5256    0.0000 O   0  0  0  0  0  0  0  0  0  0  0  0
   12.0987    2.5236    0.0000 O   0  0  0  0  0  0  0  0  0  0  0  0
    5.1350   -6.5256    0.0000 O   0  0  0  0  0  0  0  0  0  0  0  0
   10.3782    5.5302    0.0000 O   0  0  0  0  0  0  0  0  0  0  0  0
    3.4030   -5.5256    0.0000 O   0  0  0  0  0  0  0  0  0  0  0  0
    6.8671   -5.5256    0.0000 O   0  0  0  0  0  0  0  0  0  0  0  0
   12.1141    6.5235    0.0000 O   0  0  0  0  0  0  0  0  0  0  0  0
   10.3705    3.5302    0.0000 O   0  0  0  0  0  0  0  0  0  0  0  0
    2.5369   -4.0256    0.0000 O   0  0  0  0  0  0  0  0  0  0  0  0
   14.7064    5.0135    0.0000 O   0  0  0  0  0  0  0  0  0  0  0  0
    3.4030   -2.5256    0.0000 O   0  0  0  0  0  0  0  0  0  0  0  0
   13.8461    6.5168    0.0000 O   0  0  0  0  0  0  0  0  0  0  0  0
    8.6230   -0.4631    0.0000 O   0  0  0  0  0  0  0  0  0  0  0  0
   12.0910    0.5236    0.0000 O   0  0  0  0  0  0  0  0  0  0  0  0
    5.1208   -0.4464    0.0000 O   0  0  0  0  0  0  0  0  0  0  0  0
    6.0308    1.0469    0.0000 O   0  0  0  0  0  0  0  0  0  0  0  0
    5.1350   -5.5256    0.0000 C   0  0  3  0  0  0  0  0  0  0  0  0
   11.2423    5.0269    0.0000 C   0  0  3  0  0  0  0  0  0  0  0  0
    4.2690   -5.0256    0.0000 C   0  0  3  0  0  0  0  0  0  0  0  0
    6.0010   -5.0256    0.0000 C   0  0  3  0  0  0  0  0  0  0  0  0
   12.1102    5.5235    0.0000 C   0  0  3  0  0  0  0  0  0  0  0  0
   11.2384    4.0269    0.0000 C   0  0  3  0  0  0  0  0  0  0  0  0
    4.2690   -4.0256    0.0000 C   0  0  3  0  0  0  0  0  0  0  0  0
   12.9743    5.0202    0.0000 C   0  0  3  0  0  0  0  0  0  0  0  0
    6.0010   -4.0256    0.0000 C   0  0  3  0  0  0  0  0  0  0  0  0
   12.1025    3.5235    0.0000 C   0  0  3  0  0  0  0  0  0  0  0  0
    3.4030   -3.5256    0.0000 C   0  0  0  0  0  0  0  0  0  0  0  0
   13.8423    5.5168    0.0000 C   0  0  0  0  0  0  0  0  0  0  0  0
    6.8671   -2.5256    0.0000 C   0  0  0  0  0  0  0  0  0  0  0  0
   11.2307    2.0269    0.0000 C   0  0  0  0  0  0  0  0  0  0  0  0
    7.7671   -2.0013    0.0000 C   0  0  0  0  0  0  0  0  0  0  0  0
   11.2269    1.0269    0.0000 C   0  0  0  0  0  0  0  0  0  0  0  0
    5.9670   -2.0013    0.0000 C   0  0  0  0  0  0  0  0  0  0  0  0
   10.3666    2.5302    0.0000 C   0  0  0  0  0  0  0  0  0  0  0  0
    7.7551   -0.9597    0.0000 C   0  0  0  0  0  0  0  0  0  0  0  0
    6.8910   -0.4564    0.0000 C   0  0  0  0  0  0  0  0  0  0  0  0
    9.4948    1.0336    0.0000 C   0  0  0  0  0  0  0  0  0  0  0  0
    5.9790   -0.9597    0.0000 C   0  0  0  0  0  0  0  0  0  0  0  0
   10.3589    0.5302    0.0000 C   0  0  0  0  0  0  0  0  0  0  0  0
    8.6269    0.5369    0.0000 C   0  0  0  0  0  0  0  0  0  0  0  0
    9.4987    2.0336    0.0000 C   0  0  0  0  0  0  0  0  0  0  0  0
    6.8948    0.5436    0.0000 C   0  0  0  0  0  0  0  0  0  0  0  0
    7.7628    1.0402    0.0000 C   0  0  0  0  0  0  0  0  0  0  0  0
   12.0871   -0.4764    0.0000 C   0  0  0  0  0  0  0  0  0  0  0  0
    5.6720   -5.8356    0.0000 H   0  0  0  0  0  0  0  0  0  0  0  0
   10.7042    4.7189    0.0000 H   0  0  0  0  0  0  0  0  0  0  0  0
    4.2690   -5.6456    0.0000 H   0  0  0  0  0  0  0  0  0  0  0  0
    6.5380   -4.7156    0.0000 H   0  0  0  0  0  0  0  0  0  0  0  0
   11.5745    5.8356    0.0000 H   0  0  0  0  0  0  0  0  0  0  0  0
   11.7766    4.3348    0.0000 H   0  0  0  0  0  0  0  0  0  0  0  0
    4.2690   -3.4056    0.0000 H   0  0  0  0  0  0  0  0  0  0  0  0
   13.5101    4.7081    0.0000 H   0  0  0  0  0  0  0  0  0  0  0  0
    6.0010   -3.4056    0.0000 H   0  0  0  0  0  0  0  0  0  0  0  0
   11.5644    3.2156    0.0000 H   0  0  0  0  0  0  0  0  0  0  0  0
    5.6720   -6.8356    0.0000 H   0  0  0  0  0  0  0  0  0  0  0  0
    9.8401    5.2223    0.0000 H   0  0  0  0  0  0  0  0  0  0  0  0
    3.4030   -6.1456    0.0000 H   0  0  0  0  0  0  0  0  0  0  0  0
    7.4040   -5.2156    0.0000 H   0  0  0  0  0  0  0  0  0  0  0  0
   11.5783    6.8356    0.0000 H   0  0  0  0  0  0  0  0  0  0  0  0
    9.8348    3.8423    0.0000 H   0  0  0  0  0  0  0  0  0  0  0  0
    8.3064   -2.3072    0.0000 H   0  0  0  0  0  0  0  0  0  0  0  0
    5.4277   -2.3072    0.0000 H   0  0  0  0  0  0  0  0  0  0  0  0
   10.3690    3.1502    0.0000 H   0  0  0  0  0  0  0  0  0  0  0  0
    2.0000   -3.7156    0.0000 H   0  0  0  0  0  0  0  0  0  0  0  0
   15.2445    5.3214    0.0000 H   0  0  0  0  0  0  0  0  0  0  0  0
   10.3565   -0.0898    0.0000 H   0  0  0  0  0  0  0  0  0  0  0  0
    8.9630    2.3456    0.0000 H   0  0  0  0  0  0  0  0  0  0  0  0
    7.7652    1.6602    0.0000 H   0  0  0  0  0  0  0  0  0  0  0  0
    4.5792   -0.7481    0.0000 H   0  0  0  0  0  0  0  0  0  0  0  0
   11.4671   -0.4740    0.0000 H   0  0  0  0  0  0  0  0  0  0  0  0
   12.0847   -1.0964    0.0000 H   0  0  0  0  0  0  0  0  0  0  0  0
   12.7071   -0.4788    0.0000 H   0  0  0  0  0  0  0  0  0  0  0  0
  1 25  1  0  0  0  0
  1 27  1  0  0  0  0
  2 26  1  0  0  0  0
  2 28  1  0  0  0  0
  3 27  1  0  0  0  0
  3 31  1  0  0  0  0
  4 28  1  0  0  0  0
  4 32  1  0  0  0  0
  5 19  1  0  0  0  0
  5 57  1  0  0  0  0
  6 20  1  0  0  0  0
  6 58  1  0  0  0  0
  7 21  1  0  0  0  0
  7 59  1  0  0  0  0
  8 22  1  0  0  0  0
  8 60  1  0  0  0  0
  9 23  1  0  0  0  0
  9 61  1  0  0  0  0
 10 24  1  0  0  0  0
 10 62  1  0  0  0  0
 11 29  1  0  0  0  0
 11 66  1  0  0  0  0
 12 30  1  0  0  0  0
 12 67  1  0  0  0  0
 13 29  2  0  0  0  0
 14 30  2  0  0  0  0
 15 37  1  0  0  0  0
 15 42  1  0  0  0  0
 16 34  1  0  0  0  0
 16 46  1  0  0  0  0
 17 40  1  0  0  0  0
 17 71  1  0  0  0  0
 18 44  2  0  0  0  0
 19 21  1  0  0  0  0
 19 22  1  0  0  0  0
 19 47  1  0  0  0  0
 20 23  1  0  0  0  0
 20 24  1  0  0  0  0
 20 48  1  0  0  0  0
 21 25  1  0  0  0  0
 21 49  1  0  0  0  0
 22 27  1  0  0  0  0
 22 50  1  0  0  0  0
 23 26  1  0  0  0  0
 23 51  1  0  0  0  0
 24 28  1  0  0  0  0
 24 52  1  0  0  0  0
 25 29  1  0  0  0  0
 25 53  1  0  0  0  0
 26 30  1  0  0  0  0
 26 54  1  0  0  0  0
 27 55  1  0  0  0  0
 28 56  1  0  0  0  0
 31 33  1  0  0  0  0
 31 35  2  0  0  0  0
 32 34  2  0  0  0  0
 32 36  1  0  0  0  0
 33 37  2  0  0  0  0
 33 63  1  0  0  0  0
 34 41  1  0  0  0  0
 35 40  1  0  0  0  0
 35 64  1  0  0  0  0
 36 43  2  0  0  0  0
 36 65  1  0  0  0  0
 37 38  1  0  0  0  0
 38 40  2  0  0  0  0
 38 44  1  0  0  0  0
 39 41  2  0  0  0  0
 39 42  1  0  0  0  0
 39 43  1  0  0  0  0
 41 68  1  0  0  0  0
 42 45  2  0  0  0  0
 43 69  1  0  0  0  0
 44 45  1  0  0  0  0
 45 70  1  0  0  0  0
 46 72  1  0  0  0  0
 46 73  1  0  0  0  0
 46 74  1  0  0  0  0
M  END
>  <PUBCHEM_COMPOUND_CID>
74977716

>  <PUBCHEM_COMPOUND_CANONICALIZED>
1

>  <PUBCHEM_CACTVS_COMPLEXITY>
1160

>  <PUBCHEM_CACTVS_HBOND_ACCEPTOR>
18

>  <PUBCHEM_CACTVS_HBOND_DONOR>
9

>  <PUBCHEM_CACTVS_ROTATABLE_BOND>
8

>  <PUBCHEM_CACTVS_SUBSKEYS>
AAADceB4PgAAAAAAAAAAAAAAAAAAAAAAAAA0aIECAAAAAACBQAAAGgAACAAADBSwmAMyDoAABgCIAqDSCAICCAAkIAAIiAFGiMgdNzaGNR6ieWKl4BUPuQfK7LzOIAABCAAIQABAAAIQABCAAAAAAAAAAA==

>  <PUBCHEM_IUPAC_OPENEYE_NAME>
6-[4-[7-(6-carboxy-3,4,5-trihydroxy-tetrahydropyran-2-yl)oxy-5-hydroxy-4-oxo-chromen-2-yl]-2-methoxy-phenoxy]-3,4,5-trihydroxy-tetrahydropyran-2-carboxylic acid

>  <PUBCHEM_IUPAC_CAS_NAME>
6-[4-[7-[(6-carboxy-3,4,5-trihydroxy-2-oxanyl)oxy]-5-hydroxy-4-oxo-1-benzopyran-2-yl]-2-methoxyphenoxy]-3,4,5-trihydroxy-2-oxanecarboxylic acid

>  <PUBCHEM_IUPAC_NAME>
6-[4-[7-(6-carboxy-3,4,5-trihydroxyoxan-2-yl)oxy-5-hydroxy-4-oxochromen-2-yl]-2-methoxyphenoxy]-3,4,5-trihydroxyoxane-2-carboxylic acid

>  <PUBCHEM_IUPAC_SYSTEMATIC_NAME>
6-[4-[7-[6-carboxy-3,4,5-tris(oxidanyl)oxan-2-yl]oxy-5-oxidanyl-4-oxidanylidene-chromen-2-yl]-2-methoxy-phenoxy]-3,4,5-tris(oxidanyl)oxane-2-carboxylic acid

>  <PUBCHEM_IUPAC_TRADITIONAL_NAME>
6-[4-[7-(6-carboxy-3,4,5-trihydroxy-tetrahydropyran-2-yl)oxy-5-hydroxy-4-keto-chromen-2-yl]-2-methoxy-phenoxy]-3,4,5-trihydroxy-tetrahydropyran-2-carboxylic acid

>  <PUBCHEM_IUPAC_INCHI>
InChI=1S/C28H28O18/c1-41-14-4-8(2-3-12(14)44-28-22(36)18(32)20(34)24(46-28)26(39)40)13-7-11(30)16-10(29)5-9(6-15(16)43-13)42-27-21(35)17(31)19(33)23(45-27)25(37)38/h2-7,17-24,27-29,31-36H,1H3,(H,37,38)(H,39,40)

>  <PUBCHEM_IUPAC_INCHIKEY>
XGVYZZQNJZYTNO-UHFFFAOYSA-N

>  <PUBCHEM_XLOGP3_AA>
-0.5

>  <PUBCHEM_EXACT_MASS>
652.128

>  <PUBCHEM_MOLECULAR_FORMULA>
C28H28O18

>  <PUBCHEM_MOLECULAR_WEIGHT>
652.514

>  <PUBCHEM_OPENEYE_CAN_SMILES>
COC1=C(C=CC(=C1)C2=CC(=O)C3=C(C=C(C=C3O2)OC4C(C(C(C(O4)C(=O)O)O)O)O)O)OC5C(C(C(C(O5)C(=O)O)O)O)O

>  <PUBCHEM_OPENEYE_ISO_SMILES>
COC1=C(C=CC(=C1)C2=CC(=O)C3=C(C=C(C=C3O2)OC4C(C(C(C(O4)C(=O)O)O)O)O)O)OC5C(C(C(C(O5)C(=O)O)O)O)O

>  <PUBCHEM_CACTVS_TPSA>
289

>  <PUBCHEM_MONOISOTOPIC_WEIGHT>
652.128

>  <PUBCHEM_TOTAL_CHARGE>
0

>  <PUBCHEM_HEAVY_ATOM_COUNT>
46

>  <PUBCHEM_ATOM_DEF_STEREO_COUNT>
0

>  <PUBCHEM_ATOM_UDEF_STEREO_COUNT>
10

>  <PUBCHEM_BOND_DEF_STEREO_COUNT>
0

>  <PUBCHEM_BOND_UDEF_STEREO_COUNT>
0

>  <PUBCHEM_ISOTOPIC_ATOM_COUNT>
0

>  <PUBCHEM_COMPONENT_COUNT>
1

>  <PUBCHEM_CACTVS_TAUTO_COUNT>
5

>  <PUBCHEM_COORDINATE_TYPE>
1
5
255

>  <PUBCHEM_BONDANNOTATIONS>
24  10  3
15  37  8
15  42  8
25  29  3
26  30  3
27  3  3
31  33  8
31  35  8
32  34  8
32  36  8
33  37  8
34  41  8
35  40  8
36  43  8
37  38  8
38  40  8
38  44  8
39  41  8
39  43  8
28  4  3
42  45  8
44  45  8
19  5  3
20  6  3
21  7  3
22  8  3
23  9  3

$$$$
