74978018
 OpenBabel06101807152D

 93 98  0  0  1  0  0  0  0  0999 V2000
    6.8671   -2.7736    0.0000 O   0  0  0  0  0  0  0  0  0  0  0  0
    7.7331   -0.2736    0.0000 O   0  0  0  0  0  0  0  0  0  0  0  0
    5.1350   -2.7736    0.0000 O   0  0  0  0  0  0  0  0  0  0  0  0
    8.5991   -1.7736    0.0000 O   0  0  0  0  0  0  0  0  0  0  0  0
    5.1350   -1.7736    0.0000 O   0  0  0  0  0  0  0  0  0  0  0  0
    5.1350    0.2264    0.0000 O   0  0  0  0  0  0  0  0  0  0  0  0
    6.8671   -4.7736    0.0000 O   0  0  0  0  0  0  0  0  0  0  0  0
    5.1350   -5.7736    0.0000 O   0  0  0  0  0  0  0  0  0  0  0  0
    3.4030   -4.7736    0.0000 O   0  0  0  0  0  0  0  0  0  0  0  0
   12.1229    3.2749    0.0000 O   0  0  0  0  0  0  0  0  0  0  0  0
    6.0010    1.7264    0.0000 O   0  0  0  0  0  0  0  0  0  0  0  0
    2.5369   -3.2736    0.0000 O   0  0  0  0  0  0  0  0  0  0  0  0
   12.9832    1.7715    0.0000 O   0  0  0  0  0  0  0  0  0  0  0  0
   14.7268    4.7648    0.0000 O   0  0  0  0  0  0  0  0  0  0  0  0
   12.9986    5.7715    0.0000 O   0  0  0  0  0  0  0  0  0  0  0  0
   14.7191    2.7648    0.0000 O   0  0  0  0  0  0  0  0  0  0  0  0
   11.1972   -1.2736    0.0000 O   0  0  0  0  0  0  0  0  0  0  0  0
    8.5991    0.2264    0.0000 O   0  0  0  0  0  0  0  0  0  0  0  0
    9.4434    1.7579    0.0000 O   0  0  0  0  0  0  0  0  0  0  0  0
   10.3312   -5.7736    0.0000 O   0  0  0  0  0  0  0  0  0  0  0  0
    6.8671   -1.7736    0.0000 C   0  0  3  0  0  0  0  0  0  0  0  0
    6.0010   -1.2736    0.0000 C   0  0  3  0  0  0  0  0  0  0  0  0
    6.0010   -0.2736    0.0000 C   0  0  3  0  0  0  0  0  0  0  0  0
    6.0010   -3.2736    0.0000 C   0  0  3  0  0  0  0  0  0  0  0  0
    6.0010   -4.2736    0.0000 C   0  0  3  0  0  0  0  0  0  0  0  0
    7.7331   -1.2736    0.0000 C   0  0  3  0  0  0  0  0  0  0  0  0
    6.8671    0.2264    0.0000 C   0  0  3  0  0  0  0  0  0  0  0  0
    5.1350   -4.7736    0.0000 C   0  0  3  0  0  0  0  0  0  0  0  0
    4.2690   -4.2736    0.0000 C   0  0  3  0  0  0  0  0  0  0  0  0
    4.2690   -3.2736    0.0000 C   0  0  3  0  0  0  0  0  0  0  0  0
    6.8671    1.2264    0.0000 C   0  0  0  0  0  0  0  0  0  0  0  0
    3.4030   -2.7736    0.0000 C   0  0  0  0  0  0  0  0  0  0  0  0
   13.8588    4.2682    0.0000 C   0  0  3  0  0  0  0  0  0  0  0  0
   12.9947    4.7715    0.0000 C   0  0  3  0  0  0  0  0  0  0  0  0
   13.8550    3.2682    0.0000 C   0  0  3  0  0  0  0  0  0  0  0  0
   12.1268    4.2748    0.0000 C   0  0  3  0  0  0  0  0  0  0  0  0
   12.9870    2.7715    0.0000 C   0  0  3  0  0  0  0  0  0  0  0  0
    9.4651   -1.2736    0.0000 C   0  0  0  0  0  0  0  0  0  0  0  0
   11.2627    4.7782    0.0000 C   0  0  0  0  0  0  0  0  0  0  0  0
   10.3312   -1.7736    0.0000 C   0  0  0  0  0  0  0  0  0  0  0  0
    9.4651   -0.2736    0.0000 C   0  0  0  0  0  0  0  0  0  0  0  0
   10.3312    0.2264    0.0000 C   0  0  0  0  0  0  0  0  0  0  0  0
   11.1972   -0.2736    0.0000 C   0  0  0  0  0  0  0  0  0  0  0  0
   12.1152    1.2749    0.0000 C   0  0  0  0  0  0  0  0  0  0  0  0
   12.1072    0.2333    0.0000 C   0  0  0  0  0  0  0  0  0  0  0  0
   10.3151    1.2679    0.0000 C   0  0  0  0  0  0  0  0  0  0  0  0
   10.3312   -2.7736    0.0000 C   0  0  0  0  0  0  0  0  0  0  0  0
   11.2131    1.7957    0.0000 C   0  0  0  0  0  0  0  0  0  0  0  0
   11.1972   -3.2736    0.0000 C   0  0  0  0  0  0  0  0  0  0  0  0
    9.4651   -3.2736    0.0000 C   0  0  0  0  0  0  0  0  0  0  0  0
   11.1972   -4.2736    0.0000 C   0  0  0  0  0  0  0  0  0  0  0  0
    9.4651   -4.2736    0.0000 C   0  0  0  0  0  0  0  0  0  0  0  0
   10.3312   -4.7736    0.0000 C   0  0  0  0  0  0  0  0  0  0  0  0
    7.4040   -2.0836    0.0000 H   0  0  0  0  0  0  0  0  0  0  0  0
    6.0010   -1.8936    0.0000 H   0  0  0  0  0  0  0  0  0  0  0  0
    6.0010    0.3464    0.0000 H   0  0  0  0  0  0  0  0  0  0  0  0
    6.0010   -2.6536    0.0000 H   0  0  0  0  0  0  0  0  0  0  0  0
    6.0010   -4.8936    0.0000 H   0  0  0  0  0  0  0  0  0  0  0  0
    8.2700   -0.9636    0.0000 H   0  0  0  0  0  0  0  0  0  0  0  0
    7.4040    0.5364    0.0000 H   0  0  0  0  0  0  0  0  0  0  0  0
    4.5981   -5.0836    0.0000 H   0  0  0  0  0  0  0  0  0  0  0  0
    3.7320   -3.9636    0.0000 H   0  0  0  0  0  0  0  0  0  0  0  0
    4.2690   -2.6536    0.0000 H   0  0  0  0  0  0  0  0  0  0  0  0
    7.4776    1.1188    0.0000 H   0  0  0  0  0  0  0  0  0  0  0  0
    7.0791    1.8090    0.0000 H   0  0  0  0  0  0  0  0  0  0  0  0
    3.8015   -2.2986    0.0000 H   0  0  0  0  0  0  0  0  0  0  0  0
    3.0044   -2.2986    0.0000 H   0  0  0  0  0  0  0  0  0  0  0  0
    4.5981   -1.4636    0.0000 H   0  0  0  0  0  0  0  0  0  0  0  0
    5.1350    0.8464    0.0000 H   0  0  0  0  0  0  0  0  0  0  0  0
   13.8612    4.8882    0.0000 H   0  0  0  0  0  0  0  0  0  0  0  0
   12.4590    5.0836    0.0000 H   0  0  0  0  0  0  0  0  0  0  0  0
    7.4040   -4.4636    0.0000 H   0  0  0  0  0  0  0  0  0  0  0  0
   14.3931    3.5761    0.0000 H   0  0  0  0  0  0  0  0  0  0  0  0
   11.5887    3.9669    0.0000 H   0  0  0  0  0  0  0  0  0  0  0  0
    5.6720   -6.0836    0.0000 H   0  0  0  0  0  0  0  0  0  0  0  0
    3.4030   -5.3936    0.0000 H   0  0  0  0  0  0  0  0  0  0  0  0
   13.5228    2.4595    0.0000 H   0  0  0  0  0  0  0  0  0  0  0  0
    6.0010    2.3464    0.0000 H   0  0  0  0  0  0  0  0  0  0  0  0
   11.5748    5.3139    0.0000 H   0  0  0  0  0  0  0  0  0  0  0  0
   10.7270    5.0902    0.0000 H   0  0  0  0  0  0  0  0  0  0  0  0
   10.9506    4.2424    0.0000 H   0  0  0  0  0  0  0  0  0  0  0  0
    2.0000   -2.9636    0.0000 H   0  0  0  0  0  0  0  0  0  0  0  0
   14.7292    5.3848    0.0000 H   0  0  0  0  0  0  0  0  0  0  0  0
   12.4628    6.0836    0.0000 H   0  0  0  0  0  0  0  0  0  0  0  0
   15.2572    3.0728    0.0000 H   0  0  0  0  0  0  0  0  0  0  0  0
   12.6405   -0.0829    0.0000 H   0  0  0  0  0  0  0  0  0  0  0  0
   11.2108    2.4157    0.0000 H   0  0  0  0  0  0  0  0  0  0  0  0
   11.7341   -2.9636    0.0000 H   0  0  0  0  0  0  0  0  0  0  0  0
    8.9282   -2.9636    0.0000 H   0  0  0  0  0  0  0  0  0  0  0  0
    9.4362    2.3778    0.0000 H   0  0  0  0  0  0  0  0  0  0  0  0
   11.7341   -4.5836    0.0000 H   0  0  0  0  0  0  0  0  0  0  0  0
    8.9282   -4.5836    0.0000 H   0  0  0  0  0  0  0  0  0  0  0  0
   10.8681   -6.0836    0.0000 H   0  0  0  0  0  0  0  0  0  0  0  0
  1 21  1  0  0  0  0
  1 24  1  0  0  0  0
  2 26  1  0  0  0  0
  2 27  1  0  0  0  0
  3 24  1  0  0  0  0
  3 30  1  0  0  0  0
  4 26  1  0  0  0  0
  4 38  1  0  0  0  0
  5 22  1  0  0  0  0
  5 68  1  0  0  0  0
  6 23  1  0  0  0  0
  6 69  1  0  0  0  0
  7 25  1  0  0  0  0
  7 72  1  0  0  0  0
  8 28  1  0  0  0  0
  8 75  1  0  0  0  0
  9 29  1  0  0  0  0
  9 76  1  0  0  0  0
 10 36  1  0  0  0  0
 10 37  1  0  0  0  0
 11 31  1  0  0  0  0
 11 78  1  0  0  0  0
 12 32  1  0  0  0  0
 12 82  1  0  0  0  0
 13 37  1  0  0  0  0
 13 44  1  0  0  0  0
 14 33  1  0  0  0  0
 14 83  1  0  0  0  0
 15 34  1  0  0  0  0
 15 84  1  0  0  0  0
 16 35  1  0  0  0  0
 16 85  1  0  0  0  0
 17 40  1  0  0  0  0
 17 43  1  0  0  0  0
 18 41  2  0  0  0  0
 19 46  1  0  0  0  0
 19 90  1  0  0  0  0
 20 53  1  0  0  0  0
 20 93  1  0  0  0  0
 21 22  1  0  0  0  0
 21 26  1  0  0  0  0
 21 54  1  0  0  0  0
 22 23  1  0  0  0  0
 22 55  1  0  0  0  0
 23 27  1  0  0  0  0
 23 56  1  0  0  0  0
 24 25  1  0  0  0  0
 24 57  1  0  0  0  0
 25 28  1  0  0  0  0
 25 58  1  0  0  0  0
 26 59  1  0  0  0  0
 27 31  1  0  0  0  0
 27 60  1  0  0  0  0
 28 29  1  0  0  0  0
 28 61  1  0  0  0  0
 29 30  1  0  0  0  0
 29 62  1  0  0  0  0
 30 32  1  0  0  0  0
 30 63  1  0  0  0  0
 31 64  1  0  0  0  0
 31 65  1  0  0  0  0
 32 66  1  0  0  0  0
 32 67  1  0  0  0  0
 33 34  1  0  0  0  0
 33 35  1  0  0  0  0
 33 70  1  0  0  0  0
 34 36  1  0  0  0  0
 34 71  1  0  0  0  0
 35 37  1  0  0  0  0
 35 73  1  0  0  0  0
 36 39  1  0  0  0  0
 36 74  1  0  0  0  0
 37 77  1  0  0  0  0
 38 40  2  0  0  0  0
 38 41  1  0  0  0  0
 39 79  1  0  0  0  0
 39 80  1  0  0  0  0
 39 81  1  0  0  0  0
 40 47  1  0  0  0  0
 41 42  1  0  0  0  0
 42 43  1  0  0  0  0
 42 46  2  0  0  0  0
 43 45  2  0  0  0  0
 44 45  1  0  0  0  0
 44 48  2  0  0  0  0
 45 86  1  0  0  0  0
 46 48  1  0  0  0  0
 47 49  2  0  0  0  0
 47 50  1  0  0  0  0
 48 87  1  0  0  0  0
 49 51  1  0  0  0  0
 49 88  1  0  0  0  0
 50 52  2  0  0  0  0
 50 89  1  0  0  0  0
 51 53  2  0  0  0  0
 51 91  1  0  0  0  0
 52 53  1  0  0  0  0
 52 92  1  0  0  0  0
M  END
>  <PUBCHEM_COMPOUND_CID>
74978018

>  <PUBCHEM_COMPOUND_CANONICALIZED>
1

>  <PUBCHEM_CACTVS_COMPLEXITY>
1280

>  <PUBCHEM_CACTVS_HBOND_ACCEPTOR>
20

>  <PUBCHEM_CACTVS_HBOND_DONOR>
12

>  <PUBCHEM_CACTVS_ROTATABLE_BOND>
9

>  <PUBCHEM_CACTVS_SUBSKEYS>
AAADcfB8PgAAAAAAAAAAAAAAAAAAAAAAAAA0aJECAAAAAACBQAAAGgAACAAADBSwmAMyDoAABgCIAqBSAAICCAAkIAAIiAFGCMgdNzaGNR6ieWCl4BUPuQfI7KzOIAAACAAIAABAAAAQABAAAAAAAAAAAA==

>  <PUBCHEM_IUPAC_OPENEYE_NAME>
3-[4,5-dihydroxy-6-(hydroxymethyl)-3-[3,4,5-trihydroxy-6-(hydroxymethyl)tetrahydropyran-2-yl]oxy-tetrahydropyran-2-yl]oxy-5-hydroxy-2-(4-hydroxyphenyl)-7-(3,4,5-trihydroxy-6-methyl-tetrahydropyran-2-yl)oxy-chromen-4-one

>  <PUBCHEM_IUPAC_CAS_NAME>
3-[[4,5-dihydroxy-6-(hydroxymethyl)-3-[[3,4,5-trihydroxy-6-(hydroxymethyl)-2-oxanyl]oxy]-2-oxanyl]oxy]-5-hydroxy-2-(4-hydroxyphenyl)-7-[(3,4,5-trihydroxy-6-methyl-2-oxanyl)oxy]-1-benzopyran-4-one

>  <PUBCHEM_IUPAC_NAME>
3-[4,5-dihydroxy-6-(hydroxymethyl)-3-[3,4,5-trihydroxy-6-(hydroxymethyl)oxan-2-yl]oxyoxan-2-yl]oxy-5-hydroxy-2-(4-hydroxyphenyl)-7-(3,4,5-trihydroxy-6-methyloxan-2-yl)oxychromen-4-one

>  <PUBCHEM_IUPAC_SYSTEMATIC_NAME>
3-[6-(hydroxymethyl)-3-[6-(hydroxymethyl)-3,4,5-tris(oxidanyl)oxan-2-yl]oxy-4,5-bis(oxidanyl)oxan-2-yl]oxy-2-(4-hydroxyphenyl)-7-[6-methyl-3,4,5-tris(oxidanyl)oxan-2-yl]oxy-5-oxidanyl-chromen-4-one

>  <PUBCHEM_IUPAC_TRADITIONAL_NAME>
3-[4,5-dihydroxy-6-methylol-3-(3,4,5-trihydroxy-6-methylol-tetrahydropyran-2-yl)oxy-tetrahydropyran-2-yl]oxy-5-hydroxy-2-(4-hydroxyphenyl)-7-(3,4,5-trihydroxy-6-methyl-tetrahydropyran-2-yl)oxy-chromone

>  <PUBCHEM_IUPAC_INCHI>
InChI=1S/C33H40O20/c1-10-19(38)23(42)26(45)31(47-10)48-13-6-14(37)18-15(7-13)49-28(11-2-4-12(36)5-3-11)29(22(18)41)52-33-30(25(44)21(40)17(9-35)51-33)53-32-27(46)24(43)20(39)16(8-34)50-32/h2-7,10,16-17,19-21,23-27,30-40,42-46H,8-9H2,1H3

>  <PUBCHEM_IUPAC_INCHIKEY>
VRYWDBDPXMHHGE-UHFFFAOYSA-N

>  <PUBCHEM_XLOGP3_AA>
-2.2

>  <PUBCHEM_EXACT_MASS>
756.211

>  <PUBCHEM_MOLECULAR_FORMULA>
C33H40O20

>  <PUBCHEM_MOLECULAR_WEIGHT>
756.663

>  <PUBCHEM_OPENEYE_CAN_SMILES>
CC1C(C(C(C(O1)OC2=CC(=C3C(=C2)OC(=C(C3=O)OC4C(C(C(C(O4)CO)O)O)OC5C(C(C(C(O5)CO)O)O)O)C6=CC=C(C=C6)O)O)O)O)O

>  <PUBCHEM_OPENEYE_ISO_SMILES>
CC1C(C(C(C(O1)OC2=CC(=C3C(=C2)OC(=C(C3=O)OC4C(C(C(C(O4)CO)O)O)OC5C(C(C(C(O5)CO)O)O)O)C6=CC=C(C=C6)O)O)O)O)O

>  <PUBCHEM_CACTVS_TPSA>
324

>  <PUBCHEM_MONOISOTOPIC_WEIGHT>
756.211

>  <PUBCHEM_TOTAL_CHARGE>
0

>  <PUBCHEM_HEAVY_ATOM_COUNT>
53

>  <PUBCHEM_ATOM_DEF_STEREO_COUNT>
0

>  <PUBCHEM_ATOM_UDEF_STEREO_COUNT>
15

>  <PUBCHEM_BOND_DEF_STEREO_COUNT>
0

>  <PUBCHEM_BOND_UDEF_STEREO_COUNT>
0

>  <PUBCHEM_ISOTOPIC_ATOM_COUNT>
0

>  <PUBCHEM_COMPONENT_COUNT>
1

>  <PUBCHEM_CACTVS_TAUTO_COUNT>
24

>  <PUBCHEM_COORDINATE_TYPE>
1
5
255

>  <PUBCHEM_BONDANNOTATIONS>
21  1  3
24  1  3
37  13  3
33  14  3
34  15  3
35  16  3
17  40  8
17  43  8
27  31  3
30  32  3
36  39  3
38  40  8
38  41  8
26  4  3
41  42  8
42  43  8
42  46  8
43  45  8
44  45  8
44  48  8
46  48  8
47  49  8
47  50  8
49  51  8
22  5  3
50  52  8
51  53  8
52  53  8
23  6  3
25  7  3
28  8  3
29  9  3

$$$$
