74977047
 OpenBabel06101807152D

 96101  0  0  1  0  0  0  0  0999 V2000
    6.8671   -2.7787    0.0000 O   0  0  0  0  0  0  0  0  0  0  0  0
    7.7331   -0.2787    0.0000 O   0  0  0  0  0  0  0  0  0  0  0  0
    5.1350   -2.7787    0.0000 O   0  0  0  0  0  0  0  0  0  0  0  0
    8.5991   -1.7787    0.0000 O   0  0  0  0  0  0  0  0  0  0  0  0
    5.1350   -1.7787    0.0000 O   0  0  0  0  0  0  0  0  0  0  0  0
    5.1350    0.2213    0.0000 O   0  0  0  0  0  0  0  0  0  0  0  0
    6.8671   -4.7787    0.0000 O   0  0  0  0  0  0  0  0  0  0  0  0
    5.1350   -5.7787    0.0000 O   0  0  0  0  0  0  0  0  0  0  0  0
    3.4030   -4.7787    0.0000 O   0  0  0  0  0  0  0  0  0  0  0  0
   10.2920    3.2627    0.0000 O   0  0  0  0  0  0  0  0  0  0  0  0
    6.0010    1.7213    0.0000 O   0  0  0  0  0  0  0  0  0  0  0  0
    9.4434    1.7528    0.0000 O   0  0  0  0  0  0  0  0  0  0  0  0
    2.5369   -3.2787    0.0000 O   0  0  0  0  0  0  0  0  0  0  0  0
    7.6767    4.7325    0.0000 O   0  0  0  0  0  0  0  0  0  0  0  0
    9.3971    5.7525    0.0000 O   0  0  0  0  0  0  0  0  0  0  0  0
    7.6999    2.7327    0.0000 O   0  0  0  0  0  0  0  0  0  0  0  0
   11.1972   -1.2787    0.0000 O   0  3  0  0  0  0  0  0  0  0  0  0
   11.1290    5.7725    0.0000 O   0  0  0  0  0  0  0  0  0  0  0  0
   12.9832    1.7664    0.0000 O   0  0  0  0  0  0  0  0  0  0  0  0
    8.5991   -4.7787    0.0000 O   0  0  0  0  0  0  0  0  0  0  0  0
   12.0632   -4.7787    0.0000 O   0  0  0  0  0  0  0  0  0  0  0  0
   10.3312   -5.7787    0.0000 O   0  0  0  0  0  0  0  0  0  0  0  0
    6.8671   -1.7787    0.0000 C   0  0  3  0  0  0  0  0  0  0  0  0
    6.0010   -1.2787    0.0000 C   0  0  3  0  0  0  0  0  0  0  0  0
    6.0010   -0.2787    0.0000 C   0  0  3  0  0  0  0  0  0  0  0  0
    6.0010   -3.2787    0.0000 C   0  0  3  0  0  0  0  0  0  0  0  0
    7.7331   -1.2787    0.0000 C   0  0  3  0  0  0  0  0  0  0  0  0
    6.0010   -4.2787    0.0000 C   0  0  3  0  0  0  0  0  0  0  0  0
    6.8671    0.2213    0.0000 C   0  0  3  0  0  0  0  0  0  0  0  0
    5.1350   -4.7787    0.0000 C   0  0  3  0  0  0  0  0  0  0  0  0
    4.2690   -4.2787    0.0000 C   0  0  3  0  0  0  0  0  0  0  0  0
    4.2690   -3.2787    0.0000 C   0  0  3  0  0  0  0  0  0  0  0  0
    6.8671    1.2213    0.0000 C   0  0  0  0  0  0  0  0  0  0  0  0
    3.4030   -2.7787    0.0000 C   0  0  0  0  0  0  0  0  0  0  0  0
    8.5485    4.2426    0.0000 C   0  0  3  0  0  0  0  0  0  0  0  0
    9.4087    4.7526    0.0000 C   0  0  3  0  0  0  0  0  0  0  0  0
    8.5600    3.2426    0.0000 C   0  0  3  0  0  0  0  0  0  0  0  0
   10.2804    4.2626    0.0000 C   0  0  3  0  0  0  0  0  0  0  0  0
    9.4318    2.7527    0.0000 C   0  0  3  0  0  0  0  0  0  0  0  0
    9.4651   -1.2787    0.0000 C   0  0  0  0  0  0  0  0  0  0  0  0
   11.1406    4.7726    0.0000 C   0  0  0  0  0  0  0  0  0  0  0  0
    9.4651   -0.2787    0.0000 C   0  0  0  0  0  0  0  0  0  0  0  0
   10.3312    0.2213    0.0000 C   0  0  0  0  0  0  0  0  0  0  0  0
   10.3312   -1.7787    0.0000 C   0  0  0  0  0  0  0  0  0  0  0  0
   10.3151    1.2628    0.0000 C   0  0  0  0  0  0  0  0  0  0  0  0
   11.1972   -0.2787    0.0000 C   0  0  0  0  0  0  0  0  0  0  0  0
   10.3312   -2.7787    0.0000 C   0  0  0  0  0  0  0  0  0  0  0  0
   11.2131    1.7906    0.0000 C   0  0  0  0  0  0  0  0  0  0  0  0
   12.1072    0.2281    0.0000 C   0  0  0  0  0  0  0  0  0  0  0  0
   12.1152    1.2697    0.0000 C   0  0  0  0  0  0  0  0  0  0  0  0
   11.1972   -3.2787    0.0000 C   0  0  0  0  0  0  0  0  0  0  0  0
    9.4651   -3.2787    0.0000 C   0  0  0  0  0  0  0  0  0  0  0  0
    9.4651   -4.2787    0.0000 C   0  0  0  0  0  0  0  0  0  0  0  0
   11.1972   -4.2787    0.0000 C   0  0  0  0  0  0  0  0  0  0  0  0
   10.3312   -4.7787    0.0000 C   0  0  0  0  0  0  0  0  0  0  0  0
    7.4040   -2.0887    0.0000 H   0  0  0  0  0  0  0  0  0  0  0  0
    6.0010   -1.8987    0.0000 H   0  0  0  0  0  0  0  0  0  0  0  0
    6.0010    0.3413    0.0000 H   0  0  0  0  0  0  0  0  0  0  0  0
    6.0010   -2.6587    0.0000 H   0  0  0  0  0  0  0  0  0  0  0  0
    8.2700   -0.9687    0.0000 H   0  0  0  0  0  0  0  0  0  0  0  0
    6.0010   -4.8987    0.0000 H   0  0  0  0  0  0  0  0  0  0  0  0
    7.4040    0.5313    0.0000 H   0  0  0  0  0  0  0  0  0  0  0  0
    4.5981   -5.0887    0.0000 H   0  0  0  0  0  0  0  0  0  0  0  0
    3.7320   -3.9687    0.0000 H   0  0  0  0  0  0  0  0  0  0  0  0
    4.2690   -2.6587    0.0000 H   0  0  0  0  0  0  0  0  0  0  0  0
    7.4776    1.1136    0.0000 H   0  0  0  0  0  0  0  0  0  0  0  0
    7.0791    1.8039    0.0000 H   0  0  0  0  0  0  0  0  0  0  0  0
    3.8015   -2.3038    0.0000 H   0  0  0  0  0  0  0  0  0  0  0  0
    3.0044   -2.3038    0.0000 H   0  0  0  0  0  0  0  0  0  0  0  0
    8.0152    3.9264    0.0000 H   0  0  0  0  0  0  0  0  0  0  0  0
    8.8682    5.0563    0.0000 H   0  0  0  0  0  0  0  0  0  0  0  0
    4.5981   -1.4687    0.0000 H   0  0  0  0  0  0  0  0  0  0  0  0
    9.0934    3.5588    0.0000 H   0  0  0  0  0  0  0  0  0  0  0  0
   10.8209    3.9588    0.0000 H   0  0  0  0  0  0  0  0  0  0  0  0
    5.1350    0.8413    0.0000 H   0  0  0  0  0  0  0  0  0  0  0  0
    8.8985    2.4365    0.0000 H   0  0  0  0  0  0  0  0  0  0  0  0
    6.8671   -5.3987    0.0000 H   0  0  0  0  0  0  0  0  0  0  0  0
    4.5981   -6.0887    0.0000 H   0  0  0  0  0  0  0  0  0  0  0  0
    3.4030   -5.3987    0.0000 H   0  0  0  0  0  0  0  0  0  0  0  0
   11.3594    4.1925    0.0000 H   0  0  0  0  0  0  0  0  0  0  0  0
   11.7499    4.8873    0.0000 H   0  0  0  0  0  0  0  0  0  0  0  0
    6.0010    2.3413    0.0000 H   0  0  0  0  0  0  0  0  0  0  0  0
    8.9282    0.0313    0.0000 H   0  0  0  0  0  0  0  0  0  0  0  0
    2.0000   -2.9687    0.0000 H   0  0  0  0  0  0  0  0  0  0  0  0
    7.6696    5.3525    0.0000 H   0  0  0  0  0  0  0  0  0  0  0  0
    8.8566    6.0563    0.0000 H   0  0  0  0  0  0  0  0  0  0  0  0
    7.1594    3.0364    0.0000 H   0  0  0  0  0  0  0  0  0  0  0  0
   11.2108    2.4106    0.0000 H   0  0  0  0  0  0  0  0  0  0  0  0
   12.6405   -0.0880    0.0000 H   0  0  0  0  0  0  0  0  0  0  0  0
   11.6624    6.0887    0.0000 H   0  0  0  0  0  0  0  0  0  0  0  0
   11.7341   -2.9687    0.0000 H   0  0  0  0  0  0  0  0  0  0  0  0
    8.9282   -2.9687    0.0000 H   0  0  0  0  0  0  0  0  0  0  0  0
   13.5189    1.4543    0.0000 H   0  0  0  0  0  0  0  0  0  0  0  0
    8.5991   -5.3987    0.0000 H   0  0  0  0  0  0  0  0  0  0  0  0
   12.6002   -4.4687    0.0000 H   0  0  0  0  0  0  0  0  0  0  0  0
   10.8681   -6.0887    0.0000 H   0  0  0  0  0  0  0  0  0  0  0  0
  1 23  1  0  0  0  0
  1 26  1  0  0  0  0
  2 27  1  0  0  0  0
  2 29  1  0  0  0  0
  3 26  1  0  0  0  0
  3 32  1  0  0  0  0
  4 27  1  0  0  0  0
  4 40  1  0  0  0  0
  5 24  1  0  0  0  0
  5 72  1  0  0  0  0
  6 25  1  0  0  0  0
  6 75  1  0  0  0  0
  7 28  1  0  0  0  0
  7 77  1  0  0  0  0
  8 30  1  0  0  0  0
  8 78  1  0  0  0  0
  9 31  1  0  0  0  0
  9 79  1  0  0  0  0
 10 38  1  0  0  0  0
 10 39  1  0  0  0  0
 11 33  1  0  0  0  0
 11 82  1  0  0  0  0
 12 39  1  0  0  0  0
 12 45  1  0  0  0  0
 13 34  1  0  0  0  0
 13 84  1  0  0  0  0
 14 35  1  0  0  0  0
 14 85  1  0  0  0  0
 15 36  1  0  0  0  0
 15 86  1  0  0  0  0
 16 37  1  0  0  0  0
 16 87  1  0  0  0  0
 17 44  1  0  0  0  0
 17 46  2  0  0  0  0
 18 41  1  0  0  0  0
 18 90  1  0  0  0  0
 19 50  1  0  0  0  0
 19 93  1  0  0  0  0
 20 53  1  0  0  0  0
 20 94  1  0  0  0  0
 21 54  1  0  0  0  0
 21 95  1  0  0  0  0
 22 55  1  0  0  0  0
 22 96  1  0  0  0  0
 23 24  1  0  0  0  0
 23 27  1  0  0  0  0
 23 56  1  0  0  0  0
 24 25  1  0  0  0  0
 24 57  1  0  0  0  0
 25 29  1  0  0  0  0
 25 58  1  0  0  0  0
 26 28  1  0  0  0  0
 26 59  1  0  0  0  0
 27 60  1  0  0  0  0
 28 30  1  0  0  0  0
 28 61  1  0  0  0  0
 29 33  1  0  0  0  0
 29 62  1  0  0  0  0
 30 31  1  0  0  0  0
 30 63  1  0  0  0  0
 31 32  1  0  0  0  0
 31 64  1  0  0  0  0
 32 34  1  0  0  0  0
 32 65  1  0  0  0  0
 33 66  1  0  0  0  0
 33 67  1  0  0  0  0
 34 68  1  0  0  0  0
 34 69  1  0  0  0  0
 35 36  1  0  0  0  0
 35 37  1  0  0  0  0
 35 70  1  0  0  0  0
 36 38  1  0  0  0  0
 36 71  1  0  0  0  0
 37 39  1  0  0  0  0
 37 73  1  0  0  0  0
 38 41  1  0  0  0  0
 38 74  1  0  0  0  0
 39 76  1  0  0  0  0
 40 42  1  0  0  0  0
 40 44  2  0  0  0  0
 41 80  1  0  0  0  0
 41 81  1  0  0  0  0
 42 43  2  0  0  0  0
 42 83  1  0  0  0  0
 43 45  1  0  0  0  0
 43 46  1  0  0  0  0
 44 47  1  0  0  0  0
 45 48  2  0  0  0  0
 46 49  1  0  0  0  0
 47 51  2  0  0  0  0
 47 52  1  0  0  0  0
 48 50  1  0  0  0  0
 48 88  1  0  0  0  0
 49 50  2  0  0  0  0
 49 89  1  0  0  0  0
 51 54  1  0  0  0  0
 51 91  1  0  0  0  0
 52 53  2  0  0  0  0
 52 92  1  0  0  0  0
 53 55  1  0  0  0  0
 54 55  2  0  0  0  0
M  CHG  1  17   1
M  END
>  <PUBCHEM_COMPOUND_CID>
74977047

>  <PUBCHEM_COMPOUND_CANONICALIZED>
1

>  <PUBCHEM_CACTVS_COMPLEXITY>
1210

>  <PUBCHEM_CACTVS_HBOND_ACCEPTOR>
21

>  <PUBCHEM_CACTVS_HBOND_DONOR>
15

>  <PUBCHEM_CACTVS_ROTATABLE_BOND>
10

>  <PUBCHEM_CACTVS_SUBSKEYS>
AAADcfB8PgAAAAAAAAAAAAAAAAAAAAAAAAA0aJEiAAAAAACR9AAAGgAACAAADBSwmAMwDsAABkCIAqBSAAICCAAkIAAAiAFGiMgdNzaGNR6ieWOl4BUPuYfK7PzOIAABCAAIQABAAAIQABCAAAAAAAAAAA==

>  <PUBCHEM_IUPAC_OPENEYE_NAME>
2-[4,5-dihydroxy-6-(hydroxymethyl)-2-[7-hydroxy-5-[3,4,5-trihydroxy-6-(hydroxymethyl)tetrahydropyran-2-yl]oxy-2-(3,4,5-trihydroxyphenyl)chromenylium-3-yl]oxy-tetrahydropyran-3-yl]oxy-6-(hydroxymethyl)tetrahydropyran-3,4,5-triol

>  <PUBCHEM_IUPAC_CAS_NAME>
2-[[4,5-dihydroxy-6-(hydroxymethyl)-2-[[7-hydroxy-5-[[3,4,5-trihydroxy-6-(hydroxymethyl)-2-oxanyl]oxy]-2-(3,4,5-trihydroxyphenyl)-1-benzopyrylium-3-yl]oxy]-3-oxanyl]oxy]-6-(hydroxymethyl)oxane-3,4,5-triol

>  <PUBCHEM_IUPAC_NAME>
2-[4,5-dihydroxy-6-(hydroxymethyl)-2-[7-hydroxy-5-[3,4,5-trihydroxy-6-(hydroxymethyl)oxan-2-yl]oxy-2-(3,4,5-trihydroxyphenyl)chromenylium-3-yl]oxyoxan-3-yl]oxy-6-(hydroxymethyl)oxane-3,4,5-triol

>  <PUBCHEM_IUPAC_SYSTEMATIC_NAME>
2-(hydroxymethyl)-6-[6-(hydroxymethyl)-2-[5-[6-(hydroxymethyl)-3,4,5-tris(oxidanyl)oxan-2-yl]oxy-7-oxidanyl-2-[3,4,5-tris(oxidanyl)phenyl]chromenylium-3-yl]oxy-4,5-bis(oxidanyl)oxan-3-yl]oxy-oxane-3,4,5-triol

>  <PUBCHEM_IUPAC_TRADITIONAL_NAME>
2-[4,5-dihydroxy-2-[[7-hydroxy-5-(3,4,5-trihydroxy-6-methylol-tetrahydropyran-2-yl)oxy-2-(3,4,5-trihydroxyphenyl)-1-benzopyrylium-3-yl]oxy]-6-methylol-tetrahydropyran-3-yl]oxy-6-methylol-tetrahydropyran-3,4,5-triol

>  <PUBCHEM_IUPAC_INCHI>
InChI=1S/C33H40O22/c34-6-17-21(41)24(44)27(47)31(52-17)50-15-4-10(37)3-14-11(15)5-16(29(49-14)9-1-12(38)20(40)13(39)2-9)51-33-30(26(46)23(43)19(8-36)54-33)55-32-28(48)25(45)22(42)18(7-35)53-32/h1-5,17-19,21-28,30-36,41-48H,6-8H2,(H3-,37,38,39,40)/p+1

>  <PUBCHEM_IUPAC_INCHIKEY>
JKIDZSBNUJBLGC-UHFFFAOYSA-O

>  <PUBCHEM_EXACT_MASS>
789.209

>  <PUBCHEM_MOLECULAR_FORMULA>
C33H41O22+

>  <PUBCHEM_MOLECULAR_WEIGHT>
789.669

>  <PUBCHEM_OPENEYE_CAN_SMILES>
C1=C(C=C(C(=C1O)O)O)C2=C(C=C3C(=CC(=CC3=[O+]2)O)OC4C(C(C(C(O4)CO)O)O)O)OC5C(C(C(C(O5)CO)O)O)OC6C(C(C(C(O6)CO)O)O)O

>  <PUBCHEM_OPENEYE_ISO_SMILES>
C1=C(C=C(C(=C1O)O)O)C2=C(C=C3C(=CC(=CC3=[O+]2)O)OC4C(C(C(C(O4)CO)O)O)O)OC5C(C(C(C(O5)CO)O)O)OC6C(C(C(C(O6)CO)O)O)O

>  <PUBCHEM_CACTVS_TPSA>
360

>  <PUBCHEM_MONOISOTOPIC_WEIGHT>
789.209

>  <PUBCHEM_TOTAL_CHARGE>
1

>  <PUBCHEM_HEAVY_ATOM_COUNT>
55

>  <PUBCHEM_ATOM_DEF_STEREO_COUNT>
0

>  <PUBCHEM_ATOM_UDEF_STEREO_COUNT>
15

>  <PUBCHEM_BOND_DEF_STEREO_COUNT>
0

>  <PUBCHEM_BOND_UDEF_STEREO_COUNT>
0

>  <PUBCHEM_ISOTOPIC_ATOM_COUNT>
0

>  <PUBCHEM_COMPONENT_COUNT>
1

>  <PUBCHEM_CACTVS_TAUTO_COUNT>
100

>  <PUBCHEM_COORDINATE_TYPE>
1
5
255

>  <PUBCHEM_BONDANNOTATIONS>
23  1  3
26  1  3
39  12  3
35  14  3
36  15  3
37  16  3
17  44  8
17  46  8
29  33  3
32  34  3
38  41  3
27  4  3
40  42  8
40  44  8
42  43  8
43  45  8
43  46  8
45  48  8
46  49  8
47  51  8
47  52  8
48  50  8
49  50  8
24  5  3
51  54  8
52  53  8
53  55  8
54  55  8
25  6  3
28  7  3
30  8  3
31  9  3

$$$$
