74978169
 OpenBabel06101807152D

 94 99  0  0  1  0  0  0  0  0999 V2000
    6.8671   -2.7736    0.0000 O   0  0  0  0  0  0  0  0  0  0  0  0
    7.7331   -0.2736    0.0000 O   0  0  0  0  0  0  0  0  0  0  0  0
    5.1350   -2.7736    0.0000 O   0  0  0  0  0  0  0  0  0  0  0  0
    8.5991   -1.7736    0.0000 O   0  0  0  0  0  0  0  0  0  0  0  0
    5.1350   -1.7736    0.0000 O   0  0  0  0  0  0  0  0  0  0  0  0
    5.1350    0.2264    0.0000 O   0  0  0  0  0  0  0  0  0  0  0  0
    6.8671   -4.7736    0.0000 O   0  0  0  0  0  0  0  0  0  0  0  0
    5.1350   -5.7736    0.0000 O   0  0  0  0  0  0  0  0  0  0  0  0
    3.4030   -4.7736    0.0000 O   0  0  0  0  0  0  0  0  0  0  0  0
    6.0010    1.7264    0.0000 O   0  0  0  0  0  0  0  0  0  0  0  0
    2.5369   -3.2736    0.0000 O   0  0  0  0  0  0  0  0  0  0  0  0
   13.8550    3.2682    0.0000 O   0  0  0  0  0  0  0  0  0  0  0  0
   12.9832    1.7715    0.0000 O   0  0  0  0  0  0  0  0  0  0  0  0
   11.2627    4.7782    0.0000 O   0  0  0  0  0  0  0  0  0  0  0  0
   11.2550    2.7782    0.0000 O   0  0  0  0  0  0  0  0  0  0  0  0
   12.9986    5.7715    0.0000 O   0  0  0  0  0  0  0  0  0  0  0  0
   11.1972   -1.2736    0.0000 O   0  0  0  0  0  0  0  0  0  0  0  0
    8.5991    0.2264    0.0000 O   0  0  0  0  0  0  0  0  0  0  0  0
   15.5909    4.2615    0.0000 O   0  0  0  0  0  0  0  0  0  0  0  0
   14.7306    5.7648    0.0000 O   0  0  0  0  0  0  0  0  0  0  0  0
    9.4434    1.7579    0.0000 O   0  0  0  0  0  0  0  0  0  0  0  0
   12.0632   -4.7736    0.0000 O   0  0  0  0  0  0  0  0  0  0  0  0
   10.3312   -5.7736    0.0000 O   0  0  0  0  0  0  0  0  0  0  0  0
    6.8671   -1.7736    0.0000 C   0  0  3  0  0  0  0  0  0  0  0  0
    6.0010   -1.2736    0.0000 C   0  0  3  0  0  0  0  0  0  0  0  0
    6.0010   -0.2736    0.0000 C   0  0  3  0  0  0  0  0  0  0  0  0
    6.0010   -3.2736    0.0000 C   0  0  3  0  0  0  0  0  0  0  0  0
    6.0010   -4.2736    0.0000 C   0  0  3  0  0  0  0  0  0  0  0  0
    7.7331   -1.2736    0.0000 C   0  0  3  0  0  0  0  0  0  0  0  0
    6.8671    0.2264    0.0000 C   0  0  3  0  0  0  0  0  0  0  0  0
    5.1350   -4.7736    0.0000 C   0  0  3  0  0  0  0  0  0  0  0  0
    4.2690   -4.2736    0.0000 C   0  0  3  0  0  0  0  0  0  0  0  0
    4.2690   -3.2736    0.0000 C   0  0  3  0  0  0  0  0  0  0  0  0
    6.8671    1.2264    0.0000 C   0  0  0  0  0  0  0  0  0  0  0  0
    3.4030   -2.7736    0.0000 C   0  0  0  0  0  0  0  0  0  0  0  0
   12.1268    4.2748    0.0000 C   0  0  3  0  0  0  0  0  0  0  0  0
   12.1229    3.2749    0.0000 C   0  0  3  0  0  0  0  0  0  0  0  0
   12.9947    4.7715    0.0000 C   0  0  3  0  0  0  0  0  0  0  0  0
    9.4651   -1.2736    0.0000 C   0  0  0  0  0  0  0  0  0  0  0  0
   12.9870    2.7715    0.0000 C   0  0  3  0  0  0  0  0  0  0  0  0
   13.8588    4.2682    0.0000 C   0  0  3  0  0  0  0  0  0  0  0  0
   10.3312   -1.7736    0.0000 C   0  0  0  0  0  0  0  0  0  0  0  0
    9.4651   -0.2736    0.0000 C   0  0  0  0  0  0  0  0  0  0  0  0
   10.3312    0.2264    0.0000 C   0  0  0  0  0  0  0  0  0  0  0  0
   11.1972   -0.2736    0.0000 C   0  0  0  0  0  0  0  0  0  0  0  0
   14.7268    4.7648    0.0000 C   0  0  0  0  0  0  0  0  0  0  0  0
   12.1152    1.2749    0.0000 C   0  0  0  0  0  0  0  0  0  0  0  0
   10.3312   -2.7736    0.0000 C   0  0  0  0  0  0  0  0  0  0  0  0
   12.1072    0.2333    0.0000 C   0  0  0  0  0  0  0  0  0  0  0  0
   10.3151    1.2679    0.0000 C   0  0  0  0  0  0  0  0  0  0  0  0
   11.2131    1.7957    0.0000 C   0  0  0  0  0  0  0  0  0  0  0  0
   11.1972   -3.2736    0.0000 C   0  0  0  0  0  0  0  0  0  0  0  0
    9.4651   -3.2736    0.0000 C   0  0  0  0  0  0  0  0  0  0  0  0
   11.1972   -4.2736    0.0000 C   0  0  0  0  0  0  0  0  0  0  0  0
    9.4651   -4.2736    0.0000 C   0  0  0  0  0  0  0  0  0  0  0  0
   10.3312   -4.7736    0.0000 C   0  0  0  0  0  0  0  0  0  0  0  0
    7.4040   -2.0836    0.0000 H   0  0  0  0  0  0  0  0  0  0  0  0
    6.0010   -1.8936    0.0000 H   0  0  0  0  0  0  0  0  0  0  0  0
    6.0010    0.3464    0.0000 H   0  0  0  0  0  0  0  0  0  0  0  0
    6.0010   -2.6536    0.0000 H   0  0  0  0  0  0  0  0  0  0  0  0
    6.0010   -4.8936    0.0000 H   0  0  0  0  0  0  0  0  0  0  0  0
    8.2700   -0.9636    0.0000 H   0  0  0  0  0  0  0  0  0  0  0  0
    7.4040    0.5364    0.0000 H   0  0  0  0  0  0  0  0  0  0  0  0
    4.5981   -5.0836    0.0000 H   0  0  0  0  0  0  0  0  0  0  0  0
    3.7320   -3.9636    0.0000 H   0  0  0  0  0  0  0  0  0  0  0  0
    4.2690   -2.6536    0.0000 H   0  0  0  0  0  0  0  0  0  0  0  0
    7.4776    1.1188    0.0000 H   0  0  0  0  0  0  0  0  0  0  0  0
    7.0791    1.8090    0.0000 H   0  0  0  0  0  0  0  0  0  0  0  0
    3.8015   -2.2986    0.0000 H   0  0  0  0  0  0  0  0  0  0  0  0
    3.0044   -2.2986    0.0000 H   0  0  0  0  0  0  0  0  0  0  0  0
    4.5981   -1.4636    0.0000 H   0  0  0  0  0  0  0  0  0  0  0  0
    5.1350    0.8464    0.0000 H   0  0  0  0  0  0  0  0  0  0  0  0
    7.4040   -4.4636    0.0000 H   0  0  0  0  0  0  0  0  0  0  0  0
    5.6720   -6.0836    0.0000 H   0  0  0  0  0  0  0  0  0  0  0  0
    3.4030   -5.3936    0.0000 H   0  0  0  0  0  0  0  0  0  0  0  0
   12.1292    4.8948    0.0000 H   0  0  0  0  0  0  0  0  0  0  0  0
   11.5872    3.5869    0.0000 H   0  0  0  0  0  0  0  0  0  0  0  0
   13.5329    5.0794    0.0000 H   0  0  0  0  0  0  0  0  0  0  0  0
   12.4489    2.4636    0.0000 H   0  0  0  0  0  0  0  0  0  0  0  0
   14.3946    3.9561    0.0000 H   0  0  0  0  0  0  0  0  0  0  0  0
    6.0010    2.3464    0.0000 H   0  0  0  0  0  0  0  0  0  0  0  0
    2.0000   -2.9636    0.0000 H   0  0  0  0  0  0  0  0  0  0  0  0
   11.2651    5.3982    0.0000 H   0  0  0  0  0  0  0  0  0  0  0  0
   10.7192    3.0903    0.0000 H   0  0  0  0  0  0  0  0  0  0  0  0
   12.4628    6.0836    0.0000 H   0  0  0  0  0  0  0  0  0  0  0  0
   12.6405   -0.0829    0.0000 H   0  0  0  0  0  0  0  0  0  0  0  0
   11.2108    2.4157    0.0000 H   0  0  0  0  0  0  0  0  0  0  0  0
   11.7341   -2.9636    0.0000 H   0  0  0  0  0  0  0  0  0  0  0  0
    8.9282   -2.9636    0.0000 H   0  0  0  0  0  0  0  0  0  0  0  0
   16.1290    4.5694    0.0000 H   0  0  0  0  0  0  0  0  0  0  0  0
    9.4362    2.3778    0.0000 H   0  0  0  0  0  0  0  0  0  0  0  0
    8.9282   -4.5836    0.0000 H   0  0  0  0  0  0  0  0  0  0  0  0
   12.6002   -4.4636    0.0000 H   0  0  0  0  0  0  0  0  0  0  0  0
   10.8681   -6.0836    0.0000 H   0  0  0  0  0  0  0  0  0  0  0  0
  1 24  1  0  0  0  0
  1 27  1  0  0  0  0
  2 29  1  0  0  0  0
  2 30  1  0  0  0  0
  3 27  1  0  0  0  0
  3 33  1  0  0  0  0
  4 29  1  0  0  0  0
  4 39  1  0  0  0  0
  5 25  1  0  0  0  0
  5 71  1  0  0  0  0
  6 26  1  0  0  0  0
  6 72  1  0  0  0  0
  7 28  1  0  0  0  0
  7 73  1  0  0  0  0
  8 31  1  0  0  0  0
  8 74  1  0  0  0  0
  9 32  1  0  0  0  0
  9 75  1  0  0  0  0
 10 34  1  0  0  0  0
 10 81  1  0  0  0  0
 11 35  1  0  0  0  0
 11 82  1  0  0  0  0
 12 40  1  0  0  0  0
 12 41  1  0  0  0  0
 13 40  1  0  0  0  0
 13 47  1  0  0  0  0
 14 36  1  0  0  0  0
 14 83  1  0  0  0  0
 15 37  1  0  0  0  0
 15 84  1  0  0  0  0
 16 38  1  0  0  0  0
 16 85  1  0  0  0  0
 17 42  1  0  0  0  0
 17 45  1  0  0  0  0
 18 43  2  0  0  0  0
 19 46  1  0  0  0  0
 19 90  1  0  0  0  0
 20 46  2  0  0  0  0
 21 50  1  0  0  0  0
 21 91  1  0  0  0  0
 22 54  1  0  0  0  0
 22 93  1  0  0  0  0
 23 56  1  0  0  0  0
 23 94  1  0  0  0  0
 24 25  1  0  0  0  0
 24 29  1  0  0  0  0
 24 57  1  0  0  0  0
 25 26  1  0  0  0  0
 25 58  1  0  0  0  0
 26 30  1  0  0  0  0
 26 59  1  0  0  0  0
 27 28  1  0  0  0  0
 27 60  1  0  0  0  0
 28 31  1  0  0  0  0
 28 61  1  0  0  0  0
 29 62  1  0  0  0  0
 30 34  1  0  0  0  0
 30 63  1  0  0  0  0
 31 32  1  0  0  0  0
 31 64  1  0  0  0  0
 32 33  1  0  0  0  0
 32 65  1  0  0  0  0
 33 35  1  0  0  0  0
 33 66  1  0  0  0  0
 34 67  1  0  0  0  0
 34 68  1  0  0  0  0
 35 69  1  0  0  0  0
 35 70  1  0  0  0  0
 36 37  1  0  0  0  0
 36 38  1  0  0  0  0
 36 76  1  0  0  0  0
 37 40  1  0  0  0  0
 37 77  1  0  0  0  0
 38 41  1  0  0  0  0
 38 78  1  0  0  0  0
 39 42  2  0  0  0  0
 39 43  1  0  0  0  0
 40 79  1  0  0  0  0
 41 46  1  0  0  0  0
 41 80  1  0  0  0  0
 42 48  1  0  0  0  0
 43 44  1  0  0  0  0
 44 45  1  0  0  0  0
 44 50  2  0  0  0  0
 45 49  2  0  0  0  0
 47 49  1  0  0  0  0
 47 51  2  0  0  0  0
 48 52  2  0  0  0  0
 48 53  1  0  0  0  0
 49 86  1  0  0  0  0
 50 51  1  0  0  0  0
 51 87  1  0  0  0  0
 52 54  1  0  0  0  0
 52 88  1  0  0  0  0
 53 55  2  0  0  0  0
 53 89  1  0  0  0  0
 54 56  2  0  0  0  0
 55 56  1  0  0  0  0
 55 92  1  0  0  0  0
M  END
>  <PUBCHEM_COMPOUND_CID>
74978169

>  <PUBCHEM_COMPOUND_CANONICALIZED>
1

>  <PUBCHEM_CACTVS_COMPLEXITY>
1420

>  <PUBCHEM_CACTVS_HBOND_ACCEPTOR>
23

>  <PUBCHEM_CACTVS_HBOND_DONOR>
14

>  <PUBCHEM_CACTVS_ROTATABLE_BOND>
10

>  <PUBCHEM_CACTVS_SUBSKEYS>
AAADcfB8PgAAAAAAAAAAAAAAAAAAAAAAAAA0aJECAAAAAACBQAAAGgAACAAADBSwmAMwDoAABgCIAqDSCAICCAAkIAAIiAFGiMgdNzaGNR6ieWGl4BUPuQfK7LzOIAABCAAIQABAAAIQABCAAAAAAAAAAA==

>  <PUBCHEM_IUPAC_OPENEYE_NAME>
6-[3-[4,5-dihydroxy-6-(hydroxymethyl)-3-[3,4,5-trihydroxy-6-(hydroxymethyl)tetrahydropyran-2-yl]oxy-tetrahydropyran-2-yl]oxy-2-(3,4-dihydroxyphenyl)-5-hydroxy-4-oxo-chromen-7-yl]oxy-3,4,5-trihydroxy-tetrahydropyran-2-carboxylic acid

>  <PUBCHEM_IUPAC_CAS_NAME>
6-[[3-[[4,5-dihydroxy-6-(hydroxymethyl)-3-[[3,4,5-trihydroxy-6-(hydroxymethyl)-2-oxanyl]oxy]-2-oxanyl]oxy]-2-(3,4-dihydroxyphenyl)-5-hydroxy-4-oxo-1-benzopyran-7-yl]oxy]-3,4,5-trihydroxy-2-oxanecarboxylic acid

>  <PUBCHEM_IUPAC_NAME>
6-[3-[4,5-dihydroxy-6-(hydroxymethyl)-3-[3,4,5-trihydroxy-6-(hydroxymethyl)oxan-2-yl]oxyoxan-2-yl]oxy-2-(3,4-dihydroxyphenyl)-5-hydroxy-4-oxochromen-7-yl]oxy-3,4,5-trihydroxyoxane-2-carboxylic acid

>  <PUBCHEM_IUPAC_SYSTEMATIC_NAME>
6-[2-[3,4-bis(oxidanyl)phenyl]-3-[6-(hydroxymethyl)-3-[6-(hydroxymethyl)-3,4,5-tris(oxidanyl)oxan-2-yl]oxy-4,5-bis(oxidanyl)oxan-2-yl]oxy-5-oxidanyl-4-oxidanylidene-chromen-7-yl]oxy-3,4,5-tris(oxidanyl)oxane-2-carboxylic acid

>  <PUBCHEM_IUPAC_TRADITIONAL_NAME>
6-[3-[4,5-dihydroxy-6-methylol-3-(3,4,5-trihydroxy-6-methylol-tetrahydropyran-2-yl)oxy-tetrahydropyran-2-yl]oxy-2-(3,4-dihydroxyphenyl)-5-hydroxy-4-keto-chromen-7-yl]oxy-3,4,5-trihydroxy-tetrahydropyran-2-carboxylic acid

>  <PUBCHEM_IUPAC_INCHI>
InChI=1S/C33H38O23/c34-6-14-17(39)20(42)24(46)32(52-14)56-29-22(44)18(40)15(7-35)53-33(29)54-27-19(41)16-12(38)4-9(50-31-25(47)21(43)23(45)28(55-31)30(48)49)5-13(16)51-26(27)8-1-2-10(36)11(37)3-8/h1-5,14-15,17-18,20-25,28-29,31-40,42-47H,6-7H2,(H,48,49)

>  <PUBCHEM_IUPAC_INCHIKEY>
MBLCMVKVVNMTFV-UHFFFAOYSA-N

>  <PUBCHEM_XLOGP3_AA>
-2.8

>  <PUBCHEM_EXACT_MASS>
802.18

>  <PUBCHEM_MOLECULAR_FORMULA>
C33H38O23

>  <PUBCHEM_MOLECULAR_WEIGHT>
802.644

>  <PUBCHEM_OPENEYE_CAN_SMILES>
C1=CC(=C(C=C1C2=C(C(=O)C3=C(C=C(C=C3O2)OC4C(C(C(C(O4)C(=O)O)O)O)O)O)OC5C(C(C(C(O5)CO)O)O)OC6C(C(C(C(O6)CO)O)O)O)O)O

>  <PUBCHEM_OPENEYE_ISO_SMILES>
C1=CC(=C(C=C1C2=C(C(=O)C3=C(C=C(C=C3O2)OC4C(C(C(C(O4)C(=O)O)O)O)O)O)OC5C(C(C(C(O5)CO)O)O)OC6C(C(C(C(O6)CO)O)O)O)O)O

>  <PUBCHEM_CACTVS_TPSA>
382

>  <PUBCHEM_MONOISOTOPIC_WEIGHT>
802.18

>  <PUBCHEM_TOTAL_CHARGE>
0

>  <PUBCHEM_HEAVY_ATOM_COUNT>
56

>  <PUBCHEM_ATOM_DEF_STEREO_COUNT>
0

>  <PUBCHEM_ATOM_UDEF_STEREO_COUNT>
15

>  <PUBCHEM_BOND_DEF_STEREO_COUNT>
0

>  <PUBCHEM_BOND_UDEF_STEREO_COUNT>
0

>  <PUBCHEM_ISOTOPIC_ATOM_COUNT>
0

>  <PUBCHEM_COMPONENT_COUNT>
1

>  <PUBCHEM_CACTVS_TAUTO_COUNT>
68

>  <PUBCHEM_COORDINATE_TYPE>
1
5
255

>  <PUBCHEM_BONDANNOTATIONS>
24  1  3
27  1  3
40  13  3
36  14  3
37  15  3
38  16  3
17  42  8
17  45  8
30  34  3
33  35  3
39  42  8
39  43  8
29  4  3
41  46  3
43  44  8
44  45  8
44  50  8
45  49  8
47  49  8
47  51  8
48  52  8
48  53  8
25  5  3
50  51  8
52  54  8
53  55  8
54  56  8
55  56  8
26  6  3
28  7  3
31  8  3
32  9  3

$$$$
