74978445
 OpenBabel06101807152D

 95100  0  0  1  0  0  0  0  0999 V2000
    6.9033   -2.7839    0.0000 O   0  0  0  0  0  0  0  0  0  0  0  0
    5.1334   -1.7396    0.0000 O   0  0  0  0  0  0  0  0  0  0  0  0
   12.1234    0.2719    0.0000 O   0  0  0  0  0  0  0  0  0  0  0  0
    8.6354   -2.7839    0.0000 O   0  0  0  0  0  0  0  0  0  0  0  0
    6.8654   -1.7530    0.0000 O   0  0  0  0  0  0  0  0  0  0  0  0
   11.2631    1.7752    0.0000 O   0  0  0  0  0  0  0  0  0  0  0  0
    6.9033   -5.7839    0.0000 O   0  0  0  0  0  0  0  0  0  0  0  0
    5.1713   -4.7839    0.0000 O   0  0  0  0  0  0  0  0  0  0  0  0
    5.1566    1.2603    0.0000 O   0  0  0  0  0  0  0  0  0  0  0  0
    3.4169    0.2737    0.0000 O   0  0  0  0  0  0  0  0  0  0  0  0
    8.6354   -4.7839    0.0000 O   0  0  0  0  0  0  0  0  0  0  0  0
    6.8809    0.2470    0.0000 O   0  0  0  0  0  0  0  0  0  0  0  0
   14.7272    1.7619    0.0000 O   0  0  0  0  0  0  0  0  0  0  0  0
   14.7195   -0.2381    0.0000 O   0  0  0  0  0  0  0  0  0  0  0  0
   12.9990    2.7685    0.0000 O   0  0  0  0  0  0  0  0  0  0  0  0
    4.3052   -3.2839    0.0000 O   0  0  0  0  0  0  0  0  0  0  0  0
    2.5393   -1.2196    0.0000 O   0  0  0  0  0  0  0  0  0  0  0  0
    8.6632    1.2852    0.0000 O   0  0  0  0  0  0  0  0  0  0  0  0
   13.8477   -1.7348    0.0000 O   0  0  0  0  0  0  0  0  0  0  0  0
   10.4053   -1.7530    0.0000 O   0  0  0  0  0  0  0  0  0  0  0  0
   11.2554   -0.2248    0.0000 O   0  0  0  0  0  0  0  0  0  0  0  0
    9.5465    5.7819    0.0000 O   0  0  0  0  0  0  0  0  0  0  0  0
    6.9033   -4.7839    0.0000 C   0  0  3  0  0  0  0  0  0  0  0  0
    6.0373   -4.2839    0.0000 C   0  0  3  0  0  0  0  0  0  0  0  0
    5.1489    0.2603    0.0000 C   0  0  3  0  0  0  0  0  0  0  0  0
    4.2790   -0.2330    0.0000 C   0  0  3  0  0  0  0  0  0  0  0  0
    7.7694   -4.2839    0.0000 C   0  0  3  0  0  0  0  0  0  0  0  0
    6.0110   -0.2463    0.0000 C   0  0  3  0  0  0  0  0  0  0  0  0
    6.0373   -3.2839    0.0000 C   0  0  3  0  0  0  0  0  0  0  0  0
    4.2713   -1.2329    0.0000 C   0  0  3  0  0  0  0  0  0  0  0  0
   13.8593    1.2652    0.0000 C   0  0  3  0  0  0  0  0  0  0  0  0
   13.8554    0.2652    0.0000 C   0  0  3  0  0  0  0  0  0  0  0  0
    7.7694   -3.2839    0.0000 C   0  0  3  0  0  0  0  0  0  0  0  0
    6.0033   -1.2463    0.0000 C   0  0  3  0  0  0  0  0  0  0  0  0
   12.9952    1.7686    0.0000 C   0  0  3  0  0  0  0  0  0  0  0  0
   12.9875   -0.2314    0.0000 C   0  0  3  0  0  0  0  0  0  0  0  0
   12.1272    1.2719    0.0000 C   0  0  3  0  0  0  0  0  0  0  0  0
    5.1713   -2.7839    0.0000 C   0  0  0  0  0  0  0  0  0  0  0  0
    3.4014   -1.7262    0.0000 C   0  0  0  0  0  0  0  0  0  0  0  0
   12.9836   -1.2314    0.0000 C   0  0  0  0  0  0  0  0  0  0  0  0
    8.6354   -1.7839    0.0000 C   0  0  0  0  0  0  0  0  0  0  0  0
    7.7353   -1.2596    0.0000 C   0  0  0  0  0  0  0  0  0  0  0  0
    9.5234   -0.2181    0.0000 C   0  0  0  0  0  0  0  0  0  0  0  0
    9.5354   -1.2596    0.0000 C   0  0  0  0  0  0  0  0  0  0  0  0
   10.3952    1.2786    0.0000 C   0  0  0  0  0  0  0  0  0  0  0  0
    7.7474   -0.2181    0.0000 C   0  0  0  0  0  0  0  0  0  0  0  0
    8.6593    0.2852    0.0000 C   0  0  0  0  0  0  0  0  0  0  0  0
   10.3913    0.2786    0.0000 C   0  0  0  0  0  0  0  0  0  0  0  0
    9.5311    1.7819    0.0000 C   0  0  0  0  0  0  0  0  0  0  0  0
    9.5350    2.7819    0.0000 C   0  0  0  0  0  0  0  0  0  0  0  0
   10.4029    3.2786    0.0000 C   0  0  0  0  0  0  0  0  0  0  0  0
    8.6709    3.2852    0.0000 C   0  0  0  0  0  0  0  0  0  0  0  0
   10.4068    4.2785    0.0000 C   0  0  0  0  0  0  0  0  0  0  0  0
    8.6747    4.2852    0.0000 C   0  0  0  0  0  0  0  0  0  0  0  0
    9.5427    4.7819    0.0000 C   0  0  0  0  0  0  0  0  0  0  0  0
    7.4403   -5.0939    0.0000 H   0  0  0  0  0  0  0  0  0  0  0  0
    6.0373   -4.9039    0.0000 H   0  0  0  0  0  0  0  0  0  0  0  0
    4.6143    0.5745    0.0000 H   0  0  0  0  0  0  0  0  0  0  0  0
    3.7397   -0.5388    0.0000 H   0  0  0  0  0  0  0  0  0  0  0  0
    8.3063   -3.9739    0.0000 H   0  0  0  0  0  0  0  0  0  0  0  0
    6.5456   -0.5605    0.0000 H   0  0  0  0  0  0  0  0  0  0  0  0
    6.0373   -2.6639    0.0000 H   0  0  0  0  0  0  0  0  0  0  0  0
    4.2665   -1.8529    0.0000 H   0  0  0  0  0  0  0  0  0  0  0  0
   13.8617    1.8852    0.0000 H   0  0  0  0  0  0  0  0  0  0  0  0
   14.3935    0.5731    0.0000 H   0  0  0  0  0  0  0  0  0  0  0  0
    7.7694   -2.6639    0.0000 H   0  0  0  0  0  0  0  0  0  0  0  0
    5.9985   -1.8663    0.0000 H   0  0  0  0  0  0  0  0  0  0  0  0
   12.4594    2.0806    0.0000 H   0  0  0  0  0  0  0  0  0  0  0  0
   12.4493   -0.5394    0.0000 H   0  0  0  0  0  0  0  0  0  0  0  0
   12.6630    0.9598    0.0000 H   0  0  0  0  0  0  0  0  0  0  0  0
    5.5698   -2.3090    0.0000 H   0  0  0  0  0  0  0  0  0  0  0  0
    4.7727   -2.3090    0.0000 H   0  0  0  0  0  0  0  0  0  0  0  0
    2.9993   -2.1981    0.0000 H   0  0  0  0  0  0  0  0  0  0  0  0
    3.7963   -2.2043    0.0000 H   0  0  0  0  0  0  0  0  0  0  0  0
   12.3735   -1.1214    0.0000 H   0  0  0  0  0  0  0  0  0  0  0  0
   12.7693   -1.8132    0.0000 H   0  0  0  0  0  0  0  0  0  0  0  0
    6.3664   -6.0939    0.0000 H   0  0  0  0  0  0  0  0  0  0  0  0
    4.6220    1.5744    0.0000 H   0  0  0  0  0  0  0  0  0  0  0  0
    5.1713   -5.4039    0.0000 H   0  0  0  0  0  0  0  0  0  0  0  0
    3.4216    0.8937    0.0000 H   0  0  0  0  0  0  0  0  0  0  0  0
    8.6354   -5.4039    0.0000 H   0  0  0  0  0  0  0  0  0  0  0  0
    6.8856    0.8670    0.0000 H   0  0  0  0  0  0  0  0  0  0  0  0
   15.2630    1.4498    0.0000 H   0  0  0  0  0  0  0  0  0  0  0  0
   15.2576    0.0698    0.0000 H   0  0  0  0  0  0  0  0  0  0  0  0
   13.5372    3.0765    0.0000 H   0  0  0  0  0  0  0  0  0  0  0  0
    7.2153    0.1002    0.0000 H   0  0  0  0  0  0  0  0  0  0  0  0
    3.7683   -2.9739    0.0000 H   0  0  0  0  0  0  0  0  0  0  0  0
    2.0000   -1.5254    0.0000 H   0  0  0  0  0  0  0  0  0  0  0  0
   13.8453   -2.3548    0.0000 H   0  0  0  0  0  0  0  0  0  0  0  0
   10.4101   -2.3729    0.0000 H   0  0  0  0  0  0  0  0  0  0  0  0
   10.9386    2.9665    0.0000 H   0  0  0  0  0  0  0  0  0  0  0  0
    8.1327    2.9773    0.0000 H   0  0  0  0  0  0  0  0  0  0  0  0
   10.9449    4.5865    0.0000 H   0  0  0  0  0  0  0  0  0  0  0  0
    8.1390    4.5973    0.0000 H   0  0  0  0  0  0  0  0  0  0  0  0
    9.0108    6.0939    0.0000 H   0  0  0  0  0  0  0  0  0  0  0  0
  1 29  1  0  0  0  0
  1 33  1  0  0  0  0
  2 30  1  0  0  0  0
  2 34  1  0  0  0  0
  3 36  1  0  0  0  0
  3 37  1  0  0  0  0
  4 33  1  0  0  0  0
  4 41  1  0  0  0  0
  5 34  1  0  0  0  0
  5 42  1  0  0  0  0
  6 37  1  0  0  0  0
  6 45  1  0  0  0  0
  7 23  1  0  0  0  0
  7 77  1  0  0  0  0
  8 24  1  0  0  0  0
  8 79  1  0  0  0  0
  9 25  1  0  0  0  0
  9 78  1  0  0  0  0
 10 26  1  0  0  0  0
 10 80  1  0  0  0  0
 11 27  1  0  0  0  0
 11 81  1  0  0  0  0
 12 28  1  0  0  0  0
 12 82  1  0  0  0  0
 13 31  1  0  0  0  0
 13 83  1  0  0  0  0
 14 32  1  0  0  0  0
 14 84  1  0  0  0  0
 15 35  1  0  0  0  0
 15 85  1  0  0  0  0
 16 38  1  0  0  0  0
 16 87  1  0  0  0  0
 17 39  1  0  0  0  0
 17 88  1  0  0  0  0
 18 47  1  0  0  0  0
 18 49  1  0  0  0  0
 19 40  1  0  0  0  0
 19 89  1  0  0  0  0
 20 44  1  0  0  0  0
 20 90  1  0  0  0  0
 21 48  2  0  0  0  0
 22 55  1  0  0  0  0
 22 95  1  0  0  0  0
 23 24  1  0  0  0  0
 23 27  1  0  0  0  0
 23 56  1  0  0  0  0
 24 29  1  0  0  0  0
 24 57  1  0  0  0  0
 25 26  1  0  0  0  0
 25 28  1  0  0  0  0
 25 58  1  0  0  0  0
 26 30  1  0  0  0  0
 26 59  1  0  0  0  0
 27 33  1  0  0  0  0
 27 60  1  0  0  0  0
 28 34  1  0  0  0  0
 28 61  1  0  0  0  0
 29 38  1  0  0  0  0
 29 62  1  0  0  0  0
 30 39  1  0  0  0  0
 30 63  1  0  0  0  0
 31 32  1  0  0  0  0
 31 35  1  0  0  0  0
 31 64  1  0  0  0  0
 32 36  1  0  0  0  0
 32 65  1  0  0  0  0
 33 66  1  0  0  0  0
 34 67  1  0  0  0  0
 35 37  1  0  0  0  0
 35 68  1  0  0  0  0
 36 40  1  0  0  0  0
 36 69  1  0  0  0  0
 37 70  1  0  0  0  0
 38 71  1  0  0  0  0
 38 72  1  0  0  0  0
 39 73  1  0  0  0  0
 39 74  1  0  0  0  0
 40 75  1  0  0  0  0
 40 76  1  0  0  0  0
 41 42  2  0  0  0  0
 41 44  1  0  0  0  0
 42 46  1  0  0  0  0
 43 44  2  0  0  0  0
 43 47  1  0  0  0  0
 43 48  1  0  0  0  0
 45 48  1  0  0  0  0
 45 49  2  0  0  0  0
 46 47  2  0  0  0  0
 46 86  1  0  0  0  0
 49 50  1  0  0  0  0
 50 51  2  0  0  0  0
 50 52  1  0  0  0  0
 51 53  1  0  0  0  0
 51 91  1  0  0  0  0
 52 54  2  0  0  0  0
 52 92  1  0  0  0  0
 53 55  2  0  0  0  0
 53 93  1  0  0  0  0
 54 55  1  0  0  0  0
 54 94  1  0  0  0  0
M  END
>  <PUBCHEM_COMPOUND_CID>
74978445

>  <PUBCHEM_COMPOUND_CANONICALIZED>
1

>  <PUBCHEM_CACTVS_COMPLEXITY>
1330

>  <PUBCHEM_CACTVS_HBOND_ACCEPTOR>
22

>  <PUBCHEM_CACTVS_HBOND_DONOR>
14

>  <PUBCHEM_CACTVS_ROTATABLE_BOND>
10

>  <PUBCHEM_CACTVS_SUBSKEYS>
AAADcfB8PgAAAAAAAAAAAAAAAAAAAAAAAAA0aJECAAAAAACBQAAAGgAACAAADBSwmAMwDoAABgCIAqBSAAICCAAkIAAIiAFGiMgdNzaGNR6ieWOl4BUPuQfK7LzOIQABCAAIQABCAAIQABCAAAAAAAAAAA==

>  <PUBCHEM_IUPAC_OPENEYE_NAME>
5-hydroxy-2-(4-hydroxyphenyl)-3,6,7-tris[[3,4,5-trihydroxy-6-(hydroxymethyl)tetrahydropyran-2-yl]oxy]chromen-4-one

>  <PUBCHEM_IUPAC_CAS_NAME>
5-hydroxy-2-(4-hydroxyphenyl)-3,6,7-tris[[3,4,5-trihydroxy-6-(hydroxymethyl)-2-oxanyl]oxy]-1-benzopyran-4-one

>  <PUBCHEM_IUPAC_NAME>
5-hydroxy-2-(4-hydroxyphenyl)-3,6,7-tris[[3,4,5-trihydroxy-6-(hydroxymethyl)oxan-2-yl]oxy]chromen-4-one

>  <PUBCHEM_IUPAC_SYSTEMATIC_NAME>
3,6,7-tris[[6-(hydroxymethyl)-3,4,5-tris(oxidanyl)oxan-2-yl]oxy]-2-(4-hydroxyphenyl)-5-oxidanyl-chromen-4-one

>  <PUBCHEM_IUPAC_TRADITIONAL_NAME>
5-hydroxy-2-(4-hydroxyphenyl)-3,6,7-tris[(3,4,5-trihydroxy-6-methylol-tetrahydropyran-2-yl)oxy]chromone

>  <PUBCHEM_IUPAC_INCHI>
InChI=1S/C33H40O22/c34-6-13-17(38)22(43)25(46)31(51-13)50-12-5-11-16(20(41)29(12)54-32-26(47)23(44)18(39)14(7-35)52-32)21(42)30(28(49-11)9-1-3-10(37)4-2-9)55-33-27(48)24(45)19(40)15(8-36)53-33/h1-5,13-15,17-19,22-27,31-41,43-48H,6-8H2

>  <PUBCHEM_IUPAC_INCHIKEY>
ZYJKKAOXNQVUMQ-UHFFFAOYSA-N

>  <PUBCHEM_XLOGP3_AA>
-3.2

>  <PUBCHEM_EXACT_MASS>
788.201

>  <PUBCHEM_MOLECULAR_FORMULA>
C33H40O22

>  <PUBCHEM_MOLECULAR_WEIGHT>
788.661

>  <PUBCHEM_OPENEYE_CAN_SMILES>
C1=CC(=CC=C1C2=C(C(=O)C3=C(C(=C(C=C3O2)OC4C(C(C(C(O4)CO)O)O)O)OC5C(C(C(C(O5)CO)O)O)O)O)OC6C(C(C(C(O6)CO)O)O)O)O

>  <PUBCHEM_OPENEYE_ISO_SMILES>
C1=CC(=CC=C1C2=C(C(=O)C3=C(C(=C(C=C3O2)OC4C(C(C(C(O4)CO)O)O)O)OC5C(C(C(C(O5)CO)O)O)O)O)OC6C(C(C(C(O6)CO)O)O)O)O

>  <PUBCHEM_CACTVS_TPSA>
365

>  <PUBCHEM_MONOISOTOPIC_WEIGHT>
788.201

>  <PUBCHEM_TOTAL_CHARGE>
0

>  <PUBCHEM_HEAVY_ATOM_COUNT>
55

>  <PUBCHEM_ATOM_DEF_STEREO_COUNT>
0

>  <PUBCHEM_ATOM_UDEF_STEREO_COUNT>
15

>  <PUBCHEM_BOND_DEF_STEREO_COUNT>
0

>  <PUBCHEM_BOND_UDEF_STEREO_COUNT>
0

>  <PUBCHEM_ISOTOPIC_ATOM_COUNT>
0

>  <PUBCHEM_COMPONENT_COUNT>
1

>  <PUBCHEM_CACTVS_TAUTO_COUNT>
24

>  <PUBCHEM_COORDINATE_TYPE>
1
5
255

>  <PUBCHEM_BONDANNOTATIONS>
26  10  3
27  11  3
28  12  3
31  13  3
32  14  3
35  15  3
18  47  8
18  49  8
29  38  3
30  39  3
36  40  3
33  4  3
41  42  8
41  44  8
42  46  8
43  44  8
43  47  8
43  48  8
45  48  8
45  49  8
46  47  8
34  5  3
50  51  8
50  52  8
51  53  8
52  54  8
53  55  8
54  55  8
37  6  3
23  7  3
24  8  3
25  9  3

$$$$
