74978172
 OpenBabel06101807152D

 94 99  0  0  1  0  0  0  0  0999 V2000
    6.9343   -1.7500    0.0000 O   0  0  0  0  0  0  0  0  0  0  0  0
    6.0682   -4.2500    0.0000 O   0  0  0  0  0  0  0  0  0  0  0  0
    4.3362   -4.2500    0.0000 O   0  0  0  0  0  0  0  0  0  0  0  0
    7.8003   -4.2500    0.0000 O   0  0  0  0  0  0  0  0  0  0  0  0
    7.8003   -0.2500    0.0000 O   0  0  0  0  0  0  0  0  0  0  0  0
    9.5323   -3.2500    0.0000 O   0  0  0  0  0  0  0  0  0  0  0  0
   11.2644    4.7500    0.0000 O   0  0  0  0  0  0  0  0  0  0  0  0
    9.5323   -1.2500    0.0000 O   0  0  0  0  0  0  0  0  0  0  0  0
    6.0682   -6.2500    0.0000 O   0  0  0  0  0  0  0  0  0  0  0  0
    4.3362   -7.2500    0.0000 O   0  0  0  0  0  0  0  0  0  0  0  0
    2.6042   -6.2500    0.0000 O   0  0  0  0  0  0  0  0  0  0  0  0
   10.3984    3.2500    0.0000 O   0  0  0  0  0  0  0  0  0  0  0  0
    8.6663    6.2500    0.0000 O   0  0  0  0  0  0  0  0  0  0  0  0
   10.3984    7.2500    0.0000 O   0  0  0  0  0  0  0  0  0  0  0  0
    8.6663    4.2500    0.0000 O   0  0  0  0  0  0  0  0  0  0  0  0
   12.1304    7.2500    0.0000 O   0  0  0  0  0  0  0  0  0  0  0  0
    6.0682    1.7500    0.0000 O   0  0  0  0  0  0  0  0  0  0  0  0
    6.0682   -1.2500    0.0000 O   0  0  0  0  0  0  0  0  0  0  0  0
   10.3984    1.2500    0.0000 O   0  0  0  0  0  0  0  0  0  0  0  0
    4.3198   -1.2846    0.0000 O   0  0  0  0  0  0  0  0  0  0  0  0
    2.5381    1.7742    0.0000 O   0  0  0  0  0  0  0  0  0  0  0  0
    6.9343   -2.7500    0.0000 C   0  0  3  0  0  0  0  0  0  0  0  0
    7.8003   -3.2500    0.0000 C   0  0  3  0  0  0  0  0  0  0  0  0
    8.6663   -2.7500    0.0000 C   0  0  3  0  0  0  0  0  0  0  0  0
    8.6663   -1.7500    0.0000 C   0  0  3  0  0  0  0  0  0  0  0  0
    5.2022   -5.7500    0.0000 C   0  0  3  0  0  0  0  0  0  0  0  0
    5.2022   -4.7500    0.0000 C   0  0  3  0  0  0  0  0  0  0  0  0
    4.3362   -6.2500    0.0000 C   0  0  3  0  0  0  0  0  0  0  0  0
    3.4702   -5.7500    0.0000 C   0  0  3  0  0  0  0  0  0  0  0  0
    7.8003   -1.2500    0.0000 C   0  0  3  0  0  0  0  0  0  0  0  0
    6.0682   -3.2500    0.0000 C   0  0  0  0  0  0  0  0  0  0  0  0
    3.4702   -4.7500    0.0000 C   0  0  3  0  0  0  0  0  0  0  0  0
    9.5323    5.7500    0.0000 C   0  0  3  0  0  0  0  0  0  0  0  0
   10.3984    6.2500    0.0000 C   0  0  3  0  0  0  0  0  0  0  0  0
    9.5323    4.7500    0.0000 C   0  0  3  0  0  0  0  0  0  0  0  0
   11.2644    5.7500    0.0000 C   0  0  3  0  0  0  0  0  0  0  0  0
   10.3984    4.2500    0.0000 C   0  0  3  0  0  0  0  0  0  0  0  0
    2.6042   -4.2500    0.0000 C   0  0  0  0  0  0  0  0  0  0  0  0
   12.1304    6.2500    0.0000 C   0  0  0  0  0  0  0  0  0  0  0  0
    6.9343    0.2500    0.0000 C   0  0  0  0  0  0  0  0  0  0  0  0
    6.9343    1.2500    0.0000 C   0  0  0  0  0  0  0  0  0  0  0  0
    9.5323    2.7500    0.0000 C   0  0  0  0  0  0  0  0  0  0  0  0
    6.0682   -0.2500    0.0000 C   0  0  0  0  0  0  0  0  0  0  0  0
    7.8003    1.7500    0.0000 C   0  0  0  0  0  0  0  0  0  0  0  0
    5.2022    0.2500    0.0000 C   0  0  0  0  0  0  0  0  0  0  0  0
    9.5323    1.7500    0.0000 C   0  0  0  0  0  0  0  0  0  0  0  0
    8.6663    3.2500    0.0000 C   0  0  0  0  0  0  0  0  0  0  0  0
    8.6663    1.2500    0.0000 C   0  0  0  0  0  0  0  0  0  0  0  0
    7.8003    2.7500    0.0000 C   0  0  0  0  0  0  0  0  0  0  0  0
    5.2022    1.2500    0.0000 C   0  0  0  0  0  0  0  0  0  0  0  0
    4.3083   -0.2847    0.0000 C   0  0  0  0  0  0  0  0  0  0  0  0
    4.3083    1.7847    0.0000 C   0  0  0  0  0  0  0  0  0  0  0  0
    3.4022    0.2292    0.0000 C   0  0  0  0  0  0  0  0  0  0  0  0
    3.4022    1.2708    0.0000 C   0  0  0  0  0  0  0  0  0  0  0  0
    6.3973   -2.4400    0.0000 H   0  0  0  0  0  0  0  0  0  0  0  0
    8.3372   -3.5600    0.0000 H   0  0  0  0  0  0  0  0  0  0  0  0
    9.2033   -2.4400    0.0000 H   0  0  0  0  0  0  0  0  0  0  0  0
    8.6663   -1.1300    0.0000 H   0  0  0  0  0  0  0  0  0  0  0  0
    5.2022   -6.3700    0.0000 H   0  0  0  0  0  0  0  0  0  0  0  0
    5.2022   -4.1300    0.0000 H   0  0  0  0  0  0  0  0  0  0  0  0
    3.7993   -6.5600    0.0000 H   0  0  0  0  0  0  0  0  0  0  0  0
    2.9332   -5.4400    0.0000 H   0  0  0  0  0  0  0  0  0  0  0  0
    7.2634   -0.9400    0.0000 H   0  0  0  0  0  0  0  0  0  0  0  0
    5.8562   -2.6674    0.0000 H   0  0  0  0  0  0  0  0  0  0  0  0
    5.4577   -3.3577    0.0000 H   0  0  0  0  0  0  0  0  0  0  0  0
    3.4702   -4.1300    0.0000 H   0  0  0  0  0  0  0  0  0  0  0  0
    9.5323    6.3700    0.0000 H   0  0  0  0  0  0  0  0  0  0  0  0
   10.9353    6.5600    0.0000 H   0  0  0  0  0  0  0  0  0  0  0  0
    9.5323    4.1300    0.0000 H   0  0  0  0  0  0  0  0  0  0  0  0
   11.8013    5.4400    0.0000 H   0  0  0  0  0  0  0  0  0  0  0  0
   10.9353    3.9400    0.0000 H   0  0  0  0  0  0  0  0  0  0  0  0
    2.9141   -3.7131    0.0000 H   0  0  0  0  0  0  0  0  0  0  0  0
    2.0672   -3.9400    0.0000 H   0  0  0  0  0  0  0  0  0  0  0  0
    2.2942   -4.7869    0.0000 H   0  0  0  0  0  0  0  0  0  0  0  0
    7.2634   -4.5600    0.0000 H   0  0  0  0  0  0  0  0  0  0  0  0
    9.5323   -3.8700    0.0000 H   0  0  0  0  0  0  0  0  0  0  0  0
   10.0693   -1.5600    0.0000 H   0  0  0  0  0  0  0  0  0  0  0  0
    6.6052   -5.9400    0.0000 H   0  0  0  0  0  0  0  0  0  0  0  0
    3.7993   -7.5600    0.0000 H   0  0  0  0  0  0  0  0  0  0  0  0
    2.0672   -5.9400    0.0000 H   0  0  0  0  0  0  0  0  0  0  0  0
   12.3425    5.6674    0.0000 H   0  0  0  0  0  0  0  0  0  0  0  0
   12.7410    6.3577    0.0000 H   0  0  0  0  0  0  0  0  0  0  0  0
    8.6663    6.8700    0.0000 H   0  0  0  0  0  0  0  0  0  0  0  0
    9.8614    7.5600    0.0000 H   0  0  0  0  0  0  0  0  0  0  0  0
    8.1294    4.5600    0.0000 H   0  0  0  0  0  0  0  0  0  0  0  0
   12.6674    7.5600    0.0000 H   0  0  0  0  0  0  0  0  0  0  0  0
    8.6663    3.8700    0.0000 H   0  0  0  0  0  0  0  0  0  0  0  0
    8.6663    0.6300    0.0000 H   0  0  0  0  0  0  0  0  0  0  0  0
    7.2634    3.0600    0.0000 H   0  0  0  0  0  0  0  0  0  0  0  0
    4.3154    2.4046    0.0000 H   0  0  0  0  0  0  0  0  0  0  0  0
    2.8665   -0.0829    0.0000 H   0  0  0  0  0  0  0  0  0  0  0  0
   10.3984    0.6300    0.0000 H   0  0  0  0  0  0  0  0  0  0  0  0
    3.7865   -1.6008    0.0000 H   0  0  0  0  0  0  0  0  0  0  0  0
    2.0000    1.4662    0.0000 H   0  0  0  0  0  0  0  0  0  0  0  0
  1 22  1  0  0  0  0
  1 30  1  0  0  0  0
  2 27  1  0  0  0  0
  2 31  1  0  0  0  0
  3 27  1  0  0  0  0
  3 32  1  0  0  0  0
  4 23  1  0  0  0  0
  4 75  1  0  0  0  0
  5 30  1  0  0  0  0
  5 40  1  0  0  0  0
  6 24  1  0  0  0  0
  6 76  1  0  0  0  0
  7 36  1  0  0  0  0
  7 37  1  0  0  0  0
  8 25  1  0  0  0  0
  8 77  1  0  0  0  0
  9 26  1  0  0  0  0
  9 78  1  0  0  0  0
 10 28  1  0  0  0  0
 10 79  1  0  0  0  0
 11 29  1  0  0  0  0
 11 80  1  0  0  0  0
 12 37  1  0  0  0  0
 12 42  1  0  0  0  0
 13 33  1  0  0  0  0
 13 83  1  0  0  0  0
 14 34  1  0  0  0  0
 14 84  1  0  0  0  0
 15 35  1  0  0  0  0
 15 85  1  0  0  0  0
 16 39  1  0  0  0  0
 16 86  1  0  0  0  0
 17 41  1  0  0  0  0
 17 50  1  0  0  0  0
 18 43  2  0  0  0  0
 19 46  1  0  0  0  0
 19 92  1  0  0  0  0
 20 51  1  0  0  0  0
 20 93  1  0  0  0  0
 21 54  1  0  0  0  0
 21 94  1  0  0  0  0
 22 23  1  0  0  0  0
 22 31  1  0  0  0  0
 22 55  1  0  0  0  0
 23 24  1  0  0  0  0
 23 56  1  0  0  0  0
 24 25  1  0  0  0  0
 24 57  1  0  0  0  0
 25 30  1  0  0  0  0
 25 58  1  0  0  0  0
 26 27  1  0  0  0  0
 26 28  1  0  0  0  0
 26 59  1  0  0  0  0
 27 60  1  0  0  0  0
 28 29  1  0  0  0  0
 28 61  1  0  0  0  0
 29 32  1  0  0  0  0
 29 62  1  0  0  0  0
 30 63  1  0  0  0  0
 31 64  1  0  0  0  0
 31 65  1  0  0  0  0
 32 38  1  0  0  0  0
 32 66  1  0  0  0  0
 33 34  1  0  0  0  0
 33 35  1  0  0  0  0
 33 67  1  0  0  0  0
 34 36  1  0  0  0  0
 34 68  1  0  0  0  0
 35 37  1  0  0  0  0
 35 69  1  0  0  0  0
 36 39  1  0  0  0  0
 36 70  1  0  0  0  0
 37 71  1  0  0  0  0
 38 72  1  0  0  0  0
 38 73  1  0  0  0  0
 38 74  1  0  0  0  0
 39 81  1  0  0  0  0
 39 82  1  0  0  0  0
 40 41  2  0  0  0  0
 40 43  1  0  0  0  0
 41 44  1  0  0  0  0
 42 46  2  0  0  0  0
 42 47  1  0  0  0  0
 43 45  1  0  0  0  0
 44 48  2  0  0  0  0
 44 49  1  0  0  0  0
 45 50  1  0  0  0  0
 45 51  2  0  0  0  0
 46 48  1  0  0  0  0
 47 49  2  0  0  0  0
 47 87  1  0  0  0  0
 48 88  1  0  0  0  0
 49 89  1  0  0  0  0
 50 52  2  0  0  0  0
 51 53  1  0  0  0  0
 52 54  1  0  0  0  0
 52 90  1  0  0  0  0
 53 54  2  0  0  0  0
 53 91  1  0  0  0  0
M  END
>  <PUBCHEM_COMPOUND_CID>
74978172

>  <PUBCHEM_COMPOUND_CANONICALIZED>
1

>  <PUBCHEM_CACTVS_COMPLEXITY>
1320

>  <PUBCHEM_CACTVS_HBOND_ACCEPTOR>
21

>  <PUBCHEM_CACTVS_HBOND_DONOR>
13

>  <PUBCHEM_CACTVS_ROTATABLE_BOND>
9

>  <PUBCHEM_CACTVS_SUBSKEYS>
AAADcfB8PgAAAAAAAAAAAAAAAAAAAAAAAAA0aJECAAAAAACBQAAAGgAACAAADBSwmAMyDoAABgCIAqBSAAICCAAkIAAIiAFGiMgdNzaGNR6ieWOl4BUPuQfI7LzOIAABCAAIQABAAAIQABCAAAAAAAAAAA==

>  <PUBCHEM_IUPAC_OPENEYE_NAME>
5,7-dihydroxy-2-[3-hydroxy-4-[3,4,5-trihydroxy-6-(hydroxymethyl)tetrahydropyran-2-yl]oxy-phenyl]-3-[3,4,5-trihydroxy-6-[(3,4,5-trihydroxy-6-methyl-tetrahydropyran-2-yl)oxymethyl]tetrahydropyran-2-yl]oxy-chromen-4-one

>  <PUBCHEM_IUPAC_CAS_NAME>
5,7-dihydroxy-2-[3-hydroxy-4-[[3,4,5-trihydroxy-6-(hydroxymethyl)-2-oxanyl]oxy]phenyl]-3-[[3,4,5-trihydroxy-6-[(3,4,5-trihydroxy-6-methyl-2-oxanyl)oxymethyl]-2-oxanyl]oxy]-1-benzopyran-4-one

>  <PUBCHEM_IUPAC_NAME>
5,7-dihydroxy-2-[3-hydroxy-4-[3,4,5-trihydroxy-6-(hydroxymethyl)oxan-2-yl]oxyphenyl]-3-[3,4,5-trihydroxy-6-[(3,4,5-trihydroxy-6-methyloxan-2-yl)oxymethyl]oxan-2-yl]oxychromen-4-one

>  <PUBCHEM_IUPAC_SYSTEMATIC_NAME>
2-[4-[6-(hydroxymethyl)-3,4,5-tris(oxidanyl)oxan-2-yl]oxy-3-oxidanyl-phenyl]-3-[6-[[6-methyl-3,4,5-tris(oxidanyl)oxan-2-yl]oxymethyl]-3,4,5-tris(oxidanyl)oxan-2-yl]oxy-5,7-bis(oxidanyl)chromen-4-one

>  <PUBCHEM_IUPAC_TRADITIONAL_NAME>
5,7-dihydroxy-2-[3-hydroxy-4-(3,4,5-trihydroxy-6-methylol-tetrahydropyran-2-yl)oxy-phenyl]-3-[3,4,5-trihydroxy-6-[(3,4,5-trihydroxy-6-methyl-tetrahydropyran-2-yl)oxymethyl]tetrahydropyran-2-yl]oxy-chromone

>  <PUBCHEM_IUPAC_INCHI>
InChI=1S/C33H40O21/c1-9-19(38)23(42)26(45)31(49-9)48-8-17-21(40)25(44)28(47)33(53-17)54-30-22(41)18-13(37)5-11(35)6-15(18)50-29(30)10-2-3-14(12(36)4-10)51-32-27(46)24(43)20(39)16(7-34)52-32/h2-6,9,16-17,19-21,23-28,31-40,42-47H,7-8H2,1H3

>  <PUBCHEM_IUPAC_INCHIKEY>
VLWGTVNAOQPEJO-UHFFFAOYSA-N

>  <PUBCHEM_XLOGP3_AA>
-3.1

>  <PUBCHEM_EXACT_MASS>
772.206

>  <PUBCHEM_MOLECULAR_FORMULA>
C33H40O21

>  <PUBCHEM_MOLECULAR_WEIGHT>
772.662

>  <PUBCHEM_OPENEYE_CAN_SMILES>
CC1C(C(C(C(O1)OCC2C(C(C(C(O2)OC3=C(OC4=CC(=CC(=C4C3=O)O)O)C5=CC(=C(C=C5)OC6C(C(C(C(O6)CO)O)O)O)O)O)O)O)O)O)O

>  <PUBCHEM_OPENEYE_ISO_SMILES>
CC1C(C(C(C(O1)OCC2C(C(C(C(O2)OC3=C(OC4=CC(=CC(=C4C3=O)O)O)C5=CC(=C(C=C5)OC6C(C(C(C(O6)CO)O)O)O)O)O)O)O)O)O)O

>  <PUBCHEM_CACTVS_TPSA>
345

>  <PUBCHEM_MONOISOTOPIC_WEIGHT>
772.206

>  <PUBCHEM_TOTAL_CHARGE>
0

>  <PUBCHEM_HEAVY_ATOM_COUNT>
54

>  <PUBCHEM_ATOM_DEF_STEREO_COUNT>
0

>  <PUBCHEM_ATOM_UDEF_STEREO_COUNT>
15

>  <PUBCHEM_BOND_DEF_STEREO_COUNT>
0

>  <PUBCHEM_BOND_UDEF_STEREO_COUNT>
0

>  <PUBCHEM_ISOTOPIC_ATOM_COUNT>
0

>  <PUBCHEM_COMPONENT_COUNT>
1

>  <PUBCHEM_CACTVS_TAUTO_COUNT>
36

>  <PUBCHEM_COORDINATE_TYPE>
1
5
255

>  <PUBCHEM_BONDANNOTATIONS>
28  10  3
29  11  3
37  12  3
33  13  3
34  14  3
35  15  3
17  41  8
17  50  8
27  2  3
22  31  3
32  38  3
36  39  3
23  4  3
40  41  8
40  43  8
42  46  8
42  47  8
43  45  8
44  48  8
44  49  8
45  50  8
45  51  8
46  48  8
47  49  8
30  5  3
50  52  8
51  53  8
52  54  8
53  54  8
24  6  3
25  8  3
26  9  3

$$$$
