75079051
 OpenBabel06101807152D

 41 42  0  0  1  0  0  0  0  0999 V2000
    3.4030    1.5000    0.0000 O   0  0  0  0  0  0  0  0  0  0  0  0
    2.5369   -1.0000    0.0000 O   0  0  0  0  0  0  0  0  0  0  0  0
    6.0010    0.0000    0.0000 C   0  0  3  0  0  0  0  0  0  0  0  0
    6.0010    1.0000    0.0000 C   0  0  3  0  0  0  0  0  0  0  0  0
    6.8950   -0.5347    0.0000 C   0  0  3  0  0  0  0  0  0  0  0  0
    6.8950    1.5346    0.0000 C   0  0  0  0  0  0  0  0  0  0  0  0
    7.8010   -0.0208    0.0000 C   0  0  0  0  0  0  0  0  0  0  0  0
    7.8010    1.0208    0.0000 C   0  0  0  0  0  0  0  0  0  0  0  0
    5.1350    1.5000    0.0000 C   0  0  0  0  0  0  0  0  0  0  0  0
    5.1350   -0.5000    0.0000 C   0  0  0  0  0  0  0  0  0  0  0  0
    6.0010   -1.0000    0.0000 C   0  0  0  0  0  0  0  0  0  0  0  0
    4.2690    0.0000    0.0000 C   0  0  0  0  0  0  0  0  0  0  0  0
    6.8834   -1.5346    0.0000 C   0  0  0  0  0  0  0  0  0  0  0  0
    4.2690    1.0000    0.0000 C   0  0  0  0  0  0  0  0  0  0  0  0
    3.4030   -0.5000    0.0000 C   0  0  0  0  0  0  0  0  0  0  0  0
    3.9030   -1.3661    0.0000 C   0  0  0  0  0  0  0  0  0  0  0  0
    2.9030    0.3660    0.0000 C   0  0  0  0  0  0  0  0  0  0  0  0
    5.9963    1.6200    0.0000 H   0  0  0  0  0  0  0  0  0  0  0  0
    7.4289   -0.8499    0.0000 H   0  0  0  0  0  0  0  0  0  0  0  0
    7.2886    2.0136    0.0000 H   0  0  0  0  0  0  0  0  0  0  0  0
    6.4904    2.0044    0.0000 H   0  0  0  0  0  0  0  0  0  0  0  0
    8.0101   -0.6045    0.0000 H   0  0  0  0  0  0  0  0  0  0  0  0
    8.4119    0.0852    0.0000 H   0  0  0  0  0  0  0  0  0  0  0  0
    8.4119    0.9147    0.0000 H   0  0  0  0  0  0  0  0  0  0  0  0
    8.0101    1.6045    0.0000 H   0  0  0  0  0  0  0  0  0  0  0  0
    5.5335    1.9749    0.0000 H   0  0  0  0  0  0  0  0  0  0  0  0
    4.7365    1.9749    0.0000 H   0  0  0  0  0  0  0  0  0  0  0  0
    5.1350   -1.1200    0.0000 H   0  0  0  0  0  0  0  0  0  0  0  0
    5.3810   -1.0000    0.0000 H   0  0  0  0  0  0  0  0  0  0  0  0
    6.0010   -1.6200    0.0000 H   0  0  0  0  0  0  0  0  0  0  0  0
    6.6210   -1.0000    0.0000 H   0  0  0  0  0  0  0  0  0  0  0  0
    6.2635   -1.5275    0.0000 H   0  0  0  0  0  0  0  0  0  0  0  0
    6.8762   -2.1546    0.0000 H   0  0  0  0  0  0  0  0  0  0  0  0
    7.5034   -1.5418    0.0000 H   0  0  0  0  0  0  0  0  0  0  0  0
    3.4399    0.6760    0.0000 H   0  0  0  0  0  0  0  0  0  0  0  0
    2.5930    0.9029    0.0000 H   0  0  0  0  0  0  0  0  0  0  0  0
    2.3660    0.0560    0.0000 H   0  0  0  0  0  0  0  0  0  0  0  0
    3.3660   -1.6761    0.0000 H   0  0  0  0  0  0  0  0  0  0  0  0
    4.2130   -1.9030    0.0000 H   0  0  0  0  0  0  0  0  0  0  0  0
    4.4399   -1.0561    0.0000 H   0  0  0  0  0  0  0  0  0  0  0  0
    2.0000   -0.6900    0.0000 H   0  0  0  0  0  0  0  0  0  0  0  0
  1 14  2  0  0  0  0
  2 15  1  0  0  0  0
  2 41  1  0  0  0  0
  3  4  1  0  0  0  0
  3  5  1  0  0  0  0
  3 10  1  0  0  0  0
  3 11  1  0  0  0  0
  4  6  1  0  0  0  0
  4  9  1  0  0  0  0
  4 18  1  0  0  0  0
  5  7  1  0  0  0  0
  5 13  1  0  0  0  0
  5 19  1  0  0  0  0
  6  8  1  0  0  0  0
  6 20  1  0  0  0  0
  6 21  1  0  0  0  0
  7  8  1  0  0  0  0
  7 22  1  0  0  0  0
  7 23  1  0  0  0  0
  8 24  1  0  0  0  0
  8 25  1  0  0  0  0
  9 14  1  0  0  0  0
  9 26  1  0  0  0  0
  9 27  1  0  0  0  0
 10 12  2  0  0  0  0
 10 28  1  0  0  0  0
 11 29  1  0  0  0  0
 11 30  1  0  0  0  0
 11 31  1  0  0  0  0
 12 14  1  0  0  0  0
 12 15  1  0  0  0  0
 13 32  1  0  0  0  0
 13 33  1  0  0  0  0
 13 34  1  0  0  0  0
 15 16  1  0  0  0  0
 15 17  1  0  0  0  0
 16 38  1  0  0  0  0
 16 39  1  0  0  0  0
 16 40  1  0  0  0  0
 17 35  1  0  0  0  0
 17 36  1  0  0  0  0
 17 37  1  0  0  0  0
M  END
>  <PUBCHEM_COMPOUND_CID>
75079051

>  <PUBCHEM_COMPOUND_CANONICALIZED>
1

>  <PUBCHEM_CACTVS_COMPLEXITY>
367

>  <PUBCHEM_CACTVS_HBOND_ACCEPTOR>
2

>  <PUBCHEM_CACTVS_HBOND_DONOR>
1

>  <PUBCHEM_CACTVS_ROTATABLE_BOND>
1

>  <PUBCHEM_CACTVS_SUBSKEYS>
AAADceBwMAAAAAAAAAAAAAAAAAAAAAAAAAAwQAAAAAAAAACAAAAAGgAACAAAD0SAgAACAAAAAgCIAqBSAAAAAAAgAAAACAEAAEgABBYAAAAAUAAEoAAIEYOIyPCPgAAAAAAAAAAAAAQAACAAAAAAAAAAAA==

>  <PUBCHEM_IUPAC_OPENEYE_NAME>
3-(1-hydroxy-1-methyl-ethyl)-4a,5-dimethyl-1,5,6,7,8,8a-hexahydronaphthalen-2-one

>  <PUBCHEM_IUPAC_CAS_NAME>
3-(2-hydroxypropan-2-yl)-4a,5-dimethyl-1,5,6,7,8,8a-hexahydronaphthalen-2-one

>  <PUBCHEM_IUPAC_NAME>
3-(2-hydroxypropan-2-yl)-4a,5-dimethyl-1,5,6,7,8,8a-hexahydronaphthalen-2-one

>  <PUBCHEM_IUPAC_SYSTEMATIC_NAME>
4a,5-dimethyl-3-(2-oxidanylpropan-2-yl)-1,5,6,7,8,8a-hexahydronaphthalen-2-one

>  <PUBCHEM_IUPAC_TRADITIONAL_NAME>
3-(1-hydroxy-1-methyl-ethyl)-4a,5-dimethyl-1,5,6,7,8,8a-hexahydronaphthalen-2-one

>  <PUBCHEM_IUPAC_INCHI>
InChI=1S/C15H24O2/c1-10-6-5-7-11-8-13(16)12(14(2,3)17)9-15(10,11)4/h9-11,17H,5-8H2,1-4H3

>  <PUBCHEM_IUPAC_INCHIKEY>
LYFRYUAWUBLCKH-UHFFFAOYSA-N

>  <PUBCHEM_XLOGP3_AA>
3.6

>  <PUBCHEM_EXACT_MASS>
236.178

>  <PUBCHEM_MOLECULAR_FORMULA>
C15H24O2

>  <PUBCHEM_MOLECULAR_WEIGHT>
236.355

>  <PUBCHEM_OPENEYE_CAN_SMILES>
CC1CCCC2C1(C=C(C(=O)C2)C(C)(C)O)C

>  <PUBCHEM_OPENEYE_ISO_SMILES>
CC1CCCC2C1(C=C(C(=O)C2)C(C)(C)O)C

>  <PUBCHEM_CACTVS_TPSA>
37.3

>  <PUBCHEM_MONOISOTOPIC_WEIGHT>
236.178

>  <PUBCHEM_TOTAL_CHARGE>
0

>  <PUBCHEM_HEAVY_ATOM_COUNT>
17

>  <PUBCHEM_ATOM_DEF_STEREO_COUNT>
0

>  <PUBCHEM_ATOM_UDEF_STEREO_COUNT>
3

>  <PUBCHEM_BOND_DEF_STEREO_COUNT>
0

>  <PUBCHEM_BOND_UDEF_STEREO_COUNT>
0

>  <PUBCHEM_ISOTOPIC_ATOM_COUNT>
0

>  <PUBCHEM_COMPONENT_COUNT>
1

>  <PUBCHEM_CACTVS_TAUTO_COUNT>
2

>  <PUBCHEM_COORDINATE_TYPE>
1
5
255

>  <PUBCHEM_BONDANNOTATIONS>
3  11  3
4  9  3
5  13  3

$$$$
