75184857
 OpenBabel06101807152D

 78 82  0  0  1  0  0  0  0  0999 V2000
    6.9245   -1.6383    0.0000 O   0  0  0  0  0  0  0  0  0  0  0  0
    5.1370    2.3485    0.0000 O   0  0  0  0  0  0  0  0  0  0  0  0
    8.6565   -1.6383    0.0000 O   0  0  0  0  0  0  0  0  0  0  0  0
    6.0203    0.8586    0.0000 O   0  0  0  0  0  0  0  0  0  0  0  0
    6.9245   -4.6383    0.0000 O   0  0  0  0  0  0  0  0  0  0  0  0
    5.1924   -3.6383    0.0000 O   0  0  0  0  0  0  0  0  0  0  0  0
    2.5564    0.8185    0.0000 O   0  0  0  0  0  0  0  0  0  0  0  0
    2.5333    2.8184    0.0000 O   0  0  0  0  0  0  0  0  0  0  0  0
    8.6565   -3.6383    0.0000 O   0  0  0  0  0  0  0  0  0  0  0  0
    4.2999   -0.1614    0.0000 O   0  0  0  0  0  0  0  0  0  0  0  0
    4.3264   -2.1383    0.0000 O   0  0  0  0  0  0  0  0  0  0  0  0
    3.3819    4.3283    0.0000 O   0  0  0  0  0  0  0  0  0  0  0  0
    9.5226    0.8617    0.0000 O   0  3  0  0  0  0  0  0  0  0  0  0
    7.7784    3.9310    0.0000 O   0  0  0  0  0  0  0  0  0  0  0  0
   11.2546   -3.1383    0.0000 O   0  0  0  0  0  0  0  0  0  0  0  0
   12.9867   -0.1383    0.0000 O   0  0  0  0  0  0  0  0  0  0  0  0
   12.9867   -2.1383    0.0000 O   0  0  0  0  0  0  0  0  0  0  0  0
    6.9245   -3.6383    0.0000 C   0  0  3  0  0  0  0  0  0  0  0  0
    6.0584   -3.1383    0.0000 C   0  0  3  0  0  0  0  0  0  0  0  0
    3.4166    1.3285    0.0000 C   0  0  3  0  0  0  0  0  0  0  0  0
    3.4051    2.3284    0.0000 C   0  0  3  0  0  0  0  0  0  0  0  0
    7.7905   -3.1383    0.0000 C   0  0  3  0  0  0  0  0  0  0  0  0
    4.2884    0.8386    0.0000 C   0  0  3  0  0  0  0  0  0  0  0  0
    6.0584   -2.1383    0.0000 C   0  0  3  0  0  0  0  0  0  0  0  0
    4.2652    2.8384    0.0000 C   0  0  3  0  0  0  0  0  0  0  0  0
    7.7905   -2.1383    0.0000 C   0  0  3  0  0  0  0  0  0  0  0  0
    5.1486    1.3485    0.0000 C   0  0  3  0  0  0  0  0  0  0  0  0
    5.1924   -1.6383    0.0000 C   0  0  0  0  0  0  0  0  0  0  0  0
    4.2537    3.8384    0.0000 C   0  0  0  0  0  0  0  0  0  0  0  0
    8.6565   -0.6383    0.0000 C   0  0  0  0  0  0  0  0  0  0  0  0
    6.8805    1.3686    0.0000 C   0  0  0  0  0  0  0  0  0  0  0  0
    7.7905    0.8617    0.0000 C   0  0  0  0  0  0  0  0  0  0  0  0
    7.7905   -0.1383    0.0000 C   0  0  0  0  0  0  0  0  0  0  0  0
    9.5226   -0.1383    0.0000 C   0  0  0  0  0  0  0  0  0  0  0  0
    8.6565    1.3617    0.0000 C   0  0  0  0  0  0  0  0  0  0  0  0
    6.8725    2.4102    0.0000 C   0  0  0  0  0  0  0  0  0  0  0  0
    8.6726    2.4032    0.0000 C   0  0  0  0  0  0  0  0  0  0  0  0
    7.7746    2.9310    0.0000 C   0  0  0  0  0  0  0  0  0  0  0  0
   10.3886   -0.6383    0.0000 C   0  0  0  0  0  0  0  0  0  0  0  0
   10.3886   -1.6383    0.0000 C   0  0  0  0  0  0  0  0  0  0  0  0
   11.2546   -0.1383    0.0000 C   0  0  0  0  0  0  0  0  0  0  0  0
   11.2546   -2.1383    0.0000 C   0  0  0  0  0  0  0  0  0  0  0  0
   12.1206   -0.6383    0.0000 C   0  0  0  0  0  0  0  0  0  0  0  0
   12.1206   -1.6383    0.0000 C   0  0  0  0  0  0  0  0  0  0  0  0
   12.1206   -3.6383    0.0000 C   0  0  0  0  0  0  0  0  0  0  0  0
    7.4614   -3.9483    0.0000 H   0  0  0  0  0  0  0  0  0  0  0  0
    5.5215   -2.8283    0.0000 H   0  0  0  0  0  0  0  0  0  0  0  0
    3.4238    0.7086    0.0000 H   0  0  0  0  0  0  0  0  0  0  0  0
    2.8718    2.0123    0.0000 H   0  0  0  0  0  0  0  0  0  0  0  0
    8.3274   -2.8283    0.0000 H   0  0  0  0  0  0  0  0  0  0  0  0
    4.8289    0.5348    0.0000 H   0  0  0  0  0  0  0  0  0  0  0  0
    6.0584   -1.5183    0.0000 H   0  0  0  0  0  0  0  0  0  0  0  0
    4.7986    3.1546    0.0000 H   0  0  0  0  0  0  0  0  0  0  0  0
    7.7905   -1.5183    0.0000 H   0  0  0  0  0  0  0  0  0  0  0  0
    5.6819    1.6647    0.0000 H   0  0  0  0  0  0  0  0  0  0  0  0
    5.5910   -1.1633    0.0000 H   0  0  0  0  0  0  0  0  0  0  0  0
    4.7939   -1.1633    0.0000 H   0  0  0  0  0  0  0  0  0  0  0  0
    4.8655    3.7378    0.0000 H   0  0  0  0  0  0  0  0  0  0  0  0
    4.4590    4.4234    0.0000 H   0  0  0  0  0  0  0  0  0  0  0  0
    6.3875   -4.9483    0.0000 H   0  0  0  0  0  0  0  0  0  0  0  0
    5.1924   -4.2583    0.0000 H   0  0  0  0  0  0  0  0  0  0  0  0
    2.0160    1.1223    0.0000 H   0  0  0  0  0  0  0  0  0  0  0  0
    2.0000    2.5022    0.0000 H   0  0  0  0  0  0  0  0  0  0  0  0
    8.6565   -4.2583    0.0000 H   0  0  0  0  0  0  0  0  0  0  0  0
    3.7666   -0.4776    0.0000 H   0  0  0  0  0  0  0  0  0  0  0  0
    7.2536   -0.4483    0.0000 H   0  0  0  0  0  0  0  0  0  0  0  0
    3.7895   -1.8283    0.0000 H   0  0  0  0  0  0  0  0  0  0  0  0
    3.3748    4.9483    0.0000 H   0  0  0  0  0  0  0  0  0  0  0  0
    6.3343    2.7181    0.0000 H   0  0  0  0  0  0  0  0  0  0  0  0
    9.2131    2.7070    0.0000 H   0  0  0  0  0  0  0  0  0  0  0  0
    9.8516   -1.9483    0.0000 H   0  0  0  0  0  0  0  0  0  0  0  0
   11.2546    0.4817    0.0000 H   0  0  0  0  0  0  0  0  0  0  0  0
    8.3165    4.2389    0.0000 H   0  0  0  0  0  0  0  0  0  0  0  0
   12.9867    0.4817    0.0000 H   0  0  0  0  0  0  0  0  0  0  0  0
   13.5236   -1.8283    0.0000 H   0  0  0  0  0  0  0  0  0  0  0  0
   11.8106   -4.1752    0.0000 H   0  0  0  0  0  0  0  0  0  0  0  0
   12.6576   -3.9483    0.0000 H   0  0  0  0  0  0  0  0  0  0  0  0
   12.4306   -3.1013    0.0000 H   0  0  0  0  0  0  0  0  0  0  0  0
  1 24  1  0  0  0  0
  1 26  1  0  0  0  0
  2 25  1  0  0  0  0
  2 27  1  0  0  0  0
  3 26  1  0  0  0  0
  3 30  1  0  0  0  0
  4 27  1  0  0  0  0
  4 31  1  0  0  0  0
  5 18  1  0  0  0  0
  5 60  1  0  0  0  0
  6 19  1  0  0  0  0
  6 61  1  0  0  0  0
  7 20  1  0  0  0  0
  7 62  1  0  0  0  0
  8 21  1  0  0  0  0
  8 63  1  0  0  0  0
  9 22  1  0  0  0  0
  9 64  1  0  0  0  0
 10 23  1  0  0  0  0
 10 65  1  0  0  0  0
 11 28  1  0  0  0  0
 11 67  1  0  0  0  0
 12 29  1  0  0  0  0
 12 68  1  0  0  0  0
 13 34  1  0  0  0  0
 13 35  2  0  0  0  0
 14 38  1  0  0  0  0
 14 73  1  0  0  0  0
 15 42  1  0  0  0  0
 15 45  1  0  0  0  0
 16 43  1  0  0  0  0
 16 74  1  0  0  0  0
 17 44  1  0  0  0  0
 17 75  1  0  0  0  0
 18 19  1  0  0  0  0
 18 22  1  0  0  0  0
 18 46  1  0  0  0  0
 19 24  1  0  0  0  0
 19 47  1  0  0  0  0
 20 21  1  0  0  0  0
 20 23  1  0  0  0  0
 20 48  1  0  0  0  0
 21 25  1  0  0  0  0
 21 49  1  0  0  0  0
 22 26  1  0  0  0  0
 22 50  1  0  0  0  0
 23 27  1  0  0  0  0
 23 51  1  0  0  0  0
 24 28  1  0  0  0  0
 24 52  1  0  0  0  0
 25 29  1  0  0  0  0
 25 53  1  0  0  0  0
 26 54  1  0  0  0  0
 27 55  1  0  0  0  0
 28 56  1  0  0  0  0
 28 57  1  0  0  0  0
 29 58  1  0  0  0  0
 29 59  1  0  0  0  0
 30 33  1  0  0  0  0
 30 34  2  0  0  0  0
 31 32  1  0  0  0  0
 31 36  2  0  0  0  0
 32 33  2  0  0  0  0
 32 35  1  0  0  0  0
 33 66  1  0  0  0  0
 34 39  1  0  0  0  0
 35 37  1  0  0  0  0
 36 38  1  0  0  0  0
 36 69  1  0  0  0  0
 37 38  2  0  0  0  0
 37 70  1  0  0  0  0
 39 40  1  0  0  0  0
 39 41  2  0  0  0  0
 40 42  2  0  0  0  0
 40 71  1  0  0  0  0
 41 43  1  0  0  0  0
 41 72  1  0  0  0  0
 42 44  1  0  0  0  0
 43 44  2  0  0  0  0
 45 76  1  0  0  0  0
 45 77  1  0  0  0  0
 45 78  1  0  0  0  0
M  CHG  1  13   1
M  END
>  <PUBCHEM_COMPOUND_CID>
75184857

>  <PUBCHEM_COMPOUND_CANONICALIZED>
1

>  <PUBCHEM_CACTVS_COMPLEXITY>
947

>  <PUBCHEM_CACTVS_HBOND_ACCEPTOR>
16

>  <PUBCHEM_CACTVS_HBOND_DONOR>
11

>  <PUBCHEM_CACTVS_ROTATABLE_BOND>
8

>  <PUBCHEM_CACTVS_SUBSKEYS>
AAADcfB4PgAAAAAAAAAAAAAAAAAAAAAAAAA0aJECAAAAAACR9AAAGgAACAAADBSwmAMyDsAABkCIAqBSAAICCAAkIAAAiAFGiMgdNzaGNR6ieWOl4BUPuYfK7PzOIAABCAAIQABAAAIQABCAAAAAAAAAAA==

>  <PUBCHEM_IUPAC_OPENEYE_NAME>
2-[2-(3,4-dihydroxy-5-methoxy-phenyl)-7-hydroxy-3-[3,4,5-trihydroxy-6-(hydroxymethyl)tetrahydropyran-2-yl]oxy-chromenylium-5-yl]oxy-6-(hydroxymethyl)tetrahydropyran-3,4,5-triol

>  <PUBCHEM_IUPAC_CAS_NAME>
2-[[2-(3,4-dihydroxy-5-methoxyphenyl)-7-hydroxy-3-[[3,4,5-trihydroxy-6-(hydroxymethyl)-2-oxanyl]oxy]-1-benzopyrylium-5-yl]oxy]-6-(hydroxymethyl)oxane-3,4,5-triol

>  <PUBCHEM_IUPAC_NAME>
2-[2-(3,4-dihydroxy-5-methoxyphenyl)-7-hydroxy-3-[3,4,5-trihydroxy-6-(hydroxymethyl)oxan-2-yl]oxychromenylium-5-yl]oxy-6-(hydroxymethyl)oxane-3,4,5-triol

>  <PUBCHEM_IUPAC_SYSTEMATIC_NAME>
2-(hydroxymethyl)-6-[3-[6-(hydroxymethyl)-3,4,5-tris(oxidanyl)oxan-2-yl]oxy-2-[3-methoxy-4,5-bis(oxidanyl)phenyl]-7-oxidanyl-chromenylium-5-yl]oxy-oxane-3,4,5-triol

>  <PUBCHEM_IUPAC_TRADITIONAL_NAME>
2-[[2-(3,4-dihydroxy-5-methoxy-phenyl)-7-hydroxy-3-(3,4,5-trihydroxy-6-methylol-tetrahydropyran-2-yl)oxy-1-benzopyrylium-5-yl]oxy]-6-methylol-tetrahydropyran-3,4,5-triol

>  <PUBCHEM_IUPAC_INCHI>
InChI=1S/C28H32O17/c1-40-15-3-9(2-12(32)19(15)33)26-16(43-28-25(39)23(37)21(35)18(8-30)45-28)6-11-13(41-26)4-10(31)5-14(11)42-27-24(38)22(36)20(34)17(7-29)44-27/h2-6,17-18,20-25,27-30,34-39H,7-8H2,1H3,(H2-,31,32,33)/p+1

>  <PUBCHEM_IUPAC_INCHIKEY>
KLRABYJGMPNMSA-UHFFFAOYSA-O

>  <PUBCHEM_EXACT_MASS>
641.172

>  <PUBCHEM_MOLECULAR_FORMULA>
C28H33O17+

>  <PUBCHEM_MOLECULAR_WEIGHT>
641.555

>  <PUBCHEM_OPENEYE_CAN_SMILES>
COC1=CC(=CC(=C1O)O)C2=C(C=C3C(=CC(=CC3=[O+]2)O)OC4C(C(C(C(O4)CO)O)O)O)OC5C(C(C(C(O5)CO)O)O)O

>  <PUBCHEM_OPENEYE_ISO_SMILES>
COC1=CC(=CC(=C1O)O)C2=C(C=C3C(=CC(=CC3=[O+]2)O)OC4C(C(C(C(O4)CO)O)O)O)OC5C(C(C(C(O5)CO)O)O)O

>  <PUBCHEM_CACTVS_TPSA>
270

>  <PUBCHEM_MONOISOTOPIC_WEIGHT>
641.172

>  <PUBCHEM_TOTAL_CHARGE>
1

>  <PUBCHEM_HEAVY_ATOM_COUNT>
45

>  <PUBCHEM_ATOM_DEF_STEREO_COUNT>
0

>  <PUBCHEM_ATOM_UDEF_STEREO_COUNT>
10

>  <PUBCHEM_BOND_DEF_STEREO_COUNT>
0

>  <PUBCHEM_BOND_UDEF_STEREO_COUNT>
0

>  <PUBCHEM_ISOTOPIC_ATOM_COUNT>
0

>  <PUBCHEM_COMPONENT_COUNT>
1

>  <PUBCHEM_CACTVS_TAUTO_COUNT>
75

>  <PUBCHEM_COORDINATE_TYPE>
1
5
255

>  <PUBCHEM_BONDANNOTATIONS>
23  10  3
13  34  8
13  35  8
24  28  3
25  29  3
26  3  3
30  33  8
30  34  8
31  32  8
31  36  8
32  33  8
32  35  8
35  37  8
36  38  8
37  38  8
39  40  8
39  41  8
27  4  3
40  42  8
41  43  8
42  44  8
43  44  8
18  5  3
19  6  3
20  7  3
21  8  3
22  9  3

$$$$
