75536015
 OpenBabel06101807152D

 53 52  0  0  1  0  0  0  0  0999 V2000
    4.5981   -5.4050    0.0000 O   0  0  0  0  0  0  0  0  0  0  0  0
    3.7320    5.0950    0.0000 O   0  0  0  0  0  0  0  0  0  0  0  0
    5.4641    5.0950    0.0000 O   0  0  0  0  0  0  0  0  0  0  0  0
    6.3301    1.5950    0.0000 C   0  0  0  0  0  0  0  0  0  0  0  0
    6.3301    0.5950    0.0000 C   0  0  0  0  0  0  0  0  0  0  0  0
    5.4641    2.0950    0.0000 C   0  0  0  0  0  0  0  0  0  0  0  0
    7.1962    0.0950    0.0000 C   0  0  0  0  0  0  0  0  0  0  0  0
    5.4641    3.0950    0.0000 C   0  0  0  0  0  0  0  0  0  0  0  0
    7.1962   -0.9050    0.0000 C   0  0  0  0  0  0  0  0  0  0  0  0
    4.5981   -4.4050    0.0000 C   0  0  3  0  0  0  0  0  0  0  0  0
    3.7320   -3.9050    0.0000 C   0  0  0  0  0  0  0  0  0  0  0  0
    4.5981    3.5950    0.0000 C   0  0  0  0  0  0  0  0  0  0  0  0
    5.4641   -3.9050    0.0000 C   0  0  0  0  0  0  0  0  0  0  0  0
    2.8660   -4.4050    0.0000 C   0  0  0  0  0  0  0  0  0  0  0  0
    8.0622   -1.4050    0.0000 C   0  0  0  0  0  0  0  0  0  0  0  0
    6.3301   -4.4050    0.0000 C   0  0  0  0  0  0  0  0  0  0  0  0
    7.1962   -2.9050    0.0000 C   0  0  0  0  0  0  0  0  0  0  0  0
    8.0622   -2.4050    0.0000 C   0  0  0  0  0  0  0  0  0  0  0  0
    2.0000   -3.9050    0.0000 C   0  0  0  0  0  0  0  0  0  0  0  0
    7.1962   -3.9050    0.0000 C   0  0  0  0  0  0  0  0  0  0  0  0
    4.5981    4.5950    0.0000 C   0  0  0  0  0  0  0  0  0  0  0  0
    6.9407    1.4873    0.0000 H   0  0  0  0  0  0  0  0  0  0  0  0
    6.5422    2.1776    0.0000 H   0  0  0  0  0  0  0  0  0  0  0  0
    5.7196    0.7027    0.0000 H   0  0  0  0  0  0  0  0  0  0  0  0
    6.1181    0.0124    0.0000 H   0  0  0  0  0  0  0  0  0  0  0  0
    4.8535    2.2027    0.0000 H   0  0  0  0  0  0  0  0  0  0  0  0
    5.2520    1.5124    0.0000 H   0  0  0  0  0  0  0  0  0  0  0  0
    7.8067   -0.0127    0.0000 H   0  0  0  0  0  0  0  0  0  0  0  0
    7.4082    0.6776    0.0000 H   0  0  0  0  0  0  0  0  0  0  0  0
    6.0747    2.9873    0.0000 H   0  0  0  0  0  0  0  0  0  0  0  0
    5.6762    3.6776    0.0000 H   0  0  0  0  0  0  0  0  0  0  0  0
    6.5856   -0.7973    0.0000 H   0  0  0  0  0  0  0  0  0  0  0  0
    6.9841   -1.4876    0.0000 H   0  0  0  0  0  0  0  0  0  0  0  0
    5.1350   -4.7150    0.0000 H   0  0  0  0  0  0  0  0  0  0  0  0
    4.1306   -3.4300    0.0000 H   0  0  0  0  0  0  0  0  0  0  0  0
    3.3335   -3.4300    0.0000 H   0  0  0  0  0  0  0  0  0  0  0  0
    3.9875    3.7027    0.0000 H   0  0  0  0  0  0  0  0  0  0  0  0
    4.3860    3.0124    0.0000 H   0  0  0  0  0  0  0  0  0  0  0  0
    5.8626   -3.4300    0.0000 H   0  0  0  0  0  0  0  0  0  0  0  0
    5.0656   -3.4300    0.0000 H   0  0  0  0  0  0  0  0  0  0  0  0
    2.4675   -4.8800    0.0000 H   0  0  0  0  0  0  0  0  0  0  0  0
    3.2646   -4.8800    0.0000 H   0  0  0  0  0  0  0  0  0  0  0  0
    8.5991   -1.0950    0.0000 H   0  0  0  0  0  0  0  0  0  0  0  0
    6.3301   -5.0250    0.0000 H   0  0  0  0  0  0  0  0  0  0  0  0
    6.9841   -2.3224    0.0000 H   0  0  0  0  0  0  0  0  0  0  0  0
    6.5856   -3.0127    0.0000 H   0  0  0  0  0  0  0  0  0  0  0  0
    8.5991   -2.7150    0.0000 H   0  0  0  0  0  0  0  0  0  0  0  0
    2.3100   -3.3681    0.0000 H   0  0  0  0  0  0  0  0  0  0  0  0
    1.4631   -3.5950    0.0000 H   0  0  0  0  0  0  0  0  0  0  0  0
    1.6900   -4.4419    0.0000 H   0  0  0  0  0  0  0  0  0  0  0  0
    7.7331   -4.2150    0.0000 H   0  0  0  0  0  0  0  0  0  0  0  0
    4.0611   -5.7150    0.0000 H   0  0  0  0  0  0  0  0  0  0  0  0
    3.7320    5.7150    0.0000 H   0  0  0  0  0  0  0  0  0  0  0  0
  1 10  1  0  0  0  0
  1 52  1  0  0  0  0
  2 21  1  0  0  0  0
  2 53  1  0  0  0  0
  3 21  2  0  0  0  0
  4  5  1  0  0  0  0
  4  6  1  0  0  0  0
  4 22  1  0  0  0  0
  4 23  1  0  0  0  0
  5  7  1  0  0  0  0
  5 24  1  0  0  0  0
  5 25  1  0  0  0  0
  6  8  1  0  0  0  0
  6 26  1  0  0  0  0
  6 27  1  0  0  0  0
  7  9  1  0  0  0  0
  7 28  1  0  0  0  0
  7 29  1  0  0  0  0
  8 12  1  0  0  0  0
  8 30  1  0  0  0  0
  8 31  1  0  0  0  0
  9 15  1  0  0  0  0
  9 32  1  0  0  0  0
  9 33  1  0  0  0  0
 10 11  1  0  0  0  0
 10 13  1  0  0  0  0
 10 34  1  0  0  0  0
 11 14  1  0  0  0  0
 11 35  1  0  0  0  0
 11 36  1  0  0  0  0
 12 21  1  0  0  0  0
 12 37  1  0  0  0  0
 12 38  1  0  0  0  0
 13 16  1  0  0  0  0
 13 39  1  0  0  0  0
 13 40  1  0  0  0  0
 14 19  1  0  0  0  0
 14 41  1  0  0  0  0
 14 42  1  0  0  0  0
 15 18  2  0  0  0  0
 15 43  1  0  0  0  0
 16 20  2  0  0  0  0
 16 44  1  0  0  0  0
 17 18  1  0  0  0  0
 17 20  1  0  0  0  0
 17 45  1  0  0  0  0
 17 46  1  0  0  0  0
 18 47  1  0  0  0  0
 19 48  1  0  0  0  0
 19 49  1  0  0  0  0
 19 50  1  0  0  0  0
 20 51  1  0  0  0  0
M  END
>  <PUBCHEM_COMPOUND_CID>
75536015

>  <PUBCHEM_COMPOUND_CANONICALIZED>
1

>  <PUBCHEM_CACTVS_COMPLEXITY>
295

>  <PUBCHEM_CACTVS_HBOND_ACCEPTOR>
3

>  <PUBCHEM_CACTVS_HBOND_DONOR>
2

>  <PUBCHEM_CACTVS_ROTATABLE_BOND>
14

>  <PUBCHEM_CACTVS_SUBSKEYS>
AAADcfB4MAAAAAAAAAAAAAAAAAAAAAAAAAAAAAAAAAAAAAAAAAAAGgAACAAACBSggAICCAAAAgCIACDSCAAAAAAgAAAICAEAAAgAEBIAAQAAQAAEwAAIAAOIyKCAAAAAAAAAAAAAAAAAAAAAAAAAAAAAAA==

>  <PUBCHEM_IUPAC_OPENEYE_NAME>
(9Z,12Z)-15-hydroxyoctadeca-9,12-dienoic acid

>  <PUBCHEM_IUPAC_CAS_NAME>
(9Z,12Z)-15-hydroxyoctadeca-9,12-dienoic acid

>  <PUBCHEM_IUPAC_NAME>
(9Z,12Z)-15-hydroxyoctadeca-9,12-dienoic acid

>  <PUBCHEM_IUPAC_SYSTEMATIC_NAME>
(9Z,12Z)-15-oxidanyloctadeca-9,12-dienoic acid

>  <PUBCHEM_IUPAC_TRADITIONAL_NAME>
(9Z,12Z)-15-hydroxyoctadeca-9,12-dienoic acid

>  <PUBCHEM_IUPAC_INCHI>
InChI=1S/C18H32O3/c1-2-14-17(19)15-12-10-8-6-4-3-5-7-9-11-13-16-18(20)21/h4,6,10,12,17,19H,2-3,5,7-9,11,13-16H2,1H3,(H,20,21)/b6-4-,12-10-

>  <PUBCHEM_IUPAC_INCHIKEY>
MZQXAWAWDWCIKG-OHPMOLHNSA-N

>  <PUBCHEM_XLOGP3_AA>
5.1

>  <PUBCHEM_EXACT_MASS>
296.235

>  <PUBCHEM_MOLECULAR_FORMULA>
C18H32O3

>  <PUBCHEM_MOLECULAR_WEIGHT>
296.451

>  <PUBCHEM_OPENEYE_CAN_SMILES>
CCCC(CC=CCC=CCCCCCCCC(=O)O)O

>  <PUBCHEM_OPENEYE_ISO_SMILES>
CCCC(C/C=C\C/C=C\CCCCCCCC(=O)O)O

>  <PUBCHEM_CACTVS_TPSA>
57.5

>  <PUBCHEM_MONOISOTOPIC_WEIGHT>
296.235

>  <PUBCHEM_TOTAL_CHARGE>
0

>  <PUBCHEM_HEAVY_ATOM_COUNT>
21

>  <PUBCHEM_ATOM_DEF_STEREO_COUNT>
0

>  <PUBCHEM_ATOM_UDEF_STEREO_COUNT>
1

>  <PUBCHEM_BOND_DEF_STEREO_COUNT>
2

>  <PUBCHEM_BOND_UDEF_STEREO_COUNT>
0

>  <PUBCHEM_ISOTOPIC_ATOM_COUNT>
0

>  <PUBCHEM_COMPONENT_COUNT>
1

>  <PUBCHEM_CACTVS_TAUTO_COUNT>
1

>  <PUBCHEM_COORDINATE_TYPE>
1
5
255

>  <PUBCHEM_BONDANNOTATIONS>
10  1  3

$$$$
