75815
 OpenBabel06101807152D

 23 23  0  0  0  0  0  0  0  0999 V2000
    4.5981    3.5000    0.0000 S   0  0  0  0  0  0  0  0  0  0  0  0
    4.5981    1.5000    0.0000 N   0  0  0  0  0  0  0  0  0  0  0  0
    2.8660   -0.5000    0.0000 C   0  0  0  0  0  0  0  0  0  0  0  0
    3.7320    0.0000    0.0000 C   0  0  0  0  0  0  0  0  0  0  0  0
    2.8660   -1.5000    0.0000 C   0  0  0  0  0  0  0  0  0  0  0  0
    3.7320    1.0000    0.0000 C   0  0  0  0  0  0  0  0  0  0  0  0
    2.0000   -2.0000    0.0000 C   0  0  0  0  0  0  0  0  0  0  0  0
    3.7320   -2.0000    0.0000 C   0  0  0  0  0  0  0  0  0  0  0  0
    2.0000   -3.0000    0.0000 C   0  0  0  0  0  0  0  0  0  0  0  0
    3.7320   -3.0000    0.0000 C   0  0  0  0  0  0  0  0  0  0  0  0
    2.8660   -3.5000    0.0000 C   0  0  0  0  0  0  0  0  0  0  0  0
    4.5981    2.5000    0.0000 C   0  0  0  0  0  0  0  0  0  0  0  0
    2.6540    0.0826    0.0000 H   0  0  0  0  0  0  0  0  0  0  0  0
    2.2554   -0.6077    0.0000 H   0  0  0  0  0  0  0  0  0  0  0  0
    3.9441   -0.5826    0.0000 H   0  0  0  0  0  0  0  0  0  0  0  0
    4.3426    0.1077    0.0000 H   0  0  0  0  0  0  0  0  0  0  0  0
    3.5200    1.5826    0.0000 H   0  0  0  0  0  0  0  0  0  0  0  0
    3.1215    0.8923    0.0000 H   0  0  0  0  0  0  0  0  0  0  0  0
    1.4631   -1.6900    0.0000 H   0  0  0  0  0  0  0  0  0  0  0  0
    4.2690   -1.6900    0.0000 H   0  0  0  0  0  0  0  0  0  0  0  0
    1.4631   -3.3100    0.0000 H   0  0  0  0  0  0  0  0  0  0  0  0
    4.2690   -3.3100    0.0000 H   0  0  0  0  0  0  0  0  0  0  0  0
    2.8660   -4.1200    0.0000 H   0  0  0  0  0  0  0  0  0  0  0  0
  1 12  2  0  0  0  0
  2  6  1  0  0  0  0
  2 12  2  0  0  0  0
  3  4  1  0  0  0  0
  3  5  1  0  0  0  0
  3 13  1  0  0  0  0
  3 14  1  0  0  0  0
  4  6  1  0  0  0  0
  4 15  1  0  0  0  0
  4 16  1  0  0  0  0
  5  7  2  0  0  0  0
  5  8  1  0  0  0  0
  6 17  1  0  0  0  0
  6 18  1  0  0  0  0
  7  9  1  0  0  0  0
  7 19  1  0  0  0  0
  8 10  2  0  0  0  0
  8 20  1  0  0  0  0
  9 11  2  0  0  0  0
  9 21  1  0  0  0  0
 10 11  1  0  0  0  0
 10 22  1  0  0  0  0
 11 23  1  0  0  0  0
M  END
>  <PUBCHEM_COMPOUND_CID>
75815

>  <PUBCHEM_COMPOUND_CANONICALIZED>
1

>  <PUBCHEM_CACTVS_COMPLEXITY>
155

>  <PUBCHEM_CACTVS_HBOND_ACCEPTOR>
2

>  <PUBCHEM_CACTVS_HBOND_DONOR>
0

>  <PUBCHEM_CACTVS_ROTATABLE_BOND>
4

>  <PUBCHEM_CACTVS_SUBSKEYS>
AAADccByAABAAAAAAAAAAAAAAAAAAAAAAAAwAAAAAAAAAAABAAAAHAQAAAAADADBGAQwAIIAAACkAiBCBAACAAAgAAAIiAAAAIgIICKAkRCAIAAggAAIiAcQgIAOAAAAAAAAAAAAAAAAAAAAAAAAAAAAAA==

>  <PUBCHEM_IUPAC_OPENEYE_NAME>
3-isothiocyanatopropylbenzene

>  <PUBCHEM_IUPAC_CAS_NAME>
3-isothiocyanatopropylbenzene

>  <PUBCHEM_IUPAC_NAME>
3-isothiocyanatopropylbenzene

>  <PUBCHEM_IUPAC_SYSTEMATIC_NAME>
3-isothiocyanatopropylbenzene

>  <PUBCHEM_IUPAC_TRADITIONAL_NAME>
3-isothiocyanatopropylbenzene

>  <PUBCHEM_IUPAC_INCHI>
InChI=1S/C10H11NS/c12-9-11-8-4-7-10-5-2-1-3-6-10/h1-3,5-6H,4,7-8H2

>  <PUBCHEM_IUPAC_INCHIKEY>
GRUOGLPIAPZLHJ-UHFFFAOYSA-N

>  <PUBCHEM_XLOGP3_AA>
3.9

>  <PUBCHEM_EXACT_MASS>
177.061

>  <PUBCHEM_MOLECULAR_FORMULA>
C10H11NS

>  <PUBCHEM_MOLECULAR_WEIGHT>
177.265

>  <PUBCHEM_OPENEYE_CAN_SMILES>
C1=CC=C(C=C1)CCCN=C=S

>  <PUBCHEM_OPENEYE_ISO_SMILES>
C1=CC=C(C=C1)CCCN=C=S

>  <PUBCHEM_CACTVS_TPSA>
44.4

>  <PUBCHEM_MONOISOTOPIC_WEIGHT>
177.061

>  <PUBCHEM_TOTAL_CHARGE>
0

>  <PUBCHEM_HEAVY_ATOM_COUNT>
12

>  <PUBCHEM_ATOM_DEF_STEREO_COUNT>
0

>  <PUBCHEM_ATOM_UDEF_STEREO_COUNT>
0

>  <PUBCHEM_BOND_DEF_STEREO_COUNT>
0

>  <PUBCHEM_BOND_UDEF_STEREO_COUNT>
0

>  <PUBCHEM_ISOTOPIC_ATOM_COUNT>
0

>  <PUBCHEM_COMPONENT_COUNT>
1

>  <PUBCHEM_CACTVS_TAUTO_COUNT>
1

>  <PUBCHEM_COORDINATE_TYPE>
1
5
255

>  <PUBCHEM_BONDANNOTATIONS>
10  11  8
5  7  8
5  8  8
7  9  8
8  10  8
9  11  8

$$$$
