76376878
 OpenBabel06101807152D

 62 64  0  0  1  0  0  0  0  0999 V2000
    9.4651   -2.9050    0.0000 O   0  0  0  0  0  0  0  0  0  0  0  0
    7.7331   -0.9050    0.0000 O   0  0  0  0  0  0  0  0  0  0  0  0
   10.4357   -1.4105    0.0000 O   0  0  0  0  0  0  0  0  0  0  0  0
    6.0010    0.0950    0.0000 O   0  0  0  0  0  0  0  0  0  0  0  0
    5.1350    1.5950    0.0000 O   0  0  0  0  0  0  0  0  0  0  0  0
    7.7331   -3.9050    0.0000 O   0  0  0  0  0  0  0  0  0  0  0  0
    6.0010   -2.9050    0.0000 O   0  0  0  0  0  0  0  0  0  0  0  0
    9.4651   -0.9050    0.0000 O   0  0  0  0  0  0  0  0  0  0  0  0
   11.4526   -3.7899    0.0000 O   0  0  0  0  0  0  0  0  0  0  0  0
   12.9084   -2.1731    0.0000 O   0  0  0  0  0  0  0  0  0  0  0  0
    4.2690   -0.9050    0.0000 O   0  0  0  0  0  0  0  0  0  0  0  0
    2.5369    0.0950    0.0000 O   0  0  0  0  0  0  0  0  0  0  0  0
    2.5369    2.0950    0.0000 O   0  0  0  0  0  0  0  0  0  0  0  0
   12.8151   -0.1845    0.0000 O   0  0  0  0  0  0  0  0  0  0  0  0
    5.1350    3.5950    0.0000 O   0  0  0  0  0  0  0  0  0  0  0  0
    8.5991   -2.4050    0.0000 C   0  0  3  0  0  0  0  0  0  0  0  0
    7.7331   -2.9050    0.0000 C   0  0  3  0  0  0  0  0  0  0  0  0
    6.8671   -2.4050    0.0000 C   0  0  3  0  0  0  0  0  0  0  0  0
    6.8671   -1.4050    0.0000 C   0  0  3  0  0  0  0  0  0  0  0  0
   10.3312   -2.4050    0.0000 C   0  0  3  0  0  0  0  0  0  0  0  0
    8.5991   -1.4050    0.0000 C   0  0  3  0  0  0  0  0  0  0  0  0
   11.2447   -2.8117    0.0000 C   0  0  3  0  0  0  0  0  0  0  0  0
   11.9138   -2.0686    0.0000 C   0  0  3  0  0  0  0  0  0  0  0  0
   11.4138   -1.2026    0.0000 C   0  0  3  0  0  0  0  0  0  0  0  0
    6.0010   -0.9050    0.0000 C   0  0  0  0  0  0  0  0  0  0  0  0
    5.1350    0.5950    0.0000 C   0  0  3  0  0  0  0  0  0  0  0  0
    4.2690    0.0950    0.0000 C   0  0  3  0  0  0  0  0  0  0  0  0
    3.4030    0.5950    0.0000 C   0  0  3  0  0  0  0  0  0  0  0  0
    3.4030    1.5950    0.0000 C   0  0  3  0  0  0  0  0  0  0  0  0
    4.2690    2.0950    0.0000 C   0  0  3  0  0  0  0  0  0  0  0  0
   11.8206   -0.2890    0.0000 C   0  0  0  0  0  0  0  0  0  0  0  0
    4.2690    3.0950    0.0000 C   0  0  0  0  0  0  0  0  0  0  0  0
    8.5991   -3.0250    0.0000 H   0  0  0  0  0  0  0  0  0  0  0  0
    7.1962   -3.2150    0.0000 H   0  0  0  0  0  0  0  0  0  0  0  0
    6.3301   -2.0950    0.0000 H   0  0  0  0  0  0  0  0  0  0  0  0
    6.8671   -0.7850    0.0000 H   0  0  0  0  0  0  0  0  0  0  0  0
    9.8112   -2.0673    0.0000 H   0  0  0  0  0  0  0  0  0  0  0  0
    8.5991   -0.7850    0.0000 H   0  0  0  0  0  0  0  0  0  0  0  0
   11.8436   -2.9722    0.0000 H   0  0  0  0  0  0  0  0  0  0  0  0
   12.2515   -1.5486    0.0000 H   0  0  0  0  0  0  0  0  0  0  0  0
   11.0237   -0.7207    0.0000 H   0  0  0  0  0  0  0  0  0  0  0  0
    5.3905   -0.7973    0.0000 H   0  0  0  0  0  0  0  0  0  0  0  0
    5.7890   -1.4876    0.0000 H   0  0  0  0  0  0  0  0  0  0  0  0
    5.1350   -0.0250    0.0000 H   0  0  0  0  0  0  0  0  0  0  0  0
    3.7320   -0.2150    0.0000 H   0  0  0  0  0  0  0  0  0  0  0  0
    2.8660    0.9050    0.0000 H   0  0  0  0  0  0  0  0  0  0  0  0
    3.4030    2.2150    0.0000 H   0  0  0  0  0  0  0  0  0  0  0  0
    4.8059    2.4050    0.0000 H   0  0  0  0  0  0  0  0  0  0  0  0
   11.8638    0.3295    0.0000 H   0  0  0  0  0  0  0  0  0  0  0  0
   11.2190   -0.1390    0.0000 H   0  0  0  0  0  0  0  0  0  0  0  0
    7.1962   -4.2150    0.0000 H   0  0  0  0  0  0  0  0  0  0  0  0
    5.4641   -2.5950    0.0000 H   0  0  0  0  0  0  0  0  0  0  0  0
    4.0569    3.6776    0.0000 H   0  0  0  0  0  0  0  0  0  0  0  0
    3.6584    2.9873    0.0000 H   0  0  0  0  0  0  0  0  0  0  0  0
    9.4651   -0.2850    0.0000 H   0  0  0  0  0  0  0  0  0  0  0  0
   12.0423   -3.9815    0.0000 H   0  0  0  0  0  0  0  0  0  0  0  0
   13.1605   -2.7395    0.0000 H   0  0  0  0  0  0  0  0  0  0  0  0
    3.7320   -1.2150    0.0000 H   0  0  0  0  0  0  0  0  0  0  0  0
    2.0000    0.4050    0.0000 H   0  0  0  0  0  0  0  0  0  0  0  0
    2.5369    2.7150    0.0000 H   0  0  0  0  0  0  0  0  0  0  0  0
   13.0673    0.3819    0.0000 H   0  0  0  0  0  0  0  0  0  0  0  0
    5.1350    4.2150    0.0000 H   0  0  0  0  0  0  0  0  0  0  0  0
  1 16  1  0  0  0  0
  1 20  1  0  0  0  0
  2 19  1  0  0  0  0
  2 21  1  0  0  0  0
  3 20  1  0  0  0  0
  3 24  1  0  0  0  0
  4 25  1  0  0  0  0
  4 26  1  0  0  0  0
  5 26  1  0  0  0  0
  5 30  1  0  0  0  0
  6 17  1  0  0  0  0
  6 51  1  0  0  0  0
  7 18  1  0  0  0  0
  7 52  1  0  0  0  0
  8 21  1  0  0  0  0
  8 55  1  0  0  0  0
  9 22  1  0  0  0  0
  9 56  1  0  0  0  0
 10 23  1  0  0  0  0
 10 57  1  0  0  0  0
 11 27  1  0  0  0  0
 11 58  1  0  0  0  0
 12 28  1  0  0  0  0
 12 59  1  0  0  0  0
 13 29  1  0  0  0  0
 13 60  1  0  0  0  0
 14 31  1  0  0  0  0
 14 61  1  0  0  0  0
 15 32  1  0  0  0  0
 15 62  1  0  0  0  0
 16 17  1  0  0  0  0
 16 21  1  0  0  0  0
 16 33  1  0  0  0  0
 17 18  1  0  0  0  0
 17 34  1  0  0  0  0
 18 19  1  0  0  0  0
 18 35  1  0  0  0  0
 19 25  1  0  0  0  0
 19 36  1  0  0  0  0
 20 22  1  0  0  0  0
 20 37  1  0  0  0  0
 21 38  1  0  0  0  0
 22 23  1  0  0  0  0
 22 39  1  0  0  0  0
 23 24  1  0  0  0  0
 23 40  1  0  0  0  0
 24 31  1  0  0  0  0
 24 41  1  0  0  0  0
 25 42  1  0  0  0  0
 25 43  1  0  0  0  0
 26 27  1  0  0  0  0
 26 44  1  0  0  0  0
 27 28  1  0  0  0  0
 27 45  1  0  0  0  0
 28 29  1  0  0  0  0
 28 46  1  0  0  0  0
 29 30  1  0  0  0  0
 29 47  1  0  0  0  0
 30 32  1  0  0  0  0
 30 48  1  0  0  0  0
 31 49  1  0  0  0  0
 31 50  1  0  0  0  0
 32 53  1  0  0  0  0
 32 54  1  0  0  0  0
M  END
>  <PUBCHEM_COMPOUND_CID>
76376878

>  <PUBCHEM_COMPOUND_CANONICALIZED>
1

>  <PUBCHEM_CACTVS_COMPLEXITY>
596

>  <PUBCHEM_CACTVS_HBOND_ACCEPTOR>
15

>  <PUBCHEM_CACTVS_HBOND_DONOR>
10

>  <PUBCHEM_CACTVS_ROTATABLE_BOND>
7

>  <PUBCHEM_CACTVS_SUBSKEYS>
AAADceB4PAAAAAAAAAAAAAAAAAAAASAAAAAkSAAAAAAAAAAAAAAAGgAACAAACBSwgAMACAAABgAAAAAAAAAAAAAAAAAAAAAAAAAREAIAAAAiQAAFAAAHAAHAYAwAAAAAAAAAAAAAAAAAAAAAAAAAAAAAAA==

>  <PUBCHEM_IUPAC_OPENEYE_NAME>
2-[[5-[3,4-dihydroxy-5-(hydroxymethyl)tetrahydrofuran-2-yl]oxy-3,4,6-trihydroxy-tetrahydropyran-2-yl]methoxy]-6-(hydroxymethyl)tetrahydropyran-3,4,5-triol

>  <PUBCHEM_IUPAC_CAS_NAME>
2-[[5-[[3,4-dihydroxy-5-(hydroxymethyl)-2-oxolanyl]oxy]-3,4,6-trihydroxy-2-oxanyl]methoxy]-6-(hydroxymethyl)oxane-3,4,5-triol

>  <PUBCHEM_IUPAC_NAME>
2-[[5-[3,4-dihydroxy-5-(hydroxymethyl)oxolan-2-yl]oxy-3,4,6-trihydroxyoxan-2-yl]methoxy]-6-(hydroxymethyl)oxane-3,4,5-triol

>  <PUBCHEM_IUPAC_SYSTEMATIC_NAME>
2-(hydroxymethyl)-6-[[5-[5-(hydroxymethyl)-3,4-bis(oxidanyl)oxolan-2-yl]oxy-3,4,6-tris(oxidanyl)oxan-2-yl]methoxy]oxane-3,4,5-triol

>  <PUBCHEM_IUPAC_TRADITIONAL_NAME>
2-[[5-(3,4-dihydroxy-5-methylol-tetrahydrofuran-2-yl)oxy-3,4,6-trihydroxy-tetrahydropyran-2-yl]methoxy]-6-methylol-tetrahydropyran-3,4,5-triol

>  <PUBCHEM_IUPAC_INCHI>
InChI=1S/C17H30O15/c18-1-4-7(20)10(23)13(26)16(30-4)28-3-6-9(22)11(24)14(15(27)29-6)32-17-12(25)8(21)5(2-19)31-17/h4-27H,1-3H2

>  <PUBCHEM_IUPAC_INCHIKEY>
KXPJZDSXKZWJBT-UHFFFAOYSA-N

>  <PUBCHEM_XLOGP3_AA>
-5.7

>  <PUBCHEM_EXACT_MASS>
474.158

>  <PUBCHEM_MOLECULAR_FORMULA>
C17H30O15

>  <PUBCHEM_MOLECULAR_WEIGHT>
474.412

>  <PUBCHEM_OPENEYE_CAN_SMILES>
C(C1C(C(C(C(O1)OCC2C(C(C(C(O2)O)OC3C(C(C(O3)CO)O)O)O)O)O)O)O)O

>  <PUBCHEM_OPENEYE_ISO_SMILES>
C(C1C(C(C(C(O1)OCC2C(C(C(C(O2)O)OC3C(C(C(O3)CO)O)O)O)O)O)O)O)O

>  <PUBCHEM_CACTVS_TPSA>
248

>  <PUBCHEM_MONOISOTOPIC_WEIGHT>
474.158

>  <PUBCHEM_TOTAL_CHARGE>
0

>  <PUBCHEM_HEAVY_ATOM_COUNT>
32

>  <PUBCHEM_ATOM_DEF_STEREO_COUNT>
0

>  <PUBCHEM_ATOM_UDEF_STEREO_COUNT>
14

>  <PUBCHEM_BOND_DEF_STEREO_COUNT>
0

>  <PUBCHEM_BOND_UDEF_STEREO_COUNT>
0

>  <PUBCHEM_ISOTOPIC_ATOM_COUNT>
0

>  <PUBCHEM_COMPONENT_COUNT>
1

>  <PUBCHEM_CACTVS_TAUTO_COUNT>
1

>  <PUBCHEM_COORDINATE_TYPE>
1
5
255

>  <PUBCHEM_BONDANNOTATIONS>
16  1  3
20  1  3
23  10  3
27  11  3
28  12  3
29  13  3
19  25  3
24  31  3
30  32  3
26  4  3
17  6  3
18  7  3
21  8  3
22  9  3

$$$$
