76390859
 OpenBabel06101807152D

 34 37  0  0  1  0  0  0  0  0999 V2000
    5.5022   -0.9259    0.0000 O   0  0  0  0  0  0  0  0  0  0  0  0
    3.7320    1.1329    0.0000 O   0  0  0  0  0  0  0  0  0  0  0  0
    9.0744    0.9135    0.0000 O   0  0  0  0  0  0  0  0  0  0  0  0
    9.0744   -0.6960    0.0000 O   0  0  0  0  0  0  0  0  0  0  0  0
    5.5138    2.1433    0.0000 O   0  0  0  0  0  0  0  0  0  0  0  0
    7.2622    2.1087    0.0000 O   0  0  0  0  0  0  0  0  0  0  0  0
    4.5961   -0.4121    0.0000 C   0  0  3  0  0  0  0  0  0  0  0  0
    4.5961    0.6296    0.0000 C   0  0  3  0  0  0  0  0  0  0  0  0
    6.3961    0.6087    0.0000 C   0  0  0  0  0  0  0  0  0  0  0  0
    6.3961   -0.3913    0.0000 C   0  0  0  0  0  0  0  0  0  0  0  0
    5.5022    1.1434    0.0000 C   0  0  0  0  0  0  0  0  0  0  0  0
    3.7320   -0.9154    0.0000 C   0  0  0  0  0  0  0  0  0  0  0  0
    7.2622    1.1087    0.0000 C   0  0  0  0  0  0  0  0  0  0  0  0
    7.2622   -0.8913    0.0000 C   0  0  0  0  0  0  0  0  0  0  0  0
    8.1282    0.6087    0.0000 C   0  0  0  0  0  0  0  0  0  0  0  0
    8.1282   -0.3913    0.0000 C   0  0  0  0  0  0  0  0  0  0  0  0
    2.8641   -0.4188    0.0000 C   0  0  0  0  0  0  0  0  0  0  0  0
    3.7359   -1.9154    0.0000 C   0  0  0  0  0  0  0  0  0  0  0  0
    9.6580    0.1087    0.0000 C   0  0  0  0  0  0  0  0  0  0  0  0
    2.0000   -0.9221    0.0000 C   0  0  0  0  0  0  0  0  0  0  0  0
    2.8718   -2.4187    0.0000 C   0  0  0  0  0  0  0  0  0  0  0  0
    2.0038   -1.9221    0.0000 C   0  0  0  0  0  0  0  0  0  0  0  0
    4.5997   -1.0321    0.0000 H   0  0  0  0  0  0  0  0  0  0  0  0
    4.5997    1.2495    0.0000 H   0  0  0  0  0  0  0  0  0  0  0  0
    7.2622   -1.5113    0.0000 H   0  0  0  0  0  0  0  0  0  0  0  0
    2.8617    0.2012    0.0000 H   0  0  0  0  0  0  0  0  0  0  0  0
    4.2740   -2.2233    0.0000 H   0  0  0  0  0  0  0  0  0  0  0  0
    3.7344    1.7529    0.0000 H   0  0  0  0  0  0  0  0  0  0  0  0
   10.1189   -0.3060    0.0000 H   0  0  0  0  0  0  0  0  0  0  0  0
   10.1189    0.5235    0.0000 H   0  0  0  0  0  0  0  0  0  0  0  0
    1.4619   -0.6142    0.0000 H   0  0  0  0  0  0  0  0  0  0  0  0
    2.8742   -3.0387    0.0000 H   0  0  0  0  0  0  0  0  0  0  0  0
    7.7991    2.4187    0.0000 H   0  0  0  0  0  0  0  0  0  0  0  0
    1.4681   -2.2342    0.0000 H   0  0  0  0  0  0  0  0  0  0  0  0
  1  7  1  0  0  0  0
  1 10  1  0  0  0  0
  2  8  1  0  0  0  0
  2 28  1  0  0  0  0
  3 15  1  0  0  0  0
  3 19  1  0  0  0  0
  4 16  1  0  0  0  0
  4 19  1  0  0  0  0
  5 11  2  0  0  0  0
  6 13  1  0  0  0  0
  6 33  1  0  0  0  0
  7  8  1  0  0  0  0
  7 12  1  0  0  0  0
  7 23  1  0  0  0  0
  8 11  1  0  0  0  0
  8 24  1  0  0  0  0
  9 10  1  0  0  0  0
  9 11  1  0  0  0  0
  9 13  2  0  0  0  0
 10 14  2  0  0  0  0
 12 17  2  0  0  0  0
 12 18  1  0  0  0  0
 13 15  1  0  0  0  0
 14 16  1  0  0  0  0
 14 25  1  0  0  0  0
 15 16  2  0  0  0  0
 17 20  1  0  0  0  0
 17 26  1  0  0  0  0
 18 21  2  0  0  0  0
 18 27  1  0  0  0  0
 19 29  1  0  0  0  0
 19 30  1  0  0  0  0
 20 22  2  0  0  0  0
 20 31  1  0  0  0  0
 21 22  1  0  0  0  0
 21 32  1  0  0  0  0
 22 34  1  0  0  0  0
M  END
>  <PUBCHEM_COMPOUND_CID>
76390859

>  <PUBCHEM_COMPOUND_CANONICALIZED>
1

>  <PUBCHEM_CACTVS_COMPLEXITY>
434

>  <PUBCHEM_CACTVS_HBOND_ACCEPTOR>
6

>  <PUBCHEM_CACTVS_HBOND_DONOR>
2

>  <PUBCHEM_CACTVS_ROTATABLE_BOND>
1

>  <PUBCHEM_CACTVS_SUBSKEYS>
AAADccB4OAAAAAAAAAAAAAAAAAAAASAAAAA0YIAAAAAAAEiRQAAAGgAACAAADBSgmAMwDoAABgCIAqBSAAICCAAkIAAIiAFGiMgdNzaGNRqieWOl4BUPuQfK7PzOIQABCAAIQABCAAIQABCAAAAAAAAAAA==

>  <PUBCHEM_IUPAC_OPENEYE_NAME>
7,9-dihydroxy-6-phenyl-6,7-dihydro-[1,3]dioxolo[4,5-g]chromen-8-one

>  <PUBCHEM_IUPAC_CAS_NAME>
7,9-dihydroxy-6-phenyl-6,7-dihydro-[1,3]dioxolo[4,5-g][1]benzopyran-8-one

>  <PUBCHEM_IUPAC_NAME>
7,9-dihydroxy-6-phenyl-6,7-dihydro-[1,3]dioxolo[4,5-g]chromen-8-one

>  <PUBCHEM_IUPAC_SYSTEMATIC_NAME>
7,9-bis(oxidanyl)-6-phenyl-6,7-dihydro-[1,3]dioxolo[4,5-g]chromen-8-one

>  <PUBCHEM_IUPAC_TRADITIONAL_NAME>
7,9-dihydroxy-6-phenyl-6,7-dihydro-[1,3]dioxolo[4,5-g]chromen-8-one

>  <PUBCHEM_IUPAC_INCHI>
InChI=1S/C16H12O6/c17-12-11-9(6-10-16(13(11)18)21-7-20-10)22-15(14(12)19)8-4-2-1-3-5-8/h1-6,14-15,18-19H,7H2

>  <PUBCHEM_IUPAC_INCHIKEY>
WVADKXWSLHLDCL-UHFFFAOYSA-N

>  <PUBCHEM_XLOGP3_AA>
2.4

>  <PUBCHEM_EXACT_MASS>
300.063

>  <PUBCHEM_MOLECULAR_FORMULA>
C16H12O6

>  <PUBCHEM_MOLECULAR_WEIGHT>
300.266

>  <PUBCHEM_OPENEYE_CAN_SMILES>
C1OC2=C(O1)C(=C3C(=C2)OC(C(C3=O)O)C4=CC=CC=C4)O

>  <PUBCHEM_OPENEYE_ISO_SMILES>
C1OC2=C(O1)C(=C3C(=C2)OC(C(C3=O)O)C4=CC=CC=C4)O

>  <PUBCHEM_CACTVS_TPSA>
85.2

>  <PUBCHEM_MONOISOTOPIC_WEIGHT>
300.063

>  <PUBCHEM_TOTAL_CHARGE>
0

>  <PUBCHEM_HEAVY_ATOM_COUNT>
22

>  <PUBCHEM_ATOM_DEF_STEREO_COUNT>
0

>  <PUBCHEM_ATOM_UDEF_STEREO_COUNT>
2

>  <PUBCHEM_BOND_DEF_STEREO_COUNT>
0

>  <PUBCHEM_BOND_UDEF_STEREO_COUNT>
0

>  <PUBCHEM_ISOTOPIC_ATOM_COUNT>
0

>  <PUBCHEM_COMPONENT_COUNT>
1

>  <PUBCHEM_CACTVS_TAUTO_COUNT>
13

>  <PUBCHEM_COORDINATE_TYPE>
1
5
255

>  <PUBCHEM_BONDANNOTATIONS>
10  14  8
12  17  8
12  18  8
13  15  8
14  16  8
15  16  8
17  20  8
18  21  8
8  2  3
20  22  8
21  22  8
7  12  3
9  10  8
9  13  8

$$$$
