76401311
 OpenBabel06101807152D

122128  0  0  1  0  0  0  0  0999 V2000
    6.8671   -5.0496    0.0000 O   0  0  0  0  0  0  0  0  0  0  0  0
    5.0597   -3.9968    0.0000 O   0  0  0  0  0  0  0  0  0  0  0  0
    8.6209    4.2298    0.0000 O   0  0  0  0  0  0  0  0  0  0  0  0
    9.3112   -4.3579    0.0000 O   0  0  0  0  0  0  0  0  0  0  0  0
    9.5042    2.7400    0.0000 O   0  0  0  0  0  0  0  0  0  0  0  0
    5.1350   -5.0496    0.0000 O   0  0  0  0  0  0  0  0  0  0  0  0
    9.4695    5.7398    0.0000 O   0  0  0  0  0  0  0  0  0  0  0  0
    6.8671   -7.0496    0.0000 O   0  0  0  0  0  0  0  0  0  0  0  0
    5.1350   -8.0496    0.0000 O   0  0  0  0  0  0  0  0  0  0  0  0
   10.3644    3.2499    0.0000 O   0  0  0  0  0  0  0  0  0  0  0  0
    3.4030   -7.0496    0.0000 O   0  0  0  0  0  0  0  0  0  0  0  0
   12.0847    4.2699    0.0000 O   0  0  0  0  0  0  0  0  0  0  0  0
   12.0616    6.2698    0.0000 O   0  0  0  0  0  0  0  0  0  0  0  0
    2.5369   -5.5496    0.0000 O   0  0  0  0  0  0  0  0  0  0  0  0
    3.4030   -4.0496    0.0000 O   0  0  0  0  0  0  0  0  0  0  0  0
    9.4464    7.7396    0.0000 O   0  0  0  0  0  0  0  0  0  0  0  0
    7.7681   -0.3494    0.0000 C   0  0  3  0  0  0  0  0  0  0  0  0
    6.9040   -0.8527    0.0000 C   0  0  3  0  0  0  0  0  0  0  0  0
    6.8920   -1.8943    0.0000 C   0  0  3  0  0  0  0  0  0  0  0  0
    7.7643    0.6506    0.0000 C   0  0  3  0  0  0  0  0  0  0  0  0
    7.7920   -2.4186    0.0000 C   0  0  3  0  0  0  0  0  0  0  0  0
    8.6801   -0.8527    0.0000 C   0  0  0  0  0  0  0  0  0  0  0  0
    6.8963    1.1473    0.0000 C   0  0  0  0  0  0  0  0  0  0  0  0
    8.6921   -1.8943    0.0000 C   0  0  0  0  0  0  0  0  0  0  0  0
    7.8046   -3.5035    0.0000 C   0  0  3  0  0  0  0  0  0  0  0  0
    6.8762    2.1887    0.0000 C   0  0  3  0  0  0  0  0  0  0  0  0
    6.0361   -0.3560    0.0000 C   0  0  0  0  0  0  0  0  0  0  0  0
    5.9421   -2.4186    0.0000 C   0  0  0  0  0  0  0  0  0  0  0  0
    8.6723    1.1610    0.0000 C   0  0  0  0  0  0  0  0  0  0  0  0
    7.7722    2.7199    0.0000 C   0  0  3  0  0  0  0  0  0  0  0  0
    8.7522   -0.1719    0.0000 C   0  0  0  0  0  0  0  0  0  0  0  0
    8.6763    2.2026    0.0000 C   0  0  0  0  0  0  0  0  0  0  0  0
    6.8671   -4.0496    0.0000 C   0  0  3  0  0  0  0  0  0  0  0  0
    6.0322    0.6440    0.0000 C   0  0  0  0  0  0  0  0  0  0  0  0
    6.0279   -1.3909    0.0000 C   0  0  0  0  0  0  0  0  0  0  0  0
    5.9295   -3.5035    0.0000 C   0  0  3  0  0  0  0  0  0  0  0  0
    8.7497    0.4808    0.0000 C   0  0  0  0  0  0  0  0  0  0  0  0
    5.9223    2.7057    0.0000 C   0  0  0  0  0  0  0  0  0  0  0  0
    7.7764    3.8049    0.0000 C   0  0  0  0  0  0  0  0  0  0  0  0
    5.9014    3.7905    0.0000 C   0  0  0  0  0  0  0  0  0  0  0  0
    6.8347    4.3438    0.0000 C   0  0  0  0  0  0  0  0  0  0  0  0
    8.3113   -4.3656    0.0000 C   0  0  0  0  0  0  0  0  0  0  0  0
    8.8046   -3.4958    0.0000 C   0  0  0  0  0  0  0  0  0  0  0  0
    8.6324    3.2299    0.0000 C   0  0  0  0  0  0  0  0  0  0  0  0
    5.3881    4.6487    0.0000 C   0  0  0  0  0  0  0  0  0  0  0  0
    4.9015    3.7750    0.0000 C   0  0  0  0  0  0  0  0  0  0  0  0
    6.0010   -5.5496    0.0000 C   0  0  3  0  0  0  0  0  0  0  0  0
    6.0010   -6.5496    0.0000 C   0  0  3  0  0  0  0  0  0  0  0  0
    9.4810    4.7398    0.0000 C   0  0  3  0  0  0  0  0  0  0  0  0
    5.1350   -7.0496    0.0000 C   0  0  3  0  0  0  0  0  0  0  0  0
    4.2690   -5.5496    0.0000 C   0  0  3  0  0  0  0  0  0  0  0  0
   10.3528    4.2499    0.0000 C   0  0  3  0  0  0  0  0  0  0  0  0
    4.2690   -6.5496    0.0000 C   0  0  3  0  0  0  0  0  0  0  0  0
   11.2130    4.7599    0.0000 C   0  0  3  0  0  0  0  0  0  0  0  0
   10.3297    6.2497    0.0000 C   0  0  3  0  0  0  0  0  0  0  0  0
   11.2014    5.7598    0.0000 C   0  0  3  0  0  0  0  0  0  0  0  0
    3.4030   -5.0496    0.0000 C   0  0  0  0  0  0  0  0  0  0  0  0
   10.3181    7.2497    0.0000 C   0  0  0  0  0  0  0  0  0  0  0  0
    7.4398   -1.1648    0.0000 H   0  0  0  0  0  0  0  0  0  0  0  0
    8.3314   -2.7244    0.0000 H   0  0  0  0  0  0  0  0  0  0  0  0
    9.2921   -0.9517    0.0000 H   0  0  0  0  0  0  0  0  0  0  0  0
    8.8824   -0.2666    0.0000 H   0  0  0  0  0  0  0  0  0  0  0  0
    8.9079   -2.4755    0.0000 H   0  0  0  0  0  0  0  0  0  0  0  0
    9.3017   -1.7811    0.0000 H   0  0  0  0  0  0  0  0  0  0  0  0
    6.3466    1.8664    0.0000 H   0  0  0  0  0  0  0  0  0  0  0  0
    5.4251   -0.2507    0.0000 H   0  0  0  0  0  0  0  0  0  0  0  0
    5.8263   -0.9395    0.0000 H   0  0  0  0  0  0  0  0  0  0  0  0
    5.7398   -1.8325    0.0000 H   0  0  0  0  0  0  0  0  0  0  0  0
    5.3300   -2.5176    0.0000 H   0  0  0  0  0  0  0  0  0  0  0  0
    8.8791    0.5765    0.0000 H   0  0  0  0  0  0  0  0  0  0  0  0
    9.2836    1.2647    0.0000 H   0  0  0  0  0  0  0  0  0  0  0  0
    8.8623   -0.7821    0.0000 H   0  0  0  0  0  0  0  0  0  0  0  0
    9.3624   -0.0619    0.0000 H   0  0  0  0  0  0  0  0  0  0  0  0
    8.6422    0.4382    0.0000 H   0  0  0  0  0  0  0  0  0  0  0  0
    9.2868    2.0942    0.0000 H   0  0  0  0  0  0  0  0  0  0  0  0
    8.8876    2.7855    0.0000 H   0  0  0  0  0  0  0  0  0  0  0  0
    7.4046   -4.3586    0.0000 H   0  0  0  0  0  0  0  0  0  0  0  0
    5.4941    0.9519    0.0000 H   0  0  0  0  0  0  0  0  0  0  0  0
    6.3400   -0.8552    0.0000 H   0  0  0  0  0  0  0  0  0  0  0  0
    5.4922   -1.0789    0.0000 H   0  0  0  0  0  0  0  0  0  0  0  0
    5.7158   -1.9267    0.0000 H   0  0  0  0  0  0  0  0  0  0  0  0
    5.9259   -4.1235    0.0000 H   0  0  0  0  0  0  0  0  0  0  0  0
    8.6444   -0.1302    0.0000 H   0  0  0  0  0  0  0  0  0  0  0  0
    9.3607    0.3755    0.0000 H   0  0  0  0  0  0  0  0  0  0  0  0
    8.8550    1.0918    0.0000 H   0  0  0  0  0  0  0  0  0  0  0  0
    5.3095    2.8000    0.0000 H   0  0  0  0  0  0  0  0  0  0  0  0
    5.7246    2.1181    0.0000 H   0  0  0  0  0  0  0  0  0  0  0  0
    8.3869    3.6965    0.0000 H   0  0  0  0  0  0  0  0  0  0  0  0
    7.9877    4.3878    0.0000 H   0  0  0  0  0  0  0  0  0  0  0  0
    7.2302    4.8213    0.0000 H   0  0  0  0  0  0  0  0  0  0  0  0
    6.4319    4.8151    0.0000 H   0  0  0  0  0  0  0  0  0  0  0  0
    7.7767   -4.6798    0.0000 H   0  0  0  0  0  0  0  0  0  0  0  0
    8.6254   -4.9002    0.0000 H   0  0  0  0  0  0  0  0  0  0  0  0
    8.8458   -4.0515    0.0000 H   0  0  0  0  0  0  0  0  0  0  0  0
    9.1104   -2.9564    0.0000 H   0  0  0  0  0  0  0  0  0  0  0  0
    4.8920    4.3950    0.0000 H   0  0  0  0  0  0  0  0  0  0  0  0
    4.2816    3.7655    0.0000 H   0  0  0  0  0  0  0  0  0  0  0  0
    4.9111    3.1551    0.0000 H   0  0  0  0  0  0  0  0  0  0  0  0
    5.9202    4.9669    0.0000 H   0  0  0  0  0  0  0  0  0  0  0  0
    5.0699    5.1808    0.0000 H   0  0  0  0  0  0  0  0  0  0  0  0
    4.8560    4.3304    0.0000 H   0  0  0  0  0  0  0  0  0  0  0  0
    4.5251   -3.6826    0.0000 H   0  0  0  0  0  0  0  0  0  0  0  0
    6.0010   -4.9296    0.0000 H   0  0  0  0  0  0  0  0  0  0  0  0
    6.0010   -7.1696    0.0000 H   0  0  0  0  0  0  0  0  0  0  0  0
    9.4882    4.1199    0.0000 H   0  0  0  0  0  0  0  0  0  0  0  0
    4.5981   -7.3596    0.0000 H   0  0  0  0  0  0  0  0  0  0  0  0
    4.2690   -4.9296    0.0000 H   0  0  0  0  0  0  0  0  0  0  0  0
   10.8933    3.9461    0.0000 H   0  0  0  0  0  0  0  0  0  0  0  0
    3.7320   -6.2396    0.0000 H   0  0  0  0  0  0  0  0  0  0  0  0
    7.4040   -6.7396    0.0000 H   0  0  0  0  0  0  0  0  0  0  0  0
   11.7463    5.0761    0.0000 H   0  0  0  0  0  0  0  0  0  0  0  0
    9.7892    6.5535    0.0000 H   0  0  0  0  0  0  0  0  0  0  0  0
   11.1943    6.3797    0.0000 H   0  0  0  0  0  0  0  0  0  0  0  0
    5.6720   -8.3596    0.0000 H   0  0  0  0  0  0  0  0  0  0  0  0
   10.9049    2.9462    0.0000 H   0  0  0  0  0  0  0  0  0  0  0  0
    3.4030   -7.6696    0.0000 H   0  0  0  0  0  0  0  0  0  0  0  0
   10.9299    7.1491    0.0000 H   0  0  0  0  0  0  0  0  0  0  0  0
   10.5234    7.8347    0.0000 H   0  0  0  0  0  0  0  0  0  0  0  0
   12.6181    4.5861    0.0000 H   0  0  0  0  0  0  0  0  0  0  0  0
   12.0544    6.8897    0.0000 H   0  0  0  0  0  0  0  0  0  0  0  0
    2.0000   -5.2396    0.0000 H   0  0  0  0  0  0  0  0  0  0  0  0
    9.4392    8.3596    0.0000 H   0  0  0  0  0  0  0  0  0  0  0  0
  1 33  1  0  0  0  0
  1 47  1  0  0  0  0
  2 36  1  0  0  0  0
  2102  1  0  0  0  0
  3 44  1  0  0  0  0
  3 49  1  0  0  0  0
  4 43  2  0  0  0  0
  5 44  2  0  0  0  0
  6 47  1  0  0  0  0
  6 51  1  0  0  0  0
  7 49  1  0  0  0  0
  7 55  1  0  0  0  0
  8 48  1  0  0  0  0
  8110  1  0  0  0  0
  9 50  1  0  0  0  0
  9114  1  0  0  0  0
 10 52  1  0  0  0  0
 10115  1  0  0  0  0
 11 53  1  0  0  0  0
 11116  1  0  0  0  0
 12 54  1  0  0  0  0
 12119  1  0  0  0  0
 13 56  1  0  0  0  0
 13120  1  0  0  0  0
 14 57  1  0  0  0  0
 14121  1  0  0  0  0
 15 57  2  0  0  0  0
 16 58  1  0  0  0  0
 16122  1  0  0  0  0
 17 18  1  0  0  0  0
 17 20  1  0  0  0  0
 17 22  1  0  0  0  0
 17 31  1  0  0  0  0
 18 19  1  0  0  0  0
 18 27  1  0  0  0  0
 18 59  1  0  0  0  0
 19 21  1  0  0  0  0
 19 28  1  0  0  0  0
 19 35  1  0  0  0  0
 20 23  1  0  0  0  0
 20 29  1  0  0  0  0
 20 37  1  0  0  0  0
 21 24  1  0  0  0  0
 21 25  1  0  0  0  0
 21 60  1  0  0  0  0
 22 24  1  0  0  0  0
 22 61  1  0  0  0  0
 22 62  1  0  0  0  0
 23 26  1  0  0  0  0
 23 34  2  0  0  0  0
 24 63  1  0  0  0  0
 24 64  1  0  0  0  0
 25 33  1  0  0  0  0
 25 42  1  0  0  0  0
 25 43  1  0  0  0  0
 26 30  1  0  0  0  0
 26 38  1  0  0  0  0
 26 65  1  0  0  0  0
 27 34  1  0  0  0  0
 27 66  1  0  0  0  0
 27 67  1  0  0  0  0
 28 36  1  0  0  0  0
 28 68  1  0  0  0  0
 28 69  1  0  0  0  0
 29 32  1  0  0  0  0
 29 70  1  0  0  0  0
 29 71  1  0  0  0  0
 30 32  1  0  0  0  0
 30 39  1  0  0  0  0
 30 44  1  0  0  0  0
 31 72  1  0  0  0  0
 31 73  1  0  0  0  0
 31 74  1  0  0  0  0
 32 75  1  0  0  0  0
 32 76  1  0  0  0  0
 33 36  1  0  0  0  0
 33 77  1  0  0  0  0
 34 78  1  0  0  0  0
 35 79  1  0  0  0  0
 35 80  1  0  0  0  0
 35 81  1  0  0  0  0
 36 82  1  0  0  0  0
 37 83  1  0  0  0  0
 37 84  1  0  0  0  0
 37 85  1  0  0  0  0
 38 40  1  0  0  0  0
 38 86  1  0  0  0  0
 38 87  1  0  0  0  0
 39 41  1  0  0  0  0
 39 88  1  0  0  0  0
 39 89  1  0  0  0  0
 40 41  1  0  0  0  0
 40 45  1  0  0  0  0
 40 46  1  0  0  0  0
 41 90  1  0  0  0  0
 41 91  1  0  0  0  0
 42 92  1  0  0  0  0
 42 93  1  0  0  0  0
 42 94  1  0  0  0  0
 43 95  1  0  0  0  0
 45 99  1  0  0  0  0
 45100  1  0  0  0  0
 45101  1  0  0  0  0
 46 96  1  0  0  0  0
 46 97  1  0  0  0  0
 46 98  1  0  0  0  0
 47 48  1  0  0  0  0
 47103  1  0  0  0  0
 48 50  1  0  0  0  0
 48104  1  0  0  0  0
 49 52  1  0  0  0  0
 49105  1  0  0  0  0
 50 53  1  0  0  0  0
 50106  1  0  0  0  0
 51 53  1  0  0  0  0
 51 57  1  0  0  0  0
 51107  1  0  0  0  0
 52 54  1  0  0  0  0
 52108  1  0  0  0  0
 53109  1  0  0  0  0
 54 56  1  0  0  0  0
 54111  1  0  0  0  0
 55 56  1  0  0  0  0
 55 58  1  0  0  0  0
 55112  1  0  0  0  0
 56113  1  0  0  0  0
 58117  1  0  0  0  0
 58118  1  0  0  0  0
M  END
>  <PUBCHEM_COMPOUND_CID>
76401311

>  <PUBCHEM_COMPOUND_CANONICALIZED>
1

>  <PUBCHEM_CACTVS_COMPLEXITY>
1650

>  <PUBCHEM_CACTVS_HBOND_ACCEPTOR>
16

>  <PUBCHEM_CACTVS_HBOND_DONOR>
9

>  <PUBCHEM_CACTVS_ROTATABLE_BOND>
8

>  <PUBCHEM_CACTVS_SUBSKEYS>
AAADcfB8PgAAAAAAAAAAAAAAAAAAAAAAAAA0aMGCAAAAAADAAAAAGgAACAAADxSwgAMCCAAABgCIAijSiAIAAAAgAAAACAFAAAgREBYAAQQiQAAFoAAPAAPK7PzPgAAAAAAAAADAAAYAADCAAAAAAAAAAA==

>  <PUBCHEM_IUPAC_OPENEYE_NAME>
6-[[4-formyl-2-hydroxy-4,6a,6b,11,11,14b-hexamethyl-8a-[3,4,5-trihydroxy-6-(hydroxymethyl)tetrahydropyran-2-yl]oxycarbonyl-1,2,3,4a,5,6,7,8,9,10,12,12a,14,14a-tetradecahydropicen-3-yl]oxy]-3,4,5-trihydroxy-tetrahydropyran-2-carboxylic acid

>  <PUBCHEM_IUPAC_CAS_NAME>
6-[[4-formyl-2-hydroxy-4,6a,6b,11,11,14b-hexamethyl-8a-[oxo-[[3,4,5-trihydroxy-6-(hydroxymethyl)-2-oxanyl]oxy]methyl]-1,2,3,4a,5,6,7,8,9,10,12,12a,14,14a-tetradecahydropicen-3-yl]oxy]-3,4,5-trihydroxy-2-oxanecarboxylic acid

>  <PUBCHEM_IUPAC_NAME>
6-[[4-formyl-2-hydroxy-4,6a,6b,11,11,14b-hexamethyl-8a-[3,4,5-trihydroxy-6-(hydroxymethyl)oxan-2-yl]oxycarbonyl-1,2,3,4a,5,6,7,8,9,10,12,12a,14,14a-tetradecahydropicen-3-yl]oxy]-3,4,5-trihydroxyoxane-2-carboxylic acid

>  <PUBCHEM_IUPAC_SYSTEMATIC_NAME>
6-[[8a-[6-(hydroxymethyl)-3,4,5-tris(oxidanyl)oxan-2-yl]oxycarbonyl-4-methanoyl-4,6a,6b,11,11,14b-hexamethyl-2-oxidanyl-1,2,3,4a,5,6,7,8,9,10,12,12a,14,14a-tetradecahydropicen-3-yl]oxy]-3,4,5-tris(oxidanyl)oxane-2-carboxylic acid

>  <PUBCHEM_IUPAC_TRADITIONAL_NAME>
6-[[4-formyl-2-hydroxy-4,6a,6b,11,11,14b-hexamethyl-8a-(3,4,5-trihydroxy-6-methylol-tetrahydropyran-2-yl)oxycarbonyl-1,2,3,4a,5,6,7,8,9,10,12,12a,14,14a-tetradecahydropicen-3-yl]oxy]-3,4,5-trihydroxy-tetrahydropyran-2-carboxylic acid

>  <PUBCHEM_IUPAC_INCHI>
InChI=1S/C42H64O16/c1-37(2)11-13-42(36(54)58-34-29(50)26(47)25(46)22(17-43)55-34)14-12-40(5)19(20(42)15-37)7-8-24-38(3)16-21(45)32(39(4,18-44)23(38)9-10-41(24,40)6)57-35-30(51)27(48)28(49)31(56-35)33(52)53/h7,18,20-32,34-35,43,45-51H,8-17H2,1-6H3,(H,52,53)

>  <PUBCHEM_IUPAC_INCHIKEY>
QUKCKUMUBOPETR-UHFFFAOYSA-N

>  <PUBCHEM_XLOGP3_AA>
2

>  <PUBCHEM_EXACT_MASS>
824.419

>  <PUBCHEM_MOLECULAR_FORMULA>
C42H64O16

>  <PUBCHEM_MOLECULAR_WEIGHT>
824.958

>  <PUBCHEM_OPENEYE_CAN_SMILES>
CC1(CCC2(CCC3(C(=CCC4C3(CCC5C4(CC(C(C5(C)C=O)OC6C(C(C(C(O6)C(=O)O)O)O)O)O)C)C)C2C1)C)C(=O)OC7C(C(C(C(O7)CO)O)O)O)C

>  <PUBCHEM_OPENEYE_ISO_SMILES>
CC1(CCC2(CCC3(C(=CCC4C3(CCC5C4(CC(C(C5(C)C=O)OC6C(C(C(C(O6)C(=O)O)O)O)O)O)C)C)C2C1)C)C(=O)OC7C(C(C(C(O7)CO)O)O)O)C

>  <PUBCHEM_CACTVS_TPSA>
270

>  <PUBCHEM_MONOISOTOPIC_WEIGHT>
824.419

>  <PUBCHEM_TOTAL_CHARGE>
0

>  <PUBCHEM_HEAVY_ATOM_COUNT>
58

>  <PUBCHEM_ATOM_DEF_STEREO_COUNT>
0

>  <PUBCHEM_ATOM_UDEF_STEREO_COUNT>
20

>  <PUBCHEM_BOND_DEF_STEREO_COUNT>
0

>  <PUBCHEM_BOND_UDEF_STEREO_COUNT>
0

>  <PUBCHEM_ISOTOPIC_ATOM_COUNT>
0

>  <PUBCHEM_COMPONENT_COUNT>
1

>  <PUBCHEM_CACTVS_TAUTO_COUNT>
1

>  <PUBCHEM_COORDINATE_TYPE>
1
5
255

>  <PUBCHEM_BONDANNOTATIONS>
33  1  3
47  1  3
52  10  3
53  11  3
54  12  3
56  13  3
17  31  3
18  27  3
19  35  3
36  2  3
20  37  3
21  24  3
25  42  3
26  38  3
49  3  3
30  44  3
51  57  3
55  58  3
48  8  3
50  9  3

$$$$
