76517846
 OpenBabel06101807152D

138146  0  0  1  0  0  0  0  0999 V2000
   13.4863    5.5403    0.0000 O   0  0  0  0  0  0  0  0  0  0  0  0
   12.0632   -2.7038    0.0000 O   0  0  0  0  0  0  0  0  0  0  0  0
   10.3312   -2.7038    0.0000 O   0  0  0  0  0  0  0  0  0  0  0  0
   12.0632   -4.7038    0.0000 O   0  0  0  0  0  0  0  0  0  0  0  0
   10.3312   -5.7038    0.0000 O   0  0  0  0  0  0  0  0  0  0  0  0
    8.5991   -4.7038    0.0000 O   0  0  0  0  0  0  0  0  0  0  0  0
    8.5991   -1.7038    0.0000 O   0  0  0  0  0  0  0  0  0  0  0  0
    7.7331   -3.2038    0.0000 O   0  0  0  0  0  0  0  0  0  0  0  0
    6.8671   -5.7038    0.0000 O   0  0  0  0  0  0  0  0  0  0  0  0
    5.1350   -4.7038    0.0000 O   0  0  0  0  0  0  0  0  0  0  0  0
    5.1350   -2.7038    0.0000 O   0  0  0  0  0  0  0  0  0  0  0  0
    5.1350   -5.7038    0.0000 O   0  0  0  0  0  0  0  0  0  0  0  0
    6.0010   -1.2038    0.0000 O   0  0  0  0  0  0  0  0  0  0  0  0
    6.8671   -7.7038    0.0000 O   0  0  0  0  0  0  0  0  0  0  0  0
    5.1350   -8.7038    0.0000 O   0  0  0  0  0  0  0  0  0  0  0  0
    3.4030   -7.7038    0.0000 O   0  0  0  0  0  0  0  0  0  0  0  0
    2.5369   -6.2038    0.0000 O   0  0  0  0  0  0  0  0  0  0  0  0
   13.4359    6.6213    0.0000 N   0  0  0  0  0  0  0  0  0  0  0  0
   12.0925    3.4931    0.0000 C   0  0  3  0  0  0  0  0  0  0  0  0
   12.9604    2.9965    0.0000 C   0  0  3  0  0  0  0  0  0  0  0  0
   12.2979    4.4657    0.0000 C   0  0  3  0  0  0  0  0  0  0  0  0
   12.9643    1.9965    0.0000 C   0  0  3  0  0  0  0  0  0  0  0  0
   12.1002    1.4931    0.0000 C   0  0  3  0  0  0  0  0  0  0  0  0
   13.2863    4.5726    0.0000 C   0  0  3  0  0  0  0  0  0  0  0  0
   12.0881    0.4516    0.0000 C   0  0  3  0  0  0  0  0  0  0  0  0
   13.6949    3.6664    0.0000 C   0  0  0  0  0  0  0  0  0  0  0  0
   11.2284    2.9898    0.0000 C   0  0  0  0  0  0  0  0  0  0  0  0
   11.8956    5.3683    0.0000 C   0  0  3  0  0  0  0  0  0  0  0  0
   11.2322    1.9898    0.0000 C   0  0  0  0  0  0  0  0  0  0  0  0
   12.9882   -0.0727    0.0000 C   0  0  3  0  0  0  0  0  0  0  0  0
   13.8762    1.4931    0.0000 C   0  0  0  0  0  0  0  0  0  0  0  0
   12.6286    6.0311    0.0000 C   0  0  3  0  0  0  0  0  0  0  0  0
   13.8883    0.4516    0.0000 C   0  0  0  0  0  0  0  0  0  0  0  0
   11.2245    3.9898    0.0000 C   0  0  0  0  0  0  0  0  0  0  0  0
   11.1382   -0.0727    0.0000 C   0  0  0  0  0  0  0  0  0  0  0  0
   13.0008   -1.1576    0.0000 C   0  0  0  0  0  0  0  0  0  0  0  0
   11.2240    0.9549    0.0000 C   0  0  0  0  0  0  0  0  0  0  0  0
   11.7138    6.4351    0.0000 C   0  0  0  0  0  0  0  0  0  0  0  0
   10.9172    5.5750    0.0000 C   0  0  0  0  0  0  0  0  0  0  0  0
   11.1257   -1.1576    0.0000 C   0  0  0  0  0  0  0  0  0  0  0  0
   12.0632   -1.7038    0.0000 C   0  0  3  0  0  0  0  0  0  0  0  0
   11.6063    7.4293    0.0000 C   0  0  0  0  0  0  0  0  0  0  0  0
   13.3284    7.6155    0.0000 C   0  0  0  0  0  0  0  0  0  0  0  0
   12.4136    8.0195    0.0000 C   0  0  3  0  0  0  0  0  0  0  0  0
   12.3061    9.0138    0.0000 C   0  0  0  0  0  0  0  0  0  0  0  0
   11.1972   -3.2038    0.0000 C   0  0  3  0  0  0  0  0  0  0  0  0
   11.1972   -4.2038    0.0000 C   0  0  3  0  0  0  0  0  0  0  0  0
   10.3312   -4.7038    0.0000 C   0  0  3  0  0  0  0  0  0  0  0  0
    9.4651   -3.2038    0.0000 C   0  0  3  0  0  0  0  0  0  0  0  0
    9.4651   -4.2038    0.0000 C   0  0  3  0  0  0  0  0  0  0  0  0
    8.5991   -2.7038    0.0000 C   0  0  0  0  0  0  0  0  0  0  0  0
    7.7331   -4.2038    0.0000 C   0  0  3  0  0  0  0  0  0  0  0  0
    6.8671   -4.7038    0.0000 C   0  0  3  0  0  0  0  0  0  0  0  0
    6.0010   -4.2038    0.0000 C   0  0  3  0  0  0  0  0  0  0  0  0
    6.8671   -2.7038    0.0000 C   0  0  3  0  0  0  0  0  0  0  0  0
    6.0010   -3.2038    0.0000 C   0  0  3  0  0  0  0  0  0  0  0  0
    6.8671   -1.7038    0.0000 C   0  0  0  0  0  0  0  0  0  0  0  0
    6.0010   -6.2038    0.0000 C   0  0  3  0  0  0  0  0  0  0  0  0
    6.0010   -7.2038    0.0000 C   0  0  3  0  0  0  0  0  0  0  0  0
    5.1350   -7.7038    0.0000 C   0  0  3  0  0  0  0  0  0  0  0  0
    4.2690   -6.2038    0.0000 C   0  0  3  0  0  0  0  0  0  0  0  0
    4.2690   -7.2038    0.0000 C   0  0  3  0  0  0  0  0  0  0  0  0
    3.4030   -5.7038    0.0000 C   0  0  0  0  0  0  0  0  0  0  0  0
   13.5281    2.7472    0.0000 H   0  0  0  0  0  0  0  0  0  0  0  0
   11.6814    4.4004    0.0000 H   0  0  0  0  0  0  0  0  0  0  0  0
   13.4976    2.3127    0.0000 H   0  0  0  0  0  0  0  0  0  0  0  0
   12.6359    1.1811    0.0000 H   0  0  0  0  0  0  0  0  0  0  0  0
   13.9025    4.6406    0.0000 H   0  0  0  0  0  0  0  0  0  0  0  0
   14.0622    3.1670    0.0000 H   0  0  0  0  0  0  0  0  0  0  0  0
   14.2301    3.9792    0.0000 H   0  0  0  0  0  0  0  0  0  0  0  0
   11.0141    3.5716    0.0000 H   0  0  0  0  0  0  0  0  0  0  0  0
   10.6182    2.8798    0.0000 H   0  0  0  0  0  0  0  0  0  0  0  0
   11.7342    5.9669    0.0000 H   0  0  0  0  0  0  0  0  0  0  0  0
   10.6212    2.0951    0.0000 H   0  0  0  0  0  0  0  0  0  0  0  0
   11.0224    1.4064    0.0000 H   0  0  0  0  0  0  0  0  0  0  0  0
   13.5275   -0.3786    0.0000 H   0  0  0  0  0  0  0  0  0  0  0  0
   14.4883    1.3941    0.0000 H   0  0  0  0  0  0  0  0  0  0  0  0
   14.0785    2.0792    0.0000 H   0  0  0  0  0  0  0  0  0  0  0  0
   14.1041   -0.1297    0.0000 H   0  0  0  0  0  0  0  0  0  0  0  0
   14.4979    0.5647    0.0000 H   0  0  0  0  0  0  0  0  0  0  0  0
   11.5325    4.5279    0.0000 H   0  0  0  0  0  0  0  0  0  0  0  0
   10.6864    4.2977    0.0000 H   0  0  0  0  0  0  0  0  0  0  0  0
   10.9166    3.4517    0.0000 H   0  0  0  0  0  0  0  0  0  0  0  0
   10.9359    0.5134    0.0000 H   0  0  0  0  0  0  0  0  0  0  0  0
   10.5262   -0.1717    0.0000 H   0  0  0  0  0  0  0  0  0  0  0  0
   13.2165   -1.7389    0.0000 H   0  0  0  0  0  0  0  0  0  0  0  0
   13.6103   -1.0445    0.0000 H   0  0  0  0  0  0  0  0  0  0  0  0
   11.5361    1.4906    0.0000 H   0  0  0  0  0  0  0  0  0  0  0  0
   10.6883    1.2670    0.0000 H   0  0  0  0  0  0  0  0  0  0  0  0
   10.9120    0.4192    0.0000 H   0  0  0  0  0  0  0  0  0  0  0  0
   11.0952    6.4765    0.0000 H   0  0  0  0  0  0  0  0  0  0  0  0
   11.5657    5.8331    0.0000 H   0  0  0  0  0  0  0  0  0  0  0  0
   11.0454    6.1816    0.0000 H   0  0  0  0  0  0  0  0  0  0  0  0
   10.3106    5.7032    0.0000 H   0  0  0  0  0  0  0  0  0  0  0  0
   10.7891    4.9684    0.0000 H   0  0  0  0  0  0  0  0  0  0  0  0
   10.5161   -1.0445    0.0000 H   0  0  0  0  0  0  0  0  0  0  0  0
   10.9099   -1.7389    0.0000 H   0  0  0  0  0  0  0  0  0  0  0  0
   12.6007   -2.0127    0.0000 H   0  0  0  0  0  0  0  0  0  0  0  0
   14.0030    6.3708    0.0000 H   0  0  0  0  0  0  0  0  0  0  0  0
   11.3329    7.9858    0.0000 H   0  0  0  0  0  0  0  0  0  0  0  0
   11.0109    7.2567    0.0000 H   0  0  0  0  0  0  0  0  0  0  0  0
   13.9470    7.5741    0.0000 H   0  0  0  0  0  0  0  0  0  0  0  0
   13.4766    8.2176    0.0000 H   0  0  0  0  0  0  0  0  0  0  0  0
   11.8465    8.2700    0.0000 H   0  0  0  0  0  0  0  0  0  0  0  0
   12.9225    9.0804    0.0000 H   0  0  0  0  0  0  0  0  0  0  0  0
   12.2395    9.6302    0.0000 H   0  0  0  0  0  0  0  0  0  0  0  0
   11.6897    8.9471    0.0000 H   0  0  0  0  0  0  0  0  0  0  0  0
   11.7341   -3.5138    0.0000 H   0  0  0  0  0  0  0  0  0  0  0  0
   11.1972   -4.8238    0.0000 H   0  0  0  0  0  0  0  0  0  0  0  0
    9.7942   -5.0138    0.0000 H   0  0  0  0  0  0  0  0  0  0  0  0
    9.4651   -2.5838    0.0000 H   0  0  0  0  0  0  0  0  0  0  0  0
    8.9282   -3.8938    0.0000 H   0  0  0  0  0  0  0  0  0  0  0  0
   12.6002   -4.3938    0.0000 H   0  0  0  0  0  0  0  0  0  0  0  0
    7.9885   -2.5961    0.0000 H   0  0  0  0  0  0  0  0  0  0  0  0
    8.3871   -3.2864    0.0000 H   0  0  0  0  0  0  0  0  0  0  0  0
   10.8681   -6.0138    0.0000 H   0  0  0  0  0  0  0  0  0  0  0  0
    7.7331   -4.8238    0.0000 H   0  0  0  0  0  0  0  0  0  0  0  0
    8.0622   -1.3938    0.0000 H   0  0  0  0  0  0  0  0  0  0  0  0
    6.3301   -5.0138    0.0000 H   0  0  0  0  0  0  0  0  0  0  0  0
    5.4641   -3.8938    0.0000 H   0  0  0  0  0  0  0  0  0  0  0  0
    7.4040   -2.3938    0.0000 H   0  0  0  0  0  0  0  0  0  0  0  0
    6.0010   -2.5838    0.0000 H   0  0  0  0  0  0  0  0  0  0  0  0
    7.4776   -1.8114    0.0000 H   0  0  0  0  0  0  0  0  0  0  0  0
    7.0791   -1.1211    0.0000 H   0  0  0  0  0  0  0  0  0  0  0  0
    6.5380   -6.5138    0.0000 H   0  0  0  0  0  0  0  0  0  0  0  0
    4.5981   -4.3938    0.0000 H   0  0  0  0  0  0  0  0  0  0  0  0
    4.5981   -3.0138    0.0000 H   0  0  0  0  0  0  0  0  0  0  0  0
    6.0010   -7.8238    0.0000 H   0  0  0  0  0  0  0  0  0  0  0  0
    4.5981   -8.0138    0.0000 H   0  0  0  0  0  0  0  0  0  0  0  0
    4.2690   -5.5838    0.0000 H   0  0  0  0  0  0  0  0  0  0  0  0
    3.7320   -6.8938    0.0000 H   0  0  0  0  0  0  0  0  0  0  0  0
    6.0010   -0.5837    0.0000 H   0  0  0  0  0  0  0  0  0  0  0  0
    6.8671   -8.3238    0.0000 H   0  0  0  0  0  0  0  0  0  0  0  0
    3.8015   -5.2288    0.0000 H   0  0  0  0  0  0  0  0  0  0  0  0
    3.0044   -5.2288    0.0000 H   0  0  0  0  0  0  0  0  0  0  0  0
    4.5981   -9.0138    0.0000 H   0  0  0  0  0  0  0  0  0  0  0  0
    3.4030   -8.3238    0.0000 H   0  0  0  0  0  0  0  0  0  0  0  0
    2.0000   -5.8938    0.0000 H   0  0  0  0  0  0  0  0  0  0  0  0
  1 24  1  0  0  0  0
  1 32  1  0  0  0  0
  2 41  1  0  0  0  0
  2 46  1  0  0  0  0
  3 46  1  0  0  0  0
  3 49  1  0  0  0  0
  4 47  1  0  0  0  0
  4113  1  0  0  0  0
  5 48  1  0  0  0  0
  5116  1  0  0  0  0
  6 50  1  0  0  0  0
  6 52  1  0  0  0  0
  7 51  1  0  0  0  0
  7118  1  0  0  0  0
  8 52  1  0  0  0  0
  8 55  1  0  0  0  0
  9 53  1  0  0  0  0
  9 58  1  0  0  0  0
 10 54  1  0  0  0  0
 10126  1  0  0  0  0
 11 56  1  0  0  0  0
 11127  1  0  0  0  0
 12 58  1  0  0  0  0
 12 61  1  0  0  0  0
 13 57  1  0  0  0  0
 13132  1  0  0  0  0
 14 59  1  0  0  0  0
 14133  1  0  0  0  0
 15 60  1  0  0  0  0
 15136  1  0  0  0  0
 16 62  1  0  0  0  0
 16137  1  0  0  0  0
 17 63  1  0  0  0  0
 17138  1  0  0  0  0
 18 32  1  0  0  0  0
 18 43  1  0  0  0  0
 18 99  1  0  0  0  0
 19 20  1  0  0  0  0
 19 21  1  0  0  0  0
 19 27  1  0  0  0  0
 19 34  1  0  0  0  0
 20 22  1  0  0  0  0
 20 26  1  0  0  0  0
 20 64  1  0  0  0  0
 21 24  1  0  0  0  0
 21 28  1  0  0  0  0
 21 65  1  0  0  0  0
 22 23  1  0  0  0  0
 22 31  1  0  0  0  0
 22 66  1  0  0  0  0
 23 25  1  0  0  0  0
 23 29  1  0  0  0  0
 23 67  1  0  0  0  0
 24 26  1  0  0  0  0
 24 68  1  0  0  0  0
 25 30  1  0  0  0  0
 25 35  1  0  0  0  0
 25 37  1  0  0  0  0
 26 69  1  0  0  0  0
 26 70  1  0  0  0  0
 27 29  1  0  0  0  0
 27 71  1  0  0  0  0
 27 72  1  0  0  0  0
 28 32  1  0  0  0  0
 28 39  1  0  0  0  0
 28 73  1  0  0  0  0
 29 74  1  0  0  0  0
 29 75  1  0  0  0  0
 30 33  1  0  0  0  0
 30 36  1  0  0  0  0
 30 76  1  0  0  0  0
 31 33  1  0  0  0  0
 31 77  1  0  0  0  0
 31 78  1  0  0  0  0
 32 38  1  0  0  0  0
 33 79  1  0  0  0  0
 33 80  1  0  0  0  0
 34 81  1  0  0  0  0
 34 82  1  0  0  0  0
 34 83  1  0  0  0  0
 35 40  1  0  0  0  0
 35 84  1  0  0  0  0
 35 85  1  0  0  0  0
 36 41  1  0  0  0  0
 36 86  1  0  0  0  0
 36 87  1  0  0  0  0
 37 88  1  0  0  0  0
 37 89  1  0  0  0  0
 37 90  1  0  0  0  0
 38 42  1  0  0  0  0
 38 91  1  0  0  0  0
 38 92  1  0  0  0  0
 39 93  1  0  0  0  0
 39 94  1  0  0  0  0
 39 95  1  0  0  0  0
 40 41  1  0  0  0  0
 40 96  1  0  0  0  0
 40 97  1  0  0  0  0
 41 98  1  0  0  0  0
 42 44  1  0  0  0  0
 42100  1  0  0  0  0
 42101  1  0  0  0  0
 43 44  1  0  0  0  0
 43102  1  0  0  0  0
 43103  1  0  0  0  0
 44 45  1  0  0  0  0
 44104  1  0  0  0  0
 45105  1  0  0  0  0
 45106  1  0  0  0  0
 45107  1  0  0  0  0
 46 47  1  0  0  0  0
 46108  1  0  0  0  0
 47 48  1  0  0  0  0
 47109  1  0  0  0  0
 48 50  1  0  0  0  0
 48110  1  0  0  0  0
 49 50  1  0  0  0  0
 49 51  1  0  0  0  0
 49111  1  0  0  0  0
 50112  1  0  0  0  0
 51114  1  0  0  0  0
 51115  1  0  0  0  0
 52 53  1  0  0  0  0
 52117  1  0  0  0  0
 53 54  1  0  0  0  0
 53119  1  0  0  0  0
 54 56  1  0  0  0  0
 54120  1  0  0  0  0
 55 56  1  0  0  0  0
 55 57  1  0  0  0  0
 55121  1  0  0  0  0
 56122  1  0  0  0  0
 57123  1  0  0  0  0
 57124  1  0  0  0  0
 58 59  1  0  0  0  0
 58125  1  0  0  0  0
 59 60  1  0  0  0  0
 59128  1  0  0  0  0
 60 62  1  0  0  0  0
 60129  1  0  0  0  0
 61 62  1  0  0  0  0
 61 63  1  0  0  0  0
 61130  1  0  0  0  0
 62131  1  0  0  0  0
 63134  1  0  0  0  0
 63135  1  0  0  0  0
M  END
>  <PUBCHEM_COMPOUND_CID>
76517846

>  <PUBCHEM_COMPOUND_CANONICALIZED>
1

>  <PUBCHEM_CACTVS_COMPLEXITY>
1580

>  <PUBCHEM_CACTVS_HBOND_ACCEPTOR>
18

>  <PUBCHEM_CACTVS_HBOND_DONOR>
11

>  <PUBCHEM_CACTVS_ROTATABLE_BOND>
9

>  <PUBCHEM_CACTVS_SUBSKEYS>
AAADcfB+PgAAAAAAAAAAAAAAAAAAAaIAAAA8aNEiAAASAGDAAAAAHgAQCAAADxzxgAcCCALABgAAAAAAAAAAAAAAAAAAAIAIAAEREAIAgAAuQAAFEACHAAHw8PwPgAAAAAAAAADAAAYAACAAAYAADAAAAA==

>  <PUBCHEM_IUPAC_INCHI>
InChI=1S/C45H75NO17/c1-19-7-12-45(46-15-19)20(2)30-26(63-45)14-25-23-6-5-21-13-22(8-10-43(21,3)24(23)9-11-44(25,30)4)57-40-37(56)35(54)38(29(18-49)60-40)61-42-39(34(53)32(51)28(17-48)59-42)62-41-36(55)33(52)31(50)27(16-47)58-41/h19-42,46-56H,5-18H2,1-4H3

>  <PUBCHEM_IUPAC_INCHIKEY>
DMUPZSDWJVULSC-UHFFFAOYSA-N

>  <PUBCHEM_XLOGP3_AA>
0.9

>  <PUBCHEM_EXACT_MASS>
901.503

>  <PUBCHEM_MOLECULAR_FORMULA>
C45H75NO17

>  <PUBCHEM_MOLECULAR_WEIGHT>
902.085

>  <PUBCHEM_OPENEYE_CAN_SMILES>
CC1CCC2(C(C3C(O2)CC4C3(CCC5C4CCC6C5(CCC(C6)OC7C(C(C(C(O7)CO)OC8C(C(C(C(O8)CO)O)O)OC9C(C(C(C(O9)CO)O)O)O)O)O)C)C)C)NC1

>  <PUBCHEM_OPENEYE_ISO_SMILES>
CC1CCC2(C(C3C(O2)CC4C3(CCC5C4CCC6C5(CCC(C6)OC7C(C(C(C(O7)CO)OC8C(C(C(C(O8)CO)O)O)OC9C(C(C(C(O9)CO)O)O)O)O)O)C)C)C)NC1

>  <PUBCHEM_CACTVS_TPSA>
279

>  <PUBCHEM_MONOISOTOPIC_WEIGHT>
901.503

>  <PUBCHEM_TOTAL_CHARGE>
0

>  <PUBCHEM_HEAVY_ATOM_COUNT>
63

>  <PUBCHEM_ATOM_DEF_STEREO_COUNT>
0

>  <PUBCHEM_ATOM_UDEF_STEREO_COUNT>
27

>  <PUBCHEM_BOND_DEF_STEREO_COUNT>
0

>  <PUBCHEM_BOND_UDEF_STEREO_COUNT>
0

>  <PUBCHEM_ISOTOPIC_ATOM_COUNT>
0

>  <PUBCHEM_COMPONENT_COUNT>
1

>  <PUBCHEM_CACTVS_TAUTO_COUNT>
1

>  <PUBCHEM_COORDINATE_TYPE>
1
5
255

>  <PUBCHEM_BONDANNOTATIONS>
54  10  3
56  11  3
59  14  3
60  15  3
62  16  3
19  34  3
41  2  3
46  2  3
20  26  3
21  28  3
22  31  3
23  29  3
24  26  3
25  37  3
28  39  3
30  33  3
32  38  3
47  4  3
44  45  3
49  51  3
48  5  3
55  57  3
50  6  3
52  6  3
61  63  3
53  9  3
58  9  3

$$$$
