76581
 OpenBabel06101807152D

 26 26  0  0  0  0  0  0  0  0999 V2000
    5.1350    1.2500    0.0000 O   0  0  0  0  0  0  0  0  0  0  0  0
    2.5369   -0.2500    0.0000 O   0  0  0  0  0  0  0  0  0  0  0  0
    6.8671   -0.7500    0.0000 O   0  0  0  0  0  0  0  0  0  0  0  0
    4.2690   -2.2500    0.0000 N   0  0  0  0  0  0  0  0  0  0  0  0
    4.2690   -0.2500    0.0000 C   0  0  0  0  0  0  0  0  0  0  0  0
    5.1350   -0.7500    0.0000 C   0  0  0  0  0  0  0  0  0  0  0  0
    3.4030   -0.7500    0.0000 C   0  0  0  0  0  0  0  0  0  0  0  0
    4.2690    0.7500    0.0000 C   0  0  0  0  0  0  0  0  0  0  0  0
    3.4030   -1.7500    0.0000 C   0  0  0  0  0  0  0  0  0  0  0  0
    6.0010   -0.2500    0.0000 C   0  0  0  0  0  0  0  0  0  0  0  0
    5.1350   -1.7500    0.0000 C   0  0  0  0  0  0  0  0  0  0  0  0
    2.5369   -2.2500    0.0000 C   0  0  0  0  0  0  0  0  0  0  0  0
    5.1350    2.2500    0.0000 C   0  0  0  0  0  0  0  0  0  0  0  0
    4.0569    1.3326    0.0000 H   0  0  0  0  0  0  0  0  0  0  0  0
    3.6584    0.6423    0.0000 H   0  0  0  0  0  0  0  0  0  0  0  0
    6.3996    0.2249    0.0000 H   0  0  0  0  0  0  0  0  0  0  0  0
    5.6025    0.2249    0.0000 H   0  0  0  0  0  0  0  0  0  0  0  0
    5.6720   -2.0600    0.0000 H   0  0  0  0  0  0  0  0  0  0  0  0
    2.2269   -1.7131    0.0000 H   0  0  0  0  0  0  0  0  0  0  0  0
    2.0000   -2.5600    0.0000 H   0  0  0  0  0  0  0  0  0  0  0  0
    2.8469   -2.7869    0.0000 H   0  0  0  0  0  0  0  0  0  0  0  0
    2.0000   -0.5600    0.0000 H   0  0  0  0  0  0  0  0  0  0  0  0
    5.7550    2.2500    0.0000 H   0  0  0  0  0  0  0  0  0  0  0  0
    5.1350    2.8700    0.0000 H   0  0  0  0  0  0  0  0  0  0  0  0
    4.5150    2.2500    0.0000 H   0  0  0  0  0  0  0  0  0  0  0  0
    7.4040   -0.4400    0.0000 H   0  0  0  0  0  0  0  0  0  0  0  0
  1  8  1  0  0  0  0
  1 13  1  0  0  0  0
  2  7  1  0  0  0  0
  2 22  1  0  0  0  0
  3 10  1  0  0  0  0
  3 26  1  0  0  0  0
  4  9  2  0  0  0  0
  4 11  1  0  0  0  0
  5  6  1  0  0  0  0
  5  7  2  0  0  0  0
  5  8  1  0  0  0  0
  6 10  1  0  0  0  0
  6 11  2  0  0  0  0
  7  9  1  0  0  0  0
  8 14  1  0  0  0  0
  8 15  1  0  0  0  0
  9 12  1  0  0  0  0
 10 16  1  0  0  0  0
 10 17  1  0  0  0  0
 11 18  1  0  0  0  0
 12 19  1  0  0  0  0
 12 20  1  0  0  0  0
 12 21  1  0  0  0  0
 13 23  1  0  0  0  0
 13 24  1  0  0  0  0
 13 25  1  0  0  0  0
M  END
>  <PUBCHEM_COMPOUND_CID>
76581

>  <PUBCHEM_COMPOUND_CANONICALIZED>
1

>  <PUBCHEM_CACTVS_COMPLEXITY>
154

>  <PUBCHEM_CACTVS_HBOND_ACCEPTOR>
4

>  <PUBCHEM_CACTVS_HBOND_DONOR>
2

>  <PUBCHEM_CACTVS_ROTATABLE_BOND>
3

>  <PUBCHEM_CACTVS_SUBSKEYS>
AAADccByMAAAAAAAAAAAAAAAAAAAAAAAAAAsAAAAAAAAAAABgAAAHgAACAAADAzhngYuhpIIFgCgAxRnRASCgCAxYCAA2CA9TJgKN2LSsZuEcAhnwBHY+AfwUAMOgAAAAAAAAAAAAAAAAAAAAAAAAAAAAA==

>  <PUBCHEM_IUPAC_OPENEYE_NAME>
5-(hydroxymethyl)-4-(methoxymethyl)-2-methyl-pyridin-3-ol

>  <PUBCHEM_IUPAC_CAS_NAME>
5-(hydroxymethyl)-4-(methoxymethyl)-2-methyl-3-pyridinol

>  <PUBCHEM_IUPAC_NAME>
5-(hydroxymethyl)-4-(methoxymethyl)-2-methylpyridin-3-ol

>  <PUBCHEM_IUPAC_SYSTEMATIC_NAME>
5-(hydroxymethyl)-4-(methoxymethyl)-2-methyl-pyridin-3-ol

>  <PUBCHEM_IUPAC_TRADITIONAL_NAME>
4-(methoxymethyl)-2-methyl-5-methylol-pyridin-3-ol

>  <PUBCHEM_IUPAC_INCHI>
InChI=1S/C9H13NO3/c1-6-9(12)8(5-13-2)7(4-11)3-10-6/h3,11-12H,4-5H2,1-2H3

>  <PUBCHEM_IUPAC_INCHIKEY>
SVINQHQHARVZFF-UHFFFAOYSA-N

>  <PUBCHEM_XLOGP3>
-0.9

>  <PUBCHEM_EXACT_MASS>
183.09

>  <PUBCHEM_MOLECULAR_FORMULA>
C9H13NO3

>  <PUBCHEM_MOLECULAR_WEIGHT>
183.207

>  <PUBCHEM_OPENEYE_CAN_SMILES>
CC1=NC=C(C(=C1O)COC)CO

>  <PUBCHEM_OPENEYE_ISO_SMILES>
CC1=NC=C(C(=C1O)COC)CO

>  <PUBCHEM_CACTVS_TPSA>
62.6

>  <PUBCHEM_MONOISOTOPIC_WEIGHT>
183.09

>  <PUBCHEM_TOTAL_CHARGE>
0

>  <PUBCHEM_HEAVY_ATOM_COUNT>
13

>  <PUBCHEM_ATOM_DEF_STEREO_COUNT>
0

>  <PUBCHEM_ATOM_UDEF_STEREO_COUNT>
0

>  <PUBCHEM_BOND_DEF_STEREO_COUNT>
0

>  <PUBCHEM_BOND_UDEF_STEREO_COUNT>
0

>  <PUBCHEM_ISOTOPIC_ATOM_COUNT>
0

>  <PUBCHEM_COMPONENT_COUNT>
1

>  <PUBCHEM_CACTVS_TAUTO_COUNT>
3

>  <PUBCHEM_COORDINATE_TYPE>
1
5
255

>  <PUBCHEM_BONDANNOTATIONS>
4  11  8
4  9  8
5  6  8
5  7  8
6  11  8
7  9  8

$$$$
