78172954
 OpenBabel06101807152D

 45 48  0  0  1  0  0  0  0  0999 V2000
    5.5103    1.3036    0.0000 O   0  0  0  0  0  0  0  0  0  0  0  0
    4.6497    0.8068    0.0000 O   0  0  0  0  0  0  0  0  0  0  0  0
    7.2762    2.3414    0.0000 O   0  0  0  0  0  0  0  0  0  0  0  0
    2.8680   -0.2037    0.0000 O   0  0  0  0  0  0  0  0  0  0  0  0
    8.1223   -2.2248    0.0000 N   0  0  0  0  0  0  0  0  0  0  0  0
    7.2641   -1.7278    0.0000 C   0  0  3  0  0  0  0  0  0  0  0  0
    7.2641   -0.7278    0.0000 C   0  0  0  0  0  0  0  0  0  0  0  0
    6.3981   -2.2278    0.0000 C   0  0  0  0  0  0  0  0  0  0  0  0
    8.1741   -0.2210    0.0000 C   0  0  0  0  0  0  0  0  0  0  0  0
    6.3981   -0.2278    0.0000 C   0  0  0  0  0  0  0  0  0  0  0  0
    9.0134   -0.7492    0.0000 C   0  0  0  0  0  0  0  0  0  0  0  0
    5.5320   -1.7278    0.0000 C   0  0  0  0  0  0  0  0  0  0  0  0
    8.9878   -1.7406    0.0000 C   0  0  0  0  0  0  0  0  0  0  0  0
    5.5320   -0.7278    0.0000 C   0  0  0  0  0  0  0  0  0  0  0  0
    6.3820    0.8137    0.0000 C   0  0  0  0  0  0  0  0  0  0  0  0
    8.1821    0.8206    0.0000 C   0  0  0  0  0  0  0  0  0  0  0  0
    4.6381   -0.1932    0.0000 C   0  0  0  0  0  0  0  0  0  0  0  0
    7.2800    1.3414    0.0000 C   0  0  0  0  0  0  0  0  0  0  0  0
    4.6381   -2.2625    0.0000 C   0  0  0  0  0  0  0  0  0  0  0  0
    3.7320   -0.7070    0.0000 C   0  0  0  0  0  0  0  0  0  0  0  0
    3.7320   -1.7486    0.0000 C   0  0  0  0  0  0  0  0  0  0  0  0
    3.7895    1.3167    0.0000 C   0  0  0  0  0  0  0  0  0  0  0  0
    8.1403    2.8448    0.0000 C   0  0  0  0  0  0  0  0  0  0  0  0
    2.0000   -0.7003    0.0000 C   0  0  0  0  0  0  0  0  0  0  0  0
    7.2637   -2.3478    0.0000 H   0  0  0  0  0  0  0  0  0  0  0  0
    5.9995   -2.7028    0.0000 H   0  0  0  0  0  0  0  0  0  0  0  0
    6.7966   -2.7028    0.0000 H   0  0  0  0  0  0  0  0  0  0  0  0
    8.1177   -2.8448    0.0000 H   0  0  0  0  0  0  0  0  0  0  0  0
    9.6205   -0.8751    0.0000 H   0  0  0  0  0  0  0  0  0  0  0  0
    9.2452   -0.1742    0.0000 H   0  0  0  0  0  0  0  0  0  0  0  0
    9.1895   -2.3268    0.0000 H   0  0  0  0  0  0  0  0  0  0  0  0
    9.6006   -1.6462    0.0000 H   0  0  0  0  0  0  0  0  0  0  0  0
    8.7203    1.1285    0.0000 H   0  0  0  0  0  0  0  0  0  0  0  0
    4.6453   -2.8825    0.0000 H   0  0  0  0  0  0  0  0  0  0  0  0
    3.1963   -2.0607    0.0000 H   0  0  0  0  0  0  0  0  0  0  0  0
    5.5031    1.9236    0.0000 H   0  0  0  0  0  0  0  0  0  0  0  0
    4.1057    1.8500    0.0000 H   0  0  0  0  0  0  0  0  0  0  0  0
    3.2562    1.6329    0.0000 H   0  0  0  0  0  0  0  0  0  0  0  0
    3.4733    0.7834    0.0000 H   0  0  0  0  0  0  0  0  0  0  0  0
    8.4523    2.3090    0.0000 H   0  0  0  0  0  0  0  0  0  0  0  0
    8.6760    3.1568    0.0000 H   0  0  0  0  0  0  0  0  0  0  0  0
    7.8282    3.3805    0.0000 H   0  0  0  0  0  0  0  0  0  0  0  0
    1.6921   -0.1622    0.0000 H   0  0  0  0  0  0  0  0  0  0  0  0
    1.4619   -1.0083    0.0000 H   0  0  0  0  0  0  0  0  0  0  0  0
    2.3079   -1.2385    0.0000 H   0  0  0  0  0  0  0  0  0  0  0  0
  1 15  1  0  0  0  0
  1 36  1  0  0  0  0
  2 17  1  0  0  0  0
  2 22  1  0  0  0  0
  3 18  1  0  0  0  0
  3 23  1  0  0  0  0
  4 20  1  0  0  0  0
  4 24  1  0  0  0  0
  5  6  1  0  0  0  0
  5 13  1  0  0  0  0
  5 28  1  0  0  0  0
  6  7  1  0  0  0  0
  6  8  1  0  0  0  0
  6 25  1  0  0  0  0
  7  9  1  0  0  0  0
  7 10  2  0  0  0  0
  8 12  1  0  0  0  0
  8 26  1  0  0  0  0
  8 27  1  0  0  0  0
  9 11  1  0  0  0  0
  9 16  2  0  0  0  0
 10 14  1  0  0  0  0
 10 15  1  0  0  0  0
 11 13  1  0  0  0  0
 11 29  1  0  0  0  0
 11 30  1  0  0  0  0
 12 14  2  0  0  0  0
 12 19  1  0  0  0  0
 13 31  1  0  0  0  0
 13 32  1  0  0  0  0
 14 17  1  0  0  0  0
 15 18  2  0  0  0  0
 16 18  1  0  0  0  0
 16 33  1  0  0  0  0
 17 20  2  0  0  0  0
 19 21  2  0  0  0  0
 19 34  1  0  0  0  0
 20 21  1  0  0  0  0
 21 35  1  0  0  0  0
 22 37  1  0  0  0  0
 22 38  1  0  0  0  0
 22 39  1  0  0  0  0
 23 40  1  0  0  0  0
 23 41  1  0  0  0  0
 23 42  1  0  0  0  0
 24 43  1  0  0  0  0
 24 44  1  0  0  0  0
 24 45  1  0  0  0  0
M  END
>  <PUBCHEM_COMPOUND_CID>
78172954

>  <PUBCHEM_COMPOUND_CANONICALIZED>
1

>  <PUBCHEM_CACTVS_COMPLEXITY>
447

>  <PUBCHEM_CACTVS_HBOND_ACCEPTOR>
5

>  <PUBCHEM_CACTVS_HBOND_DONOR>
2

>  <PUBCHEM_CACTVS_ROTATABLE_BOND>
3

>  <PUBCHEM_CACTVS_SUBSKEYS>
AAADceB6OAAAAAAAAAAAAAAAAAAAAAAAAAA8YMEAAAAAAADxQAAAHgAQCAAADCzBmAYyBoLABgCAAiBCAACCCAAgIAAIiIAOjIgNJiKGsRuEcCtk0BGLuAfw8P8OoAADAAAYQADQAAaAADSAAAAAAAAAAA==

>  <PUBCHEM_IUPAC_OPENEYE_NAME>
2,10,11-trimethoxy-5,6,6a,7-tetrahydro-4H-dibenzo[de,g]quinoline-1-ol

>  <PUBCHEM_IUPAC_CAS_NAME>
2,10,11-trimethoxy-5,6,6a,7-tetrahydro-4H-dibenzo[de,g]quinoline-1-ol

>  <PUBCHEM_IUPAC_NAME>
2,10,11-trimethoxy-5,6,6a,7-tetrahydro-4H-dibenzo[de,g]quinoline-1-ol

>  <PUBCHEM_IUPAC_SYSTEMATIC_NAME>
2,10,11-trimethoxy-5,6,6a,7-tetrahydro-4H-dibenzo[de,g]quinoline-1-ol

>  <PUBCHEM_IUPAC_TRADITIONAL_NAME>
2,10,11-trimethoxy-5,6,6a,7-tetrahydro-4H-dibenzo[de,g]quinoline-1-ol

>  <PUBCHEM_IUPAC_INCHI>
InChI=1S/C19H21NO4/c1-22-13-5-4-10-8-12-15-11(6-7-20-12)9-14(23-2)18(21)17(15)16(10)19(13)24-3/h4-5,9,12,20-21H,6-8H2,1-3H3

>  <PUBCHEM_IUPAC_INCHIKEY>
HVMMFGYMZZVURQ-UHFFFAOYSA-N

>  <PUBCHEM_XLOGP3_AA>
2.6

>  <PUBCHEM_EXACT_MASS>
327.147

>  <PUBCHEM_MOLECULAR_FORMULA>
C19H21NO4

>  <PUBCHEM_MOLECULAR_WEIGHT>
327.38

>  <PUBCHEM_OPENEYE_CAN_SMILES>
COC1=C(C2=C(CC3C4=C2C(=C(C=C4CCN3)OC)O)C=C1)OC

>  <PUBCHEM_OPENEYE_ISO_SMILES>
COC1=C(C2=C(CC3C4=C2C(=C(C=C4CCN3)OC)O)C=C1)OC

>  <PUBCHEM_CACTVS_TPSA>
60

>  <PUBCHEM_MONOISOTOPIC_WEIGHT>
327.147

>  <PUBCHEM_TOTAL_CHARGE>
0

>  <PUBCHEM_HEAVY_ATOM_COUNT>
24

>  <PUBCHEM_ATOM_DEF_STEREO_COUNT>
0

>  <PUBCHEM_ATOM_UDEF_STEREO_COUNT>
1

>  <PUBCHEM_BOND_DEF_STEREO_COUNT>
0

>  <PUBCHEM_BOND_UDEF_STEREO_COUNT>
0

>  <PUBCHEM_ISOTOPIC_ATOM_COUNT>
0

>  <PUBCHEM_COMPONENT_COUNT>
1

>  <PUBCHEM_CACTVS_TAUTO_COUNT>
2

>  <PUBCHEM_COORDINATE_TYPE>
1
5
255

>  <PUBCHEM_BONDANNOTATIONS>
10  15  8
12  14  8
12  19  8
14  17  8
15  18  8
16  18  8
17  20  8
19  21  8
20  21  8
6  8  3
7  10  8
7  9  8
9  16  8

$$$$
