78172774
 OpenBabel06101807152D

 76 81  0  0  1  0  0  0  0  0999 V2000
    5.9860    0.4509    0.0000 O   0  0  0  0  0  0  0  0  0  0  0  0
    6.8680   -2.0906    0.0000 O   0  0  0  0  0  0  0  0  0  0  0  0
    8.6382   -1.0937    0.0000 O   0  0  0  0  0  0  0  0  0  0  0  0
    6.8802    1.9787    0.0000 O   0  0  0  0  0  0  0  0  0  0  0  0
    8.6540    0.9545    0.0000 O   0  0  0  0  0  0  0  0  0  0  0  0
    4.8772   -2.0565    0.0000 O   0  0  0  0  0  0  0  0  0  0  0  0
    5.8477   -3.7709    0.0000 O   0  0  0  0  0  0  0  0  0  0  0  0
    5.8772   -2.0565    0.0000 O   0  0  0  0  0  0  0  0  0  0  0  0
    6.3741   -6.4248    0.0000 O   0  0  0  0  0  0  0  0  0  0  0  0
    5.3803   -6.4248    0.0000 O   0  0  0  0  0  0  0  0  0  0  0  0
    9.4464   -4.6667    0.0000 O   0  0  0  0  0  0  0  0  0  0  0  0
    3.4161    1.9653    0.0000 O   0  0  0  0  0  0  0  0  0  0  0  0
    5.1366    4.9720    0.0000 O   0  0  0  0  0  0  0  0  0  0  0  0
    8.4223   -6.4406    0.0000 O   0  0  0  0  0  0  0  0  0  0  0  0
    3.3321   -6.4406    0.0000 O   0  0  0  0  0  0  0  0  0  0  0  0
    2.3079   -4.6667    0.0000 O   0  0  0  0  0  0  0  0  0  0  0  0
    2.5443    3.4620    0.0000 O   0  0  0  0  0  0  0  0  0  0  0  0
    6.8680   -1.0906    0.0000 C   0  0  3  0  0  0  0  0  0  0  0  0
    7.7780   -0.5837    0.0000 C   0  0  3  0  0  0  0  0  0  0  0  0
    6.0020   -0.5906    0.0000 C   0  0  3  0  0  0  0  0  0  0  0  0
    7.7861    0.4578    0.0000 C   0  0  3  0  0  0  0  0  0  0  0  0
    6.8840    0.9787    0.0000 C   0  0  3  0  0  0  0  0  0  0  0  0
    5.1360   -1.0906    0.0000 C   0  0  0  0  0  0  0  0  0  0  0  0
    6.3772   -2.9226    0.0000 C   0  0  0  0  0  0  0  0  0  0  0  0
    6.0122    2.4753    0.0000 C   0  0  0  0  0  0  0  0  0  0  0  0
    6.8772   -3.7886    0.0000 C   0  0  0  0  0  0  0  0  0  0  0  0
    6.3772   -4.6546    0.0000 C   0  0  0  0  0  0  0  0  0  0  0  0
    5.3772   -2.9226    0.0000 C   0  0  0  0  0  0  0  0  0  0  0  0
    5.3772   -4.6546    0.0000 C   0  0  0  0  0  0  0  0  0  0  0  0
    4.8772   -3.7886    0.0000 C   0  0  0  0  0  0  0  0  0  0  0  0
    6.0084    3.4753    0.0000 C   0  0  0  0  0  0  0  0  0  0  0  0
    5.1481    1.9720    0.0000 C   0  0  0  0  0  0  0  0  0  0  0  0
    7.9187   -3.7725    0.0000 C   0  0  0  0  0  0  0  0  0  0  0  0
    6.8840   -5.5646    0.0000 C   0  0  0  0  0  0  0  0  0  0  0  0
    4.8703   -5.5646    0.0000 C   0  0  0  0  0  0  0  0  0  0  0  0
    3.8357   -3.7725    0.0000 C   0  0  0  0  0  0  0  0  0  0  0  0
    8.4464   -4.6706    0.0000 C   0  0  0  0  0  0  0  0  0  0  0  0
    4.2802    2.4686    0.0000 C   0  0  0  0  0  0  0  0  0  0  0  0
    5.1404    3.9720    0.0000 C   0  0  0  0  0  0  0  0  0  0  0  0
    7.9256   -5.5726    0.0000 C   0  0  0  0  0  0  0  0  0  0  0  0
    4.2763    3.4686    0.0000 C   0  0  0  0  0  0  0  0  0  0  0  0
    3.8287   -5.5726    0.0000 C   0  0  0  0  0  0  0  0  0  0  0  0
    3.3079   -4.6706    0.0000 C   0  0  0  0  0  0  0  0  0  0  0  0
    3.4084    3.9653    0.0000 C   0  0  0  0  0  0  0  0  0  0  0  0
    3.4045    4.9653    0.0000 C   0  0  0  0  0  0  0  0  0  0  0  0
    4.2686    5.4686    0.0000 C   0  0  0  0  0  0  0  0  0  0  0  0
    2.5366    5.4619    0.0000 C   0  0  0  0  0  0  0  0  0  0  0  0
    4.2648    6.4686    0.0000 C   0  0  0  0  0  0  0  0  0  0  0  0
    2.5327    6.4619    0.0000 C   0  0  0  0  0  0  0  0  0  0  0  0
    3.3968    6.9653    0.0000 C   0  0  0  0  0  0  0  0  0  0  0  0
    7.4026   -1.4047    0.0000 H   0  0  0  0  0  0  0  0  0  0  0  0
    7.7697   -1.2037    0.0000 H   0  0  0  0  0  0  0  0  0  0  0  0
    5.4627   -0.2847    0.0000 H   0  0  0  0  0  0  0  0  0  0  0  0
    8.3212    0.1448    0.0000 H   0  0  0  0  0  0  0  0  0  0  0  0
    7.4203    1.2897    0.0000 H   0  0  0  0  0  0  0  0  0  0  0  0
    4.9755   -0.4917    0.0000 H   0  0  0  0  0  0  0  0  0  0  0  0
    4.5160   -1.0906    0.0000 H   0  0  0  0  0  0  0  0  0  0  0  0
    9.1787   -0.7900    0.0000 H   0  0  0  0  0  0  0  0  0  0  0  0
    8.6564    1.5745    0.0000 H   0  0  0  0  0  0  0  0  0  0  0  0
    6.5441    3.7874    0.0000 H   0  0  0  0  0  0  0  0  0  0  0  0
    5.1505    1.3520    0.0000 H   0  0  0  0  0  0  0  0  0  0  0  0
    8.2225   -3.2320    0.0000 H   0  0  0  0  0  0  0  0  0  0  0  0
    3.5319   -3.2320    0.0000 H   0  0  0  0  0  0  0  0  0  0  0  0
    6.6778   -6.9653    0.0000 H   0  0  0  0  0  0  0  0  0  0  0  0
    5.0766   -6.9653    0.0000 H   0  0  0  0  0  0  0  0  0  0  0  0
    9.7544   -4.1286    0.0000 H   0  0  0  0  0  0  0  0  0  0  0  0
    3.4185    1.3453    0.0000 H   0  0  0  0  0  0  0  0  0  0  0  0
    5.6723    5.2840    0.0000 H   0  0  0  0  0  0  0  0  0  0  0  0
    9.0423   -6.4430    0.0000 H   0  0  0  0  0  0  0  0  0  0  0  0
    2.7121   -6.4430    0.0000 H   0  0  0  0  0  0  0  0  0  0  0  0
    2.0000   -4.1286    0.0000 H   0  0  0  0  0  0  0  0  0  0  0  0
    4.8067    5.1607    0.0000 H   0  0  0  0  0  0  0  0  0  0  0  0
    2.0008    5.1499    0.0000 H   0  0  0  0  0  0  0  0  0  0  0  0
    4.8005    6.7807    0.0000 H   0  0  0  0  0  0  0  0  0  0  0  0
    1.9946    6.7699    0.0000 H   0  0  0  0  0  0  0  0  0  0  0  0
    3.3944    7.5853    0.0000 H   0  0  0  0  0  0  0  0  0  0  0  0
  1 20  1  0  0  0  0
  1 22  1  0  0  0  0
  2 18  1  0  0  0  0
  2 24  1  0  0  0  0
  3 19  1  0  0  0  0
  3 58  1  0  0  0  0
  4 22  1  0  0  0  0
  4 25  1  0  0  0  0
  5 21  1  0  0  0  0
  5 59  1  0  0  0  0
  6 23  1  0  0  0  0
  6 28  1  0  0  0  0
  7 24  2  0  0  0  0
  8 28  2  0  0  0  0
  9 34  1  0  0  0  0
  9 64  1  0  0  0  0
 10 35  1  0  0  0  0
 10 65  1  0  0  0  0
 11 37  1  0  0  0  0
 11 66  1  0  0  0  0
 12 38  1  0  0  0  0
 12 67  1  0  0  0  0
 13 39  1  0  0  0  0
 13 68  1  0  0  0  0
 14 40  1  0  0  0  0
 14 69  1  0  0  0  0
 15 42  1  0  0  0  0
 15 70  1  0  0  0  0
 16 43  1  0  0  0  0
 16 71  1  0  0  0  0
 17 44  2  0  0  0  0
 18 19  1  0  0  0  0
 18 20  1  0  0  0  0
 18 51  1  0  0  0  0
 19 21  1  0  0  0  0
 19 52  1  0  0  0  0
 20 23  1  0  0  0  0
 20 53  1  0  0  0  0
 21 22  1  0  0  0  0
 21 54  1  0  0  0  0
 22 55  1  0  0  0  0
 23 56  1  0  0  0  0
 23 57  1  0  0  0  0
 24 26  1  0  0  0  0
 25 31  2  0  0  0  0
 25 32  1  0  0  0  0
 26 27  1  0  0  0  0
 26 33  2  0  0  0  0
 27 29  1  0  0  0  0
 27 34  2  0  0  0  0
 28 30  1  0  0  0  0
 29 30  1  0  0  0  0
 29 35  2  0  0  0  0
 30 36  2  0  0  0  0
 31 39  1  0  0  0  0
 31 60  1  0  0  0  0
 32 38  2  0  0  0  0
 32 61  1  0  0  0  0
 33 37  1  0  0  0  0
 33 62  1  0  0  0  0
 34 40  1  0  0  0  0
 35 42  1  0  0  0  0
 36 43  1  0  0  0  0
 36 63  1  0  0  0  0
 37 40  2  0  0  0  0
 38 41  1  0  0  0  0
 39 41  2  0  0  0  0
 41 44  1  0  0  0  0
 42 43  2  0  0  0  0
 44 45  1  0  0  0  0
 45 46  2  0  0  0  0
 45 47  1  0  0  0  0
 46 48  1  0  0  0  0
 46 72  1  0  0  0  0
 47 49  2  0  0  0  0
 47 73  1  0  0  0  0
 48 50  2  0  0  0  0
 48 74  1  0  0  0  0
 49 50  1  0  0  0  0
 49 75  1  0  0  0  0
 50 76  1  0  0  0  0
M  END
>  <PUBCHEM_COMPOUND_CID>
78172774

>  <PUBCHEM_COMPOUND_CANONICALIZED>
1

>  <PUBCHEM_CACTVS_COMPLEXITY>
1220

>  <PUBCHEM_CACTVS_HBOND_ACCEPTOR>
17

>  <PUBCHEM_CACTVS_HBOND_DONOR>
10

>  <PUBCHEM_CACTVS_ROTATABLE_BOND>
4

>  <PUBCHEM_CACTVS_SUBSKEYS>
AAADceB8PgAAAAAAAAAAAAAAAAAAAAAAAAA0YMGCAAAAAAABVAAAGgAACAAADBSwmAMwDoAABgCIAqDSCAACCAAkIAAIiAEGiMgdNzaGNRqieWGl4BUPuYfK7PzOoAABCAAYQABAAAIQADCAAAAAAAAAAA==

>  <PUBCHEM_IUPAC_INCHI>
InChI=1S/C33H26O17/c34-15-6-12(7-16(35)22(15)23(38)11-4-2-1-3-5-11)48-33-29(44)28(43)30-19(49-33)10-47-31(45)13-8-17(36)24(39)26(41)20(13)21-14(32(46)50-30)9-18(37)25(40)27(21)42/h1-9,19,28-30,33-37,39-44H,10H2

>  <PUBCHEM_IUPAC_INCHIKEY>
RPZNIDVYYGUDPA-UHFFFAOYSA-N

>  <PUBCHEM_XLOGP3_AA>
2.4

>  <PUBCHEM_EXACT_MASS>
694.117

>  <PUBCHEM_MOLECULAR_FORMULA>
C33H26O17

>  <PUBCHEM_MOLECULAR_WEIGHT>
694.554

>  <PUBCHEM_OPENEYE_CAN_SMILES>
C1C2C(C(C(C(O2)OC3=CC(=C(C(=C3)O)C(=O)C4=CC=CC=C4)O)O)O)OC(=O)C5=CC(=C(C(=C5C6=C(C(=C(C=C6C(=O)O1)O)O)O)O)O)O

>  <PUBCHEM_OPENEYE_ISO_SMILES>
C1C2C(C(C(C(O2)OC3=CC(=C(C(=C3)O)C(=O)C4=CC=CC=C4)O)O)O)OC(=O)C5=CC(=C(C(=C5C6=C(C(=C(C=C6C(=O)O1)O)O)O)O)O)O

>  <PUBCHEM_CACTVS_TPSA>
290

>  <PUBCHEM_MONOISOTOPIC_WEIGHT>
694.117

>  <PUBCHEM_TOTAL_CHARGE>
0

>  <PUBCHEM_HEAVY_ATOM_COUNT>
50

>  <PUBCHEM_ATOM_DEF_STEREO_COUNT>
0

>  <PUBCHEM_ATOM_UDEF_STEREO_COUNT>
5

>  <PUBCHEM_BOND_DEF_STEREO_COUNT>
0

>  <PUBCHEM_BOND_UDEF_STEREO_COUNT>
0

>  <PUBCHEM_ISOTOPIC_ATOM_COUNT>
0

>  <PUBCHEM_COMPONENT_COUNT>
1

>  <PUBCHEM_CACTVS_TAUTO_COUNT>
998

>  <PUBCHEM_COORDINATE_TYPE>
1
5
255

>  <PUBCHEM_BONDANNOTATIONS>
18  2  3
20  23  3
25  31  8
25  32  8
26  27  8
26  33  8
27  34  8
29  30  8
29  35  8
19  3  3
30  36  8
31  39  8
32  38  8
33  37  8
34  40  8
35  42  8
36  43  8
37  40  8
38  41  8
39  41  8
22  4  3
42  43  8
45  46  8
45  47  8
46  48  8
47  49  8
48  50  8
49  50  8
21  5  3

$$$$
