78190001
 OpenBabel06101807152D

 42 44  0  0  1  0  0  0  0  0999 V2000
    5.1350   -0.5000    0.0000 O   0  0  0  0  0  0  0  0  0  0  0  0
    6.8671   -0.5000    0.0000 O   0  0  0  0  0  0  0  0  0  0  0  0
    5.1350   -3.5000    0.0000 O   0  0  0  0  0  0  0  0  0  0  0  0
    3.4030   -2.5000    0.0000 O   0  0  0  0  0  0  0  0  0  0  0  0
    6.8671   -2.5000    0.0000 O   0  0  0  0  0  0  0  0  0  0  0  0
    2.5369   -1.0000    0.0000 O   0  0  0  0  0  0  0  0  0  0  0  0
    8.6155   -0.5346    0.0000 O   0  0  0  0  0  0  0  0  0  0  0  0
    6.8671    3.5000    0.0000 O   0  0  0  0  0  0  0  0  0  0  0  0
    5.1350   -2.5000    0.0000 C   0  0  3  0  0  0  0  0  0  0  0  0
    4.2690   -2.0000    0.0000 C   0  0  3  0  0  0  0  0  0  0  0  0
    6.0010   -2.0000    0.0000 C   0  0  3  0  0  0  0  0  0  0  0  0
    4.2690   -1.0000    0.0000 C   0  0  3  0  0  0  0  0  0  0  0  0
    6.0010   -1.0000    0.0000 C   0  0  3  0  0  0  0  0  0  0  0  0
    3.4030   -0.5000    0.0000 C   0  0  0  0  0  0  0  0  0  0  0  0
    6.8671    0.5000    0.0000 C   0  0  0  0  0  0  0  0  0  0  0  0
    7.7331    1.0000    0.0000 C   0  0  0  0  0  0  0  0  0  0  0  0
    7.7331    2.0000    0.0000 C   0  0  0  0  0  0  0  0  0  0  0  0
    6.0010    1.0000    0.0000 C   0  0  0  0  0  0  0  0  0  0  0  0
    8.6270    0.4653    0.0000 C   0  0  0  0  0  0  0  0  0  0  0  0
    6.8671    2.5000    0.0000 C   0  0  0  0  0  0  0  0  0  0  0  0
    6.0010    2.0000    0.0000 C   0  0  0  0  0  0  0  0  0  0  0  0
    8.6270    2.5347    0.0000 C   0  0  0  0  0  0  0  0  0  0  0  0
    9.5331    0.9792    0.0000 C   0  0  0  0  0  0  0  0  0  0  0  0
    9.5331    2.0208    0.0000 C   0  0  0  0  0  0  0  0  0  0  0  0
    5.6720   -2.8100    0.0000 H   0  0  0  0  0  0  0  0  0  0  0  0
    4.2690   -2.6200    0.0000 H   0  0  0  0  0  0  0  0  0  0  0  0
    6.5380   -1.6900    0.0000 H   0  0  0  0  0  0  0  0  0  0  0  0
    4.2690   -0.3800    0.0000 H   0  0  0  0  0  0  0  0  0  0  0  0
    6.0010   -0.3800    0.0000 H   0  0  0  0  0  0  0  0  0  0  0  0
    3.8015   -0.0251    0.0000 H   0  0  0  0  0  0  0  0  0  0  0  0
    3.0044   -0.0251    0.0000 H   0  0  0  0  0  0  0  0  0  0  0  0
    4.5981   -3.8100    0.0000 H   0  0  0  0  0  0  0  0  0  0  0  0
    3.4030   -3.1200    0.0000 H   0  0  0  0  0  0  0  0  0  0  0  0
    6.8671   -3.1200    0.0000 H   0  0  0  0  0  0  0  0  0  0  0  0
    2.0000   -0.6900    0.0000 H   0  0  0  0  0  0  0  0  0  0  0  0
    5.4641    0.6900    0.0000 H   0  0  0  0  0  0  0  0  0  0  0  0
    5.4641    2.3100    0.0000 H   0  0  0  0  0  0  0  0  0  0  0  0
    8.6199    3.1546    0.0000 H   0  0  0  0  0  0  0  0  0  0  0  0
   10.0688    0.6671    0.0000 H   0  0  0  0  0  0  0  0  0  0  0  0
   10.0688    2.3329    0.0000 H   0  0  0  0  0  0  0  0  0  0  0  0
    9.1488   -0.8508    0.0000 H   0  0  0  0  0  0  0  0  0  0  0  0
    6.3301    3.8100    0.0000 H   0  0  0  0  0  0  0  0  0  0  0  0
  1 12  1  0  0  0  0
  1 13  1  0  0  0  0
  2 13  1  0  0  0  0
  2 15  1  0  0  0  0
  3  9  1  0  0  0  0
  3 32  1  0  0  0  0
  4 10  1  0  0  0  0
  4 33  1  0  0  0  0
  5 11  1  0  0  0  0
  5 34  1  0  0  0  0
  6 14  1  0  0  0  0
  6 35  1  0  0  0  0
  7 19  1  0  0  0  0
  7 41  1  0  0  0  0
  8 20  1  0  0  0  0
  8 42  1  0  0  0  0
  9 10  1  0  0  0  0
  9 11  1  0  0  0  0
  9 25  1  0  0  0  0
 10 12  1  0  0  0  0
 10 26  1  0  0  0  0
 11 13  1  0  0  0  0
 11 27  1  0  0  0  0
 12 14  1  0  0  0  0
 12 28  1  0  0  0  0
 13 29  1  0  0  0  0
 14 30  1  0  0  0  0
 14 31  1  0  0  0  0
 15 16  2  0  0  0  0
 15 18  1  0  0  0  0
 16 17  1  0  0  0  0
 16 19  1  0  0  0  0
 17 20  2  0  0  0  0
 17 22  1  0  0  0  0
 18 21  2  0  0  0  0
 18 36  1  0  0  0  0
 19 23  2  0  0  0  0
 20 21  1  0  0  0  0
 21 37  1  0  0  0  0
 22 24  2  0  0  0  0
 22 38  1  0  0  0  0
 23 24  1  0  0  0  0
 23 39  1  0  0  0  0
 24 40  1  0  0  0  0
M  END
>  <PUBCHEM_COMPOUND_CID>
78190001

>  <PUBCHEM_COMPOUND_CANONICALIZED>
1

>  <PUBCHEM_CACTVS_COMPLEXITY>
421

>  <PUBCHEM_CACTVS_HBOND_ACCEPTOR>
8

>  <PUBCHEM_CACTVS_HBOND_DONOR>
6

>  <PUBCHEM_CACTVS_ROTATABLE_BOND>
3

>  <PUBCHEM_CACTVS_SUBSKEYS>
AAADceB4PAAAAAAAAAAAAAAAAAAAAAAAAAA0YIAAAAAAAADBUAAAGgAACAAADBSwmAMwDsAABgCAAiBCAAACCAAgIAAIiAAGCIgdNyKGMRqieCClwBUPuAfA4LwOgQABAAAYAAACAAIAADAAAAAAAAAAAA==

>  <PUBCHEM_IUPAC_OPENEYE_NAME>
2-[(4,8-dihydroxy-1-naphthyl)oxy]-6-(hydroxymethyl)tetrahydropyran-3,4,5-triol

>  <PUBCHEM_IUPAC_CAS_NAME>
2-[(4,8-dihydroxy-1-naphthalenyl)oxy]-6-(hydroxymethyl)oxane-3,4,5-triol

>  <PUBCHEM_IUPAC_NAME>
2-(4,8-dihydroxynaphthalen-1-yl)oxy-6-(hydroxymethyl)oxane-3,4,5-triol

>  <PUBCHEM_IUPAC_SYSTEMATIC_NAME>
2-[4,8-bis(oxidanyl)naphthalen-1-yl]oxy-6-(hydroxymethyl)oxane-3,4,5-triol

>  <PUBCHEM_IUPAC_TRADITIONAL_NAME>
2-(4,8-dihydroxy-1-naphthoxy)-6-methylol-tetrahydropyran-3,4,5-triol

>  <PUBCHEM_IUPAC_INCHI>
InChI=1S/C16H18O8/c17-6-11-13(20)14(21)15(22)16(24-11)23-10-5-4-8(18)7-2-1-3-9(19)12(7)10/h1-5,11,13-22H,6H2

>  <PUBCHEM_IUPAC_INCHIKEY>
LASMTIIWUCJLEH-UHFFFAOYSA-N

>  <PUBCHEM_XLOGP3>
-0.4

>  <PUBCHEM_EXACT_MASS>
338.1

>  <PUBCHEM_MOLECULAR_FORMULA>
C16H18O8

>  <PUBCHEM_MOLECULAR_WEIGHT>
338.312

>  <PUBCHEM_OPENEYE_CAN_SMILES>
C1=CC2=C(C=CC(=C2C(=C1)O)OC3C(C(C(C(O3)CO)O)O)O)O

>  <PUBCHEM_OPENEYE_ISO_SMILES>
C1=CC2=C(C=CC(=C2C(=C1)O)OC3C(C(C(C(O3)CO)O)O)O)O

>  <PUBCHEM_CACTVS_TPSA>
140

>  <PUBCHEM_MONOISOTOPIC_WEIGHT>
338.1

>  <PUBCHEM_TOTAL_CHARGE>
0

>  <PUBCHEM_HEAVY_ATOM_COUNT>
24

>  <PUBCHEM_ATOM_DEF_STEREO_COUNT>
0

>  <PUBCHEM_ATOM_UDEF_STEREO_COUNT>
5

>  <PUBCHEM_BOND_DEF_STEREO_COUNT>
0

>  <PUBCHEM_BOND_UDEF_STEREO_COUNT>
0

>  <PUBCHEM_ISOTOPIC_ATOM_COUNT>
0

>  <PUBCHEM_COMPONENT_COUNT>
1

>  <PUBCHEM_CACTVS_TAUTO_COUNT>
4

>  <PUBCHEM_COORDINATE_TYPE>
1
5
255

>  <PUBCHEM_BONDANNOTATIONS>
12  14  3
15  16  8
15  18  8
16  17  8
16  19  8
17  20  8
17  22  8
18  21  8
19  23  8
13  2  3
20  21  8
22  24  8
23  24  8
9  3  3
10  4  3
11  5  3

$$$$
