78385403
 OpenBabel06101807152D

 42 44  0  0  1  0  0  0  0  0999 V2000
    4.6660    1.2673    0.0000 O   0  0  0  0  0  0  0  0  0  0  0  0
    6.4783   -1.5374    0.0000 O   0  0  0  0  0  0  0  0  0  0  0  0
    3.8000   -0.2327    0.0000 C   0  0  3  0  0  0  0  0  0  0  0  0
    3.8000   -1.2327    0.0000 C   0  0  3  0  0  0  0  0  0  0  0  0
    2.9061    0.3020    0.0000 C   0  0  3  0  0  0  0  0  0  0  0  0
    4.6660    0.2673    0.0000 C   0  0  3  0  0  0  0  0  0  0  0  0
    2.9061   -1.7673    0.0000 C   0  0  0  0  0  0  0  0  0  0  0  0
    2.0000   -0.2119    0.0000 C   0  0  0  0  0  0  0  0  0  0  0  0
    4.6660   -1.7327    0.0000 C   0  0  0  0  0  0  0  0  0  0  0  0
    2.0000   -1.2535    0.0000 C   0  0  0  0  0  0  0  0  0  0  0  0
    3.8000    0.7673    0.0000 C   0  0  0  0  0  0  0  0  0  0  0  0
    5.5321   -0.2327    0.0000 C   0  0  0  0  0  0  0  0  0  0  0  0
    5.5321   -1.2327    0.0000 C   0  0  0  0  0  0  0  0  0  0  0  0
    2.9176    1.3019    0.0000 C   0  0  0  0  0  0  0  0  0  0  0  0
    6.4783    0.0721    0.0000 C   0  0  0  0  0  0  0  0  0  0  0  0
    7.0619   -0.7327    0.0000 C   0  0  0  0  0  0  0  0  0  0  0  0
    6.7889    1.0226    0.0000 C   0  0  0  0  0  0  0  0  0  0  0  0
    5.5321    1.7673    0.0000 C   0  0  0  0  0  0  0  0  0  0  0  0
    3.8048   -1.8526    0.0000 H   0  0  0  0  0  0  0  0  0  0  0  0
    2.3721    0.6172    0.0000 H   0  0  0  0  0  0  0  0  0  0  0  0
    5.2030    0.5773    0.0000 H   0  0  0  0  0  0  0  0  0  0  0  0
    2.5124   -2.2464    0.0000 H   0  0  0  0  0  0  0  0  0  0  0  0
    3.3107   -2.2371    0.0000 H   0  0  0  0  0  0  0  0  0  0  0  0
    1.7909    0.3718    0.0000 H   0  0  0  0  0  0  0  0  0  0  0  0
    1.3891   -0.3179    0.0000 H   0  0  0  0  0  0  0  0  0  0  0  0
    4.2675   -2.2076    0.0000 H   0  0  0  0  0  0  0  0  0  0  0  0
    5.0646   -2.2076    0.0000 H   0  0  0  0  0  0  0  0  0  0  0  0
    1.3891   -1.1474    0.0000 H   0  0  0  0  0  0  0  0  0  0  0  0
    1.7909   -1.8372    0.0000 H   0  0  0  0  0  0  0  0  0  0  0  0
    4.4200    0.7673    0.0000 H   0  0  0  0  0  0  0  0  0  0  0  0
    3.8000    1.3873    0.0000 H   0  0  0  0  0  0  0  0  0  0  0  0
    3.1800    0.7673    0.0000 H   0  0  0  0  0  0  0  0  0  0  0  0
    3.5376    1.2948    0.0000 H   0  0  0  0  0  0  0  0  0  0  0  0
    2.9248    1.9219    0.0000 H   0  0  0  0  0  0  0  0  0  0  0  0
    2.2977    1.3091    0.0000 H   0  0  0  0  0  0  0  0  0  0  0  0
    7.6819   -0.7327    0.0000 H   0  0  0  0  0  0  0  0  0  0  0  0
    7.3783    0.8300    0.0000 H   0  0  0  0  0  0  0  0  0  0  0  0
    6.9816    1.6119    0.0000 H   0  0  0  0  0  0  0  0  0  0  0  0
    6.1996    1.2152    0.0000 H   0  0  0  0  0  0  0  0  0  0  0  0
    5.8421    1.2304    0.0000 H   0  0  0  0  0  0  0  0  0  0  0  0
    6.0690    2.0773    0.0000 H   0  0  0  0  0  0  0  0  0  0  0  0
    5.2221    2.3043    0.0000 H   0  0  0  0  0  0  0  0  0  0  0  0
  1  6  1  0  0  0  0
  1 18  1  0  0  0  0
  2 13  1  0  0  0  0
  2 16  1  0  0  0  0
  3  4  1  0  0  0  0
  3  5  1  0  0  0  0
  3  6  1  0  0  0  0
  3 11  1  0  0  0  0
  4  7  1  0  0  0  0
  4  9  1  0  0  0  0
  4 19  1  0  0  0  0
  5  8  1  0  0  0  0
  5 14  1  0  0  0  0
  5 20  1  0  0  0  0
  6 12  1  0  0  0  0
  6 21  1  0  0  0  0
  7 10  1  0  0  0  0
  7 22  1  0  0  0  0
  7 23  1  0  0  0  0
  8 10  1  0  0  0  0
  8 24  1  0  0  0  0
  8 25  1  0  0  0  0
  9 13  1  0  0  0  0
  9 26  1  0  0  0  0
  9 27  1  0  0  0  0
 10 28  1  0  0  0  0
 10 29  1  0  0  0  0
 11 30  1  0  0  0  0
 11 31  1  0  0  0  0
 11 32  1  0  0  0  0
 12 13  2  0  0  0  0
 12 15  1  0  0  0  0
 14 33  1  0  0  0  0
 14 34  1  0  0  0  0
 14 35  1  0  0  0  0
 15 16  2  0  0  0  0
 15 17  1  0  0  0  0
 16 36  1  0  0  0  0
 17 37  1  0  0  0  0
 17 38  1  0  0  0  0
 17 39  1  0  0  0  0
 18 40  1  0  0  0  0
 18 41  1  0  0  0  0
 18 42  1  0  0  0  0
M  END
>  <PUBCHEM_COMPOUND_CID>
78385403

>  <PUBCHEM_COMPOUND_CANONICALIZED>
1

>  <PUBCHEM_CACTVS_COMPLEXITY>
316

>  <PUBCHEM_CACTVS_HBOND_ACCEPTOR>
2

>  <PUBCHEM_CACTVS_HBOND_DONOR>
0

>  <PUBCHEM_CACTVS_ROTATABLE_BOND>
1

>  <PUBCHEM_CACTVS_SUBSKEYS>
AAADceB4MAAAAAAAAAAAAAAAAAAAASAAAAAwYAAAAAAAAEjBgAAAGgAAAAAADxSgmAIiBIAABECIAohSgAACCAAkIAAAiAEECMgMJzaENRqCGSCl4BEIqQfK7PzPgAAAAAAAAADAAAYQADAAAAAAAAAAAA==

>  <PUBCHEM_IUPAC_OPENEYE_NAME>
4-methoxy-3,4a,5-trimethyl-5,6,7,8,8a,9-hexahydro-4H-benzo[f]benzofuran

>  <PUBCHEM_IUPAC_CAS_NAME>
4-methoxy-3,4a,5-trimethyl-5,6,7,8,8a,9-hexahydro-4H-benzo[f]benzofuran

>  <PUBCHEM_IUPAC_NAME>
4-methoxy-3,4a,5-trimethyl-5,6,7,8,8a,9-hexahydro-4H-benzo[f][1]benzofuran

>  <PUBCHEM_IUPAC_SYSTEMATIC_NAME>
4-methoxy-3,4a,5-trimethyl-5,6,7,8,8a,9-hexahydro-4H-benzo[f][1]benzofuran

>  <PUBCHEM_IUPAC_TRADITIONAL_NAME>
4-methoxy-3,4a,5-trimethyl-5,6,7,8,8a,9-hexahydro-4H-benzo[f]benzofuran

>  <PUBCHEM_IUPAC_INCHI>
InChI=1S/C16H24O2/c1-10-9-18-13-8-12-7-5-6-11(2)16(12,3)15(17-4)14(10)13/h9,11-12,15H,5-8H2,1-4H3

>  <PUBCHEM_IUPAC_INCHIKEY>
JRLLKNNCOWNIBL-UHFFFAOYSA-N

>  <PUBCHEM_XLOGP3_AA>
4.2

>  <PUBCHEM_EXACT_MASS>
248.178

>  <PUBCHEM_MOLECULAR_FORMULA>
C16H24O2

>  <PUBCHEM_MOLECULAR_WEIGHT>
248.366

>  <PUBCHEM_OPENEYE_CAN_SMILES>
CC1CCCC2C1(C(C3=C(C2)OC=C3C)OC)C

>  <PUBCHEM_OPENEYE_ISO_SMILES>
CC1CCCC2C1(C(C3=C(C2)OC=C3C)OC)C

>  <PUBCHEM_CACTVS_TPSA>
22.4

>  <PUBCHEM_MONOISOTOPIC_WEIGHT>
248.178

>  <PUBCHEM_TOTAL_CHARGE>
0

>  <PUBCHEM_HEAVY_ATOM_COUNT>
18

>  <PUBCHEM_ATOM_DEF_STEREO_COUNT>
0

>  <PUBCHEM_ATOM_UDEF_STEREO_COUNT>
4

>  <PUBCHEM_BOND_DEF_STEREO_COUNT>
0

>  <PUBCHEM_BOND_UDEF_STEREO_COUNT>
0

>  <PUBCHEM_ISOTOPIC_ATOM_COUNT>
0

>  <PUBCHEM_COMPONENT_COUNT>
1

>  <PUBCHEM_CACTVS_TAUTO_COUNT>
1

>  <PUBCHEM_COORDINATE_TYPE>
1
5
255

>  <PUBCHEM_BONDANNOTATIONS>
6  1  3
12  13  8
12  15  8
15  16  8
2  13  8
2  16  8
3  11  3
4  7  3
5  14  3

$$$$
