78385431
 OpenBabel06101807152D

 45 47  0  0  1  0  0  0  0  0999 V2000
    3.6942   -0.6212    0.0000 O   0  0  0  0  0  0  0  0  0  0  0  0
    4.9543   -2.4388    0.0000 O   0  0  0  0  0  0  0  0  0  0  0  0
    3.6671   -1.6957    0.0000 O   0  0  0  0  0  0  0  0  0  0  0  0
    3.1590    1.0260    0.0000 O   0  0  0  0  0  0  0  0  0  0  0  0
    5.9543    0.6388    0.0000 C   0  0  3  0  0  0  0  0  0  0  0  0
    4.9543    0.6388    0.0000 C   0  0  3  0  0  0  0  0  0  0  0  0
    5.4543   -0.9000    0.0000 C   0  0  3  0  0  0  0  0  0  0  0  0
    6.2633   -0.3122    0.0000 C   0  0  0  0  0  0  0  0  0  0  0  0
    4.6453   -0.3122    0.0000 C   0  0  3  0  0  0  0  0  0  0  0  0
    6.4889    1.5328    0.0000 C   0  0  3  0  0  0  0  0  0  0  0  0
    4.4196    1.5328    0.0000 C   0  0  0  0  0  0  0  0  0  0  0  0
    5.9751    2.4388    0.0000 C   0  0  0  0  0  0  0  0  0  0  0  0
    6.9543    0.6388    0.0000 C   0  0  0  0  0  0  0  0  0  0  0  0
    4.9335    2.4388    0.0000 C   0  0  0  0  0  0  0  0  0  0  0  0
    6.2633   -1.4878    0.0000 C   0  0  0  0  0  0  0  0  0  0  0  0
    4.6453   -1.4878    0.0000 C   0  0  0  0  0  0  0  0  0  0  0  0
    7.4889    1.5212    0.0000 C   0  0  0  0  0  0  0  0  0  0  0  0
    5.9543   -2.4388    0.0000 C   0  0  0  0  0  0  0  0  0  0  0  0
    7.2144   -1.1788    0.0000 C   0  0  0  0  0  0  0  0  0  0  0  0
    2.9511    0.0479    0.0000 C   0  0  0  0  0  0  0  0  0  0  0  0
    2.0000   -0.2611    0.0000 C   0  0  0  0  0  0  0  0  0  0  0  0
    4.3382    0.5693    0.0000 H   0  0  0  0  0  0  0  0  0  0  0  0
    6.5733   -0.8492    0.0000 H   0  0  0  0  0  0  0  0  0  0  0  0
    6.8297   -0.0600    0.0000 H   0  0  0  0  0  0  0  0  0  0  0  0
    4.5483   -0.9246    0.0000 H   0  0  0  0  0  0  0  0  0  0  0  0
    6.8041    2.0667    0.0000 H   0  0  0  0  0  0  0  0  0  0  0  0
    3.9406    1.9264    0.0000 H   0  0  0  0  0  0  0  0  0  0  0  0
    3.9498    1.1282    0.0000 H   0  0  0  0  0  0  0  0  0  0  0  0
    6.5588    2.6479    0.0000 H   0  0  0  0  0  0  0  0  0  0  0  0
    5.8690    3.0497    0.0000 H   0  0  0  0  0  0  0  0  0  0  0  0
    6.9543    0.0188    0.0000 H   0  0  0  0  0  0  0  0  0  0  0  0
    7.5743    0.6388    0.0000 H   0  0  0  0  0  0  0  0  0  0  0  0
    6.9543    1.2588    0.0000 H   0  0  0  0  0  0  0  0  0  0  0  0
    5.0396    3.0497    0.0000 H   0  0  0  0  0  0  0  0  0  0  0  0
    4.3498    2.6479    0.0000 H   0  0  0  0  0  0  0  0  0  0  0  0
    7.4817    0.9013    0.0000 H   0  0  0  0  0  0  0  0  0  0  0  0
    8.1088    1.5140    0.0000 H   0  0  0  0  0  0  0  0  0  0  0  0
    7.4960    2.1412    0.0000 H   0  0  0  0  0  0  0  0  0  0  0  0
    5.8895   -3.0554    0.0000 H   0  0  0  0  0  0  0  0  0  0  0  0
    6.5607   -2.5678    0.0000 H   0  0  0  0  0  0  0  0  0  0  0  0
    7.6751   -1.5936    0.0000 H   0  0  0  0  0  0  0  0  0  0  0  0
    7.3432   -0.5723    0.0000 H   0  0  0  0  0  0  0  0  0  0  0  0
    1.8084    0.3285    0.0000 H   0  0  0  0  0  0  0  0  0  0  0  0
    1.4103   -0.4527    0.0000 H   0  0  0  0  0  0  0  0  0  0  0  0
    2.1916   -0.8508    0.0000 H   0  0  0  0  0  0  0  0  0  0  0  0
  1  9  1  0  0  0  0
  1 20  1  0  0  0  0
  2 16  1  0  0  0  0
  2 18  1  0  0  0  0
  3 16  2  0  0  0  0
  4 20  2  0  0  0  0
  5  6  1  0  0  0  0
  5  8  1  0  0  0  0
  5 10  1  0  0  0  0
  5 13  1  0  0  0  0
  6  9  1  0  0  0  0
  6 11  1  0  0  0  0
  6 22  1  0  0  0  0
  7  8  1  0  0  0  0
  7  9  1  0  0  0  0
  7 15  1  0  0  0  0
  7 16  1  0  0  0  0
  8 23  1  0  0  0  0
  8 24  1  0  0  0  0
  9 25  1  0  0  0  0
 10 12  1  0  0  0  0
 10 17  1  0  0  0  0
 10 26  1  0  0  0  0
 11 14  1  0  0  0  0
 11 27  1  0  0  0  0
 11 28  1  0  0  0  0
 12 14  1  0  0  0  0
 12 29  1  0  0  0  0
 12 30  1  0  0  0  0
 13 31  1  0  0  0  0
 13 32  1  0  0  0  0
 13 33  1  0  0  0  0
 14 34  1  0  0  0  0
 14 35  1  0  0  0  0
 15 18  1  0  0  0  0
 15 19  2  0  0  0  0
 17 36  1  0  0  0  0
 17 37  1  0  0  0  0
 17 38  1  0  0  0  0
 18 39  1  0  0  0  0
 18 40  1  0  0  0  0
 19 41  1  0  0  0  0
 19 42  1  0  0  0  0
 20 21  1  0  0  0  0
 21 43  1  0  0  0  0
 21 44  1  0  0  0  0
 21 45  1  0  0  0  0
M  END
>  <PUBCHEM_COMPOUND_CID>
78385431

>  <PUBCHEM_COMPOUND_CANONICALIZED>
1

>  <PUBCHEM_CACTVS_COMPLEXITY>
511

>  <PUBCHEM_CACTVS_HBOND_ACCEPTOR>
4

>  <PUBCHEM_CACTVS_HBOND_DONOR>
0

>  <PUBCHEM_CACTVS_ROTATABLE_BOND>
2

>  <PUBCHEM_CACTVS_SUBSKEYS>
AAADceB4OAAAAAAAAAAAAAAAAAAAAaIAAAAwAAAAAAAAAGAAAAAAGgAAAAAADxSggAICCAAABACIAgDSCAAAAAAgAAAAAAEAAAgABBYAIQACAAAF4AAAIAHKyPCPgAAAAAAAAAAAAAQAACAAAYAADAAAAA==

>  <PUBCHEM_IUPAC_OPENEYE_NAME>
(3a,4-dimethyl-4'-methylene-2'-oxo-spiro[3,4,5,6,7,7a-hexahydro-1H-indene-2,3'-tetrahydrofuran]-1-yl) acetate

>  <PUBCHEM_IUPAC_CAS_NAME>
acetic acid (3a,4-dimethyl-4'-methylene-2'-oxo-1-spiro[3,4,5,6,7,7a-hexahydro-1H-indene-2,3'-oxolane]yl) ester

>  <PUBCHEM_IUPAC_NAME>
(3a,4-dimethyl-4'-methylidene-2'-oxospiro[3,4,5,6,7,7a-hexahydro-1H-indene-2,3'-oxolane]-1-yl) acetate

>  <PUBCHEM_IUPAC_SYSTEMATIC_NAME>
(3a,4-dimethyl-4'-methylidene-2'-oxidanylidene-spiro[3,4,5,6,7,7a-hexahydro-1H-indene-2,3'-oxolane]-1-yl) ethanoate

>  <PUBCHEM_IUPAC_TRADITIONAL_NAME>
acetic acid (2'-keto-3a,4-dimethyl-4'-methylene-spiro[3,4,5,6,7,7a-hexahydro-1H-indene-2,3'-tetrahydrofuran]-1-yl) ester

>  <PUBCHEM_IUPAC_INCHI>
InChI=1S/C17H24O4/c1-10-6-5-7-13-14(21-12(3)18)17(9-16(10,13)4)11(2)8-20-15(17)19/h10,13-14H,2,5-9H2,1,3-4H3

>  <PUBCHEM_IUPAC_INCHIKEY>
ZZZDGYZKGIPSPD-UHFFFAOYSA-N

>  <PUBCHEM_XLOGP3_AA>
2.9

>  <PUBCHEM_EXACT_MASS>
292.167

>  <PUBCHEM_MOLECULAR_FORMULA>
C17H24O4

>  <PUBCHEM_MOLECULAR_WEIGHT>
292.375

>  <PUBCHEM_OPENEYE_CAN_SMILES>
CC1CCCC2C1(CC3(C2OC(=O)C)C(=C)COC3=O)C

>  <PUBCHEM_OPENEYE_ISO_SMILES>
CC1CCCC2C1(CC3(C2OC(=O)C)C(=C)COC3=O)C

>  <PUBCHEM_CACTVS_TPSA>
52.6

>  <PUBCHEM_MONOISOTOPIC_WEIGHT>
292.167

>  <PUBCHEM_TOTAL_CHARGE>
0

>  <PUBCHEM_HEAVY_ATOM_COUNT>
21

>  <PUBCHEM_ATOM_DEF_STEREO_COUNT>
0

>  <PUBCHEM_ATOM_UDEF_STEREO_COUNT>
5

>  <PUBCHEM_BOND_DEF_STEREO_COUNT>
0

>  <PUBCHEM_BOND_UDEF_STEREO_COUNT>
0

>  <PUBCHEM_ISOTOPIC_ATOM_COUNT>
0

>  <PUBCHEM_COMPONENT_COUNT>
1

>  <PUBCHEM_CACTVS_TAUTO_COUNT>
1

>  <PUBCHEM_COORDINATE_TYPE>
1
5
255

>  <PUBCHEM_BONDANNOTATIONS>
9  1  3
10  17  3
5  13  3
6  11  3
7  8  3

$$$$
