78384987
 OpenBabel06101807152D

 89 91  0  0  0  0  0  0  0  0999 V2000
    7.1962    1.2500    0.0000 O   0  0  0  0  0  0  0  0  0  0  0  0
    8.0622   -1.2500    0.0000 O   0  0  0  0  0  0  0  0  0  0  0  0
    6.3301   -1.2500    0.0000 O   0  0  0  0  0  0  0  0  0  0  0  0
    7.1962    6.2500    0.0000 O   0  0  0  0  0  0  0  0  0  0  0  0
   10.6603    6.2500    0.0000 O   0  0  0  0  0  0  0  0  0  0  0  0
    8.9282    1.2500    0.0000 O   0  0  0  0  0  0  0  0  0  0  0  0
    6.3301   -6.2500    0.0000 O   0  0  0  0  0  0  0  0  0  0  0  0
   11.5263   -6.2500    0.0000 O   0  0  0  0  0  0  0  0  0  0  0  0
    2.8660   -6.2500    0.0000 O   0  0  0  0  0  0  0  0  0  0  0  0
    8.0622   -6.2500    0.0000 O   0  0  0  0  0  0  0  0  0  0  0  0
    9.7942   -1.2500    0.0000 O   0  0  0  0  0  0  0  0  0  0  0  0
    4.5981   -1.2500    0.0000 O   0  0  0  0  0  0  0  0  0  0  0  0
    8.9282    7.2500    0.0000 O   0  0  0  0  0  0  0  0  0  0  0  0
    9.7942   -7.2500    0.0000 O   0  0  0  0  0  0  0  0  0  0  0  0
    4.5981   -7.2500    0.0000 O   0  0  0  0  0  0  0  0  0  0  0  0
    7.1962    0.2500    0.0000 C   0  0  3  0  0  0  0  0  0  0  0  0
    6.3301   -0.2500    0.0000 C   0  0  0  0  0  0  0  0  0  0  0  0
    8.0622   -0.2500    0.0000 C   0  0  0  0  0  0  0  0  0  0  0  0
    8.0622    1.7500    0.0000 C   0  0  0  0  0  0  0  0  0  0  0  0
    8.9282    4.2500    0.0000 C   0  0  0  0  0  0  0  0  0  0  0  0
    8.9282   -1.7500    0.0000 C   0  0  0  0  0  0  0  0  0  0  0  0
    5.4641   -1.7500    0.0000 C   0  0  0  0  0  0  0  0  0  0  0  0
    8.0622    2.7500    0.0000 C   0  0  0  0  0  0  0  0  0  0  0  0
    9.7942   -4.2500    0.0000 C   0  0  0  0  0  0  0  0  0  0  0  0
    4.5981   -4.2500    0.0000 C   0  0  0  0  0  0  0  0  0  0  0  0
    8.9282    3.2500    0.0000 C   0  0  0  0  0  0  0  0  0  0  0  0
    9.7942    4.7500    0.0000 C   0  0  0  0  0  0  0  0  0  0  0  0
    8.0622    4.7500    0.0000 C   0  0  0  0  0  0  0  0  0  0  0  0
    8.0622    5.7500    0.0000 C   0  0  0  0  0  0  0  0  0  0  0  0
    9.7942    5.7500    0.0000 C   0  0  0  0  0  0  0  0  0  0  0  0
    8.9282   -2.7500    0.0000 C   0  0  0  0  0  0  0  0  0  0  0  0
    5.4641   -2.7500    0.0000 C   0  0  0  0  0  0  0  0  0  0  0  0
    9.7942   -3.2500    0.0000 C   0  0  0  0  0  0  0  0  0  0  0  0
    4.5981   -3.2500    0.0000 C   0  0  0  0  0  0  0  0  0  0  0  0
    8.9282    6.2500    0.0000 C   0  0  0  0  0  0  0  0  0  0  0  0
    8.9282   -4.7500    0.0000 C   0  0  0  0  0  0  0  0  0  0  0  0
    3.7320   -4.7500    0.0000 C   0  0  0  0  0  0  0  0  0  0  0  0
   10.6603   -4.7500    0.0000 C   0  0  0  0  0  0  0  0  0  0  0  0
    5.4641   -4.7500    0.0000 C   0  0  0  0  0  0  0  0  0  0  0  0
   10.6603   -5.7500    0.0000 C   0  0  0  0  0  0  0  0  0  0  0  0
    5.4641   -5.7500    0.0000 C   0  0  0  0  0  0  0  0  0  0  0  0
    8.9282   -5.7500    0.0000 C   0  0  0  0  0  0  0  0  0  0  0  0
    3.7320   -5.7500    0.0000 C   0  0  0  0  0  0  0  0  0  0  0  0
    4.5981   -6.2500    0.0000 C   0  0  0  0  0  0  0  0  0  0  0  0
    9.7942   -6.2500    0.0000 C   0  0  0  0  0  0  0  0  0  0  0  0
    6.3301    5.7500    0.0000 C   0  0  0  0  0  0  0  0  0  0  0  0
   11.5263    5.7500    0.0000 C   0  0  0  0  0  0  0  0  0  0  0  0
   12.3923   -5.7500    0.0000 C   0  0  0  0  0  0  0  0  0  0  0  0
    6.3301   -7.2500    0.0000 C   0  0  0  0  0  0  0  0  0  0  0  0
    8.0622   -7.2500    0.0000 C   0  0  0  0  0  0  0  0  0  0  0  0
    2.0000   -5.7500    0.0000 C   0  0  0  0  0  0  0  0  0  0  0  0
    6.6592    0.5600    0.0000 H   0  0  0  0  0  0  0  0  0  0  0  0
    8.6728   -0.3577    0.0000 H   0  0  0  0  0  0  0  0  0  0  0  0
    8.2742    0.3326    0.0000 H   0  0  0  0  0  0  0  0  0  0  0  0
    6.1181    0.3326    0.0000 H   0  0  0  0  0  0  0  0  0  0  0  0
    5.7196   -0.3577    0.0000 H   0  0  0  0  0  0  0  0  0  0  0  0
    7.5252    3.0600    0.0000 H   0  0  0  0  0  0  0  0  0  0  0  0
    9.4651    2.9400    0.0000 H   0  0  0  0  0  0  0  0  0  0  0  0
   10.3312    4.4400    0.0000 H   0  0  0  0  0  0  0  0  0  0  0  0
    7.5252    4.4400    0.0000 H   0  0  0  0  0  0  0  0  0  0  0  0
    6.0010   -3.0600    0.0000 H   0  0  0  0  0  0  0  0  0  0  0  0
    8.3913   -3.0600    0.0000 H   0  0  0  0  0  0  0  0  0  0  0  0
    4.0611   -2.9400    0.0000 H   0  0  0  0  0  0  0  0  0  0  0  0
   10.3312   -2.9400    0.0000 H   0  0  0  0  0  0  0  0  0  0  0  0
    8.3913   -4.4400    0.0000 H   0  0  0  0  0  0  0  0  0  0  0  0
    3.1951   -4.4400    0.0000 H   0  0  0  0  0  0  0  0  0  0  0  0
   11.1972   -4.4400    0.0000 H   0  0  0  0  0  0  0  0  0  0  0  0
    6.0010   -4.4400    0.0000 H   0  0  0  0  0  0  0  0  0  0  0  0
    9.4651    7.5600    0.0000 H   0  0  0  0  0  0  0  0  0  0  0  0
   10.3312   -7.5600    0.0000 H   0  0  0  0  0  0  0  0  0  0  0  0
    4.0611   -7.5600    0.0000 H   0  0  0  0  0  0  0  0  0  0  0  0
    6.0201    6.2869    0.0000 H   0  0  0  0  0  0  0  0  0  0  0  0
    5.7932    5.4400    0.0000 H   0  0  0  0  0  0  0  0  0  0  0  0
    6.6401    5.2131    0.0000 H   0  0  0  0  0  0  0  0  0  0  0  0
   11.2163    5.2131    0.0000 H   0  0  0  0  0  0  0  0  0  0  0  0
   12.0632    5.4400    0.0000 H   0  0  0  0  0  0  0  0  0  0  0  0
   11.8363    6.2869    0.0000 H   0  0  0  0  0  0  0  0  0  0  0  0
    5.7101   -7.2500    0.0000 H   0  0  0  0  0  0  0  0  0  0  0  0
    6.3301   -7.8700    0.0000 H   0  0  0  0  0  0  0  0  0  0  0  0
    6.9501   -7.2500    0.0000 H   0  0  0  0  0  0  0  0  0  0  0  0
   12.7023   -6.2869    0.0000 H   0  0  0  0  0  0  0  0  0  0  0  0
   12.9292   -5.4400    0.0000 H   0  0  0  0  0  0  0  0  0  0  0  0
   12.0823   -5.2131    0.0000 H   0  0  0  0  0  0  0  0  0  0  0  0
    2.3100   -5.2131    0.0000 H   0  0  0  0  0  0  0  0  0  0  0  0
    1.4631   -5.4400    0.0000 H   0  0  0  0  0  0  0  0  0  0  0  0
    1.6900   -6.2869    0.0000 H   0  0  0  0  0  0  0  0  0  0  0  0
    7.4422   -7.2500    0.0000 H   0  0  0  0  0  0  0  0  0  0  0  0
    8.0622   -7.8700    0.0000 H   0  0  0  0  0  0  0  0  0  0  0  0
    8.6822   -7.2500    0.0000 H   0  0  0  0  0  0  0  0  0  0  0  0
  1 16  1  0  0  0  0
  1 19  1  0  0  0  0
  2 18  1  0  0  0  0
  2 21  1  0  0  0  0
  3 17  1  0  0  0  0
  3 22  1  0  0  0  0
  4 29  1  0  0  0  0
  4 46  1  0  0  0  0
  5 30  1  0  0  0  0
  5 47  1  0  0  0  0
  6 19  2  0  0  0  0
  7 41  1  0  0  0  0
  7 49  1  0  0  0  0
  8 40  1  0  0  0  0
  8 48  1  0  0  0  0
  9 43  1  0  0  0  0
  9 51  1  0  0  0  0
 10 42  1  0  0  0  0
 10 50  1  0  0  0  0
 11 21  2  0  0  0  0
 12 22  2  0  0  0  0
 13 35  1  0  0  0  0
 13 69  1  0  0  0  0
 14 45  1  0  0  0  0
 14 70  1  0  0  0  0
 15 44  1  0  0  0  0
 15 71  1  0  0  0  0
 16 17  1  0  0  0  0
 16 18  1  0  0  0  0
 16 52  1  0  0  0  0
 17 55  1  0  0  0  0
 17 56  1  0  0  0  0
 18 53  1  0  0  0  0
 18 54  1  0  0  0  0
 19 23  1  0  0  0  0
 20 26  1  0  0  0  0
 20 27  2  0  0  0  0
 20 28  1  0  0  0  0
 21 31  1  0  0  0  0
 22 32  1  0  0  0  0
 23 26  2  3  0  0  0
 23 57  1  0  0  0  0
 24 33  1  0  0  0  0
 24 36  2  0  0  0  0
 24 38  1  0  0  0  0
 25 34  1  0  0  0  0
 25 37  2  0  0  0  0
 25 39  1  0  0  0  0
 26 58  1  0  0  0  0
 27 30  1  0  0  0  0
 27 59  1  0  0  0  0
 28 29  2  0  0  0  0
 28 60  1  0  0  0  0
 29 35  1  0  0  0  0
 30 35  2  0  0  0  0
 31 33  2  3  0  0  0
 31 62  1  0  0  0  0
 32 34  2  3  0  0  0
 32 61  1  0  0  0  0
 33 64  1  0  0  0  0
 34 63  1  0  0  0  0
 36 42  1  0  0  0  0
 36 65  1  0  0  0  0
 37 43  1  0  0  0  0
 37 66  1  0  0  0  0
 38 40  2  0  0  0  0
 38 67  1  0  0  0  0
 39 41  2  0  0  0  0
 39 68  1  0  0  0  0
 40 45  1  0  0  0  0
 41 44  1  0  0  0  0
 42 45  2  0  0  0  0
 43 44  2  0  0  0  0
 46 72  1  0  0  0  0
 46 73  1  0  0  0  0
 46 74  1  0  0  0  0
 47 75  1  0  0  0  0
 47 76  1  0  0  0  0
 47 77  1  0  0  0  0
 48 81  1  0  0  0  0
 48 82  1  0  0  0  0
 48 83  1  0  0  0  0
 49 78  1  0  0  0  0
 49 79  1  0  0  0  0
 49 80  1  0  0  0  0
 50 87  1  0  0  0  0
 50 88  1  0  0  0  0
 50 89  1  0  0  0  0
 51 84  1  0  0  0  0
 51 85  1  0  0  0  0
 51 86  1  0  0  0  0
M  END
>  <PUBCHEM_COMPOUND_CID>
78384987

>  <PUBCHEM_COMPOUND_CANONICALIZED>
1

>  <PUBCHEM_CACTVS_COMPLEXITY>
1070

>  <PUBCHEM_CACTVS_HBOND_ACCEPTOR>
15

>  <PUBCHEM_CACTVS_HBOND_DONOR>
3

>  <PUBCHEM_CACTVS_ROTATABLE_BOND>
20

>  <PUBCHEM_CACTVS_SUBSKEYS>
AAADcfB8PAAAAAAAAAAAAAAAAAAAAAAAAAAwYMAAAAAAAAABUAAAGgAACAAADBSgmAIyDoAABgCIAiDSCAACCAAgIAAIiAAGiMgNJyKGMRqCcCMlwBULuYeA4BwOIAABCAAAQABAAAIQAACAAAAAAAAAAA==

>  <PUBCHEM_IUPAC_OPENEYE_NAME>
2,3-bis[3-(4-hydroxy-3,5-dimethoxy-phenyl)prop-2-enoyloxy]propyl 3-(4-hydroxy-3,5-dimethoxy-phenyl)prop-2-enoate

>  <PUBCHEM_IUPAC_CAS_NAME>
3-(4-hydroxy-3,5-dimethoxyphenyl)-2-propenoic acid 2,3-bis[3-(4-hydroxy-3,5-dimethoxyphenyl)-1-oxoprop-2-enoxy]propyl ester

>  <PUBCHEM_IUPAC_NAME>
2,3-bis[3-(4-hydroxy-3,5-dimethoxyphenyl)prop-2-enoyloxy]propyl 3-(4-hydroxy-3,5-dimethoxyphenyl)prop-2-enoate

>  <PUBCHEM_IUPAC_SYSTEMATIC_NAME>
2,3-bis[3-(3,5-dimethoxy-4-oxidanyl-phenyl)prop-2-enoyloxy]propyl 3-(3,5-dimethoxy-4-oxidanyl-phenyl)prop-2-enoate

>  <PUBCHEM_IUPAC_TRADITIONAL_NAME>
3-(4-hydroxy-3,5-dimethoxy-phenyl)acrylic acid 2,3-bis[[3-(4-hydroxy-3,5-dimethoxy-phenyl)acryloyl]oxy]propyl ester

>  <PUBCHEM_IUPAC_INCHI>
InChI=1S/C36H38O15/c1-43-25-13-21(14-26(44-2)34(25)40)7-10-31(37)49-19-24(51-33(39)12-9-23-17-29(47-5)36(42)30(18-23)48-6)20-50-32(38)11-8-22-15-27(45-3)35(41)28(16-22)46-4/h7-18,24,40-42H,19-20H2,1-6H3

>  <PUBCHEM_IUPAC_INCHIKEY>
FEUWBELGELLWPV-UHFFFAOYSA-N

>  <PUBCHEM_XLOGP3_AA>
5

>  <PUBCHEM_EXACT_MASS>
710.221

>  <PUBCHEM_MOLECULAR_FORMULA>
C36H38O15

>  <PUBCHEM_MOLECULAR_WEIGHT>
710.685

>  <PUBCHEM_OPENEYE_CAN_SMILES>
COC1=CC(=CC(=C1O)OC)C=CC(=O)OCC(COC(=O)C=CC2=CC(=C(C(=C2)OC)O)OC)OC(=O)C=CC3=CC(=C(C(=C3)OC)O)OC

>  <PUBCHEM_OPENEYE_ISO_SMILES>
COC1=CC(=CC(=C1O)OC)C=CC(=O)OCC(COC(=O)C=CC2=CC(=C(C(=C2)OC)O)OC)OC(=O)C=CC3=CC(=C(C(=C3)OC)O)OC

>  <PUBCHEM_CACTVS_TPSA>
195

>  <PUBCHEM_MONOISOTOPIC_WEIGHT>
710.221

>  <PUBCHEM_TOTAL_CHARGE>
0

>  <PUBCHEM_HEAVY_ATOM_COUNT>
51

>  <PUBCHEM_ATOM_DEF_STEREO_COUNT>
0

>  <PUBCHEM_ATOM_UDEF_STEREO_COUNT>
0

>  <PUBCHEM_BOND_DEF_STEREO_COUNT>
0

>  <PUBCHEM_BOND_UDEF_STEREO_COUNT>
3

>  <PUBCHEM_ISOTOPIC_ATOM_COUNT>
0

>  <PUBCHEM_COMPONENT_COUNT>
1

>  <PUBCHEM_CACTVS_TAUTO_COUNT>
18

>  <PUBCHEM_COORDINATE_TYPE>
1
5
255

>  <PUBCHEM_BONDANNOTATIONS>
20  27  8
20  28  8
23  26  1
24  36  8
24  38  8
25  37  8
25  39  8
27  30  8
28  29  8
29  35  8
30  35  8
31  33  1
32  34  1
36  42  8
37  43  8
38  40  8
39  41  8
40  45  8
41  44  8
42  45  8
43  44  8

$$$$
