79035
 OpenBabel06101807152D

 26 28  0  0  1  0  0  0  0  0999 V2000
    2.5739   -0.1624    0.0000 C   0  0  3  0  0  0  0  0  0  0  0  0
    2.3886    0.6108    0.0000 C   0  0  3  0  0  0  0  0  0  0  0  0
    2.0000   -0.5824    0.0000 C   0  0  3  0  0  0  0  0  0  0  0  0
    3.2246   -0.3249    0.0000 C   0  0  0  0  0  0  0  0  0  0  0  0
    4.0843    0.0004    0.0000 C   0  0  3  0  0  0  0  0  0  0  0  0
    3.3827    0.7441    0.0000 C   0  0  0  0  0  0  0  0  0  0  0  0
    3.3827   -0.9608    0.0000 C   0  0  0  0  0  0  0  0  0  0  0  0
    2.8211    0.9608    0.0000 C   0  0  0  0  0  0  0  0  0  0  0  0
    4.0904   -0.8254    0.0000 C   0  0  0  0  0  0  0  0  0  0  0  0
    3.9331    0.5809    0.0000 C   0  0  0  0  0  0  0  0  0  0  0  0
    1.2518   -0.9857    0.0000 H   0  0  0  0  0  0  0  0  0  0  0  0
    1.8445    1.2638    0.0000 H   0  0  0  0  0  0  0  0  0  0  0  0
    4.7031    0.0393    0.0000 H   0  0  0  0  0  0  0  0  0  0  0  0
    3.1480   -1.5346    0.0000 H   0  0  0  0  0  0  0  0  0  0  0  0
    3.9240   -1.2631    0.0000 H   0  0  0  0  0  0  0  0  0  0  0  0
    3.9117    1.0674    0.0000 H   0  0  0  0  0  0  0  0  0  0  0  0
    3.1754    1.3284    0.0000 H   0  0  0  0  0  0  0  0  0  0  0  0
    3.4266    0.8275    0.0000 H   0  0  0  0  0  0  0  0  0  0  0  0
    2.9543    1.5663    0.0000 H   0  0  0  0  0  0  0  0  0  0  0  0
    2.2156    1.0940    0.0000 H   0  0  0  0  0  0  0  0  0  0  0  0
    4.4214    0.1990    0.0000 H   0  0  0  0  0  0  0  0  0  0  0  0
    4.3150    1.0693    0.0000 H   0  0  0  0  0  0  0  0  0  0  0  0
    3.4447    0.9629    0.0000 H   0  0  0  0  0  0  0  0  0  0  0  0
    3.7802   -1.3621    0.0000 H   0  0  0  0  0  0  0  0  0  0  0  0
    4.6272   -1.1356    0.0000 H   0  0  0  0  0  0  0  0  0  0  0  0
    4.4007   -0.2886    0.0000 H   0  0  0  0  0  0  0  0  0  0  0  0
  1  2  1  0  0  0  0
  1  3  1  0  0  0  0
  1  4  1  0  0  0  0
  1  8  1  0  0  0  0
  2  3  1  0  0  0  0
  2  6  1  0  0  0  0
  2 12  1  0  0  0  0
  3  7  1  0  0  0  0
  3 11  1  0  0  0  0
  4  5  1  0  0  0  0
  4  9  1  0  0  0  0
  4 10  1  0  0  0  0
  5  6  1  0  0  0  0
  5  7  1  0  0  0  0
  5 13  1  0  0  0  0
  6 16  1  0  0  0  0
  6 17  1  0  0  0  0
  7 14  1  0  0  0  0
  7 15  1  0  0  0  0
  8 18  1  0  0  0  0
  8 19  1  0  0  0  0
  8 20  1  0  0  0  0
  9 24  1  0  0  0  0
  9 25  1  0  0  0  0
  9 26  1  0  0  0  0
 10 21  1  0  0  0  0
 10 22  1  0  0  0  0
 10 23  1  0  0  0  0
M  END
>  <PUBCHEM_COMPOUND_CID>
79035

>  <PUBCHEM_COMPOUND_CANONICALIZED>
1

>  <PUBCHEM_CACTVS_COMPLEXITY>
190

>  <PUBCHEM_CACTVS_HBOND_ACCEPTOR>
0

>  <PUBCHEM_CACTVS_HBOND_DONOR>
0

>  <PUBCHEM_CACTVS_ROTATABLE_BOND>
0

>  <PUBCHEM_CACTVS_SUBSKEYS>
AAADceBwAAAAAAAAAAAAAAAAGAAAAYMGAAAAAAAAAAAAAAAAAAAAGAAAAAAADwCAAAACAAAAAAAAAAAAAAAAAAAAAAAAAAAAAAAAAAIAAAAAAAAAAAAAAAEAgMAPgAAAAAAAAACAAAQAACAAAQAACAAAAA==

>  <PUBCHEM_IUPAC_OPENEYE_NAME>
6,7,7-trimethyl-2,3,4,5-tetrahydro-1H-tricyclo[2.2.1.0^{2,6}]heptane

>  <PUBCHEM_IUPAC_CAS_NAME>
6,7,7-trimethyl-2,3,4,5-tetrahydro-1H-tricyclo[2.2.1.0^{2,6}]heptane

>  <PUBCHEM_IUPAC_NAME>
6,7,7-trimethyl-2,3,4,5-tetrahydro-1H-tricyclo[2.2.1.0^{2,6}]heptane

>  <PUBCHEM_IUPAC_SYSTEMATIC_NAME>
6,7,7-trimethyl-2,3,4,5-tetrahydro-1H-tricyclo[2.2.1.0^{2,6}]heptane

>  <PUBCHEM_IUPAC_TRADITIONAL_NAME>
6,7,7-trimethyl-2,3,4,5-tetrahydro-1H-tricyclo[2.2.1.0^{2,6}]heptane

>  <PUBCHEM_IUPAC_INCHI>
InChI=1S/C10H16/c1-9(2)6-4-7-8(5-6)10(7,9)3/h6-8H,4-5H2,1-3H3

>  <PUBCHEM_IUPAC_INCHIKEY>
RRBYUSWBLVXTQN-UHFFFAOYSA-N

>  <PUBCHEM_XLOGP3_AA>
3.2

>  <PUBCHEM_EXACT_MASS>
136.125

>  <PUBCHEM_MOLECULAR_FORMULA>
C10H16

>  <PUBCHEM_MOLECULAR_WEIGHT>
136.238

>  <PUBCHEM_OPENEYE_CAN_SMILES>
CC1(C2CC3C1(C3C2)C)C

>  <PUBCHEM_OPENEYE_ISO_SMILES>
CC1(C2CC3C1(C3C2)C)C

>  <PUBCHEM_CACTVS_TPSA>
0

>  <PUBCHEM_MONOISOTOPIC_WEIGHT>
136.125

>  <PUBCHEM_TOTAL_CHARGE>
0

>  <PUBCHEM_HEAVY_ATOM_COUNT>
10

>  <PUBCHEM_ATOM_DEF_STEREO_COUNT>
0

>  <PUBCHEM_ATOM_UDEF_STEREO_COUNT>
2

>  <PUBCHEM_BOND_DEF_STEREO_COUNT>
0

>  <PUBCHEM_BOND_UDEF_STEREO_COUNT>
0

>  <PUBCHEM_ISOTOPIC_ATOM_COUNT>
0

>  <PUBCHEM_COMPONENT_COUNT>
1

>  <PUBCHEM_CACTVS_TAUTO_COUNT>
1

>  <PUBCHEM_COORDINATE_TYPE>
1
5
255

>  <PUBCHEM_BONDANNOTATIONS>
2  12  3
3  11  3

$$$$
