80297
 OpenBabel06101807152D

 24 24  0  0  0  0  0  0  0  0999 V2000
    5.1906    0.4654    0.0000 O   0  0  0  0  0  0  0  0  0  0  0  0
    4.3802    2.1482    0.0000 O   0  0  0  0  0  0  0  0  0  0  0  0
    4.3802   -1.2174    0.0000 C   0  0  0  0  0  0  0  0  0  0  0  0
    3.7568   -0.4355    0.0000 C   0  0  0  0  0  0  0  0  0  0  0  0
    4.0149   -2.1482    0.0000 C   0  0  0  0  0  0  0  0  0  0  0  0
    5.3691   -1.0683    0.0000 C   0  0  0  0  0  0  0  0  0  0  0  0
    4.1906    0.4654    0.0000 C   0  0  0  0  0  0  0  0  0  0  0  0
    2.7818   -0.6581    0.0000 C   0  0  0  0  0  0  0  0  0  0  0  0
    3.7568    1.3664    0.0000 C   0  0  0  0  0  0  0  0  0  0  0  0
    2.0000   -0.0346    0.0000 C   0  0  0  0  0  0  0  0  0  0  0  0
    2.7818    1.5889    0.0000 C   0  0  0  0  0  0  0  0  0  0  0  0
    2.0000    0.9654    0.0000 C   0  0  0  0  0  0  0  0  0  0  0  0
    3.7672   -1.3098    0.0000 H   0  0  0  0  0  0  0  0  0  0  0  0
    3.4378   -1.9217    0.0000 H   0  0  0  0  0  0  0  0  0  0  0  0
    3.7884   -2.7254    0.0000 H   0  0  0  0  0  0  0  0  0  0  0  0
    4.5921   -2.3748    0.0000 H   0  0  0  0  0  0  0  0  0  0  0  0
    5.4615   -1.6814    0.0000 H   0  0  0  0  0  0  0  0  0  0  0  0
    5.9822   -0.9759    0.0000 H   0  0  0  0  0  0  0  0  0  0  0  0
    5.2767   -0.4552    0.0000 H   0  0  0  0  0  0  0  0  0  0  0  0
    2.6439   -1.2625    0.0000 H   0  0  0  0  0  0  0  0  0  0  0  0
    1.4414   -0.3036    0.0000 H   0  0  0  0  0  0  0  0  0  0  0  0
    2.6439    2.1934    0.0000 H   0  0  0  0  0  0  0  0  0  0  0  0
    1.4414    1.2344    0.0000 H   0  0  0  0  0  0  0  0  0  0  0  0
    5.5006    1.0024    0.0000 H   0  0  0  0  0  0  0  0  0  0  0  0
  1  7  1  0  0  0  0
  1 24  1  0  0  0  0
  2  9  2  0  0  0  0
  3  4  1  0  0  0  0
  3  5  1  0  0  0  0
  3  6  1  0  0  0  0
  3 13  1  0  0  0  0
  4  7  2  0  0  0  0
  4  8  1  0  0  0  0
  5 14  1  0  0  0  0
  5 15  1  0  0  0  0
  5 16  1  0  0  0  0
  6 17  1  0  0  0  0
  6 18  1  0  0  0  0
  6 19  1  0  0  0  0
  7  9  1  0  0  0  0
  8 10  2  0  0  0  0
  8 20  1  0  0  0  0
  9 11  1  0  0  0  0
 10 12  1  0  0  0  0
 10 21  1  0  0  0  0
 11 12  2  0  0  0  0
 11 22  1  0  0  0  0
 12 23  1  0  0  0  0
M  END
>  <PUBCHEM_COMPOUND_CID>
80297

>  <PUBCHEM_COMPOUND_CANONICALIZED>
1

>  <PUBCHEM_CACTVS_COMPLEXITY>
280

>  <PUBCHEM_CACTVS_HBOND_ACCEPTOR>
2

>  <PUBCHEM_CACTVS_HBOND_DONOR>
1

>  <PUBCHEM_CACTVS_ROTATABLE_BOND>
1

>  <PUBCHEM_CACTVS_SUBSKEYS>
AAADccBwMAAAAAAAAAAAAAAAAAAAAAAAAAAAAAAABAAAAAAAAAAAGgAACAAADQSAgAACAAAAAgCIAqBSAAIAAAAgIAAICABAAEgIAAAAAQAAQAAAwAAIgYIAAAAIAAAAAAAAAAAAAAAAAAAAAAAAAAAAAA==

>  <PUBCHEM_IUPAC_OPENEYE_NAME>
2-hydroxy-3-isopropyl-cyclohepta-2,4,6-trien-1-one

>  <PUBCHEM_IUPAC_CAS_NAME>
2-hydroxy-3-propan-2-yl-1-cyclohepta-2,4,6-trienone

>  <PUBCHEM_IUPAC_NAME>
2-hydroxy-3-propan-2-ylcyclohepta-2,4,6-trien-1-one

>  <PUBCHEM_IUPAC_SYSTEMATIC_NAME>
2-oxidanyl-3-propan-2-yl-cyclohepta-2,4,6-trien-1-one

>  <PUBCHEM_IUPAC_TRADITIONAL_NAME>
2-hydroxy-3-isopropyl-cyclohepta-2,4,6-trien-1-one

>  <PUBCHEM_IUPAC_INCHI>
InChI=1S/C10H12O2/c1-7(2)8-5-3-4-6-9(11)10(8)12/h3-7H,1-2H3,(H,11,12)

>  <PUBCHEM_IUPAC_INCHIKEY>
TUFYVOCKVJOUIR-UHFFFAOYSA-N

>  <PUBCHEM_XLOGP3_AA>
2.1

>  <PUBCHEM_EXACT_MASS>
164.084

>  <PUBCHEM_MOLECULAR_FORMULA>
C10H12O2

>  <PUBCHEM_MOLECULAR_WEIGHT>
164.204

>  <PUBCHEM_OPENEYE_CAN_SMILES>
CC(C)C1=C(C(=O)C=CC=C1)O

>  <PUBCHEM_OPENEYE_ISO_SMILES>
CC(C)C1=C(C(=O)C=CC=C1)O

>  <PUBCHEM_CACTVS_TPSA>
37.3

>  <PUBCHEM_MONOISOTOPIC_WEIGHT>
164.084

>  <PUBCHEM_TOTAL_CHARGE>
0

>  <PUBCHEM_HEAVY_ATOM_COUNT>
12

>  <PUBCHEM_ATOM_DEF_STEREO_COUNT>
0

>  <PUBCHEM_ATOM_UDEF_STEREO_COUNT>
0

>  <PUBCHEM_BOND_DEF_STEREO_COUNT>
0

>  <PUBCHEM_BOND_UDEF_STEREO_COUNT>
0

>  <PUBCHEM_ISOTOPIC_ATOM_COUNT>
0

>  <PUBCHEM_COMPONENT_COUNT>
1

>  <PUBCHEM_CACTVS_TAUTO_COUNT>
36

>  <PUBCHEM_COORDINATE_TYPE>
1
5
255

>  <PUBCHEM_BONDANNOTATIONS>
10  12  8
11  12  8
4  7  8
4  8  8
7  9  8
8  10  8
9  11  8

$$$$
