81142
 OpenBabel06101807152D

 26 27  0  0  0  0  0  0  0  0999 V2000
    4.6783   -0.8042    0.0000 S   0  0  0  0  0  0  0  0  0  0  0  0
    5.4883   -1.3906    0.0000 O   0  0  0  0  0  0  0  0  0  0  0  0
    4.3709   -1.7558    0.0000 O   0  0  0  0  0  0  0  0  0  0  0  0
    4.9889    1.7558    0.0000 O   0  0  0  0  0  0  0  0  0  0  0  0
    7.7619    0.8666    0.0000 O   0  0  0  0  0  0  0  0  0  0  0  0
    6.2619    1.7326    0.0000 O   0  0  0  0  0  0  0  0  0  0  0  0
    5.2619    0.0005    0.0000 N   0  0  0  0  0  0  0  0  0  0  0  0
    3.7320   -0.4995    0.0000 C   0  0  0  0  0  0  0  0  0  0  0  0
    3.7320    0.5005    0.0000 C   0  0  0  0  0  0  0  0  0  0  0  0
    4.6783    0.8053    0.0000 C   0  0  0  0  0  0  0  0  0  0  0  0
    6.2619    0.0005    0.0000 C   0  0  0  0  0  0  0  0  0  0  0  0
    2.8660   -0.9995    0.0000 C   0  0  0  0  0  0  0  0  0  0  0  0
    2.8660    1.0005    0.0000 C   0  0  0  0  0  0  0  0  0  0  0  0
    2.0000   -0.4995    0.0000 C   0  0  0  0  0  0  0  0  0  0  0  0
    2.0000    0.5005    0.0000 C   0  0  0  0  0  0  0  0  0  0  0  0
    6.7619    0.8666    0.0000 C   0  0  0  0  0  0  0  0  0  0  0  0
    8.2619    1.7326    0.0000 C   0  0  0  0  0  0  0  0  0  0  0  0
    6.1542   -0.6100    0.0000 H   0  0  0  0  0  0  0  0  0  0  0  0
    6.8445   -0.2115    0.0000 H   0  0  0  0  0  0  0  0  0  0  0  0
    2.8660   -1.6195    0.0000 H   0  0  0  0  0  0  0  0  0  0  0  0
    2.8660    1.6205    0.0000 H   0  0  0  0  0  0  0  0  0  0  0  0
    1.4631   -0.8095    0.0000 H   0  0  0  0  0  0  0  0  0  0  0  0
    1.4631    0.8105    0.0000 H   0  0  0  0  0  0  0  0  0  0  0  0
    8.7988    1.4226    0.0000 H   0  0  0  0  0  0  0  0  0  0  0  0
    8.5719    2.2695    0.0000 H   0  0  0  0  0  0  0  0  0  0  0  0
    7.7249    2.0426    0.0000 H   0  0  0  0  0  0  0  0  0  0  0  0
  1  2  2  0  0  0  0
  1  3  2  0  0  0  0
  1  7  1  0  0  0  0
  1  8  1  0  0  0  0
  4 10  2  0  0  0  0
  5 16  1  0  0  0  0
  5 17  1  0  0  0  0
  6 16  2  0  0  0  0
  7 10  1  0  0  0  0
  7 11  1  0  0  0  0
  8  9  1  0  0  0  0
  8 12  2  0  0  0  0
  9 10  1  0  0  0  0
  9 13  2  0  0  0  0
 11 16  1  0  0  0  0
 11 18  1  0  0  0  0
 11 19  1  0  0  0  0
 12 14  1  0  0  0  0
 12 20  1  0  0  0  0
 13 15  1  0  0  0  0
 13 21  1  0  0  0  0
 14 15  2  0  0  0  0
 14 22  1  0  0  0  0
 15 23  1  0  0  0  0
 17 24  1  0  0  0  0
 17 25  1  0  0  0  0
 17 26  1  0  0  0  0
M  END
>  <PUBCHEM_COMPOUND_CID>
81142

>  <PUBCHEM_COMPOUND_CANONICALIZED>
1

>  <PUBCHEM_CACTVS_COMPLEXITY>
438

>  <PUBCHEM_CACTVS_HBOND_ACCEPTOR>
5

>  <PUBCHEM_CACTVS_HBOND_DONOR>
0

>  <PUBCHEM_CACTVS_ROTATABLE_BOND>
3

>  <PUBCHEM_CACTVS_SUBSKEYS>
AAADccByOABAAAAAAAAAAAAAAAAAAWAAAAAwAAAAAAAAAFgBAAAAHgQAQAAADADB2AYyCYIABAKIAiHSGHDCABAkAAAIiBmIBMgKIDKAlTGFIQhghgCYiYcYiACOAAAAAAAEAAAAAAAAAAgAAAAAAAAAAA==

>  <PUBCHEM_IUPAC_OPENEYE_NAME>
methyl 2-(1,1,3-trioxo-1,2-benzothiazol-2-yl)acetate

>  <PUBCHEM_IUPAC_CAS_NAME>
2-(1,1,3-trioxo-1,2-benzothiazol-2-yl)acetic acid methyl ester

>  <PUBCHEM_IUPAC_NAME>
methyl 2-(1,1,3-trioxo-1,2-benzothiazol-2-yl)acetate

>  <PUBCHEM_IUPAC_SYSTEMATIC_NAME>
methyl 2-[1,1,3-tris(oxidanylidene)-1,2-benzothiazol-2-yl]ethanoate

>  <PUBCHEM_IUPAC_TRADITIONAL_NAME>
2-(1,1,3-triketo-1,2-benzothiazol-2-yl)acetic acid methyl ester

>  <PUBCHEM_IUPAC_INCHI>
InChI=1S/C10H9NO5S/c1-16-9(12)6-11-10(13)7-4-2-3-5-8(7)17(11,14)15/h2-5H,6H2,1H3

>  <PUBCHEM_IUPAC_INCHIKEY>
YWLDQSMTDJWJCC-UHFFFAOYSA-N

>  <PUBCHEM_XLOGP3_AA>
0.5

>  <PUBCHEM_EXACT_MASS>
255.02

>  <PUBCHEM_MOLECULAR_FORMULA>
C10H9NO5S

>  <PUBCHEM_MOLECULAR_WEIGHT>
255.244

>  <PUBCHEM_OPENEYE_CAN_SMILES>
COC(=O)CN1C(=O)C2=CC=CC=C2S1(=O)=O

>  <PUBCHEM_OPENEYE_ISO_SMILES>
COC(=O)CN1C(=O)C2=CC=CC=C2S1(=O)=O

>  <PUBCHEM_CACTVS_TPSA>
89.1

>  <PUBCHEM_MONOISOTOPIC_WEIGHT>
255.02

>  <PUBCHEM_TOTAL_CHARGE>
0

>  <PUBCHEM_HEAVY_ATOM_COUNT>
17

>  <PUBCHEM_ATOM_DEF_STEREO_COUNT>
0

>  <PUBCHEM_ATOM_UDEF_STEREO_COUNT>
0

>  <PUBCHEM_BOND_DEF_STEREO_COUNT>
0

>  <PUBCHEM_BOND_UDEF_STEREO_COUNT>
0

>  <PUBCHEM_ISOTOPIC_ATOM_COUNT>
0

>  <PUBCHEM_COMPONENT_COUNT>
1

>  <PUBCHEM_CACTVS_TAUTO_COUNT>
1

>  <PUBCHEM_COORDINATE_TYPE>
1
5
255

>  <PUBCHEM_BONDANNOTATIONS>
12  14  8
13  15  8
14  15  8
8  12  8
8  9  8
9  13  8

$$$$
