8187
 OpenBabel06101807152D

 32 31  0  0  0  0  0  0  0  0999 V2000
   11.5263   -0.5600    0.0000 O   0  0  0  0  0  0  0  0  0  0  0  0
    6.3301   -0.5600    0.0000 C   0  0  0  0  0  0  0  0  0  0  0  0
    7.1962   -0.0600    0.0000 C   0  0  0  0  0  0  0  0  0  0  0  0
    5.4641   -0.0600    0.0000 C   0  0  0  0  0  0  0  0  0  0  0  0
    8.0622   -0.5600    0.0000 C   0  0  0  0  0  0  0  0  0  0  0  0
    4.5981   -0.5600    0.0000 C   0  0  0  0  0  0  0  0  0  0  0  0
    8.9282   -0.0600    0.0000 C   0  0  0  0  0  0  0  0  0  0  0  0
    3.7320   -0.0600    0.0000 C   0  0  0  0  0  0  0  0  0  0  0  0
    9.7942   -0.5600    0.0000 C   0  0  0  0  0  0  0  0  0  0  0  0
    2.8660   -0.5600    0.0000 C   0  0  0  0  0  0  0  0  0  0  0  0
   10.6603   -0.0600    0.0000 C   0  0  0  0  0  0  0  0  0  0  0  0
    2.0000   -0.0600    0.0000 C   0  0  0  0  0  0  0  0  0  0  0  0
    5.9316   -1.0350    0.0000 H   0  0  0  0  0  0  0  0  0  0  0  0
    6.7287   -1.0350    0.0000 H   0  0  0  0  0  0  0  0  0  0  0  0
    7.5947    0.4149    0.0000 H   0  0  0  0  0  0  0  0  0  0  0  0
    6.7976    0.4149    0.0000 H   0  0  0  0  0  0  0  0  0  0  0  0
    5.8626    0.4149    0.0000 H   0  0  0  0  0  0  0  0  0  0  0  0
    5.0656    0.4149    0.0000 H   0  0  0  0  0  0  0  0  0  0  0  0
    7.6636   -1.0350    0.0000 H   0  0  0  0  0  0  0  0  0  0  0  0
    8.4607   -1.0350    0.0000 H   0  0  0  0  0  0  0  0  0  0  0  0
    4.1996   -1.0350    0.0000 H   0  0  0  0  0  0  0  0  0  0  0  0
    4.9966   -1.0350    0.0000 H   0  0  0  0  0  0  0  0  0  0  0  0
    9.3267    0.4149    0.0000 H   0  0  0  0  0  0  0  0  0  0  0  0
    8.5297    0.4149    0.0000 H   0  0  0  0  0  0  0  0  0  0  0  0
    4.1306    0.4149    0.0000 H   0  0  0  0  0  0  0  0  0  0  0  0
    3.3335    0.4149    0.0000 H   0  0  0  0  0  0  0  0  0  0  0  0
    9.3957   -1.0350    0.0000 H   0  0  0  0  0  0  0  0  0  0  0  0
   10.1928   -1.0350    0.0000 H   0  0  0  0  0  0  0  0  0  0  0  0
    2.8660   -1.1800    0.0000 H   0  0  0  0  0  0  0  0  0  0  0  0
   10.6603    0.5600    0.0000 H   0  0  0  0  0  0  0  0  0  0  0  0
    2.0000    0.5600    0.0000 H   0  0  0  0  0  0  0  0  0  0  0  0
    1.4631   -0.3700    0.0000 H   0  0  0  0  0  0  0  0  0  0  0  0
  1 11  2  0  0  0  0
  2  3  1  0  0  0  0
  2  4  1  0  0  0  0
  2 13  1  0  0  0  0
  2 14  1  0  0  0  0
  3  5  1  0  0  0  0
  3 15  1  0  0  0  0
  3 16  1  0  0  0  0
  4  6  1  0  0  0  0
  4 17  1  0  0  0  0
  4 18  1  0  0  0  0
  5  7  1  0  0  0  0
  5 19  1  0  0  0  0
  5 20  1  0  0  0  0
  6  8  1  0  0  0  0
  6 21  1  0  0  0  0
  6 22  1  0  0  0  0
  7  9  1  0  0  0  0
  7 23  1  0  0  0  0
  7 24  1  0  0  0  0
  8 10  1  0  0  0  0
  8 25  1  0  0  0  0
  8 26  1  0  0  0  0
  9 11  1  0  0  0  0
  9 27  1  0  0  0  0
  9 28  1  0  0  0  0
 10 12  2  0  0  0  0
 10 29  1  0  0  0  0
 11 30  1  0  0  0  0
 12 31  1  0  0  0  0
 12 32  1  0  0  0  0
M  END
>  <PUBCHEM_COMPOUND_CID>
8187

>  <PUBCHEM_COMPOUND_CANONICALIZED>
1

>  <PUBCHEM_CACTVS_COMPLEXITY>
108

>  <PUBCHEM_CACTVS_HBOND_ACCEPTOR>
1

>  <PUBCHEM_CACTVS_HBOND_DONOR>
0

>  <PUBCHEM_CACTVS_ROTATABLE_BOND>
9

>  <PUBCHEM_CACTVS_SUBSKEYS>
AAADceBwIAAAAAAAAAAAAAAAAAAAAAAAAAAAAAAAAAAAAAAAAAAAGgAAAAAACACggAIAAAAAAACIAChSgAAAAAAgAAAIAAEAAAgAABIAAQAAAAAAgAAAAAEIiICAAAAAAAAAAAAAAAAAAAAAAAAAAAAAAA==

>  <PUBCHEM_IUPAC_OPENEYE_NAME>
undec-10-enal

>  <PUBCHEM_IUPAC_CAS_NAME>
10-undecenal

>  <PUBCHEM_IUPAC_NAME>
undec-10-enal

>  <PUBCHEM_IUPAC_SYSTEMATIC_NAME>
undec-10-enal

>  <PUBCHEM_IUPAC_TRADITIONAL_NAME>
undec-10-enal

>  <PUBCHEM_IUPAC_INCHI>
InChI=1S/C11H20O/c1-2-3-4-5-6-7-8-9-10-11-12/h2,11H,1,3-10H2

>  <PUBCHEM_IUPAC_INCHIKEY>
OFHHDSQXFXLTKC-UHFFFAOYSA-N

>  <PUBCHEM_XLOGP3>
3.8

>  <PUBCHEM_EXACT_MASS>
168.151

>  <PUBCHEM_MOLECULAR_FORMULA>
C11H20O

>  <PUBCHEM_MOLECULAR_WEIGHT>
168.28

>  <PUBCHEM_OPENEYE_CAN_SMILES>
C=CCCCCCCCCC=O

>  <PUBCHEM_OPENEYE_ISO_SMILES>
C=CCCCCCCCCC=O

>  <PUBCHEM_CACTVS_TPSA>
17.1

>  <PUBCHEM_MONOISOTOPIC_WEIGHT>
168.151

>  <PUBCHEM_TOTAL_CHARGE>
0

>  <PUBCHEM_HEAVY_ATOM_COUNT>
12

>  <PUBCHEM_ATOM_DEF_STEREO_COUNT>
0

>  <PUBCHEM_ATOM_UDEF_STEREO_COUNT>
0

>  <PUBCHEM_BOND_DEF_STEREO_COUNT>
0

>  <PUBCHEM_BOND_UDEF_STEREO_COUNT>
0

>  <PUBCHEM_ISOTOPIC_ATOM_COUNT>
0

>  <PUBCHEM_COMPONENT_COUNT>
1

>  <PUBCHEM_CACTVS_TAUTO_COUNT>
2

>  <PUBCHEM_COORDINATE_TYPE>
1
5
255

$$$$
