85058456
 OpenBabel06101807152D

160168  0  0  1  0  0  0  0  0999 V2000
    6.8671   -3.2722    0.0000 O   0  0  0  0  0  0  0  0  0  0  0  0
    8.6424    6.0822    0.0000 O   0  0  0  0  0  0  0  0  0  0  0  0
    9.3112   -2.5806    0.0000 O   0  0  0  0  0  0  0  0  0  0  0  0
    5.1350   -3.2722    0.0000 O   0  0  0  0  0  0  0  0  0  0  0  0
    9.5085    7.5822    0.0000 O   0  0  0  0  0  0  0  0  0  0  0  0
    6.8671   -5.2722    0.0000 O   0  0  0  0  0  0  0  0  0  0  0  0
    5.1350   -6.2722    0.0000 O   0  0  0  0  0  0  0  0  0  0  0  0
    3.4030   -5.2722    0.0000 O   0  0  0  0  0  0  0  0  0  0  0  0
    6.9104    9.0822    0.0000 O   0  0  0  0  0  0  0  0  0  0  0  0
    6.0010   -6.7722    0.0000 O   0  0  0  0  0  0  0  0  0  0  0  0
    8.6424   10.0823    0.0000 O   0  0  0  0  0  0  0  0  0  0  0  0
    2.5369   -3.7722    0.0000 O   0  0  0  0  0  0  0  0  0  0  0  0
    3.4030   -2.2722    0.0000 O   0  0  0  0  0  0  0  0  0  0  0  0
    8.5991   -6.2722    0.0000 O   0  0  0  0  0  0  0  0  0  0  0  0
    8.5991   -8.2722    0.0000 O   0  0  0  0  0  0  0  0  0  0  0  0
    6.8671   -9.2722    0.0000 O   0  0  0  0  0  0  0  0  0  0  0  0
    9.4651   -7.7722    0.0000 O   0  0  0  0  0  0  0  0  0  0  0  0
    5.1350   -9.2722    0.0000 O   0  0  0  0  0  0  0  0  0  0  0  0
   10.3312   -5.2722    0.0000 O   0  0  0  0  0  0  0  0  0  0  0  0
   12.0632   -6.2722    0.0000 O   0  0  0  0  0  0  0  0  0  0  0  0
   12.0632   -8.2722    0.0000 O   0  0  0  0  0  0  0  0  0  0  0  0
   11.1972   -9.7722    0.0000 O   0  0  0  0  0  0  0  0  0  0  0  0
    7.7681    1.4280    0.0000 C   0  0  3  0  0  0  0  0  0  0  0  0
    6.9040    0.9246    0.0000 C   0  0  3  0  0  0  0  0  0  0  0  0
    6.8920   -0.1169    0.0000 C   0  0  3  0  0  0  0  0  0  0  0  0
    7.7643    2.4280    0.0000 C   0  0  3  0  0  0  0  0  0  0  0  0
    7.7920   -0.6412    0.0000 C   0  0  3  0  0  0  0  0  0  0  0  0
    8.6801    0.9246    0.0000 C   0  0  0  0  0  0  0  0  0  0  0  0
    6.8963    2.9246    0.0000 C   0  0  0  0  0  0  0  0  0  0  0  0
    7.8046   -1.7261    0.0000 C   0  0  3  0  0  0  0  0  0  0  0  0
    8.6921   -0.1169    0.0000 C   0  0  0  0  0  0  0  0  0  0  0  0
    6.8762    3.9661    0.0000 C   0  0  3  0  0  0  0  0  0  0  0  0
    7.7722    4.4973    0.0000 C   0  0  3  0  0  0  0  0  0  0  0  0
    8.6723    2.9383    0.0000 C   0  0  0  0  0  0  0  0  0  0  0  0
    6.0361    1.4213    0.0000 C   0  0  0  0  0  0  0  0  0  0  0  0
    5.9421   -0.6412    0.0000 C   0  0  0  0  0  0  0  0  0  0  0  0
    8.6763    3.9799    0.0000 C   0  0  0  0  0  0  0  0  0  0  0  0
    8.7522    1.6054    0.0000 C   0  0  0  0  0  0  0  0  0  0  0  0
    6.8671   -2.2722    0.0000 C   0  0  3  0  0  0  0  0  0  0  0  0
    6.0322    2.4213    0.0000 C   0  0  0  0  0  0  0  0  0  0  0  0
    6.0279    0.3864    0.0000 C   0  0  0  0  0  0  0  0  0  0  0  0
    5.9295   -1.7261    0.0000 C   0  0  0  0  0  0  0  0  0  0  0  0
    8.7497    2.2581    0.0000 C   0  0  0  0  0  0  0  0  0  0  0  0
    5.9223    4.4830    0.0000 C   0  0  0  0  0  0  0  0  0  0  0  0
    7.7764    5.5822    0.0000 C   0  0  3  0  0  0  0  0  0  0  0  0
    5.9014    5.5678    0.0000 C   0  0  0  0  0  0  0  0  0  0  0  0
    6.8347    6.1211    0.0000 C   0  0  0  0  0  0  0  0  0  0  0  0
    8.8046   -1.7184    0.0000 C   0  0  0  0  0  0  0  0  0  0  0  0
    8.3113   -2.5883    0.0000 C   0  0  0  0  0  0  0  0  0  0  0  0
    8.6324    5.0072    0.0000 C   0  0  0  0  0  0  0  0  0  0  0  0
    5.3881    6.4260    0.0000 C   0  0  0  0  0  0  0  0  0  0  0  0
    4.9015    5.5524    0.0000 C   0  0  0  0  0  0  0  0  0  0  0  0
    6.0010   -3.7722    0.0000 C   0  0  3  0  0  0  0  0  0  0  0  0
    8.6424    7.0822    0.0000 C   0  0  3  0  0  0  0  0  0  0  0  0
    6.0010   -4.7722    0.0000 C   0  0  3  0  0  0  0  0  0  0  0  0
    7.7764    7.5822    0.0000 C   0  0  0  0  0  0  0  0  0  0  0  0
    5.1350   -5.2722    0.0000 C   0  0  3  0  0  0  0  0  0  0  0  0
    4.2690   -3.7722    0.0000 C   0  0  3  0  0  0  0  0  0  0  0  0
    4.2690   -4.7722    0.0000 C   0  0  3  0  0  0  0  0  0  0  0  0
    7.7764    8.5822    0.0000 C   0  0  0  0  0  0  0  0  0  0  0  0
    9.5085    8.5822    0.0000 C   0  0  0  0  0  0  0  0  0  0  0  0
    6.8671   -6.2722    0.0000 C   0  0  3  0  0  0  0  0  0  0  0  0
    8.6424    9.0822    0.0000 C   0  0  0  0  0  0  0  0  0  0  0  0
    3.4030   -3.2722    0.0000 C   0  0  0  0  0  0  0  0  0  0  0  0
    7.7331   -6.7722    0.0000 C   0  0  3  0  0  0  0  0  0  0  0  0
   10.3745    9.0822    0.0000 C   0  0  0  0  0  0  0  0  0  0  0  0
    7.7331   -7.7722    0.0000 C   0  0  3  0  0  0  0  0  0  0  0  0
    6.0010   -7.7722    0.0000 C   0  0  3  0  0  0  0  0  0  0  0  0
    6.8671   -8.2722    0.0000 C   0  0  3  0  0  0  0  0  0  0  0  0
    5.1350   -8.2722    0.0000 C   0  0  0  0  0  0  0  0  0  0  0  0
    9.4651   -6.7722    0.0000 C   0  0  3  0  0  0  0  0  0  0  0  0
   10.3312   -6.2722    0.0000 C   0  0  3  0  0  0  0  0  0  0  0  0
   11.1972   -6.7722    0.0000 C   0  0  3  0  0  0  0  0  0  0  0  0
   10.3312   -8.2722    0.0000 C   0  0  3  0  0  0  0  0  0  0  0  0
   11.1972   -7.7722    0.0000 C   0  0  3  0  0  0  0  0  0  0  0  0
   10.3312   -9.2722    0.0000 C   0  0  0  0  0  0  0  0  0  0  0  0
    7.4398    0.6126    0.0000 H   0  0  0  0  0  0  0  0  0  0  0  0
    8.3314   -0.9471    0.0000 H   0  0  0  0  0  0  0  0  0  0  0  0
    9.2921    0.8256    0.0000 H   0  0  0  0  0  0  0  0  0  0  0  0
    8.8824    1.5107    0.0000 H   0  0  0  0  0  0  0  0  0  0  0  0
    8.9079   -0.6982    0.0000 H   0  0  0  0  0  0  0  0  0  0  0  0
    9.3017   -0.0038    0.0000 H   0  0  0  0  0  0  0  0  0  0  0  0
    6.3466    3.6437    0.0000 H   0  0  0  0  0  0  0  0  0  0  0  0
    8.8791    2.3538    0.0000 H   0  0  0  0  0  0  0  0  0  0  0  0
    9.2836    3.0420    0.0000 H   0  0  0  0  0  0  0  0  0  0  0  0
    5.4251    1.5266    0.0000 H   0  0  0  0  0  0  0  0  0  0  0  0
    5.8263    0.8379    0.0000 H   0  0  0  0  0  0  0  0  0  0  0  0
    5.7398   -0.0551    0.0000 H   0  0  0  0  0  0  0  0  0  0  0  0
    5.3300   -0.7402    0.0000 H   0  0  0  0  0  0  0  0  0  0  0  0
    9.2868    3.8715    0.0000 H   0  0  0  0  0  0  0  0  0  0  0  0
    8.8876    4.5628    0.0000 H   0  0  0  0  0  0  0  0  0  0  0  0
    8.8623    0.9952    0.0000 H   0  0  0  0  0  0  0  0  0  0  0  0
    9.3624    1.7154    0.0000 H   0  0  0  0  0  0  0  0  0  0  0  0
    8.6422    2.2156    0.0000 H   0  0  0  0  0  0  0  0  0  0  0  0
    7.4046   -2.5812    0.0000 H   0  0  0  0  0  0  0  0  0  0  0  0
    5.4941    2.7292    0.0000 H   0  0  0  0  0  0  0  0  0  0  0  0
    6.3400    0.9221    0.0000 H   0  0  0  0  0  0  0  0  0  0  0  0
    5.4922    0.6985    0.0000 H   0  0  0  0  0  0  0  0  0  0  0  0
    5.7158   -0.1493    0.0000 H   0  0  0  0  0  0  0  0  0  0  0  0
    5.3199   -1.6130    0.0000 H   0  0  0  0  0  0  0  0  0  0  0  0
    5.7137   -2.3074    0.0000 H   0  0  0  0  0  0  0  0  0  0  0  0
    8.6444    1.6471    0.0000 H   0  0  0  0  0  0  0  0  0  0  0  0
    9.3607    2.1528    0.0000 H   0  0  0  0  0  0  0  0  0  0  0  0
    8.8550    2.8691    0.0000 H   0  0  0  0  0  0  0  0  0  0  0  0
    5.3095    4.5773    0.0000 H   0  0  0  0  0  0  0  0  0  0  0  0
    5.7246    3.8954    0.0000 H   0  0  0  0  0  0  0  0  0  0  0  0
    8.3128    5.2712    0.0000 H   0  0  0  0  0  0  0  0  0  0  0  0
    7.2302    6.5986    0.0000 H   0  0  0  0  0  0  0  0  0  0  0  0
    6.4319    6.5925    0.0000 H   0  0  0  0  0  0  0  0  0  0  0  0
    9.3855   -1.5019    0.0000 H   0  0  0  0  0  0  0  0  0  0  0  0
    8.6922   -1.1087    0.0000 H   0  0  0  0  0  0  0  0  0  0  0  0
    7.7767   -2.9024    0.0000 H   0  0  0  0  0  0  0  0  0  0  0  0
    8.6254   -3.1228    0.0000 H   0  0  0  0  0  0  0  0  0  0  0  0
    8.8458   -2.2742    0.0000 H   0  0  0  0  0  0  0  0  0  0  0  0
    8.9486    4.4739    0.0000 H   0  0  0  0  0  0  0  0  0  0  0  0
    9.1657    5.3234    0.0000 H   0  0  0  0  0  0  0  0  0  0  0  0
    8.3162    5.5406    0.0000 H   0  0  0  0  0  0  0  0  0  0  0  0
    5.9202    6.7442    0.0000 H   0  0  0  0  0  0  0  0  0  0  0  0
    5.0699    6.9581    0.0000 H   0  0  0  0  0  0  0  0  0  0  0  0
    4.8560    6.1078    0.0000 H   0  0  0  0  0  0  0  0  0  0  0  0
    4.8920    6.1723    0.0000 H   0  0  0  0  0  0  0  0  0  0  0  0
    4.2816    5.5428    0.0000 H   0  0  0  0  0  0  0  0  0  0  0  0
    4.9111    4.9325    0.0000 H   0  0  0  0  0  0  0  0  0  0  0  0
    6.0010   -3.1522    0.0000 H   0  0  0  0  0  0  0  0  0  0  0  0
    9.9312   -2.5758    0.0000 H   0  0  0  0  0  0  0  0  0  0  0  0
    8.1055    6.7722    0.0000 H   0  0  0  0  0  0  0  0  0  0  0  0
    6.0010   -5.3922    0.0000 H   0  0  0  0  0  0  0  0  0  0  0  0
    7.1658    7.6899    0.0000 H   0  0  0  0  0  0  0  0  0  0  0  0
    7.5644    6.9996    0.0000 H   0  0  0  0  0  0  0  0  0  0  0  0
    4.5981   -5.5822    0.0000 H   0  0  0  0  0  0  0  0  0  0  0  0
    4.2690   -3.1522    0.0000 H   0  0  0  0  0  0  0  0  0  0  0  0
    3.7320   -4.4622    0.0000 H   0  0  0  0  0  0  0  0  0  0  0  0
    7.4040   -5.9622    0.0000 H   0  0  0  0  0  0  0  0  0  0  0  0
    4.5981   -6.5822    0.0000 H   0  0  0  0  0  0  0  0  0  0  0  0
    3.4030   -5.8922    0.0000 H   0  0  0  0  0  0  0  0  0  0  0  0
    8.2700   -7.0822    0.0000 H   0  0  0  0  0  0  0  0  0  0  0  0
   10.6845    8.5453    0.0000 H   0  0  0  0  0  0  0  0  0  0  0  0
   10.9114    9.3922    0.0000 H   0  0  0  0  0  0  0  0  0  0  0  0
   10.0645    9.6192    0.0000 H   0  0  0  0  0  0  0  0  0  0  0  0
    7.7331   -8.3922    0.0000 H   0  0  0  0  0  0  0  0  0  0  0  0
    9.1794   10.3923    0.0000 H   0  0  0  0  0  0  0  0  0  0  0  0
    5.4641   -7.4622    0.0000 H   0  0  0  0  0  0  0  0  0  0  0  0
    2.0000   -3.4622    0.0000 H   0  0  0  0  0  0  0  0  0  0  0  0
    6.3301   -8.5822    0.0000 H   0  0  0  0  0  0  0  0  0  0  0  0
    4.9230   -7.6896    0.0000 H   0  0  0  0  0  0  0  0  0  0  0  0
    4.5244   -8.3799    0.0000 H   0  0  0  0  0  0  0  0  0  0  0  0
    9.4651   -6.1523    0.0000 H   0  0  0  0  0  0  0  0  0  0  0  0
    8.5991   -8.8922    0.0000 H   0  0  0  0  0  0  0  0  0  0  0  0
    7.4040   -9.5822    0.0000 H   0  0  0  0  0  0  0  0  0  0  0  0
   10.8681   -5.9622    0.0000 H   0  0  0  0  0  0  0  0  0  0  0  0
    4.5981   -9.5822    0.0000 H   0  0  0  0  0  0  0  0  0  0  0  0
   11.7341   -7.0822    0.0000 H   0  0  0  0  0  0  0  0  0  0  0  0
    9.7942   -8.5822    0.0000 H   0  0  0  0  0  0  0  0  0  0  0  0
   11.1972   -8.3922    0.0000 H   0  0  0  0  0  0  0  0  0  0  0  0
   10.8681   -4.9622    0.0000 H   0  0  0  0  0  0  0  0  0  0  0  0
    9.7206   -9.1646    0.0000 H   0  0  0  0  0  0  0  0  0  0  0  0
   10.1191   -9.8549    0.0000 H   0  0  0  0  0  0  0  0  0  0  0  0
   12.6002   -6.5822    0.0000 H   0  0  0  0  0  0  0  0  0  0  0  0
   12.6002   -7.9622    0.0000 H   0  0  0  0  0  0  0  0  0  0  0  0
   11.1972  -10.3923    0.0000 H   0  0  0  0  0  0  0  0  0  0  0  0
  1 39  1  0  0  0  0
  1 53  1  0  0  0  0
  2 45  1  0  0  0  0
  2 54  1  0  0  0  0
  3 48  1  0  0  0  0
  3125  1  0  0  0  0
  4 53  1  0  0  0  0
  4 58  1  0  0  0  0
  5 54  1  0  0  0  0
  5 61  1  0  0  0  0
  6 55  1  0  0  0  0
  6 62  1  0  0  0  0
  7 57  1  0  0  0  0
  7134  1  0  0  0  0
  8 59  1  0  0  0  0
  8135  1  0  0  0  0
  9 60  2  0  0  0  0
 10 62  1  0  0  0  0
 10 68  1  0  0  0  0
 11 63  1  0  0  0  0
 11141  1  0  0  0  0
 12 64  1  0  0  0  0
 12143  1  0  0  0  0
 13 64  2  0  0  0  0
 14 65  1  0  0  0  0
 14 71  1  0  0  0  0
 15 67  1  0  0  0  0
 15148  1  0  0  0  0
 16 69  1  0  0  0  0
 16149  1  0  0  0  0
 17 71  1  0  0  0  0
 17 74  1  0  0  0  0
 18 70  1  0  0  0  0
 18151  1  0  0  0  0
 19 72  1  0  0  0  0
 19155  1  0  0  0  0
 20 73  1  0  0  0  0
 20158  1  0  0  0  0
 21 75  1  0  0  0  0
 21159  1  0  0  0  0
 22 76  1  0  0  0  0
 22160  1  0  0  0  0
 23 24  1  0  0  0  0
 23 26  1  0  0  0  0
 23 28  1  0  0  0  0
 23 38  1  0  0  0  0
 24 25  1  0  0  0  0
 24 35  1  0  0  0  0
 24 77  1  0  0  0  0
 25 27  1  0  0  0  0
 25 36  1  0  0  0  0
 25 41  1  0  0  0  0
 26 29  1  0  0  0  0
 26 34  1  0  0  0  0
 26 43  1  0  0  0  0
 27 30  1  0  0  0  0
 27 31  1  0  0  0  0
 27 78  1  0  0  0  0
 28 31  1  0  0  0  0
 28 79  1  0  0  0  0
 28 80  1  0  0  0  0
 29 32  1  0  0  0  0
 29 40  2  0  0  0  0
 30 39  1  0  0  0  0
 30 48  1  0  0  0  0
 30 49  1  0  0  0  0
 31 81  1  0  0  0  0
 31 82  1  0  0  0  0
 32 33  1  0  0  0  0
 32 44  1  0  0  0  0
 32 83  1  0  0  0  0
 33 37  1  0  0  0  0
 33 45  1  0  0  0  0
 33 50  1  0  0  0  0
 34 37  1  0  0  0  0
 34 84  1  0  0  0  0
 34 85  1  0  0  0  0
 35 40  1  0  0  0  0
 35 86  1  0  0  0  0
 35 87  1  0  0  0  0
 36 42  1  0  0  0  0
 36 88  1  0  0  0  0
 36 89  1  0  0  0  0
 37 90  1  0  0  0  0
 37 91  1  0  0  0  0
 38 92  1  0  0  0  0
 38 93  1  0  0  0  0
 38 94  1  0  0  0  0
 39 42  1  0  0  0  0
 39 95  1  0  0  0  0
 40 96  1  0  0  0  0
 41 97  1  0  0  0  0
 41 98  1  0  0  0  0
 41 99  1  0  0  0  0
 42100  1  0  0  0  0
 42101  1  0  0  0  0
 43102  1  0  0  0  0
 43103  1  0  0  0  0
 43104  1  0  0  0  0
 44 46  1  0  0  0  0
 44105  1  0  0  0  0
 44106  1  0  0  0  0
 45 47  1  0  0  0  0
 45107  1  0  0  0  0
 46 47  1  0  0  0  0
 46 51  1  0  0  0  0
 46 52  1  0  0  0  0
 47108  1  0  0  0  0
 47109  1  0  0  0  0
 48110  1  0  0  0  0
 48111  1  0  0  0  0
 49112  1  0  0  0  0
 49113  1  0  0  0  0
 49114  1  0  0  0  0
 50115  1  0  0  0  0
 50116  1  0  0  0  0
 50117  1  0  0  0  0
 51118  1  0  0  0  0
 51119  1  0  0  0  0
 51120  1  0  0  0  0
 52121  1  0  0  0  0
 52122  1  0  0  0  0
 52123  1  0  0  0  0
 53 55  1  0  0  0  0
 53124  1  0  0  0  0
 54 56  1  0  0  0  0
 54126  1  0  0  0  0
 55 57  1  0  0  0  0
 55127  1  0  0  0  0
 56 60  1  0  0  0  0
 56128  1  0  0  0  0
 56129  1  0  0  0  0
 57 59  1  0  0  0  0
 57130  1  0  0  0  0
 58 59  1  0  0  0  0
 58 64  1  0  0  0  0
 58131  1  0  0  0  0
 59132  1  0  0  0  0
 60 63  1  0  0  0  0
 61 63  2  0  0  0  0
 61 66  1  0  0  0  0
 62 65  1  0  0  0  0
 62133  1  0  0  0  0
 65 67  1  0  0  0  0
 65136  1  0  0  0  0
 66137  1  0  0  0  0
 66138  1  0  0  0  0
 66139  1  0  0  0  0
 67 69  1  0  0  0  0
 67140  1  0  0  0  0
 68 69  1  0  0  0  0
 68 70  1  0  0  0  0
 68142  1  0  0  0  0
 69144  1  0  0  0  0
 70145  1  0  0  0  0
 70146  1  0  0  0  0
 71 72  1  0  0  0  0
 71147  1  0  0  0  0
 72 73  1  0  0  0  0
 72150  1  0  0  0  0
 73 75  1  0  0  0  0
 73152  1  0  0  0  0
 74 75  1  0  0  0  0
 74 76  1  0  0  0  0
 74153  1  0  0  0  0
 75154  1  0  0  0  0
 76156  1  0  0  0  0
 76157  1  0  0  0  0
M  END
>  <PUBCHEM_COMPOUND_CID>
85058456

>  <PUBCHEM_COMPOUND_CANONICALIZED>
1

>  <PUBCHEM_CACTVS_COMPLEXITY>
2230

>  <PUBCHEM_CACTVS_HBOND_ACCEPTOR>
22

>  <PUBCHEM_CACTVS_HBOND_DONOR>
12

>  <PUBCHEM_CACTVS_ROTATABLE_BOND>
12

>  <PUBCHEM_CACTVS_SUBSKEYS>
AAADcfB8PgAAAAAAAAAAAAAAAAAAAAAAAAA0aNGCAAAAAADAAAAAGgAACAAADxSwgAMCCAAABgCIAqDSCAIACAAgIAAACAFAAEgREBYAAQQiQAAFoAAPAQPK7PxPgAAAAAAAAADAAAYAADAAAAAAAAAAAA==

>  <PUBCHEM_IUPAC_OPENEYE_NAME>
5-[4,5-dihydroxy-6-(hydroxymethyl)-3-[3,4,5-trihydroxy-6-(hydroxymethyl)tetrahydropyran-2-yl]oxy-tetrahydropyran-2-yl]oxy-3,4-dihydroxy-6-[[4-(hydroxymethyl)-9-[(5-hydroxy-6-methyl-4-oxo-2,3-dihydropyran-2-yl)oxy]-4,6a,6b,8a,11,11,14b-heptamethyl-1,2,3,4a,5,6,7,8,9,10,12,12a,14,14a-tetradecahydropicen-3-yl]oxy]tetrahydropyran-2-carboxylic acid

>  <PUBCHEM_IUPAC_CAS_NAME>
5-[[4,5-dihydroxy-6-(hydroxymethyl)-3-[[3,4,5-trihydroxy-6-(hydroxymethyl)-2-oxanyl]oxy]-2-oxanyl]oxy]-3,4-dihydroxy-6-[[4-(hydroxymethyl)-9-[(5-hydroxy-6-methyl-4-oxo-2,3-dihydropyran-2-yl)oxy]-4,6a,6b,8a,11,11,14b-heptamethyl-1,2,3,4a,5,6,7,8,9,10,12,12a,14,14a-tetradecahydropicen-3-yl]oxy]-2-oxanecarboxylic acid

>  <PUBCHEM_IUPAC_NAME>
5-[4,5-dihydroxy-6-(hydroxymethyl)-3-[3,4,5-trihydroxy-6-(hydroxymethyl)oxan-2-yl]oxyoxan-2-yl]oxy-3,4-dihydroxy-6-[[4-(hydroxymethyl)-9-[(5-hydroxy-6-methyl-4-oxo-2,3-dihydropyran-2-yl)oxy]-4,6a,6b,8a,11,11,14b-heptamethyl-1,2,3,4a,5,6,7,8,9,10,12,12a,14,14a-tetradecahydropicen-3-yl]oxy]oxane-2-carboxylic acid

>  <PUBCHEM_IUPAC_SYSTEMATIC_NAME>
6-[[4-(hydroxymethyl)-4,6a,6b,8a,11,11,14b-heptamethyl-9-[(6-methyl-5-oxidanyl-4-oxidanylidene-2,3-dihydropyran-2-yl)oxy]-1,2,3,4a,5,6,7,8,9,10,12,12a,14,14a-tetradecahydropicen-3-yl]oxy]-5-[6-(hydroxymethyl)-3-[6-(hydroxymethyl)-3,4,5-tris(oxidanyl)oxan-2-yl]oxy-4,5-bis(oxidanyl)oxan-2-yl]oxy-3,4-bis(oxidanyl)oxane-2-carboxylic acid

>  <PUBCHEM_IUPAC_TRADITIONAL_NAME>
5-[4,5-dihydroxy-6-methylol-3-(3,4,5-trihydroxy-6-methylol-tetrahydropyran-2-yl)oxy-tetrahydropyran-2-yl]oxy-3,4-dihydroxy-6-[[9-[(5-hydroxy-4-keto-6-methyl-2,3-dihydropyran-2-yl)oxy]-4,6a,6b,8a,11,11,14b-heptamethyl-4-methylol-1,2,3,4a,5,6,7,8,9,10,12,12a,14,14a-tetradecahydropicen-3-yl]oxy]tetrahydropyran-2-carboxylic acid

>  <PUBCHEM_IUPAC_INCHI>
InChI=1S/C54H84O22/c1-23-34(59)26(58)17-33(69-23)72-32-19-49(2,3)18-25-24-9-10-30-51(5)13-12-31(52(6,22-57)29(51)11-14-54(30,8)53(24,7)16-15-50(25,32)4)73-48-44(40(65)39(64)42(74-48)45(67)68)76-47-43(38(63)36(61)28(21-56)71-47)75-46-41(66)37(62)35(60)27(20-55)70-46/h9,25,27-33,35-44,46-48,55-57,59-66H,10-22H2,1-8H3,(H,67,68)

>  <PUBCHEM_IUPAC_INCHIKEY>
YLBMNMLHAAOXAL-UHFFFAOYSA-N

>  <PUBCHEM_XLOGP3_AA>
2.5

>  <PUBCHEM_EXACT_MASS>
1084.545

>  <PUBCHEM_MOLECULAR_FORMULA>
C54H84O22

>  <PUBCHEM_MOLECULAR_WEIGHT>
1085.244

>  <PUBCHEM_OPENEYE_CAN_SMILES>
CC1=C(C(=O)CC(O1)OC2CC(CC3C2(CCC4(C3=CCC5C4(CCC6C5(CCC(C6(C)CO)OC7C(C(C(C(O7)C(=O)O)O)O)OC8C(C(C(C(O8)CO)O)O)OC9C(C(C(C(O9)CO)O)O)O)C)C)C)C)(C)C)O

>  <PUBCHEM_OPENEYE_ISO_SMILES>
CC1=C(C(=O)CC(O1)OC2CC(CC3C2(CCC4(C3=CCC5C4(CCC6C5(CCC(C6(C)CO)OC7C(C(C(C(O7)C(=O)O)O)O)OC8C(C(C(C(O8)CO)O)O)OC9C(C(C(C(O9)CO)O)O)O)C)C)C)C)(C)C)O

>  <PUBCHEM_CACTVS_TPSA>
351

>  <PUBCHEM_MONOISOTOPIC_WEIGHT>
1084.545

>  <PUBCHEM_TOTAL_CHARGE>
0

>  <PUBCHEM_HEAVY_ATOM_COUNT>
76

>  <PUBCHEM_ATOM_DEF_STEREO_COUNT>
0

>  <PUBCHEM_ATOM_UDEF_STEREO_COUNT>
26

>  <PUBCHEM_BOND_DEF_STEREO_COUNT>
0

>  <PUBCHEM_BOND_UDEF_STEREO_COUNT>
0

>  <PUBCHEM_ISOTOPIC_ATOM_COUNT>
0

>  <PUBCHEM_COMPONENT_COUNT>
1

>  <PUBCHEM_CACTVS_TAUTO_COUNT>
8

>  <PUBCHEM_COORDINATE_TYPE>
1
5
255

>  <PUBCHEM_BONDANNOTATIONS>
39  1  3
53  1  3
65  14  3
71  14  3
67  15  3
69  16  3
72  19  3
45  2  3
54  2  3
73  20  3
75  21  3
23  38  3
24  35  3
25  41  3
26  43  3
27  31  3
30  49  3
32  44  3
33  50  3
58  64  3
55  6  3
62  6  3
68  70  3
57  7  3
74  76  3
59  8  3

$$$$
