85099121
 OpenBabel06101807152D

137144  0  0  1  0  0  0  0  0999 V2000
    7.8620    2.7054    0.0000 O   0  0  0  0  0  0  0  0  0  0  0  0
    6.0010   -6.5532    0.0000 O   0  0  0  0  0  0  0  0  0  0  0  0
    5.1350   -5.0532    0.0000 O   0  0  0  0  0  0  0  0  0  0  0  0
    9.6318    2.6676    0.0000 O   0  0  0  0  0  0  0  0  0  0  0  0
    7.8936    4.7534    0.0000 O   0  0  0  0  0  0  0  0  0  0  0  0
    4.2690   -6.5532    0.0000 O   0  0  0  0  0  0  0  0  0  0  0  0
    9.6714    5.7366    0.0000 O   0  0  0  0  0  0  0  0  0  0  0  0
   11.3957    4.7233    0.0000 O   0  0  0  0  0  0  0  0  0  0  0  0
    6.0010   -8.5532    0.0000 O   0  0  0  0  0  0  0  0  0  0  0  0
    4.2690   -9.5532    0.0000 O   0  0  0  0  0  0  0  0  0  0  0  0
    2.5369   -8.5532    0.0000 O   0  0  0  0  0  0  0  0  0  0  0  0
   10.5490    7.2299    0.0000 O   0  0  0  0  0  0  0  0  0  0  0  0
   11.4057    1.6917    0.0000 O   0  0  0  0  0  0  0  0  0  0  0  0
   12.4034    5.7156    0.0000 O   0  0  0  0  0  0  0  0  0  0  0  0
   12.2659    3.1951    0.0000 O   0  0  0  0  0  0  0  0  0  0  0  0
    2.5369   -5.5532    0.0000 O   0  0  0  0  0  0  0  0  0  0  0  0
   12.9101    6.5777    0.0000 O   0  0  0  0  0  0  0  0  0  0  0  0
   11.4168    7.4553    0.0000 O   0  0  0  0  0  0  0  0  0  0  0  0
    8.8324    9.2432    0.0000 O   0  0  0  0  0  0  0  0  0  0  0  0
   10.5644    9.2298    0.0000 O   0  0  0  0  0  0  0  0  0  0  0  0
    6.9067   -1.9841    0.0000 C   0  0  3  0  0  0  0  0  0  0  0  0
    7.7765   -1.4908    0.0000 C   0  0  3  0  0  0  0  0  0  0  0  0
    7.8006   -0.4495    0.0000 C   0  0  3  0  0  0  0  0  0  0  0  0
    6.8990   -2.9841    0.0000 C   0  0  3  0  0  0  0  0  0  0  0  0
    6.9067    0.0852    0.0000 C   0  0  3  0  0  0  0  0  0  0  0  0
    6.0006   -1.4703    0.0000 C   0  0  0  0  0  0  0  0  0  0  0  0
    6.9067    1.1702    0.0000 C   0  0  0  0  0  0  0  0  0  0  0  0
    6.0006   -0.4286    0.0000 C   0  0  0  0  0  0  0  0  0  0  0  0
    7.7611   -3.4908    0.0000 C   0  0  0  0  0  0  0  0  0  0  0  0
    7.7691   -4.5324    0.0000 C   0  0  3  0  0  0  0  0  0  0  0  0
    8.6387   -1.9975    0.0000 C   0  0  0  0  0  0  0  0  0  0  0  0
    8.7565    0.0638    0.0000 C   0  0  0  0  0  0  0  0  0  0  0  0
    5.9851   -3.4839    0.0000 C   0  0  0  0  0  0  0  0  0  0  0  0
    6.8671   -5.0532    0.0000 C   0  0  3  0  0  0  0  0  0  0  0  0
    5.9206   -2.1501    0.0000 C   0  0  0  0  0  0  0  0  0  0  0  0
    7.8505    1.7054    0.0000 C   0  0  3  0  0  0  0  0  0  0  0  0
    5.9690   -4.5254    0.0000 C   0  0  0  0  0  0  0  0  0  0  0  0
    8.6588   -0.9628    0.0000 C   0  0  0  0  0  0  0  0  0  0  0  0
    8.6310   -2.9974    0.0000 C   0  0  0  0  0  0  0  0  0  0  0  0
    8.7816    1.1485    0.0000 C   0  0  0  0  0  0  0  0  0  0  0  0
    5.9155   -2.8029    0.0000 C   0  0  0  0  0  0  0  0  0  0  0  0
    8.7170   -5.0603    0.0000 C   0  0  0  0  0  0  0  0  0  0  0  0
    6.8503   -6.1380    0.0000 C   0  0  0  0  0  0  0  0  0  0  0  0
    8.7254   -6.1453    0.0000 C   0  0  0  0  0  0  0  0  0  0  0  0
    6.4100    2.0381    0.0000 C   0  0  0  0  0  0  0  0  0  0  0  0
    5.9067    1.1740    0.0000 C   0  0  0  0  0  0  0  0  0  0  0  0
    7.7858   -6.6878    0.0000 C   0  0  0  0  0  0  0  0  0  0  0  0
    6.0010   -5.5532    0.0000 C   0  0  0  0  0  0  0  0  0  0  0  0
    9.7254   -6.1414    0.0000 C   0  0  0  0  0  0  0  0  0  0  0  0
    9.2287   -7.0094    0.0000 C   0  0  0  0  0  0  0  0  0  0  0  0
    8.7338    3.1953    0.0000 C   0  0  3  0  0  0  0  0  0  0  0  0
    8.7498    4.2368    0.0000 C   0  0  3  0  0  0  0  0  0  0  0  0
    5.1350   -7.0532    0.0000 C   0  0  3  0  0  0  0  0  0  0  0  0
    9.6637    4.7366    0.0000 C   0  0  3  0  0  0  0  0  0  0  0  0
   10.5339    3.1884    0.0000 C   0  0  3  0  0  0  0  0  0  0  0  0
   10.5259    4.2300    0.0000 C   0  0  3  0  0  0  0  0  0  0  0  0
    5.1350   -8.0532    0.0000 C   0  0  3  0  0  0  0  0  0  0  0  0
    4.2690   -8.5532    0.0000 C   0  0  3  0  0  0  0  0  0  0  0  0
    3.4030   -7.0532    0.0000 C   0  0  3  0  0  0  0  0  0  0  0  0
    3.4030   -8.0532    0.0000 C   0  0  3  0  0  0  0  0  0  0  0  0
   11.4018    2.6917    0.0000 C   0  0  0  0  0  0  0  0  0  0  0  0
   10.5413    6.2299    0.0000 C   0  0  3  0  0  0  0  0  0  0  0  0
   11.4034    5.7233    0.0000 C   0  0  3  0  0  0  0  0  0  0  0  0
    2.5369   -6.5532    0.0000 C   0  0  0  0  0  0  0  0  0  0  0  0
   11.9101    6.5854    0.0000 C   0  0  0  0  0  0  0  0  0  0  0  0
    9.6868    7.7366    0.0000 C   0  0  0  0  0  0  0  0  0  0  0  0
    9.6946    8.7365    0.0000 C   0  0  0  0  0  0  0  0  0  0  0  0
    8.3182   -1.1891    0.0000 H   0  0  0  0  0  0  0  0  0  0  0  0
    6.3709    0.3973    0.0000 H   0  0  0  0  0  0  0  0  0  0  0  0
    5.3898   -1.3642    0.0000 H   0  0  0  0  0  0  0  0  0  0  0  0
    5.7916   -2.0540    0.0000 H   0  0  0  0  0  0  0  0  0  0  0  0
    5.7916    0.1550    0.0000 H   0  0  0  0  0  0  0  0  0  0  0  0
    5.3898   -0.5347    0.0000 H   0  0  0  0  0  0  0  0  0  0  0  0
    8.3025   -4.2162    0.0000 H   0  0  0  0  0  0  0  0  0  0  0  0
    9.2484   -2.1098    0.0000 H   0  0  0  0  0  0  0  0  0  0  0  0
    8.8552   -1.4165    0.0000 H   0  0  0  0  0  0  0  0  0  0  0  0
    8.9520   -0.5246    0.0000 H   0  0  0  0  0  0  0  0  0  0  0  0
    9.3697    0.1557    0.0000 H   0  0  0  0  0  0  0  0  0  0  0  0
    5.7850   -2.8971    0.0000 H   0  0  0  0  0  0  0  0  0  0  0  0
    5.3727   -3.5806    0.0000 H   0  0  0  0  0  0  0  0  0  0  0  0
    5.8176   -1.5387    0.0000 H   0  0  0  0  0  0  0  0  0  0  0  0
    5.3092   -2.2531    0.0000 H   0  0  0  0  0  0  0  0  0  0  0  0
    6.0235   -2.7615    0.0000 H   0  0  0  0  0  0  0  0  0  0  0  0
    7.3165    2.0206    0.0000 H   0  0  0  0  0  0  0  0  0  0  0  0
    5.3599   -4.4099    0.0000 H   0  0  0  0  0  0  0  0  0  0  0  0
    5.7510   -5.1058    0.0000 H   0  0  0  0  0  0  0  0  0  0  0  0
    8.3406   -1.4948    0.0000 H   0  0  0  0  0  0  0  0  0  0  0  0
    9.1909   -1.2810    0.0000 H   0  0  0  0  0  0  0  0  0  0  0  0
    8.9771   -0.4307    0.0000 H   0  0  0  0  0  0  0  0  0  0  0  0
    9.1655   -3.3116    0.0000 H   0  0  0  0  0  0  0  0  0  0  0  0
    9.3899    1.0283    0.0000 H   0  0  0  0  0  0  0  0  0  0  0  0
    9.0041    1.7272    0.0000 H   0  0  0  0  0  0  0  0  0  0  0  0
    6.0279   -2.1931    0.0000 H   0  0  0  0  0  0  0  0  0  0  0  0
    5.3058   -2.6905    0.0000 H   0  0  0  0  0  0  0  0  0  0  0  0
    5.8032   -3.4126    0.0000 H   0  0  0  0  0  0  0  0  0  0  0  0
    9.3287   -5.1617    0.0000 H   0  0  0  0  0  0  0  0  0  0  0  0
    8.9216   -4.4750    0.0000 H   0  0  0  0  0  0  0  0  0  0  0  0
    6.2412   -6.0225    0.0000 H   0  0  0  0  0  0  0  0  0  0  0  0
    6.6323   -6.7184    0.0000 H   0  0  0  0  0  0  0  0  0  0  0  0
    5.9091    1.7940    0.0000 H   0  0  0  0  0  0  0  0  0  0  0  0
    5.2867    1.1764    0.0000 H   0  0  0  0  0  0  0  0  0  0  0  0
    5.9043    0.5541    0.0000 H   0  0  0  0  0  0  0  0  0  0  0  0
    6.9481    2.3461    0.0000 H   0  0  0  0  0  0  0  0  0  0  0  0
    6.1021    2.5763    0.0000 H   0  0  0  0  0  0  0  0  0  0  0  0
    5.8719    1.7302    0.0000 H   0  0  0  0  0  0  0  0  0  0  0  0
    7.3848   -7.1606    0.0000 H   0  0  0  0  0  0  0  0  0  0  0  0
    8.1831   -7.1637    0.0000 H   0  0  0  0  0  0  0  0  0  0  0  0
    9.7278   -6.7614    0.0000 H   0  0  0  0  0  0  0  0  0  0  0  0
    8.6930   -7.3214    0.0000 H   0  0  0  0  0  0  0  0  0  0  0  0
    9.5408   -7.5451    0.0000 H   0  0  0  0  0  0  0  0  0  0  0  0
   10.3454   -6.1390    0.0000 H   0  0  0  0  0  0  0  0  0  0  0  0
    9.7230   -5.5214    0.0000 H   0  0  0  0  0  0  0  0  0  0  0  0
    9.7645   -6.6973    0.0000 H   0  0  0  0  0  0  0  0  0  0  0  0
    8.7278    2.5753    0.0000 H   0  0  0  0  0  0  0  0  0  0  0  0
    8.2076    3.9362    0.0000 H   0  0  0  0  0  0  0  0  0  0  0  0
    5.1350   -6.4332    0.0000 H   0  0  0  0  0  0  0  0  0  0  0  0
    9.1316    5.0549    0.0000 H   0  0  0  0  0  0  0  0  0  0  0  0
   10.5351    2.5684    0.0000 H   0  0  0  0  0  0  0  0  0  0  0  0
   11.0628    3.9200    0.0000 H   0  0  0  0  0  0  0  0  0  0  0  0
    5.1350   -8.6732    0.0000 H   0  0  0  0  0  0  0  0  0  0  0  0
    7.9056    5.3733    0.0000 H   0  0  0  0  0  0  0  0  0  0  0  0
    3.7320   -8.8632    0.0000 H   0  0  0  0  0  0  0  0  0  0  0  0
    3.4030   -6.4332    0.0000 H   0  0  0  0  0  0  0  0  0  0  0  0
    2.8660   -7.7432    0.0000 H   0  0  0  0  0  0  0  0  0  0  0  0
   11.0806    6.5358    0.0000 H   0  0  0  0  0  0  0  0  0  0  0  0
    6.5380   -8.2432    0.0000 H   0  0  0  0  0  0  0  0  0  0  0  0
    1.9264   -6.4455    0.0000 H   0  0  0  0  0  0  0  0  0  0  0  0
    2.3249   -7.1358    0.0000 H   0  0  0  0  0  0  0  0  0  0  0  0
    3.7320   -9.8632    0.0000 H   0  0  0  0  0  0  0  0  0  0  0  0
    2.0000   -8.2432    0.0000 H   0  0  0  0  0  0  0  0  0  0  0  0
   11.9438    1.3838    0.0000 H   0  0  0  0  0  0  0  0  0  0  0  0
   12.7092    5.1762    0.0000 H   0  0  0  0  0  0  0  0  0  0  0  0
    2.0000   -5.2432    0.0000 H   0  0  0  0  0  0  0  0  0  0  0  0
    9.0771    7.8489    0.0000 H   0  0  0  0  0  0  0  0  0  0  0  0
    9.4703    7.1556    0.0000 H   0  0  0  0  0  0  0  0  0  0  0  0
   13.2242    7.1122    0.0000 H   0  0  0  0  0  0  0  0  0  0  0  0
    8.8372    9.8632    0.0000 H   0  0  0  0  0  0  0  0  0  0  0  0
  1 36  1  0  0  0  0
  1 51  1  0  0  0  0
  2 48  1  0  0  0  0
  2 53  1  0  0  0  0
  3 48  2  0  0  0  0
  4 51  1  0  0  0  0
  4 55  1  0  0  0  0
  5 52  1  0  0  0  0
  5121  1  0  0  0  0
  6 53  1  0  0  0  0
  6 59  1  0  0  0  0
  7 54  1  0  0  0  0
  7 62  1  0  0  0  0
  8 56  1  0  0  0  0
  8 63  1  0  0  0  0
  9 57  1  0  0  0  0
  9126  1  0  0  0  0
 10 58  1  0  0  0  0
 10129  1  0  0  0  0
 11 60  1  0  0  0  0
 11130  1  0  0  0  0
 12 62  1  0  0  0  0
 12 66  1  0  0  0  0
 13 61  1  0  0  0  0
 13131  1  0  0  0  0
 14 63  1  0  0  0  0
 14132  1  0  0  0  0
 15 61  2  0  0  0  0
 16 64  1  0  0  0  0
 16133  1  0  0  0  0
 17 65  1  0  0  0  0
 17136  1  0  0  0  0
 18 65  2  0  0  0  0
 19 67  1  0  0  0  0
 19137  1  0  0  0  0
 20 67  2  0  0  0  0
 21 22  1  0  0  0  0
 21 24  1  0  0  0  0
 21 26  1  0  0  0  0
 21 35  1  0  0  0  0
 22 23  1  0  0  0  0
 22 31  1  0  0  0  0
 22 68  1  0  0  0  0
 23 25  1  0  0  0  0
 23 32  1  0  0  0  0
 23 38  1  0  0  0  0
 24 29  1  0  0  0  0
 24 33  1  0  0  0  0
 24 41  1  0  0  0  0
 25 27  1  0  0  0  0
 25 28  1  0  0  0  0
 25 69  1  0  0  0  0
 26 28  1  0  0  0  0
 26 70  1  0  0  0  0
 26 71  1  0  0  0  0
 27 36  1  0  0  0  0
 27 45  1  0  0  0  0
 27 46  1  0  0  0  0
 28 72  1  0  0  0  0
 28 73  1  0  0  0  0
 29 30  1  0  0  0  0
 29 39  2  0  0  0  0
 30 34  1  0  0  0  0
 30 42  1  0  0  0  0
 30 74  1  0  0  0  0
 31 39  1  0  0  0  0
 31 75  1  0  0  0  0
 31 76  1  0  0  0  0
 32 40  1  0  0  0  0
 32 77  1  0  0  0  0
 32 78  1  0  0  0  0
 33 37  1  0  0  0  0
 33 79  1  0  0  0  0
 33 80  1  0  0  0  0
 34 37  1  0  0  0  0
 34 43  1  0  0  0  0
 34 48  1  0  0  0  0
 35 81  1  0  0  0  0
 35 82  1  0  0  0  0
 35 83  1  0  0  0  0
 36 40  1  0  0  0  0
 36 84  1  0  0  0  0
 37 85  1  0  0  0  0
 37 86  1  0  0  0  0
 38 87  1  0  0  0  0
 38 88  1  0  0  0  0
 38 89  1  0  0  0  0
 39 90  1  0  0  0  0
 40 91  1  0  0  0  0
 40 92  1  0  0  0  0
 41 93  1  0  0  0  0
 41 94  1  0  0  0  0
 41 95  1  0  0  0  0
 42 44  1  0  0  0  0
 42 96  1  0  0  0  0
 42 97  1  0  0  0  0
 43 47  1  0  0  0  0
 43 98  1  0  0  0  0
 43 99  1  0  0  0  0
 44 47  1  0  0  0  0
 44 49  1  0  0  0  0
 44 50  1  0  0  0  0
 45103  1  0  0  0  0
 45104  1  0  0  0  0
 45105  1  0  0  0  0
 46100  1  0  0  0  0
 46101  1  0  0  0  0
 46102  1  0  0  0  0
 47106  1  0  0  0  0
 47107  1  0  0  0  0
 49108  1  0  0  0  0
 49111  1  0  0  0  0
 49112  1  0  0  0  0
 50109  1  0  0  0  0
 50110  1  0  0  0  0
 50113  1  0  0  0  0
 51 52  1  0  0  0  0
 51114  1  0  0  0  0
 52 54  1  0  0  0  0
 52115  1  0  0  0  0
 53 57  1  0  0  0  0
 53116  1  0  0  0  0
 54 56  1  0  0  0  0
 54117  1  0  0  0  0
 55 56  1  0  0  0  0
 55 61  1  0  0  0  0
 55118  1  0  0  0  0
 56119  1  0  0  0  0
 57 58  1  0  0  0  0
 57120  1  0  0  0  0
 58 60  1  0  0  0  0
 58122  1  0  0  0  0
 59 60  1  0  0  0  0
 59 64  1  0  0  0  0
 59123  1  0  0  0  0
 60124  1  0  0  0  0
 62 63  1  0  0  0  0
 62125  1  0  0  0  0
 63 65  1  0  0  0  0
 64127  1  0  0  0  0
 64128  1  0  0  0  0
 66 67  1  0  0  0  0
 66134  1  0  0  0  0
 66135  1  0  0  0  0
M  END
>  <PUBCHEM_COMPOUND_CID>
85099121

>  <PUBCHEM_COMPOUND_CANONICALIZED>
1

>  <PUBCHEM_CACTVS_COMPLEXITY>
1990

>  <PUBCHEM_CACTVS_HBOND_ACCEPTOR>
20

>  <PUBCHEM_CACTVS_HBOND_DONOR>
9

>  <PUBCHEM_CACTVS_ROTATABLE_BOND>
11

>  <PUBCHEM_CACTVS_SUBSKEYS>
AAADcfB8PgAAAAAAAAAAAAAAAAAAAAAAAAA0aNGCAAAAAADQAAAAGgAACAAADxSwgAMCCAAABgCIAiDSCAIAAAAgAAAACAFAAAgREBYAAQQiQAAFoAAPAAPK7PzPgAAAAAAAAADAAAYAADAAAAAAAAAAAA==

>  <PUBCHEM_IUPAC_OPENEYE_NAME>
7-[[4,4,6a,6b,11,11,14b-heptamethyl-8a-[3,4,5-trihydroxy-6-(hydroxymethyl)tetrahydropyran-2-yl]oxycarbonyl-1,2,3,4a,5,6,7,8,9,10,12,12a,14,14a-tetradecahydropicen-3-yl]oxy]-2-(carboxymethoxy)-3,8-dihydroxy-2,4a,5,7,8,8a-hexahydropyrano[3,4-b][1,4]dioxine-3,5-dicarboxylic acid

>  <PUBCHEM_IUPAC_CAS_NAME>
7-[[4,4,6a,6b,11,11,14b-heptamethyl-8a-[oxo-[[3,4,5-trihydroxy-6-(hydroxymethyl)-2-oxanyl]oxy]methyl]-1,2,3,4a,5,6,7,8,9,10,12,12a,14,14a-tetradecahydropicen-3-yl]oxy]-2-(carboxymethoxy)-3,8-dihydroxy-2,4a,5,7,8,8a-hexahydropyrano[3,4-b][1,4]dioxin-3,5-dicarboxylic acid

>  <PUBCHEM_IUPAC_NAME>
7-[[4,4,6a,6b,11,11,14b-heptamethyl-8a-[3,4,5-trihydroxy-6-(hydroxymethyl)oxan-2-yl]oxycarbonyl-1,2,3,4a,5,6,7,8,9,10,12,12a,14,14a-tetradecahydropicen-3-yl]oxy]-2-(carboxymethoxy)-3,8-dihydroxy-2,4a,5,7,8,8a-hexahydropyrano[3,4-b][1,4]dioxine-3,5-dicarboxylic acid

>  <PUBCHEM_IUPAC_SYSTEMATIC_NAME>
7-[[8a-[6-(hydroxymethyl)-3,4,5-tris(oxidanyl)oxan-2-yl]oxycarbonyl-4,4,6a,6b,11,11,14b-heptamethyl-1,2,3,4a,5,6,7,8,9,10,12,12a,14,14a-tetradecahydropicen-3-yl]oxy]-2-(2-hydroxy-2-oxoethyloxy)-3,8-bis(oxidanyl)-2,4a,5,7,8,8a-hexahydropyrano[3,4-b][1,4]dioxine-3,5-dicarboxylic acid

>  <PUBCHEM_IUPAC_TRADITIONAL_NAME>
7-[[4,4,6a,6b,11,11,14b-heptamethyl-8a-(3,4,5-trihydroxy-6-methylol-tetrahydropyran-2-yl)oxycarbonyl-1,2,3,4a,5,6,7,8,9,10,12,12a,14,14a-tetradecahydropicen-3-yl]oxy]-2-(carboxymethoxy)-3,8-dihydroxy-2,4a,5,7,8,8a-hexahydropyrano[3,4-b][1,4]dioxin-3,5-dicarboxylic acid

>  <PUBCHEM_IUPAC_INCHI>
InChI=1S/C47H70O20/c1-41(2)14-16-46(39(59)66-36-30(53)29(52)28(51)23(19-48)62-36)17-15-44(6)21(22(46)18-41)8-9-25-43(5)12-11-26(42(3,4)24(43)10-13-45(25,44)7)63-37-31(54)32-33(34(64-37)35(55)56)67-47(60,38(57)58)40(65-32)61-20-27(49)50/h8,22-26,28-34,36-37,40,48,51-54,60H,9-20H2,1-7H3,(H,49,50)(H,55,56)(H,57,58)

>  <PUBCHEM_IUPAC_INCHIKEY>
UOGGJUUNBPSGHY-UHFFFAOYSA-N

>  <PUBCHEM_XLOGP3_AA>
3.1

>  <PUBCHEM_EXACT_MASS>
954.446

>  <PUBCHEM_MOLECULAR_FORMULA>
C47H70O20

>  <PUBCHEM_MOLECULAR_WEIGHT>
955.057

>  <PUBCHEM_OPENEYE_CAN_SMILES>
CC1(CCC2(CCC3(C(=CCC4C3(CCC5C4(CCC(C5(C)C)OC6C(C7C(C(O6)C(=O)O)OC(C(O7)OCC(=O)O)(C(=O)O)O)O)C)C)C2C1)C)C(=O)OC8C(C(C(C(O8)CO)O)O)O)C

>  <PUBCHEM_OPENEYE_ISO_SMILES>
CC1(CCC2(CCC3(C(=CCC4C3(CCC5C4(CCC(C5(C)C)OC6C(C7C(C(O6)C(=O)O)OC(C(O7)OCC(=O)O)(C(=O)O)O)O)C)C)C2C1)C)C(=O)OC8C(C(C(C(O8)CO)O)O)O)C

>  <PUBCHEM_CACTVS_TPSA>
315

>  <PUBCHEM_MONOISOTOPIC_WEIGHT>
954.446

>  <PUBCHEM_TOTAL_CHARGE>
0

>  <PUBCHEM_HEAVY_ATOM_COUNT>
67

>  <PUBCHEM_ATOM_DEF_STEREO_COUNT>
0

>  <PUBCHEM_ATOM_UDEF_STEREO_COUNT>
20

>  <PUBCHEM_BOND_DEF_STEREO_COUNT>
0

>  <PUBCHEM_BOND_UDEF_STEREO_COUNT>
0

>  <PUBCHEM_ISOTOPIC_ATOM_COUNT>
0

>  <PUBCHEM_COMPONENT_COUNT>
1

>  <PUBCHEM_CACTVS_TAUTO_COUNT>
1

>  <PUBCHEM_COORDINATE_TYPE>
1
5
255

>  <PUBCHEM_BONDANNOTATIONS>
36  1  3
51  1  3
58  10  3
60  11  3
62  12  3
63  14  3
53  2  3
21  35  3
22  31  3
23  38  3
24  41  3
25  28  3
30  42  3
34  48  3
52  5  3
55  61  3
59  64  3
54  7  3
56  8  3
57  9  3

$$$$
