85194431
 OpenBabel06101807152D

152159  0  0  1  0  0  0  0  0999 V2000
    6.8671   -3.3322    0.0000 O   0  0  0  0  0  0  0  0  0  0  0  0
    8.6424    6.0222    0.0000 O   0  0  0  0  0  0  0  0  0  0  0  0
    9.3112   -2.6406    0.0000 O   0  0  0  0  0  0  0  0  0  0  0  0
    5.1350   -3.3322    0.0000 O   0  0  0  0  0  0  0  0  0  0  0  0
    6.8671   -5.3322    0.0000 O   0  0  0  0  0  0  0  0  0  0  0  0
    7.7764    7.5222    0.0000 O   0  0  0  0  0  0  0  0  0  0  0  0
    5.1350   -6.3322    0.0000 O   0  0  0  0  0  0  0  0  0  0  0  0
    3.4030   -5.3322    0.0000 O   0  0  0  0  0  0  0  0  0  0  0  0
    6.0010   -6.8322    0.0000 O   0  0  0  0  0  0  0  0  0  0  0  0
    2.5369   -3.8322    0.0000 O   0  0  0  0  0  0  0  0  0  0  0  0
   10.3745    9.0222    0.0000 O   0  0  0  0  0  0  0  0  0  0  0  0
    3.4030   -2.3322    0.0000 O   0  0  0  0  0  0  0  0  0  0  0  0
    8.6424    9.0222    0.0000 O   0  0  0  0  0  0  0  0  0  0  0  0
    8.5991   -6.3322    0.0000 O   0  0  0  0  0  0  0  0  0  0  0  0
    8.5991   -8.3322    0.0000 O   0  0  0  0  0  0  0  0  0  0  0  0
    6.8671   -9.3322    0.0000 O   0  0  0  0  0  0  0  0  0  0  0  0
    9.4651   -7.8322    0.0000 O   0  0  0  0  0  0  0  0  0  0  0  0
    5.1350   -9.3322    0.0000 O   0  0  0  0  0  0  0  0  0  0  0  0
   10.3312   -5.3322    0.0000 O   0  0  0  0  0  0  0  0  0  0  0  0
   12.0632   -6.3322    0.0000 O   0  0  0  0  0  0  0  0  0  0  0  0
   12.0632   -8.3322    0.0000 O   0  0  0  0  0  0  0  0  0  0  0  0
    7.7681    1.3680    0.0000 C   0  0  3  0  0  0  0  0  0  0  0  0
    6.9040    0.8646    0.0000 C   0  0  3  0  0  0  0  0  0  0  0  0
    6.8920   -0.1769    0.0000 C   0  0  3  0  0  0  0  0  0  0  0  0
    7.7643    2.3680    0.0000 C   0  0  3  0  0  0  0  0  0  0  0  0
    7.7920   -0.7012    0.0000 C   0  0  3  0  0  0  0  0  0  0  0  0
    8.6801    0.8646    0.0000 C   0  0  0  0  0  0  0  0  0  0  0  0
    6.8963    2.8646    0.0000 C   0  0  0  0  0  0  0  0  0  0  0  0
    7.8046   -1.7861    0.0000 C   0  0  3  0  0  0  0  0  0  0  0  0
    8.6921   -0.1769    0.0000 C   0  0  0  0  0  0  0  0  0  0  0  0
    6.8762    3.9061    0.0000 C   0  0  3  0  0  0  0  0  0  0  0  0
    7.7722    4.4373    0.0000 C   0  0  3  0  0  0  0  0  0  0  0  0
    8.6723    2.8783    0.0000 C   0  0  0  0  0  0  0  0  0  0  0  0
    6.0361    1.3613    0.0000 C   0  0  0  0  0  0  0  0  0  0  0  0
    5.9421   -0.7012    0.0000 C   0  0  0  0  0  0  0  0  0  0  0  0
    8.6763    3.9199    0.0000 C   0  0  0  0  0  0  0  0  0  0  0  0
    8.7522    1.5454    0.0000 C   0  0  0  0  0  0  0  0  0  0  0  0
    6.8671   -2.3322    0.0000 C   0  0  3  0  0  0  0  0  0  0  0  0
    6.0322    2.3613    0.0000 C   0  0  0  0  0  0  0  0  0  0  0  0
    6.0279    0.3264    0.0000 C   0  0  0  0  0  0  0  0  0  0  0  0
    5.9295   -1.7861    0.0000 C   0  0  0  0  0  0  0  0  0  0  0  0
    8.7497    2.1981    0.0000 C   0  0  0  0  0  0  0  0  0  0  0  0
    5.9223    4.4230    0.0000 C   0  0  0  0  0  0  0  0  0  0  0  0
    7.7764    5.5222    0.0000 C   0  0  3  0  0  0  0  0  0  0  0  0
    5.9014    5.5078    0.0000 C   0  0  0  0  0  0  0  0  0  0  0  0
    6.8347    6.0611    0.0000 C   0  0  0  0  0  0  0  0  0  0  0  0
    8.8046   -1.7784    0.0000 C   0  0  0  0  0  0  0  0  0  0  0  0
    8.3113   -2.6483    0.0000 C   0  0  0  0  0  0  0  0  0  0  0  0
    8.6324    4.9473    0.0000 C   0  0  0  0  0  0  0  0  0  0  0  0
    5.3881    6.3660    0.0000 C   0  0  0  0  0  0  0  0  0  0  0  0
    4.9015    5.4924    0.0000 C   0  0  0  0  0  0  0  0  0  0  0  0
    6.0010   -3.8322    0.0000 C   0  0  3  0  0  0  0  0  0  0  0  0
    6.0010   -4.8322    0.0000 C   0  0  3  0  0  0  0  0  0  0  0  0
    8.6424    7.0222    0.0000 C   0  0  0  0  0  0  0  0  0  0  0  0
    5.1350   -5.3322    0.0000 C   0  0  3  0  0  0  0  0  0  0  0  0
    4.2690   -3.8322    0.0000 C   0  0  3  0  0  0  0  0  0  0  0  0
    4.2690   -4.8322    0.0000 C   0  0  3  0  0  0  0  0  0  0  0  0
    9.5085    7.5222    0.0000 C   0  0  0  0  0  0  0  0  0  0  0  0
    6.8671   -6.3322    0.0000 C   0  0  3  0  0  0  0  0  0  0  0  0
    3.4030   -3.3322    0.0000 C   0  0  0  0  0  0  0  0  0  0  0  0
    9.5085    8.5222    0.0000 C   0  0  0  0  0  0  0  0  0  0  0  0
    7.7331   -6.8322    0.0000 C   0  0  3  0  0  0  0  0  0  0  0  0
    7.7331   -7.8322    0.0000 C   0  0  3  0  0  0  0  0  0  0  0  0
    6.0010   -7.8322    0.0000 C   0  0  3  0  0  0  0  0  0  0  0  0
    6.8671   -8.3322    0.0000 C   0  0  3  0  0  0  0  0  0  0  0  0
    5.1350   -8.3322    0.0000 C   0  0  0  0  0  0  0  0  0  0  0  0
    9.4651   -6.8322    0.0000 C   0  0  3  0  0  0  0  0  0  0  0  0
   10.3312   -6.3322    0.0000 C   0  0  3  0  0  0  0  0  0  0  0  0
   11.1972   -6.8322    0.0000 C   0  0  3  0  0  0  0  0  0  0  0  0
   10.3312   -8.3322    0.0000 C   0  0  3  0  0  0  0  0  0  0  0  0
   11.1972   -7.8322    0.0000 C   0  0  3  0  0  0  0  0  0  0  0  0
   10.3312   -9.3322    0.0000 C   0  0  0  0  0  0  0  0  0  0  0  0
    7.4398    0.5526    0.0000 H   0  0  0  0  0  0  0  0  0  0  0  0
    8.3314   -1.0071    0.0000 H   0  0  0  0  0  0  0  0  0  0  0  0
    9.2921    0.7656    0.0000 H   0  0  0  0  0  0  0  0  0  0  0  0
    8.8824    1.4507    0.0000 H   0  0  0  0  0  0  0  0  0  0  0  0
    8.9079   -0.7582    0.0000 H   0  0  0  0  0  0  0  0  0  0  0  0
    9.3017   -0.0638    0.0000 H   0  0  0  0  0  0  0  0  0  0  0  0
    6.3466    3.5837    0.0000 H   0  0  0  0  0  0  0  0  0  0  0  0
    8.8791    2.2938    0.0000 H   0  0  0  0  0  0  0  0  0  0  0  0
    9.2836    2.9820    0.0000 H   0  0  0  0  0  0  0  0  0  0  0  0
    5.4251    1.4666    0.0000 H   0  0  0  0  0  0  0  0  0  0  0  0
    5.8263    0.7779    0.0000 H   0  0  0  0  0  0  0  0  0  0  0  0
    5.7398   -0.1151    0.0000 H   0  0  0  0  0  0  0  0  0  0  0  0
    5.3300   -0.8002    0.0000 H   0  0  0  0  0  0  0  0  0  0  0  0
    9.2868    3.8115    0.0000 H   0  0  0  0  0  0  0  0  0  0  0  0
    8.8876    4.5028    0.0000 H   0  0  0  0  0  0  0  0  0  0  0  0
    8.8623    0.9352    0.0000 H   0  0  0  0  0  0  0  0  0  0  0  0
    9.3624    1.6554    0.0000 H   0  0  0  0  0  0  0  0  0  0  0  0
    8.6422    2.1556    0.0000 H   0  0  0  0  0  0  0  0  0  0  0  0
    7.4046   -2.6412    0.0000 H   0  0  0  0  0  0  0  0  0  0  0  0
    5.4941    2.6692    0.0000 H   0  0  0  0  0  0  0  0  0  0  0  0
    6.3400    0.8621    0.0000 H   0  0  0  0  0  0  0  0  0  0  0  0
    5.4922    0.6385    0.0000 H   0  0  0  0  0  0  0  0  0  0  0  0
    5.7158   -0.2093    0.0000 H   0  0  0  0  0  0  0  0  0  0  0  0
    5.3199   -1.6730    0.0000 H   0  0  0  0  0  0  0  0  0  0  0  0
    5.7137   -2.3674    0.0000 H   0  0  0  0  0  0  0  0  0  0  0  0
    8.6444    1.5871    0.0000 H   0  0  0  0  0  0  0  0  0  0  0  0
    9.3607    2.0928    0.0000 H   0  0  0  0  0  0  0  0  0  0  0  0
    8.8550    2.8091    0.0000 H   0  0  0  0  0  0  0  0  0  0  0  0
    5.3095    4.5173    0.0000 H   0  0  0  0  0  0  0  0  0  0  0  0
    5.7246    3.8354    0.0000 H   0  0  0  0  0  0  0  0  0  0  0  0
    8.3128    5.2112    0.0000 H   0  0  0  0  0  0  0  0  0  0  0  0
    7.2302    6.5386    0.0000 H   0  0  0  0  0  0  0  0  0  0  0  0
    6.4319    6.5325    0.0000 H   0  0  0  0  0  0  0  0  0  0  0  0
    9.3855   -1.5619    0.0000 H   0  0  0  0  0  0  0  0  0  0  0  0
    8.6922   -1.1687    0.0000 H   0  0  0  0  0  0  0  0  0  0  0  0
    7.7767   -2.9624    0.0000 H   0  0  0  0  0  0  0  0  0  0  0  0
    8.6254   -3.1828    0.0000 H   0  0  0  0  0  0  0  0  0  0  0  0
    8.8458   -2.3342    0.0000 H   0  0  0  0  0  0  0  0  0  0  0  0
    8.9486    4.4139    0.0000 H   0  0  0  0  0  0  0  0  0  0  0  0
    9.1657    5.2634    0.0000 H   0  0  0  0  0  0  0  0  0  0  0  0
    8.3162    5.4806    0.0000 H   0  0  0  0  0  0  0  0  0  0  0  0
    4.8920    6.1123    0.0000 H   0  0  0  0  0  0  0  0  0  0  0  0
    4.2816    5.4828    0.0000 H   0  0  0  0  0  0  0  0  0  0  0  0
    5.9202    6.6842    0.0000 H   0  0  0  0  0  0  0  0  0  0  0  0
    5.0699    6.8981    0.0000 H   0  0  0  0  0  0  0  0  0  0  0  0
    4.9111    4.8725    0.0000 H   0  0  0  0  0  0  0  0  0  0  0  0
    4.8560    6.0478    0.0000 H   0  0  0  0  0  0  0  0  0  0  0  0
    6.0010   -3.2122    0.0000 H   0  0  0  0  0  0  0  0  0  0  0  0
    9.9312   -2.6358    0.0000 H   0  0  0  0  0  0  0  0  0  0  0  0
    6.0010   -5.4522    0.0000 H   0  0  0  0  0  0  0  0  0  0  0  0
    4.5981   -5.6422    0.0000 H   0  0  0  0  0  0  0  0  0  0  0  0
    4.2690   -3.2122    0.0000 H   0  0  0  0  0  0  0  0  0  0  0  0
    3.7320   -4.5222    0.0000 H   0  0  0  0  0  0  0  0  0  0  0  0
    9.7205    6.9396    0.0000 H   0  0  0  0  0  0  0  0  0  0  0  0
   10.1191    7.6299    0.0000 H   0  0  0  0  0  0  0  0  0  0  0  0
    7.4040   -6.0222    0.0000 H   0  0  0  0  0  0  0  0  0  0  0  0
    4.5981   -6.6422    0.0000 H   0  0  0  0  0  0  0  0  0  0  0  0
    3.4030   -5.9522    0.0000 H   0  0  0  0  0  0  0  0  0  0  0  0
    8.2700   -7.1422    0.0000 H   0  0  0  0  0  0  0  0  0  0  0  0
    7.7331   -8.4522    0.0000 H   0  0  0  0  0  0  0  0  0  0  0  0
    5.4641   -7.5222    0.0000 H   0  0  0  0  0  0  0  0  0  0  0  0
    2.0000   -3.5222    0.0000 H   0  0  0  0  0  0  0  0  0  0  0  0
    6.3301   -8.6422    0.0000 H   0  0  0  0  0  0  0  0  0  0  0  0
   10.3745    9.6422    0.0000 H   0  0  0  0  0  0  0  0  0  0  0  0
    4.9230   -7.7496    0.0000 H   0  0  0  0  0  0  0  0  0  0  0  0
    4.5244   -8.4399    0.0000 H   0  0  0  0  0  0  0  0  0  0  0  0
    9.4651   -6.2122    0.0000 H   0  0  0  0  0  0  0  0  0  0  0  0
    8.5991   -8.9522    0.0000 H   0  0  0  0  0  0  0  0  0  0  0  0
    7.4040   -9.6422    0.0000 H   0  0  0  0  0  0  0  0  0  0  0  0
   10.8681   -6.0222    0.0000 H   0  0  0  0  0  0  0  0  0  0  0  0
    4.5981   -9.6422    0.0000 H   0  0  0  0  0  0  0  0  0  0  0  0
   11.7341   -7.1422    0.0000 H   0  0  0  0  0  0  0  0  0  0  0  0
    9.7942   -8.6422    0.0000 H   0  0  0  0  0  0  0  0  0  0  0  0
   11.1972   -8.4522    0.0000 H   0  0  0  0  0  0  0  0  0  0  0  0
   10.8681   -5.0222    0.0000 H   0  0  0  0  0  0  0  0  0  0  0  0
    9.7112   -9.3322    0.0000 H   0  0  0  0  0  0  0  0  0  0  0  0
   10.3312   -9.9522    0.0000 H   0  0  0  0  0  0  0  0  0  0  0  0
   10.9512   -9.3322    0.0000 H   0  0  0  0  0  0  0  0  0  0  0  0
   12.6002   -6.6422    0.0000 H   0  0  0  0  0  0  0  0  0  0  0  0
   12.0632   -8.9522    0.0000 H   0  0  0  0  0  0  0  0  0  0  0  0
  1 38  1  0  0  0  0
  1 52  1  0  0  0  0
  2 44  1  0  0  0  0
  2 54  1  0  0  0  0
  3 47  1  0  0  0  0
  3121  1  0  0  0  0
  4 52  1  0  0  0  0
  4 56  1  0  0  0  0
  5 53  1  0  0  0  0
  5 59  1  0  0  0  0
  6 54  2  0  0  0  0
  7 55  1  0  0  0  0
  7129  1  0  0  0  0
  8 57  1  0  0  0  0
  8130  1  0  0  0  0
  9 59  1  0  0  0  0
  9 64  1  0  0  0  0
 10 60  1  0  0  0  0
 10134  1  0  0  0  0
 11 61  1  0  0  0  0
 11136  1  0  0  0  0
 12 60  2  0  0  0  0
 13 61  2  0  0  0  0
 14 62  1  0  0  0  0
 14 67  1  0  0  0  0
 15 63  1  0  0  0  0
 15140  1  0  0  0  0
 16 65  1  0  0  0  0
 16141  1  0  0  0  0
 17 67  1  0  0  0  0
 17 70  1  0  0  0  0
 18 66  1  0  0  0  0
 18143  1  0  0  0  0
 19 68  1  0  0  0  0
 19147  1  0  0  0  0
 20 69  1  0  0  0  0
 20151  1  0  0  0  0
 21 71  1  0  0  0  0
 21152  1  0  0  0  0
 22 23  1  0  0  0  0
 22 25  1  0  0  0  0
 22 27  1  0  0  0  0
 22 37  1  0  0  0  0
 23 24  1  0  0  0  0
 23 34  1  0  0  0  0
 23 73  1  0  0  0  0
 24 26  1  0  0  0  0
 24 35  1  0  0  0  0
 24 40  1  0  0  0  0
 25 28  1  0  0  0  0
 25 33  1  0  0  0  0
 25 42  1  0  0  0  0
 26 29  1  0  0  0  0
 26 30  1  0  0  0  0
 26 74  1  0  0  0  0
 27 30  1  0  0  0  0
 27 75  1  0  0  0  0
 27 76  1  0  0  0  0
 28 31  1  0  0  0  0
 28 39  2  0  0  0  0
 29 38  1  0  0  0  0
 29 47  1  0  0  0  0
 29 48  1  0  0  0  0
 30 77  1  0  0  0  0
 30 78  1  0  0  0  0
 31 32  1  0  0  0  0
 31 43  1  0  0  0  0
 31 79  1  0  0  0  0
 32 36  1  0  0  0  0
 32 44  1  0  0  0  0
 32 49  1  0  0  0  0
 33 36  1  0  0  0  0
 33 80  1  0  0  0  0
 33 81  1  0  0  0  0
 34 39  1  0  0  0  0
 34 82  1  0  0  0  0
 34 83  1  0  0  0  0
 35 41  1  0  0  0  0
 35 84  1  0  0  0  0
 35 85  1  0  0  0  0
 36 86  1  0  0  0  0
 36 87  1  0  0  0  0
 37 88  1  0  0  0  0
 37 89  1  0  0  0  0
 37 90  1  0  0  0  0
 38 41  1  0  0  0  0
 38 91  1  0  0  0  0
 39 92  1  0  0  0  0
 40 93  1  0  0  0  0
 40 94  1  0  0  0  0
 40 95  1  0  0  0  0
 41 96  1  0  0  0  0
 41 97  1  0  0  0  0
 42 98  1  0  0  0  0
 42 99  1  0  0  0  0
 42100  1  0  0  0  0
 43 45  1  0  0  0  0
 43101  1  0  0  0  0
 43102  1  0  0  0  0
 44 46  1  0  0  0  0
 44103  1  0  0  0  0
 45 46  1  0  0  0  0
 45 50  1  0  0  0  0
 45 51  1  0  0  0  0
 46104  1  0  0  0  0
 46105  1  0  0  0  0
 47106  1  0  0  0  0
 47107  1  0  0  0  0
 48108  1  0  0  0  0
 48109  1  0  0  0  0
 48110  1  0  0  0  0
 49111  1  0  0  0  0
 49112  1  0  0  0  0
 49113  1  0  0  0  0
 50116  1  0  0  0  0
 50117  1  0  0  0  0
 50119  1  0  0  0  0
 51114  1  0  0  0  0
 51115  1  0  0  0  0
 51118  1  0  0  0  0
 52 53  1  0  0  0  0
 52120  1  0  0  0  0
 53 55  1  0  0  0  0
 53122  1  0  0  0  0
 54 58  1  0  0  0  0
 55 57  1  0  0  0  0
 55123  1  0  0  0  0
 56 57  1  0  0  0  0
 56 60  1  0  0  0  0
 56124  1  0  0  0  0
 57125  1  0  0  0  0
 58 61  1  0  0  0  0
 58126  1  0  0  0  0
 58127  1  0  0  0  0
 59 62  1  0  0  0  0
 59128  1  0  0  0  0
 62 63  1  0  0  0  0
 62131  1  0  0  0  0
 63 65  1  0  0  0  0
 63132  1  0  0  0  0
 64 65  1  0  0  0  0
 64 66  1  0  0  0  0
 64133  1  0  0  0  0
 65135  1  0  0  0  0
 66137  1  0  0  0  0
 66138  1  0  0  0  0
 67 68  1  0  0  0  0
 67139  1  0  0  0  0
 68 69  1  0  0  0  0
 68142  1  0  0  0  0
 69 71  1  0  0  0  0
 69144  1  0  0  0  0
 70 71  1  0  0  0  0
 70 72  1  0  0  0  0
 70145  1  0  0  0  0
 71146  1  0  0  0  0
 72148  1  0  0  0  0
 72149  1  0  0  0  0
 72150  1  0  0  0  0
M  END
>  <PUBCHEM_COMPOUND_CID>
85194431

>  <PUBCHEM_COMPOUND_CANONICALIZED>
1

>  <PUBCHEM_CACTVS_COMPLEXITY>
2050

>  <PUBCHEM_CACTVS_HBOND_ACCEPTOR>
21

>  <PUBCHEM_CACTVS_HBOND_DONOR>
11

>  <PUBCHEM_CACTVS_ROTATABLE_BOND>
13

>  <PUBCHEM_CACTVS_SUBSKEYS>
AAADcfB8PgAAAAAAAAAAAAAAAAAAAAAAAAA0aNGCAAAAAADAAAAAGgAACAAADxSwgAMCCAAABgCIAiDSCAIAAAAgAAAACAFAAAgREBYIAQQiQAAFoAAPAAPK7PxPgAAAAAAAAADAAAYAADAAAAAAAAAAAA==

>  <PUBCHEM_IUPAC_OPENEYE_NAME>
6-[[9-(2-carboxyacetyl)oxy-4-(hydroxymethyl)-4,6a,6b,8a,11,11,14b-heptamethyl-1,2,3,4a,5,6,7,8,9,10,12,12a,14,14a-tetradecahydropicen-3-yl]oxy]-5-[4,5-dihydroxy-6-(hydroxymethyl)-3-(3,4,5-trihydroxy-6-methyl-tetrahydropyran-2-yl)oxy-tetrahydropyran-2-yl]oxy-3,4-dihydroxy-tetrahydropyran-2-carboxylic acid

>  <PUBCHEM_IUPAC_CAS_NAME>
6-[[9-(2-carboxy-1-oxoethoxy)-4-(hydroxymethyl)-4,6a,6b,8a,11,11,14b-heptamethyl-1,2,3,4a,5,6,7,8,9,10,12,12a,14,14a-tetradecahydropicen-3-yl]oxy]-5-[[4,5-dihydroxy-6-(hydroxymethyl)-3-[(3,4,5-trihydroxy-6-methyl-2-oxanyl)oxy]-2-oxanyl]oxy]-3,4-dihydroxy-2-oxanecarboxylic acid

>  <PUBCHEM_IUPAC_NAME>
6-[[9-(2-carboxyacetyl)oxy-4-(hydroxymethyl)-4,6a,6b,8a,11,11,14b-heptamethyl-1,2,3,4a,5,6,7,8,9,10,12,12a,14,14a-tetradecahydropicen-3-yl]oxy]-5-[4,5-dihydroxy-6-(hydroxymethyl)-3-(3,4,5-trihydroxy-6-methyloxan-2-yl)oxyoxan-2-yl]oxy-3,4-dihydroxyoxane-2-carboxylic acid

>  <PUBCHEM_IUPAC_SYSTEMATIC_NAME>
6-[[4-(hydroxymethyl)-4,6a,6b,8a,11,11,14b-heptamethyl-9-(3-oxidanyl-3-oxidanylidene-propanoyl)oxy-1,2,3,4a,5,6,7,8,9,10,12,12a,14,14a-tetradecahydropicen-3-yl]oxy]-5-[6-(hydroxymethyl)-3-[6-methyl-3,4,5-tris(oxidanyl)oxan-2-yl]oxy-4,5-bis(oxidanyl)oxan-2-yl]oxy-3,4-bis(oxidanyl)oxane-2-carboxylic acid

>  <PUBCHEM_IUPAC_TRADITIONAL_NAME>
6-[[9-(2-carboxyacetyl)oxy-4,6a,6b,8a,11,11,14b-heptamethyl-4-methylol-1,2,3,4a,5,6,7,8,9,10,12,12a,14,14a-tetradecahydropicen-3-yl]oxy]-5-[4,5-dihydroxy-6-methylol-3-(3,4,5-trihydroxy-6-methyl-tetrahydropyran-2-yl)oxy-tetrahydropyran-2-yl]oxy-3,4-dihydroxy-tetrahydropyran-2-carboxylic acid

>  <PUBCHEM_IUPAC_INCHI>
InChI=1S/C51H80O21/c1-22-32(57)34(59)38(63)43(66-22)71-40-35(60)33(58)25(20-52)67-44(40)72-41-37(62)36(61)39(42(64)65)70-45(41)69-28-12-13-48(5)26(49(28,6)21-53)11-14-51(8)27(48)10-9-23-24-18-46(2,3)19-29(68-31(56)17-30(54)55)47(24,4)15-16-50(23,51)7/h9,22,24-29,32-41,43-45,52-53,57-63H,10-21H2,1-8H3,(H,54,55)(H,64,65)

>  <PUBCHEM_IUPAC_INCHIKEY>
UZZVCPOZXWRBFO-UHFFFAOYSA-N

>  <PUBCHEM_XLOGP3_AA>
2.6

>  <PUBCHEM_EXACT_MASS>
1028.519

>  <PUBCHEM_MOLECULAR_FORMULA>
C51H80O21

>  <PUBCHEM_MOLECULAR_WEIGHT>
1029.18

>  <PUBCHEM_OPENEYE_CAN_SMILES>
CC1C(C(C(C(O1)OC2C(C(C(OC2OC3C(C(C(OC3OC4CCC5(C(C4(C)CO)CCC6(C5CC=C7C6(CCC8(C7CC(CC8OC(=O)CC(=O)O)(C)C)C)C)C)C)C(=O)O)O)O)CO)O)O)O)O)O

>  <PUBCHEM_OPENEYE_ISO_SMILES>
CC1C(C(C(C(O1)OC2C(C(C(OC2OC3C(C(C(OC3OC4CCC5(C(C4(C)CO)CCC6(C5CC=C7C6(CCC8(C7CC(CC8OC(=O)CC(=O)O)(C)C)C)C)C)C)C(=O)O)O)O)CO)O)O)O)O)O

>  <PUBCHEM_CACTVS_TPSA>
338

>  <PUBCHEM_MONOISOTOPIC_WEIGHT>
1028.519

>  <PUBCHEM_TOTAL_CHARGE>
0

>  <PUBCHEM_HEAVY_ATOM_COUNT>
72

>  <PUBCHEM_ATOM_DEF_STEREO_COUNT>
0

>  <PUBCHEM_ATOM_UDEF_STEREO_COUNT>
25

>  <PUBCHEM_BOND_DEF_STEREO_COUNT>
0

>  <PUBCHEM_BOND_UDEF_STEREO_COUNT>
0

>  <PUBCHEM_ISOTOPIC_ATOM_COUNT>
0

>  <PUBCHEM_COMPONENT_COUNT>
1

>  <PUBCHEM_CACTVS_TAUTO_COUNT>
1

>  <PUBCHEM_COORDINATE_TYPE>
1
5
255

>  <PUBCHEM_BONDANNOTATIONS>
38  1  3
52  1  3
62  14  3
67  14  3
63  15  3
65  16  3
68  19  3
44  2  3
69  20  3
71  21  3
22  37  3
23  34  3
24  40  3
25  42  3
26  30  3
29  48  3
31  43  3
32  49  3
53  5  3
59  5  3
56  60  3
64  66  3
55  7  3
70  72  3
57  8  3

$$$$
