85229712
 OpenBabel06101807152D

142149  0  0  1  0  0  0  0  0999 V2000
    6.8671   -1.8322    0.0000 O   0  0  0  0  0  0  0  0  0  0  0  0
    8.6424    7.5222    0.0000 O   0  0  0  0  0  0  0  0  0  0  0  0
    9.3112   -1.1406    0.0000 O   0  0  0  0  0  0  0  0  0  0  0  0
    5.1350   -1.8322    0.0000 O   0  0  0  0  0  0  0  0  0  0  0  0
    6.8671   -3.8322    0.0000 O   0  0  0  0  0  0  0  0  0  0  0  0
    5.1350   -4.8322    0.0000 O   0  0  0  0  0  0  0  0  0  0  0  0
    3.4030   -3.8322    0.0000 O   0  0  0  0  0  0  0  0  0  0  0  0
    6.0010   -5.3322    0.0000 O   0  0  0  0  0  0  0  0  0  0  0  0
    2.5369   -2.3322    0.0000 O   0  0  0  0  0  0  0  0  0  0  0  0
    3.4030   -0.8323    0.0000 O   0  0  0  0  0  0  0  0  0  0  0  0
    8.5991   -4.8322    0.0000 O   0  0  0  0  0  0  0  0  0  0  0  0
    8.5991   -6.8322    0.0000 O   0  0  0  0  0  0  0  0  0  0  0  0
    6.8671   -7.8322    0.0000 O   0  0  0  0  0  0  0  0  0  0  0  0
    9.4651   -6.3322    0.0000 O   0  0  0  0  0  0  0  0  0  0  0  0
    5.1350   -7.8322    0.0000 O   0  0  0  0  0  0  0  0  0  0  0  0
   10.3312   -3.8322    0.0000 O   0  0  0  0  0  0  0  0  0  0  0  0
   12.0632   -4.8322    0.0000 O   0  0  0  0  0  0  0  0  0  0  0  0
   12.0632   -6.8322    0.0000 O   0  0  0  0  0  0  0  0  0  0  0  0
    7.7681    2.8680    0.0000 C   0  0  3  0  0  0  0  0  0  0  0  0
    6.9040    2.3646    0.0000 C   0  0  3  0  0  0  0  0  0  0  0  0
    6.8920    1.3231    0.0000 C   0  0  3  0  0  0  0  0  0  0  0  0
    7.7643    3.8680    0.0000 C   0  0  3  0  0  0  0  0  0  0  0  0
    7.7920    0.7988    0.0000 C   0  0  3  0  0  0  0  0  0  0  0  0
    8.6801    2.3646    0.0000 C   0  0  0  0  0  0  0  0  0  0  0  0
    6.8963    4.3646    0.0000 C   0  0  0  0  0  0  0  0  0  0  0  0
    6.8762    5.4061    0.0000 C   0  0  3  0  0  0  0  0  0  0  0  0
    8.6921    1.3231    0.0000 C   0  0  0  0  0  0  0  0  0  0  0  0
    7.7722    5.9373    0.0000 C   0  0  3  0  0  0  0  0  0  0  0  0
    8.6723    4.3783    0.0000 C   0  0  0  0  0  0  0  0  0  0  0  0
    6.0361    2.8613    0.0000 C   0  0  0  0  0  0  0  0  0  0  0  0
    7.8046   -0.2861    0.0000 C   0  0  3  0  0  0  0  0  0  0  0  0
    5.9421    0.7988    0.0000 C   0  0  0  0  0  0  0  0  0  0  0  0
    8.6763    5.4199    0.0000 C   0  0  0  0  0  0  0  0  0  0  0  0
    8.7522    3.0454    0.0000 C   0  0  0  0  0  0  0  0  0  0  0  0
    6.0322    3.8613    0.0000 C   0  0  0  0  0  0  0  0  0  0  0  0
    6.8671   -0.8323    0.0000 C   0  0  3  0  0  0  0  0  0  0  0  0
    6.0279    1.8264    0.0000 C   0  0  0  0  0  0  0  0  0  0  0  0
    8.7497    3.6981    0.0000 C   0  0  0  0  0  0  0  0  0  0  0  0
    5.9295   -0.2861    0.0000 C   0  0  0  0  0  0  0  0  0  0  0  0
    5.9223    5.9230    0.0000 C   0  0  0  0  0  0  0  0  0  0  0  0
    7.7764    7.0222    0.0000 C   0  0  3  0  0  0  0  0  0  0  0  0
    5.9014    7.0078    0.0000 C   0  0  0  0  0  0  0  0  0  0  0  0
    6.8347    7.5611    0.0000 C   0  0  0  0  0  0  0  0  0  0  0  0
    8.6324    6.4473    0.0000 C   0  0  0  0  0  0  0  0  0  0  0  0
    8.3113   -1.1483    0.0000 C   0  0  0  0  0  0  0  0  0  0  0  0
    8.8046   -0.2784    0.0000 C   0  0  0  0  0  0  0  0  0  0  0  0
    5.3881    7.8660    0.0000 C   0  0  0  0  0  0  0  0  0  0  0  0
    4.9015    6.9924    0.0000 C   0  0  0  0  0  0  0  0  0  0  0  0
    6.0010   -2.3322    0.0000 C   0  0  3  0  0  0  0  0  0  0  0  0
    6.0010   -3.3322    0.0000 C   0  0  3  0  0  0  0  0  0  0  0  0
    5.1350   -3.8322    0.0000 C   0  0  3  0  0  0  0  0  0  0  0  0
    4.2690   -2.3322    0.0000 C   0  0  3  0  0  0  0  0  0  0  0  0
    4.2690   -3.3322    0.0000 C   0  0  3  0  0  0  0  0  0  0  0  0
    6.8671   -4.8322    0.0000 C   0  0  3  0  0  0  0  0  0  0  0  0
    3.4030   -1.8322    0.0000 C   0  0  0  0  0  0  0  0  0  0  0  0
    7.7331   -5.3322    0.0000 C   0  0  3  0  0  0  0  0  0  0  0  0
    7.7331   -6.3322    0.0000 C   0  0  3  0  0  0  0  0  0  0  0  0
    6.0010   -6.3322    0.0000 C   0  0  3  0  0  0  0  0  0  0  0  0
    6.8671   -6.8322    0.0000 C   0  0  3  0  0  0  0  0  0  0  0  0
    5.1350   -6.8322    0.0000 C   0  0  0  0  0  0  0  0  0  0  0  0
    9.4651   -5.3322    0.0000 C   0  0  3  0  0  0  0  0  0  0  0  0
   10.3312   -4.8322    0.0000 C   0  0  3  0  0  0  0  0  0  0  0  0
   11.1972   -5.3322    0.0000 C   0  0  3  0  0  0  0  0  0  0  0  0
   10.3312   -6.8322    0.0000 C   0  0  3  0  0  0  0  0  0  0  0  0
   11.1972   -6.3322    0.0000 C   0  0  3  0  0  0  0  0  0  0  0  0
   10.3312   -7.8322    0.0000 C   0  0  0  0  0  0  0  0  0  0  0  0
    7.4398    2.0526    0.0000 H   0  0  0  0  0  0  0  0  0  0  0  0
    8.3314    0.4929    0.0000 H   0  0  0  0  0  0  0  0  0  0  0  0
    9.2921    2.2656    0.0000 H   0  0  0  0  0  0  0  0  0  0  0  0
    8.8824    2.9507    0.0000 H   0  0  0  0  0  0  0  0  0  0  0  0
    6.3466    5.0837    0.0000 H   0  0  0  0  0  0  0  0  0  0  0  0
    8.9079    0.7418    0.0000 H   0  0  0  0  0  0  0  0  0  0  0  0
    9.3017    1.4362    0.0000 H   0  0  0  0  0  0  0  0  0  0  0  0
    8.8791    3.7938    0.0000 H   0  0  0  0  0  0  0  0  0  0  0  0
    9.2836    4.4820    0.0000 H   0  0  0  0  0  0  0  0  0  0  0  0
    5.4251    2.9666    0.0000 H   0  0  0  0  0  0  0  0  0  0  0  0
    5.8263    2.2779    0.0000 H   0  0  0  0  0  0  0  0  0  0  0  0
    5.7398    1.3848    0.0000 H   0  0  0  0  0  0  0  0  0  0  0  0
    5.3300    0.6998    0.0000 H   0  0  0  0  0  0  0  0  0  0  0  0
    9.2868    5.3115    0.0000 H   0  0  0  0  0  0  0  0  0  0  0  0
    8.8876    6.0028    0.0000 H   0  0  0  0  0  0  0  0  0  0  0  0
    8.8623    2.4352    0.0000 H   0  0  0  0  0  0  0  0  0  0  0  0
    9.3624    3.1554    0.0000 H   0  0  0  0  0  0  0  0  0  0  0  0
    8.6422    3.6556    0.0000 H   0  0  0  0  0  0  0  0  0  0  0  0
    5.4941    4.1692    0.0000 H   0  0  0  0  0  0  0  0  0  0  0  0
    7.4046   -1.1412    0.0000 H   0  0  0  0  0  0  0  0  0  0  0  0
    6.3400    2.3621    0.0000 H   0  0  0  0  0  0  0  0  0  0  0  0
    5.4922    2.1385    0.0000 H   0  0  0  0  0  0  0  0  0  0  0  0
    5.7158    1.2907    0.0000 H   0  0  0  0  0  0  0  0  0  0  0  0
    8.6444    3.0871    0.0000 H   0  0  0  0  0  0  0  0  0  0  0  0
    9.3607    3.5928    0.0000 H   0  0  0  0  0  0  0  0  0  0  0  0
    8.8550    4.3091    0.0000 H   0  0  0  0  0  0  0  0  0  0  0  0
    5.3199   -0.1730    0.0000 H   0  0  0  0  0  0  0  0  0  0  0  0
    5.7137   -0.8674    0.0000 H   0  0  0  0  0  0  0  0  0  0  0  0
    5.3095    6.0173    0.0000 H   0  0  0  0  0  0  0  0  0  0  0  0
    5.7246    5.3354    0.0000 H   0  0  0  0  0  0  0  0  0  0  0  0
    8.3128    6.7112    0.0000 H   0  0  0  0  0  0  0  0  0  0  0  0
    7.2302    8.0386    0.0000 H   0  0  0  0  0  0  0  0  0  0  0  0
    6.4319    8.0325    0.0000 H   0  0  0  0  0  0  0  0  0  0  0  0
    8.9486    5.9139    0.0000 H   0  0  0  0  0  0  0  0  0  0  0  0
    9.1657    6.7634    0.0000 H   0  0  0  0  0  0  0  0  0  0  0  0
    8.3162    6.9806    0.0000 H   0  0  0  0  0  0  0  0  0  0  0  0
    7.7767   -1.4624    0.0000 H   0  0  0  0  0  0  0  0  0  0  0  0
    8.6254   -1.6828    0.0000 H   0  0  0  0  0  0  0  0  0  0  0  0
    8.8458   -0.8342    0.0000 H   0  0  0  0  0  0  0  0  0  0  0  0
    9.1104    0.2609    0.0000 H   0  0  0  0  0  0  0  0  0  0  0  0
    4.8920    7.6123    0.0000 H   0  0  0  0  0  0  0  0  0  0  0  0
    4.2816    6.9828    0.0000 H   0  0  0  0  0  0  0  0  0  0  0  0
    4.9111    6.3725    0.0000 H   0  0  0  0  0  0  0  0  0  0  0  0
    5.9202    8.1842    0.0000 H   0  0  0  0  0  0  0  0  0  0  0  0
    5.0699    8.3981    0.0000 H   0  0  0  0  0  0  0  0  0  0  0  0
    4.8560    7.5478    0.0000 H   0  0  0  0  0  0  0  0  0  0  0  0
    8.6424    8.1422    0.0000 H   0  0  0  0  0  0  0  0  0  0  0  0
    6.5380   -2.6423    0.0000 H   0  0  0  0  0  0  0  0  0  0  0  0
    6.0010   -3.9522    0.0000 H   0  0  0  0  0  0  0  0  0  0  0  0
    4.5981   -4.1422    0.0000 H   0  0  0  0  0  0  0  0  0  0  0  0
    4.2690   -1.7122    0.0000 H   0  0  0  0  0  0  0  0  0  0  0  0
    3.7320   -3.0222    0.0000 H   0  0  0  0  0  0  0  0  0  0  0  0
    7.4040   -4.5222    0.0000 H   0  0  0  0  0  0  0  0  0  0  0  0
    4.5981   -5.1422    0.0000 H   0  0  0  0  0  0  0  0  0  0  0  0
    3.4030   -4.4522    0.0000 H   0  0  0  0  0  0  0  0  0  0  0  0
    8.2700   -5.6422    0.0000 H   0  0  0  0  0  0  0  0  0  0  0  0
    7.7331   -6.9522    0.0000 H   0  0  0  0  0  0  0  0  0  0  0  0
    5.4641   -6.0222    0.0000 H   0  0  0  0  0  0  0  0  0  0  0  0
    6.3301   -7.1422    0.0000 H   0  0  0  0  0  0  0  0  0  0  0  0
    2.0000   -2.0222    0.0000 H   0  0  0  0  0  0  0  0  0  0  0  0
    4.9230   -6.2496    0.0000 H   0  0  0  0  0  0  0  0  0  0  0  0
    4.5244   -6.9399    0.0000 H   0  0  0  0  0  0  0  0  0  0  0  0
    9.4651   -4.7122    0.0000 H   0  0  0  0  0  0  0  0  0  0  0  0
    8.5991   -7.4522    0.0000 H   0  0  0  0  0  0  0  0  0  0  0  0
    7.4040   -8.1422    0.0000 H   0  0  0  0  0  0  0  0  0  0  0  0
   10.8681   -4.5222    0.0000 H   0  0  0  0  0  0  0  0  0  0  0  0
   11.7341   -5.6422    0.0000 H   0  0  0  0  0  0  0  0  0  0  0  0
    4.5981   -8.1422    0.0000 H   0  0  0  0  0  0  0  0  0  0  0  0
    9.7942   -7.1422    0.0000 H   0  0  0  0  0  0  0  0  0  0  0  0
   11.1972   -6.9522    0.0000 H   0  0  0  0  0  0  0  0  0  0  0  0
   10.8681   -3.5222    0.0000 H   0  0  0  0  0  0  0  0  0  0  0  0
    9.7112   -7.8322    0.0000 H   0  0  0  0  0  0  0  0  0  0  0  0
   10.3312   -8.4522    0.0000 H   0  0  0  0  0  0  0  0  0  0  0  0
   10.9512   -7.8322    0.0000 H   0  0  0  0  0  0  0  0  0  0  0  0
   12.6002   -5.1422    0.0000 H   0  0  0  0  0  0  0  0  0  0  0  0
   12.0632   -7.4522    0.0000 H   0  0  0  0  0  0  0  0  0  0  0  0
  1 36  1  0  0  0  0
  1 49  1  0  0  0  0
  2 41  1  0  0  0  0
  2113  1  0  0  0  0
  3 46  2  0  0  0  0
  4 49  1  0  0  0  0
  4 52  1  0  0  0  0
  5 50  1  0  0  0  0
  5 54  1  0  0  0  0
  6 51  1  0  0  0  0
  6120  1  0  0  0  0
  7 53  1  0  0  0  0
  7121  1  0  0  0  0
  8 54  1  0  0  0  0
  8 58  1  0  0  0  0
  9 55  1  0  0  0  0
  9126  1  0  0  0  0
 10 55  2  0  0  0  0
 11 56  1  0  0  0  0
 11 61  1  0  0  0  0
 12 57  1  0  0  0  0
 12130  1  0  0  0  0
 13 59  1  0  0  0  0
 13131  1  0  0  0  0
 14 61  1  0  0  0  0
 14 64  1  0  0  0  0
 15 60  1  0  0  0  0
 15134  1  0  0  0  0
 16 62  1  0  0  0  0
 16137  1  0  0  0  0
 17 63  1  0  0  0  0
 17141  1  0  0  0  0
 18 65  1  0  0  0  0
 18142  1  0  0  0  0
 19 20  1  0  0  0  0
 19 22  1  0  0  0  0
 19 24  1  0  0  0  0
 19 34  1  0  0  0  0
 20 21  1  0  0  0  0
 20 30  1  0  0  0  0
 20 67  1  0  0  0  0
 21 23  1  0  0  0  0
 21 32  1  0  0  0  0
 21 37  1  0  0  0  0
 22 25  1  0  0  0  0
 22 29  1  0  0  0  0
 22 38  1  0  0  0  0
 23 27  1  0  0  0  0
 23 31  1  0  0  0  0
 23 68  1  0  0  0  0
 24 27  1  0  0  0  0
 24 69  1  0  0  0  0
 24 70  1  0  0  0  0
 25 26  1  0  0  0  0
 25 35  2  0  0  0  0
 26 28  1  0  0  0  0
 26 40  1  0  0  0  0
 26 71  1  0  0  0  0
 27 72  1  0  0  0  0
 27 73  1  0  0  0  0
 28 33  1  0  0  0  0
 28 41  1  0  0  0  0
 28 44  1  0  0  0  0
 29 33  1  0  0  0  0
 29 74  1  0  0  0  0
 29 75  1  0  0  0  0
 30 35  1  0  0  0  0
 30 76  1  0  0  0  0
 30 77  1  0  0  0  0
 31 36  1  0  0  0  0
 31 45  1  0  0  0  0
 31 46  1  0  0  0  0
 32 39  1  0  0  0  0
 32 78  1  0  0  0  0
 32 79  1  0  0  0  0
 33 80  1  0  0  0  0
 33 81  1  0  0  0  0
 34 82  1  0  0  0  0
 34 83  1  0  0  0  0
 34 84  1  0  0  0  0
 35 85  1  0  0  0  0
 36 39  1  0  0  0  0
 36 86  1  0  0  0  0
 37 87  1  0  0  0  0
 37 88  1  0  0  0  0
 37 89  1  0  0  0  0
 38 90  1  0  0  0  0
 38 91  1  0  0  0  0
 38 92  1  0  0  0  0
 39 93  1  0  0  0  0
 39 94  1  0  0  0  0
 40 42  1  0  0  0  0
 40 95  1  0  0  0  0
 40 96  1  0  0  0  0
 41 43  1  0  0  0  0
 41 97  1  0  0  0  0
 42 43  1  0  0  0  0
 42 47  1  0  0  0  0
 42 48  1  0  0  0  0
 43 98  1  0  0  0  0
 43 99  1  0  0  0  0
 44100  1  0  0  0  0
 44101  1  0  0  0  0
 44102  1  0  0  0  0
 45103  1  0  0  0  0
 45104  1  0  0  0  0
 45105  1  0  0  0  0
 46106  1  0  0  0  0
 47110  1  0  0  0  0
 47111  1  0  0  0  0
 47112  1  0  0  0  0
 48107  1  0  0  0  0
 48108  1  0  0  0  0
 48109  1  0  0  0  0
 49 50  1  0  0  0  0
 49114  1  0  0  0  0
 50 51  1  0  0  0  0
 50115  1  0  0  0  0
 51 53  1  0  0  0  0
 51116  1  0  0  0  0
 52 53  1  0  0  0  0
 52 55  1  0  0  0  0
 52117  1  0  0  0  0
 53118  1  0  0  0  0
 54 56  1  0  0  0  0
 54119  1  0  0  0  0
 56 57  1  0  0  0  0
 56122  1  0  0  0  0
 57 59  1  0  0  0  0
 57123  1  0  0  0  0
 58 59  1  0  0  0  0
 58 60  1  0  0  0  0
 58124  1  0  0  0  0
 59125  1  0  0  0  0
 60127  1  0  0  0  0
 60128  1  0  0  0  0
 61 62  1  0  0  0  0
 61129  1  0  0  0  0
 62 63  1  0  0  0  0
 62132  1  0  0  0  0
 63 65  1  0  0  0  0
 63133  1  0  0  0  0
 64 65  1  0  0  0  0
 64 66  1  0  0  0  0
 64135  1  0  0  0  0
 65136  1  0  0  0  0
 66138  1  0  0  0  0
 66139  1  0  0  0  0
 66140  1  0  0  0  0
M  END
>  <PUBCHEM_COMPOUND_CID>
85229712

>  <PUBCHEM_COMPOUND_CANONICALIZED>
1

>  <PUBCHEM_CACTVS_COMPLEXITY>
1850

>  <PUBCHEM_CACTVS_HBOND_ACCEPTOR>
18

>  <PUBCHEM_CACTVS_HBOND_DONOR>
10

>  <PUBCHEM_CACTVS_ROTATABLE_BOND>
9

>  <PUBCHEM_CACTVS_SUBSKEYS>
AAADcfB8PgAAAAAAAAAAAAAAAAAAAAAAAAA0aNGCAAAAAADAAAAAGgAACAAADxSwgAMCCAAABgCIAijSiAIAAAAgAAAACAFAAAgREBYAAQQiQAAFoAAPAAPK7PzPgAAAAAAAAADAAAYAADAAAAAAAAAAAA==

>  <PUBCHEM_IUPAC_OPENEYE_NAME>
5-[4,5-dihydroxy-6-(hydroxymethyl)-3-(3,4,5-trihydroxy-6-methyl-tetrahydropyran-2-yl)oxy-tetrahydropyran-2-yl]oxy-6-[(4-formyl-9-hydroxy-4,6a,6b,8a,11,11,14b-heptamethyl-1,2,3,4a,5,6,7,8,9,10,12,12a,14,14a-tetradecahydropicen-3-yl)oxy]-3,4-dihydroxy-tetrahydropyran-2-carboxylic acid

>  <PUBCHEM_IUPAC_CAS_NAME>
5-[[4,5-dihydroxy-6-(hydroxymethyl)-3-[(3,4,5-trihydroxy-6-methyl-2-oxanyl)oxy]-2-oxanyl]oxy]-6-[(4-formyl-9-hydroxy-4,6a,6b,8a,11,11,14b-heptamethyl-1,2,3,4a,5,6,7,8,9,10,12,12a,14,14a-tetradecahydropicen-3-yl)oxy]-3,4-dihydroxy-2-oxanecarboxylic acid

>  <PUBCHEM_IUPAC_NAME>
5-[4,5-dihydroxy-6-(hydroxymethyl)-3-(3,4,5-trihydroxy-6-methyloxan-2-yl)oxyoxan-2-yl]oxy-6-[(4-formyl-9-hydroxy-4,6a,6b,8a,11,11,14b-heptamethyl-1,2,3,4a,5,6,7,8,9,10,12,12a,14,14a-tetradecahydropicen-3-yl)oxy]-3,4-dihydroxyoxane-2-carboxylic acid

>  <PUBCHEM_IUPAC_SYSTEMATIC_NAME>
5-[6-(hydroxymethyl)-3-[6-methyl-3,4,5-tris(oxidanyl)oxan-2-yl]oxy-4,5-bis(oxidanyl)oxan-2-yl]oxy-6-[(4-methanoyl-4,6a,6b,8a,11,11,14b-heptamethyl-9-oxidanyl-1,2,3,4a,5,6,7,8,9,10,12,12a,14,14a-tetradecahydropicen-3-yl)oxy]-3,4-bis(oxidanyl)oxane-2-carboxylic acid

>  <PUBCHEM_IUPAC_TRADITIONAL_NAME>
5-[4,5-dihydroxy-6-methylol-3-(3,4,5-trihydroxy-6-methyl-tetrahydropyran-2-yl)oxy-tetrahydropyran-2-yl]oxy-6-[(4-formyl-9-hydroxy-4,6a,6b,8a,11,11,14b-heptamethyl-1,2,3,4a,5,6,7,8,9,10,12,12a,14,14a-tetradecahydropicen-3-yl)oxy]-3,4-dihydroxy-tetrahydropyran-2-carboxylic acid

>  <PUBCHEM_IUPAC_INCHI>
InChI=1S/C48H76O18/c1-21-29(52)31(54)35(58)40(61-21)65-37-32(55)30(53)24(19-49)62-41(37)66-38-34(57)33(56)36(39(59)60)64-42(38)63-28-12-13-45(5)25(46(28,6)20-50)11-14-48(8)26(45)10-9-22-23-17-43(2,3)18-27(51)44(23,4)15-16-47(22,48)7/h9,20-21,23-38,40-42,49,51-58H,10-19H2,1-8H3,(H,59,60)

>  <PUBCHEM_IUPAC_INCHIKEY>
FZHTWPLZNXRSGR-UHFFFAOYSA-N

>  <PUBCHEM_XLOGP3_AA>
2.2

>  <PUBCHEM_EXACT_MASS>
940.503

>  <PUBCHEM_MOLECULAR_FORMULA>
C48H76O18

>  <PUBCHEM_MOLECULAR_WEIGHT>
941.118

>  <PUBCHEM_OPENEYE_CAN_SMILES>
CC1C(C(C(C(O1)OC2C(C(C(OC2OC3C(C(C(OC3OC4CCC5(C(C4(C)C=O)CCC6(C5CC=C7C6(CCC8(C7CC(CC8O)(C)C)C)C)C)C)C(=O)O)O)O)CO)O)O)O)O)O

>  <PUBCHEM_OPENEYE_ISO_SMILES>
CC1C(C(C(C(O1)OC2C(C(C(OC2OC3C(C(C(OC3OC4CCC5(C(C4(C)C=O)CCC6(C5CC=C7C6(CCC8(C7CC(CC8O)(C)C)C)C)C)C)C(=O)O)O)O)CO)O)O)O)O)O

>  <PUBCHEM_CACTVS_TPSA>
292

>  <PUBCHEM_MONOISOTOPIC_WEIGHT>
940.503

>  <PUBCHEM_TOTAL_CHARGE>
0

>  <PUBCHEM_HEAVY_ATOM_COUNT>
66

>  <PUBCHEM_ATOM_DEF_STEREO_COUNT>
0

>  <PUBCHEM_ATOM_UDEF_STEREO_COUNT>
25

>  <PUBCHEM_BOND_DEF_STEREO_COUNT>
0

>  <PUBCHEM_BOND_UDEF_STEREO_COUNT>
0

>  <PUBCHEM_ISOTOPIC_ATOM_COUNT>
0

>  <PUBCHEM_COMPONENT_COUNT>
1

>  <PUBCHEM_CACTVS_TAUTO_COUNT>
1

>  <PUBCHEM_COORDINATE_TYPE>
1
5
255

>  <PUBCHEM_BONDANNOTATIONS>
36  1  3
49  1  3
56  11  3
61  11  3
57  12  3
59  13  3
62  16  3
63  17  3
65  18  3
19  34  3
41  2  3
20  30  3
21  37  3
22  38  3
23  27  3
26  40  3
28  44  3
31  45  3
50  5  3
54  5  3
52  55  3
58  60  3
51  6  3
64  66  3
53  7  3

$$$$
