85245998
 OpenBabel06101807152D

100105  0  0  1  0  0  0  0  0999 V2000
   11.5538    4.5098    0.0000 O   0  0  0  0  0  0  0  0  0  0  0  0
    6.9199    4.4227    0.0000 O   0  0  0  0  0  0  0  0  0  0  0  0
    5.8889    2.6528    0.0000 O   0  0  0  0  0  0  0  0  0  0  0  0
    9.1319    6.3814    0.0000 O   0  0  0  0  0  0  0  0  0  0  0  0
    6.0010   -0.6848    0.0000 O   0  0  0  0  0  0  0  0  0  0  0  0
    5.1350    0.8152    0.0000 O   0  0  0  0  0  0  0  0  0  0  0  0
    4.2690   -0.6848    0.0000 O   0  0  0  0  0  0  0  0  0  0  0  0
    6.0010   -2.6848    0.0000 O   0  0  0  0  0  0  0  0  0  0  0  0
    4.2690   -3.6848    0.0000 O   0  0  0  0  0  0  0  0  0  0  0  0
    2.5369   -2.6848    0.0000 O   0  0  0  0  0  0  0  0  0  0  0  0
    5.1350   -4.1848    0.0000 O   0  0  0  0  0  0  0  0  0  0  0  0
    2.5369    0.3152    0.0000 O   0  0  0  0  0  0  0  0  0  0  0  0
    7.7331   -3.6848    0.0000 O   0  0  0  0  0  0  0  0  0  0  0  0
    7.7331   -5.6848    0.0000 O   0  0  0  0  0  0  0  0  0  0  0  0
    6.0010   -6.6848    0.0000 O   0  0  0  0  0  0  0  0  0  0  0  0
    3.4030   -5.1848    0.0000 O   0  0  0  0  0  0  0  0  0  0  0  0
    8.4547    3.5408    0.0000 C   0  0  3  0  0  0  0  0  0  0  0  0
    8.9581    2.6767    0.0000 C   0  0  3  0  0  0  0  0  0  0  0  0
    8.4547    1.7648    0.0000 C   0  0  3  0  0  0  0  0  0  0  0  0
    7.4132    1.7527    0.0000 C   0  0  3  0  0  0  0  0  0  0  0  0
   10.5993    4.2114    0.0000 C   0  0  3  0  0  0  0  0  0  0  0  0
    9.6363    3.5268    0.0000 C   0  0  0  0  0  0  0  0  0  0  0  0
    8.8165    4.4731    0.0000 C   0  0  0  0  0  0  0  0  0  0  0  0
    7.4132    3.5528    0.0000 C   0  0  3  0  0  0  0  0  0  0  0  0
    9.7709    4.7715    0.0000 C   0  0  3  0  0  0  0  0  0  0  0  0
    9.9475    2.5315    0.0000 C   0  0  0  0  0  0  0  0  0  0  0  0
    6.8889    2.6528    0.0000 C   0  0  3  0  0  0  0  0  0  0  0  0
   10.6779    3.2145    0.0000 C   0  0  0  0  0  0  0  0  0  0  0  0
    6.8671    0.8152    0.0000 C   0  0  3  0  0  0  0  0  0  0  0  0
    9.0224    0.8401    0.0000 C   0  0  0  0  0  0  0  0  0  0  0  0
    9.4547    1.7763    0.0000 C   0  0  0  0  0  0  0  0  0  0  0  0
    7.4132   -0.1223    0.0000 C   0  0  0  0  0  0  0  0  0  0  0  0
    8.4981   -0.1098    0.0000 C   0  0  0  0  0  0  0  0  0  0  0  0
    9.9162    5.7609    0.0000 C   0  0  0  0  0  0  0  0  0  0  0  0
    6.0010    1.3152    0.0000 C   0  0  0  0  0  0  0  0  0  0  0  0
    6.0010    0.3152    0.0000 C   0  0  0  0  0  0  0  0  0  0  0  0
    5.1350   -1.1848    0.0000 C   0  0  3  0  0  0  0  0  0  0  0  0
    5.1350   -2.1848    0.0000 C   0  0  3  0  0  0  0  0  0  0  0  0
    4.2690   -2.6848    0.0000 C   0  0  3  0  0  0  0  0  0  0  0  0
    3.4030   -1.1848    0.0000 C   0  0  3  0  0  0  0  0  0  0  0  0
    3.4030   -2.1848    0.0000 C   0  0  3  0  0  0  0  0  0  0  0  0
    2.5369   -0.6848    0.0000 C   0  0  0  0  0  0  0  0  0  0  0  0
    6.0010   -3.6848    0.0000 C   0  0  3  0  0  0  0  0  0  0  0  0
    6.8671   -4.1848    0.0000 C   0  0  3  0  0  0  0  0  0  0  0  0
    6.8671   -5.1848    0.0000 C   0  0  3  0  0  0  0  0  0  0  0  0
    5.1350   -5.1848    0.0000 C   0  0  3  0  0  0  0  0  0  0  0  0
    6.0010   -5.6848    0.0000 C   0  0  3  0  0  0  0  0  0  0  0  0
    4.2690   -5.6848    0.0000 C   0  0  0  0  0  0  0  0  0  0  0  0
    9.3054    3.1903    0.0000 H   0  0  0  0  0  0  0  0  0  0  0  0
    6.7932    1.7527    0.0000 H   0  0  0  0  0  0  0  0  0  0  0  0
    9.4380    2.9393    0.0000 H   0  0  0  0  0  0  0  0  0  0  0  0
   10.1339    3.1569    0.0000 H   0  0  0  0  0  0  0  0  0  0  0  0
    8.7678    5.0912    0.0000 H   0  0  0  0  0  0  0  0  0  0  0  0
    8.2031    4.5631    0.0000 H   0  0  0  0  0  0  0  0  0  0  0  0
    7.7283    4.0868    0.0000 H   0  0  0  0  0  0  0  0  0  0  0  0
    9.2994    5.1741    0.0000 H   0  0  0  0  0  0  0  0  0  0  0  0
    9.7232    1.9535    0.0000 H   0  0  0  0  0  0  0  0  0  0  0  0
   10.4611    2.1842    0.0000 H   0  0  0  0  0  0  0  0  0  0  0  0
    6.5799    2.1152    0.0000 H   0  0  0  0  0  0  0  0  0  0  0  0
   10.9900    2.6787    0.0000 H   0  0  0  0  0  0  0  0  0  0  0  0
   11.2696    3.3995    0.0000 H   0  0  0  0  0  0  0  0  0  0  0  0
    9.5059    0.4521    0.0000 H   0  0  0  0  0  0  0  0  0  0  0  0
    9.4875    1.2501    0.0000 H   0  0  0  0  0  0  0  0  0  0  0  0
    9.4618    1.1564    0.0000 H   0  0  0  0  0  0  0  0  0  0  0  0
   10.0746    1.7835    0.0000 H   0  0  0  0  0  0  0  0  0  0  0  0
    9.4475    2.3963    0.0000 H   0  0  0  0  0  0  0  0  0  0  0  0
    6.8319   -0.3381    0.0000 H   0  0  0  0  0  0  0  0  0  0  0  0
    7.5263   -0.7319    0.0000 H   0  0  0  0  0  0  0  0  0  0  0  0
    8.3991   -0.7218    0.0000 H   0  0  0  0  0  0  0  0  0  0  0  0
    9.0842   -0.3121    0.0000 H   0  0  0  0  0  0  0  0  0  0  0  0
   10.5046    5.5657    0.0000 H   0  0  0  0  0  0  0  0  0  0  0  0
   10.2106    6.3066    0.0000 H   0  0  0  0  0  0  0  0  0  0  0  0
   11.6894    5.1148    0.0000 H   0  0  0  0  0  0  0  0  0  0  0  0
    6.3110    1.8521    0.0000 H   0  0  0  0  0  0  0  0  0  0  0  0
    5.4641    1.6252    0.0000 H   0  0  0  0  0  0  0  0  0  0  0  0
    5.6910    0.7783    0.0000 H   0  0  0  0  0  0  0  0  0  0  0  0
    6.2999    4.4275    0.0000 H   0  0  0  0  0  0  0  0  0  0  0  0
    5.5789    3.1897    0.0000 H   0  0  0  0  0  0  0  0  0  0  0  0
    9.2220    6.9948    0.0000 H   0  0  0  0  0  0  0  0  0  0  0  0
    5.6720   -1.4948    0.0000 H   0  0  0  0  0  0  0  0  0  0  0  0
    5.1350   -2.8048    0.0000 H   0  0  0  0  0  0  0  0  0  0  0  0
    3.7320   -2.9948    0.0000 H   0  0  0  0  0  0  0  0  0  0  0  0
    3.4030   -0.5648    0.0000 H   0  0  0  0  0  0  0  0  0  0  0  0
    2.8660   -1.8748    0.0000 H   0  0  0  0  0  0  0  0  0  0  0  0
    1.9264   -0.5772    0.0000 H   0  0  0  0  0  0  0  0  0  0  0  0
    2.3249   -1.2674    0.0000 H   0  0  0  0  0  0  0  0  0  0  0  0
    6.5380   -3.3748    0.0000 H   0  0  0  0  0  0  0  0  0  0  0  0
    3.7320   -3.9948    0.0000 H   0  0  0  0  0  0  0  0  0  0  0  0
    2.0000   -2.3748    0.0000 H   0  0  0  0  0  0  0  0  0  0  0  0
    7.4040   -4.4948    0.0000 H   0  0  0  0  0  0  0  0  0  0  0  0
    6.8671   -5.8048    0.0000 H   0  0  0  0  0  0  0  0  0  0  0  0
    4.5981   -4.8748    0.0000 H   0  0  0  0  0  0  0  0  0  0  0  0
    5.4641   -5.9948    0.0000 H   0  0  0  0  0  0  0  0  0  0  0  0
    2.0000    0.6252    0.0000 H   0  0  0  0  0  0  0  0  0  0  0  0
    7.7331   -3.0648    0.0000 H   0  0  0  0  0  0  0  0  0  0  0  0
    3.8705   -6.1598    0.0000 H   0  0  0  0  0  0  0  0  0  0  0  0
    4.6675   -6.1598    0.0000 H   0  0  0  0  0  0  0  0  0  0  0  0
    7.7331   -6.3048    0.0000 H   0  0  0  0  0  0  0  0  0  0  0  0
    5.4641   -6.9948    0.0000 H   0  0  0  0  0  0  0  0  0  0  0  0
    2.8660   -5.4948    0.0000 H   0  0  0  0  0  0  0  0  0  0  0  0
  1 21  1  0  0  0  0
  1 73  1  0  0  0  0
  2 24  1  0  0  0  0
  2 77  1  0  0  0  0
  3 27  1  0  0  0  0
  3 78  1  0  0  0  0
  4 34  1  0  0  0  0
  4 79  1  0  0  0  0
  5 36  1  0  0  0  0
  5 37  1  0  0  0  0
  6 36  2  0  0  0  0
  7 37  1  0  0  0  0
  7 40  1  0  0  0  0
  8 38  1  0  0  0  0
  8 43  1  0  0  0  0
  9 39  1  0  0  0  0
  9 88  1  0  0  0  0
 10 41  1  0  0  0  0
 10 89  1  0  0  0  0
 11 43  1  0  0  0  0
 11 46  1  0  0  0  0
 12 42  1  0  0  0  0
 12 94  1  0  0  0  0
 13 44  1  0  0  0  0
 13 95  1  0  0  0  0
 14 45  1  0  0  0  0
 14 98  1  0  0  0  0
 15 47  1  0  0  0  0
 15 99  1  0  0  0  0
 16 48  1  0  0  0  0
 16100  1  0  0  0  0
 17 18  1  0  0  0  0
 17 22  1  0  0  0  0
 17 23  1  0  0  0  0
 17 24  1  0  0  0  0
 18 19  1  0  0  0  0
 18 26  1  0  0  0  0
 18 49  1  0  0  0  0
 19 20  1  0  0  0  0
 19 30  1  0  0  0  0
 19 31  1  0  0  0  0
 20 27  1  0  0  0  0
 20 29  1  0  0  0  0
 20 50  1  0  0  0  0
 21 22  1  0  0  0  0
 21 25  1  0  0  0  0
 21 28  1  0  0  0  0
 22 51  1  0  0  0  0
 22 52  1  0  0  0  0
 23 25  1  0  0  0  0
 23 53  1  0  0  0  0
 23 54  1  0  0  0  0
 24 27  1  0  0  0  0
 24 55  1  0  0  0  0
 25 34  1  0  0  0  0
 25 56  1  0  0  0  0
 26 28  1  0  0  0  0
 26 57  1  0  0  0  0
 26 58  1  0  0  0  0
 27 59  1  0  0  0  0
 28 60  1  0  0  0  0
 28 61  1  0  0  0  0
 29 32  1  0  0  0  0
 29 35  1  0  0  0  0
 29 36  1  0  0  0  0
 30 33  1  0  0  0  0
 30 62  1  0  0  0  0
 30 63  1  0  0  0  0
 31 64  1  0  0  0  0
 31 65  1  0  0  0  0
 31 66  1  0  0  0  0
 32 33  1  0  0  0  0
 32 67  1  0  0  0  0
 32 68  1  0  0  0  0
 33 69  1  0  0  0  0
 33 70  1  0  0  0  0
 34 71  1  0  0  0  0
 34 72  1  0  0  0  0
 35 74  1  0  0  0  0
 35 75  1  0  0  0  0
 35 76  1  0  0  0  0
 37 38  1  0  0  0  0
 37 80  1  0  0  0  0
 38 39  1  0  0  0  0
 38 81  1  0  0  0  0
 39 41  1  0  0  0  0
 39 82  1  0  0  0  0
 40 41  1  0  0  0  0
 40 42  1  0  0  0  0
 40 83  1  0  0  0  0
 41 84  1  0  0  0  0
 42 85  1  0  0  0  0
 42 86  1  0  0  0  0
 43 44  1  0  0  0  0
 43 87  1  0  0  0  0
 44 45  1  0  0  0  0
 44 90  1  0  0  0  0
 45 47  1  0  0  0  0
 45 91  1  0  0  0  0
 46 47  1  0  0  0  0
 46 48  1  0  0  0  0
 46 92  1  0  0  0  0
 47 93  1  0  0  0  0
 48 96  1  0  0  0  0
 48 97  1  0  0  0  0
M  END
>  <PUBCHEM_COMPOUND_CID>
85245998

>  <PUBCHEM_COMPOUND_CANONICALIZED>
1

>  <PUBCHEM_CACTVS_COMPLEXITY>
1190

>  <PUBCHEM_CACTVS_HBOND_ACCEPTOR>
16

>  <PUBCHEM_CACTVS_HBOND_DONOR>
11

>  <PUBCHEM_CACTVS_ROTATABLE_BOND>
8

>  <PUBCHEM_CACTVS_SUBSKEYS>
AAADcfB8PgAAAAAAAAAAAAAAAAAAAYAAAAA0aMECBgAAAADAAAAAGgAACAAAD1SwgAMCCAAABgAIAACQCAAAAAAAAAAAAAEAAAAREBIAAAAiQAAFAAAHAAHK7PzPgAAAAAAAAADAAAYAADCAAYAADAAAAA==

>  <PUBCHEM_IUPAC_INCHI>
InChI=1S/C32H52O16/c1-29-5-3-6-30(2,24(29)22(41)25(42)31-8-13(9-33)32(44,12-31)7-4-16(29)31)28(43)48-27-23(20(39)18(37)15(11-35)46-27)47-26-21(40)19(38)17(36)14(10-34)45-26/h13-27,33-42,44H,3-12H2,1-2H3

>  <PUBCHEM_IUPAC_INCHIKEY>
YOTRDVISFUJMJN-UHFFFAOYSA-N

>  <PUBCHEM_XLOGP3_AA>
-1.9

>  <PUBCHEM_EXACT_MASS>
692.326

>  <PUBCHEM_MOLECULAR_FORMULA>
C32H52O16

>  <PUBCHEM_MOLECULAR_WEIGHT>
692.752

>  <PUBCHEM_OPENEYE_CAN_SMILES>
CC12CCCC(C1C(C(C34C2CCC(C3)(C(C4)CO)O)O)O)(C)C(=O)OC5C(C(C(C(O5)CO)O)O)OC6C(C(C(C(O6)CO)O)O)O

>  <PUBCHEM_OPENEYE_ISO_SMILES>
CC12CCCC(C1C(C(C34C2CCC(C3)(C(C4)CO)O)O)O)(C)C(=O)OC5C(C(C(C(O5)CO)O)O)OC6C(C(C(C(O6)CO)O)O)O

>  <PUBCHEM_CACTVS_TPSA>
277

>  <PUBCHEM_MONOISOTOPIC_WEIGHT>
692.326

>  <PUBCHEM_TOTAL_CHARGE>
0

>  <PUBCHEM_HEAVY_ATOM_COUNT>
48

>  <PUBCHEM_ATOM_DEF_STEREO_COUNT>
0

>  <PUBCHEM_ATOM_UDEF_STEREO_COUNT>
19

>  <PUBCHEM_BOND_DEF_STEREO_COUNT>
0

>  <PUBCHEM_BOND_UDEF_STEREO_COUNT>
0

>  <PUBCHEM_ISOTOPIC_ATOM_COUNT>
0

>  <PUBCHEM_COMPONENT_COUNT>
1

>  <PUBCHEM_CACTVS_TAUTO_COUNT>
1

>  <PUBCHEM_COORDINATE_TYPE>
1
5
255

>  <PUBCHEM_BONDANNOTATIONS>
21  1  3
41  10  3
44  13  3
45  14  3
47  15  3
17  22  3
18  26  3
19  31  3
24  2  3
20  29  3
25  34  3
29  35  3
27  3  3
40  42  3
46  48  3
37  5  3
38  8  3
43  8  3
39  9  3

$$$$
