85347721
 OpenBabel06101807152D

 76 79  0  0  1  0  0  0  0  0999 V2000
    3.7891    2.0544    0.0000 O   0  0  0  0  0  0  0  0  0  0  0  0
    7.1013    2.4145    0.0000 O   0  0  0  0  0  0  0  0  0  0  0  0
    4.5981   -2.5334    0.0000 O   0  0  0  0  0  0  0  0  0  0  0  0
    2.8660   -1.5334    0.0000 O   0  0  0  0  0  0  0  0  0  0  0  0
    6.0480    7.2596    0.0000 O   0  0  0  0  0  0  0  0  0  0  0  0
    4.0589    7.4686    0.0000 O   0  0  0  0  0  0  0  0  0  0  0  0
    4.5981   -4.5334    0.0000 O   0  0  0  0  0  0  0  0  0  0  0  0
    7.1962   -3.0334    0.0000 O   0  0  0  0  0  0  0  0  0  0  0  0
    7.1962   -7.0334    0.0000 O   0  0  0  0  0  0  0  0  0  0  0  0
    8.9282   -6.0334    0.0000 O   0  0  0  0  0  0  0  0  0  0  0  0
    5.4071    2.0544    0.0000 C   0  0  3  0  0  0  0  0  0  0  0  0
    5.0981    3.0054    0.0000 C   0  0  3  0  0  0  0  0  0  0  0  0
    4.5981    1.4666    0.0000 C   0  0  3  0  0  0  0  0  0  0  0  0
    4.0981    3.0054    0.0000 C   0  0  0  0  0  0  0  0  0  0  0  0
    5.6859    3.8144    0.0000 C   0  0  0  0  0  0  0  0  0  0  0  0
    6.3582    1.7453    0.0000 C   0  0  0  0  0  0  0  0  0  0  0  0
    4.5981    0.4666    0.0000 C   0  0  0  0  0  0  0  0  0  0  0  0
    5.2791    4.7280    0.0000 C   0  0  0  0  0  0  0  0  0  0  0  0
    3.7320   -0.0334    0.0000 C   0  0  0  0  0  0  0  0  0  0  0  0
    5.4641   -0.0334    0.0000 C   0  0  0  0  0  0  0  0  0  0  0  0
    5.8669    5.5370    0.0000 C   0  0  0  0  0  0  0  0  0  0  0  0
    4.2846    4.8325    0.0000 C   0  0  0  0  0  0  0  0  0  0  0  0
    3.7320   -1.0334    0.0000 C   0  0  0  0  0  0  0  0  0  0  0  0
    5.4641   -1.0334    0.0000 C   0  0  0  0  0  0  0  0  0  0  0  0
    4.5981   -1.5334    0.0000 C   0  0  0  0  0  0  0  0  0  0  0  0
    5.4602    6.4505    0.0000 C   0  0  0  0  0  0  0  0  0  0  0  0
    3.8779    5.7460    0.0000 C   0  0  0  0  0  0  0  0  0  0  0  0
    4.4656    6.5551    0.0000 C   0  0  0  0  0  0  0  0  0  0  0  0
    5.4641   -3.0334    0.0000 C   0  0  3  0  0  0  0  0  0  0  0  0
    5.4641   -4.0334    0.0000 C   0  0  3  0  0  0  0  0  0  0  0  0
    6.3301   -2.5334    0.0000 C   0  0  0  0  0  0  0  0  0  0  0  0
    2.0000   -1.0334    0.0000 C   0  0  0  0  0  0  0  0  0  0  0  0
    6.3301   -4.5334    0.0000 C   0  0  0  0  0  0  0  0  0  0  0  0
    7.0425    7.1550    0.0000 C   0  0  0  0  0  0  0  0  0  0  0  0
    6.3301   -5.5334    0.0000 C   0  0  0  0  0  0  0  0  0  0  0  0
    7.1962   -4.0334    0.0000 C   0  0  0  0  0  0  0  0  0  0  0  0
    7.1962   -6.0334    0.0000 C   0  0  0  0  0  0  0  0  0  0  0  0
    8.0622   -4.5334    0.0000 C   0  0  0  0  0  0  0  0  0  0  0  0
    8.0622   -5.5334    0.0000 C   0  0  0  0  0  0  0  0  0  0  0  0
    6.3301   -7.5334    0.0000 C   0  0  0  0  0  0  0  0  0  0  0  0
    5.5041    1.4420    0.0000 H   0  0  0  0  0  0  0  0  0  0  0  0
    5.7104    2.9084    0.0000 H   0  0  0  0  0  0  0  0  0  0  0  0
    5.1505    1.1851    0.0000 H   0  0  0  0  0  0  0  0  0  0  0  0
    4.1629    3.6220    0.0000 H   0  0  0  0  0  0  0  0  0  0  0  0
    3.4916    3.1343    0.0000 H   0  0  0  0  0  0  0  0  0  0  0  0
    6.1166    3.3684    0.0000 H   0  0  0  0  0  0  0  0  0  0  0  0
    6.1999    4.1611    0.0000 H   0  0  0  0  0  0  0  0  0  0  0  0
    6.0671    1.1979    0.0000 H   0  0  0  0  0  0  0  0  0  0  0  0
    6.8467    1.3636    0.0000 H   0  0  0  0  0  0  0  0  0  0  0  0
    3.1951    0.2766    0.0000 H   0  0  0  0  0  0  0  0  0  0  0  0
    6.0010    0.2766    0.0000 H   0  0  0  0  0  0  0  0  0  0  0  0
    7.6910    2.2229    0.0000 H   0  0  0  0  0  0  0  0  0  0  0  0
    6.4835    5.4722    0.0000 H   0  0  0  0  0  0  0  0  0  0  0  0
    3.9202    4.3309    0.0000 H   0  0  0  0  0  0  0  0  0  0  0  0
    6.0010   -1.3434    0.0000 H   0  0  0  0  0  0  0  0  0  0  0  0
    3.2613    5.8109    0.0000 H   0  0  0  0  0  0  0  0  0  0  0  0
    5.4641   -2.4134    0.0000 H   0  0  0  0  0  0  0  0  0  0  0  0
    5.4641   -4.6534    0.0000 H   0  0  0  0  0  0  0  0  0  0  0  0
    6.7287   -2.0585    0.0000 H   0  0  0  0  0  0  0  0  0  0  0  0
    5.9316   -2.0585    0.0000 H   0  0  0  0  0  0  0  0  0  0  0  0
    2.3100   -0.4965    0.0000 H   0  0  0  0  0  0  0  0  0  0  0  0
    1.4631   -0.7234    0.0000 H   0  0  0  0  0  0  0  0  0  0  0  0
    1.6900   -1.5704    0.0000 H   0  0  0  0  0  0  0  0  0  0  0  0
    3.4423    7.5334    0.0000 H   0  0  0  0  0  0  0  0  0  0  0  0
    6.9777    6.5384    0.0000 H   0  0  0  0  0  0  0  0  0  0  0  0
    7.6591    7.0902    0.0000 H   0  0  0  0  0  0  0  0  0  0  0  0
    7.1073    7.7716    0.0000 H   0  0  0  0  0  0  0  0  0  0  0  0
    4.5981   -5.1534    0.0000 H   0  0  0  0  0  0  0  0  0  0  0  0
    5.7932   -5.8434    0.0000 H   0  0  0  0  0  0  0  0  0  0  0  0
    7.1962   -3.4134    0.0000 H   0  0  0  0  0  0  0  0  0  0  0  0
    7.7331   -2.7234    0.0000 H   0  0  0  0  0  0  0  0  0  0  0  0
    8.5991   -4.2234    0.0000 H   0  0  0  0  0  0  0  0  0  0  0  0
    9.4651   -5.7234    0.0000 H   0  0  0  0  0  0  0  0  0  0  0  0
    6.0201   -6.9965    0.0000 H   0  0  0  0  0  0  0  0  0  0  0  0
    5.7932   -7.8434    0.0000 H   0  0  0  0  0  0  0  0  0  0  0  0
    6.6401   -8.0704    0.0000 H   0  0  0  0  0  0  0  0  0  0  0  0
  1 13  1  0  0  0  0
  1 14  1  0  0  0  0
  2 16  1  0  0  0  0
  2 52  1  0  0  0  0
  3 25  1  0  0  0  0
  3 29  1  0  0  0  0
  4 23  1  0  0  0  0
  4 32  1  0  0  0  0
  5 26  1  0  0  0  0
  5 34  1  0  0  0  0
  6 28  1  0  0  0  0
  6 64  1  0  0  0  0
  7 30  1  0  0  0  0
  7 68  1  0  0  0  0
  8 31  1  0  0  0  0
  8 71  1  0  0  0  0
  9 37  1  0  0  0  0
  9 40  1  0  0  0  0
 10 39  1  0  0  0  0
 10 73  1  0  0  0  0
 11 12  1  0  0  0  0
 11 13  1  0  0  0  0
 11 16  1  0  0  0  0
 11 41  1  0  0  0  0
 12 14  1  0  0  0  0
 12 15  1  0  0  0  0
 12 42  1  0  0  0  0
 13 17  1  0  0  0  0
 13 43  1  0  0  0  0
 14 44  1  0  0  0  0
 14 45  1  0  0  0  0
 15 18  1  0  0  0  0
 15 46  1  0  0  0  0
 15 47  1  0  0  0  0
 16 48  1  0  0  0  0
 16 49  1  0  0  0  0
 17 19  2  0  0  0  0
 17 20  1  0  0  0  0
 18 21  2  0  0  0  0
 18 22  1  0  0  0  0
 19 23  1  0  0  0  0
 19 50  1  0  0  0  0
 20 24  2  0  0  0  0
 20 51  1  0  0  0  0
 21 26  1  0  0  0  0
 21 53  1  0  0  0  0
 22 27  2  0  0  0  0
 22 54  1  0  0  0  0
 23 25  2  0  0  0  0
 24 25  1  0  0  0  0
 24 55  1  0  0  0  0
 26 28  2  0  0  0  0
 27 28  1  0  0  0  0
 27 56  1  0  0  0  0
 29 30  1  0  0  0  0
 29 31  1  0  0  0  0
 29 57  1  0  0  0  0
 30 33  1  0  0  0  0
 30 58  1  0  0  0  0
 31 59  1  0  0  0  0
 31 60  1  0  0  0  0
 32 61  1  0  0  0  0
 32 62  1  0  0  0  0
 32 63  1  0  0  0  0
 33 35  2  0  0  0  0
 33 36  1  0  0  0  0
 34 65  1  0  0  0  0
 34 66  1  0  0  0  0
 34 67  1  0  0  0  0
 35 37  1  0  0  0  0
 35 69  1  0  0  0  0
 36 38  2  0  0  0  0
 36 70  1  0  0  0  0
 37 39  2  0  0  0  0
 38 39  1  0  0  0  0
 38 72  1  0  0  0  0
 40 74  1  0  0  0  0
 40 75  1  0  0  0  0
 40 76  1  0  0  0  0
M  END
>  <PUBCHEM_COMPOUND_CID>
85347721

>  <PUBCHEM_COMPOUND_CANONICALIZED>
1

>  <PUBCHEM_CACTVS_COMPLEXITY>
741

>  <PUBCHEM_CACTVS_HBOND_ACCEPTOR>
10

>  <PUBCHEM_CACTVS_HBOND_DONOR>
5

>  <PUBCHEM_CACTVS_ROTATABLE_BOND>
12

>  <PUBCHEM_CACTVS_SUBSKEYS>
AAADcfB4PAAAAAAAAAAAAAAAAAAAASAAAAAwYMAAAAAAAAABUAAAGgAACAAADRSgmAIyBoAABgCAAiBCAAACCAAgIAAIiAAGiIgNNiKGMRqCeCOlwBELuAfA4PwOoAABAAAAQABAAAIAAACAAAAAAAAAAA==

>  <PUBCHEM_IUPAC_OPENEYE_NAME>
1-(4-hydroxy-3-methoxy-phenyl)-2-[4-[4-[(4-hydroxy-3-methoxy-phenyl)methyl]-3-(hydroxymethyl)tetrahydrofuran-2-yl]-2-methoxy-phenoxy]propane-1,3-diol

>  <PUBCHEM_IUPAC_CAS_NAME>
1-(4-hydroxy-3-methoxyphenyl)-2-[4-[4-[(4-hydroxy-3-methoxyphenyl)methyl]-3-(hydroxymethyl)-2-oxolanyl]-2-methoxyphenoxy]propane-1,3-diol

>  <PUBCHEM_IUPAC_NAME>
1-(4-hydroxy-3-methoxyphenyl)-2-[4-[4-[(4-hydroxy-3-methoxyphenyl)methyl]-3-(hydroxymethyl)oxolan-2-yl]-2-methoxyphenoxy]propane-1,3-diol

>  <PUBCHEM_IUPAC_SYSTEMATIC_NAME>
2-[4-[3-(hydroxymethyl)-4-[(3-methoxy-4-oxidanyl-phenyl)methyl]oxolan-2-yl]-2-methoxy-phenoxy]-1-(3-methoxy-4-oxidanyl-phenyl)propane-1,3-diol

>  <PUBCHEM_IUPAC_TRADITIONAL_NAME>
1-(4-hydroxy-3-methoxy-phenyl)-2-[2-methoxy-4-(3-methylol-4-vanillyl-tetrahydrofuran-2-yl)phenoxy]propane-1,3-diol

>  <PUBCHEM_IUPAC_INCHI>
InChI=1S/C30H36O10/c1-36-25-11-17(4-7-22(25)33)10-20-16-39-30(21(20)14-31)19-6-9-24(27(13-19)38-3)40-28(15-32)29(35)18-5-8-23(34)26(12-18)37-2/h4-9,11-13,20-21,28-35H,10,14-16H2,1-3H3

>  <PUBCHEM_IUPAC_INCHIKEY>
MWGNJVCCJCKLGJ-UHFFFAOYSA-N

>  <PUBCHEM_XLOGP3_AA>
2.6

>  <PUBCHEM_EXACT_MASS>
556.231

>  <PUBCHEM_MOLECULAR_FORMULA>
C30H36O10

>  <PUBCHEM_MOLECULAR_WEIGHT>
556.608

>  <PUBCHEM_OPENEYE_CAN_SMILES>
COC1=C(C=CC(=C1)CC2COC(C2CO)C3=CC(=C(C=C3)OC(CO)C(C4=CC(=C(C=C4)O)OC)O)OC)O

>  <PUBCHEM_OPENEYE_ISO_SMILES>
COC1=C(C=CC(=C1)CC2COC(C2CO)C3=CC(=C(C=C3)OC(CO)C(C4=CC(=C(C=C4)O)OC)O)OC)O

>  <PUBCHEM_CACTVS_TPSA>
147

>  <PUBCHEM_MONOISOTOPIC_WEIGHT>
556.231

>  <PUBCHEM_TOTAL_CHARGE>
0

>  <PUBCHEM_HEAVY_ATOM_COUNT>
40

>  <PUBCHEM_ATOM_DEF_STEREO_COUNT>
0

>  <PUBCHEM_ATOM_UDEF_STEREO_COUNT>
5

>  <PUBCHEM_BOND_DEF_STEREO_COUNT>
0

>  <PUBCHEM_BOND_UDEF_STEREO_COUNT>
0

>  <PUBCHEM_ISOTOPIC_ATOM_COUNT>
0

>  <PUBCHEM_COMPONENT_COUNT>
1

>  <PUBCHEM_CACTVS_TAUTO_COUNT>
8

>  <PUBCHEM_COORDINATE_TYPE>
1
5
255

>  <PUBCHEM_BONDANNOTATIONS>
11  16  3
12  15  3
13  17  3
17  19  8
17  20  8
18  21  8
18  22  8
19  23  8
20  24  8
21  26  8
22  27  8
23  25  8
24  25  8
26  28  8
27  28  8
29  31  3
33  35  8
33  36  8
35  37  8
36  38  8
37  39  8
38  39  8
30  7  3

$$$$
