85370845
 OpenBabel06101807152D

 49 53  0  0  1  0  0  0  0  0999 V2000
    5.5162    1.0057    0.0000 O   0  0  0  0  0  0  0  0  0  0  0  0
    6.0117   -2.4003    0.0000 O   0  0  0  0  0  0  0  0  0  0  0  0
    7.9012   -1.9554    0.0000 O   0  0  0  0  0  0  0  0  0  0  0  0
    7.9380    1.5623    0.0000 O   0  0  0  0  0  0  0  0  0  0  0  0
    4.4394    2.2341    0.0000 O   0  0  0  0  0  0  0  0  0  0  0  0
    6.1653    2.0886    0.0000 O   0  0  0  0  0  0  0  0  0  0  0  0
    4.4481    0.1174    0.0000 C   0  0  3  0  0  0  0  0  0  0  0  0
    5.6621   -0.7282    0.0000 C   0  0  3  0  0  0  0  0  0  0  0  0
    4.7500   -0.7498    0.0000 C   0  0  3  0  0  0  0  0  0  0  0  0
    5.9251    0.1458    0.0000 C   0  0  3  0  0  0  0  0  0  0  0  0
    5.1763    0.6666    0.0000 C   0  0  3  0  0  0  0  0  0  0  0  0
    6.8424    0.3618    0.0000 C   0  0  3  0  0  0  0  0  0  0  0  0
    3.7521   -0.7150    0.0000 C   0  0  0  0  0  0  0  0  0  0  0  0
    6.2999   -1.4428    0.0000 C   0  0  3  0  0  0  0  0  0  0  0  0
    3.5812    0.4221    0.0000 C   0  0  0  0  0  0  0  0  0  0  0  0
    4.2598   -1.5263    0.0000 C   0  0  0  0  0  0  0  0  0  0  0  0
    2.6992   -0.9776    0.0000 C   0  0  3  0  0  0  0  0  0  0  0  0
    7.4875   -0.3243    0.0000 C   0  0  0  0  0  0  0  0  0  0  0  0
    3.3475   -1.6276    0.0000 C   0  0  0  0  0  0  0  0  0  0  0  0
    7.2160   -1.2270    0.0000 C   0  0  3  0  0  0  0  0  0  0  0  0
    2.8036   -0.0650    0.0000 C   0  0  0  0  0  0  0  0  0  0  0  0
    7.1072    1.0057    0.0000 C   0  0  0  0  0  0  0  0  0  0  0  0
    5.2603    1.6631    0.0000 C   0  0  0  0  0  0  0  0  0  0  0  0
    7.8258    0.5430    0.0000 C   0  0  0  0  0  0  0  0  0  0  0  0
    2.0000    0.5302    0.0000 C   0  0  0  0  0  0  0  0  0  0  0  0
    5.0558   -1.2892    0.0000 H   0  0  0  0  0  0  0  0  0  0  0  0
    6.0411    0.7549    0.0000 H   0  0  0  0  0  0  0  0  0  0  0  0
    4.6335    0.9663    0.0000 H   0  0  0  0  0  0  0  0  0  0  0  0
    3.7092   -1.3335    0.0000 H   0  0  0  0  0  0  0  0  0  0  0  0
    4.3272   -0.9466    0.0000 H   0  0  0  0  0  0  0  0  0  0  0  0
    5.6946   -1.5770    0.0000 H   0  0  0  0  0  0  0  0  0  0  0  0
    3.9118    0.9466    0.0000 H   0  0  0  0  0  0  0  0  0  0  0  0
    3.1434    0.8611    0.0000 H   0  0  0  0  0  0  0  0  0  0  0  0
    4.1892   -2.1423    0.0000 H   0  0  0  0  0  0  0  0  0  0  0  0
    4.8446   -1.7322    0.0000 H   0  0  0  0  0  0  0  0  0  0  0  0
    2.1137   -1.1814    0.0000 H   0  0  0  0  0  0  0  0  0  0  0  0
    8.0412   -0.6034    0.0000 H   0  0  0  0  0  0  0  0  0  0  0  0
    7.8585    0.1724    0.0000 H   0  0  0  0  0  0  0  0  0  0  0  0
    2.8220   -1.9567    0.0000 H   0  0  0  0  0  0  0  0  0  0  0  0
    3.5514   -2.2131    0.0000 H   0  0  0  0  0  0  0  0  0  0  0  0
    7.8195   -1.0848    0.0000 H   0  0  0  0  0  0  0  0  0  0  0  0
    7.9382   -0.0667    0.0000 H   0  0  0  0  0  0  0  0  0  0  0  0
    8.4356    0.6554    0.0000 H   0  0  0  0  0  0  0  0  0  0  0  0
    7.7135    1.1528    0.0000 H   0  0  0  0  0  0  0  0  0  0  0  0
    6.4365   -2.8519    0.0000 H   0  0  0  0  0  0  0  0  0  0  0  0
    2.0704    1.1462    0.0000 H   0  0  0  0  0  0  0  0  0  0  0  0
    1.4313    0.2832    0.0000 H   0  0  0  0  0  0  0  0  0  0  0  0
    8.5047   -1.8132    0.0000 H   0  0  0  0  0  0  0  0  0  0  0  0
    4.4915    2.8519    0.0000 H   0  0  0  0  0  0  0  0  0  0  0  0
  1  8  1  0  0  0  0
  1 22  1  0  0  0  0
  2 14  1  0  0  0  0
  2 45  1  0  0  0  0
  3 20  1  0  0  0  0
  3 48  1  0  0  0  0
  4 22  2  0  0  0  0
  5 23  1  0  0  0  0
  5 49  1  0  0  0  0
  6 23  2  0  0  0  0
  7  9  1  0  0  0  0
  7 11  1  0  0  0  0
  7 13  1  0  0  0  0
  7 15  1  0  0  0  0
  8  9  1  0  0  0  0
  8 10  1  0  0  0  0
  8 14  1  0  0  0  0
  9 16  1  0  0  0  0
  9 26  1  0  0  0  0
 10 11  1  0  0  0  0
 10 12  1  0  0  0  0
 10 27  1  0  0  0  0
 11 23  1  0  0  0  0
 11 28  1  0  0  0  0
 12 18  1  0  0  0  0
 12 22  1  0  0  0  0
 12 24  1  0  0  0  0
 13 17  1  0  0  0  0
 13 29  1  0  0  0  0
 13 30  1  0  0  0  0
 14 20  1  0  0  0  0
 14 31  1  0  0  0  0
 15 21  1  0  0  0  0
 15 32  1  0  0  0  0
 15 33  1  0  0  0  0
 16 19  1  0  0  0  0
 16 34  1  0  0  0  0
 16 35  1  0  0  0  0
 17 19  1  0  0  0  0
 17 21  1  0  0  0  0
 17 36  1  0  0  0  0
 18 20  1  0  0  0  0
 18 37  1  0  0  0  0
 18 38  1  0  0  0  0
 19 39  1  0  0  0  0
 19 40  1  0  0  0  0
 20 41  1  0  0  0  0
 21 25  2  0  0  0  0
 24 42  1  0  0  0  0
 24 43  1  0  0  0  0
 24 44  1  0  0  0  0
 25 46  1  0  0  0  0
 25 47  1  0  0  0  0
M  END
>  <PUBCHEM_COMPOUND_CID>
85370845

>  <PUBCHEM_COMPOUND_CANONICALIZED>
1

>  <PUBCHEM_CACTVS_COMPLEXITY>
717

>  <PUBCHEM_CACTVS_HBOND_ACCEPTOR>
6

>  <PUBCHEM_CACTVS_HBOND_DONOR>
3

>  <PUBCHEM_CACTVS_ROTATABLE_BOND>
1

>  <PUBCHEM_CACTVS_SUBSKEYS>
AAADceB4OAAAAAAAAAAAAAAAAAAAAaMEAAAwYAAABogSAGDAAAAAGgAACAAAD1SggAICCAAABgCIAgDSCAAAAAAgAAAAAAEAAAgBEBIAAQACQAAFgAADAAHK7vzPgAAAAAAAAADAAAYQADCAAYAADAAAAA==

>  <PUBCHEM_IUPAC_INCHI>
InChI=1S/C19H24O6/c1-8-5-18-6-9(8)3-4-11(18)19-13(12(18)15(22)23)17(2,16(24)25-19)7-10(20)14(19)21/h9-14,20-21H,1,3-7H2,2H3,(H,22,23)

>  <PUBCHEM_IUPAC_INCHIKEY>
ZRNQDBNUGCCKBO-UHFFFAOYSA-N

>  <PUBCHEM_XLOGP3_AA>
0.7

>  <PUBCHEM_EXACT_MASS>
348.157

>  <PUBCHEM_MOLECULAR_FORMULA>
C19H24O6

>  <PUBCHEM_MOLECULAR_WEIGHT>
348.395

>  <PUBCHEM_OPENEYE_CAN_SMILES>
CC12CC(C(C3(C1C(C45C3CCC(C4)C(=C)C5)C(=O)O)OC2=O)O)O

>  <PUBCHEM_OPENEYE_ISO_SMILES>
CC12CC(C(C3(C1C(C45C3CCC(C4)C(=C)C5)C(=O)O)OC2=O)O)O

>  <PUBCHEM_CACTVS_TPSA>
104

>  <PUBCHEM_MONOISOTOPIC_WEIGHT>
348.157

>  <PUBCHEM_TOTAL_CHARGE>
0

>  <PUBCHEM_HEAVY_ATOM_COUNT>
25

>  <PUBCHEM_ATOM_DEF_STEREO_COUNT>
0

>  <PUBCHEM_ATOM_UDEF_STEREO_COUNT>
9

>  <PUBCHEM_BOND_DEF_STEREO_COUNT>
0

>  <PUBCHEM_BOND_UDEF_STEREO_COUNT>
0

>  <PUBCHEM_ISOTOPIC_ATOM_COUNT>
0

>  <PUBCHEM_COMPONENT_COUNT>
1

>  <PUBCHEM_CACTVS_TAUTO_COUNT>
1

>  <PUBCHEM_COORDINATE_TYPE>
1
5
255

>  <PUBCHEM_BONDANNOTATIONS>
8  1  3
10  11  3
11  23  3
12  24  3
17  21  3
14  2  3
20  3  3
7  15  3
9  16  3

$$$$
