85529415
 OpenBabel06101807152D

 32 33  0  0  0  0  0  0  0  0999 V2000
    7.1485    0.4066    0.0000 S   0  0  0  0  0  0  0  0  0  0  0  0
    9.2176   -0.2657    0.0000 S   0  0  0  0  0  0  0  0  0  0  0  0
    3.6942    1.0455    0.0000 O   0  0  0  0  0  0  0  0  0  0  0  0
    5.1805   -0.2928    0.0000 O   0  0  0  0  0  0  0  0  0  0  0  0
    3.1590    2.6928    0.0000 O   0  0  0  0  0  0  0  0  0  0  0  0
    7.9575    0.9944    0.0000 C   0  0  0  0  0  0  0  0  0  0  0  0
    6.3395    0.9944    0.0000 C   0  0  0  0  0  0  0  0  0  0  0  0
    8.9086    0.6854    0.0000 C   0  0  0  0  0  0  0  0  0  0  0  0
    7.6485    1.9454    0.0000 C   0  0  0  0  0  0  0  0  0  0  0  0
    6.6485    1.9454    0.0000 C   0  0  0  0  0  0  0  0  0  0  0  0
    5.3884    0.6854    0.0000 C   0  0  0  0  0  0  0  0  0  0  0  0
    9.7176    1.2731    0.0000 C   0  0  0  0  0  0  0  0  0  0  0  0
    4.6453    1.3545    0.0000 C   0  0  0  0  0  0  0  0  0  0  0  0
   10.5266    0.6854    0.0000 C   0  0  0  0  0  0  0  0  0  0  0  0
   10.2176   -0.2657    0.0000 C   0  0  0  0  0  0  0  0  0  0  0  0
   10.8054   -1.0747    0.0000 C   0  0  0  0  0  0  0  0  0  0  0  0
    2.9511    1.7146    0.0000 C   0  0  0  0  0  0  0  0  0  0  0  0
    2.0000    1.4056    0.0000 C   0  0  0  0  0  0  0  0  0  0  0  0
   11.3931   -1.8837    0.0000 C   0  0  0  0  0  0  0  0  0  0  0  0
   11.9809   -2.6928    0.0000 C   0  0  0  0  0  0  0  0  0  0  0  0
    8.0129    2.4470    0.0000 H   0  0  0  0  0  0  0  0  0  0  0  0
    6.2840    2.4470    0.0000 H   0  0  0  0  0  0  0  0  0  0  0  0
    9.7176    1.8931    0.0000 H   0  0  0  0  0  0  0  0  0  0  0  0
    5.1338    1.7362    0.0000 H   0  0  0  0  0  0  0  0  0  0  0  0
    4.3542    1.9019    0.0000 H   0  0  0  0  0  0  0  0  0  0  0  0
   11.1162    0.8769    0.0000 H   0  0  0  0  0  0  0  0  0  0  0  0
    1.8084    1.9952    0.0000 H   0  0  0  0  0  0  0  0  0  0  0  0
    1.4103    1.2140    0.0000 H   0  0  0  0  0  0  0  0  0  0  0  0
    2.1916    0.8159    0.0000 H   0  0  0  0  0  0  0  0  0  0  0  0
   11.4793   -3.0572    0.0000 H   0  0  0  0  0  0  0  0  0  0  0  0
   12.3453   -3.1943    0.0000 H   0  0  0  0  0  0  0  0  0  0  0  0
   12.4825   -2.3283    0.0000 H   0  0  0  0  0  0  0  0  0  0  0  0
  1  6  1  0  0  0  0
  1  7  1  0  0  0  0
  2  8  1  0  0  0  0
  2 15  1  0  0  0  0
  3 13  1  0  0  0  0
  3 17  1  0  0  0  0
  4 11  2  0  0  0  0
  5 17  2  0  0  0  0
  6  8  1  0  0  0  0
  6  9  2  0  0  0  0
  7 10  2  0  0  0  0
  7 11  1  0  0  0  0
  8 12  2  0  0  0  0
  9 10  1  0  0  0  0
  9 21  1  0  0  0  0
 10 22  1  0  0  0  0
 11 13  1  0  0  0  0
 12 14  1  0  0  0  0
 12 23  1  0  0  0  0
 13 24  1  0  0  0  0
 13 25  1  0  0  0  0
 14 15  2  0  0  0  0
 14 26  1  0  0  0  0
 15 16  1  0  0  0  0
 16 19  3  0  0  0  0
 17 18  1  0  0  0  0
 18 27  1  0  0  0  0
 18 28  1  0  0  0  0
 18 29  1  0  0  0  0
 19 20  1  0  0  0  0
 20 30  1  0  0  0  0
 20 31  1  0  0  0  0
 20 32  1  0  0  0  0
M  END
>  <PUBCHEM_COMPOUND_CID>
85529415

>  <PUBCHEM_COMPOUND_CANONICALIZED>
1

>  <PUBCHEM_CACTVS_COMPLEXITY>
449

>  <PUBCHEM_CACTVS_HBOND_ACCEPTOR>
5

>  <PUBCHEM_CACTVS_HBOND_DONOR>
0

>  <PUBCHEM_CACTVS_ROTATABLE_BOND>
6

>  <PUBCHEM_CACTVS_SUBSKEYS>
AAADccBwMABgAAAAAAAAAAAAAAAAASJAAAAAAAAAAAAAAAAB4AAAGgQAAAAACASg0AIyCYAABAjMEKDSCAoDAIAkCBBIiBlAAMgIIDKgFBSCIQAkwAEoiYeIyKCAAAAAAAAAAAAAAAAAAAAAAAAAAAAAAA==

>  <PUBCHEM_IUPAC_OPENEYE_NAME>
[2-oxo-2-[5-(5-prop-1-ynyl-2-thienyl)-2-thienyl]ethyl] acetate

>  <PUBCHEM_IUPAC_CAS_NAME>
acetic acid [2-oxo-2-[5-(5-prop-1-ynyl-2-thiophenyl)-2-thiophenyl]ethyl] ester

>  <PUBCHEM_IUPAC_NAME>
[2-oxo-2-[5-(5-prop-1-ynylthiophen-2-yl)thiophen-2-yl]ethyl] acetate

>  <PUBCHEM_IUPAC_SYSTEMATIC_NAME>
[2-oxidanylidene-2-[5-(5-prop-1-ynylthiophen-2-yl)thiophen-2-yl]ethyl] ethanoate

>  <PUBCHEM_IUPAC_TRADITIONAL_NAME>
acetic acid [2-keto-2-[5-(5-prop-1-ynyl-2-thienyl)-2-thienyl]ethyl] ester

>  <PUBCHEM_IUPAC_INCHI>
InChI=1S/C15H12O3S2/c1-3-4-11-5-6-14(19-11)15-8-7-13(20-15)12(17)9-18-10(2)16/h5-8H,9H2,1-2H3

>  <PUBCHEM_IUPAC_INCHIKEY>
FTJMUOBDALJHSD-UHFFFAOYSA-N

>  <PUBCHEM_XLOGP3_AA>
3.7

>  <PUBCHEM_EXACT_MASS>
304.023

>  <PUBCHEM_MOLECULAR_FORMULA>
C15H12O3S2

>  <PUBCHEM_MOLECULAR_WEIGHT>
304.378

>  <PUBCHEM_OPENEYE_CAN_SMILES>
CC#CC1=CC=C(S1)C2=CC=C(S2)C(=O)COC(=O)C

>  <PUBCHEM_OPENEYE_ISO_SMILES>
CC#CC1=CC=C(S1)C2=CC=C(S2)C(=O)COC(=O)C

>  <PUBCHEM_CACTVS_TPSA>
99.8

>  <PUBCHEM_MONOISOTOPIC_WEIGHT>
304.023

>  <PUBCHEM_TOTAL_CHARGE>
0

>  <PUBCHEM_HEAVY_ATOM_COUNT>
20

>  <PUBCHEM_ATOM_DEF_STEREO_COUNT>
0

>  <PUBCHEM_ATOM_UDEF_STEREO_COUNT>
0

>  <PUBCHEM_BOND_DEF_STEREO_COUNT>
0

>  <PUBCHEM_BOND_UDEF_STEREO_COUNT>
0

>  <PUBCHEM_ISOTOPIC_ATOM_COUNT>
0

>  <PUBCHEM_COMPONENT_COUNT>
1

>  <PUBCHEM_CACTVS_TAUTO_COUNT>
2

>  <PUBCHEM_COORDINATE_TYPE>
1
5
255

>  <PUBCHEM_BONDANNOTATIONS>
1  6  8
1  7  8
12  14  8
14  15  8
2  15  8
2  8  8
6  9  8
7  10  8
8  12  8
9  10  8

$$$$
