85632473
 OpenBabel06101807152D

105108  0  0  1  0  0  0  0  0999 V2000
   10.2776   -1.1387    0.0000 O   0  0  0  0  0  0  0  0  0  0  0  0
    6.8101   -0.1450    0.0000 O   0  0  0  0  0  0  0  0  0  0  0  0
   11.0907   -0.7586    0.0000 O   0  0  0  0  0  0  0  0  0  0  0  0
    8.2242    1.4409    0.0000 O   0  0  0  0  0  0  0  0  0  0  0  0
    6.8332   -1.1497    0.0000 O   0  0  0  0  0  0  0  0  0  0  0  0
   10.5738    4.1316    0.0000 O   0  0  0  0  0  0  0  0  0  0  0  0
    5.6019    1.4155    0.0000 O   0  0  0  0  0  0  0  0  0  0  0  0
    7.5455    2.3637    0.0000 O   0  0  0  0  0  0  0  0  0  0  0  0
    2.3100    2.7212    0.0000 O   0  0  0  0  0  0  0  0  0  0  0  0
    9.4081    0.3552    0.0000 N   0  0  0  0  0  0  0  0  0  0  0  0
   10.0562    1.6821    0.0000 N   0  0  0  0  0  0  0  0  0  0  0  0
    7.6993   -1.6498    0.0000 N   0  0  0  0  0  0  0  0  0  0  0  0
    9.4313   -0.6498    0.0000 N   0  0  0  0  0  0  0  0  0  0  0  0
    6.8100    0.8552    0.0000 N   0  0  0  0  0  0  0  0  0  0  0  0
    8.6420    3.6140    0.0000 N   0  0  0  0  0  0  0  0  0  0  0  0
    5.9440    3.3552    0.0000 N   0  0  0  0  0  0  0  0  0  0  0  0
    8.5420    0.8552    0.0000 C   0  0  3  0  0  0  0  0  0  0  0  0
    8.6349    2.3501    0.0000 C   0  0  0  0  0  0  0  0  0  0  0  0
   10.6563    1.1830    0.0000 C   0  0  0  0  0  0  0  0  0  0  0  0
   10.1150    2.5796    0.0000 C   0  0  0  0  0  0  0  0  0  0  0  0
   10.5562    0.8161    0.0000 C   0  0  3  0  0  0  0  0  0  0  0  0
   11.5280    1.0253    0.0000 C   0  0  0  0  0  0  0  0  0  0  0  0
   11.6310    2.0140    0.0000 C   0  0  0  0  0  0  0  0  0  0  0  0
    8.6993   -1.6498    0.0000 C   0  0  3  0  0  0  0  0  0  0  0  0
   10.7232    2.4191    0.0000 C   0  0  0  0  0  0  0  0  0  0  0  0
    9.4081   -0.6448    0.0000 C   0  0  0  0  0  0  0  0  0  0  0  0
    8.9776   -2.6103    0.0000 C   0  0  0  0  0  0  0  0  0  0  0  0
    8.5653   -0.1498    0.0000 C   0  0  3  0  0  0  0  0  0  0  0  0
    7.6760    0.3552    0.0000 C   0  0  0  0  0  0  0  0  0  0  0  0
   10.2973   -0.1498    0.0000 C   0  0  0  0  0  0  0  0  0  0  0  0
    8.2849   -3.3316    0.0000 C   0  0  0  0  0  0  0  0  0  0  0  0
    9.0902    1.9409    0.0000 C   0  0  0  0  0  0  0  0  0  0  0  0
    8.9073    0.7899    0.0000 C   0  0  0  0  0  0  0  0  0  0  0  0
    7.6993   -0.6498    0.0000 C   0  0  0  0  0  0  0  0  0  0  0  0
    9.3491    2.9069    0.0000 C   0  0  3  0  0  0  0  0  0  0  0  0
    9.8921    0.9635    0.0000 C   0  0  0  0  0  0  0  0  0  0  0  0
    6.8100    1.8552    0.0000 C   0  0  3  0  0  0  0  0  0  0  0  0
    8.5632   -4.2921    0.0000 C   0  0  0  0  0  0  0  0  0  0  0  0
    7.3140   -3.0924    0.0000 C   0  0  0  0  0  0  0  0  0  0  0  0
   10.3150    3.1657    0.0000 C   0  0  0  0  0  0  0  0  0  0  0  0
    6.3100    2.7212    0.0000 C   0  0  0  0  0  0  0  0  0  0  0  0
   10.7731    0.2243    0.0000 C   0  0  0  0  0  0  0  0  0  0  0  0
   10.6313    1.8445    0.0000 C   0  0  0  0  0  0  0  0  0  0  0  0
    5.9440    2.3552    0.0000 C   0  0  0  0  0  0  0  0  0  0  0  0
    7.6760    3.3552    0.0000 C   0  0  0  0  0  0  0  0  0  0  0  0
    6.8100    3.8552    0.0000 C   0  0  0  0  0  0  0  0  0  0  0  0
    5.3100    2.7212    0.0000 C   0  0  0  0  0  0  0  0  0  0  0  0
    4.8100    1.8552    0.0000 C   0  0  0  0  0  0  0  0  0  0  0  0
    4.8100    3.5872    0.0000 C   0  0  0  0  0  0  0  0  0  0  0  0
    3.8100    1.8552    0.0000 C   0  0  0  0  0  0  0  0  0  0  0  0
    3.8100    3.5872    0.0000 C   0  0  0  0  0  0  0  0  0  0  0  0
    3.3100    2.7212    0.0000 C   0  0  0  0  0  0  0  0  0  0  0  0
    8.0150    1.1817    0.0000 H   0  0  0  0  0  0  0  0  0  0  0  0
    8.5842    2.9680    0.0000 H   0  0  0  0  0  0  0  0  0  0  0  0
    8.0149    2.3439    0.0000 H   0  0  0  0  0  0  0  0  0  0  0  0
   10.9609    0.6430    0.0000 H   0  0  0  0  0  0  0  0  0  0  0  0
   11.2168    1.4481    0.0000 H   0  0  0  0  0  0  0  0  0  0  0  0
   10.9835    0.3669    0.0000 H   0  0  0  0  0  0  0  0  0  0  0  0
   10.7077    2.7615    0.0000 H   0  0  0  0  0  0  0  0  0  0  0  0
    9.9762    3.1839    0.0000 H   0  0  0  0  0  0  0  0  0  0  0  0
   11.5940    0.4088    0.0000 H   0  0  0  0  0  0  0  0  0  0  0  0
   12.1480    1.0262    0.0000 H   0  0  0  0  0  0  0  0  0  0  0  0
   12.2375    1.8853    0.0000 H   0  0  0  0  0  0  0  0  0  0  0  0
   11.8228    2.6036    0.0000 H   0  0  0  0  0  0  0  0  0  0  0  0
    8.3268   -2.1455    0.0000 H   0  0  0  0  0  0  0  0  0  0  0  0
   11.0340    2.9556    0.0000 H   0  0  0  0  0  0  0  0  0  0  0  0
   10.2224    2.7846    0.0000 H   0  0  0  0  0  0  0  0  0  0  0  0
    9.3434   -3.1109    0.0000 H   0  0  0  0  0  0  0  0  0  0  0  0
    9.5341   -2.3370    0.0000 H   0  0  0  0  0  0  0  0  0  0  0  0
    9.1479    0.0622    0.0000 H   0  0  0  0  0  0  0  0  0  0  0  0
    7.2609   -2.0882    0.0000 H   0  0  0  0  0  0  0  0  0  0  0  0
    8.8869   -3.4799    0.0000 H   0  0  0  0  0  0  0  0  0  0  0  0
    9.4313   -1.2698    0.0000 H   0  0  0  0  0  0  0  0  0  0  0  0
    8.9073    1.4099    0.0000 H   0  0  0  0  0  0  0  0  0  0  0  0
    8.2967    0.8975    0.0000 H   0  0  0  0  0  0  0  0  0  0  0  0
    9.5095    3.5057    0.0000 H   0  0  0  0  0  0  0  0  0  0  0  0
    9.5821    1.5004    0.0000 H   0  0  0  0  0  0  0  0  0  0  0  0
    6.2731    0.5452    0.0000 H   0  0  0  0  0  0  0  0  0  0  0  0
    7.4089    2.0156    0.0000 H   0  0  0  0  0  0  0  0  0  0  0  0
    7.9677   -4.4646    0.0000 H   0  0  0  0  0  0  0  0  0  0  0  0
    8.7358   -4.8876    0.0000 H   0  0  0  0  0  0  0  0  0  0  0  0
    9.1587   -4.1195    0.0000 H   0  0  0  0  0  0  0  0  0  0  0  0
    7.4623   -2.4904    0.0000 H   0  0  0  0  0  0  0  0  0  0  0  0
    6.7120   -2.9440    0.0000 H   0  0  0  0  0  0  0  0  0  0  0  0
    7.1656   -3.6944    0.0000 H   0  0  0  0  0  0  0  0  0  0  0  0
   10.3690    2.5480    0.0000 H   0  0  0  0  0  0  0  0  0  0  0  0
   10.9326    3.1116    0.0000 H   0  0  0  0  0  0  0  0  0  0  0  0
    6.8926    2.9332    0.0000 H   0  0  0  0  0  0  0  0  0  0  0  0
    6.2023    3.3318    0.0000 H   0  0  0  0  0  0  0  0  0  0  0  0
   10.3745   -0.2506    0.0000 H   0  0  0  0  0  0  0  0  0  0  0  0
   11.2480   -0.1742    0.0000 H   0  0  0  0  0  0  0  0  0  0  0  0
   11.1716    0.6993    0.0000 H   0  0  0  0  0  0  0  0  0  0  0  0
   11.1063    1.4459    0.0000 H   0  0  0  0  0  0  0  0  0  0  0  0
   11.0299    2.3194    0.0000 H   0  0  0  0  0  0  0  0  0  0  0  0
   10.1564    2.2430    0.0000 H   0  0  0  0  0  0  0  0  0  0  0  0
    8.8024    4.2129    0.0000 H   0  0  0  0  0  0  0  0  0  0  0  0
    7.2085    4.3301    0.0000 H   0  0  0  0  0  0  0  0  0  0  0  0
    6.4115    4.3301    0.0000 H   0  0  0  0  0  0  0  0  0  0  0  0
    5.4070    3.6652    0.0000 H   0  0  0  0  0  0  0  0  0  0  0  0
   11.1727    4.2921    0.0000 H   0  0  0  0  0  0  0  0  0  0  0  0
    5.1200    1.3182    0.0000 H   0  0  0  0  0  0  0  0  0  0  0  0
    5.1200    4.1241    0.0000 H   0  0  0  0  0  0  0  0  0  0  0  0
    3.5000    1.3182    0.0000 H   0  0  0  0  0  0  0  0  0  0  0  0
    3.5000    4.1241    0.0000 H   0  0  0  0  0  0  0  0  0  0  0  0
    2.0000    3.2581    0.0000 H   0  0  0  0  0  0  0  0  0  0  0  0
  1 26  2  0  0  0  0
  2 29  2  0  0  0  0
  3 30  2  0  0  0  0
  4 32  2  0  0  0  0
  5 34  2  0  0  0  0
  6 40  1  0  0  0  0
  6100  1  0  0  0  0
  7 44  2  0  0  0  0
  8 45  2  0  0  0  0
  9 52  1  0  0  0  0
  9105  1  0  0  0  0
 10 17  1  0  0  0  0
 10 19  1  0  0  0  0
 10 26  1  0  0  0  0
 11 21  1  0  0  0  0
 11 25  1  0  0  0  0
 11 32  1  0  0  0  0
 12 24  1  0  0  0  0
 12 34  1  0  0  0  0
 12 71  1  0  0  0  0
 13 28  1  0  0  0  0
 13 30  1  0  0  0  0
 13 73  1  0  0  0  0
 14 29  1  0  0  0  0
 14 37  1  0  0  0  0
 14 78  1  0  0  0  0
 15 35  1  0  0  0  0
 15 45  1  0  0  0  0
 15 96  1  0  0  0  0
 16 44  1  0  0  0  0
 16 46  1  0  0  0  0
 16 99  1  0  0  0  0
 17 18  1  0  0  0  0
 17 29  1  0  0  0  0
 17 53  1  0  0  0  0
 18 20  1  0  0  0  0
 18 54  1  0  0  0  0
 18 55  1  0  0  0  0
 19 20  1  0  0  0  0
 19 56  1  0  0  0  0
 19 57  1  0  0  0  0
 20 59  1  0  0  0  0
 20 60  1  0  0  0  0
 21 22  1  0  0  0  0
 21 30  1  0  0  0  0
 21 58  1  0  0  0  0
 22 23  1  0  0  0  0
 22 61  1  0  0  0  0
 22 62  1  0  0  0  0
 23 25  1  0  0  0  0
 23 63  1  0  0  0  0
 23 64  1  0  0  0  0
 24 26  1  0  0  0  0
 24 27  1  0  0  0  0
 24 65  1  0  0  0  0
 25 66  1  0  0  0  0
 25 67  1  0  0  0  0
 27 31  1  0  0  0  0
 27 68  1  0  0  0  0
 27 69  1  0  0  0  0
 28 33  1  0  0  0  0
 28 34  1  0  0  0  0
 28 70  1  0  0  0  0
 31 38  1  0  0  0  0
 31 39  1  0  0  0  0
 31 72  1  0  0  0  0
 32 35  1  0  0  0  0
 33 36  1  0  0  0  0
 33 74  1  0  0  0  0
 33 75  1  0  0  0  0
 35 40  1  0  0  0  0
 35 76  1  0  0  0  0
 36 42  1  0  0  0  0
 36 43  1  0  0  0  0
 36 77  1  0  0  0  0
 37 41  1  0  0  0  0
 37 44  1  0  0  0  0
 37 79  1  0  0  0  0
 38 80  1  0  0  0  0
 38 81  1  0  0  0  0
 38 82  1  0  0  0  0
 39 83  1  0  0  0  0
 39 84  1  0  0  0  0
 39 85  1  0  0  0  0
 40 86  1  0  0  0  0
 40 87  1  0  0  0  0
 41 47  1  0  0  0  0
 41 88  1  0  0  0  0
 41 89  1  0  0  0  0
 42 90  1  0  0  0  0
 42 91  1  0  0  0  0
 42 92  1  0  0  0  0
 43 93  1  0  0  0  0
 43 94  1  0  0  0  0
 43 95  1  0  0  0  0
 45 46  1  0  0  0  0
 46 97  1  0  0  0  0
 46 98  1  0  0  0  0
 47 48  2  0  0  0  0
 47 49  1  0  0  0  0
 48 50  1  0  0  0  0
 48101  1  0  0  0  0
 49 51  2  0  0  0  0
 49102  1  0  0  0  0
 50 52  2  0  0  0  0
 50103  1  0  0  0  0
 51 52  1  0  0  0  0
 51104  1  0  0  0  0
M  END
>  <PUBCHEM_COMPOUND_CID>
85632473

>  <PUBCHEM_COMPOUND_CANONICALIZED>
1

>  <PUBCHEM_CACTVS_COMPLEXITY>
1320

>  <PUBCHEM_CACTVS_HBOND_ACCEPTOR>
9

>  <PUBCHEM_CACTVS_HBOND_DONOR>
7

>  <PUBCHEM_CACTVS_ROTATABLE_BOND>
7

>  <PUBCHEM_CACTVS_SUBSKEYS>
AAADcfB/vAAAAAAAAAAAAAAAAAAAAWLAAAAwAAAAAAAAAAABAAAAHgAQCAAADSzhmAYyBoPAAgCIAiFSEAACAAAgIAAIiIGOCIgKdjaCkTOUcAAm9hGYmAeYyaCOIAAAAAAAAABAAAAAAAAAAAAAAAAAAA==

>  <PUBCHEM_IUPAC_INCHI>
InChI=1S/C36H53N7O9/c1-20(2)15-24-32(48)41-26(16-21(3)4)35(51)42-13-5-7-28(42)34(50)40-25(17-22-9-11-23(45)12-10-22)31(47)37-18-30(46)38-27(19-44)36(52)43-14-6-8-29(43)33(49)39-24/h9-12,20-21,24-29,44-45H,5-8,13-19H2,1-4H3,(H,37,47)(H,38,46)(H,39,49)(H,40,50)(H,41,48)

>  <PUBCHEM_IUPAC_INCHIKEY>
JXSBDUVWEXYABO-UHFFFAOYSA-N

>  <PUBCHEM_XLOGP3_AA>
1.8

>  <PUBCHEM_EXACT_MASS>
727.39

>  <PUBCHEM_MOLECULAR_FORMULA>
C36H53N7O9

>  <PUBCHEM_MOLECULAR_WEIGHT>
727.86

>  <PUBCHEM_OPENEYE_CAN_SMILES>
CC(C)CC1C(=O)NC(C(=O)N2CCCC2C(=O)NC(C(=O)NCC(=O)NC(C(=O)N3CCCC3C(=O)N1)CO)CC4=CC=C(C=C4)O)CC(C)C

>  <PUBCHEM_OPENEYE_ISO_SMILES>
CC(C)CC1C(=O)NC(C(=O)N2CCCC2C(=O)NC(C(=O)NCC(=O)NC(C(=O)N3CCCC3C(=O)N1)CO)CC4=CC=C(C=C4)O)CC(C)C

>  <PUBCHEM_CACTVS_TPSA>
227

>  <PUBCHEM_MONOISOTOPIC_WEIGHT>
727.39

>  <PUBCHEM_TOTAL_CHARGE>
0

>  <PUBCHEM_HEAVY_ATOM_COUNT>
52

>  <PUBCHEM_ATOM_DEF_STEREO_COUNT>
0

>  <PUBCHEM_ATOM_UDEF_STEREO_COUNT>
6

>  <PUBCHEM_BOND_DEF_STEREO_COUNT>
0

>  <PUBCHEM_BOND_UDEF_STEREO_COUNT>
0

>  <PUBCHEM_ISOTOPIC_ATOM_COUNT>
0

>  <PUBCHEM_COMPONENT_COUNT>
1

>  <PUBCHEM_CACTVS_TAUTO_COUNT>
1001

>  <PUBCHEM_COORDINATE_TYPE>
1
5
255

>  <PUBCHEM_BONDANNOTATIONS>
17  18  3
21  22  3
24  27  3
28  33  3
35  40  3
37  41  3
47  48  8
47  49  8
48  50  8
49  51  8
50  52  8
51  52  8

$$$$
