85665167
 OpenBabel06101807152D

 36 38  0  0  0  0  0  0  0  0999 V2000
    7.2785    1.7623    0.0000 O   0  0  0  0  0  0  0  0  0  0  0  0
    5.5301    1.7277    0.0000 O   0  0  0  0  0  0  0  0  0  0  0  0
    5.5301   -2.2723    0.0000 O   0  0  0  0  0  0  0  0  0  0  0  0
    9.0602   -1.2964    0.0000 O   0  0  0  0  0  0  0  0  0  0  0  0
    2.0000   -1.2964    0.0000 O   0  0  0  0  0  0  0  0  0  0  0  0
    6.3961    0.2277    0.0000 C   0  0  0  0  0  0  0  0  0  0  0  0
    4.6641    0.2277    0.0000 C   0  0  0  0  0  0  0  0  0  0  0  0
    4.6641   -0.7723    0.0000 C   0  0  0  0  0  0  0  0  0  0  0  0
    6.3961   -0.7723    0.0000 C   0  0  0  0  0  0  0  0  0  0  0  0
    5.5301    0.7277    0.0000 C   0  0  0  0  0  0  0  0  0  0  0  0
    5.5301   -1.2723    0.0000 C   0  0  0  0  0  0  0  0  0  0  0  0
    7.2901    0.7624    0.0000 C   0  0  0  0  0  0  0  0  0  0  0  0
    3.7702    0.7624    0.0000 C   0  0  0  0  0  0  0  0  0  0  0  0
    3.7702   -1.3070    0.0000 C   0  0  0  0  0  0  0  0  0  0  0  0
    2.8641    0.2485    0.0000 C   0  0  0  0  0  0  0  0  0  0  0  0
    7.2901   -1.3070    0.0000 C   0  0  0  0  0  0  0  0  0  0  0  0
    2.8641   -0.7931    0.0000 C   0  0  0  0  0  0  0  0  0  0  0  0
    8.1962   -0.7931    0.0000 C   0  0  0  0  0  0  0  0  0  0  0  0
    8.1962    0.2485    0.0000 C   0  0  0  0  0  0  0  0  0  0  0  0
    2.0000    0.7519    0.0000 C   0  0  0  0  0  0  0  0  0  0  0  0
    8.1387    2.2723    0.0000 C   0  0  0  0  0  0  0  0  0  0  0  0
    9.9282   -0.7998    0.0000 C   0  0  0  0  0  0  0  0  0  0  0  0
    3.7773    1.3823    0.0000 H   0  0  0  0  0  0  0  0  0  0  0  0
    3.7773   -1.9269    0.0000 H   0  0  0  0  0  0  0  0  0  0  0  0
    7.2829   -1.9269    0.0000 H   0  0  0  0  0  0  0  0  0  0  0  0
    8.7319    0.5606    0.0000 H   0  0  0  0  0  0  0  0  0  0  0  0
    2.3121    1.2876    0.0000 H   0  0  0  0  0  0  0  0  0  0  0  0
    1.4643    1.0639    0.0000 H   0  0  0  0  0  0  0  0  0  0  0  0
    1.6879    0.2161    0.0000 H   0  0  0  0  0  0  0  0  0  0  0  0
    2.0024   -1.9164    0.0000 H   0  0  0  0  0  0  0  0  0  0  0  0
    8.4549    1.7390    0.0000 H   0  0  0  0  0  0  0  0  0  0  0  0
    8.6720    2.5885    0.0000 H   0  0  0  0  0  0  0  0  0  0  0  0
    7.8225    2.8056    0.0000 H   0  0  0  0  0  0  0  0  0  0  0  0
   10.2361   -1.3379    0.0000 H   0  0  0  0  0  0  0  0  0  0  0  0
   10.4663   -0.4919    0.0000 H   0  0  0  0  0  0  0  0  0  0  0  0
    9.6203   -0.2617    0.0000 H   0  0  0  0  0  0  0  0  0  0  0  0
  1 12  1  0  0  0  0
  1 21  1  0  0  0  0
  2 10  2  0  0  0  0
  3 11  2  0  0  0  0
  4 18  1  0  0  0  0
  4 22  1  0  0  0  0
  5 17  1  0  0  0  0
  5 30  1  0  0  0  0
  6  9  2  0  0  0  0
  6 10  1  0  0  0  0
  6 12  1  0  0  0  0
  7  8  2  0  0  0  0
  7 10  1  0  0  0  0
  7 13  1  0  0  0  0
  8 11  1  0  0  0  0
  8 14  1  0  0  0  0
  9 11  1  0  0  0  0
  9 16  1  0  0  0  0
 12 19  2  0  0  0  0
 13 15  2  0  0  0  0
 13 23  1  0  0  0  0
 14 17  2  0  0  0  0
 14 24  1  0  0  0  0
 15 17  1  0  0  0  0
 15 20  1  0  0  0  0
 16 18  2  0  0  0  0
 16 25  1  0  0  0  0
 18 19  1  0  0  0  0
 19 26  1  0  0  0  0
 20 27  1  0  0  0  0
 20 28  1  0  0  0  0
 20 29  1  0  0  0  0
 21 31  1  0  0  0  0
 21 32  1  0  0  0  0
 21 33  1  0  0  0  0
 22 34  1  0  0  0  0
 22 35  1  0  0  0  0
 22 36  1  0  0  0  0
M  END
>  <PUBCHEM_COMPOUND_CID>
85665167

>  <PUBCHEM_COMPOUND_CANONICALIZED>
1

>  <PUBCHEM_CACTVS_COMPLEXITY>
462

>  <PUBCHEM_CACTVS_HBOND_ACCEPTOR>
5

>  <PUBCHEM_CACTVS_HBOND_DONOR>
1

>  <PUBCHEM_CACTVS_ROTATABLE_BOND>
2

>  <PUBCHEM_CACTVS_SUBSKEYS>
AAADccB4OAAAAAAAAAAAAAAAAAAAAAAAAAAwYMAAAAAAAADBQAAAGgAACAAADASAmAIyBoAABgCIAqBSAAACCAAkIAAAiAEGCMgMJzaGNRqAcWAl4BUIuYeL7PzO4AADCAAYAADAAAYQADAAAAAAAAAAAA==

>  <PUBCHEM_IUPAC_OPENEYE_NAME>
6-hydroxy-1,3-dimethoxy-7-methyl-anthracene-9,10-dione

>  <PUBCHEM_IUPAC_CAS_NAME>
6-hydroxy-1,3-dimethoxy-7-methylanthracene-9,10-dione

>  <PUBCHEM_IUPAC_NAME>
6-hydroxy-1,3-dimethoxy-7-methylanthracene-9,10-dione

>  <PUBCHEM_IUPAC_SYSTEMATIC_NAME>
1,3-dimethoxy-7-methyl-6-oxidanyl-anthracene-9,10-dione

>  <PUBCHEM_IUPAC_TRADITIONAL_NAME>
6-hydroxy-1,3-dimethoxy-7-methyl-9,10-anthraquinone

>  <PUBCHEM_IUPAC_INCHI>
InChI=1S/C17H14O5/c1-8-4-10-11(7-13(8)18)16(19)12-5-9(21-2)6-14(22-3)15(12)17(10)20/h4-7,18H,1-3H3

>  <PUBCHEM_IUPAC_INCHIKEY>
GIRIDEAJDHKWPT-UHFFFAOYSA-N

>  <PUBCHEM_XLOGP3_AA>
2.8

>  <PUBCHEM_EXACT_MASS>
298.084

>  <PUBCHEM_MOLECULAR_FORMULA>
C17H14O5

>  <PUBCHEM_MOLECULAR_WEIGHT>
298.294

>  <PUBCHEM_OPENEYE_CAN_SMILES>
CC1=C(C=C2C(=C1)C(=O)C3=C(C=C(C=C3C2=O)OC)OC)O

>  <PUBCHEM_OPENEYE_ISO_SMILES>
CC1=C(C=C2C(=C1)C(=O)C3=C(C=C(C=C3C2=O)OC)OC)O

>  <PUBCHEM_CACTVS_TPSA>
72.8

>  <PUBCHEM_MONOISOTOPIC_WEIGHT>
298.084

>  <PUBCHEM_TOTAL_CHARGE>
0

>  <PUBCHEM_HEAVY_ATOM_COUNT>
22

>  <PUBCHEM_ATOM_DEF_STEREO_COUNT>
0

>  <PUBCHEM_ATOM_UDEF_STEREO_COUNT>
0

>  <PUBCHEM_BOND_DEF_STEREO_COUNT>
0

>  <PUBCHEM_BOND_UDEF_STEREO_COUNT>
0

>  <PUBCHEM_ISOTOPIC_ATOM_COUNT>
0

>  <PUBCHEM_COMPONENT_COUNT>
1

>  <PUBCHEM_CACTVS_TAUTO_COUNT>
21

>  <PUBCHEM_COORDINATE_TYPE>
1
5
255

>  <PUBCHEM_BONDANNOTATIONS>
12  19  8
13  15  8
14  17  8
15  17  8
16  18  8
18  19  8
6  12  8
6  9  8
7  13  8
7  8  8
8  14  8
9  16  8

$$$$
