85670528
 OpenBabel06101807152D

 36 38  0  0  0  0  0  0  0  0999 V2000
    6.3981   -1.4502    0.0000 O   0  0  0  0  0  0  0  0  0  0  0  0
    8.1465    1.5844    0.0000 O   0  0  0  0  0  0  0  0  0  0  0  0
    9.9282    0.5739    0.0000 O   0  0  0  0  0  0  0  0  0  0  0  0
    6.3981    1.5498    0.0000 O   0  0  0  0  0  0  0  0  0  0  0  0
    2.8680    0.5739    0.0000 O   0  0  0  0  0  0  0  0  0  0  0  0
    9.9282   -1.4744    0.0000 O   0  0  0  0  0  0  0  0  0  0  0  0
    7.2641    0.0498    0.0000 C   0  0  0  0  0  0  0  0  0  0  0  0
    7.2641   -0.9502    0.0000 C   0  0  0  0  0  0  0  0  0  0  0  0
    5.5320    0.0498    0.0000 C   0  0  0  0  0  0  0  0  0  0  0  0
    6.3981    0.5498    0.0000 C   0  0  0  0  0  0  0  0  0  0  0  0
    5.5320   -0.9502    0.0000 C   0  0  0  0  0  0  0  0  0  0  0  0
    8.1580    0.5844    0.0000 C   0  0  0  0  0  0  0  0  0  0  0  0
    9.0641    0.0706    0.0000 C   0  0  0  0  0  0  0  0  0  0  0  0
    8.1580   -1.4849    0.0000 C   0  0  0  0  0  0  0  0  0  0  0  0
    4.6381    0.5844    0.0000 C   0  0  0  0  0  0  0  0  0  0  0  0
    9.0641   -0.9710    0.0000 C   0  0  0  0  0  0  0  0  0  0  0  0
    4.6381   -1.4849    0.0000 C   0  0  0  0  0  0  0  0  0  0  0  0
    3.7320    0.0706    0.0000 C   0  0  0  0  0  0  0  0  0  0  0  0
    3.7320   -0.9710    0.0000 C   0  0  0  0  0  0  0  0  0  0  0  0
    9.0067    2.0944    0.0000 C   0  0  0  0  0  0  0  0  0  0  0  0
   10.7961    0.0773    0.0000 C   0  0  0  0  0  0  0  0  0  0  0  0
    2.0000    0.0773    0.0000 C   0  0  0  0  0  0  0  0  0  0  0  0
    8.1509   -2.1048    0.0000 H   0  0  0  0  0  0  0  0  0  0  0  0
    4.6453    1.2044    0.0000 H   0  0  0  0  0  0  0  0  0  0  0  0
    4.6453   -2.1048    0.0000 H   0  0  0  0  0  0  0  0  0  0  0  0
    3.1963   -1.2831    0.0000 H   0  0  0  0  0  0  0  0  0  0  0  0
    9.3229    1.5610    0.0000 H   0  0  0  0  0  0  0  0  0  0  0  0
    9.5400    2.4106    0.0000 H   0  0  0  0  0  0  0  0  0  0  0  0
    8.6905    2.6277    0.0000 H   0  0  0  0  0  0  0  0  0  0  0  0
    9.9258   -2.0944    0.0000 H   0  0  0  0  0  0  0  0  0  0  0  0
   10.4882   -0.4608    0.0000 H   0  0  0  0  0  0  0  0  0  0  0  0
   11.3343   -0.2307    0.0000 H   0  0  0  0  0  0  0  0  0  0  0  0
   11.1041    0.6154    0.0000 H   0  0  0  0  0  0  0  0  0  0  0  0
    1.6921    0.6154    0.0000 H   0  0  0  0  0  0  0  0  0  0  0  0
    1.4619   -0.2307    0.0000 H   0  0  0  0  0  0  0  0  0  0  0  0
    2.3079   -0.4608    0.0000 H   0  0  0  0  0  0  0  0  0  0  0  0
  1  8  1  0  0  0  0
  1 11  1  0  0  0  0
  2 12  1  0  0  0  0
  2 20  1  0  0  0  0
  3 13  1  0  0  0  0
  3 21  1  0  0  0  0
  4 10  2  0  0  0  0
  5 18  1  0  0  0  0
  5 22  1  0  0  0  0
  6 16  1  0  0  0  0
  6 30  1  0  0  0  0
  7  8  2  0  0  0  0
  7 10  1  0  0  0  0
  7 12  1  0  0  0  0
  8 14  1  0  0  0  0
  9 10  1  0  0  0  0
  9 11  2  0  0  0  0
  9 15  1  0  0  0  0
 11 17  1  0  0  0  0
 12 13  2  0  0  0  0
 13 16  1  0  0  0  0
 14 16  2  0  0  0  0
 14 23  1  0  0  0  0
 15 18  2  0  0  0  0
 15 24  1  0  0  0  0
 17 19  2  0  0  0  0
 17 25  1  0  0  0  0
 18 19  1  0  0  0  0
 19 26  1  0  0  0  0
 20 27  1  0  0  0  0
 20 28  1  0  0  0  0
 20 29  1  0  0  0  0
 21 31  1  0  0  0  0
 21 32  1  0  0  0  0
 21 33  1  0  0  0  0
 22 34  1  0  0  0  0
 22 35  1  0  0  0  0
 22 36  1  0  0  0  0
M  END
>  <PUBCHEM_COMPOUND_CID>
85670528

>  <PUBCHEM_COMPOUND_CANONICALIZED>
1

>  <PUBCHEM_CACTVS_COMPLEXITY>
413

>  <PUBCHEM_CACTVS_HBOND_ACCEPTOR>
6

>  <PUBCHEM_CACTVS_HBOND_DONOR>
1

>  <PUBCHEM_CACTVS_ROTATABLE_BOND>
3

>  <PUBCHEM_CACTVS_SUBSKEYS>
AAADccB4OAAAAAAAAAAAAAAAAAAAAAAAAAA0YIAAAAAAAACRQAAAGgAACAAADASAmAIyBoAABgCIAqBSAAACCAAkIAAIiAEGiMgNJzaGNRqCeWOl4BULuYfK7PzOIQABCAAIQABCAAIQABCAAAAAAAAAAA==

>  <PUBCHEM_IUPAC_OPENEYE_NAME>
3-hydroxy-1,2,7-trimethoxy-xanthen-9-one

>  <PUBCHEM_IUPAC_CAS_NAME>
3-hydroxy-1,2,7-trimethoxy-9-xanthenone

>  <PUBCHEM_IUPAC_NAME>
3-hydroxy-1,2,7-trimethoxyxanthen-9-one

>  <PUBCHEM_IUPAC_SYSTEMATIC_NAME>
1,2,7-trimethoxy-3-oxidanyl-xanthen-9-one

>  <PUBCHEM_IUPAC_TRADITIONAL_NAME>
3-hydroxy-1,2,7-trimethoxy-xanthone

>  <PUBCHEM_IUPAC_INCHI>
InChI=1S/C16H14O6/c1-19-8-4-5-11-9(6-8)14(18)13-12(22-11)7-10(17)15(20-2)16(13)21-3/h4-7,17H,1-3H3

>  <PUBCHEM_IUPAC_INCHIKEY>
OFDFRKMEYPDRSD-UHFFFAOYSA-N

>  <PUBCHEM_XLOGP3_AA>
2.5

>  <PUBCHEM_EXACT_MASS>
302.079

>  <PUBCHEM_MOLECULAR_FORMULA>
C16H14O6

>  <PUBCHEM_MOLECULAR_WEIGHT>
302.282

>  <PUBCHEM_OPENEYE_CAN_SMILES>
COC1=CC2=C(C=C1)OC3=CC(=C(C(=C3C2=O)OC)OC)O

>  <PUBCHEM_OPENEYE_ISO_SMILES>
COC1=CC2=C(C=C1)OC3=CC(=C(C(=C3C2=O)OC)OC)O

>  <PUBCHEM_CACTVS_TPSA>
74.2

>  <PUBCHEM_MONOISOTOPIC_WEIGHT>
302.079

>  <PUBCHEM_TOTAL_CHARGE>
0

>  <PUBCHEM_HEAVY_ATOM_COUNT>
22

>  <PUBCHEM_ATOM_DEF_STEREO_COUNT>
0

>  <PUBCHEM_ATOM_UDEF_STEREO_COUNT>
0

>  <PUBCHEM_BOND_DEF_STEREO_COUNT>
0

>  <PUBCHEM_BOND_UDEF_STEREO_COUNT>
0

>  <PUBCHEM_ISOTOPIC_ATOM_COUNT>
0

>  <PUBCHEM_COMPONENT_COUNT>
1

>  <PUBCHEM_CACTVS_TAUTO_COUNT>
5

>  <PUBCHEM_COORDINATE_TYPE>
1
5
255

>  <PUBCHEM_BONDANNOTATIONS>
1  11  8
1  8  8
11  17  8
12  13  8
13  16  8
14  16  8
15  18  8
17  19  8
18  19  8
7  10  8
7  12  8
7  8  8
8  14  8
9  10  8
9  11  8
9  15  8

$$$$
