85670360
 OpenBabel06101807152D

 39 41  0  0  0  0  0  0  0  0999 V2000
    4.6497    1.4710    0.0000 O   0  0  0  0  0  0  0  0  0  0  0  0
    2.8680    0.4605    0.0000 O   0  0  0  0  0  0  0  0  0  0  0  0
    2.8680   -1.5878    0.0000 O   0  0  0  0  0  0  0  0  0  0  0  0
    5.5103    1.9678    0.0000 O   0  0  0  0  0  0  0  0  0  0  0  0
    6.3981   -1.5636    0.0000 C   0  0  0  0  0  0  0  0  0  0  0  0
    7.2641   -1.0636    0.0000 C   0  0  0  0  0  0  0  0  0  0  0  0
    5.5320   -1.0636    0.0000 C   0  0  0  0  0  0  0  0  0  0  0  0
    5.5320   -0.0636    0.0000 C   0  0  0  0  0  0  0  0  0  0  0  0
    7.2641   -0.0636    0.0000 C   0  0  0  0  0  0  0  0  0  0  0  0
    6.3981    0.4364    0.0000 C   0  0  0  0  0  0  0  0  0  0  0  0
    4.6381    0.4710    0.0000 C   0  0  0  0  0  0  0  0  0  0  0  0
    4.6381   -1.5983    0.0000 C   0  0  0  0  0  0  0  0  0  0  0  0
    6.3820    1.4779    0.0000 C   0  0  0  0  0  0  0  0  0  0  0  0
    8.1741    0.4432    0.0000 C   0  0  0  0  0  0  0  0  0  0  0  0
    3.7320   -0.0428    0.0000 C   0  0  0  0  0  0  0  0  0  0  0  0
    3.7320   -1.0844    0.0000 C   0  0  0  0  0  0  0  0  0  0  0  0
    7.2800    2.0056    0.0000 C   0  0  0  0  0  0  0  0  0  0  0  0
    8.1821    1.4848    0.0000 C   0  0  0  0  0  0  0  0  0  0  0  0
    3.7895    1.9809    0.0000 C   0  0  0  0  0  0  0  0  0  0  0  0
    2.0000   -0.0361    0.0000 C   0  0  0  0  0  0  0  0  0  0  0  0
    2.8718   -2.5878    0.0000 C   0  0  0  0  0  0  0  0  0  0  0  0
    5.9995   -2.0386    0.0000 H   0  0  0  0  0  0  0  0  0  0  0  0
    6.7966   -2.0386    0.0000 H   0  0  0  0  0  0  0  0  0  0  0  0
    7.4762   -1.6462    0.0000 H   0  0  0  0  0  0  0  0  0  0  0  0
    7.8747   -0.9560    0.0000 H   0  0  0  0  0  0  0  0  0  0  0  0
    4.6453   -2.2183    0.0000 H   0  0  0  0  0  0  0  0  0  0  0  0
    8.7074    0.1270    0.0000 H   0  0  0  0  0  0  0  0  0  0  0  0
    7.2777    2.6256    0.0000 H   0  0  0  0  0  0  0  0  0  0  0  0
    8.7203    1.7927    0.0000 H   0  0  0  0  0  0  0  0  0  0  0  0
    5.5031    2.5878    0.0000 H   0  0  0  0  0  0  0  0  0  0  0  0
    4.1057    2.5142    0.0000 H   0  0  0  0  0  0  0  0  0  0  0  0
    3.2562    2.2971    0.0000 H   0  0  0  0  0  0  0  0  0  0  0  0
    3.4733    1.4476    0.0000 H   0  0  0  0  0  0  0  0  0  0  0  0
    1.6921    0.5020    0.0000 H   0  0  0  0  0  0  0  0  0  0  0  0
    1.4619   -0.3441    0.0000 H   0  0  0  0  0  0  0  0  0  0  0  0
    2.3079   -0.5743    0.0000 H   0  0  0  0  0  0  0  0  0  0  0  0
    2.2518   -2.5902    0.0000 H   0  0  0  0  0  0  0  0  0  0  0  0
    2.8742   -3.2078    0.0000 H   0  0  0  0  0  0  0  0  0  0  0  0
    3.4918   -2.5854    0.0000 H   0  0  0  0  0  0  0  0  0  0  0  0
  1 11  1  0  0  0  0
  1 19  1  0  0  0  0
  2 15  1  0  0  0  0
  2 20  1  0  0  0  0
  3 16  1  0  0  0  0
  3 21  1  0  0  0  0
  4 13  1  0  0  0  0
  4 30  1  0  0  0  0
  5  6  1  0  0  0  0
  5  7  1  0  0  0  0
  5 22  1  0  0  0  0
  5 23  1  0  0  0  0
  6  9  1  0  0  0  0
  6 24  1  0  0  0  0
  6 25  1  0  0  0  0
  7  8  1  0  0  0  0
  7 12  2  0  0  0  0
  8 10  1  0  0  0  0
  8 11  2  0  0  0  0
  9 10  2  0  0  0  0
  9 14  1  0  0  0  0
 10 13  1  0  0  0  0
 11 15  1  0  0  0  0
 12 16  1  0  0  0  0
 12 26  1  0  0  0  0
 13 17  2  0  0  0  0
 14 18  2  0  0  0  0
 14 27  1  0  0  0  0
 15 16  2  0  0  0  0
 17 18  1  0  0  0  0
 17 28  1  0  0  0  0
 18 29  1  0  0  0  0
 19 31  1  0  0  0  0
 19 32  1  0  0  0  0
 19 33  1  0  0  0  0
 20 34  1  0  0  0  0
 20 35  1  0  0  0  0
 20 36  1  0  0  0  0
 21 37  1  0  0  0  0
 21 38  1  0  0  0  0
 21 39  1  0  0  0  0
M  END
>  <PUBCHEM_COMPOUND_CID>
85670360

>  <PUBCHEM_COMPOUND_CANONICALIZED>
1

>  <PUBCHEM_CACTVS_COMPLEXITY>
348

>  <PUBCHEM_CACTVS_HBOND_ACCEPTOR>
4

>  <PUBCHEM_CACTVS_HBOND_DONOR>
1

>  <PUBCHEM_CACTVS_ROTATABLE_BOND>
3

>  <PUBCHEM_CACTVS_SUBSKEYS>
AAADceB4OAAAAAAAAAAAAAAAAAAAAAAAAAAwYMAAAAAAAADBQAAAGgAACAAADASAmAIyBoAABgCAAiBCAAACCAAgIAAIiAAGiIgNJyKGMRqAcCIlwBUKuAfA4PwOoAABCAAYQADAAAYQADCAAAAAAAAAAA==

>  <PUBCHEM_IUPAC_OPENEYE_NAME>
5,6,7-trimethoxy-9,10-dihydrophenanthren-4-ol

>  <PUBCHEM_IUPAC_CAS_NAME>
5,6,7-trimethoxy-9,10-dihydrophenanthren-4-ol

>  <PUBCHEM_IUPAC_NAME>
5,6,7-trimethoxy-9,10-dihydrophenanthren-4-ol

>  <PUBCHEM_IUPAC_SYSTEMATIC_NAME>
5,6,7-trimethoxy-9,10-dihydrophenanthren-4-ol

>  <PUBCHEM_IUPAC_TRADITIONAL_NAME>
5,6,7-trimethoxy-9,10-dihydrophenanthren-4-ol

>  <PUBCHEM_IUPAC_INCHI>
InChI=1S/C17H18O4/c1-19-13-9-11-8-7-10-5-4-6-12(18)14(10)15(11)17(21-3)16(13)20-2/h4-6,9,18H,7-8H2,1-3H3

>  <PUBCHEM_IUPAC_INCHIKEY>
YMNWSVJXCUFPQB-UHFFFAOYSA-N

>  <PUBCHEM_XLOGP3_AA>
3.4

>  <PUBCHEM_EXACT_MASS>
286.121

>  <PUBCHEM_MOLECULAR_FORMULA>
C17H18O4

>  <PUBCHEM_MOLECULAR_WEIGHT>
286.327

>  <PUBCHEM_OPENEYE_CAN_SMILES>
COC1=C(C(=C2C(=C1)CCC3=C2C(=CC=C3)O)OC)OC

>  <PUBCHEM_OPENEYE_ISO_SMILES>
COC1=C(C(=C2C(=C1)CCC3=C2C(=CC=C3)O)OC)OC

>  <PUBCHEM_CACTVS_TPSA>
47.9

>  <PUBCHEM_MONOISOTOPIC_WEIGHT>
286.121

>  <PUBCHEM_TOTAL_CHARGE>
0

>  <PUBCHEM_HEAVY_ATOM_COUNT>
21

>  <PUBCHEM_ATOM_DEF_STEREO_COUNT>
0

>  <PUBCHEM_ATOM_UDEF_STEREO_COUNT>
0

>  <PUBCHEM_BOND_DEF_STEREO_COUNT>
0

>  <PUBCHEM_BOND_UDEF_STEREO_COUNT>
0

>  <PUBCHEM_ISOTOPIC_ATOM_COUNT>
0

>  <PUBCHEM_COMPONENT_COUNT>
1

>  <PUBCHEM_CACTVS_TAUTO_COUNT>
9

>  <PUBCHEM_COORDINATE_TYPE>
1
5
255

>  <PUBCHEM_BONDANNOTATIONS>
10  13  8
11  15  8
12  16  8
13  17  8
14  18  8
15  16  8
17  18  8
7  12  8
7  8  8
8  11  8
9  10  8
9  14  8

$$$$
