85859469
 OpenBabel06101807152D

 35 38  0  0  0  0  0  0  0  0999 V2000
    2.9180    1.1278    0.0000 O   0  0  0  0  0  0  0  0  0  0  0  0
    5.5161   -0.3722    0.0000 O   0  0  0  0  0  0  0  0  0  0  0  0
    5.6405   -3.5092    0.0000 O   0  0  0  0  0  0  0  0  0  0  0  0
    6.4203    1.1246    0.0000 O   0  0  0  0  0  0  0  0  0  0  0  0
    4.6622    4.1970    0.0000 O   0  0  0  0  0  0  0  0  0  0  0  0
    3.7841   -0.3722    0.0000 C   0  0  0  0  0  0  0  0  0  0  0  0
    3.8001   -1.4137    0.0000 C   0  0  0  0  0  0  0  0  0  0  0  0
    2.9180    0.1278    0.0000 C   0  0  0  0  0  0  0  0  0  0  0  0
    2.9021   -1.9415    0.0000 C   0  0  0  0  0  0  0  0  0  0  0  0
    4.6501    1.1278    0.0000 C   0  0  0  0  0  0  0  0  0  0  0  0
    4.6501    0.1278    0.0000 C   0  0  0  0  0  0  0  0  0  0  0  0
    3.7841    1.6278    0.0000 C   0  0  0  0  0  0  0  0  0  0  0  0
    2.0080   -0.3791    0.0000 C   0  0  0  0  0  0  0  0  0  0  0  0
    2.0000   -1.4207    0.0000 C   0  0  0  0  0  0  0  0  0  0  0  0
    4.7520   -1.9344    0.0000 C   0  0  0  0  0  0  0  0  0  0  0  0
    2.8937   -3.0264    0.0000 C   0  0  0  0  0  0  0  0  0  0  0  0
    5.5601    1.6346    0.0000 C   0  0  0  0  0  0  0  0  0  0  0  0
    4.7688   -3.0192    0.0000 C   0  0  0  0  0  0  0  0  0  0  0  0
    3.7680    2.6693    0.0000 C   0  0  0  0  0  0  0  0  0  0  0  0
    3.8334   -3.5689    0.0000 C   0  0  0  0  0  0  0  0  0  0  0  0
    5.5681    2.6762    0.0000 C   0  0  0  0  0  0  0  0  0  0  0  0
    4.6660    3.1970    0.0000 C   0  0  0  0  0  0  0  0  0  0  0  0
    5.6521   -4.5091    0.0000 C   0  0  0  0  0  0  0  0  0  0  0  0
    1.4747   -0.0629    0.0000 H   0  0  0  0  0  0  0  0  0  0  0  0
    1.4619   -1.7286    0.0000 H   0  0  0  0  0  0  0  0  0  0  0  0
    5.2829   -1.6141    0.0000 H   0  0  0  0  0  0  0  0  0  0  0  0
    2.3556   -3.3344    0.0000 H   0  0  0  0  0  0  0  0  0  0  0  0
    3.2275    2.9731    0.0000 H   0  0  0  0  0  0  0  0  0  0  0  0
    3.8357   -4.1889    0.0000 H   0  0  0  0  0  0  0  0  0  0  0  0
    6.1062    2.9842    0.0000 H   0  0  0  0  0  0  0  0  0  0  0  0
    6.9608    1.4284    0.0000 H   0  0  0  0  0  0  0  0  0  0  0  0
    5.1979    4.5091    0.0000 H   0  0  0  0  0  0  0  0  0  0  0  0
    5.0321   -4.5163    0.0000 H   0  0  0  0  0  0  0  0  0  0  0  0
    5.6592   -5.1291    0.0000 H   0  0  0  0  0  0  0  0  0  0  0  0
    6.2720   -4.5019    0.0000 H   0  0  0  0  0  0  0  0  0  0  0  0
  1  8  1  0  0  0  0
  1 12  1  0  0  0  0
  2 11  2  0  0  0  0
  3 18  1  0  0  0  0
  3 23  1  0  0  0  0
  4 17  1  0  0  0  0
  4 31  1  0  0  0  0
  5 22  1  0  0  0  0
  5 32  1  0  0  0  0
  6  7  1  0  0  0  0
  6  8  2  0  0  0  0
  6 11  1  0  0  0  0
  7  9  2  0  0  0  0
  7 15  1  0  0  0  0
  8 13  1  0  0  0  0
  9 14  1  0  0  0  0
  9 16  1  0  0  0  0
 10 11  1  0  0  0  0
 10 12  1  0  0  0  0
 10 17  2  0  0  0  0
 12 19  2  0  0  0  0
 13 14  2  0  0  0  0
 13 24  1  0  0  0  0
 14 25  1  0  0  0  0
 15 18  2  0  0  0  0
 15 26  1  0  0  0  0
 16 20  2  0  0  0  0
 16 27  1  0  0  0  0
 17 21  1  0  0  0  0
 18 20  1  0  0  0  0
 19 22  1  0  0  0  0
 19 28  1  0  0  0  0
 20 29  1  0  0  0  0
 21 22  2  0  0  0  0
 21 30  1  0  0  0  0
 23 33  1  0  0  0  0
 23 34  1  0  0  0  0
 23 35  1  0  0  0  0
M  END
>  <PUBCHEM_COMPOUND_CID>
85859469

>  <PUBCHEM_COMPOUND_CANONICALIZED>
1

>  <PUBCHEM_CACTVS_COMPLEXITY>
466

>  <PUBCHEM_CACTVS_HBOND_ACCEPTOR>
5

>  <PUBCHEM_CACTVS_HBOND_DONOR>
2

>  <PUBCHEM_CACTVS_ROTATABLE_BOND>
1

>  <PUBCHEM_CACTVS_SUBSKEYS>
AAADccB4OAAAAAAAAAAAAAAAAAAAAAAAAAA0YMEAAAAAAADRVAAAGgAACAAADASAmAIyBsAABgCIAqBSAAACCAAkIAAIiAEGCMgMJzaGNRqCeWCl4BUIuQeI7PzOoAADCAAYAABAAAYQADAAAAAAAAAAAA==

>  <PUBCHEM_IUPAC_OPENEYE_NAME>
9,11-dihydroxy-2-methoxy-benzo[a]xanthen-12-one

>  <PUBCHEM_IUPAC_CAS_NAME>
9,11-dihydroxy-2-methoxy-12-benzo[a]xanthenone

>  <PUBCHEM_IUPAC_NAME>
9,11-dihydroxy-2-methoxybenzo[a]xanthen-12-one

>  <PUBCHEM_IUPAC_SYSTEMATIC_NAME>
2-methoxy-9,11-bis(oxidanyl)benzo[a]xanthen-12-one

>  <PUBCHEM_IUPAC_TRADITIONAL_NAME>
9,11-dihydroxy-2-methoxy-benzo[a]xanthen-12-one

>  <PUBCHEM_IUPAC_INCHI>
InChI=1S/C18H12O5/c1-22-11-4-2-9-3-5-14-16(12(9)8-11)18(21)17-13(20)6-10(19)7-15(17)23-14/h2-8,19-20H,1H3

>  <PUBCHEM_IUPAC_INCHIKEY>
ZFAGJQRGJIBDCJ-UHFFFAOYSA-N

>  <PUBCHEM_XLOGP3_AA>
4

>  <PUBCHEM_EXACT_MASS>
308.068

>  <PUBCHEM_MOLECULAR_FORMULA>
C18H12O5

>  <PUBCHEM_MOLECULAR_WEIGHT>
308.289

>  <PUBCHEM_OPENEYE_CAN_SMILES>
COC1=CC2=C(C=C1)C=CC3=C2C(=O)C4=C(C=C(C=C4O3)O)O

>  <PUBCHEM_OPENEYE_ISO_SMILES>
COC1=CC2=C(C=C1)C=CC3=C2C(=O)C4=C(C=C(C=C4O3)O)O

>  <PUBCHEM_CACTVS_TPSA>
76

>  <PUBCHEM_MONOISOTOPIC_WEIGHT>
308.068

>  <PUBCHEM_TOTAL_CHARGE>
0

>  <PUBCHEM_HEAVY_ATOM_COUNT>
23

>  <PUBCHEM_ATOM_DEF_STEREO_COUNT>
0

>  <PUBCHEM_ATOM_UDEF_STEREO_COUNT>
0

>  <PUBCHEM_BOND_DEF_STEREO_COUNT>
0

>  <PUBCHEM_BOND_UDEF_STEREO_COUNT>
0

>  <PUBCHEM_ISOTOPIC_ATOM_COUNT>
0

>  <PUBCHEM_COMPONENT_COUNT>
1

>  <PUBCHEM_CACTVS_TAUTO_COUNT>
12

>  <PUBCHEM_COORDINATE_TYPE>
1
5
255

>  <PUBCHEM_BONDANNOTATIONS>
1  12  8
1  8  8
10  11  8
10  12  8
10  17  8
12  19  8
13  14  8
15  18  8
16  20  8
17  21  8
18  20  8
19  22  8
21  22  8
6  11  8
6  7  8
6  8  8
7  15  8
7  9  8
8  13  8
9  14  8
9  16  8

$$$$
