86003227
 OpenBabel06101807152D

 29 29  0  0  0  0  0  0  0  0999 V2000
    4.9190   -1.1265    0.0000 O   0  0  0  0  0  0  0  0  0  0  0  0
    5.4190    0.4123    0.0000 N   0  0  0  0  0  0  0  0  0  0  0  0
    3.1590   -0.8477    0.0000 C   0  0  0  0  0  0  0  0  0  0  0  0
    4.1100   -0.5387    0.0000 C   0  0  0  0  0  0  0  0  0  0  0  0
    4.4190    0.4123    0.0000 C   0  0  0  0  0  0  0  0  0  0  0  0
    2.9511   -1.8259    0.0000 C   0  0  0  0  0  0  0  0  0  0  0  0
    3.8313    1.2214    0.0000 C   0  0  0  0  0  0  0  0  0  0  0  0
    5.7281   -0.5387    0.0000 C   0  0  0  0  0  0  0  0  0  0  0  0
    6.6791   -0.8477    0.0000 C   0  0  0  0  0  0  0  0  0  0  0  0
    2.0000   -2.1349    0.0000 C   0  0  0  0  0  0  0  0  0  0  0  0
    4.2380    2.1349    0.0000 C   0  0  0  0  0  0  0  0  0  0  0  0
    7.4223   -0.1786    0.0000 C   0  0  0  0  0  0  0  0  0  0  0  0
    3.0727   -0.2338    0.0000 H   0  0  0  0  0  0  0  0  0  0  0  0
    2.5394   -0.8261    0.0000 H   0  0  0  0  0  0  0  0  0  0  0  0
    3.0373   -2.4398    0.0000 H   0  0  0  0  0  0  0  0  0  0  0  0
    3.5707   -1.8475    0.0000 H   0  0  0  0  0  0  0  0  0  0  0  0
    3.3172    1.5680    0.0000 H   0  0  0  0  0  0  0  0  0  0  0  0
    3.4006    0.7754    0.0000 H   0  0  0  0  0  0  0  0  0  0  0  0
    6.3880   -1.3952    0.0000 H   0  0  0  0  0  0  0  0  0  0  0  0
    7.1677   -1.2294    0.0000 H   0  0  0  0  0  0  0  0  0  0  0  0
    1.8084   -1.5452    0.0000 H   0  0  0  0  0  0  0  0  0  0  0  0
    1.4103   -2.3265    0.0000 H   0  0  0  0  0  0  0  0  0  0  0  0
    2.1916   -2.7246    0.0000 H   0  0  0  0  0  0  0  0  0  0  0  0
    4.8044    1.8827    0.0000 H   0  0  0  0  0  0  0  0  0  0  0  0
    4.4902    2.7013    0.0000 H   0  0  0  0  0  0  0  0  0  0  0  0
    3.6716    2.3871    0.0000 H   0  0  0  0  0  0  0  0  0  0  0  0
    7.8371   -0.6394    0.0000 H   0  0  0  0  0  0  0  0  0  0  0  0
    7.8830    0.2363    0.0000 H   0  0  0  0  0  0  0  0  0  0  0  0
    7.0074    0.2821    0.0000 H   0  0  0  0  0  0  0  0  0  0  0  0
  1  4  1  0  0  0  0
  1  8  1  0  0  0  0
  2  5  1  0  0  0  0
  2  8  2  0  0  0  0
  3  4  1  0  0  0  0
  3  6  1  0  0  0  0
  3 13  1  0  0  0  0
  3 14  1  0  0  0  0
  4  5  2  0  0  0  0
  5  7  1  0  0  0  0
  6 10  1  0  0  0  0
  6 15  1  0  0  0  0
  6 16  1  0  0  0  0
  7 11  1  0  0  0  0
  7 17  1  0  0  0  0
  7 18  1  0  0  0  0
  8  9  1  0  0  0  0
  9 12  1  0  0  0  0
  9 19  1  0  0  0  0
  9 20  1  0  0  0  0
 10 21  1  0  0  0  0
 10 22  1  0  0  0  0
 10 23  1  0  0  0  0
 11 24  1  0  0  0  0
 11 25  1  0  0  0  0
 11 26  1  0  0  0  0
 12 27  1  0  0  0  0
 12 28  1  0  0  0  0
 12 29  1  0  0  0  0
M  END
>  <PUBCHEM_COMPOUND_CID>
86003227

>  <PUBCHEM_COMPOUND_CANONICALIZED>
1

>  <PUBCHEM_CACTVS_COMPLEXITY>
127

>  <PUBCHEM_CACTVS_HBOND_ACCEPTOR>
2

>  <PUBCHEM_CACTVS_HBOND_DONOR>
0

>  <PUBCHEM_CACTVS_ROTATABLE_BOND>
4

>  <PUBCHEM_CACTVS_SUBSKEYS>
AAADceByIAAAAAAAAAAAAAAAAAAAAWAAAAAAAAAAAAAAAAABgAAAHgAAAAAACAyBlgAChBIIFECoAYVwVAQAiCArYCAAGAG1QAgGIBJEkCKPCCCkhADYSAMQgAAAAAAAAAAAAAAAAAAAAAAAAAAAAAAAAA==

>  <PUBCHEM_IUPAC_OPENEYE_NAME>
2,4-diethyl-5-propyl-oxazole

>  <PUBCHEM_IUPAC_CAS_NAME>
2,4-diethyl-5-propyloxazole

>  <PUBCHEM_IUPAC_NAME>
2,4-diethyl-5-propyl-1,3-oxazole

>  <PUBCHEM_IUPAC_SYSTEMATIC_NAME>
2,4-diethyl-5-propyl-1,3-oxazole

>  <PUBCHEM_IUPAC_TRADITIONAL_NAME>
2,4-diethyl-5-propyl-oxazole

>  <PUBCHEM_IUPAC_INCHI>
InChI=1S/C10H17NO/c1-4-7-9-8(5-2)11-10(6-3)12-9/h4-7H2,1-3H3

>  <PUBCHEM_IUPAC_INCHIKEY>
NEZWJGLSYGBROR-UHFFFAOYSA-N

>  <PUBCHEM_XLOGP3_AA>
3.2

>  <PUBCHEM_EXACT_MASS>
167.131

>  <PUBCHEM_MOLECULAR_FORMULA>
C10H17NO

>  <PUBCHEM_MOLECULAR_WEIGHT>
167.252

>  <PUBCHEM_OPENEYE_CAN_SMILES>
CCCC1=C(N=C(O1)CC)CC

>  <PUBCHEM_OPENEYE_ISO_SMILES>
CCCC1=C(N=C(O1)CC)CC

>  <PUBCHEM_CACTVS_TPSA>
26

>  <PUBCHEM_MONOISOTOPIC_WEIGHT>
167.131

>  <PUBCHEM_TOTAL_CHARGE>
0

>  <PUBCHEM_HEAVY_ATOM_COUNT>
12

>  <PUBCHEM_ATOM_DEF_STEREO_COUNT>
0

>  <PUBCHEM_ATOM_UDEF_STEREO_COUNT>
0

>  <PUBCHEM_BOND_DEF_STEREO_COUNT>
0

>  <PUBCHEM_BOND_UDEF_STEREO_COUNT>
0

>  <PUBCHEM_ISOTOPIC_ATOM_COUNT>
0

>  <PUBCHEM_COMPONENT_COUNT>
1

>  <PUBCHEM_CACTVS_TAUTO_COUNT>
2

>  <PUBCHEM_COORDINATE_TYPE>
1
5
255

>  <PUBCHEM_BONDANNOTATIONS>
1  4  8
1  8  8
2  5  8
2  8  8
4  5  8

$$$$
