86014459
 OpenBabel06101807152D

 26 29  0  0  0  0  0  0  0  0999 V2000
    2.5321   -0.3844    0.0000 O   0  0  0  0  0  0  0  0  0  0  0  0
    7.6402   -0.1519    0.0000 O   0  0  0  0  0  0  0  0  0  0  0  0
    5.8800   -0.3401    0.0000 N   0  0  0  0  0  0  0  0  0  0  0  0
    4.2603   -2.4110    0.0000 N   0  0  0  0  0  0  0  0  0  0  0  0
    5.0710   -0.9279    0.0000 C   0  0  0  0  0  0  0  0  0  0  0  0
    4.2620   -0.3401    0.0000 C   0  0  0  0  0  0  0  0  0  0  0  0
    4.5710    0.6110    0.0000 C   0  0  0  0  0  0  0  0  0  0  0  0
    5.5710    0.6110    0.0000 C   0  0  0  0  0  0  0  0  0  0  0  0
    5.1639   -1.9653    0.0000 C   0  0  0  0  0  0  0  0  0  0  0  0
    3.4057   -0.8710    0.0000 C   0  0  0  0  0  0  0  0  0  0  0  0
    6.8380   -0.7490    0.0000 C   0  0  0  0  0  0  0  0  0  0  0  0
    4.0364    1.5049    0.0000 C   0  0  0  0  0  0  0  0  0  0  0  0
    6.1057    1.5049    0.0000 C   0  0  0  0  0  0  0  0  0  0  0  0
    6.1122   -2.3963    0.0000 C   0  0  0  0  0  0  0  0  0  0  0  0
    6.9549   -1.7841    0.0000 C   0  0  0  0  0  0  0  0  0  0  0  0
    3.4049   -1.8786    0.0000 C   0  0  0  0  0  0  0  0  0  0  0  0
    4.5502    2.4110    0.0000 C   0  0  0  0  0  0  0  0  0  0  0  0
    5.5918    2.4110    0.0000 C   0  0  0  0  0  0  0  0  0  0  0  0
    3.4164    1.4978    0.0000 H   0  0  0  0  0  0  0  0  0  0  0  0
    6.7256    1.4978    0.0000 H   0  0  0  0  0  0  0  0  0  0  0  0
    6.1746   -3.0132    0.0000 H   0  0  0  0  0  0  0  0  0  0  0  0
    7.5223   -2.0341    0.0000 H   0  0  0  0  0  0  0  0  0  0  0  0
    2.8628   -2.1794    0.0000 H   0  0  0  0  0  0  0  0  0  0  0  0
    4.2381    2.9467    0.0000 H   0  0  0  0  0  0  0  0  0  0  0  0
    5.9039    2.9467    0.0000 H   0  0  0  0  0  0  0  0  0  0  0  0
    2.0000   -0.7026    0.0000 H   0  0  0  0  0  0  0  0  0  0  0  0
  1 10  1  0  0  0  0
  1 26  1  0  0  0  0
  2 11  2  0  0  0  0
  3  5  1  0  0  0  0
  3  8  1  0  0  0  0
  3 11  1  0  0  0  0
  4  9  2  0  0  0  0
  4 16  1  0  0  0  0
  5  6  2  0  0  0  0
  5  9  1  0  0  0  0
  6  7  1  0  0  0  0
  6 10  1  0  0  0  0
  7  8  1  0  0  0  0
  7 12  2  0  0  0  0
  8 13  2  0  0  0  0
  9 14  1  0  0  0  0
 10 16  2  0  0  0  0
 11 15  1  0  0  0  0
 12 17  1  0  0  0  0
 12 19  1  0  0  0  0
 13 18  1  0  0  0  0
 13 20  1  0  0  0  0
 14 15  2  0  0  0  0
 14 21  1  0  0  0  0
 15 22  1  0  0  0  0
 16 23  1  0  0  0  0
 17 18  2  0  0  0  0
 17 24  1  0  0  0  0
 18 25  1  0  0  0  0
M  END
>  <PUBCHEM_COMPOUND_CID>
86014459

>  <PUBCHEM_COMPOUND_CANONICALIZED>
1

>  <PUBCHEM_CACTVS_COMPLEXITY>
409

>  <PUBCHEM_CACTVS_HBOND_ACCEPTOR>
3

>  <PUBCHEM_CACTVS_HBOND_DONOR>
1

>  <PUBCHEM_CACTVS_ROTATABLE_BOND>
0

>  <PUBCHEM_CACTVS_SUBSKEYS>
AAADccBzMAAAAAAAAAAAAAAAAAAAAWAAAAA8QIAAAAAAAFiB/gAAHgAACAAADAzBngQ8xvMMEgCoAzV3VASCgCQxciAI2CA/fNgKZuLSkZOUcAhmxBnY2YewwOAOgAAAAAACAAAAAAAAAAQAAAAAAAAAAA==

>  <PUBCHEM_IUPAC_INCHI>
InChI=1S/C14H8N2O2/c17-11-7-15-9-5-6-12(18)16-10-4-2-1-3-8(10)13(11)14(9)16/h1-7,17H

>  <PUBCHEM_IUPAC_INCHIKEY>
LWYFITNQEPSUDK-UHFFFAOYSA-N

>  <PUBCHEM_XLOGP3_AA>
2.1

>  <PUBCHEM_EXACT_MASS>
236.059

>  <PUBCHEM_MOLECULAR_FORMULA>
C14H8N2O2

>  <PUBCHEM_MOLECULAR_WEIGHT>
236.23

>  <PUBCHEM_OPENEYE_CAN_SMILES>
C1=CC=C2C(=C1)C3=C4N2C(=O)C=CC4=NC=C3O

>  <PUBCHEM_OPENEYE_ISO_SMILES>
C1=CC=C2C(=C1)C3=C4N2C(=O)C=CC4=NC=C3O

>  <PUBCHEM_CACTVS_TPSA>
55.1

>  <PUBCHEM_MONOISOTOPIC_WEIGHT>
236.059

>  <PUBCHEM_TOTAL_CHARGE>
0

>  <PUBCHEM_HEAVY_ATOM_COUNT>
18

>  <PUBCHEM_ATOM_DEF_STEREO_COUNT>
0

>  <PUBCHEM_ATOM_UDEF_STEREO_COUNT>
0

>  <PUBCHEM_BOND_DEF_STEREO_COUNT>
0

>  <PUBCHEM_BOND_UDEF_STEREO_COUNT>
0

>  <PUBCHEM_ISOTOPIC_ATOM_COUNT>
0

>  <PUBCHEM_COMPONENT_COUNT>
1

>  <PUBCHEM_CACTVS_TAUTO_COUNT>
4

>  <PUBCHEM_COORDINATE_TYPE>
1
5
255

>  <PUBCHEM_BONDANNOTATIONS>
10  16  8
11  15  8
12  17  8
13  18  8
14  15  8
17  18  8
3  11  8
3  5  8
3  8  8
4  16  8
4  9  8
5  6  8
5  9  8
6  10  8
6  7  8
7  12  8
7  8  8
8  13  8
9  14  8

$$$$
