86021565
 OpenBabel06101807152D

 36 38  0  0  0  0  0  0  0  0999 V2000
    4.6497    0.9762    0.0000 O   0  0  0  0  0  0  0  0  0  0  0  0
    5.5103    1.4731    0.0000 O   0  0  0  0  0  0  0  0  0  0  0  0
    2.8680   -0.0342    0.0000 O   0  0  0  0  0  0  0  0  0  0  0  0
    9.0501    1.4867    0.0000 O   0  0  0  0  0  0  0  0  0  0  0  0
    7.2641   -1.5584    0.0000 C   0  0  0  0  0  0  0  0  0  0  0  0
    6.3981   -2.0584    0.0000 C   0  0  0  0  0  0  0  0  0  0  0  0
    7.2641   -0.5584    0.0000 C   0  0  0  0  0  0  0  0  0  0  0  0
    5.5320   -1.5584    0.0000 C   0  0  0  0  0  0  0  0  0  0  0  0
    5.5320   -0.5584    0.0000 C   0  0  0  0  0  0  0  0  0  0  0  0
    6.3981   -0.0584    0.0000 C   0  0  0  0  0  0  0  0  0  0  0  0
    4.6381   -0.0237    0.0000 C   0  0  0  0  0  0  0  0  0  0  0  0
    6.3820    0.9831    0.0000 C   0  0  0  0  0  0  0  0  0  0  0  0
    8.1741   -0.0515    0.0000 C   0  0  0  0  0  0  0  0  0  0  0  0
    4.6381   -2.0930    0.0000 C   0  0  0  0  0  0  0  0  0  0  0  0
    3.7320   -0.5376    0.0000 C   0  0  0  0  0  0  0  0  0  0  0  0
    8.1821    0.9901    0.0000 C   0  0  0  0  0  0  0  0  0  0  0  0
    7.2800    1.5109    0.0000 C   0  0  0  0  0  0  0  0  0  0  0  0
    3.7320   -1.5792    0.0000 C   0  0  0  0  0  0  0  0  0  0  0  0
    2.0000   -0.5309    0.0000 C   0  0  0  0  0  0  0  0  0  0  0  0
    9.9142    0.9834    0.0000 C   0  0  0  0  0  0  0  0  0  0  0  0
    7.4762   -2.1410    0.0000 H   0  0  0  0  0  0  0  0  0  0  0  0
    7.8747   -1.4507    0.0000 H   0  0  0  0  0  0  0  0  0  0  0  0
    5.9995   -2.5333    0.0000 H   0  0  0  0  0  0  0  0  0  0  0  0
    6.7966   -2.5333    0.0000 H   0  0  0  0  0  0  0  0  0  0  0  0
    8.7074   -0.3677    0.0000 H   0  0  0  0  0  0  0  0  0  0  0  0
    4.6453   -2.7130    0.0000 H   0  0  0  0  0  0  0  0  0  0  0  0
    7.2777    2.1309    0.0000 H   0  0  0  0  0  0  0  0  0  0  0  0
    3.1963   -1.8913    0.0000 H   0  0  0  0  0  0  0  0  0  0  0  0
    4.1164    1.2924    0.0000 H   0  0  0  0  0  0  0  0  0  0  0  0
    5.5031    2.0930    0.0000 H   0  0  0  0  0  0  0  0  0  0  0  0
    1.6921    0.0072    0.0000 H   0  0  0  0  0  0  0  0  0  0  0  0
    1.4619   -0.8388    0.0000 H   0  0  0  0  0  0  0  0  0  0  0  0
    2.3079   -1.0690    0.0000 H   0  0  0  0  0  0  0  0  0  0  0  0
    9.6021    0.4477    0.0000 H   0  0  0  0  0  0  0  0  0  0  0  0
   10.4499    0.6713    0.0000 H   0  0  0  0  0  0  0  0  0  0  0  0
   10.2262    1.5191    0.0000 H   0  0  0  0  0  0  0  0  0  0  0  0
  1 11  1  0  0  0  0
  1 29  1  0  0  0  0
  2 12  1  0  0  0  0
  2 30  1  0  0  0  0
  3 15  1  0  0  0  0
  3 19  1  0  0  0  0
  4 16  1  0  0  0  0
  4 20  1  0  0  0  0
  5  6  1  0  0  0  0
  5  7  1  0  0  0  0
  5 21  1  0  0  0  0
  5 22  1  0  0  0  0
  6  8  1  0  0  0  0
  6 23  1  0  0  0  0
  6 24  1  0  0  0  0
  7 10  2  0  0  0  0
  7 13  1  0  0  0  0
  8  9  2  0  0  0  0
  8 14  1  0  0  0  0
  9 10  1  0  0  0  0
  9 11  1  0  0  0  0
 10 12  1  0  0  0  0
 11 15  2  0  0  0  0
 12 17  2  0  0  0  0
 13 16  2  0  0  0  0
 13 25  1  0  0  0  0
 14 18  2  0  0  0  0
 14 26  1  0  0  0  0
 15 18  1  0  0  0  0
 16 17  1  0  0  0  0
 17 27  1  0  0  0  0
 18 28  1  0  0  0  0
 19 31  1  0  0  0  0
 19 32  1  0  0  0  0
 19 33  1  0  0  0  0
 20 34  1  0  0  0  0
 20 35  1  0  0  0  0
 20 36  1  0  0  0  0
M  END
>  <PUBCHEM_COMPOUND_CID>
86021565

>  <PUBCHEM_COMPOUND_CANONICALIZED>
1

>  <PUBCHEM_CACTVS_COMPLEXITY>
334

>  <PUBCHEM_CACTVS_HBOND_ACCEPTOR>
4

>  <PUBCHEM_CACTVS_HBOND_DONOR>
2

>  <PUBCHEM_CACTVS_ROTATABLE_BOND>
2

>  <PUBCHEM_CACTVS_SUBSKEYS>
AAADceB4OAAAAAAAAAAAAAAAAAAAAAAAAAAwYMAAAAAAAADBQAAAGgAACAAADASAmAIyBoAABgCAAiBCAAACCAAgIAAIiAAGiIgNJyKGMRqAcCMlwBULuAfA4PwOoAABCAAYQADAAAYQADCAAAAAAAAAAA==

>  <PUBCHEM_IUPAC_OPENEYE_NAME>
2,6-dimethoxy-9,10-dihydrophenanthrene-4,5-diol

>  <PUBCHEM_IUPAC_CAS_NAME>
2,6-dimethoxy-9,10-dihydrophenanthrene-4,5-diol

>  <PUBCHEM_IUPAC_NAME>
2,6-dimethoxy-9,10-dihydrophenanthrene-4,5-diol

>  <PUBCHEM_IUPAC_SYSTEMATIC_NAME>
2,6-dimethoxy-9,10-dihydrophenanthrene-4,5-diol

>  <PUBCHEM_IUPAC_TRADITIONAL_NAME>
2,6-dimethoxy-9,10-dihydrophenanthrene-4,5-diol

>  <PUBCHEM_IUPAC_INCHI>
InChI=1S/C16H16O4/c1-19-11-7-10-4-3-9-5-6-13(20-2)16(18)15(9)14(10)12(17)8-11/h5-8,17-18H,3-4H2,1-2H3

>  <PUBCHEM_IUPAC_INCHIKEY>
JOPGVVOTXYNMIS-UHFFFAOYSA-N

>  <PUBCHEM_XLOGP3_AA>
3.1

>  <PUBCHEM_EXACT_MASS>
272.105

>  <PUBCHEM_MOLECULAR_FORMULA>
C16H16O4

>  <PUBCHEM_MOLECULAR_WEIGHT>
272.3

>  <PUBCHEM_OPENEYE_CAN_SMILES>
COC1=C(C2=C(CCC3=CC(=CC(=C32)O)OC)C=C1)O

>  <PUBCHEM_OPENEYE_ISO_SMILES>
COC1=C(C2=C(CCC3=CC(=CC(=C32)O)OC)C=C1)O

>  <PUBCHEM_CACTVS_TPSA>
58.9

>  <PUBCHEM_MONOISOTOPIC_WEIGHT>
272.105

>  <PUBCHEM_TOTAL_CHARGE>
0

>  <PUBCHEM_HEAVY_ATOM_COUNT>
20

>  <PUBCHEM_ATOM_DEF_STEREO_COUNT>
0

>  <PUBCHEM_ATOM_UDEF_STEREO_COUNT>
0

>  <PUBCHEM_BOND_DEF_STEREO_COUNT>
0

>  <PUBCHEM_BOND_UDEF_STEREO_COUNT>
0

>  <PUBCHEM_ISOTOPIC_ATOM_COUNT>
0

>  <PUBCHEM_COMPONENT_COUNT>
1

>  <PUBCHEM_CACTVS_TAUTO_COUNT>
175

>  <PUBCHEM_COORDINATE_TYPE>
1
5
255

>  <PUBCHEM_BONDANNOTATIONS>
10  12  8
11  15  8
12  17  8
13  16  8
14  18  8
15  18  8
16  17  8
7  10  8
7  13  8
8  14  8
8  9  8
9  11  8

$$$$
