86029253
 OpenBabel06101807152D

 31 33  0  0  0  0  0  0  0  0999 V2000
    6.4783    0.5324    0.0000 O   0  0  0  0  0  0  0  0  0  0  0  0
    2.9176    1.7623    0.0000 O   0  0  0  0  0  0  0  0  0  0  0  0
    4.6660   -2.2723    0.0000 O   0  0  0  0  0  0  0  0  0  0  0  0
    4.6660    0.7277    0.0000 N   0  0  0  0  0  0  0  0  0  0  0  0
    3.8000    0.2277    0.0000 C   0  0  0  0  0  0  0  0  0  0  0  0
    5.5321    0.2277    0.0000 C   0  0  0  0  0  0  0  0  0  0  0  0
    3.8000   -0.7723    0.0000 C   0  0  0  0  0  0  0  0  0  0  0  0
    5.5321   -0.7723    0.0000 C   0  0  0  0  0  0  0  0  0  0  0  0
    4.6660    1.7277    0.0000 C   0  0  0  0  0  0  0  0  0  0  0  0
    4.6660   -1.2723    0.0000 C   0  0  0  0  0  0  0  0  0  0  0  0
    2.9061    0.7624    0.0000 C   0  0  0  0  0  0  0  0  0  0  0  0
    2.9061   -1.3070    0.0000 C   0  0  0  0  0  0  0  0  0  0  0  0
    6.4783   -1.0770    0.0000 C   0  0  0  0  0  0  0  0  0  0  0  0
    5.5321    2.2277    0.0000 C   0  0  0  0  0  0  0  0  0  0  0  0
    2.0000    0.2485    0.0000 C   0  0  0  0  0  0  0  0  0  0  0  0
    2.0000   -0.7931    0.0000 C   0  0  0  0  0  0  0  0  0  0  0  0
    7.0619   -0.2723    0.0000 C   0  0  0  0  0  0  0  0  0  0  0  0
    2.0574    2.2723    0.0000 C   0  0  0  0  0  0  0  0  0  0  0  0
    4.4540    2.3103    0.0000 H   0  0  0  0  0  0  0  0  0  0  0  0
    4.0555    1.6200    0.0000 H   0  0  0  0  0  0  0  0  0  0  0  0
    2.9132   -1.9269    0.0000 H   0  0  0  0  0  0  0  0  0  0  0  0
    6.6709   -1.6663    0.0000 H   0  0  0  0  0  0  0  0  0  0  0  0
    5.8421    1.6908    0.0000 H   0  0  0  0  0  0  0  0  0  0  0  0
    6.0690    2.5377    0.0000 H   0  0  0  0  0  0  0  0  0  0  0  0
    5.2221    2.7646    0.0000 H   0  0  0  0  0  0  0  0  0  0  0  0
    1.4643    0.5606    0.0000 H   0  0  0  0  0  0  0  0  0  0  0  0
    1.4643   -1.1052    0.0000 H   0  0  0  0  0  0  0  0  0  0  0  0
    7.6819   -0.2723    0.0000 H   0  0  0  0  0  0  0  0  0  0  0  0
    2.3736    2.8056    0.0000 H   0  0  0  0  0  0  0  0  0  0  0  0
    1.5241    2.5885    0.0000 H   0  0  0  0  0  0  0  0  0  0  0  0
    1.7413    1.7390    0.0000 H   0  0  0  0  0  0  0  0  0  0  0  0
  1  6  1  0  0  0  0
  1 17  1  0  0  0  0
  2 11  1  0  0  0  0
  2 18  1  0  0  0  0
  3 10  2  0  0  0  0
  4  5  1  0  0  0  0
  4  6  1  0  0  0  0
  4  9  1  0  0  0  0
  5  7  2  0  0  0  0
  5 11  1  0  0  0  0
  6  8  2  0  0  0  0
  7 10  1  0  0  0  0
  7 12  1  0  0  0  0
  8 10  1  0  0  0  0
  8 13  1  0  0  0  0
  9 14  1  0  0  0  0
  9 19  1  0  0  0  0
  9 20  1  0  0  0  0
 11 15  2  0  0  0  0
 12 16  2  0  0  0  0
 12 21  1  0  0  0  0
 13 17  2  0  0  0  0
 13 22  1  0  0  0  0
 14 23  1  0  0  0  0
 14 24  1  0  0  0  0
 14 25  1  0  0  0  0
 15 16  1  0  0  0  0
 15 26  1  0  0  0  0
 16 27  1  0  0  0  0
 17 28  1  0  0  0  0
 18 29  1  0  0  0  0
 18 30  1  0  0  0  0
 18 31  1  0  0  0  0
M  END
>  <PUBCHEM_COMPOUND_CID>
86029253

>  <PUBCHEM_COMPOUND_CANONICALIZED>
1

>  <PUBCHEM_CACTVS_COMPLEXITY>
333

>  <PUBCHEM_CACTVS_HBOND_ACCEPTOR>
4

>  <PUBCHEM_CACTVS_HBOND_DONOR>
0

>  <PUBCHEM_CACTVS_ROTATABLE_BOND>
2

>  <PUBCHEM_CACTVS_SUBSKEYS>
AAADccByMAAAAAAAAAAAAAAAAAAAASAAAAA8QAAAAAAAAFixwAAAHgAAAAAADAzhmAYyxoMABECIAq1S0ACCCAAtIAAIiAEPTMgOJn7MtZuPOejk5hHY6ce/2fOeAAABAAACEAAAAAIAAAQgAAAAAAAAAA==

>  <PUBCHEM_IUPAC_OPENEYE_NAME>
9-ethyl-8-methoxy-furo[2,3-b]quinolin-4-one

>  <PUBCHEM_IUPAC_CAS_NAME>
9-ethyl-8-methoxy-4-furo[2,3-b]quinolinone

>  <PUBCHEM_IUPAC_NAME>
9-ethyl-8-methoxyfuro[2,3-b]quinolin-4-one

>  <PUBCHEM_IUPAC_SYSTEMATIC_NAME>
9-ethyl-8-methoxy-furo[2,3-b]quinolin-4-one

>  <PUBCHEM_IUPAC_TRADITIONAL_NAME>
9-ethyl-8-methoxy-furo[2,3-b]quinolin-4-one

>  <PUBCHEM_IUPAC_INCHI>
InChI=1S/C14H13NO3/c1-3-15-12-9(5-4-6-11(12)17-2)13(16)10-7-8-18-14(10)15/h4-8H,3H2,1-2H3

>  <PUBCHEM_IUPAC_INCHIKEY>
NYRFIEXUGCQNIN-UHFFFAOYSA-N

>  <PUBCHEM_XLOGP3_AA>
2.9

>  <PUBCHEM_EXACT_MASS>
243.09

>  <PUBCHEM_MOLECULAR_FORMULA>
C14H13NO3

>  <PUBCHEM_MOLECULAR_WEIGHT>
243.262

>  <PUBCHEM_OPENEYE_CAN_SMILES>
CCN1C2=C(C=CC=C2OC)C(=O)C3=C1OC=C3

>  <PUBCHEM_OPENEYE_ISO_SMILES>
CCN1C2=C(C=CC=C2OC)C(=O)C3=C1OC=C3

>  <PUBCHEM_CACTVS_TPSA>
42.7

>  <PUBCHEM_MONOISOTOPIC_WEIGHT>
243.09

>  <PUBCHEM_TOTAL_CHARGE>
0

>  <PUBCHEM_HEAVY_ATOM_COUNT>
18

>  <PUBCHEM_ATOM_DEF_STEREO_COUNT>
0

>  <PUBCHEM_ATOM_UDEF_STEREO_COUNT>
0

>  <PUBCHEM_BOND_DEF_STEREO_COUNT>
0

>  <PUBCHEM_BOND_UDEF_STEREO_COUNT>
0

>  <PUBCHEM_ISOTOPIC_ATOM_COUNT>
0

>  <PUBCHEM_COMPONENT_COUNT>
1

>  <PUBCHEM_CACTVS_TAUTO_COUNT>
1

>  <PUBCHEM_COORDINATE_TYPE>
1
5
255

>  <PUBCHEM_BONDANNOTATIONS>
1  17  8
1  6  8
11  15  8
12  16  8
13  17  8
15  16  8
4  5  8
4  6  8
5  11  8
5  7  8
6  8  8
7  10  8
7  12  8
8  10  8
8  13  8

$$$$
