86196540
 OpenBabel06101807152D

 67 67  0  0  1  0  0  0  0  0999 V2000
    8.5991    1.5000    0.0000 O   0  0  0  0  0  0  0  0  0  0  0  0
    7.7331    3.0000    0.0000 O   0  0  0  0  0  0  0  0  0  0  0  0
    4.2690    7.0000    0.0000 O   0  0  0  0  0  0  0  0  0  0  0  0
    2.5369    6.0000    0.0000 O   0  0  0  0  0  0  0  0  0  0  0  0
    7.7331    1.0000    0.0000 C   0  0  3  0  0  0  0  0  0  0  0  0
    7.7331    0.0000    0.0000 C   0  0  0  0  0  0  0  0  0  0  0  0
    8.5991   -0.5000    0.0000 C   0  0  0  0  0  0  0  0  0  0  0  0
    8.5991   -1.5000    0.0000 C   0  0  0  0  0  0  0  0  0  0  0  0
    6.8671    1.5000    0.0000 C   0  0  0  0  0  0  0  0  0  0  0  0
    9.4651   -2.0000    0.0000 C   0  0  0  0  0  0  0  0  0  0  0  0
    6.8671    2.5000    0.0000 C   0  0  3  0  0  0  0  0  0  0  0  0
    9.4651   -3.0000    0.0000 C   0  0  0  0  0  0  0  0  0  0  0  0
   10.3312   -3.5000    0.0000 C   0  0  0  0  0  0  0  0  0  0  0  0
    6.0010    3.0000    0.0000 C   0  0  0  0  0  0  0  0  0  0  0  0
   10.3312   -4.5000    0.0000 C   0  0  0  0  0  0  0  0  0  0  0  0
   11.1972   -5.0000    0.0000 C   0  0  0  0  0  0  0  0  0  0  0  0
    6.0010    4.0000    0.0000 C   0  0  0  0  0  0  0  0  0  0  0  0
   11.1972   -6.0000    0.0000 C   0  0  0  0  0  0  0  0  0  0  0  0
    5.1350    4.5000    0.0000 C   0  0  0  0  0  0  0  0  0  0  0  0
   12.0632   -6.5000    0.0000 C   0  0  0  0  0  0  0  0  0  0  0  0
    5.1350    5.5000    0.0000 C   0  0  0  0  0  0  0  0  0  0  0  0
   12.0632   -7.5000    0.0000 C   0  0  0  0  0  0  0  0  0  0  0  0
    4.2690    4.0000    0.0000 C   0  0  0  0  0  0  0  0  0  0  0  0
    4.2690    6.0000    0.0000 C   0  0  0  0  0  0  0  0  0  0  0  0
    3.4030    4.5000    0.0000 C   0  0  0  0  0  0  0  0  0  0  0  0
    3.4030    5.5000    0.0000 C   0  0  0  0  0  0  0  0  0  0  0  0
    5.1350    7.5000    0.0000 C   0  0  0  0  0  0  0  0  0  0  0  0
    7.7331    1.6200    0.0000 H   0  0  0  0  0  0  0  0  0  0  0  0
    7.1225    0.1077    0.0000 H   0  0  0  0  0  0  0  0  0  0  0  0
    7.5210   -0.5826    0.0000 H   0  0  0  0  0  0  0  0  0  0  0  0
    9.2097   -0.6077    0.0000 H   0  0  0  0  0  0  0  0  0  0  0  0
    8.8112    0.0826    0.0000 H   0  0  0  0  0  0  0  0  0  0  0  0
    7.9885   -1.3923    0.0000 H   0  0  0  0  0  0  0  0  0  0  0  0
    8.3871   -2.0826    0.0000 H   0  0  0  0  0  0  0  0  0  0  0  0
    6.2565    1.6077    0.0000 H   0  0  0  0  0  0  0  0  0  0  0  0
    6.6550    0.9174    0.0000 H   0  0  0  0  0  0  0  0  0  0  0  0
   10.0757   -2.1077    0.0000 H   0  0  0  0  0  0  0  0  0  0  0  0
    9.6772   -1.4174    0.0000 H   0  0  0  0  0  0  0  0  0  0  0  0
    7.4040    2.1900    0.0000 H   0  0  0  0  0  0  0  0  0  0  0  0
    8.8546   -2.8923    0.0000 H   0  0  0  0  0  0  0  0  0  0  0  0
    9.2531   -3.5826    0.0000 H   0  0  0  0  0  0  0  0  0  0  0  0
   10.9417   -3.6077    0.0000 H   0  0  0  0  0  0  0  0  0  0  0  0
   10.5432   -2.9174    0.0000 H   0  0  0  0  0  0  0  0  0  0  0  0
    5.3905    3.1077    0.0000 H   0  0  0  0  0  0  0  0  0  0  0  0
    5.7890    2.4174    0.0000 H   0  0  0  0  0  0  0  0  0  0  0  0
    9.7206   -4.3923    0.0000 H   0  0  0  0  0  0  0  0  0  0  0  0
   10.1191   -5.0826    0.0000 H   0  0  0  0  0  0  0  0  0  0  0  0
   11.8078   -5.1077    0.0000 H   0  0  0  0  0  0  0  0  0  0  0  0
   11.4092   -4.4174    0.0000 H   0  0  0  0  0  0  0  0  0  0  0  0
    6.6116    3.8923    0.0000 H   0  0  0  0  0  0  0  0  0  0  0  0
    6.2131    4.5826    0.0000 H   0  0  0  0  0  0  0  0  0  0  0  0
   10.5866   -5.8923    0.0000 H   0  0  0  0  0  0  0  0  0  0  0  0
   10.9851   -6.5826    0.0000 H   0  0  0  0  0  0  0  0  0  0  0  0
    9.1360    1.1900    0.0000 H   0  0  0  0  0  0  0  0  0  0  0  0
    8.2700    2.6900    0.0000 H   0  0  0  0  0  0  0  0  0  0  0  0
   12.6738   -6.6077    0.0000 H   0  0  0  0  0  0  0  0  0  0  0  0
   12.2753   -5.9174    0.0000 H   0  0  0  0  0  0  0  0  0  0  0  0
    5.6720    5.8100    0.0000 H   0  0  0  0  0  0  0  0  0  0  0  0
   11.4432   -7.5000    0.0000 H   0  0  0  0  0  0  0  0  0  0  0  0
   12.0632   -8.1200    0.0000 H   0  0  0  0  0  0  0  0  0  0  0  0
   12.6832   -7.5000    0.0000 H   0  0  0  0  0  0  0  0  0  0  0  0
    4.2690    3.3800    0.0000 H   0  0  0  0  0  0  0  0  0  0  0  0
    2.8660    4.1900    0.0000 H   0  0  0  0  0  0  0  0  0  0  0  0
    2.0000    5.6900    0.0000 H   0  0  0  0  0  0  0  0  0  0  0  0
    5.4450    6.9631    0.0000 H   0  0  0  0  0  0  0  0  0  0  0  0
    5.6720    7.8100    0.0000 H   0  0  0  0  0  0  0  0  0  0  0  0
    4.8250    8.0369    0.0000 H   0  0  0  0  0  0  0  0  0  0  0  0
  1  5  1  0  0  0  0
  1 54  1  0  0  0  0
  2 11  1  0  0  0  0
  2 55  1  0  0  0  0
  3 24  1  0  0  0  0
  3 27  1  0  0  0  0
  4 26  1  0  0  0  0
  4 64  1  0  0  0  0
  5  6  1  0  0  0  0
  5  9  1  0  0  0  0
  5 28  1  0  0  0  0
  6  7  1  0  0  0  0
  6 29  1  0  0  0  0
  6 30  1  0  0  0  0
  7  8  1  0  0  0  0
  7 31  1  0  0  0  0
  7 32  1  0  0  0  0
  8 10  1  0  0  0  0
  8 33  1  0  0  0  0
  8 34  1  0  0  0  0
  9 11  1  0  0  0  0
  9 35  1  0  0  0  0
  9 36  1  0  0  0  0
 10 12  1  0  0  0  0
 10 37  1  0  0  0  0
 10 38  1  0  0  0  0
 11 14  1  0  0  0  0
 11 39  1  0  0  0  0
 12 13  1  0  0  0  0
 12 40  1  0  0  0  0
 12 41  1  0  0  0  0
 13 15  1  0  0  0  0
 13 42  1  0  0  0  0
 13 43  1  0  0  0  0
 14 17  1  0  0  0  0
 14 44  1  0  0  0  0
 14 45  1  0  0  0  0
 15 16  1  0  0  0  0
 15 46  1  0  0  0  0
 15 47  1  0  0  0  0
 16 18  1  0  0  0  0
 16 48  1  0  0  0  0
 16 49  1  0  0  0  0
 17 19  1  0  0  0  0
 17 50  1  0  0  0  0
 17 51  1  0  0  0  0
 18 20  1  0  0  0  0
 18 52  1  0  0  0  0
 18 53  1  0  0  0  0
 19 21  2  0  0  0  0
 19 23  1  0  0  0  0
 20 22  1  0  0  0  0
 20 56  1  0  0  0  0
 20 57  1  0  0  0  0
 21 24  1  0  0  0  0
 21 58  1  0  0  0  0
 22 59  1  0  0  0  0
 22 60  1  0  0  0  0
 22 61  1  0  0  0  0
 23 25  2  0  0  0  0
 23 62  1  0  0  0  0
 24 26  2  0  0  0  0
 25 26  1  0  0  0  0
 25 63  1  0  0  0  0
 27 65  1  0  0  0  0
 27 66  1  0  0  0  0
 27 67  1  0  0  0  0
M  END
>  <PUBCHEM_COMPOUND_CID>
86196540

>  <PUBCHEM_COMPOUND_CANONICALIZED>
1

>  <PUBCHEM_CACTVS_COMPLEXITY>
336

>  <PUBCHEM_CACTVS_HBOND_ACCEPTOR>
4

>  <PUBCHEM_CACTVS_HBOND_DONOR>
3

>  <PUBCHEM_CACTVS_ROTATABLE_BOND>
16

>  <PUBCHEM_CACTVS_SUBSKEYS>
AAADcfB4OAAAAAAAAAAAAAAAAAAAAAAAAAAwAAAAAAAAAAABAAAAGgAACAAADBSgmAIyBoAABgCAAiBCAAACCAAgIAAIiAAGiIgNNiKGMRqAcCMlwBELuAeAwPAOIAABAAAAQABAAAIAAACAAAAAAAAAAA==

>  <PUBCHEM_IUPAC_OPENEYE_NAME>
1-(4-hydroxy-3-methoxy-phenyl)hexadecane-3,5-diol

>  <PUBCHEM_IUPAC_CAS_NAME>
1-(4-hydroxy-3-methoxyphenyl)hexadecane-3,5-diol

>  <PUBCHEM_IUPAC_NAME>
1-(4-hydroxy-3-methoxyphenyl)hexadecane-3,5-diol

>  <PUBCHEM_IUPAC_SYSTEMATIC_NAME>
1-(3-methoxy-4-oxidanyl-phenyl)hexadecane-3,5-diol

>  <PUBCHEM_IUPAC_TRADITIONAL_NAME>
1-(4-hydroxy-3-methoxy-phenyl)hexadecane-3,5-diol

>  <PUBCHEM_IUPAC_INCHI>
InChI=1S/C23H40O4/c1-3-4-5-6-7-8-9-10-11-12-20(24)18-21(25)15-13-19-14-16-22(26)23(17-19)27-2/h14,16-17,20-21,24-26H,3-13,15,18H2,1-2H3

>  <PUBCHEM_IUPAC_INCHIKEY>
HWCBBIAYOKOIHB-UHFFFAOYSA-N

>  <PUBCHEM_XLOGP3>
6.2

>  <PUBCHEM_EXACT_MASS>
380.293

>  <PUBCHEM_MOLECULAR_FORMULA>
C23H40O4

>  <PUBCHEM_MOLECULAR_WEIGHT>
380.569

>  <PUBCHEM_OPENEYE_CAN_SMILES>
CCCCCCCCCCCC(CC(CCC1=CC(=C(C=C1)O)OC)O)O

>  <PUBCHEM_OPENEYE_ISO_SMILES>
CCCCCCCCCCCC(CC(CCC1=CC(=C(C=C1)O)OC)O)O

>  <PUBCHEM_CACTVS_TPSA>
69.9

>  <PUBCHEM_MONOISOTOPIC_WEIGHT>
380.293

>  <PUBCHEM_TOTAL_CHARGE>
0

>  <PUBCHEM_HEAVY_ATOM_COUNT>
27

>  <PUBCHEM_ATOM_DEF_STEREO_COUNT>
0

>  <PUBCHEM_ATOM_UDEF_STEREO_COUNT>
2

>  <PUBCHEM_BOND_DEF_STEREO_COUNT>
0

>  <PUBCHEM_BOND_UDEF_STEREO_COUNT>
0

>  <PUBCHEM_ISOTOPIC_ATOM_COUNT>
0

>  <PUBCHEM_COMPONENT_COUNT>
1

>  <PUBCHEM_CACTVS_TAUTO_COUNT>
3

>  <PUBCHEM_COORDINATE_TYPE>
1
5
255

>  <PUBCHEM_BONDANNOTATIONS>
5  1  3
19  21  8
19  23  8
11  2  3
21  24  8
23  25  8
24  26  8
25  26  8

$$$$
