86251456
 OpenBabel06101807152D

 38 39  0  0  0  0  0  0  0  0999 V2000
    6.3301    2.8100    0.0000 O   0  0  0  0  0  0  0  0  0  0  0  0
    4.5981    3.8100    0.0000 O   0  0  0  0  0  0  0  0  0  0  0  0
    2.8660    2.8100    0.0000 O   0  0  0  0  0  0  0  0  0  0  0  0
    2.0000   -3.6900    0.0000 O   0  0  0  0  0  0  0  0  0  0  0  0
    4.5981   -0.1900    0.0000 C   0  0  0  0  0  0  0  0  0  0  0  0
    3.7320   -0.6900    0.0000 C   0  0  0  0  0  0  0  0  0  0  0  0
    4.5981    0.8100    0.0000 C   0  0  0  0  0  0  0  0  0  0  0  0
    3.7320   -1.6900    0.0000 C   0  0  0  0  0  0  0  0  0  0  0  0
    5.4641    1.3100    0.0000 C   0  0  0  0  0  0  0  0  0  0  0  0
    3.7320    1.3100    0.0000 C   0  0  0  0  0  0  0  0  0  0  0  0
    5.4641    2.3100    0.0000 C   0  0  0  0  0  0  0  0  0  0  0  0
    3.7320    2.3100    0.0000 C   0  0  0  0  0  0  0  0  0  0  0  0
    4.5981    2.8100    0.0000 C   0  0  0  0  0  0  0  0  0  0  0  0
    2.8660   -2.1900    0.0000 C   0  0  0  0  0  0  0  0  0  0  0  0
    4.5981   -2.1900    0.0000 C   0  0  0  0  0  0  0  0  0  0  0  0
    2.8660   -3.1900    0.0000 C   0  0  0  0  0  0  0  0  0  0  0  0
    4.5981   -3.1900    0.0000 C   0  0  0  0  0  0  0  0  0  0  0  0
    3.7320   -3.6900    0.0000 C   0  0  0  0  0  0  0  0  0  0  0  0
    7.1962    2.3100    0.0000 C   0  0  0  0  0  0  0  0  0  0  0  0
    5.4641    4.3100    0.0000 C   0  0  0  0  0  0  0  0  0  0  0  0
    4.8101   -0.7726    0.0000 H   0  0  0  0  0  0  0  0  0  0  0  0
    5.2087   -0.0823    0.0000 H   0  0  0  0  0  0  0  0  0  0  0  0
    3.5200   -0.1074    0.0000 H   0  0  0  0  0  0  0  0  0  0  0  0
    3.1215   -0.7977    0.0000 H   0  0  0  0  0  0  0  0  0  0  0  0
    6.0010    1.0000    0.0000 H   0  0  0  0  0  0  0  0  0  0  0  0
    3.1951    1.0000    0.0000 H   0  0  0  0  0  0  0  0  0  0  0  0
    2.3291   -1.8800    0.0000 H   0  0  0  0  0  0  0  0  0  0  0  0
    5.1350   -1.8800    0.0000 H   0  0  0  0  0  0  0  0  0  0  0  0
    5.1350   -3.5000    0.0000 H   0  0  0  0  0  0  0  0  0  0  0  0
    3.7320   -4.3100    0.0000 H   0  0  0  0  0  0  0  0  0  0  0  0
    2.3291    2.5000    0.0000 H   0  0  0  0  0  0  0  0  0  0  0  0
    6.8862    1.7731    0.0000 H   0  0  0  0  0  0  0  0  0  0  0  0
    7.7331    2.0000    0.0000 H   0  0  0  0  0  0  0  0  0  0  0  0
    7.5062    2.8469    0.0000 H   0  0  0  0  0  0  0  0  0  0  0  0
    5.7741    3.7731    0.0000 H   0  0  0  0  0  0  0  0  0  0  0  0
    6.0010    4.6200    0.0000 H   0  0  0  0  0  0  0  0  0  0  0  0
    5.1541    4.8469    0.0000 H   0  0  0  0  0  0  0  0  0  0  0  0
    2.0000   -4.3100    0.0000 H   0  0  0  0  0  0  0  0  0  0  0  0
  1 11  1  0  0  0  0
  1 19  1  0  0  0  0
  2 13  1  0  0  0  0
  2 20  1  0  0  0  0
  3 12  1  0  0  0  0
  3 31  1  0  0  0  0
  4 16  1  0  0  0  0
  4 38  1  0  0  0  0
  5  6  1  0  0  0  0
  5  7  1  0  0  0  0
  5 21  1  0  0  0  0
  5 22  1  0  0  0  0
  6  8  1  0  0  0  0
  6 23  1  0  0  0  0
  6 24  1  0  0  0  0
  7  9  1  0  0  0  0
  7 10  2  0  0  0  0
  8 14  2  0  0  0  0
  8 15  1  0  0  0  0
  9 11  2  0  0  0  0
  9 25  1  0  0  0  0
 10 12  1  0  0  0  0
 10 26  1  0  0  0  0
 11 13  1  0  0  0  0
 12 13  2  0  0  0  0
 14 16  1  0  0  0  0
 14 27  1  0  0  0  0
 15 17  2  0  0  0  0
 15 28  1  0  0  0  0
 16 18  2  0  0  0  0
 17 18  1  0  0  0  0
 17 29  1  0  0  0  0
 18 30  1  0  0  0  0
 19 32  1  0  0  0  0
 19 33  1  0  0  0  0
 19 34  1  0  0  0  0
 20 35  1  0  0  0  0
 20 36  1  0  0  0  0
 20 37  1  0  0  0  0
M  END
>  <PUBCHEM_COMPOUND_CID>
86251456

>  <PUBCHEM_COMPOUND_CANONICALIZED>
1

>  <PUBCHEM_CACTVS_COMPLEXITY>
284

>  <PUBCHEM_CACTVS_HBOND_ACCEPTOR>
4

>  <PUBCHEM_CACTVS_HBOND_DONOR>
2

>  <PUBCHEM_CACTVS_ROTATABLE_BOND>
5

>  <PUBCHEM_CACTVS_SUBSKEYS>
AAADceB4OAAAAAAAAAAAAAAAAAAAAAAAAAAwYAAAAAAAAAABQAAAGgAACAAADASAmAIyBoAABgCAAiBCAAACCAAgIAAIiAAGiIgNJyKGMRqAcCMlwBULuAeA4PwOIAABCAAAQABAAAIQAACAAAAAAAAAAA==

>  <PUBCHEM_IUPAC_OPENEYE_NAME>
5-[2-(3-hydroxyphenyl)ethyl]-2,3-dimethoxy-phenol

>  <PUBCHEM_IUPAC_CAS_NAME>
5-[2-(3-hydroxyphenyl)ethyl]-2,3-dimethoxyphenol

>  <PUBCHEM_IUPAC_NAME>
5-[2-(3-hydroxyphenyl)ethyl]-2,3-dimethoxyphenol

>  <PUBCHEM_IUPAC_SYSTEMATIC_NAME>
5-[2-(3-hydroxyphenyl)ethyl]-2,3-dimethoxy-phenol

>  <PUBCHEM_IUPAC_TRADITIONAL_NAME>
5-[2-(3-hydroxyphenyl)ethyl]-2,3-dimethoxy-phenol

>  <PUBCHEM_IUPAC_INCHI>
InChI=1S/C16H18O4/c1-19-15-10-12(9-14(18)16(15)20-2)7-6-11-4-3-5-13(17)8-11/h3-5,8-10,17-18H,6-7H2,1-2H3

>  <PUBCHEM_IUPAC_INCHIKEY>
SXTIQENJRJOCLX-UHFFFAOYSA-N

>  <PUBCHEM_XLOGP3_AA>
3.4

>  <PUBCHEM_EXACT_MASS>
274.121

>  <PUBCHEM_MOLECULAR_FORMULA>
C16H18O4

>  <PUBCHEM_MOLECULAR_WEIGHT>
274.316

>  <PUBCHEM_OPENEYE_CAN_SMILES>
COC1=CC(=CC(=C1OC)O)CCC2=CC(=CC=C2)O

>  <PUBCHEM_OPENEYE_ISO_SMILES>
COC1=CC(=CC(=C1OC)O)CCC2=CC(=CC=C2)O

>  <PUBCHEM_CACTVS_TPSA>
58.9

>  <PUBCHEM_MONOISOTOPIC_WEIGHT>
274.121

>  <PUBCHEM_TOTAL_CHARGE>
0

>  <PUBCHEM_HEAVY_ATOM_COUNT>
20

>  <PUBCHEM_ATOM_DEF_STEREO_COUNT>
0

>  <PUBCHEM_ATOM_UDEF_STEREO_COUNT>
0

>  <PUBCHEM_BOND_DEF_STEREO_COUNT>
0

>  <PUBCHEM_BOND_UDEF_STEREO_COUNT>
0

>  <PUBCHEM_ISOTOPIC_ATOM_COUNT>
0

>  <PUBCHEM_COMPONENT_COUNT>
1

>  <PUBCHEM_CACTVS_TAUTO_COUNT>
116

>  <PUBCHEM_COORDINATE_TYPE>
1
5
255

>  <PUBCHEM_BONDANNOTATIONS>
10  12  8
11  13  8
12  13  8
14  16  8
15  17  8
16  18  8
17  18  8
7  10  8
7  9  8
8  14  8
8  15  8
9  11  8

$$$$
