86592
 OpenBabel06101807152D

 22 21  0  0  0  0  0  0  0  0999 V2000
    2.8660   -0.7500    0.0000 O   0  0  0  0  0  0  0  0  0  0  0  0
    4.5981    0.2500    0.0000 C   0  0  0  0  0  0  0  0  0  0  0  0
    5.4641    0.7500    0.0000 C   0  0  0  0  0  0  0  0  0  0  0  0
    6.3301    0.2500    0.0000 C   0  0  0  0  0  0  0  0  0  0  0  0
    3.7320    0.7500    0.0000 C   0  0  0  0  0  0  0  0  0  0  0  0
    7.1962    0.7500    0.0000 C   0  0  0  0  0  0  0  0  0  0  0  0
    2.8660    0.2500    0.0000 C   0  0  0  0  0  0  0  0  0  0  0  0
    8.0622    0.2500    0.0000 C   0  0  0  0  0  0  0  0  0  0  0  0
    2.0000    0.7500    0.0000 C   0  0  0  0  0  0  0  0  0  0  0  0
    8.9282    0.7500    0.0000 C   0  0  0  0  0  0  0  0  0  0  0  0
    4.5981   -0.3700    0.0000 H   0  0  0  0  0  0  0  0  0  0  0  0
    5.4641    1.3700    0.0000 H   0  0  0  0  0  0  0  0  0  0  0  0
    3.7320    1.3700    0.0000 H   0  0  0  0  0  0  0  0  0  0  0  0
    6.3301   -0.3700    0.0000 H   0  0  0  0  0  0  0  0  0  0  0  0
    7.1962    1.3700    0.0000 H   0  0  0  0  0  0  0  0  0  0  0  0
    8.0622   -0.3700    0.0000 H   0  0  0  0  0  0  0  0  0  0  0  0
    2.3100    1.2869    0.0000 H   0  0  0  0  0  0  0  0  0  0  0  0
    1.4631    1.0600    0.0000 H   0  0  0  0  0  0  0  0  0  0  0  0
    1.6900    0.2131    0.0000 H   0  0  0  0  0  0  0  0  0  0  0  0
    9.2382    0.2131    0.0000 H   0  0  0  0  0  0  0  0  0  0  0  0
    9.4651    1.0600    0.0000 H   0  0  0  0  0  0  0  0  0  0  0  0
    8.6182    1.2869    0.0000 H   0  0  0  0  0  0  0  0  0  0  0  0
  1  7  2  0  0  0  0
  2  3  1  0  0  0  0
  2  5  2  3  0  0  0
  2 11  1  0  0  0  0
  3  4  2  3  0  0  0
  3 12  1  0  0  0  0
  4  6  1  0  0  0  0
  4 14  1  0  0  0  0
  5  7  1  0  0  0  0
  5 13  1  0  0  0  0
  6  8  2  3  0  0  0
  6 15  1  0  0  0  0
  7  9  1  0  0  0  0
  8 10  1  0  0  0  0
  8 16  1  0  0  0  0
  9 17  1  0  0  0  0
  9 18  1  0  0  0  0
  9 19  1  0  0  0  0
 10 20  1  0  0  0  0
 10 21  1  0  0  0  0
 10 22  1  0  0  0  0
M  END
>  <PUBCHEM_COMPOUND_CID>
86592

>  <PUBCHEM_COMPOUND_CANONICALIZED>
1

>  <PUBCHEM_CACTVS_COMPLEXITY>
173

>  <PUBCHEM_CACTVS_HBOND_ACCEPTOR>
1

>  <PUBCHEM_CACTVS_HBOND_DONOR>
0

>  <PUBCHEM_CACTVS_ROTATABLE_BOND>
3

>  <PUBCHEM_CACTVS_SUBSKEYS>
AAADccBwIAAAAAAAAAAAAAAAAAAAAAAAAAAAAAAAAAAAAAAAAAAAGgAAAAAACASAgAACAAAAAACIAKBSAAAAAAAgAAAICAAAAEgIAAAAAQAAAAAAAAAIgYIAAAAAAAAAAAAAAAAAAAAAAAAAAAAAAAAAAA==

>  <PUBCHEM_IUPAC_OPENEYE_NAME>
nona-3,5,7-trien-2-one

>  <PUBCHEM_IUPAC_CAS_NAME>
2-nona-3,5,7-trienone

>  <PUBCHEM_IUPAC_NAME>
nona-3,5,7-trien-2-one

>  <PUBCHEM_IUPAC_SYSTEMATIC_NAME>
nona-3,5,7-trien-2-one

>  <PUBCHEM_IUPAC_TRADITIONAL_NAME>
nona-3,5,7-trien-2-one

>  <PUBCHEM_IUPAC_INCHI>
InChI=1S/C9H12O/c1-3-4-5-6-7-8-9(2)10/h3-8H,1-2H3

>  <PUBCHEM_IUPAC_INCHIKEY>
YHVZVLYNHHTMSL-UHFFFAOYSA-N

>  <PUBCHEM_XLOGP3_AA>
2.1

>  <PUBCHEM_EXACT_MASS>
136.089

>  <PUBCHEM_MOLECULAR_FORMULA>
C9H12O

>  <PUBCHEM_MOLECULAR_WEIGHT>
136.194

>  <PUBCHEM_OPENEYE_CAN_SMILES>
CC=CC=CC=CC(=O)C

>  <PUBCHEM_OPENEYE_ISO_SMILES>
CC=CC=CC=CC(=O)C

>  <PUBCHEM_CACTVS_TPSA>
17.1

>  <PUBCHEM_MONOISOTOPIC_WEIGHT>
136.089

>  <PUBCHEM_TOTAL_CHARGE>
0

>  <PUBCHEM_HEAVY_ATOM_COUNT>
10

>  <PUBCHEM_ATOM_DEF_STEREO_COUNT>
0

>  <PUBCHEM_ATOM_UDEF_STEREO_COUNT>
0

>  <PUBCHEM_BOND_DEF_STEREO_COUNT>
0

>  <PUBCHEM_BOND_UDEF_STEREO_COUNT>
3

>  <PUBCHEM_ISOTOPIC_ATOM_COUNT>
0

>  <PUBCHEM_COMPONENT_COUNT>
1

>  <PUBCHEM_CACTVS_TAUTO_COUNT>
2

>  <PUBCHEM_COORDINATE_TYPE>
1
5
255

>  <PUBCHEM_BONDANNOTATIONS>
2  5  1
3  4  1
6  8  1

$$$$
