86705
 OpenBabel06101807152D

 48 51  0  0  1  0  0  0  0  0999 V2000
    2.0000   -2.0032    0.0000 O   0  0  0  0  0  0  0  0  0  0  0  0
    5.6610    0.0491    0.0000 C   0  0  3  0  0  0  0  0  0  0  0  0
    6.5271   -0.4509    0.0000 C   0  0  3  0  0  0  0  0  0  0  0  0
    4.7510   -0.4578    0.0000 C   0  0  3  0  0  0  0  0  0  0  0  0
    7.3931    0.0491    0.0000 C   0  0  3  0  0  0  0  0  0  0  0  0
    4.7430   -1.4994    0.0000 C   0  0  3  0  0  0  0  0  0  0  0  0
    7.3931    1.0491    0.0000 C   0  0  3  0  0  0  0  0  0  0  0  0
    5.6610    1.0491    0.0000 C   0  0  0  0  0  0  0  0  0  0  0  0
    6.5431   -1.4924    0.0000 C   0  0  0  0  0  0  0  0  0  0  0  0
    6.5271    1.5491    0.0000 C   0  0  0  0  0  0  0  0  0  0  0  0
    5.6451   -2.0202    0.0000 C   0  0  0  0  0  0  0  0  0  0  0  0
    3.8242    0.1063    0.0000 C   0  0  0  0  0  0  0  0  0  0  0  0
    8.3393   -0.2556    0.0000 C   0  0  0  0  0  0  0  0  0  0  0  0
    3.8076   -2.0491    0.0000 C   0  0  0  0  0  0  0  0  0  0  0  0
    4.7587    0.5422    0.0000 C   0  0  0  0  0  0  0  0  0  0  0  0
    8.3393    1.3538    0.0000 C   0  0  0  0  0  0  0  0  0  0  0  0
    2.8763   -0.4216    0.0000 C   0  0  0  0  0  0  0  0  0  0  0  0
    7.3931    2.0491    0.0000 C   0  0  0  0  0  0  0  0  0  0  0  0
    8.9229    0.5491    0.0000 C   0  0  0  0  0  0  0  0  0  0  0  0
    2.8680   -1.5066    0.0000 C   0  0  0  0  0  0  0  0  0  0  0  0
    6.1980    0.3591    0.0000 H   0  0  0  0  0  0  0  0  0  0  0  0
    7.0664   -0.7568    0.0000 H   0  0  0  0  0  0  0  0  0  0  0  0
    7.4587   -0.5674    0.0000 H   0  0  0  0  0  0  0  0  0  0  0  0
    4.7454   -2.1194    0.0000 H   0  0  0  0  0  0  0  0  0  0  0  0
    5.4490    1.6317    0.0000 H   0  0  0  0  0  0  0  0  0  0  0  0
    5.0504    0.9414    0.0000 H   0  0  0  0  0  0  0  0  0  0  0  0
    6.7612   -2.0728    0.0000 H   0  0  0  0  0  0  0  0  0  0  0  0
    7.1523   -1.3769    0.0000 H   0  0  0  0  0  0  0  0  0  0  0  0
    6.9256    2.0240    0.0000 H   0  0  0  0  0  0  0  0  0  0  0  0
    6.1285    2.0240    0.0000 H   0  0  0  0  0  0  0  0  0  0  0  0
    5.2478   -2.4962    0.0000 H   0  0  0  0  0  0  0  0  0  0  0  0
    6.0460   -2.4931    0.0000 H   0  0  0  0  0  0  0  0  0  0  0  0
    4.2324    0.5730    0.0000 H   0  0  0  0  0  0  0  0  0  0  0  0
    3.4343    0.5884    0.0000 H   0  0  0  0  0  0  0  0  0  0  0  0
    8.0883   -0.8226    0.0000 H   0  0  0  0  0  0  0  0  0  0  0  0
    8.8767   -0.5649    0.0000 H   0  0  0  0  0  0  0  0  0  0  0  0
    3.4103   -2.5251    0.0000 H   0  0  0  0  0  0  0  0  0  0  0  0
    4.2085   -2.5220    0.0000 H   0  0  0  0  0  0  0  0  0  0  0  0
    5.3787    0.5374    0.0000 H   0  0  0  0  0  0  0  0  0  0  0  0
    4.7635    1.1622    0.0000 H   0  0  0  0  0  0  0  0  0  0  0  0
    4.1388    0.5470    0.0000 H   0  0  0  0  0  0  0  0  0  0  0  0
    8.5319    1.9431    0.0000 H   0  0  0  0  0  0  0  0  0  0  0  0
    2.6718    0.1637    0.0000 H   0  0  0  0  0  0  0  0  0  0  0  0
    2.2647   -0.5230    0.0000 H   0  0  0  0  0  0  0  0  0  0  0  0
    8.0131    2.0491    0.0000 H   0  0  0  0  0  0  0  0  0  0  0  0
    7.3931    2.6691    0.0000 H   0  0  0  0  0  0  0  0  0  0  0  0
    6.7731    2.0491    0.0000 H   0  0  0  0  0  0  0  0  0  0  0  0
    9.5429    0.5491    0.0000 H   0  0  0  0  0  0  0  0  0  0  0  0
  1 20  2  0  0  0  0
  2  3  1  0  0  0  0
  2  4  1  0  0  0  0
  2  8  1  0  0  0  0
  2 21  1  0  0  0  0
  3  5  1  0  0  0  0
  3  9  1  0  0  0  0
  3 22  1  0  0  0  0
  4  6  1  0  0  0  0
  4 12  1  0  0  0  0
  4 15  1  0  0  0  0
  5  7  1  0  0  0  0
  5 13  1  0  0  0  0
  5 23  1  0  0  0  0
  6 11  1  0  0  0  0
  6 14  1  0  0  0  0
  6 24  1  0  0  0  0
  7 10  1  0  0  0  0
  7 16  1  0  0  0  0
  7 18  1  0  0  0  0
  8 10  1  0  0  0  0
  8 25  1  0  0  0  0
  8 26  1  0  0  0  0
  9 11  1  0  0  0  0
  9 27  1  0  0  0  0
  9 28  1  0  0  0  0
 10 29  1  0  0  0  0
 10 30  1  0  0  0  0
 11 31  1  0  0  0  0
 11 32  1  0  0  0  0
 12 17  1  0  0  0  0
 12 33  1  0  0  0  0
 12 34  1  0  0  0  0
 13 19  1  0  0  0  0
 13 35  1  0  0  0  0
 13 36  1  0  0  0  0
 14 20  1  0  0  0  0
 14 37  1  0  0  0  0
 14 38  1  0  0  0  0
 15 39  1  0  0  0  0
 15 40  1  0  0  0  0
 15 41  1  0  0  0  0
 16 19  2  0  0  0  0
 16 42  1  0  0  0  0
 17 20  1  0  0  0  0
 17 43  1  0  0  0  0
 17 44  1  0  0  0  0
 18 45  1  0  0  0  0
 18 46  1  0  0  0  0
 18 47  1  0  0  0  0
 19 48  1  0  0  0  0
M  END
>  <PUBCHEM_COMPOUND_CID>
86705

>  <PUBCHEM_COMPOUND_CANONICALIZED>
1

>  <PUBCHEM_CACTVS_COMPLEXITY>
464

>  <PUBCHEM_CACTVS_HBOND_ACCEPTOR>
1

>  <PUBCHEM_CACTVS_HBOND_DONOR>
0

>  <PUBCHEM_CACTVS_ROTATABLE_BOND>
0

>  <PUBCHEM_CACTVS_SUBSKEYS>
AAADceB4IAAAAAAAAAAAAAAAAAAAAQAAAAAwYMAAAAAAAEDAAAAAGgAAAAAADwSAgAACAAAAAACIAKBSAAAAAAAgAAAICAEAAAgAABIAAQAAAAAAgAAIAAMIiMCPgAAAAAAAAACAAAQAACAAAAAAAAAAAA==

>  <PUBCHEM_IUPAC_OPENEYE_NAME>
10,13-dimethyl-1,2,4,5,6,7,8,9,11,12,14,15-dodecahydrocyclopenta[a]phenanthren-3-one

>  <PUBCHEM_IUPAC_CAS_NAME>
10,13-dimethyl-1,2,4,5,6,7,8,9,11,12,14,15-dodecahydrocyclopenta[a]phenanthren-3-one

>  <PUBCHEM_IUPAC_NAME>
10,13-dimethyl-1,2,4,5,6,7,8,9,11,12,14,15-dodecahydrocyclopenta[a]phenanthren-3-one

>  <PUBCHEM_IUPAC_SYSTEMATIC_NAME>
10,13-dimethyl-1,2,4,5,6,7,8,9,11,12,14,15-dodecahydrocyclopenta[a]phenanthren-3-one

>  <PUBCHEM_IUPAC_TRADITIONAL_NAME>
10,13-dimethyl-1,2,4,5,6,7,8,9,11,12,14,15-dodecahydrocyclopenta[a]phenanthren-3-one

>  <PUBCHEM_IUPAC_INCHI>
InChI=1S/C19H28O/c1-18-9-3-4-16(18)15-6-5-13-12-14(20)7-11-19(13,2)17(15)8-10-18/h3,9,13,15-17H,4-8,10-12H2,1-2H3

>  <PUBCHEM_IUPAC_INCHIKEY>
HFVMLYAGWXSTQI-UHFFFAOYSA-N

>  <PUBCHEM_XLOGP3_AA>
4.9

>  <PUBCHEM_EXACT_MASS>
272.214

>  <PUBCHEM_MOLECULAR_FORMULA>
C19H28O

>  <PUBCHEM_MOLECULAR_WEIGHT>
272.432

>  <PUBCHEM_OPENEYE_CAN_SMILES>
CC12CCC3C(C1CC=C2)CCC4C3(CCC(=O)C4)C

>  <PUBCHEM_OPENEYE_ISO_SMILES>
CC12CCC3C(C1CC=C2)CCC4C3(CCC(=O)C4)C

>  <PUBCHEM_CACTVS_TPSA>
17.1

>  <PUBCHEM_MONOISOTOPIC_WEIGHT>
272.214

>  <PUBCHEM_TOTAL_CHARGE>
0

>  <PUBCHEM_HEAVY_ATOM_COUNT>
20

>  <PUBCHEM_ATOM_DEF_STEREO_COUNT>
0

>  <PUBCHEM_ATOM_UDEF_STEREO_COUNT>
6

>  <PUBCHEM_BOND_DEF_STEREO_COUNT>
0

>  <PUBCHEM_BOND_UDEF_STEREO_COUNT>
0

>  <PUBCHEM_ISOTOPIC_ATOM_COUNT>
0

>  <PUBCHEM_COMPONENT_COUNT>
1

>  <PUBCHEM_CACTVS_TAUTO_COUNT>
3

>  <PUBCHEM_COORDINATE_TYPE>
1
5
255

>  <PUBCHEM_BONDANNOTATIONS>
2  8  3
3  9  3
4  15  3
5  13  3
6  11  3
7  18  3

$$$$
