87443544
 OpenBabel06101807152D

 65 65  0  0  1  0  0  0  0  0999 V2000
    3.8660   -7.3450    0.0000 O   0  0  0  0  0  0  0  0  0  0  0  0
   10.7942    7.6550    0.0000 O   0  0  0  0  0  0  0  0  0  0  0  0
    3.0000   -4.8450    0.0000 C   0  0  0  0  0  0  0  0  0  0  0  0
    3.0000   -5.8450    0.0000 C   0  0  0  0  0  0  0  0  0  0  0  0
    3.8660   -6.3450    0.0000 C   0  0  3  0  0  0  0  0  0  0  0  0
    3.8660   -4.3450    0.0000 C   0  0  0  0  0  0  0  0  0  0  0  0
    4.7320   -5.8450    0.0000 C   0  0  0  0  0  0  0  0  0  0  0  0
    4.7320   -4.8450    0.0000 C   0  0  0  0  0  0  0  0  0  0  0  0
    2.0000   -4.8450    0.0000 C   0  0  0  0  0  0  0  0  0  0  0  0
    2.5000   -3.9790    0.0000 C   0  0  0  0  0  0  0  0  0  0  0  0
    3.8660   -3.3450    0.0000 C   0  0  0  0  0  0  0  0  0  0  0  0
    5.5981   -4.3450    0.0000 C   0  0  0  0  0  0  0  0  0  0  0  0
    4.7320   -2.8450    0.0000 C   0  0  0  0  0  0  0  0  0  0  0  0
    4.7320   -1.8450    0.0000 C   0  0  0  0  0  0  0  0  0  0  0  0
    3.8660   -1.3450    0.0000 C   0  0  0  0  0  0  0  0  0  0  0  0
    5.5981   -1.3450    0.0000 C   0  0  0  0  0  0  0  0  0  0  0  0
    5.5981   -0.3450    0.0000 C   0  0  0  0  0  0  0  0  0  0  0  0
    6.4641    0.1550    0.0000 C   0  0  0  0  0  0  0  0  0  0  0  0
    6.4641    1.1550    0.0000 C   0  0  0  0  0  0  0  0  0  0  0  0
    5.5981    1.6550    0.0000 C   0  0  0  0  0  0  0  0  0  0  0  0
    7.3301    1.6550    0.0000 C   0  0  0  0  0  0  0  0  0  0  0  0
    7.3301    2.6550    0.0000 C   0  0  0  0  0  0  0  0  0  0  0  0
    8.1962    3.1550    0.0000 C   0  0  0  0  0  0  0  0  0  0  0  0
    8.1962    4.1550    0.0000 C   0  0  0  0  0  0  0  0  0  0  0  0
    9.0622    4.6550    0.0000 C   0  0  0  0  0  0  0  0  0  0  0  0
    9.9282    4.1550    0.0000 C   0  0  0  0  0  0  0  0  0  0  0  0
    9.0622    5.6550    0.0000 C   0  0  0  0  0  0  0  0  0  0  0  0
    9.9282    6.1550    0.0000 C   0  0  0  0  0  0  0  0  0  0  0  0
    9.9282    7.1550    0.0000 C   0  0  0  0  0  0  0  0  0  0  0  0
    2.3894   -5.7373    0.0000 H   0  0  0  0  0  0  0  0  0  0  0  0
    2.7880   -6.4276    0.0000 H   0  0  0  0  0  0  0  0  0  0  0  0
    4.4030   -6.6550    0.0000 H   0  0  0  0  0  0  0  0  0  0  0  0
    4.9441   -6.4276    0.0000 H   0  0  0  0  0  0  0  0  0  0  0  0
    5.3426   -5.7373    0.0000 H   0  0  0  0  0  0  0  0  0  0  0  0
    2.0000   -4.2250    0.0000 H   0  0  0  0  0  0  0  0  0  0  0  0
    1.3800   -4.8450    0.0000 H   0  0  0  0  0  0  0  0  0  0  0  0
    2.0000   -5.4650    0.0000 H   0  0  0  0  0  0  0  0  0  0  0  0
    3.0369   -3.6690    0.0000 H   0  0  0  0  0  0  0  0  0  0  0  0
    2.1900   -3.4420    0.0000 H   0  0  0  0  0  0  0  0  0  0  0  0
    1.9631   -4.2890    0.0000 H   0  0  0  0  0  0  0  0  0  0  0  0
    3.3291   -3.0350    0.0000 H   0  0  0  0  0  0  0  0  0  0  0  0
    5.9081   -4.8819    0.0000 H   0  0  0  0  0  0  0  0  0  0  0  0
    6.1350   -4.0350    0.0000 H   0  0  0  0  0  0  0  0  0  0  0  0
    5.2881   -3.8081    0.0000 H   0  0  0  0  0  0  0  0  0  0  0  0
    4.4030   -7.6550    0.0000 H   0  0  0  0  0  0  0  0  0  0  0  0
    5.2690   -3.1550    0.0000 H   0  0  0  0  0  0  0  0  0  0  0  0
    4.1760   -0.8081    0.0000 H   0  0  0  0  0  0  0  0  0  0  0  0
    3.3291   -1.0350    0.0000 H   0  0  0  0  0  0  0  0  0  0  0  0
    3.5560   -1.8819    0.0000 H   0  0  0  0  0  0  0  0  0  0  0  0
    6.1350   -1.6550    0.0000 H   0  0  0  0  0  0  0  0  0  0  0  0
    5.0611   -0.0350    0.0000 H   0  0  0  0  0  0  0  0  0  0  0  0
    7.0010   -0.1550    0.0000 H   0  0  0  0  0  0  0  0  0  0  0  0
    5.9081    2.1919    0.0000 H   0  0  0  0  0  0  0  0  0  0  0  0
    5.0611    1.9650    0.0000 H   0  0  0  0  0  0  0  0  0  0  0  0
    5.2881    1.1181    0.0000 H   0  0  0  0  0  0  0  0  0  0  0  0
    7.8671    1.3450    0.0000 H   0  0  0  0  0  0  0  0  0  0  0  0
    6.7932    2.9650    0.0000 H   0  0  0  0  0  0  0  0  0  0  0  0
    8.7331    2.8450    0.0000 H   0  0  0  0  0  0  0  0  0  0  0  0
    7.6592    4.4650    0.0000 H   0  0  0  0  0  0  0  0  0  0  0  0
    9.6182    3.6181    0.0000 H   0  0  0  0  0  0  0  0  0  0  0  0
   10.4651    3.8450    0.0000 H   0  0  0  0  0  0  0  0  0  0  0  0
   10.2382    4.6919    0.0000 H   0  0  0  0  0  0  0  0  0  0  0  0
    8.5252    5.9650    0.0000 H   0  0  0  0  0  0  0  0  0  0  0  0
   10.4651    5.8450    0.0000 H   0  0  0  0  0  0  0  0  0  0  0  0
    9.3913    7.4650    0.0000 H   0  0  0  0  0  0  0  0  0  0  0  0
  1  5  1  0  0  0  0
  1 45  1  0  0  0  0
  2 29  2  0  0  0  0
  3  4  1  0  0  0  0
  3  6  1  0  0  0  0
  3  9  1  0  0  0  0
  3 10  1  0  0  0  0
  4  5  1  0  0  0  0
  4 30  1  0  0  0  0
  4 31  1  0  0  0  0
  5  7  1  0  0  0  0
  5 32  1  0  0  0  0
  6  8  2  0  0  0  0
  6 11  1  0  0  0  0
  7  8  1  0  0  0  0
  7 33  1  0  0  0  0
  7 34  1  0  0  0  0
  8 12  1  0  0  0  0
  9 35  1  0  0  0  0
  9 36  1  0  0  0  0
  9 37  1  0  0  0  0
 10 38  1  0  0  0  0
 10 39  1  0  0  0  0
 10 40  1  0  0  0  0
 11 13  2  0  0  0  0
 11 41  1  0  0  0  0
 12 42  1  0  0  0  0
 12 43  1  0  0  0  0
 12 44  1  0  0  0  0
 13 14  1  0  0  0  0
 13 46  1  0  0  0  0
 14 15  1  0  0  0  0
 14 16  2  0  0  0  0
 15 47  1  0  0  0  0
 15 48  1  0  0  0  0
 15 49  1  0  0  0  0
 16 17  1  0  0  0  0
 16 50  1  0  0  0  0
 17 18  2  0  0  0  0
 17 51  1  0  0  0  0
 18 19  1  0  0  0  0
 18 52  1  0  0  0  0
 19 20  1  0  0  0  0
 19 21  2  0  0  0  0
 20 53  1  0  0  0  0
 20 54  1  0  0  0  0
 20 55  1  0  0  0  0
 21 22  1  0  0  0  0
 21 56  1  0  0  0  0
 22 23  2  0  0  0  0
 22 57  1  0  0  0  0
 23 24  1  0  0  0  0
 23 58  1  0  0  0  0
 24 25  2  0  0  0  0
 24 59  1  0  0  0  0
 25 26  1  0  0  0  0
 25 27  1  0  0  0  0
 26 60  1  0  0  0  0
 26 61  1  0  0  0  0
 26 62  1  0  0  0  0
 27 28  2  0  0  0  0
 27 63  1  0  0  0  0
 28 29  1  0  0  0  0
 28 64  1  0  0  0  0
 29 65  1  0  0  0  0
M  END
>  <PUBCHEM_COMPOUND_CID>
87443544

>  <PUBCHEM_COMPOUND_CANONICALIZED>
1

>  <PUBCHEM_CACTVS_COMPLEXITY>
806

>  <PUBCHEM_CACTVS_HBOND_ACCEPTOR>
2

>  <PUBCHEM_CACTVS_HBOND_DONOR>
1

>  <PUBCHEM_CACTVS_ROTATABLE_BOND>
8

>  <PUBCHEM_CACTVS_SUBSKEYS>
AAADcfB4MAAAAAAAAAAAAAAAAAAAAAAAAAAgAAAAAAAAAAAAAAAAGgAACAAADhSggAICAAAAAgCIAihSgAAAAAAgAAAICAAAAEgIEAIAAQAAQAAEwAAIgYOAgMAPAAAAAAAAAAAAAAAAAAAAAAAAAAAAAA==

>  <PUBCHEM_IUPAC_OPENEYE_NAME>
(2E,4E,6E,8E,10E,12E,14E)-15-(4-hydroxy-2,6,6-trimethyl-cyclohexen-1-yl)-4,9,13-trimethyl-pentadeca-2,4,6,8,10,12,14-heptaenal

>  <PUBCHEM_IUPAC_CAS_NAME>
(2E,4E,6E,8E,10E,12E,14E)-15-(4-hydroxy-2,6,6-trimethyl-1-cyclohexenyl)-4,9,13-trimethylpentadeca-2,4,6,8,10,12,14-heptaenal

>  <PUBCHEM_IUPAC_NAME>
(2E,4E,6E,8E,10E,12E,14E)-15-(4-hydroxy-2,6,6-trimethylcyclohexen-1-yl)-4,9,13-trimethylpentadeca-2,4,6,8,10,12,14-heptaenal

>  <PUBCHEM_IUPAC_SYSTEMATIC_NAME>
(2E,4E,6E,8E,10E,12E,14E)-4,9,13-trimethyl-15-(2,6,6-trimethyl-4-oxidanyl-cyclohexen-1-yl)pentadeca-2,4,6,8,10,12,14-heptaenal

>  <PUBCHEM_IUPAC_TRADITIONAL_NAME>
(2E,4E,6E,8E,10E,12E,14E)-15-(4-hydroxy-2,6,6-trimethyl-cyclohexen-1-yl)-4,9,13-trimethyl-pentadeca-2,4,6,8,10,12,14-heptaenal

>  <PUBCHEM_IUPAC_INCHI>
InChI=1S/C27H36O2/c1-21(11-7-8-12-22(2)15-10-18-28)13-9-14-23(3)16-17-26-24(4)19-25(29)20-27(26,5)6/h7-18,25,29H,19-20H2,1-6H3/b8-7+,13-9+,15-10+,17-16+,21-11+,22-12+,23-14+

>  <PUBCHEM_IUPAC_INCHIKEY>
HQPQTQQUHPFUOA-JNOJMRGUSA-N

>  <PUBCHEM_XLOGP3_AA>
7.1

>  <PUBCHEM_EXACT_MASS>
392.272

>  <PUBCHEM_MOLECULAR_FORMULA>
C27H36O2

>  <PUBCHEM_MOLECULAR_WEIGHT>
392.583

>  <PUBCHEM_OPENEYE_CAN_SMILES>
CC1=C(C(CC(C1)O)(C)C)C=CC(=CC=CC(=CC=CC=C(C)C=CC=O)C)C

>  <PUBCHEM_OPENEYE_ISO_SMILES>
CC1=C(C(CC(C1)O)(C)C)/C=C/C(=C/C=C/C(=C/C=C/C=C(\C)/C=C/C=O)/C)/C

>  <PUBCHEM_CACTVS_TPSA>
37.3

>  <PUBCHEM_MONOISOTOPIC_WEIGHT>
392.272

>  <PUBCHEM_TOTAL_CHARGE>
0

>  <PUBCHEM_HEAVY_ATOM_COUNT>
29

>  <PUBCHEM_ATOM_DEF_STEREO_COUNT>
0

>  <PUBCHEM_ATOM_UDEF_STEREO_COUNT>
1

>  <PUBCHEM_BOND_DEF_STEREO_COUNT>
7

>  <PUBCHEM_BOND_UDEF_STEREO_COUNT>
0

>  <PUBCHEM_ISOTOPIC_ATOM_COUNT>
0

>  <PUBCHEM_COMPONENT_COUNT>
1

>  <PUBCHEM_CACTVS_TAUTO_COUNT>
1

>  <PUBCHEM_COORDINATE_TYPE>
1
5
255

>  <PUBCHEM_BONDANNOTATIONS>
5  1  3

$$$$
