87442367
 OpenBabel06101807152D

 97 98  0  0  1  0  0  0  0  0999 V2000
   13.8923    9.6830    0.0000 O   0  0  0  0  0  0  0  0  0  0  0  0
   12.8923    9.6830    0.0000 C   0  0  0  0  0  0  0  0  0  0  0  0
   13.3923    8.8170    0.0000 C   0  0  3  0  0  0  0  0  0  0  0  0
   13.3923    7.8170    0.0000 C   0  0  0  0  0  0  0  0  0  0  0  0
   12.8923   10.6830    0.0000 C   0  0  0  0  0  0  0  0  0  0  0  0
   12.0263    9.1830    0.0000 C   0  0  0  0  0  0  0  0  0  0  0  0
   12.5263    7.3170    0.0000 C   0  0  0  0  0  0  0  0  0  0  0  0
    3.0000   -9.1830    0.0000 C   0  0  0  0  0  0  0  0  0  0  0  0
    3.0000  -10.1830    0.0000 C   0  0  0  0  0  0  0  0  0  0  0  0
    3.8660  -10.6830    0.0000 C   0  0  0  0  0  0  0  0  0  0  0  0
    3.8660   -8.6830    0.0000 C   0  0  0  0  0  0  0  0  0  0  0  0
   12.5263    6.3170    0.0000 C   0  0  0  0  0  0  0  0  0  0  0  0
    4.7320  -10.1830    0.0000 C   0  0  0  0  0  0  0  0  0  0  0  0
    4.7320   -9.1830    0.0000 C   0  0  0  0  0  0  0  0  0  0  0  0
    2.0000   -9.1830    0.0000 C   0  0  0  0  0  0  0  0  0  0  0  0
    2.5000   -8.3170    0.0000 C   0  0  0  0  0  0  0  0  0  0  0  0
    3.8660   -7.6830    0.0000 C   0  0  0  0  0  0  0  0  0  0  0  0
   13.3923    5.8170    0.0000 C   0  0  0  0  0  0  0  0  0  0  0  0
    5.5981   -8.6830    0.0000 C   0  0  0  0  0  0  0  0  0  0  0  0
   11.6603    5.8170    0.0000 C   0  0  0  0  0  0  0  0  0  0  0  0
    4.7320   -7.1830    0.0000 C   0  0  0  0  0  0  0  0  0  0  0  0
   11.6603    4.8170    0.0000 C   0  0  0  0  0  0  0  0  0  0  0  0
    4.7320   -6.1830    0.0000 C   0  0  0  0  0  0  0  0  0  0  0  0
   10.7942    4.3170    0.0000 C   0  0  0  0  0  0  0  0  0  0  0  0
    3.8660   -5.6830    0.0000 C   0  0  0  0  0  0  0  0  0  0  0  0
    5.5981   -5.6830    0.0000 C   0  0  0  0  0  0  0  0  0  0  0  0
   10.7942    3.3170    0.0000 C   0  0  0  0  0  0  0  0  0  0  0  0
    5.5981   -4.6830    0.0000 C   0  0  0  0  0  0  0  0  0  0  0  0
   11.6603    2.8170    0.0000 C   0  0  0  0  0  0  0  0  0  0  0  0
    9.9282    2.8170    0.0000 C   0  0  0  0  0  0  0  0  0  0  0  0
    6.4641   -4.1830    0.0000 C   0  0  0  0  0  0  0  0  0  0  0  0
    9.9282    1.8170    0.0000 C   0  0  0  0  0  0  0  0  0  0  0  0
    6.4641   -3.1830    0.0000 C   0  0  0  0  0  0  0  0  0  0  0  0
    9.0622    1.3170    0.0000 C   0  0  0  0  0  0  0  0  0  0  0  0
    5.5981   -2.6830    0.0000 C   0  0  0  0  0  0  0  0  0  0  0  0
    7.3301   -2.6830    0.0000 C   0  0  0  0  0  0  0  0  0  0  0  0
    9.0622    0.3170    0.0000 C   0  0  0  0  0  0  0  0  0  0  0  0
    7.3301   -1.6830    0.0000 C   0  0  0  0  0  0  0  0  0  0  0  0
    8.1962   -0.1830    0.0000 C   0  0  0  0  0  0  0  0  0  0  0  0
    8.1962   -1.1830    0.0000 C   0  0  0  0  0  0  0  0  0  0  0  0
    9.9282   -0.1830    0.0000 C   0  0  0  0  0  0  0  0  0  0  0  0
   13.9912    8.6565    0.0000 H   0  0  0  0  0  0  0  0  0  0  0  0
   13.6044    7.2344    0.0000 H   0  0  0  0  0  0  0  0  0  0  0  0
   14.0029    7.9246    0.0000 H   0  0  0  0  0  0  0  0  0  0  0  0
   13.5123   10.6830    0.0000 H   0  0  0  0  0  0  0  0  0  0  0  0
   12.8923   11.3030    0.0000 H   0  0  0  0  0  0  0  0  0  0  0  0
   12.2723   10.6830    0.0000 H   0  0  0  0  0  0  0  0  0  0  0  0
   11.7163    9.7200    0.0000 H   0  0  0  0  0  0  0  0  0  0  0  0
   11.4893    8.8730    0.0000 H   0  0  0  0  0  0  0  0  0  0  0  0
   12.3363    8.6461    0.0000 H   0  0  0  0  0  0  0  0  0  0  0  0
   12.3142    7.8996    0.0000 H   0  0  0  0  0  0  0  0  0  0  0  0
   11.9157    7.2093    0.0000 H   0  0  0  0  0  0  0  0  0  0  0  0
    2.3894  -10.0754    0.0000 H   0  0  0  0  0  0  0  0  0  0  0  0
    2.7880  -10.7656    0.0000 H   0  0  0  0  0  0  0  0  0  0  0  0
    3.4675  -11.1580    0.0000 H   0  0  0  0  0  0  0  0  0  0  0  0
    4.2646  -11.1580    0.0000 H   0  0  0  0  0  0  0  0  0  0  0  0
    4.9441  -10.7656    0.0000 H   0  0  0  0  0  0  0  0  0  0  0  0
    5.3426  -10.0754    0.0000 H   0  0  0  0  0  0  0  0  0  0  0  0
    2.0000   -8.5630    0.0000 H   0  0  0  0  0  0  0  0  0  0  0  0
    1.3800   -9.1830    0.0000 H   0  0  0  0  0  0  0  0  0  0  0  0
    3.0369   -8.0070    0.0000 H   0  0  0  0  0  0  0  0  0  0  0  0
    2.1900   -7.7800    0.0000 H   0  0  0  0  0  0  0  0  0  0  0  0
    1.9631   -8.6270    0.0000 H   0  0  0  0  0  0  0  0  0  0  0  0
    2.0000   -9.8030    0.0000 H   0  0  0  0  0  0  0  0  0  0  0  0
    3.3291   -7.3730    0.0000 H   0  0  0  0  0  0  0  0  0  0  0  0
   13.0823    5.2800    0.0000 H   0  0  0  0  0  0  0  0  0  0  0  0
   13.9292    5.5070    0.0000 H   0  0  0  0  0  0  0  0  0  0  0  0
   13.7023    6.3539    0.0000 H   0  0  0  0  0  0  0  0  0  0  0  0
    5.9081   -9.2200    0.0000 H   0  0  0  0  0  0  0  0  0  0  0  0
    6.1350   -8.3730    0.0000 H   0  0  0  0  0  0  0  0  0  0  0  0
    5.2881   -8.1461    0.0000 H   0  0  0  0  0  0  0  0  0  0  0  0
   11.1233    6.1270    0.0000 H   0  0  0  0  0  0  0  0  0  0  0  0
    5.2690   -7.4930    0.0000 H   0  0  0  0  0  0  0  0  0  0  0  0
   12.1972    4.5070    0.0000 H   0  0  0  0  0  0  0  0  0  0  0  0
   10.2573    4.6270    0.0000 H   0  0  0  0  0  0  0  0  0  0  0  0
    4.1760   -5.1461    0.0000 H   0  0  0  0  0  0  0  0  0  0  0  0
    3.3291   -5.3730    0.0000 H   0  0  0  0  0  0  0  0  0  0  0  0
    3.5560   -6.2200    0.0000 H   0  0  0  0  0  0  0  0  0  0  0  0
    6.1350   -5.9930    0.0000 H   0  0  0  0  0  0  0  0  0  0  0  0
    5.0611   -4.3730    0.0000 H   0  0  0  0  0  0  0  0  0  0  0  0
   11.3503    2.2800    0.0000 H   0  0  0  0  0  0  0  0  0  0  0  0
   12.1972    2.5070    0.0000 H   0  0  0  0  0  0  0  0  0  0  0  0
   11.9703    3.3539    0.0000 H   0  0  0  0  0  0  0  0  0  0  0  0
    9.3913    3.1270    0.0000 H   0  0  0  0  0  0  0  0  0  0  0  0
    7.0010   -4.4930    0.0000 H   0  0  0  0  0  0  0  0  0  0  0  0
   10.4651    1.5070    0.0000 H   0  0  0  0  0  0  0  0  0  0  0  0
    8.5252    1.6270    0.0000 H   0  0  0  0  0  0  0  0  0  0  0  0
    5.9081   -2.1461    0.0000 H   0  0  0  0  0  0  0  0  0  0  0  0
    5.0611   -2.3730    0.0000 H   0  0  0  0  0  0  0  0  0  0  0  0
    5.2881   -3.2200    0.0000 H   0  0  0  0  0  0  0  0  0  0  0  0
    7.8671   -2.9930    0.0000 H   0  0  0  0  0  0  0  0  0  0  0  0
    6.7932   -1.3730    0.0000 H   0  0  0  0  0  0  0  0  0  0  0  0
    7.6592    0.1270    0.0000 H   0  0  0  0  0  0  0  0  0  0  0  0
    8.7331   -1.4930    0.0000 H   0  0  0  0  0  0  0  0  0  0  0  0
    9.6182   -0.7199    0.0000 H   0  0  0  0  0  0  0  0  0  0  0  0
   10.4651   -0.4930    0.0000 H   0  0  0  0  0  0  0  0  0  0  0  0
   10.2382    0.3539    0.0000 H   0  0  0  0  0  0  0  0  0  0  0  0
  1  2  1  0  0  0  0
  1  3  1  0  0  0  0
  2  3  1  0  0  0  0
  2  5  1  0  0  0  0
  2  6  1  0  0  0  0
  3  4  1  0  0  0  0
  3 42  1  0  0  0  0
  4  7  1  0  0  0  0
  4 43  1  0  0  0  0
  4 44  1  0  0  0  0
  5 45  1  0  0  0  0
  5 46  1  0  0  0  0
  5 47  1  0  0  0  0
  6 48  1  0  0  0  0
  6 49  1  0  0  0  0
  6 50  1  0  0  0  0
  7 12  1  0  0  0  0
  7 51  1  0  0  0  0
  7 52  1  0  0  0  0
  8  9  1  0  0  0  0
  8 11  1  0  0  0  0
  8 15  1  0  0  0  0
  8 16  1  0  0  0  0
  9 10  1  0  0  0  0
  9 53  1  0  0  0  0
  9 54  1  0  0  0  0
 10 13  1  0  0  0  0
 10 55  1  0  0  0  0
 10 56  1  0  0  0  0
 11 14  2  0  0  0  0
 11 17  1  0  0  0  0
 12 18  1  0  0  0  0
 12 20  2  0  0  0  0
 13 14  1  0  0  0  0
 13 57  1  0  0  0  0
 13 58  1  0  0  0  0
 14 19  1  0  0  0  0
 15 59  1  0  0  0  0
 15 60  1  0  0  0  0
 15 64  1  0  0  0  0
 16 61  1  0  0  0  0
 16 62  1  0  0  0  0
 16 63  1  0  0  0  0
 17 21  2  0  0  0  0
 17 65  1  0  0  0  0
 18 66  1  0  0  0  0
 18 67  1  0  0  0  0
 18 68  1  0  0  0  0
 19 69  1  0  0  0  0
 19 70  1  0  0  0  0
 19 71  1  0  0  0  0
 20 22  1  0  0  0  0
 20 72  1  0  0  0  0
 21 23  1  0  0  0  0
 21 73  1  0  0  0  0
 22 24  2  0  0  0  0
 22 74  1  0  0  0  0
 23 25  1  0  0  0  0
 23 26  2  0  0  0  0
 24 27  1  0  0  0  0
 24 75  1  0  0  0  0
 25 76  1  0  0  0  0
 25 77  1  0  0  0  0
 25 78  1  0  0  0  0
 26 28  1  0  0  0  0
 26 79  1  0  0  0  0
 27 29  1  0  0  0  0
 27 30  2  0  0  0  0
 28 31  2  0  0  0  0
 28 80  1  0  0  0  0
 29 81  1  0  0  0  0
 29 82  1  0  0  0  0
 29 83  1  0  0  0  0
 30 32  1  0  0  0  0
 30 84  1  0  0  0  0
 31 33  1  0  0  0  0
 31 85  1  0  0  0  0
 32 34  2  0  0  0  0
 32 86  1  0  0  0  0
 33 35  1  0  0  0  0
 33 36  2  0  0  0  0
 34 37  1  0  0  0  0
 34 87  1  0  0  0  0
 35 88  1  0  0  0  0
 35 89  1  0  0  0  0
 35 90  1  0  0  0  0
 36 38  1  0  0  0  0
 36 91  1  0  0  0  0
 37 39  2  0  0  0  0
 37 41  1  0  0  0  0
 38 40  2  0  0  0  0
 38 92  1  0  0  0  0
 39 40  1  0  0  0  0
 39 93  1  0  0  0  0
 40 94  1  0  0  0  0
 41 95  1  0  0  0  0
 41 96  1  0  0  0  0
 41 97  1  0  0  0  0
M  END
>  <PUBCHEM_COMPOUND_CID>
87442367

>  <PUBCHEM_COMPOUND_CANONICALIZED>
1

>  <PUBCHEM_CACTVS_COMPLEXITY>
1220

>  <PUBCHEM_CACTVS_HBOND_ACCEPTOR>
1

>  <PUBCHEM_CACTVS_HBOND_DONOR>
0

>  <PUBCHEM_CACTVS_ROTATABLE_BOND>
13

>  <PUBCHEM_CACTVS_SUBSKEYS>
AAADcfB8IAAAAAAAAAAAAAAAEgAAAAAAAAAgAAAAAAAAAAAAAAAAGgAAAAAADlSggAICAAAABACAAiBCAAAAAAAgAAAICAAAAAgIAAIAAQACAAAEgAAIgAOAwMAPAAAAAAAAAAAAAAAAAAAAAAAAAAAAAA==

>  <PUBCHEM_IUPAC_OPENEYE_NAME>
2,2-dimethyl-3-[(3E,5E,7E,9E,11E,13E,15E,17E,19E,21E)-3,7,11,16,20-pentamethyl-22-(2,6,6-trimethylcyclohexen-1-yl)docosa-3,5,7,9,11,13,15,17,19,21-decaenyl]oxirane

>  <PUBCHEM_IUPAC_CAS_NAME>
2,2-dimethyl-3-[(3E,5E,7E,9E,11E,13E,15E,17E,19E,21E)-3,7,11,16,20-pentamethyl-22-(2,6,6-trimethyl-1-cyclohexenyl)docosa-3,5,7,9,11,13,15,17,19,21-decaenyl]oxirane

>  <PUBCHEM_IUPAC_NAME>
2,2-dimethyl-3-[(3E,5E,7E,9E,11E,13E,15E,17E,19E,21E)-3,7,11,16,20-pentamethyl-22-(2,6,6-trimethylcyclohexen-1-yl)docosa-3,5,7,9,11,13,15,17,19,21-decaenyl]oxirane

>  <PUBCHEM_IUPAC_SYSTEMATIC_NAME>
2,2-dimethyl-3-[(3E,5E,7E,9E,11E,13E,15E,17E,19E,21E)-3,7,11,16,20-pentamethyl-22-(2,6,6-trimethylcyclohexen-1-yl)docosa-3,5,7,9,11,13,15,17,19,21-decaenyl]oxirane

>  <PUBCHEM_IUPAC_TRADITIONAL_NAME>
2,2-dimethyl-3-[(3E,5E,7E,9E,11E,13E,15E,17E,19E,21E)-3,7,11,16,20-pentamethyl-22-(2,6,6-trimethylcyclohexen-1-yl)docosa-3,5,7,9,11,13,15,17,19,21-decaenyl]oxirane

>  <PUBCHEM_IUPAC_INCHI>
InChI=1S/C40H56O/c1-31(19-13-21-33(3)22-15-24-35(5)27-29-38-40(9,10)41-38)17-11-12-18-32(2)20-14-23-34(4)26-28-37-36(6)25-16-30-39(37,7)8/h11-15,17-24,26,28,38H,16,25,27,29-30H2,1-10H3/b12-11+,19-13+,20-14+,22-15+,28-26+,31-17+,32-18+,33-21+,34-23+,35-24+

>  <PUBCHEM_IUPAC_INCHIKEY>
SELMQMFULRQVFS-AACGPBLISA-N

>  <PUBCHEM_XLOGP3>
13.2

>  <PUBCHEM_EXACT_MASS>
552.433

>  <PUBCHEM_MOLECULAR_FORMULA>
C40H56O

>  <PUBCHEM_MOLECULAR_WEIGHT>
552.887

>  <PUBCHEM_OPENEYE_CAN_SMILES>
CC1=C(C(CCC1)(C)C)C=CC(=CC=CC(=CC=CC=C(C)C=CC=C(C)C=CC=C(C)CCC2C(O2)(C)C)C)C

>  <PUBCHEM_OPENEYE_ISO_SMILES>
CC1=C(C(CCC1)(C)C)/C=C/C(=C/C=C/C(=C/C=C/C=C(\C)/C=C/C=C(\C)/C=C/C=C(\C)/CCC2C(O2)(C)C)/C)/C

>  <PUBCHEM_CACTVS_TPSA>
12.5

>  <PUBCHEM_MONOISOTOPIC_WEIGHT>
552.433

>  <PUBCHEM_TOTAL_CHARGE>
0

>  <PUBCHEM_HEAVY_ATOM_COUNT>
41

>  <PUBCHEM_ATOM_DEF_STEREO_COUNT>
0

>  <PUBCHEM_ATOM_UDEF_STEREO_COUNT>
1

>  <PUBCHEM_BOND_DEF_STEREO_COUNT>
10

>  <PUBCHEM_BOND_UDEF_STEREO_COUNT>
0

>  <PUBCHEM_ISOTOPIC_ATOM_COUNT>
0

>  <PUBCHEM_COMPONENT_COUNT>
1

>  <PUBCHEM_CACTVS_TAUTO_COUNT>
1

>  <PUBCHEM_COORDINATE_TYPE>
1
5
255

>  <PUBCHEM_BONDANNOTATIONS>
3  4  3

$$$$
