87656835
 OpenBabel06101807152D

 30 30  0  0  1  0  0  0  0  0999 V2000
   10.2942   -2.1830    0.0000 O   0  0  0  0  0  0  0  0  0  0  0  0
   14.2583   -1.3170    0.0000 O   0  0  0  0  0  0  0  0  0  0  0  0
   10.7942   -1.3170    0.0000 C   0  0  3  0  0  0  0  0  0  0  0  0
    9.7942   -1.3170    0.0000 C   0  0  3  0  0  0  0  0  0  0  0  0
   11.6603   -0.8170    0.0000 C   0  0  0  0  0  0  0  0  0  0  0  0
   12.5263   -1.3170    0.0000 C   0  0  0  0  0  0  0  0  0  0  0  0
    8.9282   -0.8170    0.0000 C   0  0  0  0  0  0  0  0  0  0  0  0
   13.3923   -0.8170    0.0000 C   0  0  0  0  0  0  0  0  0  0  0  0
    8.0622   -1.3170    0.0000 C   0  0  0  0  0  0  0  0  0  0  0  0
    7.1962   -0.8170    0.0000 C   0  0  0  0  0  0  0  0  0  0  0  0
    6.3301   -0.3170    0.0000 C   0  0  0  0  0  0  0  0  0  0  0  0
    5.4641    0.1830    0.0000 C   0  0  0  0  0  0  0  0  0  0  0  0
    4.5981    0.6830    0.0000 C   0  0  0  0  0  0  0  0  0  0  0  0
    3.7320    1.1830    0.0000 C   0  0  0  0  0  0  0  0  0  0  0  0
    2.0000    2.1830    0.0000 C   0  0  0  0  0  0  0  0  0  0  0  0
    2.8660    1.6830    0.0000 C   0  0  0  0  0  0  0  0  0  0  0  0
   11.2326   -1.7554    0.0000 H   0  0  0  0  0  0  0  0  0  0  0  0
    9.3558   -1.7554    0.0000 H   0  0  0  0  0  0  0  0  0  0  0  0
   12.0588   -0.3420    0.0000 H   0  0  0  0  0  0  0  0  0  0  0  0
   11.2617   -0.3420    0.0000 H   0  0  0  0  0  0  0  0  0  0  0  0
   12.1278   -1.7919    0.0000 H   0  0  0  0  0  0  0  0  0  0  0  0
   12.9248   -1.7919    0.0000 H   0  0  0  0  0  0  0  0  0  0  0  0
    8.9282   -0.1970    0.0000 H   0  0  0  0  0  0  0  0  0  0  0  0
   13.7908   -0.3420    0.0000 H   0  0  0  0  0  0  0  0  0  0  0  0
   12.9938   -0.3420    0.0000 H   0  0  0  0  0  0  0  0  0  0  0  0
    8.0622   -1.9370    0.0000 H   0  0  0  0  0  0  0  0  0  0  0  0
   14.7953   -1.0070    0.0000 H   0  0  0  0  0  0  0  0  0  0  0  0
    2.3100    2.7200    0.0000 H   0  0  0  0  0  0  0  0  0  0  0  0
    1.4631    2.4930    0.0000 H   0  0  0  0  0  0  0  0  0  0  0  0
    1.6900    1.6461    0.0000 H   0  0  0  0  0  0  0  0  0  0  0  0
  1  3  1  0  0  0  0
  1  4  1  0  0  0  0
  2  8  1  0  0  0  0
  2 27  1  0  0  0  0
  3  4  1  0  0  0  0
  3  5  1  0  0  0  0
  3 17  1  0  0  0  0
  4  7  1  0  0  0  0
  4 18  1  0  0  0  0
  5  6  1  0  0  0  0
  5 19  1  0  0  0  0
  5 20  1  0  0  0  0
  6  8  1  0  0  0  0
  6 21  1  0  0  0  0
  6 22  1  0  0  0  0
  7  9  2  0  0  0  0
  7 23  1  0  0  0  0
  8 24  1  0  0  0  0
  8 25  1  0  0  0  0
  9 10  1  0  0  0  0
  9 26  1  0  0  0  0
 10 11  3  0  0  0  0
 11 12  1  0  0  0  0
 12 13  3  0  0  0  0
 13 14  1  0  0  0  0
 14 16  3  0  0  0  0
 15 16  1  0  0  0  0
 15 28  1  0  0  0  0
 15 29  1  0  0  0  0
 15 30  1  0  0  0  0
M  END
>  <PUBCHEM_COMPOUND_CID>
87656835

>  <PUBCHEM_COMPOUND_CANONICALIZED>
1

>  <PUBCHEM_CACTVS_COMPLEXITY>
446

>  <PUBCHEM_CACTVS_HBOND_ACCEPTOR>
2

>  <PUBCHEM_CACTVS_HBOND_DONOR>
1

>  <PUBCHEM_CACTVS_ROTATABLE_BOND>
6

>  <PUBCHEM_CACTVS_SUBSKEYS>
AAADccBwMAAAAAAAAAAAAAAAEgAAAAAAAAAAAAAAAAAAAAAAAAAAGgAACAAACBSggAICAAAABgDAECBCAAAAAAAgAAAICAAAAAgAFAIAIQACUAAEwAAIIAPAYAQAAAAAAAAAAAAAAAAAAAAAAAAAAAAAAA==

>  <PUBCHEM_IUPAC_OPENEYE_NAME>
3-[3-[(E)-non-1-en-3,5,7-triynyl]oxiran-2-yl]propan-1-ol

>  <PUBCHEM_IUPAC_CAS_NAME>
3-[3-[(E)-non-1-en-3,5,7-triynyl]-2-oxiranyl]-1-propanol

>  <PUBCHEM_IUPAC_NAME>
3-[3-[(E)-non-1-en-3,5,7-triynyl]oxiran-2-yl]propan-1-ol

>  <PUBCHEM_IUPAC_SYSTEMATIC_NAME>
3-[3-[(E)-non-1-en-3,5,7-triynyl]oxiran-2-yl]propan-1-ol

>  <PUBCHEM_IUPAC_TRADITIONAL_NAME>
3-[3-[(E)-non-1-en-3,5,7-triynyl]oxiran-2-yl]propan-1-ol

>  <PUBCHEM_IUPAC_INCHI>
InChI=1S/C14H14O2/c1-2-3-4-5-6-7-8-10-13-14(16-13)11-9-12-15/h8,10,13-15H,9,11-12H2,1H3/b10-8+

>  <PUBCHEM_IUPAC_INCHIKEY>
CYDWHOCCNIFEEG-CSKARUKUSA-N

>  <PUBCHEM_XLOGP3_AA>
2

>  <PUBCHEM_EXACT_MASS>
214.099

>  <PUBCHEM_MOLECULAR_FORMULA>
C14H14O2

>  <PUBCHEM_MOLECULAR_WEIGHT>
214.264

>  <PUBCHEM_OPENEYE_CAN_SMILES>
CC#CC#CC#CC=CC1C(O1)CCCO

>  <PUBCHEM_OPENEYE_ISO_SMILES>
CC#CC#CC#C/C=C/C1C(O1)CCCO

>  <PUBCHEM_CACTVS_TPSA>
32.8

>  <PUBCHEM_MONOISOTOPIC_WEIGHT>
214.099

>  <PUBCHEM_TOTAL_CHARGE>
0

>  <PUBCHEM_HEAVY_ATOM_COUNT>
16

>  <PUBCHEM_ATOM_DEF_STEREO_COUNT>
0

>  <PUBCHEM_ATOM_UDEF_STEREO_COUNT>
2

>  <PUBCHEM_BOND_DEF_STEREO_COUNT>
1

>  <PUBCHEM_BOND_UDEF_STEREO_COUNT>
0

>  <PUBCHEM_ISOTOPIC_ATOM_COUNT>
0

>  <PUBCHEM_COMPONENT_COUNT>
1

>  <PUBCHEM_CACTVS_TAUTO_COUNT>
1

>  <PUBCHEM_COORDINATE_TYPE>
1
5
255

>  <PUBCHEM_BONDANNOTATIONS>
3  5  3
4  7  3

$$$$
