89048
 OpenBabel06101807152D

 28 29  0  0  0  0  0  0  0  0999 V2000
    5.4804   -2.0173    0.0000 O   0  0  0  0  0  0  0  0  0  0  0  0
    2.0000    1.0173    0.0000 O   0  0  0  0  0  0  0  0  0  0  0  0
    2.0000   -0.9827    0.0000 O   0  0  0  0  0  0  0  0  0  0  0  0
    6.3981   -0.5035    0.0000 N   0  0  0  0  0  0  0  0  0  0  0  0
    5.4920    1.0520    0.0000 C   0  0  0  0  0  0  0  0  0  0  0  0
    6.3981    0.5381    0.0000 C   0  0  0  0  0  0  0  0  0  0  0  0
    4.5981    0.5173    0.0000 C   0  0  0  0  0  0  0  0  0  0  0  0
    4.5981   -0.4827    0.0000 C   0  0  0  0  0  0  0  0  0  0  0  0
    5.4920   -1.0174    0.0000 C   0  0  0  0  0  0  0  0  0  0  0  0
    3.7320    1.0173    0.0000 C   0  0  0  0  0  0  0  0  0  0  0  0
    3.7320   -0.9827    0.0000 C   0  0  0  0  0  0  0  0  0  0  0  0
    7.2622   -1.0068    0.0000 C   0  0  0  0  0  0  0  0  0  0  0  0
    2.8660    0.5173    0.0000 C   0  0  0  0  0  0  0  0  0  0  0  0
    2.8660   -0.4827    0.0000 C   0  0  0  0  0  0  0  0  0  0  0  0
    2.0000    2.0173    0.0000 C   0  0  0  0  0  0  0  0  0  0  0  0
    5.8856    1.5310    0.0000 H   0  0  0  0  0  0  0  0  0  0  0  0
    5.0874    1.5218    0.0000 H   0  0  0  0  0  0  0  0  0  0  0  0
    7.0089    0.4320    0.0000 H   0  0  0  0  0  0  0  0  0  0  0  0
    6.6071    1.1218    0.0000 H   0  0  0  0  0  0  0  0  0  0  0  0
    3.7320    1.6373    0.0000 H   0  0  0  0  0  0  0  0  0  0  0  0
    3.7320   -1.6027    0.0000 H   0  0  0  0  0  0  0  0  0  0  0  0
    6.9501   -1.5426    0.0000 H   0  0  0  0  0  0  0  0  0  0  0  0
    7.7979   -1.3189    0.0000 H   0  0  0  0  0  0  0  0  0  0  0  0
    7.5742   -0.4711    0.0000 H   0  0  0  0  0  0  0  0  0  0  0  0
    2.0000   -1.6027    0.0000 H   0  0  0  0  0  0  0  0  0  0  0  0
    2.6200    2.0173    0.0000 H   0  0  0  0  0  0  0  0  0  0  0  0
    2.0000    2.6373    0.0000 H   0  0  0  0  0  0  0  0  0  0  0  0
    1.3800    2.0173    0.0000 H   0  0  0  0  0  0  0  0  0  0  0  0
  1  9  2  0  0  0  0
  2 13  1  0  0  0  0
  2 15  1  0  0  0  0
  3 14  1  0  0  0  0
  3 25  1  0  0  0  0
  4  6  1  0  0  0  0
  4  9  1  0  0  0  0
  4 12  1  0  0  0  0
  5  6  1  0  0  0  0
  5  7  1  0  0  0  0
  5 16  1  0  0  0  0
  5 17  1  0  0  0  0
  6 18  1  0  0  0  0
  6 19  1  0  0  0  0
  7  8  1  0  0  0  0
  7 10  2  0  0  0  0
  8  9  1  0  0  0  0
  8 11  2  0  0  0  0
 10 13  1  0  0  0  0
 10 20  1  0  0  0  0
 11 14  1  0  0  0  0
 11 21  1  0  0  0  0
 12 22  1  0  0  0  0
 12 23  1  0  0  0  0
 12 24  1  0  0  0  0
 13 14  2  0  0  0  0
 15 26  1  0  0  0  0
 15 27  1  0  0  0  0
 15 28  1  0  0  0  0
M  END
>  <PUBCHEM_COMPOUND_CID>
89048

>  <PUBCHEM_COMPOUND_CANONICALIZED>
1

>  <PUBCHEM_CACTVS_COMPLEXITY>
256

>  <PUBCHEM_CACTVS_HBOND_ACCEPTOR>
3

>  <PUBCHEM_CACTVS_HBOND_DONOR>
1

>  <PUBCHEM_CACTVS_ROTATABLE_BOND>
1

>  <PUBCHEM_CACTVS_SUBSKEYS>
AAADccByMAAAAAAAAAAAAAAAAAAAAAAAAAA8QAAAAAAAAACxAAAAHgAACAAADATBmAYyBoMABgCIAiFSEACCCAAkIAAAiAEOjMgNJjKGtRuEcStkxhGLuYe63bLOoAABAAAQQABAAAIAACCAAAAAAAAAAA==

>  <PUBCHEM_IUPAC_OPENEYE_NAME>
7-hydroxy-6-methoxy-2-methyl-3,4-dihydroisoquinolin-1-one

>  <PUBCHEM_IUPAC_CAS_NAME>
7-hydroxy-6-methoxy-2-methyl-3,4-dihydroisoquinolin-1-one

>  <PUBCHEM_IUPAC_NAME>
7-hydroxy-6-methoxy-2-methyl-3,4-dihydroisoquinolin-1-one

>  <PUBCHEM_IUPAC_SYSTEMATIC_NAME>
6-methoxy-2-methyl-7-oxidanyl-3,4-dihydroisoquinolin-1-one

>  <PUBCHEM_IUPAC_TRADITIONAL_NAME>
7-hydroxy-6-methoxy-2-methyl-3,4-dihydroisocarbostyril

>  <PUBCHEM_IUPAC_INCHI>
InChI=1S/C11H13NO3/c1-12-4-3-7-5-10(15-2)9(13)6-8(7)11(12)14/h5-6,13H,3-4H2,1-2H3

>  <PUBCHEM_IUPAC_INCHIKEY>
WPKMGEQXTYQXGI-UHFFFAOYSA-N

>  <PUBCHEM_XLOGP3_AA>
1

>  <PUBCHEM_EXACT_MASS>
207.09

>  <PUBCHEM_MOLECULAR_FORMULA>
C11H13NO3

>  <PUBCHEM_MOLECULAR_WEIGHT>
207.229

>  <PUBCHEM_OPENEYE_CAN_SMILES>
CN1CCC2=CC(=C(C=C2C1=O)O)OC

>  <PUBCHEM_OPENEYE_ISO_SMILES>
CN1CCC2=CC(=C(C=C2C1=O)O)OC

>  <PUBCHEM_CACTVS_TPSA>
49.8

>  <PUBCHEM_MONOISOTOPIC_WEIGHT>
207.09

>  <PUBCHEM_TOTAL_CHARGE>
0

>  <PUBCHEM_HEAVY_ATOM_COUNT>
15

>  <PUBCHEM_ATOM_DEF_STEREO_COUNT>
0

>  <PUBCHEM_ATOM_UDEF_STEREO_COUNT>
0

>  <PUBCHEM_BOND_DEF_STEREO_COUNT>
0

>  <PUBCHEM_BOND_UDEF_STEREO_COUNT>
0

>  <PUBCHEM_ISOTOPIC_ATOM_COUNT>
0

>  <PUBCHEM_COMPONENT_COUNT>
1

>  <PUBCHEM_CACTVS_TAUTO_COUNT>
3

>  <PUBCHEM_COORDINATE_TYPE>
1
5
255

>  <PUBCHEM_BONDANNOTATIONS>
10  13  8
11  14  8
13  14  8
7  10  8
7  8  8
8  11  8

$$$$
