89047
 OpenBabel06101807152D

 23 25  0  0  0  0  0  0  0  0999 V2000
    7.0140   -1.3047    0.0000 O   0  0  0  0  0  0  0  0  0  0  0  0
    7.0140    0.3048    0.0000 O   0  0  0  0  0  0  0  0  0  0  0  0
    3.4534    1.5346    0.0000 O   0  0  0  0  0  0  0  0  0  0  0  0
    2.5357    0.0208    0.0000 N   0  0  0  0  0  0  0  0  0  0  0  0
    4.3358   -1.0000    0.0000 C   0  0  0  0  0  0  0  0  0  0  0  0
    3.4418   -1.5346    0.0000 C   0  0  0  0  0  0  0  0  0  0  0  0
    4.3358    0.0000    0.0000 C   0  0  0  0  0  0  0  0  0  0  0  0
    2.5357   -1.0208    0.0000 C   0  0  0  0  0  0  0  0  0  0  0  0
    5.2018   -1.5000    0.0000 C   0  0  0  0  0  0  0  0  0  0  0  0
    6.0678   -1.0000    0.0000 C   0  0  0  0  0  0  0  0  0  0  0  0
    6.0678    0.0000    0.0000 C   0  0  0  0  0  0  0  0  0  0  0  0
    5.2018    0.5000    0.0000 C   0  0  0  0  0  0  0  0  0  0  0  0
    3.4418    0.5347    0.0000 C   0  0  0  0  0  0  0  0  0  0  0  0
    7.5976   -0.5000    0.0000 C   0  0  0  0  0  0  0  0  0  0  0  0
    3.0482   -2.0136    0.0000 H   0  0  0  0  0  0  0  0  0  0  0  0
    3.8464   -2.0044    0.0000 H   0  0  0  0  0  0  0  0  0  0  0  0
    1.9249   -0.9147    0.0000 H   0  0  0  0  0  0  0  0  0  0  0  0
    2.3267   -1.6045    0.0000 H   0  0  0  0  0  0  0  0  0  0  0  0
    5.2018   -2.1200    0.0000 H   0  0  0  0  0  0  0  0  0  0  0  0
    5.2018    1.1200    0.0000 H   0  0  0  0  0  0  0  0  0  0  0  0
    2.0000    0.3329    0.0000 H   0  0  0  0  0  0  0  0  0  0  0  0
    8.0585   -0.9147    0.0000 H   0  0  0  0  0  0  0  0  0  0  0  0
    8.0585   -0.0852    0.0000 H   0  0  0  0  0  0  0  0  0  0  0  0
  1 10  1  0  0  0  0
  1 14  1  0  0  0  0
  2 11  1  0  0  0  0
  2 14  1  0  0  0  0
  3 13  2  0  0  0  0
  4  8  1  0  0  0  0
  4 13  1  0  0  0  0
  4 21  1  0  0  0  0
  5  6  1  0  0  0  0
  5  7  1  0  0  0  0
  5  9  2  0  0  0  0
  6  8  1  0  0  0  0
  6 15  1  0  0  0  0
  6 16  1  0  0  0  0
  7 12  2  0  0  0  0
  7 13  1  0  0  0  0
  8 17  1  0  0  0  0
  8 18  1  0  0  0  0
  9 10  1  0  0  0  0
  9 19  1  0  0  0  0
 10 11  2  0  0  0  0
 11 12  1  0  0  0  0
 12 20  1  0  0  0  0
 14 22  1  0  0  0  0
 14 23  1  0  0  0  0
M  END
>  <PUBCHEM_COMPOUND_CID>
89047

>  <PUBCHEM_COMPOUND_CANONICALIZED>
1

>  <PUBCHEM_CACTVS_COMPLEXITY>
256

>  <PUBCHEM_CACTVS_HBOND_ACCEPTOR>
3

>  <PUBCHEM_CACTVS_HBOND_DONOR>
1

>  <PUBCHEM_CACTVS_ROTATABLE_BOND>
0

>  <PUBCHEM_CACTVS_SUBSKEYS>
AAADccByMAAAAAAAAAAAAAAAAAAAASAAAAA8QAAAAAAAAEixAAAAHgAQAAAADATBmAcwDoLABACIAiFSEACCCAAkIAAAiIEOjMgdJjKEtRukMSpk1hGOqYe63bLOoAABAAAQQABAAAIAACCAAAAAAAAAAA==

>  <PUBCHEM_IUPAC_OPENEYE_NAME>
7,8-dihydro-6H-[1,3]dioxolo[4,5-g]isoquinolin-5-one

>  <PUBCHEM_IUPAC_CAS_NAME>
7,8-dihydro-6H-[1,3]dioxolo[4,5-g]isoquinolin-5-one

>  <PUBCHEM_IUPAC_NAME>
7,8-dihydro-6H-[1,3]dioxolo[4,5-g]isoquinolin-5-one

>  <PUBCHEM_IUPAC_SYSTEMATIC_NAME>
7,8-dihydro-6H-[1,3]dioxolo[4,5-g]isoquinolin-5-one

>  <PUBCHEM_IUPAC_TRADITIONAL_NAME>
7,8-dihydro-6H-[1,3]dioxol[4,5-g]isoquinolin-5-one

>  <PUBCHEM_IUPAC_INCHI>
InChI=1S/C10H9NO3/c12-10-7-4-9-8(13-5-14-9)3-6(7)1-2-11-10/h3-4H,1-2,5H2,(H,11,12)

>  <PUBCHEM_IUPAC_INCHIKEY>
VSOJKDUWYQCWFM-UHFFFAOYSA-N

>  <PUBCHEM_XLOGP3_AA>
1

>  <PUBCHEM_EXACT_MASS>
191.058

>  <PUBCHEM_MOLECULAR_FORMULA>
C10H9NO3

>  <PUBCHEM_MOLECULAR_WEIGHT>
191.186

>  <PUBCHEM_OPENEYE_CAN_SMILES>
C1CNC(=O)C2=CC3=C(C=C21)OCO3

>  <PUBCHEM_OPENEYE_ISO_SMILES>
C1CNC(=O)C2=CC3=C(C=C21)OCO3

>  <PUBCHEM_CACTVS_TPSA>
47.6

>  <PUBCHEM_MONOISOTOPIC_WEIGHT>
191.058

>  <PUBCHEM_TOTAL_CHARGE>
0

>  <PUBCHEM_HEAVY_ATOM_COUNT>
14

>  <PUBCHEM_ATOM_DEF_STEREO_COUNT>
0

>  <PUBCHEM_ATOM_UDEF_STEREO_COUNT>
0

>  <PUBCHEM_BOND_DEF_STEREO_COUNT>
0

>  <PUBCHEM_BOND_UDEF_STEREO_COUNT>
0

>  <PUBCHEM_ISOTOPIC_ATOM_COUNT>
0

>  <PUBCHEM_COMPONENT_COUNT>
1

>  <PUBCHEM_CACTVS_TAUTO_COUNT>
2

>  <PUBCHEM_COORDINATE_TYPE>
1
5
255

>  <PUBCHEM_BONDANNOTATIONS>
10  11  8
11  12  8
5  7  8
5  9  8
7  12  8
9  10  8

$$$$
