90471497
 OpenBabel06101807152D

 36 37  0  0  0  0  0  0  0  0999 V2000
    2.5836   -0.6217    0.0000 O   0  0  0  0  0  0  0  0  0  0  0  0
    7.8009    1.1489    0.0000 O   0  0  0  0  0  0  0  0  0  0  0  0
    6.9349    2.6489    0.0000 O   0  0  0  0  0  0  0  0  0  0  0  0
    3.5298    0.6830    0.0000 C   0  0  0  0  0  0  0  0  0  0  0  0
    3.5298   -0.3170    0.0000 C   0  0  0  0  0  0  0  0  0  0  0  0
    4.3958   -0.8170    0.0000 C   0  0  0  0  0  0  0  0  0  0  0  0
    4.3958    1.1830    0.0000 C   0  0  0  0  0  0  0  0  0  0  0  0
    4.6547   -1.7829    0.0000 C   0  0  0  0  0  0  0  0  0  0  0  0
    6.0689    0.1489    0.0000 C   0  0  0  0  0  0  0  0  0  0  0  0
    5.3618   -0.5582    0.0000 C   0  0  0  0  0  0  0  0  0  0  0  0
    2.5836    0.9877    0.0000 C   0  0  0  0  0  0  0  0  0  0  0  0
    6.0689    1.1489    0.0000 C   0  0  0  0  0  0  0  0  0  0  0  0
    5.6206   -1.5241    0.0000 C   0  0  0  0  0  0  0  0  0  0  0  0
    5.2029    1.6489    0.0000 C   0  0  0  0  0  0  0  0  0  0  0  0
    2.0000    0.1830    0.0000 C   0  0  0  0  0  0  0  0  0  0  0  0
    4.1547   -2.6489    0.0000 C   0  0  0  0  0  0  0  0  0  0  0  0
    2.2729    1.9383    0.0000 C   0  0  0  0  0  0  0  0  0  0  0  0
    6.9349    1.6489    0.0000 C   0  0  0  0  0  0  0  0  0  0  0  0
    5.0158   -0.8170    0.0000 H   0  0  0  0  0  0  0  0  0  0  0  0
    4.5563   -0.2181    0.0000 H   0  0  0  0  0  0  0  0  0  0  0  0
    4.3958    0.5630    0.0000 H   0  0  0  0  0  0  0  0  0  0  0  0
    4.0858    1.7200    0.0000 H   0  0  0  0  0  0  0  0  0  0  0  0
    6.3789   -0.3880    0.0000 H   0  0  0  0  0  0  0  0  0  0  0  0
    6.6678    0.3094    0.0000 H   0  0  0  0  0  0  0  0  0  0  0  0
    5.0062   -0.0503    0.0000 H   0  0  0  0  0  0  0  0  0  0  0  0
    4.7999   -0.8202    0.0000 H   0  0  0  0  0  0  0  0  0  0  0  0
    6.1575   -1.8341    0.0000 H   0  0  0  0  0  0  0  0  0  0  0  0
    5.1650    2.2678    0.0000 H   0  0  0  0  0  0  0  0  0  0  0  0
    1.3800    0.1830    0.0000 H   0  0  0  0  0  0  0  0  0  0  0  0
    3.6177   -2.3389    0.0000 H   0  0  0  0  0  0  0  0  0  0  0  0
    3.8447   -3.1859    0.0000 H   0  0  0  0  0  0  0  0  0  0  0  0
    4.6916   -2.9589    0.0000 H   0  0  0  0  0  0  0  0  0  0  0  0
    2.8623    2.1309    0.0000 H   0  0  0  0  0  0  0  0  0  0  0  0
    2.0803    2.5276    0.0000 H   0  0  0  0  0  0  0  0  0  0  0  0
    1.6836    1.7456    0.0000 H   0  0  0  0  0  0  0  0  0  0  0  0
    8.3379    1.4589    0.0000 H   0  0  0  0  0  0  0  0  0  0  0  0
  1  5  1  0  0  0  0
  1 15  1  0  0  0  0
  2 18  1  0  0  0  0
  2 36  1  0  0  0  0
  3 18  2  0  0  0  0
  4  5  2  0  0  0  0
  4  7  1  0  0  0  0
  4 11  1  0  0  0  0
  5  6  1  0  0  0  0
  6  8  1  0  0  0  0
  6 19  1  0  0  0  0
  6 20  1  0  0  0  0
  7 14  1  0  0  0  0
  7 21  1  0  0  0  0
  7 22  1  0  0  0  0
  8 13  2  0  0  0  0
  8 16  1  0  0  0  0
  9 10  1  0  0  0  0
  9 12  1  0  0  0  0
  9 23  1  0  0  0  0
  9 24  1  0  0  0  0
 10 13  1  0  0  0  0
 10 25  1  0  0  0  0
 10 26  1  0  0  0  0
 11 15  2  0  0  0  0
 11 17  1  0  0  0  0
 12 14  2  0  0  0  0
 12 18  1  0  0  0  0
 13 27  1  0  0  0  0
 14 28  1  0  0  0  0
 15 29  1  0  0  0  0
 16 30  1  0  0  0  0
 16 31  1  0  0  0  0
 16 32  1  0  0  0  0
 17 33  1  0  0  0  0
 17 34  1  0  0  0  0
 17 35  1  0  0  0  0
M  END
>  <PUBCHEM_COMPOUND_CID>
90471497

>  <PUBCHEM_COMPOUND_CANONICALIZED>
1

>  <PUBCHEM_CACTVS_COMPLEXITY>
381

>  <PUBCHEM_CACTVS_HBOND_ACCEPTOR>
3

>  <PUBCHEM_CACTVS_HBOND_DONOR>
1

>  <PUBCHEM_CACTVS_ROTATABLE_BOND>
1

>  <PUBCHEM_CACTVS_SUBSKEYS>
AAADceBwMAAAAAAAAAAAAAAAAAAAASAAAAAAAAAAAAAAAACBgAAAGgAACAAADASgmAIiDIAABkCIAqjSiAACCAAkIAAAiAEECMgMJjKENRqCWSCkwBEIuYeIyGCOgAAAAAAAAAAAAAAAAAAAAAAAAAAAAA==

>  <PUBCHEM_IUPAC_OPENEYE_NAME>
(5E,9Z)-3,10-dimethyl-4,7,8,11-tetrahydrocyclodeca[b]furan-6-carboxylic acid

>  <PUBCHEM_IUPAC_CAS_NAME>
(5E,9Z)-3,10-dimethyl-4,7,8,11-tetrahydrocyclodeca[b]furan-6-carboxylic acid

>  <PUBCHEM_IUPAC_NAME>
(5E,9Z)-3,10-dimethyl-4,7,8,11-tetrahydrocyclodeca[b]furan-6-carboxylic acid

>  <PUBCHEM_IUPAC_SYSTEMATIC_NAME>
(5E,9Z)-3,10-dimethyl-4,7,8,11-tetrahydrocyclodeca[b]furan-6-carboxylic acid

>  <PUBCHEM_IUPAC_TRADITIONAL_NAME>
(5E,9Z)-3,10-dimethyl-4,7,8,11-tetrahydrocyclodeca[b]furan-6-carboxylic acid

>  <PUBCHEM_IUPAC_INCHI>
InChI=1S/C15H18O3/c1-10-4-3-5-12(15(16)17)6-7-13-11(2)9-18-14(13)8-10/h4,6,9H,3,5,7-8H2,1-2H3,(H,16,17)/b10-4-,12-6+

>  <PUBCHEM_IUPAC_INCHIKEY>
MQTBVBAENOJOHV-YMSJWGFRSA-N

>  <PUBCHEM_XLOGP3_AA>
3

>  <PUBCHEM_EXACT_MASS>
246.126

>  <PUBCHEM_MOLECULAR_FORMULA>
C15H18O3

>  <PUBCHEM_MOLECULAR_WEIGHT>
246.306

>  <PUBCHEM_OPENEYE_CAN_SMILES>
CC1=CCCC(=CCC2=C(C1)OC=C2C)C(=O)O

>  <PUBCHEM_OPENEYE_ISO_SMILES>
C/C/1=C/CC/C(=C\CC2=C(C1)OC=C2C)/C(=O)O

>  <PUBCHEM_CACTVS_TPSA>
50.4

>  <PUBCHEM_MONOISOTOPIC_WEIGHT>
246.126

>  <PUBCHEM_TOTAL_CHARGE>
0

>  <PUBCHEM_HEAVY_ATOM_COUNT>
18

>  <PUBCHEM_ATOM_DEF_STEREO_COUNT>
0

>  <PUBCHEM_ATOM_UDEF_STEREO_COUNT>
0

>  <PUBCHEM_BOND_DEF_STEREO_COUNT>
2

>  <PUBCHEM_BOND_UDEF_STEREO_COUNT>
0

>  <PUBCHEM_ISOTOPIC_ATOM_COUNT>
0

>  <PUBCHEM_COMPONENT_COUNT>
1

>  <PUBCHEM_CACTVS_TAUTO_COUNT>
1

>  <PUBCHEM_COORDINATE_TYPE>
1
5
255

>  <PUBCHEM_BONDANNOTATIONS>
1  15  8
1  5  8
11  15  8
4  11  8
4  5  8

$$$$
