90473021
 OpenBabel06101807152D

 51 57  0  0  0  0  0  0  0  0999 V2000
    9.1772    0.7770    0.0000 O   0  0  0  0  0  0  0  0  0  0  0  0
    4.7926    2.3147    0.0000 O   0  0  0  0  0  0  0  0  0  0  0  0
    5.6532   -2.2514    0.0000 O   0  0  0  0  0  0  0  0  0  0  0  0
    5.6532    2.8116    0.0000 O   0  0  0  0  0  0  0  0  0  0  0  0
    9.1772   -0.2168    0.0000 O   0  0  0  0  0  0  0  0  0  0  0  0
    4.7926   -1.7545    0.0000 O   0  0  0  0  0  0  0  0  0  0  0  0
   10.1331    2.3465    0.0000 O   0  0  0  0  0  0  0  0  0  0  0  0
    2.9554    2.3578    0.0000 O   0  0  0  0  0  0  0  0  0  0  0  0
    6.5345   -3.8640    0.0000 O   0  0  0  0  0  0  0  0  0  0  0  0
    6.5410   -0.7199    0.0000 C   0  0  0  0  0  0  0  0  0  0  0  0
    5.6750    0.7801    0.0000 C   0  0  0  0  0  0  0  0  0  0  0  0
    7.4070    0.7801    0.0000 C   0  0  0  0  0  0  0  0  0  0  0  0
    5.6750   -0.2199    0.0000 C   0  0  0  0  0  0  0  0  0  0  0  0
    7.4070   -0.2199    0.0000 C   0  0  0  0  0  0  0  0  0  0  0  0
    6.5410    1.2801    0.0000 C   0  0  0  0  0  0  0  0  0  0  0  0
    8.3170    1.2869    0.0000 C   0  0  0  0  0  0  0  0  0  0  0  0
    4.7810    1.3148    0.0000 C   0  0  0  0  0  0  0  0  0  0  0  0
    6.5249   -1.7614    0.0000 C   0  0  0  0  0  0  0  0  0  0  0  0
    6.5249    2.3216    0.0000 C   0  0  0  0  0  0  0  0  0  0  0  0
    8.3170   -0.7268    0.0000 C   0  0  0  0  0  0  0  0  0  0  0  0
    4.7810   -0.7546    0.0000 C   0  0  0  0  0  0  0  0  0  0  0  0
    8.3250    2.3285    0.0000 C   0  0  0  0  0  0  0  0  0  0  0  0
    3.8749    0.8009    0.0000 C   0  0  0  0  0  0  0  0  0  0  0  0
    7.4230   -2.2892    0.0000 C   0  0  0  0  0  0  0  0  0  0  0  0
    7.4230    2.8494    0.0000 C   0  0  0  0  0  0  0  0  0  0  0  0
    3.8749   -0.2407    0.0000 C   0  0  0  0  0  0  0  0  0  0  0  0
    8.3250   -1.7684    0.0000 C   0  0  0  0  0  0  0  0  0  0  0  0
    7.4062   -3.3740    0.0000 C   0  0  0  0  0  0  0  0  0  0  0  0
    2.9438    1.3578    0.0000 C   0  0  0  0  0  0  0  0  0  0  0  0
    9.2729    2.8565    0.0000 C   0  0  0  0  0  0  0  0  0  0  0  0
    7.4062    3.9342    0.0000 C   0  0  0  0  0  0  0  0  0  0  0  0
    2.9438   -0.7976    0.0000 C   0  0  0  0  0  0  0  0  0  0  0  0
    9.2729   -2.2963    0.0000 C   0  0  0  0  0  0  0  0  0  0  0  0
    9.2813    3.9414    0.0000 C   0  0  0  0  0  0  0  0  0  0  0  0
    2.0000    0.8226    0.0000 C   0  0  0  0  0  0  0  0  0  0  0  0
    8.3416   -3.9238    0.0000 C   0  0  0  0  0  0  0  0  0  0  0  0
    8.3416    4.4839    0.0000 C   0  0  0  0  0  0  0  0  0  0  0  0
    2.0000   -0.2624    0.0000 C   0  0  0  0  0  0  0  0  0  0  0  0
    9.2813   -3.3813    0.0000 C   0  0  0  0  0  0  0  0  0  0  0  0
    9.8062   -1.9801    0.0000 H   0  0  0  0  0  0  0  0  0  0  0  0
    2.9510   -1.4176    0.0000 H   0  0  0  0  0  0  0  0  0  0  0  0
    6.8657    4.2380    0.0000 H   0  0  0  0  0  0  0  0  0  0  0  0
    8.3393   -4.5438    0.0000 H   0  0  0  0  0  0  0  0  0  0  0  0
    1.4643    1.1347    0.0000 H   0  0  0  0  0  0  0  0  0  0  0  0
    9.8194    4.2494    0.0000 H   0  0  0  0  0  0  0  0  0  0  0  0
    9.8194   -3.6892    0.0000 H   0  0  0  0  0  0  0  0  0  0  0  0
    1.4643   -0.5745    0.0000 H   0  0  0  0  0  0  0  0  0  0  0  0
    8.3393    5.1039    0.0000 H   0  0  0  0  0  0  0  0  0  0  0  0
    6.5273   -4.4839    0.0000 H   0  0  0  0  0  0  0  0  0  0  0  0
    2.4220    2.6740    0.0000 H   0  0  0  0  0  0  0  0  0  0  0  0
   10.6736    2.6503    0.0000 H   0  0  0  0  0  0  0  0  0  0  0  0
  1 16  2  0  0  0  0
  2 17  2  0  0  0  0
  3 18  2  0  0  0  0
  4 19  2  0  0  0  0
  5 20  2  0  0  0  0
  6 21  2  0  0  0  0
  7 30  1  0  0  0  0
  7 51  1  0  0  0  0
  8 29  1  0  0  0  0
  8 50  1  0  0  0  0
  9 28  1  0  0  0  0
  9 49  1  0  0  0  0
 10 13  2  0  0  0  0
 10 14  1  0  0  0  0
 10 18  1  0  0  0  0
 11 13  1  0  0  0  0
 11 15  2  0  0  0  0
 11 17  1  0  0  0  0
 12 14  2  0  0  0  0
 12 15  1  0  0  0  0
 12 16  1  0  0  0  0
 13 21  1  0  0  0  0
 14 20  1  0  0  0  0
 15 19  1  0  0  0  0
 16 22  1  0  0  0  0
 17 23  1  0  0  0  0
 18 24  1  0  0  0  0
 19 25  1  0  0  0  0
 20 27  1  0  0  0  0
 21 26  1  0  0  0  0
 22 25  2  0  0  0  0
 22 30  1  0  0  0  0
 23 26  2  0  0  0  0
 23 29  1  0  0  0  0
 24 27  2  0  0  0  0
 24 28  1  0  0  0  0
 25 31  1  0  0  0  0
 26 32  1  0  0  0  0
 27 33  1  0  0  0  0
 28 36  2  0  0  0  0
 29 35  2  0  0  0  0
 30 34  2  0  0  0  0
 31 37  2  0  0  0  0
 31 42  1  0  0  0  0
 32 38  2  0  0  0  0
 32 41  1  0  0  0  0
 33 39  2  0  0  0  0
 33 40  1  0  0  0  0
 34 37  1  0  0  0  0
 34 45  1  0  0  0  0
 35 38  1  0  0  0  0
 35 44  1  0  0  0  0
 36 39  1  0  0  0  0
 36 43  1  0  0  0  0
 37 48  1  0  0  0  0
 38 47  1  0  0  0  0
 39 46  1  0  0  0  0
M  END
>  <PUBCHEM_COMPOUND_CID>
90473021

>  <PUBCHEM_COMPOUND_CANONICALIZED>
1

>  <PUBCHEM_CACTVS_COMPLEXITY>
1030

>  <PUBCHEM_CACTVS_HBOND_ACCEPTOR>
9

>  <PUBCHEM_CACTVS_HBOND_DONOR>
3

>  <PUBCHEM_CACTVS_ROTATABLE_BOND>
0

>  <PUBCHEM_CACTVS_SUBSKEYS>
AAADccB4PAAAAAAAAAAAAAAAAAAAAAAAAAAwYMGDAAAAAADBVAAAGgAACAAADASAmAAwBoAAAgCIAqBSAAACAAAkIAAIiAEGCMgIJjaCFRKAcUAk4BEImYeLyvCuwAADAAAYAACAAAYAADAAAAAAAAAAAA==

>  <PUBCHEM_IUPAC_OPENEYE_NAME>
1,7,13-trihydroxytrinaphthylene-5,6,11,12,17,18-hexone

>  <PUBCHEM_IUPAC_CAS_NAME>
1,7,13-trihydroxytrinaphthylene-5,6,11,12,17,18-hexone

>  <PUBCHEM_IUPAC_NAME>
1,7,13-trihydroxytrinaphthylene-5,6,11,12,17,18-hexone

>  <PUBCHEM_IUPAC_SYSTEMATIC_NAME>
1,7,13-tris(oxidanyl)trinaphthylene-5,6,11,12,17,18-hexone

>  <PUBCHEM_IUPAC_TRADITIONAL_NAME>
1,7,13-trihydroxytrinaphthylene-5,6,11,12,17,18-triquinone

>  <PUBCHEM_IUPAC_INCHI>
InChI=1S/C30H12O9/c31-13-7-1-4-10-16(13)28(37)22-19(25(10)34)23-21(27(36)11-5-2-8-14(32)17(11)29(23)38)24-20(22)26(35)12-6-3-9-15(33)18(12)30(24)39/h1-9,31-33H

>  <PUBCHEM_IUPAC_INCHIKEY>
DNGCQXLPUZWYNB-UHFFFAOYSA-N

>  <PUBCHEM_XLOGP3>
5.8

>  <PUBCHEM_EXACT_MASS>
516.048

>  <PUBCHEM_MOLECULAR_FORMULA>
C30H12O9

>  <PUBCHEM_MOLECULAR_WEIGHT>
516.417

>  <PUBCHEM_OPENEYE_CAN_SMILES>
C1=CC2=C(C(=C1)O)C(=O)C3=C4C(=C5C(=C3C2=O)C(=O)C6=C(C5=O)C=CC=C6O)C(=O)C7=C(C4=O)C=CC=C7O

>  <PUBCHEM_OPENEYE_ISO_SMILES>
C1=CC2=C(C(=C1)O)C(=O)C3=C4C(=C5C(=C3C2=O)C(=O)C6=C(C5=O)C=CC=C6O)C(=O)C7=C(C4=O)C=CC=C7O

>  <PUBCHEM_CACTVS_TPSA>
163

>  <PUBCHEM_MONOISOTOPIC_WEIGHT>
516.048

>  <PUBCHEM_TOTAL_CHARGE>
0

>  <PUBCHEM_HEAVY_ATOM_COUNT>
39

>  <PUBCHEM_ATOM_DEF_STEREO_COUNT>
0

>  <PUBCHEM_ATOM_UDEF_STEREO_COUNT>
0

>  <PUBCHEM_BOND_DEF_STEREO_COUNT>
0

>  <PUBCHEM_BOND_UDEF_STEREO_COUNT>
0

>  <PUBCHEM_ISOTOPIC_ATOM_COUNT>
0

>  <PUBCHEM_COMPONENT_COUNT>
1

>  <PUBCHEM_CACTVS_TAUTO_COUNT>
45

>  <PUBCHEM_COORDINATE_TYPE>
1
5
255

>  <PUBCHEM_BONDANNOTATIONS>
10  13  8
10  14  8
10  18  8
11  13  8
11  15  8
11  17  8
12  14  8
12  15  8
12  16  8
13  21  8
14  20  8
15  19  8
16  22  8
17  23  8
18  24  8
19  25  8
20  27  8
21  26  8
22  25  8
22  30  8
23  26  8
23  29  8
24  27  8
24  28  8
25  31  8
26  32  8
27  33  8
28  36  8
29  35  8
30  34  8
31  37  8
32  38  8
33  39  8
34  37  8
35  38  8
36  39  8

$$$$
