90658167
 OpenBabel06101807152D

 53 52  0  0  0  0  0  0  0  0999 V2000
    2.0000    5.6900    0.0000 O   0  5  0  0  0  0  0  0  0  0  0  0
    2.8660    4.1900    0.0000 O   0  0  0  0  0  0  0  0  0  0  0  0
    8.0622   -0.8100    0.0000 C   0  0  0  0  0  0  0  0  0  0  0  0
    7.1962   -0.3100    0.0000 C   0  0  0  0  0  0  0  0  0  0  0  0
    8.0622   -1.8100    0.0000 C   0  0  0  0  0  0  0  0  0  0  0  0
    7.1962    0.6900    0.0000 C   0  0  0  0  0  0  0  0  0  0  0  0
    8.9282   -2.3100    0.0000 C   0  0  0  0  0  0  0  0  0  0  0  0
    6.3301    1.1900    0.0000 C   0  0  0  0  0  0  0  0  0  0  0  0
    8.9282   -3.3100    0.0000 C   0  0  0  0  0  0  0  0  0  0  0  0
    6.3301    2.1900    0.0000 C   0  0  0  0  0  0  0  0  0  0  0  0
    9.7942   -3.8100    0.0000 C   0  0  0  0  0  0  0  0  0  0  0  0
    5.4641    2.6900    0.0000 C   0  0  0  0  0  0  0  0  0  0  0  0
    9.7942   -4.8100    0.0000 C   0  0  0  0  0  0  0  0  0  0  0  0
    5.4641    3.6900    0.0000 C   0  0  0  0  0  0  0  0  0  0  0  0
   10.6603   -5.3100    0.0000 C   0  0  0  0  0  0  0  0  0  0  0  0
    4.5981    4.1900    0.0000 C   0  0  0  0  0  0  0  0  0  0  0  0
   10.6603   -6.3100    0.0000 C   0  0  0  0  0  0  0  0  0  0  0  0
    4.5981    5.1900    0.0000 C   0  0  0  0  0  0  0  0  0  0  0  0
    3.7320    5.6900    0.0000 C   0  0  0  0  0  0  0  0  0  0  0  0
    2.8660    5.1900    0.0000 C   0  0  0  0  0  0  0  0  0  0  0  0
    8.6728   -0.9177    0.0000 H   0  0  0  0  0  0  0  0  0  0  0  0
    8.2742   -0.2274    0.0000 H   0  0  0  0  0  0  0  0  0  0  0  0
    6.5856   -0.2023    0.0000 H   0  0  0  0  0  0  0  0  0  0  0  0
    6.9841   -0.8926    0.0000 H   0  0  0  0  0  0  0  0  0  0  0  0
    7.4516   -1.7023    0.0000 H   0  0  0  0  0  0  0  0  0  0  0  0
    7.8501   -2.3926    0.0000 H   0  0  0  0  0  0  0  0  0  0  0  0
    7.8067    0.5823    0.0000 H   0  0  0  0  0  0  0  0  0  0  0  0
    7.4082    1.2726    0.0000 H   0  0  0  0  0  0  0  0  0  0  0  0
    9.5388   -2.4177    0.0000 H   0  0  0  0  0  0  0  0  0  0  0  0
    9.1403   -1.7274    0.0000 H   0  0  0  0  0  0  0  0  0  0  0  0
    5.7196    1.2977    0.0000 H   0  0  0  0  0  0  0  0  0  0  0  0
    6.1181    0.6074    0.0000 H   0  0  0  0  0  0  0  0  0  0  0  0
    8.3176   -3.2023    0.0000 H   0  0  0  0  0  0  0  0  0  0  0  0
    8.7162   -3.8926    0.0000 H   0  0  0  0  0  0  0  0  0  0  0  0
    6.9407    2.0823    0.0000 H   0  0  0  0  0  0  0  0  0  0  0  0
    6.5422    2.7726    0.0000 H   0  0  0  0  0  0  0  0  0  0  0  0
   10.4048   -3.9177    0.0000 H   0  0  0  0  0  0  0  0  0  0  0  0
   10.0063   -3.2274    0.0000 H   0  0  0  0  0  0  0  0  0  0  0  0
    4.8535    2.7977    0.0000 H   0  0  0  0  0  0  0  0  0  0  0  0
    5.2520    2.1074    0.0000 H   0  0  0  0  0  0  0  0  0  0  0  0
    9.1836   -4.7023    0.0000 H   0  0  0  0  0  0  0  0  0  0  0  0
    9.5822   -5.3926    0.0000 H   0  0  0  0  0  0  0  0  0  0  0  0
    6.0747    3.5823    0.0000 H   0  0  0  0  0  0  0  0  0  0  0  0
    5.6762    4.2726    0.0000 H   0  0  0  0  0  0  0  0  0  0  0  0
   11.2708   -5.4177    0.0000 H   0  0  0  0  0  0  0  0  0  0  0  0
   10.8723   -4.7274    0.0000 H   0  0  0  0  0  0  0  0  0  0  0  0
    3.9875    4.2977    0.0000 H   0  0  0  0  0  0  0  0  0  0  0  0
    4.3860    3.6074    0.0000 H   0  0  0  0  0  0  0  0  0  0  0  0
   10.0403   -6.3100    0.0000 H   0  0  0  0  0  0  0  0  0  0  0  0
   10.6603   -6.9300    0.0000 H   0  0  0  0  0  0  0  0  0  0  0  0
   11.2803   -6.3100    0.0000 H   0  0  0  0  0  0  0  0  0  0  0  0
    5.1350    5.5000    0.0000 H   0  0  0  0  0  0  0  0  0  0  0  0
    3.7320    6.3100    0.0000 H   0  0  0  0  0  0  0  0  0  0  0  0
  1 20  1  0  0  0  0
  2 20  2  0  0  0  0
  3  4  1  0  0  0  0
  3  5  1  0  0  0  0
  3 21  1  0  0  0  0
  3 22  1  0  0  0  0
  4  6  1  0  0  0  0
  4 23  1  0  0  0  0
  4 24  1  0  0  0  0
  5  7  1  0  0  0  0
  5 25  1  0  0  0  0
  5 26  1  0  0  0  0
  6  8  1  0  0  0  0
  6 27  1  0  0  0  0
  6 28  1  0  0  0  0
  7  9  1  0  0  0  0
  7 29  1  0  0  0  0
  7 30  1  0  0  0  0
  8 10  1  0  0  0  0
  8 31  1  0  0  0  0
  8 32  1  0  0  0  0
  9 11  1  0  0  0  0
  9 33  1  0  0  0  0
  9 34  1  0  0  0  0
 10 12  1  0  0  0  0
 10 35  1  0  0  0  0
 10 36  1  0  0  0  0
 11 13  1  0  0  0  0
 11 37  1  0  0  0  0
 11 38  1  0  0  0  0
 12 14  1  0  0  0  0
 12 39  1  0  0  0  0
 12 40  1  0  0  0  0
 13 15  1  0  0  0  0
 13 41  1  0  0  0  0
 13 42  1  0  0  0  0
 14 16  1  0  0  0  0
 14 43  1  0  0  0  0
 14 44  1  0  0  0  0
 15 17  1  0  0  0  0
 15 45  1  0  0  0  0
 15 46  1  0  0  0  0
 16 18  1  0  0  0  0
 16 47  1  0  0  0  0
 16 48  1  0  0  0  0
 17 49  1  0  0  0  0
 17 50  1  0  0  0  0
 17 51  1  0  0  0  0
 18 19  2  0  0  0  0
 18 52  1  0  0  0  0
 19 20  1  0  0  0  0
 19 53  1  0  0  0  0
M  CHG  1   1  -1
M  END
>  <PUBCHEM_COMPOUND_CID>
90658167

>  <PUBCHEM_COMPOUND_CANONICALIZED>
1

>  <PUBCHEM_CACTVS_COMPLEXITY>
228

>  <PUBCHEM_CACTVS_HBOND_ACCEPTOR>
2

>  <PUBCHEM_CACTVS_HBOND_DONOR>
0

>  <PUBCHEM_CACTVS_ROTATABLE_BOND>
14

>  <PUBCHEM_CACTVS_SUBSKEYS>
AAADcfB4MAAAAAAAAAAAAAAAAAAAAAAAAAAAAAAAAAAAAAAAAAAAGgAAAAAACACAgAACCAAAAACIACDSCAAAAAAgAAAICAAAAEgABAIAAQAAEAAAgAAIAYMAgIAAAAAAAAAAAAAAAAAAAAAAAAAAAAAAAA==

>  <PUBCHEM_IUPAC_OPENEYE_NAME>
(Z)-octadec-2-enoate

>  <PUBCHEM_IUPAC_CAS_NAME>
(Z)-2-octadecenoate

>  <PUBCHEM_IUPAC_NAME>
(Z)-octadec-2-enoate

>  <PUBCHEM_IUPAC_SYSTEMATIC_NAME>
(Z)-octadec-2-enoate

>  <PUBCHEM_IUPAC_TRADITIONAL_NAME>
(Z)-octadec-2-enoate

>  <PUBCHEM_IUPAC_INCHI>
InChI=1S/C18H34O2/c1-2-3-4-5-6-7-8-9-10-11-12-13-14-15-16-17-18(19)20/h16-17H,2-15H2,1H3,(H,19,20)/p-1/b17-16-

>  <PUBCHEM_IUPAC_INCHIKEY>
LKOVPWSSZFDYPG-MSUUIHNZSA-M

>  <PUBCHEM_XLOGP3_AA>
8.7

>  <PUBCHEM_EXACT_MASS>
281.248

>  <PUBCHEM_MOLECULAR_FORMULA>
C18H33O2-

>  <PUBCHEM_MOLECULAR_WEIGHT>
281.46

>  <PUBCHEM_OPENEYE_CAN_SMILES>
CCCCCCCCCCCCCCCC=CC(=O)[O-]

>  <PUBCHEM_OPENEYE_ISO_SMILES>
CCCCCCCCCCCCCCC/C=C\C(=O)[O-]

>  <PUBCHEM_CACTVS_TPSA>
40.1

>  <PUBCHEM_MONOISOTOPIC_WEIGHT>
281.248

>  <PUBCHEM_TOTAL_CHARGE>
-1

>  <PUBCHEM_HEAVY_ATOM_COUNT>
20

>  <PUBCHEM_ATOM_DEF_STEREO_COUNT>
0

>  <PUBCHEM_ATOM_UDEF_STEREO_COUNT>
0

>  <PUBCHEM_BOND_DEF_STEREO_COUNT>
1

>  <PUBCHEM_BOND_UDEF_STEREO_COUNT>
0

>  <PUBCHEM_ISOTOPIC_ATOM_COUNT>
0

>  <PUBCHEM_COMPONENT_COUNT>
1

>  <PUBCHEM_CACTVS_TAUTO_COUNT>
1

>  <PUBCHEM_COORDINATE_TYPE>
1
5
255

$$$$
