91072206
 OpenBabel06101807152D

 49 53  0  0  1  0  0  0  0  0999 V2000
    5.1350   -1.9876    0.0000 O   0  0  0  0  0  0  0  0  0  0  0  0
    6.8671   -1.9876    0.0000 O   0  0  0  0  0  0  0  0  0  0  0  0
    5.1350   -4.9876    0.0000 O   0  0  0  0  0  0  0  0  0  0  0  0
    3.4030   -3.9876    0.0000 O   0  0  0  0  0  0  0  0  0  0  0  0
    6.8671   -3.9876    0.0000 O   0  0  0  0  0  0  0  0  0  0  0  0
    2.5369   -2.4876    0.0000 O   0  0  0  0  0  0  0  0  0  0  0  0
    8.6229    0.9774    0.0000 O   0  0  0  0  0  0  0  0  0  0  0  0
    5.1116    2.0675    0.0000 O   0  0  0  0  0  0  0  0  0  0  0  0
    8.5887   -1.0076    0.0000 O   0  0  0  0  0  0  0  0  0  0  0  0
    5.2459    4.0976    0.0000 O   0  0  0  0  0  0  0  0  0  0  0  0
    4.2173    0.5399    0.0000 O   0  0  0  0  0  0  0  0  0  0  0  0
    9.5183    2.4600    0.0000 O   0  0  0  0  0  0  0  0  0  0  0  0
    7.0048    5.0090    0.0000 O   0  0  0  0  0  0  0  0  0  0  0  0
    5.1350   -3.9876    0.0000 C   0  0  1  0  0  0  0  0  0  0  0  0
    4.2690   -3.4876    0.0000 C   0  0  1  0  0  0  0  0  0  0  0  0
    6.0010   -3.4876    0.0000 C   0  0  2  0  0  0  0  0  0  0  0  0
    4.2690   -2.4876    0.0000 C   0  0  1  0  0  0  0  0  0  0  0  0
    6.0010   -2.4876    0.0000 C   0  0  1  0  0  0  0  0  0  0  0  0
    3.4030   -1.9876    0.0000 C   0  0  0  0  0  0  0  0  0  0  0  0
    6.8671   -0.9876    0.0000 C   0  0  0  0  0  0  0  0  0  0  0  0
    6.8912    1.0115    0.0000 C   0  0  0  0  0  0  0  0  0  0  0  0
    5.9869    0.4945    0.0000 C   0  0  0  0  0  0  0  0  0  0  0  0
    6.9109    2.0113    0.0000 C   0  0  0  0  0  0  0  0  0  0  0  0
    7.7472    0.4945    0.0000 C   0  0  0  0  0  0  0  0  0  0  0  0
    7.7289   -0.4970    0.0000 C   0  0  0  0  0  0  0  0  0  0  0  0
    6.0052   -0.4970    0.0000 C   0  0  0  0  0  0  0  0  0  0  0  0
    7.7866    2.4941    0.0000 C   0  0  0  0  0  0  0  0  0  0  0  0
    6.0277    2.5634    0.0000 C   0  0  0  0  0  0  0  0  0  0  0  0
    5.0911    1.0261    0.0000 C   0  0  0  0  0  0  0  0  0  0  0  0
    8.6426    1.9772    0.0000 C   0  0  0  0  0  0  0  0  0  0  0  0
    6.0850    3.5535    0.0000 C   0  0  0  0  0  0  0  0  0  0  0  0
    7.8074    3.4856    0.0000 C   0  0  0  0  0  0  0  0  0  0  0  0
    6.9655    4.0097    0.0000 C   0  0  0  0  0  0  0  0  0  0  0  0
    5.6720   -4.2976    0.0000 H   0  0  0  0  0  0  0  0  0  0  0  0
    4.2690   -4.1076    0.0000 H   0  0  0  0  0  0  0  0  0  0  0  0
    6.5380   -3.1776    0.0000 H   0  0  0  0  0  0  0  0  0  0  0  0
    4.2690   -1.8676    0.0000 H   0  0  0  0  0  0  0  0  0  0  0  0
    6.0010   -1.8676    0.0000 H   0  0  0  0  0  0  0  0  0  0  0  0
    3.8015   -1.5126    0.0000 H   0  0  0  0  0  0  0  0  0  0  0  0
    3.0044   -1.5126    0.0000 H   0  0  0  0  0  0  0  0  0  0  0  0
    4.5981   -5.2976    0.0000 H   0  0  0  0  0  0  0  0  0  0  0  0
    3.4030   -4.6076    0.0000 H   0  0  0  0  0  0  0  0  0  0  0  0
    6.8671   -4.6076    0.0000 H   0  0  0  0  0  0  0  0  0  0  0  0
    5.4721   -0.8136    0.0000 H   0  0  0  0  0  0  0  0  0  0  0  0
    2.0000   -2.1776    0.0000 H   0  0  0  0  0  0  0  0  0  0  0  0
    8.3525    3.7810    0.0000 H   0  0  0  0  0  0  0  0  0  0  0  0
    9.1294   -0.7042    0.0000 H   0  0  0  0  0  0  0  0  0  0  0  0
    5.2779    4.7167    0.0000 H   0  0  0  0  0  0  0  0  0  0  0  0
    7.5536    5.2976    0.0000 H   0  0  0  0  0  0  0  0  0  0  0  0
  1 17  1  0  0  0  0
  1 18  1  0  0  0  0
  2 20  1  0  0  0  0
  3 41  1  0  0  0  0
  4 42  1  0  0  0  0
  5 43  1  0  0  0  0
  6 19  1  0  0  0  0
  6 45  1  0  0  0  0
  7 24  1  0  0  0  0
  7 30  1  0  0  0  0
  8 28  1  0  0  0  0
  8 29  1  0  0  0  0
  9 25  1  0  0  0  0
  9 47  1  0  0  0  0
 10 31  1  0  0  0  0
 10 48  1  0  0  0  0
 11 29  2  0  0  0  0
 12 30  2  0  0  0  0
 13 33  1  0  0  0  0
 13 49  1  0  0  0  0
 14  3  1  0  0  0  0
 14 15  1  6  0  0  0
 14 34  1  0  0  0  0
 15  4  1  0  0  0  0
 15 17  1  1  0  0  0
 15 35  1  0  0  0  0
 16  5  1  0  0  0  0
 16 14  1  1  0  0  0
 16 36  1  0  0  0  0
 17 19  1  0  0  0  0
 17 37  1  6  0  0  0
 18  2  1  0  0  0  0
 18 16  1  6  0  0  0
 18 38  1  0  0  0  0
 19 39  1  0  0  0  0
 19 40  1  0  0  0  0
 20 25  2  0  0  0  0
 20 26  1  0  0  0  0
 21 22  1  0  0  0  0
 21 23  1  0  0  0  0
 21 24  2  0  0  0  0
 22 26  2  0  0  0  0
 22 29  1  0  0  0  0
 23 27  1  0  0  0  0
 23 28  2  0  0  0  0
 24 25  1  0  0  0  0
 26 44  1  0  0  0  0
 27 30  1  0  0  0  0
 27 32  2  0  0  0  0
 28 31  1  0  0  0  0
 31 33  2  0  0  0  0
 32 33  1  0  0  0  0
 32 46  1  0  0  0  0
M  END
>  <PUBCHEM_COMPOUND_CID>
91072206

>  <PUBCHEM_COMPOUND_CANONICALIZED>
1

>  <PUBCHEM_CACTVS_COMPLEXITY>
792

>  <PUBCHEM_CACTVS_HBOND_ACCEPTOR>
13

>  <PUBCHEM_CACTVS_HBOND_DONOR>
7

>  <PUBCHEM_CACTVS_ROTATABLE_BOND>
3

>  <PUBCHEM_CACTVS_SUBSKEYS>
AAADceB4PAAAAAAAAAAAAAAAAAAAAAAAAAA0aJECAAAAAACRQAAAGgAACAAADBSwmAMwDoAABgCIAiDSCAACCAAkIAAAiAEGiMgdNzKGNBqieyOlwBUPuYfK7PzOoAABCAAYQABAAAIQADCAAAAAAAAAAA==

>  <PUBCHEM_IUPAC_INCHI>
InChI=1S/C20H16O13/c21-3-8-12(24)14(26)15(27)20(31-8)30-7-2-5-10-9-4(18(28)33-17(10)13(7)25)1-6(22)11(23)16(9)32-19(5)29/h1-2,8,12,14-15,20-27H,3H2/t8-,12-,14+,15-,20-/m1/s1

>  <PUBCHEM_IUPAC_INCHIKEY>
DOPSJTNYZLQUNU-XQKIPRNGSA-N

>  <PUBCHEM_XLOGP3_AA>
-0.7

>  <PUBCHEM_EXACT_MASS>
464.059

>  <PUBCHEM_MOLECULAR_FORMULA>
C20H16O13

>  <PUBCHEM_MOLECULAR_WEIGHT>
464.335

>  <PUBCHEM_OPENEYE_CAN_SMILES>
C1=C2C3=C(C(=C1O)O)OC(=O)C4=CC(=C(C(=C43)OC2=O)O)OC5C(C(C(C(O5)CO)O)O)O

>  <PUBCHEM_OPENEYE_ISO_SMILES>
C1=C2C3=C(C(=C1O)O)OC(=O)C4=CC(=C(C(=C43)OC2=O)O)O[C@H]5[C@@H]([C@H]([C@@H]([C@H](O5)CO)O)O)O

>  <PUBCHEM_CACTVS_TPSA>
213

>  <PUBCHEM_MONOISOTOPIC_WEIGHT>
464.059

>  <PUBCHEM_TOTAL_CHARGE>
0

>  <PUBCHEM_HEAVY_ATOM_COUNT>
33

>  <PUBCHEM_ATOM_DEF_STEREO_COUNT>
5

>  <PUBCHEM_ATOM_UDEF_STEREO_COUNT>
0

>  <PUBCHEM_BOND_DEF_STEREO_COUNT>
0

>  <PUBCHEM_BOND_UDEF_STEREO_COUNT>
0

>  <PUBCHEM_ISOTOPIC_ATOM_COUNT>
0

>  <PUBCHEM_COMPONENT_COUNT>
1

>  <PUBCHEM_CACTVS_TAUTO_COUNT>
88

>  <PUBCHEM_COORDINATE_TYPE>
1
5
255

>  <PUBCHEM_BONDANNOTATIONS>
17  19  5
18  2  5
20  25  8
20  26  8
21  22  8
21  23  8
21  24  8
22  26  8
22  29  8
23  27  8
23  28  8
24  25  8
27  30  8
27  32  8
28  31  8
14  3  5
31  33  8
32  33  8
15  4  6
16  5  6
7  24  8
7  30  8
8  28  8
8  29  8

$$$$
