91694425
 OpenBabel06101807152D

 39 40  0  0  1  0  0  0  0  0999 V2000
    2.0949   -0.9466    0.0000 O   0  0  0  0  0  0  0  0  0  0  0  0
    2.0000   -2.7204    0.0000 O   0  0  0  0  0  0  0  0  0  0  0  0
    3.6979   -0.7796    0.0000 C   0  0  3  0  0  0  0  0  0  0  0  0
    2.8319   -0.2796    0.0000 C   0  0  3  0  0  0  0  0  0  0  0  0
    3.4887   -1.7514    0.0000 C   0  0  3  0  0  0  0  0  0  0  0  0
    4.5640   -0.2796    0.0000 C   0  0  0  0  0  0  0  0  0  0  0  0
    2.8319    0.7204    0.0000 C   0  0  0  0  0  0  0  0  0  0  0  0
    2.5000   -1.8544    0.0000 C   0  0  0  0  0  0  0  0  0  0  0  0
    4.1566   -2.4957    0.0000 C   0  0  0  0  0  0  0  0  0  0  0  0
    3.6979    1.2204    0.0000 C   0  0  0  0  0  0  0  0  0  0  0  0
    4.5640    0.7204    0.0000 C   0  0  0  0  0  0  0  0  0  0  0  0
    5.4300    1.2204    0.0000 C   0  0  0  0  0  0  0  0  0  0  0  0
    5.4300    2.2204    0.0000 C   0  0  0  0  0  0  0  0  0  0  0  0
    3.6979    2.2204    0.0000 C   0  0  0  0  0  0  0  0  0  0  0  0
    4.5640    2.7204    0.0000 C   0  0  0  0  0  0  0  0  0  0  0  0
    4.8853    0.2241    0.0000 C   0  0  0  0  0  0  0  0  0  0  0  0
    6.2960    0.7204    0.0000 C   0  0  0  0  0  0  0  0  0  0  0  0
    4.1990   -1.1446    0.0000 H   0  0  0  0  0  0  0  0  0  0  0  0
    2.2652   -0.0281    0.0000 H   0  0  0  0  0  0  0  0  0  0  0  0
    4.0879   -1.5922    0.0000 H   0  0  0  0  0  0  0  0  0  0  0  0
    4.7760   -0.8622    0.0000 H   0  0  0  0  0  0  0  0  0  0  0  0
    5.1745   -0.1719    0.0000 H   0  0  0  0  0  0  0  0  0  0  0  0
    2.6198    1.3031    0.0000 H   0  0  0  0  0  0  0  0  0  0  0  0
    2.2213    0.6128    0.0000 H   0  0  0  0  0  0  0  0  0  0  0  0
    3.6951   -2.9097    0.0000 H   0  0  0  0  0  0  0  0  0  0  0  0
    4.5706   -2.9571    0.0000 H   0  0  0  0  0  0  0  0  0  0  0  0
    4.6180   -2.0816    0.0000 H   0  0  0  0  0  0  0  0  0  0  0  0
    4.3519    1.3031    0.0000 H   0  0  0  0  0  0  0  0  0  0  0  0
    6.0406    2.1128    0.0000 H   0  0  0  0  0  0  0  0  0  0  0  0
    5.6420    2.8031    0.0000 H   0  0  0  0  0  0  0  0  0  0  0  0
    3.1610    2.5304    0.0000 H   0  0  0  0  0  0  0  0  0  0  0  0
    4.9625    3.1954    0.0000 H   0  0  0  0  0  0  0  0  0  0  0  0
    4.1654    3.1954    0.0000 H   0  0  0  0  0  0  0  0  0  0  0  0
    4.4868   -0.2508    0.0000 H   0  0  0  0  0  0  0  0  0  0  0  0
    5.3602   -0.1744    0.0000 H   0  0  0  0  0  0  0  0  0  0  0  0
    5.2838    0.6991    0.0000 H   0  0  0  0  0  0  0  0  0  0  0  0
    5.9860    0.1835    0.0000 H   0  0  0  0  0  0  0  0  0  0  0  0
    6.8329    0.4104    0.0000 H   0  0  0  0  0  0  0  0  0  0  0  0
    6.6060    1.2574    0.0000 H   0  0  0  0  0  0  0  0  0  0  0  0
  1  4  1  0  0  0  0
  1  8  1  0  0  0  0
  2  8  2  0  0  0  0
  3  4  1  0  0  0  0
  3  5  1  0  0  0  0
  3  6  1  0  0  0  0
  3 18  1  0  0  0  0
  4  7  1  0  0  0  0
  4 19  1  0  0  0  0
  5  8  1  0  0  0  0
  5  9  1  0  0  0  0
  5 20  1  0  0  0  0
  6 11  1  0  0  0  0
  6 21  1  0  0  0  0
  6 22  1  0  0  0  0
  7 10  1  0  0  0  0
  7 23  1  0  0  0  0
  7 24  1  0  0  0  0
  9 25  1  0  0  0  0
  9 26  1  0  0  0  0
  9 27  1  0  0  0  0
 10 14  2  0  0  0  0
 10 16  1  0  0  0  0
 11 12  2  0  0  0  0
 11 28  1  0  0  0  0
 12 13  1  0  0  0  0
 12 17  1  0  0  0  0
 13 15  1  0  0  0  0
 13 29  1  0  0  0  0
 13 30  1  0  0  0  0
 14 15  1  0  0  0  0
 14 31  1  0  0  0  0
 15 32  1  0  0  0  0
 15 33  1  0  0  0  0
 16 34  1  0  0  0  0
 16 35  1  0  0  0  0
 16 36  1  0  0  0  0
 17 37  1  0  0  0  0
 17 38  1  0  0  0  0
 17 39  1  0  0  0  0
M  END
>  <PUBCHEM_COMPOUND_CID>
91694425

>  <PUBCHEM_COMPOUND_CANONICALIZED>
1

>  <PUBCHEM_CACTVS_COMPLEXITY>
365

>  <PUBCHEM_CACTVS_HBOND_ACCEPTOR>
2

>  <PUBCHEM_CACTVS_HBOND_DONOR>
0

>  <PUBCHEM_CACTVS_ROTATABLE_BOND>
0

>  <PUBCHEM_CACTVS_SUBSKEYS>
AAADceBwMAAAAAAAAAAAAAAAAAAAASAAAAAAAAAAAAAAAACAAAAAGgAAAAAADRSggAICCAAABACIAiDSCAAAAAAgAAAACAEAAAgAABIAAQACAAAEwAAIAAOKyGCOgAAAAAAAAAAAAAAAAAAAAAAAAAAAAA==

>  <PUBCHEM_IUPAC_OPENEYE_NAME>
(5E,9E)-3,6,10-trimethyl-3a,4,7,8,11,11a-hexahydro-3H-cyclodeca[b]furan-2-one

>  <PUBCHEM_IUPAC_CAS_NAME>
(5E,9E)-3,6,10-trimethyl-3a,4,7,8,11,11a-hexahydro-3H-cyclodeca[b]furan-2-one

>  <PUBCHEM_IUPAC_NAME>
(5E,9E)-3,6,10-trimethyl-3a,4,7,8,11,11a-hexahydro-3H-cyclodeca[b]furan-2-one

>  <PUBCHEM_IUPAC_SYSTEMATIC_NAME>
(5E,9E)-3,6,10-trimethyl-3a,4,7,8,11,11a-hexahydro-3H-cyclodeca[b]furan-2-one

>  <PUBCHEM_IUPAC_TRADITIONAL_NAME>
(5E,9E)-3,6,10-trimethyl-3a,4,7,8,11,11a-hexahydro-3H-cyclodeca[b]furan-2-one

>  <PUBCHEM_IUPAC_INCHI>
InChI=1S/C15H22O2/c1-10-5-4-6-11(2)9-14-13(8-7-10)12(3)15(16)17-14/h6-7,12-14H,4-5,8-9H2,1-3H3/b10-7+,11-6+

>  <PUBCHEM_IUPAC_INCHIKEY>
QJRFOUJEGHRZIU-NXAIOARDSA-N

>  <PUBCHEM_XLOGP3_AA>
3.1

>  <PUBCHEM_EXACT_MASS>
234.162

>  <PUBCHEM_MOLECULAR_FORMULA>
C15H22O2

>  <PUBCHEM_MOLECULAR_WEIGHT>
234.339

>  <PUBCHEM_OPENEYE_CAN_SMILES>
CC1C2CC=C(CCC=C(CC2OC1=O)C)C

>  <PUBCHEM_OPENEYE_ISO_SMILES>
CC1C2C/C=C(/CC/C=C(/CC2OC1=O)\C)\C

>  <PUBCHEM_CACTVS_TPSA>
26.3

>  <PUBCHEM_MONOISOTOPIC_WEIGHT>
234.162

>  <PUBCHEM_TOTAL_CHARGE>
0

>  <PUBCHEM_HEAVY_ATOM_COUNT>
17

>  <PUBCHEM_ATOM_DEF_STEREO_COUNT>
0

>  <PUBCHEM_ATOM_UDEF_STEREO_COUNT>
3

>  <PUBCHEM_BOND_DEF_STEREO_COUNT>
2

>  <PUBCHEM_BOND_UDEF_STEREO_COUNT>
0

>  <PUBCHEM_ISOTOPIC_ATOM_COUNT>
0

>  <PUBCHEM_COMPONENT_COUNT>
1

>  <PUBCHEM_CACTVS_TAUTO_COUNT>
2

>  <PUBCHEM_COORDINATE_TYPE>
1
5
255

>  <PUBCHEM_BONDANNOTATIONS>
3  6  3
4  7  3
5  9  3

$$$$
