91719442
 OpenBabel06101807152D

 31 32  0  0  0  0  0  0  0  0999 V2000
    5.2619   -1.1567    0.0000 O   0  0  0  0  0  0  0  0  0  0  0  0
    4.9889   -2.9120    0.0000 O   0  0  0  0  0  0  0  0  0  0  0  0
    3.7320   -0.6567    0.0000 C   0  0  0  0  0  0  0  0  0  0  0  0
    2.8660   -0.1567    0.0000 C   0  0  0  0  0  0  0  0  0  0  0  0
    3.7320   -1.6567    0.0000 C   0  0  0  0  0  0  0  0  0  0  0  0
    4.6783   -0.3520    0.0000 C   0  0  0  0  0  0  0  0  0  0  0  0
    2.0000   -0.6567    0.0000 C   0  0  0  0  0  0  0  0  0  0  0  0
    5.9674    0.8047    0.0000 C   0  0  0  0  0  0  0  0  0  0  0  0
    6.2781    1.7552    0.0000 C   0  0  0  0  0  0  0  0  0  0  0  0
    4.9889    0.5985    0.0000 C   0  0  0  0  0  0  0  0  0  0  0  0
    2.8660   -2.1567    0.0000 C   0  0  0  0  0  0  0  0  0  0  0  0
    2.0000   -1.6567    0.0000 C   0  0  0  0  0  0  0  0  0  0  0  0
    7.2566    1.9615    0.0000 C   0  0  0  0  0  0  0  0  0  0  0  0
    4.6783   -1.9615    0.0000 C   0  0  0  0  0  0  0  0  0  0  0  0
    7.5673    2.9120    0.0000 C   0  0  0  0  0  0  0  0  0  0  0  0
    3.2646    0.3182    0.0000 H   0  0  0  0  0  0  0  0  0  0  0  0
    2.4675    0.3182    0.0000 H   0  0  0  0  0  0  0  0  0  0  0  0
    1.7880   -0.0741    0.0000 H   0  0  0  0  0  0  0  0  0  0  0  0
    1.3894   -0.7644    0.0000 H   0  0  0  0  0  0  0  0  0  0  0  0
    5.9880    0.1851    0.0000 H   0  0  0  0  0  0  0  0  0  0  0  0
    6.5812    0.7174    0.0000 H   0  0  0  0  0  0  0  0  0  0  0  0
    6.2575    2.3749    0.0000 H   0  0  0  0  0  0  0  0  0  0  0  0
    5.6643    1.8426    0.0000 H   0  0  0  0  0  0  0  0  0  0  0  0
    4.5749    1.0600    0.0000 H   0  0  0  0  0  0  0  0  0  0  0  0
    2.8660   -2.7767    0.0000 H   0  0  0  0  0  0  0  0  0  0  0  0
    1.4631   -1.9667    0.0000 H   0  0  0  0  0  0  0  0  0  0  0  0
    7.2772    1.3418    0.0000 H   0  0  0  0  0  0  0  0  0  0  0  0
    7.8704    1.8741    0.0000 H   0  0  0  0  0  0  0  0  0  0  0  0
    8.1566    2.7194    0.0000 H   0  0  0  0  0  0  0  0  0  0  0  0
    7.7599    3.5013    0.0000 H   0  0  0  0  0  0  0  0  0  0  0  0
    6.9780    3.1046    0.0000 H   0  0  0  0  0  0  0  0  0  0  0  0
  1  6  1  0  0  0  0
  1 14  1  0  0  0  0
  2 14  2  0  0  0  0
  3  4  1  0  0  0  0
  3  5  2  0  0  0  0
  3  6  1  0  0  0  0
  4  7  1  0  0  0  0
  4 16  1  0  0  0  0
  4 17  1  0  0  0  0
  5 11  1  0  0  0  0
  5 14  1  0  0  0  0
  6 10  2  0  0  0  0
  7 12  1  0  0  0  0
  7 18  1  0  0  0  0
  7 19  1  0  0  0  0
  8  9  1  0  0  0  0
  8 10  1  0  0  0  0
  8 20  1  0  0  0  0
  8 21  1  0  0  0  0
  9 13  1  0  0  0  0
  9 22  1  0  0  0  0
  9 23  1  0  0  0  0
 10 24  1  0  0  0  0
 11 12  2  0  0  0  0
 11 25  1  0  0  0  0
 12 26  1  0  0  0  0
 13 15  1  0  0  0  0
 13 27  1  0  0  0  0
 13 28  1  0  0  0  0
 15 29  1  0  0  0  0
 15 30  1  0  0  0  0
 15 31  1  0  0  0  0
M  END
>  <PUBCHEM_COMPOUND_CID>
91719442

>  <PUBCHEM_COMPOUND_CANONICALIZED>
1

>  <PUBCHEM_CACTVS_COMPLEXITY>
359

>  <PUBCHEM_CACTVS_HBOND_ACCEPTOR>
2

>  <PUBCHEM_CACTVS_HBOND_DONOR>
0

>  <PUBCHEM_CACTVS_ROTATABLE_BOND>
3

>  <PUBCHEM_CACTVS_SUBSKEYS>
AAADceBwMAAAAAAAAAAAAAAAAAAAAQAAAAAgAAAAAAAAAEAAAAAAGgAAAAAADASAgAACCAAABACIAiDSCAAACAAgIAAICAEAAEgIBAIAIQACEAAEwAAIoQKAAAAAAAAAAAAAAAAAAAAAAAAAAAAAAAAAAA==

>  <PUBCHEM_IUPAC_OPENEYE_NAME>
(3Z)-3-pentylidene-4,5-dihydroisobenzofuran-1-one

>  <PUBCHEM_IUPAC_CAS_NAME>
(3Z)-3-pentylidene-4,5-dihydroisobenzofuran-1-one

>  <PUBCHEM_IUPAC_NAME>
(3Z)-3-pentylidene-4,5-dihydro-2-benzofuran-1-one

>  <PUBCHEM_IUPAC_SYSTEMATIC_NAME>
(3Z)-3-pentylidene-4,5-dihydro-2-benzofuran-1-one

>  <PUBCHEM_IUPAC_TRADITIONAL_NAME>
(3Z)-3-pentylidene-4,5-dihydroisobenzofuran-1-one

>  <PUBCHEM_IUPAC_INCHI>
InChI=1S/C13H16O2/c1-2-3-4-9-12-10-7-5-6-8-11(10)13(14)15-12/h6,8-9H,2-5,7H2,1H3/b12-9-

>  <PUBCHEM_IUPAC_INCHIKEY>
HMAYXYFQOZZPEZ-XFXZXTDPSA-N

>  <PUBCHEM_XLOGP3_AA>
3.2

>  <PUBCHEM_EXACT_MASS>
204.115

>  <PUBCHEM_MOLECULAR_FORMULA>
C13H16O2

>  <PUBCHEM_MOLECULAR_WEIGHT>
204.269

>  <PUBCHEM_OPENEYE_CAN_SMILES>
CCCCC=C1C2=C(C=CCC2)C(=O)O1

>  <PUBCHEM_OPENEYE_ISO_SMILES>
CCCC/C=C\1/C2=C(C=CCC2)C(=O)O1

>  <PUBCHEM_CACTVS_TPSA>
26.3

>  <PUBCHEM_MONOISOTOPIC_WEIGHT>
204.115

>  <PUBCHEM_TOTAL_CHARGE>
0

>  <PUBCHEM_HEAVY_ATOM_COUNT>
15

>  <PUBCHEM_ATOM_DEF_STEREO_COUNT>
0

>  <PUBCHEM_ATOM_UDEF_STEREO_COUNT>
0

>  <PUBCHEM_BOND_DEF_STEREO_COUNT>
1

>  <PUBCHEM_BOND_UDEF_STEREO_COUNT>
0

>  <PUBCHEM_ISOTOPIC_ATOM_COUNT>
0

>  <PUBCHEM_COMPONENT_COUNT>
1

>  <PUBCHEM_CACTVS_TAUTO_COUNT>
3

>  <PUBCHEM_COORDINATE_TYPE>
1
5
255

$$$$
