91721066
 OpenBabel06101807152D

 47 47  0  0  0  0  0  0  0  0999 V2000
    4.5981    4.7500    0.0000 O   0  0  0  0  0  0  0  0  0  0  0  0
    2.8660    3.7500    0.0000 O   0  0  0  0  0  0  0  0  0  0  0  0
    8.0622    0.7500    0.0000 O   0  0  0  0  0  0  0  0  0  0  0  0
    8.9282   -2.7500    0.0000 C   0  0  0  0  0  0  0  0  0  0  0  0
    8.9282   -3.7500    0.0000 C   0  0  0  0  0  0  0  0  0  0  0  0
    8.0622   -2.2500    0.0000 C   0  0  0  0  0  0  0  0  0  0  0  0
    9.7942   -4.2500    0.0000 C   0  0  0  0  0  0  0  0  0  0  0  0
    6.3301    1.7500    0.0000 C   0  0  0  0  0  0  0  0  0  0  0  0
    6.3301    0.7500    0.0000 C   0  0  0  0  0  0  0  0  0  0  0  0
    5.4641    2.2500    0.0000 C   0  0  0  0  0  0  0  0  0  0  0  0
    8.0622   -1.2500    0.0000 C   0  0  0  0  0  0  0  0  0  0  0  0
    9.7942   -5.2500    0.0000 C   0  0  0  0  0  0  0  0  0  0  0  0
    7.1962    0.2500    0.0000 C   0  0  0  0  0  0  0  0  0  0  0  0
    7.1962   -0.7500    0.0000 C   0  0  0  0  0  0  0  0  0  0  0  0
    5.4641    3.2500    0.0000 C   0  0  0  0  0  0  0  0  0  0  0  0
    4.5981    1.7500    0.0000 C   0  0  0  0  0  0  0  0  0  0  0  0
    4.5981    3.7500    0.0000 C   0  0  0  0  0  0  0  0  0  0  0  0
    3.7320    3.2500    0.0000 C   0  0  0  0  0  0  0  0  0  0  0  0
    3.7320    2.2500    0.0000 C   0  0  0  0  0  0  0  0  0  0  0  0
    5.4641    5.2500    0.0000 C   0  0  0  0  0  0  0  0  0  0  0  0
    2.0000    3.2500    0.0000 C   0  0  0  0  0  0  0  0  0  0  0  0
    9.5388   -2.8577    0.0000 H   0  0  0  0  0  0  0  0  0  0  0  0
    9.1403   -2.1674    0.0000 H   0  0  0  0  0  0  0  0  0  0  0  0
    8.3176   -3.6423    0.0000 H   0  0  0  0  0  0  0  0  0  0  0  0
    8.7162   -4.3326    0.0000 H   0  0  0  0  0  0  0  0  0  0  0  0
    7.4516   -2.1423    0.0000 H   0  0  0  0  0  0  0  0  0  0  0  0
    7.8501   -2.8326    0.0000 H   0  0  0  0  0  0  0  0  0  0  0  0
   10.4048   -4.3577    0.0000 H   0  0  0  0  0  0  0  0  0  0  0  0
   10.0063   -3.6674    0.0000 H   0  0  0  0  0  0  0  0  0  0  0  0
    6.9407    1.6423    0.0000 H   0  0  0  0  0  0  0  0  0  0  0  0
    6.5422    2.3326    0.0000 H   0  0  0  0  0  0  0  0  0  0  0  0
    5.7196    0.8577    0.0000 H   0  0  0  0  0  0  0  0  0  0  0  0
    6.1181    0.1674    0.0000 H   0  0  0  0  0  0  0  0  0  0  0  0
    8.5991   -0.9400    0.0000 H   0  0  0  0  0  0  0  0  0  0  0  0
    9.1742   -5.2500    0.0000 H   0  0  0  0  0  0  0  0  0  0  0  0
    9.7942   -5.8700    0.0000 H   0  0  0  0  0  0  0  0  0  0  0  0
   10.4142   -5.2500    0.0000 H   0  0  0  0  0  0  0  0  0  0  0  0
    6.6592   -1.0600    0.0000 H   0  0  0  0  0  0  0  0  0  0  0  0
    6.0010    3.5600    0.0000 H   0  0  0  0  0  0  0  0  0  0  0  0
    4.5981    1.1300    0.0000 H   0  0  0  0  0  0  0  0  0  0  0  0
    3.1951    1.9400    0.0000 H   0  0  0  0  0  0  0  0  0  0  0  0
    5.7741    4.7131    0.0000 H   0  0  0  0  0  0  0  0  0  0  0  0
    6.0010    5.5600    0.0000 H   0  0  0  0  0  0  0  0  0  0  0  0
    5.1541    5.7869    0.0000 H   0  0  0  0  0  0  0  0  0  0  0  0
    1.6900    3.7869    0.0000 H   0  0  0  0  0  0  0  0  0  0  0  0
    1.4631    2.9400    0.0000 H   0  0  0  0  0  0  0  0  0  0  0  0
    2.3100    2.7131    0.0000 H   0  0  0  0  0  0  0  0  0  0  0  0
  1 17  1  0  0  0  0
  1 20  1  0  0  0  0
  2 18  1  0  0  0  0
  2 21  1  0  0  0  0
  3 13  2  0  0  0  0
  4  5  1  0  0  0  0
  4  6  1  0  0  0  0
  4 22  1  0  0  0  0
  4 23  1  0  0  0  0
  5  7  1  0  0  0  0
  5 24  1  0  0  0  0
  5 25  1  0  0  0  0
  6 11  1  0  0  0  0
  6 26  1  0  0  0  0
  6 27  1  0  0  0  0
  7 12  1  0  0  0  0
  7 28  1  0  0  0  0
  7 29  1  0  0  0  0
  8  9  1  0  0  0  0
  8 10  1  0  0  0  0
  8 30  1  0  0  0  0
  8 31  1  0  0  0  0
  9 13  1  0  0  0  0
  9 32  1  0  0  0  0
  9 33  1  0  0  0  0
 10 15  2  0  0  0  0
 10 16  1  0  0  0  0
 11 14  2  0  0  0  0
 11 34  1  0  0  0  0
 12 35  1  0  0  0  0
 12 36  1  0  0  0  0
 12 37  1  0  0  0  0
 13 14  1  0  0  0  0
 14 38  1  0  0  0  0
 15 17  1  0  0  0  0
 15 39  1  0  0  0  0
 16 19  2  0  0  0  0
 16 40  1  0  0  0  0
 17 18  2  0  0  0  0
 18 19  1  0  0  0  0
 19 41  1  0  0  0  0
 20 42  1  0  0  0  0
 20 43  1  0  0  0  0
 20 44  1  0  0  0  0
 21 45  1  0  0  0  0
 21 46  1  0  0  0  0
 21 47  1  0  0  0  0
M  END
>  <PUBCHEM_COMPOUND_CID>
91721066

>  <PUBCHEM_COMPOUND_CANONICALIZED>
1

>  <PUBCHEM_CACTVS_COMPLEXITY>
312

>  <PUBCHEM_CACTVS_HBOND_ACCEPTOR>
3

>  <PUBCHEM_CACTVS_HBOND_DONOR>
0

>  <PUBCHEM_CACTVS_ROTATABLE_BOND>
10

>  <PUBCHEM_CACTVS_SUBSKEYS>
AAADceB4MAAAAAAAAAAAAAAAAAAAAAAAAAAwAAAAAAAAAAABAAAAGgAAAAAADASAmAIyBoAABACIAqBSAAACCAAgIAAIiAEGiMgNJjKEMRqAMCIkwBEKqYeIyLCOIAABAAAAQABAAAIAAACAAAAAAAAAAA==

>  <PUBCHEM_IUPAC_OPENEYE_NAME>
(E)-1-(3,4-dimethoxyphenyl)dec-4-en-3-one

>  <PUBCHEM_IUPAC_CAS_NAME>
(E)-1-(3,4-dimethoxyphenyl)-4-decen-3-one

>  <PUBCHEM_IUPAC_NAME>
(E)-1-(3,4-dimethoxyphenyl)dec-4-en-3-one

>  <PUBCHEM_IUPAC_SYSTEMATIC_NAME>
(E)-1-(3,4-dimethoxyphenyl)dec-4-en-3-one

>  <PUBCHEM_IUPAC_TRADITIONAL_NAME>
(E)-1-(3,4-dimethoxyphenyl)dec-4-en-3-one

>  <PUBCHEM_IUPAC_INCHI>
InChI=1S/C18H26O3/c1-4-5-6-7-8-9-16(19)12-10-15-11-13-17(20-2)18(14-15)21-3/h8-9,11,13-14H,4-7,10,12H2,1-3H3/b9-8+

>  <PUBCHEM_IUPAC_INCHIKEY>
NBXXCGNHVWDCHB-CMDGGOBGSA-N

>  <PUBCHEM_XLOGP3>
4.2

>  <PUBCHEM_EXACT_MASS>
290.188

>  <PUBCHEM_MOLECULAR_FORMULA>
C18H26O3

>  <PUBCHEM_MOLECULAR_WEIGHT>
290.403

>  <PUBCHEM_OPENEYE_CAN_SMILES>
CCCCCC=CC(=O)CCC1=CC(=C(C=C1)OC)OC

>  <PUBCHEM_OPENEYE_ISO_SMILES>
CCCCC/C=C/C(=O)CCC1=CC(=C(C=C1)OC)OC

>  <PUBCHEM_CACTVS_TPSA>
35.5

>  <PUBCHEM_MONOISOTOPIC_WEIGHT>
290.188

>  <PUBCHEM_TOTAL_CHARGE>
0

>  <PUBCHEM_HEAVY_ATOM_COUNT>
21

>  <PUBCHEM_ATOM_DEF_STEREO_COUNT>
0

>  <PUBCHEM_ATOM_UDEF_STEREO_COUNT>
0

>  <PUBCHEM_BOND_DEF_STEREO_COUNT>
1

>  <PUBCHEM_BOND_UDEF_STEREO_COUNT>
0

>  <PUBCHEM_ISOTOPIC_ATOM_COUNT>
0

>  <PUBCHEM_COMPONENT_COUNT>
1

>  <PUBCHEM_CACTVS_TAUTO_COUNT>
5

>  <PUBCHEM_COORDINATE_TYPE>
1
5
255

>  <PUBCHEM_BONDANNOTATIONS>
10  15  8
10  16  8
15  17  8
16  19  8
17  18  8
18  19  8

$$$$
