91746961
 OpenBabel06101807152D

 33 33  0  0  0  0  0  0  0  0999 V2000
    4.5981   -1.0600    0.0000 O   0  0  0  0  0  0  0  0  0  0  0  0
    4.5981   -0.0600    0.0000 C   0  0  0  0  0  0  0  0  0  0  0  0
    3.7320   -1.5600    0.0000 C   0  0  0  0  0  0  0  0  0  0  0  0
    4.5981    1.9400    0.0000 C   0  0  0  0  0  0  0  0  0  0  0  0
    2.8660   -3.0600    0.0000 C   0  0  0  0  0  0  0  0  0  0  0  0
    3.7320   -2.5600    0.0000 C   0  0  0  0  0  0  0  0  0  0  0  0
    5.4641    0.4400    0.0000 C   0  0  0  0  0  0  0  0  0  0  0  0
    3.7320    0.4400    0.0000 C   0  0  0  0  0  0  0  0  0  0  0  0
    5.4641    1.4400    0.0000 C   0  0  0  0  0  0  0  0  0  0  0  0
    3.7320    1.4400    0.0000 C   0  0  0  0  0  0  0  0  0  0  0  0
    2.8660   -4.0600    0.0000 C   0  0  0  0  0  0  0  0  0  0  0  0
    2.0000   -2.5600    0.0000 C   0  0  0  0  0  0  0  0  0  0  0  0
    4.5981    2.9400    0.0000 C   0  0  0  0  0  0  0  0  0  0  0  0
    5.4641    3.4400    0.0000 C   0  0  0  0  0  0  0  0  0  0  0  0
    6.3301    2.9400    0.0000 C   0  0  0  0  0  0  0  0  0  0  0  0
    3.5200   -0.9774    0.0000 H   0  0  0  0  0  0  0  0  0  0  0  0
    3.1215   -1.6677    0.0000 H   0  0  0  0  0  0  0  0  0  0  0  0
    4.2690   -2.8700    0.0000 H   0  0  0  0  0  0  0  0  0  0  0  0
    6.0010    0.1300    0.0000 H   0  0  0  0  0  0  0  0  0  0  0  0
    3.1951    0.1300    0.0000 H   0  0  0  0  0  0  0  0  0  0  0  0
    6.0010    1.7500    0.0000 H   0  0  0  0  0  0  0  0  0  0  0  0
    3.1951    1.7500    0.0000 H   0  0  0  0  0  0  0  0  0  0  0  0
    2.3100   -2.0231    0.0000 H   0  0  0  0  0  0  0  0  0  0  0  0
    2.2460   -4.0600    0.0000 H   0  0  0  0  0  0  0  0  0  0  0  0
    2.8660   -4.6800    0.0000 H   0  0  0  0  0  0  0  0  0  0  0  0
    3.4860   -4.0600    0.0000 H   0  0  0  0  0  0  0  0  0  0  0  0
    1.4631   -2.2500    0.0000 H   0  0  0  0  0  0  0  0  0  0  0  0
    1.6900   -3.0969    0.0000 H   0  0  0  0  0  0  0  0  0  0  0  0
    4.0611    3.2500    0.0000 H   0  0  0  0  0  0  0  0  0  0  0  0
    5.4641    4.0600    0.0000 H   0  0  0  0  0  0  0  0  0  0  0  0
    6.0201    2.4031    0.0000 H   0  0  0  0  0  0  0  0  0  0  0  0
    6.8671    2.6300    0.0000 H   0  0  0  0  0  0  0  0  0  0  0  0
    6.6401    3.4769    0.0000 H   0  0  0  0  0  0  0  0  0  0  0  0
  1  2  1  0  0  0  0
  1  3  1  0  0  0  0
  2  7  2  0  0  0  0
  2  8  1  0  0  0  0
  3  6  1  0  0  0  0
  3 16  1  0  0  0  0
  3 17  1  0  0  0  0
  4  9  2  0  0  0  0
  4 10  1  0  0  0  0
  4 13  1  0  0  0  0
  5  6  2  0  0  0  0
  5 11  1  0  0  0  0
  5 12  1  0  0  0  0
  6 18  1  0  0  0  0
  7  9  1  0  0  0  0
  7 19  1  0  0  0  0
  8 10  2  0  0  0  0
  8 20  1  0  0  0  0
  9 21  1  0  0  0  0
 10 22  1  0  0  0  0
 11 24  1  0  0  0  0
 11 25  1  0  0  0  0
 11 26  1  0  0  0  0
 12 23  1  0  0  0  0
 12 27  1  0  0  0  0
 12 28  1  0  0  0  0
 13 14  2  0  0  0  0
 13 29  1  0  0  0  0
 14 15  1  0  0  0  0
 14 30  1  0  0  0  0
 15 31  1  0  0  0  0
 15 32  1  0  0  0  0
 15 33  1  0  0  0  0
M  END
>  <PUBCHEM_COMPOUND_CID>
91746961

>  <PUBCHEM_COMPOUND_CANONICALIZED>
1

>  <PUBCHEM_CACTVS_COMPLEXITY>
216

>  <PUBCHEM_CACTVS_HBOND_ACCEPTOR>
1

>  <PUBCHEM_CACTVS_HBOND_DONOR>
0

>  <PUBCHEM_CACTVS_ROTATABLE_BOND>
4

>  <PUBCHEM_CACTVS_SUBSKEYS>
AAADceBwIAAAAAAAAAAAAAAAAAAAAAAAAAAwAAAAAAAAAAABAAAAGgAAAAAADASgmAIyBoAABACAAiBCAAACCAAgIAAIiAAGCIgMJiKEMRqCOCCkwBEIqAeAwAAOIAAAAAAAAABAAAAAAAAAAAAAAAAAAA==

>  <PUBCHEM_IUPAC_OPENEYE_NAME>
1-(3-methylbut-2-enoxy)-4-[(Z)-prop-1-enyl]benzene

>  <PUBCHEM_IUPAC_CAS_NAME>
1-(3-methylbut-2-enoxy)-4-[(Z)-prop-1-enyl]benzene

>  <PUBCHEM_IUPAC_NAME>
1-(3-methylbut-2-enoxy)-4-[(Z)-prop-1-enyl]benzene

>  <PUBCHEM_IUPAC_SYSTEMATIC_NAME>
1-(3-methylbut-2-enoxy)-4-[(Z)-prop-1-enyl]benzene

>  <PUBCHEM_IUPAC_TRADITIONAL_NAME>
1-(3-methylbut-2-enoxy)-4-[(Z)-prop-1-enyl]benzene

>  <PUBCHEM_IUPAC_INCHI>
InChI=1S/C14H18O/c1-4-5-13-6-8-14(9-7-13)15-11-10-12(2)3/h4-10H,11H2,1-3H3/b5-4-

>  <PUBCHEM_IUPAC_INCHIKEY>
JGELFJUQMIUNOO-PLNGDYQASA-N

>  <PUBCHEM_XLOGP3_AA>
4.4

>  <PUBCHEM_EXACT_MASS>
202.136

>  <PUBCHEM_MOLECULAR_FORMULA>
C14H18O

>  <PUBCHEM_MOLECULAR_WEIGHT>
202.297

>  <PUBCHEM_OPENEYE_CAN_SMILES>
CC=CC1=CC=C(C=C1)OCC=C(C)C

>  <PUBCHEM_OPENEYE_ISO_SMILES>
C/C=C\C1=CC=C(C=C1)OCC=C(C)C

>  <PUBCHEM_CACTVS_TPSA>
9.2

>  <PUBCHEM_MONOISOTOPIC_WEIGHT>
202.136

>  <PUBCHEM_TOTAL_CHARGE>
0

>  <PUBCHEM_HEAVY_ATOM_COUNT>
15

>  <PUBCHEM_ATOM_DEF_STEREO_COUNT>
0

>  <PUBCHEM_ATOM_UDEF_STEREO_COUNT>
0

>  <PUBCHEM_BOND_DEF_STEREO_COUNT>
1

>  <PUBCHEM_BOND_UDEF_STEREO_COUNT>
0

>  <PUBCHEM_ISOTOPIC_ATOM_COUNT>
0

>  <PUBCHEM_COMPONENT_COUNT>
1

>  <PUBCHEM_CACTVS_TAUTO_COUNT>
1

>  <PUBCHEM_COORDINATE_TYPE>
1
5
255

>  <PUBCHEM_BONDANNOTATIONS>
2  7  8
2  8  8
4  10  8
4  9  8
7  9  8
8  10  8

$$$$
