91990012
 OpenBabel06101807152D

 72 75  0  0  1  0  0  0  0  0999 V2000
    8.3916   -4.1630    0.0000 O   0  0  0  0  0  0  0  0  0  0  0  0
    9.6517   -2.9029    0.0000 O   0  0  0  0  0  0  0  0  0  0  0  0
    4.4275   -1.6241    0.0000 O   0  0  0  0  0  0  0  0  0  0  0  0
    4.4275    0.3759    0.0000 O   0  0  0  0  0  0  0  0  0  0  0  0
    2.7431   -3.6231    0.0000 O   0  0  0  0  0  0  0  0  0  0  0  0
    5.2935    2.8759    0.0000 O   0  0  0  0  0  0  0  0  0  0  0  0
    3.1590   -5.5794    0.0000 O   0  0  0  0  0  0  0  0  0  0  0  0
    7.8916    1.3759    0.0000 O   0  0  0  0  0  0  0  0  0  0  0  0
    8.7576    4.8759    0.0000 O   0  0  0  0  0  0  0  0  0  0  0  0
    7.0256    5.8759    0.0000 O   0  0  0  0  0  0  0  0  0  0  0  0
    7.0826   -3.2119    0.0000 C   0  0  3  0  0  0  0  0  0  0  0  0
    7.8916   -2.6241    0.0000 C   0  0  3  0  0  0  0  0  0  0  0  0
    7.3916   -4.1630    0.0000 C   0  0  0  0  0  0  0  0  0  0  0  0
    7.8916   -1.6241    0.0000 C   0  0  0  0  0  0  0  0  0  0  0  0
    6.1316   -2.9029    0.0000 C   0  0  0  0  0  0  0  0  0  0  0  0
    8.7006   -3.2119    0.0000 C   0  0  0  0  0  0  0  0  0  0  0  0
    7.0256   -1.1241    0.0000 C   0  0  0  0  0  0  0  0  0  0  0  0
    5.3884   -3.5720    0.0000 C   0  0  0  0  0  0  0  0  0  0  0  0
    7.0256   -0.1241    0.0000 C   0  0  0  0  0  0  0  0  0  0  0  0
    6.1596   -1.6241    0.0000 C   0  0  0  0  0  0  0  0  0  0  0  0
    6.1596    0.3759    0.0000 C   0  0  0  0  0  0  0  0  0  0  0  0
    4.4374   -3.2630    0.0000 C   0  0  0  0  0  0  0  0  0  0  0  0
    6.1596    1.3759    0.0000 C   0  0  3  0  0  0  0  0  0  0  0  0
    5.5963   -4.5502    0.0000 C   0  0  0  0  0  0  0  0  0  0  0  0
    5.2935   -1.1241    0.0000 C   0  0  0  0  0  0  0  0  0  0  0  0
    5.2935   -0.1241    0.0000 C   0  0  0  0  0  0  0  0  0  0  0  0
    3.6942   -3.9321    0.0000 C   0  0  0  0  0  0  0  0  0  0  0  0
    4.8532   -5.2193    0.0000 C   0  0  0  0  0  0  0  0  0  0  0  0
    5.2935    1.8759    0.0000 C   0  0  0  0  0  0  0  0  0  0  0  0
    7.0256    1.8759    0.0000 C   0  0  0  0  0  0  0  0  0  0  0  0
    3.9021   -4.9103    0.0000 C   0  0  0  0  0  0  0  0  0  0  0  0
    7.0256    2.8759    0.0000 C   0  0  0  0  0  0  0  0  0  0  0  0
    4.4275   -2.6241    0.0000 C   0  0  0  0  0  0  0  0  0  0  0  0
    7.8916    3.3759    0.0000 C   0  0  0  0  0  0  0  0  0  0  0  0
    6.1596    3.3759    0.0000 C   0  0  0  0  0  0  0  0  0  0  0  0
    2.0000   -4.2922    0.0000 C   0  0  0  0  0  0  0  0  0  0  0  0
    7.8916    4.3759    0.0000 C   0  0  0  0  0  0  0  0  0  0  0  0
    6.1596    4.3759    0.0000 C   0  0  0  0  0  0  0  0  0  0  0  0
    7.0256    4.8759    0.0000 C   0  0  0  0  0  0  0  0  0  0  0  0
    9.6237    4.3759    0.0000 C   0  0  0  0  0  0  0  0  0  0  0  0
    6.9856   -2.5995    0.0000 H   0  0  0  0  0  0  0  0  0  0  0  0
    8.4440   -2.3426    0.0000 H   0  0  0  0  0  0  0  0  0  0  0  0
    6.7852   -4.2919    0.0000 H   0  0  0  0  0  0  0  0  0  0  0  0
    7.4564   -4.7796    0.0000 H   0  0  0  0  0  0  0  0  0  0  0  0
    8.5022   -1.7318    0.0000 H   0  0  0  0  0  0  0  0  0  0  0  0
    8.1037   -1.0415    0.0000 H   0  0  0  0  0  0  0  0  0  0  0  0
    6.4226   -2.3555    0.0000 H   0  0  0  0  0  0  0  0  0  0  0  0
    5.6430   -2.5212    0.0000 H   0  0  0  0  0  0  0  0  0  0  0  0
    7.5625    0.1859    0.0000 H   0  0  0  0  0  0  0  0  0  0  0  0
    6.1596   -2.2441    0.0000 H   0  0  0  0  0  0  0  0  0  0  0  0
    4.3084   -2.6566    0.0000 H   0  0  0  0  0  0  0  0  0  0  0  0
    6.1596    1.9959    0.0000 H   0  0  0  0  0  0  0  0  0  0  0  0
    6.1860   -4.7418    0.0000 H   0  0  0  0  0  0  0  0  0  0  0  0
    4.9821   -5.8258    0.0000 H   0  0  0  0  0  0  0  0  0  0  0  0
    4.6830    1.9835    0.0000 H   0  0  0  0  0  0  0  0  0  0  0  0
    5.0815    1.2933    0.0000 H   0  0  0  0  0  0  0  0  0  0  0  0
    3.8906    0.0659    0.0000 H   0  0  0  0  0  0  0  0  0  0  0  0
    4.7566    3.1859    0.0000 H   0  0  0  0  0  0  0  0  0  0  0  0
    3.8075   -2.6241    0.0000 H   0  0  0  0  0  0  0  0  0  0  0  0
    4.4275   -3.2441    0.0000 H   0  0  0  0  0  0  0  0  0  0  0  0
    5.0475   -2.6241    0.0000 H   0  0  0  0  0  0  0  0  0  0  0  0
    8.4286    3.0659    0.0000 H   0  0  0  0  0  0  0  0  0  0  0  0
    3.2879   -6.1859    0.0000 H   0  0  0  0  0  0  0  0  0  0  0  0
    5.6226    3.0659    0.0000 H   0  0  0  0  0  0  0  0  0  0  0  0
    1.5851   -3.8315    0.0000 H   0  0  0  0  0  0  0  0  0  0  0  0
    1.5392   -4.7071    0.0000 H   0  0  0  0  0  0  0  0  0  0  0  0
    2.4149   -4.7530    0.0000 H   0  0  0  0  0  0  0  0  0  0  0  0
    5.6226    4.6859    0.0000 H   0  0  0  0  0  0  0  0  0  0  0  0
    6.4887    6.1859    0.0000 H   0  0  0  0  0  0  0  0  0  0  0  0
    9.3137    3.8389    0.0000 H   0  0  0  0  0  0  0  0  0  0  0  0
   10.1606    4.0659    0.0000 H   0  0  0  0  0  0  0  0  0  0  0  0
    9.9337    4.9128    0.0000 H   0  0  0  0  0  0  0  0  0  0  0  0
  1 13  1  0  0  0  0
  1 16  1  0  0  0  0
  2 16  2  0  0  0  0
  3 25  1  0  0  0  0
  3 33  1  0  0  0  0
  4 26  1  0  0  0  0
  4 57  1  0  0  0  0
  5 27  1  0  0  0  0
  5 36  1  0  0  0  0
  6 29  1  0  0  0  0
  6 58  1  0  0  0  0
  7 31  1  0  0  0  0
  7 63  1  0  0  0  0
  8 30  2  0  0  0  0
  9 37  1  0  0  0  0
  9 40  1  0  0  0  0
 10 39  1  0  0  0  0
 10 69  1  0  0  0  0
 11 12  1  0  0  0  0
 11 13  1  0  0  0  0
 11 15  1  0  0  0  0
 11 41  1  0  0  0  0
 12 14  1  0  0  0  0
 12 16  1  0  0  0  0
 12 42  1  0  0  0  0
 13 43  1  0  0  0  0
 13 44  1  0  0  0  0
 14 17  1  0  0  0  0
 14 45  1  0  0  0  0
 14 46  1  0  0  0  0
 15 18  1  0  0  0  0
 15 47  1  0  0  0  0
 15 48  1  0  0  0  0
 17 19  2  0  0  0  0
 17 20  1  0  0  0  0
 18 22  2  0  0  0  0
 18 24  1  0  0  0  0
 19 21  1  0  0  0  0
 19 49  1  0  0  0  0
 20 25  2  0  0  0  0
 20 50  1  0  0  0  0
 21 23  1  0  0  0  0
 21 26  2  0  0  0  0
 22 27  1  0  0  0  0
 22 51  1  0  0  0  0
 23 29  1  0  0  0  0
 23 30  1  0  0  0  0
 23 52  1  0  0  0  0
 24 28  2  0  0  0  0
 24 53  1  0  0  0  0
 25 26  1  0  0  0  0
 27 31  2  0  0  0  0
 28 31  1  0  0  0  0
 28 54  1  0  0  0  0
 29 55  1  0  0  0  0
 29 56  1  0  0  0  0
 30 32  1  0  0  0  0
 32 34  2  0  0  0  0
 32 35  1  0  0  0  0
 33 59  1  0  0  0  0
 33 60  1  0  0  0  0
 33 61  1  0  0  0  0
 34 37  1  0  0  0  0
 34 62  1  0  0  0  0
 35 38  2  0  0  0  0
 35 64  1  0  0  0  0
 36 65  1  0  0  0  0
 36 66  1  0  0  0  0
 36 67  1  0  0  0  0
 37 39  2  0  0  0  0
 38 39  1  0  0  0  0
 38 68  1  0  0  0  0
 40 70  1  0  0  0  0
 40 71  1  0  0  0  0
 40 72  1  0  0  0  0
M  END
>  <PUBCHEM_COMPOUND_CID>
91990012

>  <PUBCHEM_COMPOUND_CANONICALIZED>
1

>  <PUBCHEM_CACTVS_COMPLEXITY>
837

>  <PUBCHEM_CACTVS_HBOND_ACCEPTOR>
10

>  <PUBCHEM_CACTVS_HBOND_DONOR>
4

>  <PUBCHEM_CACTVS_ROTATABLE_BOND>
11

>  <PUBCHEM_CACTVS_SUBSKEYS>
AAADcfB4PAAAAAAAAAAAAAAAAAAAASAAAAAwYMAAAAAAAAABUAAAGgAACAAADQSgmAIyDoAABgCIAqDSCAACCAAkIAAIiAEGiMgNNjaGNRqCcSMk4BELuYfK7PzOoAADAAAIQABAAAYAABCAAAAAAAAAAA==

>  <PUBCHEM_IUPAC_OPENEYE_NAME>
3-[[4-hydroxy-3-[2-(4-hydroxy-3-methoxy-phenyl)-1-(hydroxymethyl)-2-oxo-ethyl]-5-methoxy-phenyl]methyl]-4-[(4-hydroxy-3-methoxy-phenyl)methyl]tetrahydrofuran-2-one

>  <PUBCHEM_IUPAC_CAS_NAME>
3-[[4-hydroxy-3-[3-hydroxy-1-(4-hydroxy-3-methoxyphenyl)-1-oxopropan-2-yl]-5-methoxyphenyl]methyl]-4-[(4-hydroxy-3-methoxyphenyl)methyl]-2-oxolanone

>  <PUBCHEM_IUPAC_NAME>
3-[[4-hydroxy-3-[3-hydroxy-1-(4-hydroxy-3-methoxyphenyl)-1-oxopropan-2-yl]-5-methoxyphenyl]methyl]-4-[(4-hydroxy-3-methoxyphenyl)methyl]oxolan-2-one

>  <PUBCHEM_IUPAC_SYSTEMATIC_NAME>
3-[[3-methoxy-5-[1-(3-methoxy-4-oxidanyl-phenyl)-3-oxidanyl-1-oxidanylidene-propan-2-yl]-4-oxidanyl-phenyl]methyl]-4-[(3-methoxy-4-oxidanyl-phenyl)methyl]oxolan-2-one

>  <PUBCHEM_IUPAC_TRADITIONAL_NAME>
3-[4-hydroxy-3-[2-(4-hydroxy-3-methoxy-phenyl)-2-keto-1-methylol-ethyl]-5-methoxy-benzyl]-4-vanillyl-tetrahydrofuran-2-one

>  <PUBCHEM_IUPAC_INCHI>
InChI=1S/C30H32O10/c1-37-25-11-16(4-6-23(25)32)8-19-15-40-30(36)20(19)9-17-10-21(29(35)27(12-17)39-3)22(14-31)28(34)18-5-7-24(33)26(13-18)38-2/h4-7,10-13,19-20,22,31-33,35H,8-9,14-15H2,1-3H3

>  <PUBCHEM_IUPAC_INCHIKEY>
CXFUYRRLYOTRBZ-UHFFFAOYSA-N

>  <PUBCHEM_XLOGP3_AA>
3.5

>  <PUBCHEM_EXACT_MASS>
552.2

>  <PUBCHEM_MOLECULAR_FORMULA>
C30H32O10

>  <PUBCHEM_MOLECULAR_WEIGHT>
552.576

>  <PUBCHEM_OPENEYE_CAN_SMILES>
COC1=CC(=CC(=C1O)C(CO)C(=O)C2=CC(=C(C=C2)O)OC)CC3C(COC3=O)CC4=CC(=C(C=C4)O)OC

>  <PUBCHEM_OPENEYE_ISO_SMILES>
COC1=CC(=CC(=C1O)C(CO)C(=O)C2=CC(=C(C=C2)O)OC)CC3C(COC3=O)CC4=CC(=C(C=C4)O)OC

>  <PUBCHEM_CACTVS_TPSA>
152

>  <PUBCHEM_MONOISOTOPIC_WEIGHT>
552.2

>  <PUBCHEM_TOTAL_CHARGE>
0

>  <PUBCHEM_HEAVY_ATOM_COUNT>
40

>  <PUBCHEM_ATOM_DEF_STEREO_COUNT>
0

>  <PUBCHEM_ATOM_UDEF_STEREO_COUNT>
3

>  <PUBCHEM_BOND_DEF_STEREO_COUNT>
0

>  <PUBCHEM_BOND_UDEF_STEREO_COUNT>
0

>  <PUBCHEM_ISOTOPIC_ATOM_COUNT>
0

>  <PUBCHEM_COMPONENT_COUNT>
1

>  <PUBCHEM_CACTVS_TAUTO_COUNT>
994

>  <PUBCHEM_COORDINATE_TYPE>
1
5
255

>  <PUBCHEM_BONDANNOTATIONS>
11  15  3
12  14  3
17  19  8
17  20  8
18  22  8
18  24  8
19  21  8
20  25  8
21  26  8
22  27  8
23  29  3
24  28  8
25  26  8
27  31  8
28  31  8
32  34  8
32  35  8
34  37  8
35  38  8
37  39  8
38  39  8

$$$$
