92131
 OpenBabel06101807152D

 55 56  0  0  1  0  0  0  0  0999 V2000
    3.5000   -3.0482    0.0000 O   0  0  0  0  0  0  0  0  0  0  0  0
    5.2320    0.9518    0.0000 C   0  0  1  0  0  0  0  0  0  0  0  0
    5.2320    1.9518    0.0000 C   0  0  2  0  0  0  0  0  0  0  0  0
    6.1260    2.4865    0.0000 C   0  0  0  0  0  0  0  0  0  0  0  0
    4.3660    0.4518    0.0000 C   0  0  2  0  0  0  0  0  0  0  0  0
    6.1260    0.4171    0.0000 C   0  0  0  0  0  0  0  0  0  0  0  0
    4.3660    2.4518    0.0000 C   0  0  0  0  0  0  0  0  0  0  0  0
    7.0321    1.9726    0.0000 C   0  0  0  0  0  0  0  0  0  0  0  0
    7.0321    0.9310    0.0000 C   0  0  0  0  0  0  0  0  0  0  0  0
    5.2320   -0.0482    0.0000 C   0  0  0  0  0  0  0  0  0  0  0  0
    3.5000    1.9518    0.0000 C   0  0  0  0  0  0  0  0  0  0  0  0
    3.5000    0.9518    0.0000 C   0  0  0  0  0  0  0  0  0  0  0  0
    4.3660   -0.5482    0.0000 C   0  0  0  0  0  0  0  0  0  0  0  0
    6.6160    3.3582    0.0000 C   0  0  0  0  0  0  0  0  0  0  0  0
    5.6160    3.3466    0.0000 C   0  0  0  0  0  0  0  0  0  0  0  0
    3.5000   -1.0482    0.0000 C   0  0  0  0  0  0  0  0  0  0  0  0
    2.6340    0.4518    0.0000 C   0  0  0  0  0  0  0  0  0  0  0  0
    3.5000   -2.0482    0.0000 C   0  0  3  0  0  0  0  0  0  0  0  0
    4.5000   -2.0482    0.0000 C   0  0  0  0  0  0  0  0  0  0  0  0
    2.5000   -2.0482    0.0000 C   0  0  0  0  0  0  0  0  0  0  0  0
    2.0000   -2.9142    0.0000 C   0  0  0  0  0  0  0  0  0  0  0  0
    5.2255    2.8018    0.0000 H   0  0  0  0  0  0  0  0  0  0  0  0
    3.8291    0.1418    0.0000 H   0  0  0  0  0  0  0  0  0  0  0  0
    5.7214   -0.0527    0.0000 H   0  0  0  0  0  0  0  0  0  0  0  0
    6.5196   -0.0619    0.0000 H   0  0  0  0  0  0  0  0  0  0  0  0
    4.7646    2.9267    0.0000 H   0  0  0  0  0  0  0  0  0  0  0  0
    3.9675    2.9267    0.0000 H   0  0  0  0  0  0  0  0  0  0  0  0
    7.6429    1.8665    0.0000 H   0  0  0  0  0  0  0  0  0  0  0  0
    7.2411    2.5563    0.0000 H   0  0  0  0  0  0  0  0  0  0  0  0
    7.2411    0.3473    0.0000 H   0  0  0  0  0  0  0  0  0  0  0  0
    7.6429    1.0371    0.0000 H   0  0  0  0  0  0  0  0  0  0  0  0
    4.6120   -0.0482    0.0000 H   0  0  0  0  0  0  0  0  0  0  0  0
    5.2320   -0.6682    0.0000 H   0  0  0  0  0  0  0  0  0  0  0  0
    5.8520   -0.0482    0.0000 H   0  0  0  0  0  0  0  0  0  0  0  0
    3.2880    2.5344    0.0000 H   0  0  0  0  0  0  0  0  0  0  0  0
    2.8894    1.8441    0.0000 H   0  0  0  0  0  0  0  0  0  0  0  0
    4.5781   -1.1308    0.0000 H   0  0  0  0  0  0  0  0  0  0  0  0
    4.9766   -0.4405    0.0000 H   0  0  0  0  0  0  0  0  0  0  0  0
    7.1564    3.0544    0.0000 H   0  0  0  0  0  0  0  0  0  0  0  0
    6.9197    3.8987    0.0000 H   0  0  0  0  0  0  0  0  0  0  0  0
    6.0755    3.6620    0.0000 H   0  0  0  0  0  0  0  0  0  0  0  0
    6.1493    3.6628    0.0000 H   0  0  0  0  0  0  0  0  0  0  0  0
    5.2998    3.8800    0.0000 H   0  0  0  0  0  0  0  0  0  0  0  0
    5.0827    3.0304    0.0000 H   0  0  0  0  0  0  0  0  0  0  0  0
    3.2880   -0.4656    0.0000 H   0  0  0  0  0  0  0  0  0  0  0  0
    2.8894   -1.1559    0.0000 H   0  0  0  0  0  0  0  0  0  0  0  0
    2.0970    0.7618    0.0000 H   0  0  0  0  0  0  0  0  0  0  0  0
    2.6340   -0.1682    0.0000 H   0  0  0  0  0  0  0  0  0  0  0  0
    4.5000   -2.6682    0.0000 H   0  0  0  0  0  0  0  0  0  0  0  0
    5.1200   -2.0482    0.0000 H   0  0  0  0  0  0  0  0  0  0  0  0
    4.5000   -1.4282    0.0000 H   0  0  0  0  0  0  0  0  0  0  0  0
    2.1900   -1.5113    0.0000 H   0  0  0  0  0  0  0  0  0  0  0  0
    2.9631   -3.3582    0.0000 H   0  0  0  0  0  0  0  0  0  0  0  0
    1.3800   -2.9142    0.0000 H   0  0  0  0  0  0  0  0  0  0  0  0
    2.3100   -3.4512    0.0000 H   0  0  0  0  0  0  0  0  0  0  0  0
  1 18  1  0  0  0  0
  1 53  1  0  0  0  0
  2  3  1  1  0  0  0
  2  6  1  0  0  0  0
  2 10  1  0  0  0  0
  3  4  1  0  0  0  0
  3  7  1  0  0  0  0
  3 22  1  6  0  0  0
  4  8  1  0  0  0  0
  4 14  1  0  0  0  0
  4 15  1  0  0  0  0
  5  2  1  6  0  0  0
  5 12  1  0  0  0  0
  5 13  1  0  0  0  0
  5 23  1  0  0  0  0
  6  9  1  0  0  0  0
  6 24  1  0  0  0  0
  6 25  1  0  0  0  0
  7 11  1  0  0  0  0
  7 26  1  0  0  0  0
  7 27  1  0  0  0  0
  8  9  1  0  0  0  0
  8 28  1  0  0  0  0
  8 29  1  0  0  0  0
  9 30  1  0  0  0  0
  9 31  1  0  0  0  0
 10 32  1  0  0  0  0
 10 33  1  0  0  0  0
 10 34  1  0  0  0  0
 11 12  1  0  0  0  0
 11 35  1  0  0  0  0
 11 36  1  0  0  0  0
 12 17  2  0  0  0  0
 13 16  1  0  0  0  0
 13 37  1  0  0  0  0
 13 38  1  0  0  0  0
 14 39  1  0  0  0  0
 14 40  1  0  0  0  0
 14 41  1  0  0  0  0
 15 42  1  0  0  0  0
 15 43  1  0  0  0  0
 15 44  1  0  0  0  0
 16 18  1  0  0  0  0
 16 45  1  0  0  0  0
 16 46  1  0  0  0  0
 17 47  1  0  0  0  0
 17 48  1  0  0  0  0
 18 19  1  0  0  0  0
 18 20  1  0  0  0  0
 19 49  1  0  0  0  0
 19 50  1  0  0  0  0
 19 51  1  0  0  0  0
 20 21  2  0  0  0  0
 20 52  1  0  0  0  0
 21 54  1  0  0  0  0
 21 55  1  0  0  0  0
M  END
>  <PUBCHEM_COMPOUND_CID>
92131

>  <PUBCHEM_COMPOUND_CANONICALIZED>
1

>  <PUBCHEM_CACTVS_COMPLEXITY>
422

>  <PUBCHEM_CACTVS_HBOND_ACCEPTOR>
1

>  <PUBCHEM_CACTVS_HBOND_DONOR>
1

>  <PUBCHEM_CACTVS_ROTATABLE_BOND>
4

>  <PUBCHEM_CACTVS_SUBSKEYS>
AAADcfB4IAAAAAAAAAAAAAAAAAAAAAAAAAAwYAAAAAAAAADAAAAAGgAACAAAD0SAgAACAAAAAgCAAiBCAAAAAAAgAAAIAAAAAAgABAIAAQAAQAAEgAAAEAGAwPAPgAAAAAAAAAAAAAQAACAAAAAAAAAAAA==

>  <PUBCHEM_IUPAC_OPENEYE_NAME>
5-[(1S,4aS,8aS)-5,5,8a-trimethyl-2-methylene-decalin-1-yl]-3-methyl-pent-1-en-3-ol

>  <PUBCHEM_IUPAC_CAS_NAME>
5-[(1S,4aS,8aS)-5,5,8a-trimethyl-2-methylene-3,4,4a,6,7,8-hexahydro-1H-naphthalen-1-yl]-3-methyl-1-penten-3-ol

>  <PUBCHEM_IUPAC_NAME>
5-[(1S,4aS,8aS)-5,5,8a-trimethyl-2-methylidene-3,4,4a,6,7,8-hexahydro-1H-naphthalen-1-yl]-3-methylpent-1-en-3-ol

>  <PUBCHEM_IUPAC_SYSTEMATIC_NAME>
5-[(1S,4aS,8aS)-5,5,8a-trimethyl-2-methylidene-3,4,4a,6,7,8-hexahydro-1H-naphthalen-1-yl]-3-methyl-pent-1-en-3-ol

>  <PUBCHEM_IUPAC_TRADITIONAL_NAME>
5-[(1S,4aS,8aS)-5,5,8a-trimethyl-2-methylene-decalin-1-yl]-3-methyl-pent-1-en-3-ol

>  <PUBCHEM_IUPAC_INCHI>
InChI=1S/C20H34O/c1-7-19(5,21)14-11-16-15(2)9-10-17-18(3,4)12-8-13-20(16,17)6/h7,16-17,21H,1-2,8-14H2,3-6H3/t16-,17-,19?,20+/m0/s1

>  <PUBCHEM_IUPAC_INCHIKEY>
CECREIRZLPLYDM-OQLBXJDTSA-N

>  <PUBCHEM_XLOGP3_AA>
5.7

>  <PUBCHEM_EXACT_MASS>
290.261

>  <PUBCHEM_MOLECULAR_FORMULA>
C20H34O

>  <PUBCHEM_MOLECULAR_WEIGHT>
290.491

>  <PUBCHEM_OPENEYE_CAN_SMILES>
CC1(CCCC2(C1CCC(=C)C2CCC(C)(C=C)O)C)C

>  <PUBCHEM_OPENEYE_ISO_SMILES>
C[C@]12CCCC([C@@H]1CCC(=C)[C@@H]2CCC(C)(C=C)O)(C)C

>  <PUBCHEM_CACTVS_TPSA>
20.2

>  <PUBCHEM_MONOISOTOPIC_WEIGHT>
290.261

>  <PUBCHEM_TOTAL_CHARGE>
0

>  <PUBCHEM_HEAVY_ATOM_COUNT>
21

>  <PUBCHEM_ATOM_DEF_STEREO_COUNT>
3

>  <PUBCHEM_ATOM_UDEF_STEREO_COUNT>
1

>  <PUBCHEM_BOND_DEF_STEREO_COUNT>
0

>  <PUBCHEM_BOND_UDEF_STEREO_COUNT>
0

>  <PUBCHEM_ISOTOPIC_ATOM_COUNT>
0

>  <PUBCHEM_COMPONENT_COUNT>
1

>  <PUBCHEM_CACTVS_TAUTO_COUNT>
1

>  <PUBCHEM_COORDINATE_TYPE>
1
5
255

>  <PUBCHEM_BONDANNOTATIONS>
18  1  3
2  10  5
3  22  6
5  13  5

$$$$
