92146
 OpenBabel06101807152D

 66 67  0  0  1  0  0  0  0  0999 V2000
    6.0010   -2.3450    0.0000 O   0  0  0  0  0  0  0  0  0  0  0  0
    7.7331   -0.3450    0.0000 O   0  0  0  0  0  0  0  0  0  0  0  0
    5.1350   -0.8450    0.0000 O   0  0  0  0  0  0  0  0  0  0  0  0
    9.4651   -0.3450    0.0000 O   0  0  0  0  0  0  0  0  0  0  0  0
    7.7331   -3.3450    0.0000 O   0  0  0  0  0  0  0  0  0  0  0  0
    9.4651   -2.3450    0.0000 O   0  0  0  0  0  0  0  0  0  0  0  0
    4.2690   -3.3450    0.0000 O   0  0  0  0  0  0  0  0  0  0  0  0
    2.5369   -2.3450    0.0000 O   0  0  0  0  0  0  0  0  0  0  0  0
    2.5369   -0.3450    0.0000 O   0  0  0  0  0  0  0  0  0  0  0  0
    6.0010    0.6550    0.0000 O   0  0  0  0  0  0  0  0  0  0  0  0
    3.4030    1.1550    0.0000 O   0  0  0  0  0  0  0  0  0  0  0  0
   11.1972    0.6550    0.0000 O   0  0  0  0  0  0  0  0  0  0  0  0
    7.7331    0.6550    0.0000 O   0  0  0  0  0  0  0  0  0  0  0  0
    9.4651    2.6550    0.0000 O   0  0  0  0  0  0  0  0  0  0  0  0
    7.7331    2.6550    0.0000 O   0  0  0  0  0  0  0  0  0  0  0  0
   11.1972    3.6550    0.0000 O   0  0  0  0  0  0  0  0  0  0  0  0
    6.8671   -1.8450    0.0000 C   0  0  1  0  0  0  0  0  0  0  0  0
    7.7331   -2.3450    0.0000 C   0  0  1  0  0  0  0  0  0  0  0  0
    6.8671   -0.8450    0.0000 C   0  0  1  0  0  0  0  0  0  0  0  0
    8.5991   -1.8450    0.0000 C   0  0  2  0  0  0  0  0  0  0  0  0
    8.5991   -0.8450    0.0000 C   0  0  2  0  0  0  0  0  0  0  0  0
    5.1350   -1.8450    0.0000 C   0  0  1  0  0  0  0  0  0  0  0  0
    4.2690   -2.3450    0.0000 C   0  0  1  0  0  0  0  0  0  0  0  0
    3.4030   -1.8450    0.0000 C   0  0  2  0  0  0  0  0  0  0  0  0
    3.4030   -0.8450    0.0000 C   0  0  1  0  0  0  0  0  0  0  0  0
    4.2690   -0.3450    0.0000 C   0  0  1  0  0  0  0  0  0  0  0  0
    6.0010   -0.3450    0.0000 C   0  0  0  0  0  0  0  0  0  0  0  0
    9.4651    0.6550    0.0000 C   0  0  1  0  0  0  0  0  0  0  0  0
    4.2690    0.6550    0.0000 C   0  0  0  0  0  0  0  0  0  0  0  0
   10.3312    1.1550    0.0000 C   0  0  1  0  0  0  0  0  0  0  0  0
    8.5991    1.1550    0.0000 C   0  0  1  0  0  0  0  0  0  0  0  0
   10.3312    2.1550    0.0000 C   0  0  2  0  0  0  0  0  0  0  0  0
    8.5991    2.1550    0.0000 C   0  0  0  0  0  0  0  0  0  0  0  0
   11.1972    2.6550    0.0000 C   0  0  0  0  0  0  0  0  0  0  0  0
    6.3301   -1.5350    0.0000 H   0  0  0  0  0  0  0  0  0  0  0  0
    8.2700   -2.6550    0.0000 H   0  0  0  0  0  0  0  0  0  0  0  0
    6.8671   -0.2250    0.0000 H   0  0  0  0  0  0  0  0  0  0  0  0
    9.1360   -1.5350    0.0000 H   0  0  0  0  0  0  0  0  0  0  0  0
    8.5991   -0.2250    0.0000 H   0  0  0  0  0  0  0  0  0  0  0  0
    5.1350   -2.4650    0.0000 H   0  0  0  0  0  0  0  0  0  0  0  0
    3.7320   -2.6550    0.0000 H   0  0  0  0  0  0  0  0  0  0  0  0
    2.8660   -1.5350    0.0000 H   0  0  0  0  0  0  0  0  0  0  0  0
    3.4030   -0.2250    0.0000 H   0  0  0  0  0  0  0  0  0  0  0  0
    4.8059   -0.0350    0.0000 H   0  0  0  0  0  0  0  0  0  0  0  0
    5.3905   -0.2373    0.0000 H   0  0  0  0  0  0  0  0  0  0  0  0
    5.7890   -0.9276    0.0000 H   0  0  0  0  0  0  0  0  0  0  0  0
   10.0021    0.3450    0.0000 H   0  0  0  0  0  0  0  0  0  0  0  0
    4.8796    0.5473    0.0000 H   0  0  0  0  0  0  0  0  0  0  0  0
    4.4810    1.2376    0.0000 H   0  0  0  0  0  0  0  0  0  0  0  0
    8.2700   -3.6550    0.0000 H   0  0  0  0  0  0  0  0  0  0  0  0
   10.8681    1.4650    0.0000 H   0  0  0  0  0  0  0  0  0  0  0  0
    8.0622    1.4650    0.0000 H   0  0  0  0  0  0  0  0  0  0  0  0
   10.0021   -2.0350    0.0000 H   0  0  0  0  0  0  0  0  0  0  0  0
    3.7320   -3.6550    0.0000 H   0  0  0  0  0  0  0  0  0  0  0  0
    2.0000   -2.0350    0.0000 H   0  0  0  0  0  0  0  0  0  0  0  0
    2.0000   -0.6550    0.0000 H   0  0  0  0  0  0  0  0  0  0  0  0
    9.7942    1.8450    0.0000 H   0  0  0  0  0  0  0  0  0  0  0  0
    6.5380    0.9650    0.0000 H   0  0  0  0  0  0  0  0  0  0  0  0
    9.2097    2.0473    0.0000 H   0  0  0  0  0  0  0  0  0  0  0  0
    8.8112    2.7376    0.0000 H   0  0  0  0  0  0  0  0  0  0  0  0
    3.4030    1.7750    0.0000 H   0  0  0  0  0  0  0  0  0  0  0  0
   11.7341    0.9650    0.0000 H   0  0  0  0  0  0  0  0  0  0  0  0
    7.1962    0.9650    0.0000 H   0  0  0  0  0  0  0  0  0  0  0  0
   11.7341    2.3450    0.0000 H   0  0  0  0  0  0  0  0  0  0  0  0
    9.4651    3.2750    0.0000 H   0  0  0  0  0  0  0  0  0  0  0  0
    7.7331    3.2750    0.0000 H   0  0  0  0  0  0  0  0  0  0  0  0
  2 19  1  0  0  0  0
  2 21  1  0  0  0  0
  3 22  1  0  0  0  0
  3 26  1  0  0  0  0
  5 50  1  0  0  0  0
  6 53  1  0  0  0  0
  7 54  1  0  0  0  0
  8 55  1  0  0  0  0
  9 56  1  0  0  0  0
 10 27  1  0  0  0  0
 10 58  1  0  0  0  0
 11 29  1  0  0  0  0
 11 61  1  0  0  0  0
 12 62  1  0  0  0  0
 13 63  1  0  0  0  0
 14 65  1  0  0  0  0
 15 33  1  0  0  0  0
 15 66  1  0  0  0  0
 16 34  2  0  0  0  0
 17  1  1  0  0  0  0
 17 18  1  1  0  0  0
 17 35  1  0  0  0  0
 18  5  1  0  0  0  0
 18 20  1  1  0  0  0
 18 36  1  0  0  0  0
 19 17  1  6  0  0  0
 19 27  1  0  0  0  0
 19 37  1  0  0  0  0
 20  6  1  0  0  0  0
 20 21  1  6  0  0  0
 20 38  1  0  0  0  0
 21  4  1  0  0  0  0
 21 39  1  1  0  0  0
 22  1  1  0  0  0  0
 22 23  1  6  0  0  0
 22 40  1  0  0  0  0
 23  7  1  0  0  0  0
 23 24  1  6  0  0  0
 23 41  1  0  0  0  0
 24  8  1  0  0  0  0
 24 25  1  1  0  0  0
 24 42  1  0  0  0  0
 25  9  1  0  0  0  0
 25 26  1  6  0  0  0
 25 43  1  0  0  0  0
 26 29  1  0  0  0  0
 26 44  1  6  0  0  0
 27 45  1  0  0  0  0
 27 46  1  0  0  0  0
 28  4  1  0  0  0  0
 28 30  1  0  0  0  0
 28 31  1  0  0  0  0
 28 47  1  1  0  0  0
 29 48  1  0  0  0  0
 29 49  1  0  0  0  0
 30 12  1  0  0  0  0
 30 32  1  0  0  0  0
 30 51  1  6  0  0  0
 31 13  1  0  0  0  0
 31 33  1  0  0  0  0
 31 52  1  1  0  0  0
 32 14  1  0  0  0  0
 32 34  1  0  0  0  0
 32 57  1  6  0  0  0
 33 59  1  0  0  0  0
 33 60  1  0  0  0  0
 34 64  1  0  0  0  0
M  END
>  <PUBCHEM_COMPOUND_CID>
92146

>  <PUBCHEM_COMPOUND_CANONICALIZED>
1

>  <PUBCHEM_CACTVS_COMPLEXITY>
625

>  <PUBCHEM_CACTVS_HBOND_ACCEPTOR>
16

>  <PUBCHEM_CACTVS_HBOND_DONOR>
11

>  <PUBCHEM_CACTVS_ROTATABLE_BOND>
11

>  <PUBCHEM_CACTVS_SUBSKEYS>
AAADcfB4PgAAAAAAAAAAAAAAAAAAAAAAAAAkSAAAAAAAAAAAAAAAGgAACAAACBSwgAMACAAABgAIAAgQgAIAAAAAAAAAAAFAAAAREBYAAAAiQAAFIAAHAAHKbAxAAAAAAAAAAAAAAAAAAAAAAAAAAAAAAA==

>  <PUBCHEM_IUPAC_OPENEYE_NAME>
(2R,3R,4R,5R)-4-[(2R,3R,4R,5S,6R)-3,4-dihydroxy-6-(hydroxymethyl)-5-[(2R,3R,4S,5S,6R)-3,4,5-trihydroxy-6-(hydroxymethyl)tetrahydropyran-2-yl]oxy-tetrahydropyran-2-yl]oxy-2,3,5,6-tetrahydroxy-hexanal

>  <PUBCHEM_IUPAC_CAS_NAME>
(2R,3R,4R,5R)-4-[[(2R,3R,4R,5S,6R)-3,4-dihydroxy-6-(hydroxymethyl)-5-[[(2R,3R,4S,5S,6R)-3,4,5-trihydroxy-6-(hydroxymethyl)-2-oxanyl]oxy]-2-oxanyl]oxy]-2,3,5,6-tetrahydroxyhexanal

>  <PUBCHEM_IUPAC_NAME>
(2R,3R,4R,5R)-4-[(2R,3R,4R,5S,6R)-3,4-dihydroxy-6-(hydroxymethyl)-5-[(2R,3R,4S,5S,6R)-3,4,5-trihydroxy-6-(hydroxymethyl)oxan-2-yl]oxyoxan-2-yl]oxy-2,3,5,6-tetrahydroxyhexanal

>  <PUBCHEM_IUPAC_SYSTEMATIC_NAME>
(2R,3R,4R,5R)-4-[(2R,3R,4R,5S,6R)-6-(hydroxymethyl)-5-[(2R,3R,4S,5S,6R)-6-(hydroxymethyl)-3,4,5-tris(oxidanyl)oxan-2-yl]oxy-3,4-bis(oxidanyl)oxan-2-yl]oxy-2,3,5,6-tetrakis(oxidanyl)hexanal

>  <PUBCHEM_IUPAC_TRADITIONAL_NAME>
(2R,3R,4R,5R)-4-[(2R,3R,4R,5S,6R)-3,4-dihydroxy-6-methylol-5-[(2R,3R,4S,5S,6R)-3,4,5-trihydroxy-6-methylol-tetrahydropyran-2-yl]oxy-tetrahydropyran-2-yl]oxy-2,3,5,6-tetrahydroxy-hexanal

>  <PUBCHEM_IUPAC_INCHI>
InChI=1S/C18H32O16/c19-1-5(23)9(25)15(6(24)2-20)33-18-14(30)12(28)16(8(4-22)32-18)34-17-13(29)11(27)10(26)7(3-21)31-17/h1,5-18,20-30H,2-4H2/t5-,6+,7+,8+,9+,10+,11-,12+,13+,14+,15+,16+,17+,18+/m0/s1

>  <PUBCHEM_IUPAC_INCHIKEY>
RXVWSYJTUUKTEA-CGQAXDJHSA-N

>  <PUBCHEM_XLOGP3_AA>
-7.2

>  <PUBCHEM_EXACT_MASS>
504.169

>  <PUBCHEM_MOLECULAR_FORMULA>
C18H32O16

>  <PUBCHEM_MOLECULAR_WEIGHT>
504.438

>  <PUBCHEM_OPENEYE_CAN_SMILES>
C(C1C(C(C(C(O1)OC2C(OC(C(C2O)O)OC(C(CO)O)C(C(C=O)O)O)CO)O)O)O)O

>  <PUBCHEM_OPENEYE_ISO_SMILES>
C([C@@H]1[C@H]([C@@H]([C@H]([C@H](O1)O[C@@H]2[C@H](O[C@@H]([C@@H]([C@H]2O)O)O[C@H]([C@@H](CO)O)[C@@H]([C@H](C=O)O)O)CO)O)O)O)O

>  <PUBCHEM_CACTVS_TPSA>
277

>  <PUBCHEM_MONOISOTOPIC_WEIGHT>
504.169

>  <PUBCHEM_TOTAL_CHARGE>
0

>  <PUBCHEM_HEAVY_ATOM_COUNT>
34

>  <PUBCHEM_ATOM_DEF_STEREO_COUNT>
14

>  <PUBCHEM_ATOM_UDEF_STEREO_COUNT>
0

>  <PUBCHEM_BOND_DEF_STEREO_COUNT>
0

>  <PUBCHEM_BOND_UDEF_STEREO_COUNT>
0

>  <PUBCHEM_ISOTOPIC_ATOM_COUNT>
0

>  <PUBCHEM_COMPONENT_COUNT>
1

>  <PUBCHEM_CACTVS_TAUTO_COUNT>
6

>  <PUBCHEM_COORDINATE_TYPE>
1
5
255

>  <PUBCHEM_BONDANNOTATIONS>
17  1  6
22  1  6
30  12  5
31  13  6
32  14  5
19  27  5
26  29  5
21  4  6
28  4  6
18  5  5
20  6  6
23  7  6
24  8  5
25  9  6

$$$$
