93024
 OpenBabel06101807152D

 30 30  0  0  1  0  0  0  0  0999 V2000
    4.0000    0.9400    0.0000 O   0  0  0  0  0  0  0  0  0  0  0  0
    3.8660    2.4400    0.0000 O   0  0  0  0  0  0  0  0  0  0  0  0
    3.0000   -0.0600    0.0000 C   0  0  3  0  0  0  0  0  0  0  0  0
    3.0000    0.9400    0.0000 C   0  0  3  0  0  0  0  0  0  0  0  0
    2.1340   -0.5600    0.0000 C   0  0  0  0  0  0  0  0  0  0  0  0
    3.8660   -0.5600    0.0000 C   0  0  0  0  0  0  0  0  0  0  0  0
    2.1340   -1.5600    0.0000 C   0  0  0  0  0  0  0  0  0  0  0  0
    3.0000   -2.0600    0.0000 C   0  0  0  0  0  0  0  0  0  0  0  0
    3.8660   -1.5600    0.0000 C   0  0  0  0  0  0  0  0  0  0  0  0
    3.0000    1.9400    0.0000 C   0  0  0  0  0  0  0  0  0  0  0  0
    2.0000    0.9400    0.0000 C   0  0  0  0  0  0  0  0  0  0  0  0
    3.0000   -3.0600    0.0000 C   0  0  0  0  0  0  0  0  0  0  0  0
    3.7361    0.3650    0.0000 H   0  0  0  0  0  0  0  0  0  0  0  0
    1.9219    0.0226    0.0000 H   0  0  0  0  0  0  0  0  0  0  0  0
    1.5234   -0.6677    0.0000 H   0  0  0  0  0  0  0  0  0  0  0  0
    4.4766   -0.6677    0.0000 H   0  0  0  0  0  0  0  0  0  0  0  0
    4.0781    0.0226    0.0000 H   0  0  0  0  0  0  0  0  0  0  0  0
    1.5234   -1.4523    0.0000 H   0  0  0  0  0  0  0  0  0  0  0  0
    1.9219   -2.1426    0.0000 H   0  0  0  0  0  0  0  0  0  0  0  0
    4.4030   -1.8700    0.0000 H   0  0  0  0  0  0  0  0  0  0  0  0
    2.7880    2.5226    0.0000 H   0  0  0  0  0  0  0  0  0  0  0  0
    2.3894    1.8323    0.0000 H   0  0  0  0  0  0  0  0  0  0  0  0
    2.0000    1.5600    0.0000 H   0  0  0  0  0  0  0  0  0  0  0  0
    1.3800    0.9400    0.0000 H   0  0  0  0  0  0  0  0  0  0  0  0
    2.0000    0.3200    0.0000 H   0  0  0  0  0  0  0  0  0  0  0  0
    4.3100    1.4769    0.0000 H   0  0  0  0  0  0  0  0  0  0  0  0
    2.3800   -3.0600    0.0000 H   0  0  0  0  0  0  0  0  0  0  0  0
    3.0000   -3.6800    0.0000 H   0  0  0  0  0  0  0  0  0  0  0  0
    3.6200   -3.0600    0.0000 H   0  0  0  0  0  0  0  0  0  0  0  0
    3.8660    3.0600    0.0000 H   0  0  0  0  0  0  0  0  0  0  0  0
  1  4  1  0  0  0  0
  1 26  1  0  0  0  0
  2 10  1  0  0  0  0
  2 30  1  0  0  0  0
  3  4  1  0  0  0  0
  3  5  1  0  0  0  0
  3  6  1  0  0  0  0
  3 13  1  0  0  0  0
  4 10  1  0  0  0  0
  4 11  1  0  0  0  0
  5  7  1  0  0  0  0
  5 14  1  0  0  0  0
  5 15  1  0  0  0  0
  6  9  1  0  0  0  0
  6 16  1  0  0  0  0
  6 17  1  0  0  0  0
  7  8  1  0  0  0  0
  7 18  1  0  0  0  0
  7 19  1  0  0  0  0
  8  9  2  0  0  0  0
  8 12  1  0  0  0  0
  9 20  1  0  0  0  0
 10 21  1  0  0  0  0
 10 22  1  0  0  0  0
 11 23  1  0  0  0  0
 11 24  1  0  0  0  0
 11 25  1  0  0  0  0
 12 27  1  0  0  0  0
 12 28  1  0  0  0  0
 12 29  1  0  0  0  0
M  END
>  <PUBCHEM_COMPOUND_CID>
93024

>  <PUBCHEM_COMPOUND_CANONICALIZED>
1

>  <PUBCHEM_CACTVS_COMPLEXITY>
186

>  <PUBCHEM_CACTVS_HBOND_ACCEPTOR>
2

>  <PUBCHEM_CACTVS_HBOND_DONOR>
2

>  <PUBCHEM_CACTVS_ROTATABLE_BOND>
2

>  <PUBCHEM_CACTVS_SUBSKEYS>
AAADceBwMAAAAAAAAAAAAAAAAAAAAAAAAAAgAAAAAAAAAAAAAAAAGgAACAAADUSggAICAAAAAgCAAiBCAAAAAAAgAAAACAAAAAgBEAIAAQAAQAAEgAAJAAOAwGAOgAAAAAAAAAAAAAAAAAAAAAAAAAAAAA==

>  <PUBCHEM_IUPAC_OPENEYE_NAME>
2-(4-methylcyclohex-3-en-1-yl)propane-1,2-diol

>  <PUBCHEM_IUPAC_CAS_NAME>
2-(4-methyl-1-cyclohex-3-enyl)propane-1,2-diol

>  <PUBCHEM_IUPAC_NAME>
2-(4-methylcyclohex-3-en-1-yl)propane-1,2-diol

>  <PUBCHEM_IUPAC_SYSTEMATIC_NAME>
2-(4-methylcyclohex-3-en-1-yl)propane-1,2-diol

>  <PUBCHEM_IUPAC_TRADITIONAL_NAME>
2-(4-methylcyclohex-3-en-1-yl)propane-1,2-diol

>  <PUBCHEM_IUPAC_INCHI>
InChI=1S/C10H18O2/c1-8-3-5-9(6-4-8)10(2,12)7-11/h3,9,11-12H,4-7H2,1-2H3

>  <PUBCHEM_IUPAC_INCHIKEY>
ZJALAEQNHJQSTN-UHFFFAOYSA-N

>  <PUBCHEM_XLOGP3_AA>
0.8

>  <PUBCHEM_EXACT_MASS>
170.131

>  <PUBCHEM_MOLECULAR_FORMULA>
C10H18O2

>  <PUBCHEM_MOLECULAR_WEIGHT>
170.252

>  <PUBCHEM_OPENEYE_CAN_SMILES>
CC1=CCC(CC1)C(C)(CO)O

>  <PUBCHEM_OPENEYE_ISO_SMILES>
CC1=CCC(CC1)C(C)(CO)O

>  <PUBCHEM_CACTVS_TPSA>
40.5

>  <PUBCHEM_MONOISOTOPIC_WEIGHT>
170.131

>  <PUBCHEM_TOTAL_CHARGE>
0

>  <PUBCHEM_HEAVY_ATOM_COUNT>
12

>  <PUBCHEM_ATOM_DEF_STEREO_COUNT>
0

>  <PUBCHEM_ATOM_UDEF_STEREO_COUNT>
2

>  <PUBCHEM_BOND_DEF_STEREO_COUNT>
0

>  <PUBCHEM_BOND_UDEF_STEREO_COUNT>
0

>  <PUBCHEM_ISOTOPIC_ATOM_COUNT>
0

>  <PUBCHEM_COMPONENT_COUNT>
1

>  <PUBCHEM_CACTVS_TAUTO_COUNT>
1

>  <PUBCHEM_COORDINATE_TYPE>
1
5
255

>  <PUBCHEM_BONDANNOTATIONS>
3  13  3
4  10  3

$$$$
