94223861
 OpenBabel06101807152D

120119  0  0  0  0  0  0  0  0999 V2000
    2.0000    1.1900    0.0000 O   0  0  0  0  0  0  0  0  0  0  0  0
   18.4545   -0.3100    0.0000 C   0  0  0  0  0  0  0  0  0  0  0  0
   14.9904   -0.3100    0.0000 C   0  0  0  0  0  0  0  0  0  0  0  0
   15.8564   -0.8100    0.0000 C   0  0  0  0  0  0  0  0  0  0  0  0
   19.3205   -0.8100    0.0000 C   0  0  0  0  0  0  0  0  0  0  0  0
   21.9186   -0.3100    0.0000 C   0  0  0  0  0  0  0  0  0  0  0  0
   11.5263   -0.3100    0.0000 C   0  0  0  0  0  0  0  0  0  0  0  0
   12.3923   -0.8100    0.0000 C   0  0  0  0  0  0  0  0  0  0  0  0
   17.5885   -0.8100    0.0000 C   0  0  0  0  0  0  0  0  0  0  0  0
   14.1244   -0.8100    0.0000 C   0  0  0  0  0  0  0  0  0  0  0  0
   22.7846   -0.8100    0.0000 C   0  0  0  0  0  0  0  0  0  0  0  0
   21.0526   -0.8100    0.0000 C   0  0  0  0  0  0  0  0  0  0  0  0
   10.6603   -0.8100    0.0000 C   0  0  0  0  0  0  0  0  0  0  0  0
   25.3827   -0.3100    0.0000 C   0  0  0  0  0  0  0  0  0  0  0  0
   16.7224   -0.3100    0.0000 C   0  0  0  0  0  0  0  0  0  0  0  0
   20.1865   -0.3100    0.0000 C   0  0  0  0  0  0  0  0  0  0  0  0
    8.9282   -0.8100    0.0000 C   0  0  0  0  0  0  0  0  0  0  0  0
   13.2583   -0.3100    0.0000 C   0  0  0  0  0  0  0  0  0  0  0  0
   24.5167   -0.8100    0.0000 C   0  0  0  0  0  0  0  0  0  0  0  0
    8.0622   -0.3100    0.0000 C   0  0  0  0  0  0  0  0  0  0  0  0
   26.2487   -0.8100    0.0000 C   0  0  0  0  0  0  0  0  0  0  0  0
   23.6506   -0.3100    0.0000 C   0  0  0  0  0  0  0  0  0  0  0  0
    9.7942   -0.3100    0.0000 C   0  0  0  0  0  0  0  0  0  0  0  0
    7.1962   -0.8100    0.0000 C   0  0  0  0  0  0  0  0  0  0  0  0
   17.5885   -1.8100    0.0000 C   0  0  0  0  0  0  0  0  0  0  0  0
   27.1147   -0.3100    0.0000 C   0  0  0  0  0  0  0  0  0  0  0  0
   14.1244   -1.8100    0.0000 C   0  0  0  0  0  0  0  0  0  0  0  0
   27.9808   -0.8100    0.0000 C   0  0  0  0  0  0  0  0  0  0  0  0
   21.0526   -1.8100    0.0000 C   0  0  0  0  0  0  0  0  0  0  0  0
   28.8468   -0.3100    0.0000 C   0  0  0  0  0  0  0  0  0  0  0  0
    5.4641   -0.8100    0.0000 C   0  0  0  0  0  0  0  0  0  0  0  0
   10.6603   -1.8100    0.0000 C   0  0  0  0  0  0  0  0  0  0  0  0
    6.3301   -0.3100    0.0000 C   0  0  0  0  0  0  0  0  0  0  0  0
   24.5167   -1.8100    0.0000 C   0  0  0  0  0  0  0  0  0  0  0  0
    4.5981   -0.3100    0.0000 C   0  0  0  0  0  0  0  0  0  0  0  0
   29.7128   -0.8100    0.0000 C   0  0  0  0  0  0  0  0  0  0  0  0
    7.1962   -1.8100    0.0000 C   0  0  0  0  0  0  0  0  0  0  0  0
   27.9808   -1.8100    0.0000 C   0  0  0  0  0  0  0  0  0  0  0  0
    3.7320   -0.8100    0.0000 C   0  0  0  0  0  0  0  0  0  0  0  0
   30.5788   -0.3100    0.0000 C   0  0  0  0  0  0  0  0  0  0  0  0
    3.7320   -1.8100    0.0000 C   0  0  0  0  0  0  0  0  0  0  0  0
   31.4449   -0.8100    0.0000 C   0  0  0  0  0  0  0  0  0  0  0  0
    2.8660   -0.3100    0.0000 C   0  0  0  0  0  0  0  0  0  0  0  0
    2.8660    0.6900    0.0000 C   0  0  0  0  0  0  0  0  0  0  0  0
   32.3109   -0.3100    0.0000 C   0  0  0  0  0  0  0  0  0  0  0  0
   31.4449   -1.8100    0.0000 C   0  0  0  0  0  0  0  0  0  0  0  0
   18.8530    0.1649    0.0000 H   0  0  0  0  0  0  0  0  0  0  0  0
   18.0560    0.1649    0.0000 H   0  0  0  0  0  0  0  0  0  0  0  0
   15.3889    0.1649    0.0000 H   0  0  0  0  0  0  0  0  0  0  0  0
   14.5919    0.1649    0.0000 H   0  0  0  0  0  0  0  0  0  0  0  0
   15.4579   -1.2850    0.0000 H   0  0  0  0  0  0  0  0  0  0  0  0
   16.2549   -1.2850    0.0000 H   0  0  0  0  0  0  0  0  0  0  0  0
   18.9220   -1.2850    0.0000 H   0  0  0  0  0  0  0  0  0  0  0  0
   19.7190   -1.2850    0.0000 H   0  0  0  0  0  0  0  0  0  0  0  0
   22.3171    0.1649    0.0000 H   0  0  0  0  0  0  0  0  0  0  0  0
   21.5201    0.1649    0.0000 H   0  0  0  0  0  0  0  0  0  0  0  0
   11.9248    0.1649    0.0000 H   0  0  0  0  0  0  0  0  0  0  0  0
   11.1278    0.1649    0.0000 H   0  0  0  0  0  0  0  0  0  0  0  0
   11.9938   -1.2850    0.0000 H   0  0  0  0  0  0  0  0  0  0  0  0
   12.7908   -1.2850    0.0000 H   0  0  0  0  0  0  0  0  0  0  0  0
   22.3861   -1.2850    0.0000 H   0  0  0  0  0  0  0  0  0  0  0  0
   23.1831   -1.2850    0.0000 H   0  0  0  0  0  0  0  0  0  0  0  0
   25.7812    0.1649    0.0000 H   0  0  0  0  0  0  0  0  0  0  0  0
   24.9842    0.1649    0.0000 H   0  0  0  0  0  0  0  0  0  0  0  0
   16.7224    0.3100    0.0000 H   0  0  0  0  0  0  0  0  0  0  0  0
   20.1865    0.3100    0.0000 H   0  0  0  0  0  0  0  0  0  0  0  0
    8.5297   -1.2850    0.0000 H   0  0  0  0  0  0  0  0  0  0  0  0
    9.3267   -1.2850    0.0000 H   0  0  0  0  0  0  0  0  0  0  0  0
   13.2583    0.3100    0.0000 H   0  0  0  0  0  0  0  0  0  0  0  0
    8.4607    0.1649    0.0000 H   0  0  0  0  0  0  0  0  0  0  0  0
    7.6636    0.1649    0.0000 H   0  0  0  0  0  0  0  0  0  0  0  0
   25.8502   -1.2850    0.0000 H   0  0  0  0  0  0  0  0  0  0  0  0
   26.6472   -1.2850    0.0000 H   0  0  0  0  0  0  0  0  0  0  0  0
   23.6506    0.3100    0.0000 H   0  0  0  0  0  0  0  0  0  0  0  0
    9.7942    0.3100    0.0000 H   0  0  0  0  0  0  0  0  0  0  0  0
   16.9685   -1.8100    0.0000 H   0  0  0  0  0  0  0  0  0  0  0  0
   17.5885   -2.4300    0.0000 H   0  0  0  0  0  0  0  0  0  0  0  0
   18.2085   -1.8100    0.0000 H   0  0  0  0  0  0  0  0  0  0  0  0
   27.1147    0.3100    0.0000 H   0  0  0  0  0  0  0  0  0  0  0  0
   13.5044   -1.8100    0.0000 H   0  0  0  0  0  0  0  0  0  0  0  0
   14.1244   -2.4300    0.0000 H   0  0  0  0  0  0  0  0  0  0  0  0
   14.7444   -1.8100    0.0000 H   0  0  0  0  0  0  0  0  0  0  0  0
   20.4326   -1.8100    0.0000 H   0  0  0  0  0  0  0  0  0  0  0  0
   21.0526   -2.4300    0.0000 H   0  0  0  0  0  0  0  0  0  0  0  0
   21.6726   -1.8100    0.0000 H   0  0  0  0  0  0  0  0  0  0  0  0
   29.2453    0.1649    0.0000 H   0  0  0  0  0  0  0  0  0  0  0  0
   28.4483    0.1649    0.0000 H   0  0  0  0  0  0  0  0  0  0  0  0
    5.0656   -1.2850    0.0000 H   0  0  0  0  0  0  0  0  0  0  0  0
    5.8626   -1.2850    0.0000 H   0  0  0  0  0  0  0  0  0  0  0  0
   10.0403   -1.8100    0.0000 H   0  0  0  0  0  0  0  0  0  0  0  0
   10.6603   -2.4300    0.0000 H   0  0  0  0  0  0  0  0  0  0  0  0
   11.2803   -1.8100    0.0000 H   0  0  0  0  0  0  0  0  0  0  0  0
    6.3301    0.3100    0.0000 H   0  0  0  0  0  0  0  0  0  0  0  0
   23.8967   -1.8100    0.0000 H   0  0  0  0  0  0  0  0  0  0  0  0
   24.5167   -2.4300    0.0000 H   0  0  0  0  0  0  0  0  0  0  0  0
   25.1367   -1.8100    0.0000 H   0  0  0  0  0  0  0  0  0  0  0  0
    4.9966    0.1649    0.0000 H   0  0  0  0  0  0  0  0  0  0  0  0
    4.1996    0.1649    0.0000 H   0  0  0  0  0  0  0  0  0  0  0  0
   29.3143   -1.2850    0.0000 H   0  0  0  0  0  0  0  0  0  0  0  0
   30.1113   -1.2850    0.0000 H   0  0  0  0  0  0  0  0  0  0  0  0
    6.5762   -1.8100    0.0000 H   0  0  0  0  0  0  0  0  0  0  0  0
    7.1962   -2.4300    0.0000 H   0  0  0  0  0  0  0  0  0  0  0  0
    7.8162   -1.8100    0.0000 H   0  0  0  0  0  0  0  0  0  0  0  0
   27.3608   -1.8100    0.0000 H   0  0  0  0  0  0  0  0  0  0  0  0
   27.9808   -2.4300    0.0000 H   0  0  0  0  0  0  0  0  0  0  0  0
   28.6008   -1.8100    0.0000 H   0  0  0  0  0  0  0  0  0  0  0  0
   30.5788    0.3100    0.0000 H   0  0  0  0  0  0  0  0  0  0  0  0
    3.1120   -1.8100    0.0000 H   0  0  0  0  0  0  0  0  0  0  0  0
    3.7320   -2.4300    0.0000 H   0  0  0  0  0  0  0  0  0  0  0  0
    4.3520   -1.8100    0.0000 H   0  0  0  0  0  0  0  0  0  0  0  0
    2.3291   -0.6200    0.0000 H   0  0  0  0  0  0  0  0  0  0  0  0
    3.4766    0.5823    0.0000 H   0  0  0  0  0  0  0  0  0  0  0  0
    3.0781    1.2726    0.0000 H   0  0  0  0  0  0  0  0  0  0  0  0
   30.8249   -1.8100    0.0000 H   0  0  0  0  0  0  0  0  0  0  0  0
   31.4449   -2.4300    0.0000 H   0  0  0  0  0  0  0  0  0  0  0  0
   32.6209   -0.8469    0.0000 H   0  0  0  0  0  0  0  0  0  0  0  0
   32.8478   -0.0000    0.0000 H   0  0  0  0  0  0  0  0  0  0  0  0
   32.0009    0.2269    0.0000 H   0  0  0  0  0  0  0  0  0  0  0  0
   32.0649   -1.8100    0.0000 H   0  0  0  0  0  0  0  0  0  0  0  0
    2.0000    1.8100    0.0000 H   0  0  0  0  0  0  0  0  0  0  0  0
  1 44  1  0  0  0  0
  1120  1  0  0  0  0
  2  5  1  0  0  0  0
  2  9  1  0  0  0  0
  2 47  1  0  0  0  0
  2 48  1  0  0  0  0
  3  4  1  0  0  0  0
  3 10  1  0  0  0  0
  3 49  1  0  0  0  0
  3 50  1  0  0  0  0
  4 15  1  0  0  0  0
  4 51  1  0  0  0  0
  4 52  1  0  0  0  0
  5 16  1  0  0  0  0
  5 53  1  0  0  0  0
  5 54  1  0  0  0  0
  6 11  1  0  0  0  0
  6 12  1  0  0  0  0
  6 55  1  0  0  0  0
  6 56  1  0  0  0  0
  7  8  1  0  0  0  0
  7 13  1  0  0  0  0
  7 57  1  0  0  0  0
  7 58  1  0  0  0  0
  8 18  1  0  0  0  0
  8 59  1  0  0  0  0
  8 60  1  0  0  0  0
  9 15  2  0  0  0  0
  9 25  1  0  0  0  0
 10 18  2  0  0  0  0
 10 27  1  0  0  0  0
 11 22  1  0  0  0  0
 11 61  1  0  0  0  0
 11 62  1  0  0  0  0
 12 16  2  0  0  0  0
 12 29  1  0  0  0  0
 13 23  2  0  0  0  0
 13 32  1  0  0  0  0
 14 19  1  0  0  0  0
 14 21  1  0  0  0  0
 14 63  1  0  0  0  0
 14 64  1  0  0  0  0
 15 65  1  0  0  0  0
 16 66  1  0  0  0  0
 17 20  1  0  0  0  0
 17 23  1  0  0  0  0
 17 67  1  0  0  0  0
 17 68  1  0  0  0  0
 18 69  1  0  0  0  0
 19 22  2  0  0  0  0
 19 34  1  0  0  0  0
 20 24  1  0  0  0  0
 20 70  1  0  0  0  0
 20 71  1  0  0  0  0
 21 26  1  0  0  0  0
 21 72  1  0  0  0  0
 21 73  1  0  0  0  0
 22 74  1  0  0  0  0
 23 75  1  0  0  0  0
 24 33  2  0  0  0  0
 24 37  1  0  0  0  0
 25 76  1  0  0  0  0
 25 77  1  0  0  0  0
 25 78  1  0  0  0  0
 26 28  2  0  0  0  0
 26 79  1  0  0  0  0
 27 80  1  0  0  0  0
 27 81  1  0  0  0  0
 27 82  1  0  0  0  0
 28 30  1  0  0  0  0
 28 38  1  0  0  0  0
 29 83  1  0  0  0  0
 29 84  1  0  0  0  0
 29 85  1  0  0  0  0
 30 36  1  0  0  0  0
 30 86  1  0  0  0  0
 30 87  1  0  0  0  0
 31 33  1  0  0  0  0
 31 35  1  0  0  0  0
 31 88  1  0  0  0  0
 31 89  1  0  0  0  0
 32 90  1  0  0  0  0
 32 91  1  0  0  0  0
 32 92  1  0  0  0  0
 33 93  1  0  0  0  0
 34 94  1  0  0  0  0
 34 95  1  0  0  0  0
 34 96  1  0  0  0  0
 35 39  1  0  0  0  0
 35 97  1  0  0  0  0
 35 98  1  0  0  0  0
 36 40  1  0  0  0  0
 36 99  1  0  0  0  0
 36100  1  0  0  0  0
 37101  1  0  0  0  0
 37102  1  0  0  0  0
 37103  1  0  0  0  0
 38104  1  0  0  0  0
 38105  1  0  0  0  0
 38106  1  0  0  0  0
 39 41  1  0  0  0  0
 39 43  2  0  0  0  0
 40 42  2  0  0  0  0
 40107  1  0  0  0  0
 41108  1  0  0  0  0
 41109  1  0  0  0  0
 41110  1  0  0  0  0
 42 45  1  0  0  0  0
 42 46  1  0  0  0  0
 43 44  1  0  0  0  0
 43111  1  0  0  0  0
 44112  1  0  0  0  0
 44113  1  0  0  0  0
 45116  1  0  0  0  0
 45117  1  0  0  0  0
 45118  1  0  0  0  0
 46114  1  0  0  0  0
 46115  1  0  0  0  0
 46119  1  0  0  0  0
M  END
>  <PUBCHEM_COMPOUND_CID>
94223861

>  <PUBCHEM_COMPOUND_CANONICALIZED>
1

>  <PUBCHEM_CACTVS_COMPLEXITY>
1100

>  <PUBCHEM_CACTVS_HBOND_ACCEPTOR>
1

>  <PUBCHEM_CACTVS_HBOND_DONOR>
1

>  <PUBCHEM_CACTVS_ROTATABLE_BOND>
25

>  <PUBCHEM_CACTVS_SUBSKEYS>
AAADcfB8IAAAAAAAAAAAAAAAAAAAAAAAAAAAAAAAAAAAAAAAAAAAGgAACAAADACggAICAAAAAgCAAiBCAAAAAAAgAAAACAAAAAgAFAIAAQAAEAAAgAAIEAIAAAAAAAAAAAAAAAAAAAAAAAAAAAAAAAAAAA==

>  <PUBCHEM_IUPAC_OPENEYE_NAME>
(2Z,6E,10E,14E,18E,22E,26E,30E)-3,7,11,15,19,23,27,31,35-nonamethylhexatriaconta-2,6,10,14,18,22,26,30,34-nonaen-1-ol

>  <PUBCHEM_IUPAC_CAS_NAME>
(2Z,6E,10E,14E,18E,22E,26E,30E)-3,7,11,15,19,23,27,31,35-nonamethyl-1-hexatriaconta-2,6,10,14,18,22,26,30,34-nonaenol

>  <PUBCHEM_IUPAC_NAME>
(2Z,6E,10E,14E,18E,22E,26E,30E)-3,7,11,15,19,23,27,31,35-nonamethylhexatriaconta-2,6,10,14,18,22,26,30,34-nonaen-1-ol

>  <PUBCHEM_IUPAC_SYSTEMATIC_NAME>
(2Z,6E,10E,14E,18E,22E,26E,30E)-3,7,11,15,19,23,27,31,35-nonamethylhexatriaconta-2,6,10,14,18,22,26,30,34-nonaen-1-ol

>  <PUBCHEM_IUPAC_TRADITIONAL_NAME>
(2Z,6E,10E,14E,18E,22E,26E,30E)-3,7,11,15,19,23,27,31,35-nonamethylhexatriaconta-2,6,10,14,18,22,26,30,34-nonaen-1-ol

>  <PUBCHEM_IUPAC_INCHI>
InChI=1S/C45H74O/c1-37(2)19-11-20-38(3)21-12-22-39(4)23-13-24-40(5)25-14-26-41(6)27-15-28-42(7)29-16-30-43(8)31-17-32-44(9)33-18-34-45(10)35-36-46/h19,21,23,25,27,29,31,33,35,46H,11-18,20,22,24,26,28,30,32,34,36H2,1-10H3/b38-21+,39-23+,40-25+,41-27+,42-29+,43-31+,44-33+,45-35-

>  <PUBCHEM_IUPAC_INCHIKEY>
AFPLNGZPBSKHHQ-BMFMUVIZSA-N

>  <PUBCHEM_XLOGP3_AA>
15.9

>  <PUBCHEM_EXACT_MASS>
630.574

>  <PUBCHEM_MOLECULAR_FORMULA>
C45H74O

>  <PUBCHEM_MOLECULAR_WEIGHT>
631.086

>  <PUBCHEM_OPENEYE_CAN_SMILES>
CC(=CCCC(=CCCC(=CCCC(=CCCC(=CCCC(=CCCC(=CCCC(=CCCC(=CCO)C)C)C)C)C)C)C)C)C

>  <PUBCHEM_OPENEYE_ISO_SMILES>
CC(=CCC/C(=C/CC/C(=C/CC/C(=C/CC/C(=C/CC/C(=C/CC/C(=C/CC/C(=C/CC/C(=C\CO)/C)/C)/C)/C)/C)/C)/C)/C)C

>  <PUBCHEM_CACTVS_TPSA>
20.2

>  <PUBCHEM_MONOISOTOPIC_WEIGHT>
630.574

>  <PUBCHEM_TOTAL_CHARGE>
0

>  <PUBCHEM_HEAVY_ATOM_COUNT>
46

>  <PUBCHEM_ATOM_DEF_STEREO_COUNT>
0

>  <PUBCHEM_ATOM_UDEF_STEREO_COUNT>
0

>  <PUBCHEM_BOND_DEF_STEREO_COUNT>
8

>  <PUBCHEM_BOND_UDEF_STEREO_COUNT>
0

>  <PUBCHEM_ISOTOPIC_ATOM_COUNT>
0

>  <PUBCHEM_COMPONENT_COUNT>
1

>  <PUBCHEM_CACTVS_TAUTO_COUNT>
1

>  <PUBCHEM_COORDINATE_TYPE>
1
5
255

$$$$
