94579
 OpenBabel06101807152D

 34 34  0  0  1  0  0  0  0  0999 V2000
    4.5981    0.7500    0.0000 O   0  0  0  0  0  0  0  0  0  0  0  0
    6.3301    0.7500    0.0000 O   0  0  0  0  0  0  0  0  0  0  0  0
    3.7320   -0.7500    0.0000 C   0  0  1  0  0  0  0  0  0  0  0  0
    5.4641   -1.7500    0.0000 C   0  0  1  0  0  0  0  0  0  0  0  0
    4.5981   -0.2500    0.0000 C   0  0  1  0  0  0  0  0  0  0  0  0
    5.4641   -0.7500    0.0000 C   0  0  0  0  0  0  0  0  0  0  0  0
    3.7320   -1.7500    0.0000 C   0  0  0  0  0  0  0  0  0  0  0  0
    4.5981   -2.2500    0.0000 C   0  0  0  0  0  0  0  0  0  0  0  0
    2.8660   -0.2500    0.0000 C   0  0  0  0  0  0  0  0  0  0  0  0
    6.3301   -2.2500    0.0000 C   0  0  0  0  0  0  0  0  0  0  0  0
    2.0000   -0.7500    0.0000 C   0  0  0  0  0  0  0  0  0  0  0  0
    2.8660    0.7500    0.0000 C   0  0  0  0  0  0  0  0  0  0  0  0
    5.4641    1.2500    0.0000 C   0  0  0  0  0  0  0  0  0  0  0  0
    5.4641    2.2500    0.0000 C   0  0  0  0  0  0  0  0  0  0  0  0
    3.7320   -0.1300    0.0000 H   0  0  0  0  0  0  0  0  0  0  0  0
    5.4641   -2.3700    0.0000 H   0  0  0  0  0  0  0  0  0  0  0  0
    5.1350    0.0600    0.0000 H   0  0  0  0  0  0  0  0  0  0  0  0
    6.0747   -0.8577    0.0000 H   0  0  0  0  0  0  0  0  0  0  0  0
    5.6762   -0.1674    0.0000 H   0  0  0  0  0  0  0  0  0  0  0  0
    3.1215   -1.6423    0.0000 H   0  0  0  0  0  0  0  0  0  0  0  0
    3.5200   -2.3326    0.0000 H   0  0  0  0  0  0  0  0  0  0  0  0
    4.1996   -2.7250    0.0000 H   0  0  0  0  0  0  0  0  0  0  0  0
    4.9966   -2.7250    0.0000 H   0  0  0  0  0  0  0  0  0  0  0  0
    6.0201   -2.7869    0.0000 H   0  0  0  0  0  0  0  0  0  0  0  0
    6.8671   -2.5600    0.0000 H   0  0  0  0  0  0  0  0  0  0  0  0
    6.6401   -1.7131    0.0000 H   0  0  0  0  0  0  0  0  0  0  0  0
    1.6900   -0.2131    0.0000 H   0  0  0  0  0  0  0  0  0  0  0  0
    1.4631   -1.0600    0.0000 H   0  0  0  0  0  0  0  0  0  0  0  0
    2.3100   -1.2869    0.0000 H   0  0  0  0  0  0  0  0  0  0  0  0
    3.4030    1.0600    0.0000 H   0  0  0  0  0  0  0  0  0  0  0  0
    2.3291    1.0600    0.0000 H   0  0  0  0  0  0  0  0  0  0  0  0
    6.0841    2.2500    0.0000 H   0  0  0  0  0  0  0  0  0  0  0  0
    5.4641    2.8700    0.0000 H   0  0  0  0  0  0  0  0  0  0  0  0
    4.8441    2.2500    0.0000 H   0  0  0  0  0  0  0  0  0  0  0  0
  1 13  1  0  0  0  0
  2 13  2  0  0  0  0
  3  5  1  1  0  0  0
  3  7  1  0  0  0  0
  3  9  1  0  0  0  0
  3 15  1  0  0  0  0
  4  6  1  0  0  0  0
  4  8  1  0  0  0  0
  4 10  1  0  0  0  0
  4 16  1  1  0  0  0
  5  1  1  0  0  0  0
  5  6  1  0  0  0  0
  5 17  1  1  0  0  0
  6 18  1  0  0  0  0
  6 19  1  0  0  0  0
  7  8  1  0  0  0  0
  7 20  1  0  0  0  0
  7 21  1  0  0  0  0
  8 22  1  0  0  0  0
  8 23  1  0  0  0  0
  9 11  1  0  0  0  0
  9 12  2  0  0  0  0
 10 24  1  0  0  0  0
 10 25  1  0  0  0  0
 10 26  1  0  0  0  0
 11 27  1  0  0  0  0
 11 28  1  0  0  0  0
 11 29  1  0  0  0  0
 12 30  1  0  0  0  0
 12 31  1  0  0  0  0
 13 14  1  0  0  0  0
 14 32  1  0  0  0  0
 14 33  1  0  0  0  0
 14 34  1  0  0  0  0
M  END
>  <PUBCHEM_COMPOUND_CID>
94579

>  <PUBCHEM_COMPOUND_CANONICALIZED>
1

>  <PUBCHEM_CACTVS_COMPLEXITY>
233

>  <PUBCHEM_CACTVS_HBOND_ACCEPTOR>
2

>  <PUBCHEM_CACTVS_HBOND_DONOR>
0

>  <PUBCHEM_CACTVS_ROTATABLE_BOND>
3

>  <PUBCHEM_CACTVS_SUBSKEYS>
AAADceBwMAAAAAAAAAAAAAAAAAAAAAAAAAAwAAAAAAAAAAAAAAAAGgAAAAAADRSggAICCAAABACIAgDSCAAAAAAgAAAAAAAAAAgAAAIAAQACAAAEwAAAAAGAwPAOAAAAAAAAAACAAAIAABAAAAAAAAAAAA==

>  <PUBCHEM_IUPAC_OPENEYE_NAME>
[(1R,2S,5R)-2-isopropenyl-5-methyl-cyclohexyl] acetate

>  <PUBCHEM_IUPAC_CAS_NAME>
acetic acid [(1R,2S,5R)-5-methyl-2-(1-methylethenyl)cyclohexyl] ester

>  <PUBCHEM_IUPAC_NAME>
[(1R,2S,5R)-5-methyl-2-prop-1-en-2-ylcyclohexyl] acetate

>  <PUBCHEM_IUPAC_SYSTEMATIC_NAME>
[(1R,2S,5R)-5-methyl-2-prop-1-en-2-yl-cyclohexyl] ethanoate

>  <PUBCHEM_IUPAC_TRADITIONAL_NAME>
acetic acid [(1R,2S,5R)-2-isopropenyl-5-methyl-cyclohexyl] ester

>  <PUBCHEM_IUPAC_INCHI>
InChI=1S/C12H20O2/c1-8(2)11-6-5-9(3)7-12(11)14-10(4)13/h9,11-12H,1,5-7H2,2-4H3/t9-,11+,12-/m1/s1

>  <PUBCHEM_IUPAC_INCHIKEY>
HLHIVJRLODSUCI-ADEWGFFLSA-N

>  <PUBCHEM_XLOGP3_AA>
3.5

>  <PUBCHEM_EXACT_MASS>
196.146

>  <PUBCHEM_MOLECULAR_FORMULA>
C12H20O2

>  <PUBCHEM_MOLECULAR_WEIGHT>
196.29

>  <PUBCHEM_OPENEYE_CAN_SMILES>
CC1CCC(C(C1)OC(=O)C)C(=C)C

>  <PUBCHEM_OPENEYE_ISO_SMILES>
C[C@@H]1CC[C@H]([C@@H](C1)OC(=O)C)C(=C)C

>  <PUBCHEM_CACTVS_TPSA>
26.3

>  <PUBCHEM_MONOISOTOPIC_WEIGHT>
196.146

>  <PUBCHEM_TOTAL_CHARGE>
0

>  <PUBCHEM_HEAVY_ATOM_COUNT>
14

>  <PUBCHEM_ATOM_DEF_STEREO_COUNT>
3

>  <PUBCHEM_ATOM_UDEF_STEREO_COUNT>
0

>  <PUBCHEM_BOND_DEF_STEREO_COUNT>
0

>  <PUBCHEM_BOND_UDEF_STEREO_COUNT>
0

>  <PUBCHEM_ISOTOPIC_ATOM_COUNT>
0

>  <PUBCHEM_COMPONENT_COUNT>
1

>  <PUBCHEM_CACTVS_TAUTO_COUNT>
1

>  <PUBCHEM_COORDINATE_TYPE>
1
5
255

>  <PUBCHEM_BONDANNOTATIONS>
5  1  6
3  9  5
4  10  6

$$$$
