95223
 OpenBabel06101807152D

 26 28  0  0  0  0  0  0  0  0999 V2000
    6.3981   -1.0346    0.0000 O   0  0  0  0  0  0  0  0  0  0  0  0
    3.8000   -2.5346    0.0000 O   0  0  0  0  0  0  0  0  0  0  0  0
    4.6660   -2.0346    0.0000 N   0  0  0  0  0  0  0  0  0  0  0  0
    3.8000    0.4654    0.0000 C   0  0  0  0  0  0  0  0  0  0  0  0
    4.6660    0.9654    0.0000 C   0  0  0  0  0  0  0  0  0  0  0  0
    3.8000   -0.5346    0.0000 C   0  0  0  0  0  0  0  0  0  0  0  0
    5.5321    0.4654    0.0000 C   0  0  0  0  0  0  0  0  0  0  0  0
    4.6660   -1.0346    0.0000 C   0  0  0  0  0  0  0  0  0  0  0  0
    5.5321   -0.5346    0.0000 C   0  0  0  0  0  0  0  0  0  0  0  0
    2.9061    1.0000    0.0000 C   0  0  0  0  0  0  0  0  0  0  0  0
    4.6500    2.0069    0.0000 C   0  0  0  0  0  0  0  0  0  0  0  0
    2.9061   -1.0693    0.0000 C   0  0  0  0  0  0  0  0  0  0  0  0
    6.4421    0.9722    0.0000 C   0  0  0  0  0  0  0  0  0  0  0  0
    2.0000    0.4862    0.0000 C   0  0  0  0  0  0  0  0  0  0  0  0
    5.5480    2.5346    0.0000 C   0  0  0  0  0  0  0  0  0  0  0  0
    2.0000   -0.5554    0.0000 C   0  0  0  0  0  0  0  0  0  0  0  0
    6.4501    2.0138    0.0000 C   0  0  0  0  0  0  0  0  0  0  0  0
    2.9132    1.6200    0.0000 H   0  0  0  0  0  0  0  0  0  0  0  0
    4.1095    2.3106    0.0000 H   0  0  0  0  0  0  0  0  0  0  0  0
    2.9132   -1.6892    0.0000 H   0  0  0  0  0  0  0  0  0  0  0  0
    6.9754    0.6560    0.0000 H   0  0  0  0  0  0  0  0  0  0  0  0
    1.4643    0.7983    0.0000 H   0  0  0  0  0  0  0  0  0  0  0  0
    5.5456    3.1546    0.0000 H   0  0  0  0  0  0  0  0  0  0  0  0
    1.4643   -0.8675    0.0000 H   0  0  0  0  0  0  0  0  0  0  0  0
    6.9882    2.3217    0.0000 H   0  0  0  0  0  0  0  0  0  0  0  0
    6.3981   -1.6546    0.0000 H   0  0  0  0  0  0  0  0  0  0  0  0
  1  9  1  0  0  0  0
  1 26  1  0  0  0  0
  2  3  2  0  0  0  0
  3  8  1  0  0  0  0
  4  5  1  0  0  0  0
  4  6  1  0  0  0  0
  4 10  2  0  0  0  0
  5  7  1  0  0  0  0
  5 11  2  0  0  0  0
  6  8  1  0  0  0  0
  6 12  2  0  0  0  0
  7  9  1  0  0  0  0
  7 13  2  0  0  0  0
  8  9  2  0  0  0  0
 10 14  1  0  0  0  0
 10 18  1  0  0  0  0
 11 15  1  0  0  0  0
 11 19  1  0  0  0  0
 12 16  1  0  0  0  0
 12 20  1  0  0  0  0
 13 17  1  0  0  0  0
 13 21  1  0  0  0  0
 14 16  2  0  0  0  0
 14 22  1  0  0  0  0
 15 17  2  0  0  0  0
 15 23  1  0  0  0  0
 16 24  1  0  0  0  0
 17 25  1  0  0  0  0
M  END
>  <PUBCHEM_COMPOUND_CID>
95223

>  <PUBCHEM_COMPOUND_CANONICALIZED>
1

>  <PUBCHEM_CACTVS_COMPLEXITY>
294

>  <PUBCHEM_CACTVS_HBOND_ACCEPTOR>
3

>  <PUBCHEM_CACTVS_HBOND_DONOR>
1

>  <PUBCHEM_CACTVS_ROTATABLE_BOND>
0

>  <PUBCHEM_CACTVS_SUBSKEYS>
AAADccByMAAAAAAAAAAAAAAAAAAAAAAAAAAwYMAAAAAAAADBVAAAHgAECAAADAyBmAAwxsAQAgCBAiRCQgCCAAAgIAAIiAAFTIoKJiKSkZOAcABkwFEI2AeQwPAO6AADQAAaEADQAAaAADQgAAAAAAAAAA==

>  <PUBCHEM_IUPAC_OPENEYE_NAME>
10-nitrosophenanthren-9-ol

>  <PUBCHEM_IUPAC_CAS_NAME>
10-nitroso-9-phenanthrenol

>  <PUBCHEM_IUPAC_NAME>
10-nitrosophenanthren-9-ol

>  <PUBCHEM_IUPAC_SYSTEMATIC_NAME>
10-nitrosophenanthren-9-ol

>  <PUBCHEM_IUPAC_TRADITIONAL_NAME>
10-nitrosophenanthren-9-ol

>  <PUBCHEM_IUPAC_INCHI>
InChI=1S/C14H9NO2/c16-14-12-8-4-2-6-10(12)9-5-1-3-7-11(9)13(14)15-17/h1-8,16H

>  <PUBCHEM_IUPAC_INCHIKEY>
HMJPSXRANHDJOF-UHFFFAOYSA-N

>  <PUBCHEM_XLOGP3_AA>
4

>  <PUBCHEM_EXACT_MASS>
223.063

>  <PUBCHEM_MOLECULAR_FORMULA>
C14H9NO2

>  <PUBCHEM_MOLECULAR_WEIGHT>
223.231

>  <PUBCHEM_OPENEYE_CAN_SMILES>
C1=CC=C2C(=C1)C3=CC=CC=C3C(=C2N=O)O

>  <PUBCHEM_OPENEYE_ISO_SMILES>
C1=CC=C2C(=C1)C3=CC=CC=C3C(=C2N=O)O

>  <PUBCHEM_CACTVS_TPSA>
49.7

>  <PUBCHEM_MONOISOTOPIC_WEIGHT>
223.063

>  <PUBCHEM_TOTAL_CHARGE>
0

>  <PUBCHEM_HEAVY_ATOM_COUNT>
17

>  <PUBCHEM_ATOM_DEF_STEREO_COUNT>
0

>  <PUBCHEM_ATOM_UDEF_STEREO_COUNT>
0

>  <PUBCHEM_BOND_DEF_STEREO_COUNT>
0

>  <PUBCHEM_BOND_UDEF_STEREO_COUNT>
0

>  <PUBCHEM_ISOTOPIC_ATOM_COUNT>
0

>  <PUBCHEM_COMPONENT_COUNT>
1

>  <PUBCHEM_CACTVS_TAUTO_COUNT>
3

>  <PUBCHEM_COORDINATE_TYPE>
1
5
255

>  <PUBCHEM_BONDANNOTATIONS>
10  14  8
11  15  8
12  16  8
13  17  8
14  16  8
15  17  8
4  10  8
4  5  8
4  6  8
5  11  8
5  7  8
6  12  8
6  8  8
7  13  8
7  9  8
8  9  8

$$$$
