95292
 OpenBabel06101807152D

 19 19  0  0  0  0  0  0  0  0999 V2000
    5.4641    1.5000    0.0000 O   0  0  0  0  0  0  0  0  0  0  0  0
    3.7320   -1.5000    0.0000 N   0  0  0  0  0  0  0  0  0  0  0  0
    4.5981    0.0000    0.0000 C   0  0  0  0  0  0  0  0  0  0  0  0
    2.8660   -1.0000    0.0000 C   0  0  0  0  0  0  0  0  0  0  0  0
    3.7320    0.5000    0.0000 C   0  0  0  0  0  0  0  0  0  0  0  0
    2.8660    0.0000    0.0000 C   0  0  0  0  0  0  0  0  0  0  0  0
    4.5981   -1.0000    0.0000 C   0  0  0  0  0  0  0  0  0  0  0  0
    5.4641    0.5000    0.0000 C   0  0  0  0  0  0  0  0  0  0  0  0
    2.0000   -1.5000    0.0000 C   0  0  0  0  0  0  0  0  0  0  0  0
    6.3301    0.0000    0.0000 C   0  0  0  0  0  0  0  0  0  0  0  0
    3.7320    1.1200    0.0000 H   0  0  0  0  0  0  0  0  0  0  0  0
    2.3291    0.3100    0.0000 H   0  0  0  0  0  0  0  0  0  0  0  0
    5.1350   -1.3100    0.0000 H   0  0  0  0  0  0  0  0  0  0  0  0
    1.6900   -0.9631    0.0000 H   0  0  0  0  0  0  0  0  0  0  0  0
    1.4631   -1.8100    0.0000 H   0  0  0  0  0  0  0  0  0  0  0  0
    2.3100   -2.0369    0.0000 H   0  0  0  0  0  0  0  0  0  0  0  0
    6.0201   -0.5369    0.0000 H   0  0  0  0  0  0  0  0  0  0  0  0
    6.8671   -0.3100    0.0000 H   0  0  0  0  0  0  0  0  0  0  0  0
    6.6401    0.5369    0.0000 H   0  0  0  0  0  0  0  0  0  0  0  0
  1  8  2  0  0  0  0
  2  4  2  0  0  0  0
  2  7  1  0  0  0  0
  3  5  1  0  0  0  0
  3  7  2  0  0  0  0
  3  8  1  0  0  0  0
  4  6  1  0  0  0  0
  4  9  1  0  0  0  0
  5  6  2  0  0  0  0
  5 11  1  0  0  0  0
  6 12  1  0  0  0  0
  7 13  1  0  0  0  0
  8 10  1  0  0  0  0
  9 14  1  0  0  0  0
  9 15  1  0  0  0  0
  9 16  1  0  0  0  0
 10 17  1  0  0  0  0
 10 18  1  0  0  0  0
 10 19  1  0  0  0  0
M  END
>  <PUBCHEM_COMPOUND_CID>
95292

>  <PUBCHEM_COMPOUND_CANONICALIZED>
1

>  <PUBCHEM_CACTVS_COMPLEXITY>
133

>  <PUBCHEM_CACTVS_HBOND_ACCEPTOR>
2

>  <PUBCHEM_CACTVS_HBOND_DONOR>
0

>  <PUBCHEM_CACTVS_ROTATABLE_BOND>
1

>  <PUBCHEM_CACTVS_SUBSKEYS>
AAADccByIAAAAAAAAAAAAAAAAAAAAAAAAAAsAAAAAAAAAAABgAAAHgAAAAAADAzBngQ+gJIIEACoA7R3RACCgCA1AiAI2CE4ZNgIIPrAlZGEIYhggADIyccYiQAeAAAAAAAAAAAAAAAAAAAAAAAAAAAAAA==

>  <PUBCHEM_IUPAC_OPENEYE_NAME>
1-(6-methyl-3-pyridyl)ethanone

>  <PUBCHEM_IUPAC_CAS_NAME>
1-(6-methyl-3-pyridinyl)ethanone

>  <PUBCHEM_IUPAC_NAME>
1-(6-methylpyridin-3-yl)ethanone

>  <PUBCHEM_IUPAC_SYSTEMATIC_NAME>
1-(6-methylpyridin-3-yl)ethanone

>  <PUBCHEM_IUPAC_TRADITIONAL_NAME>
1-(6-methyl-3-pyridyl)ethanone

>  <PUBCHEM_IUPAC_INCHI>
InChI=1S/C8H9NO/c1-6-3-4-8(5-9-6)7(2)10/h3-5H,1-2H3

>  <PUBCHEM_IUPAC_INCHIKEY>
PVRYOKQFLBSILA-UHFFFAOYSA-N

>  <PUBCHEM_XLOGP3_AA>
0.9

>  <PUBCHEM_EXACT_MASS>
135.068

>  <PUBCHEM_MOLECULAR_FORMULA>
C8H9NO

>  <PUBCHEM_MOLECULAR_WEIGHT>
135.166

>  <PUBCHEM_OPENEYE_CAN_SMILES>
CC1=NC=C(C=C1)C(=O)C

>  <PUBCHEM_OPENEYE_ISO_SMILES>
CC1=NC=C(C=C1)C(=O)C

>  <PUBCHEM_CACTVS_TPSA>
30

>  <PUBCHEM_MONOISOTOPIC_WEIGHT>
135.068

>  <PUBCHEM_TOTAL_CHARGE>
0

>  <PUBCHEM_HEAVY_ATOM_COUNT>
10

>  <PUBCHEM_ATOM_DEF_STEREO_COUNT>
0

>  <PUBCHEM_ATOM_UDEF_STEREO_COUNT>
0

>  <PUBCHEM_BOND_DEF_STEREO_COUNT>
0

>  <PUBCHEM_BOND_UDEF_STEREO_COUNT>
0

>  <PUBCHEM_ISOTOPIC_ATOM_COUNT>
0

>  <PUBCHEM_COMPONENT_COUNT>
1

>  <PUBCHEM_CACTVS_TAUTO_COUNT>
9

>  <PUBCHEM_COORDINATE_TYPE>
1
5
255

>  <PUBCHEM_BONDANNOTATIONS>
2  4  8
2  7  8
3  5  8
3  7  8
4  6  8
5  6  8

$$$$
