9548815
 OpenBabel06101807152D

 78 80  0  0  0  0  0  0  0  0999 V2000
    8.7746    1.0683    0.0000 Fe  0  2  0  0  0 15  0  0  0  0  0  0
    9.4981    0.3780    0.0000 O   0  0  0  0  0  0  0  0  0  0  0  0
    2.4934    0.1820    0.0000 O   0  0  0  0  0  0  0  0  0  0  0  0
    7.9710   -5.1365    0.0000 O   0  0  0  0  0  0  0  0  0  0  0  0
    3.5421   -1.1965    0.0000 O   0  0  0  0  0  0  0  0  0  0  0  0
    6.5708   -4.1170    0.0000 O   0  0  0  0  0  0  0  0  0  0  0  0
    7.3856    1.0946    0.0000 N   0  0  0  0  0  0  0  0  0  0  0  0
    8.8113   -0.2041    0.0000 N   0  5  0  0  0  0  0  0  0  0  0  0
    8.7795    2.3933    0.0000 N   0  5  0  0  0  0  0  0  0  0  0  0
   10.2353    1.0946    0.0000 N   0  0  0  0  0  0  0  0  0  0  0  0
    6.8474    0.3659    0.0000 C   0  0  0  0  0  0  0  0  0  0  0  0
    8.0508   -0.8058    0.0000 C   0  0  0  0  0  0  0  0  0  0  0  0
    6.8474    1.8233    0.0000 C   0  0  0  0  0  0  0  0  0  0  0  0
    9.5717   -0.7741    0.0000 C   0  0  0  0  0  0  0  0  0  0  0  0
    8.0190    2.9950    0.0000 C   0  0  0  0  0  0  0  0  0  0  0  0
   10.7736    1.8550    0.0000 C   0  0  0  0  0  0  0  0  0  0  0  0
   10.8053    0.3976    0.0000 C   0  0  0  0  0  0  0  0  0  0  0  0
    9.5717    3.0267    0.0000 C   0  0  0  0  0  0  0  0  0  0  0  0
    7.1331   -0.5200    0.0000 C   0  0  0  0  0  0  0  0  0  0  0  0
    7.1014    2.7409    0.0000 C   0  0  0  0  0  0  0  0  0  0  0  0
   10.5211   -0.5200    0.0000 C   0  0  0  0  0  0  0  0  0  0  0  0
   10.4894    2.7409    0.0000 C   0  0  0  0  0  0  0  0  0  0  0  0
    5.9298    0.6199    0.0000 C   0  0  0  0  0  0  0  0  0  0  0  0
    8.3366   -1.6917    0.0000 C   0  0  0  0  0  0  0  0  0  0  0  0
    5.9298    1.5692    0.0000 C   0  0  0  0  0  0  0  0  0  0  0  0
    9.2860   -1.6917    0.0000 C   0  0  0  0  0  0  0  0  0  0  0  0
    8.3048    3.9126    0.0000 C   0  0  0  0  0  0  0  0  0  0  0  0
   11.6927    1.6010    0.0000 C   0  0  0  0  0  0  0  0  0  0  0  0
   11.6927    0.6517    0.0000 C   0  0  0  0  0  0  0  0  0  0  0  0
    9.2542    3.9126    0.0000 C   0  0  0  0  0  0  0  0  0  0  0  0
    5.1339    0.0144    0.0000 C   0  0  0  0  0  0  0  0  0  0  0  0
    7.7480   -2.5001    0.0000 C   0  0  0  0  0  0  0  0  0  0  0  0
    5.1339    2.1747    0.0000 C   0  0  0  0  0  0  0  0  0  0  0  0
    9.7860   -2.5578    0.0000 C   0  0  0  0  0  0  0  0  0  0  0  0
    7.7121    4.7180    0.0000 C   0  0  0  0  0  0  0  0  0  0  0  0
   12.4885    2.2066    0.0000 C   0  0  0  0  0  0  0  0  0  0  0  0
   12.4912    0.0497    0.0000 C   0  0  0  0  0  0  0  0  0  0  0  0
    9.8298    4.7303    0.0000 C   0  0  0  0  0  0  0  0  0  0  0  0
    4.2116    0.4009    0.0000 C   0  0  0  0  0  0  0  0  0  0  0  0
    8.1538   -3.4141    0.0000 C   0  0  0  0  0  0  0  0  0  0  0  0
   13.4118    0.4402    0.0000 C   0  0  0  0  0  0  0  0  0  0  0  0
    9.4095    5.6377    0.0000 C   0  0  0  0  0  0  0  0  0  0  0  0
    3.4157   -0.2045    0.0000 C   0  0  0  0  0  0  0  0  0  0  0  0
    7.5652   -4.2225    0.0000 C   0  0  0  0  0  0  0  0  0  0  0  0
   10.1143    0.4464    0.0000 H   0  0  0  0  0  0  0  0  0  0  0  0
    9.7732   -0.1776    0.0000 H   0  0  0  0  0  0  0  0  0  0  0  0
    6.6969   -0.9606    0.0000 H   0  0  0  0  0  0  0  0  0  0  0  0
    6.6630    3.1793    0.0000 H   0  0  0  0  0  0  0  0  0  0  0  0
   10.9509   -0.9669    0.0000 H   0  0  0  0  0  0  0  0  0  0  0  0
   10.9259    3.1812    0.0000 H   0  0  0  0  0  0  0  0  0  0  0  0
    4.7986   -0.5071    0.0000 H   0  0  0  0  0  0  0  0  0  0  0  0
    5.5892   -0.4063    0.0000 H   0  0  0  0  0  0  0  0  0  0  0  0
    7.3177   -2.0537    0.0000 H   0  0  0  0  0  0  0  0  0  0  0  0
    7.2336   -2.8463    0.0000 H   0  0  0  0  0  0  0  0  0  0  0  0
    5.5093    2.6681    0.0000 H   0  0  0  0  0  0  0  0  0  0  0  0
    4.6405    2.5501    0.0000 H   0  0  0  0  0  0  0  0  0  0  0  0
    4.7585    1.6813    0.0000 H   0  0  0  0  0  0  0  0  0  0  0  0
    9.2491   -2.8678    0.0000 H   0  0  0  0  0  0  0  0  0  0  0  0
   10.0960   -3.0947    0.0000 H   0  0  0  0  0  0  0  0  0  0  0  0
   10.3229   -2.2477    0.0000 H   0  0  0  0  0  0  0  0  0  0  0  0
    8.2115    5.0855    0.0000 H   0  0  0  0  0  0  0  0  0  0  0  0
    7.3446    5.2174    0.0000 H   0  0  0  0  0  0  0  0  0  0  0  0
    7.2128    4.3506    0.0000 H   0  0  0  0  0  0  0  0  0  0  0  0
   12.8640    1.7133    0.0000 H   0  0  0  0  0  0  0  0  0  0  0  0
   12.9819    2.5821    0.0000 H   0  0  0  0  0  0  0  0  0  0  0  0
   12.1130    2.7000    0.0000 H   0  0  0  0  0  0  0  0  0  0  0  0
   12.4155   -0.5657    0.0000 H   0  0  0  0  0  0  0  0  0  0  0  0
   10.4474    4.6748    0.0000 H   0  0  0  0  0  0  0  0  0  0  0  0
    4.5469    0.9225    0.0000 H   0  0  0  0  0  0  0  0  0  0  0  0
    3.7562    0.8217    0.0000 H   0  0  0  0  0  0  0  0  0  0  0  0
    8.5840   -3.8605    0.0000 H   0  0  0  0  0  0  0  0  0  0  0  0
    8.6681   -3.0679    0.0000 H   0  0  0  0  0  0  0  0  0  0  0  0
   13.9069    0.0669    0.0000 H   0  0  0  0  0  0  0  0  0  0  0  0
   13.4875    1.0556    0.0000 H   0  0  0  0  0  0  0  0  0  0  0  0
    9.7664    6.1447    0.0000 H   0  0  0  0  0  0  0  0  0  0  0  0
    8.7920    5.6933    0.0000 H   0  0  0  0  0  0  0  0  0  0  0  0
    2.0000   -0.1934    0.0000 H   0  0  0  0  0  0  0  0  0  0  0  0
    7.6060   -5.6377    0.0000 H   0  0  0  0  0  0  0  0  0  0  0  0
  2 45  1  0  0  0  0
  2 46  1  0  0  0  0
  3 43  1  0  0  0  0
  3 77  1  0  0  0  0
  4 44  1  0  0  0  0
  4 78  1  0  0  0  0
  5 43  2  0  0  0  0
  6 44  2  0  0  0  0
  7 11  2  0  0  0  0
  7 13  1  0  0  0  0
  8 12  1  0  0  0  0
  8 14  1  0  0  0  0
  9 15  1  0  0  0  0
  9 18  1  0  0  0  0
 10 16  1  0  0  0  0
 10 17  2  0  0  0  0
 11 19  1  0  0  0  0
 11 23  1  0  0  0  0
 12 19  2  0  0  0  0
 12 24  1  0  0  0  0
 13 20  2  0  0  0  0
 13 25  1  0  0  0  0
 14 21  2  0  0  0  0
 14 26  1  0  0  0  0
 15 20  1  0  0  0  0
 15 27  2  0  0  0  0
 16 22  2  0  0  0  0
 16 28  1  0  0  0  0
 17 21  1  0  0  0  0
 17 29  1  0  0  0  0
 18 22  1  0  0  0  0
 18 30  2  0  0  0  0
 19 47  1  0  0  0  0
 20 48  1  0  0  0  0
 21 49  1  0  0  0  0
 22 50  1  0  0  0  0
 23 25  2  0  0  0  0
 23 31  1  0  0  0  0
 24 26  2  0  0  0  0
 24 32  1  0  0  0  0
 25 33  1  0  0  0  0
 26 34  1  0  0  0  0
 27 30  1  0  0  0  0
 27 35  1  0  0  0  0
 28 29  2  0  0  0  0
 28 36  1  0  0  0  0
 29 37  1  0  0  0  0
 30 38  1  0  0  0  0
 31 39  1  0  0  0  0
 31 51  1  0  0  0  0
 31 52  1  0  0  0  0
 32 40  1  0  0  0  0
 32 53  1  0  0  0  0
 32 54  1  0  0  0  0
 33 55  1  0  0  0  0
 33 56  1  0  0  0  0
 33 57  1  0  0  0  0
 34 58  1  0  0  0  0
 34 59  1  0  0  0  0
 34 60  1  0  0  0  0
 35 61  1  0  0  0  0
 35 62  1  0  0  0  0
 35 63  1  0  0  0  0
 36 64  1  0  0  0  0
 36 65  1  0  0  0  0
 36 66  1  0  0  0  0
 37 41  2  0  0  0  0
 37 67  1  0  0  0  0
 38 42  2  0  0  0  0
 38 68  1  0  0  0  0
 39 43  1  0  0  0  0
 39 69  1  0  0  0  0
 39 70  1  0  0  0  0
 40 44  1  0  0  0  0
 40 71  1  0  0  0  0
 40 72  1  0  0  0  0
 41 73  1  0  0  0  0
 41 74  1  0  0  0  0
 42 75  1  0  0  0  0
 42 76  1  0  0  0  0
M  CHG  3   1   2   8  -1   9  -1
M  END
>  <PUBCHEM_COMPOUND_CID>
9548815

>  <PUBCHEM_COMPOUND_CANONICALIZED>
1

>  <PUBCHEM_CACTVS_COMPLEXITY>
1580

>  <PUBCHEM_CACTVS_HBOND_ACCEPTOR>
9

>  <PUBCHEM_CACTVS_HBOND_DONOR>
3

>  <PUBCHEM_CACTVS_ROTATABLE_BOND>
8

>  <PUBCHEM_CACTVS_SUBSKEYS>
AAADcfB/uAAAAAAgAAAAAAAAAAAAAWIECAAgQIEAAAAAAECBgAAAHgAACAAADAiBngACiJIIEgCoAyTyTACCgCAhAiAImCEwRJgIIHLAkJGEQAhkgADIyAeYWQIOgAAAAAAAAAAAAAAAAAAAAAAAAAAAAA==

>  <PUBCHEM_IUPAC_OPENEYE_NAME>
ferrous;3-[18-(2-carboxyethyl)-3,8,13,17-tetramethyl-7,12-divinyl-porphyrin-21,23-diid-2-yl]propanoic acid;hydrate

>  <PUBCHEM_IUPAC_CAS_NAME>
3-[18-(2-carboxyethyl)-7,12-bis(ethenyl)-3,8,13,17-tetramethyl-2-porphyrin-21,23-diidyl]propanoic acid;iron(2+);hydrate

>  <PUBCHEM_IUPAC_NAME>
3-[18-(2-carboxyethyl)-7,12-bis(ethenyl)-3,8,13,17-tetramethylporphyrin-21,23-diid-2-yl]propanoic acid;iron(2+);hydrate

>  <PUBCHEM_IUPAC_SYSTEMATIC_NAME>
3-[7,12-bis(ethenyl)-18-(3-hydroxy-3-oxopropyl)-3,8,13,17-tetramethyl-porphyrin-21,23-diid-2-yl]propanoic acid;iron(2+);hydrate

>  <PUBCHEM_IUPAC_TRADITIONAL_NAME>
ferrous;3-[18-(2-carboxyethyl)-3,8,13,17-tetramethyl-7,12-divinyl-porphine-21,23-diid-2-yl]propionic acid;hydrate

>  <PUBCHEM_IUPAC_INCHI>
InChI=1S/C34H34N4O4.Fe.H2O/c1-7-21-17(3)25-13-26-19(5)23(9-11-33(39)40)31(37-26)16-32-24(10-12-34(41)42)20(6)28(38-32)15-30-22(8-2)18(4)27(36-30)14-29(21)35-25;;/h7-8,13-16H,1-2,9-12H2,3-6H3,(H4,35,36,37,38,39,40,41,42);;1H2/q;+2;/p-2

>  <PUBCHEM_IUPAC_INCHIKEY>
CODDGSIFXYHHJO-UHFFFAOYSA-L

>  <PUBCHEM_EXACT_MASS>
634.188

>  <PUBCHEM_MOLECULAR_FORMULA>
C34H34FeN4O5

>  <PUBCHEM_MOLECULAR_WEIGHT>
634.514

>  <PUBCHEM_OPENEYE_CAN_SMILES>
CC1=C(C2=CC3=NC(=CC4=C(C(=C([N-]4)C=C5C(=C(C(=N5)C=C1[N-]2)C)CCC(=O)O)CCC(=O)O)C)C(=C3C)C=C)C=C.O.[Fe+2]

>  <PUBCHEM_OPENEYE_ISO_SMILES>
CC1=C(C2=CC3=NC(=CC4=C(C(=C([N-]4)C=C5C(=C(C(=N5)C=C1[N-]2)C)CCC(=O)O)CCC(=O)O)C)C(=C3C)C=C)C=C.O.[Fe+2]

>  <PUBCHEM_CACTVS_TPSA>
102

>  <PUBCHEM_MONOISOTOPIC_WEIGHT>
634.188

>  <PUBCHEM_TOTAL_CHARGE>
0

>  <PUBCHEM_HEAVY_ATOM_COUNT>
44

>  <PUBCHEM_ATOM_DEF_STEREO_COUNT>
0

>  <PUBCHEM_ATOM_UDEF_STEREO_COUNT>
0

>  <PUBCHEM_BOND_DEF_STEREO_COUNT>
0

>  <PUBCHEM_BOND_UDEF_STEREO_COUNT>
0

>  <PUBCHEM_ISOTOPIC_ATOM_COUNT>
0

>  <PUBCHEM_COMPONENT_COUNT>
3

>  <PUBCHEM_CACTVS_TAUTO_COUNT>
8

>  <PUBCHEM_NONSTANDARDBOND>
1  10  6
1  2  6
1  7  6
1  8  6
1  9  6

>  <PUBCHEM_COORDINATE_TYPE>
1
5
255

>  <PUBCHEM_BONDANNOTATIONS>
10  16  8
10  17  8
11  19  8
12  19  8
12  24  8
13  20  8
14  21  8
14  26  8
15  20  8
15  27  8
16  22  8
17  21  8
18  22  8
18  30  8
24  26  8
27  30  8
7  11  8
7  13  8
8  12  8
8  14  8
9  15  8
9  18  8

$$$$
