9548703
 OpenBabel06101807152D

 43 44  0  0  1  0  0  0  0  0999 V2000
    5.3742    0.2488    0.0000 C   0  0  2  0  0  0  0  0  0  0  0  0
    5.3792   -0.7512    0.0000 C   0  0  2  0  0  0  0  0  0  0  0  0
    6.3189    0.5582    0.0000 C   0  0  2  0  0  0  0  0  0  0  0  0
    4.6005   -1.3786    0.0000 C   0  0  2  0  0  0  0  0  0  0  0  0
    4.5893    0.8684    0.0000 C   0  0  0  0  0  0  0  0  0  0  0  0
    6.3269   -1.0512    0.0000 C   0  0  0  0  0  0  0  0  0  0  0  0
    6.9065   -0.2436    0.0000 C   0  0  0  0  0  0  0  0  0  0  0  0
    3.6155    0.6410    0.0000 C   0  0  1  0  0  0  0  0  0  0  0  0
    3.6244   -1.1609    0.0000 C   0  0  0  0  0  0  0  0  0  0  0  0
    3.1861   -0.2621    0.0000 C   0  0  0  0  0  0  0  0  0  0  0  0
    2.9881    1.4197    0.0000 C   0  0  0  0  0  0  0  0  0  0  0  0
    6.6248    1.5103    0.0000 C   0  0  0  0  0  0  0  0  0  0  0  0
    4.8278   -2.3524    0.0000 C   0  0  0  0  0  0  0  0  0  0  0  0
    2.0000    1.2657    0.0000 C   0  0  0  0  0  0  0  0  0  0  0  0
    3.3488    2.3524    0.0000 C   0  0  0  0  0  0  0  0  0  0  0  0
    5.5229    1.0857    0.0000 H   0  0  0  0  0  0  0  0  0  0  0  0
    5.5362   -1.5866    0.0000 H   0  0  0  0  0  0  0  0  0  0  0  0
    5.8792    0.9954    0.0000 H   0  0  0  0  0  0  0  0  0  0  0  0
    4.1642   -1.8192    0.0000 H   0  0  0  0  0  0  0  0  0  0  0  0
    5.0721    1.2574    0.0000 H   0  0  0  0  0  0  0  0  0  0  0  0
    4.3175    1.4256    0.0000 H   0  0  0  0  0  0  0  0  0  0  0  0
    6.0787   -1.6194    0.0000 H   0  0  0  0  0  0  0  0  0  0  0  0
    6.8658   -1.3578    0.0000 H   0  0  0  0  0  0  0  0  0  0  0  0
    7.3694   -0.6560    0.0000 H   0  0  0  0  0  0  0  0  0  0  0  0
    7.3653    0.1734    0.0000 H   0  0  0  0  0  0  0  0  0  0  0  0
    3.8173    1.2272    0.0000 H   0  0  0  0  0  0  0  0  0  0  0  0
    3.0207   -1.3019    0.0000 H   0  0  0  0  0  0  0  0  0  0  0  0
    3.6275   -1.7809    0.0000 H   0  0  0  0  0  0  0  0  0  0  0  0
    2.6994    0.1220    0.0000 H   0  0  0  0  0  0  0  0  0  0  0  0
    2.7033   -0.6511    0.0000 H   0  0  0  0  0  0  0  0  0  0  0  0
    2.7644    0.8414    0.0000 H   0  0  0  0  0  0  0  0  0  0  0  0
    7.2151    1.3206    0.0000 H   0  0  0  0  0  0  0  0  0  0  0  0
    6.8145    2.1006    0.0000 H   0  0  0  0  0  0  0  0  0  0  0  0
    6.0345    1.7000    0.0000 H   0  0  0  0  0  0  0  0  0  0  0  0
    4.2241   -2.4934    0.0000 H   0  0  0  0  0  0  0  0  0  0  0  0
    4.9688   -2.9562    0.0000 H   0  0  0  0  0  0  0  0  0  0  0  0
    5.4316   -2.2114    0.0000 H   0  0  0  0  0  0  0  0  0  0  0  0
    1.9045    1.8783    0.0000 H   0  0  0  0  0  0  0  0  0  0  0  0
    1.3874    1.1703    0.0000 H   0  0  0  0  0  0  0  0  0  0  0  0
    2.0955    0.6531    0.0000 H   0  0  0  0  0  0  0  0  0  0  0  0
    3.9270    2.1288    0.0000 H   0  0  0  0  0  0  0  0  0  0  0  0
    3.5724    2.9306    0.0000 H   0  0  0  0  0  0  0  0  0  0  0  0
    2.7705    2.5760    0.0000 H   0  0  0  0  0  0  0  0  0  0  0  0
  1  2  1  6  0  0  0
  1  5  1  0  0  0  0
  1 16  1  0  0  0  0
  2  4  1  1  0  0  0
  2  6  1  0  0  0  0
  2 17  1  0  0  0  0
  3  1  1  1  0  0  0
  3  7  1  0  0  0  0
  3 12  1  0  0  0  0
  3 18  1  0  0  0  0
  4  9  1  0  0  0  0
  4 13  1  0  0  0  0
  4 19  1  6  0  0  0
  5  8  1  0  0  0  0
  5 20  1  0  0  0  0
  5 21  1  0  0  0  0
  6  7  1  0  0  0  0
  6 22  1  0  0  0  0
  6 23  1  0  0  0  0
  7 24  1  0  0  0  0
  7 25  1  0  0  0  0
  8 10  1  0  0  0  0
  8 11  1  0  0  0  0
  8 26  1  6  0  0  0
  9 10  1  0  0  0  0
  9 27  1  0  0  0  0
  9 28  1  0  0  0  0
 10 29  1  0  0  0  0
 10 30  1  0  0  0  0
 11 14  1  0  0  0  0
 11 15  1  0  0  0  0
 11 31  1  0  0  0  0
 12 32  1  0  0  0  0
 12 33  1  0  0  0  0
 12 34  1  0  0  0  0
 13 35  1  0  0  0  0
 13 36  1  0  0  0  0
 13 37  1  0  0  0  0
 14 38  1  0  0  0  0
 14 39  1  0  0  0  0
 14 40  1  0  0  0  0
 15 41  1  0  0  0  0
 15 42  1  0  0  0  0
 15 43  1  0  0  0  0
M  END
>  <PUBCHEM_COMPOUND_CID>
9548703

>  <PUBCHEM_COMPOUND_CANONICALIZED>
1

>  <PUBCHEM_CACTVS_COMPLEXITY>
206

>  <PUBCHEM_CACTVS_HBOND_ACCEPTOR>
0

>  <PUBCHEM_CACTVS_HBOND_DONOR>
0

>  <PUBCHEM_CACTVS_ROTATABLE_BOND>
1

>  <PUBCHEM_CACTVS_SUBSKEYS>
AAADceBwAAAAAAAAAAAAAAAAAAAAAYAAAAAAAAAABgAAAADAAAAAGAAAAAAADQCAAAACAAAAAAAAAAAAAAAAAAAAAAAAAAAAAAAAAAIAAAAAAAAAAAAAAAEAgMAOgAAAAAAAAAAAAAAAAAAAAQAACAAAAA==

>  <PUBCHEM_IUPAC_OPENEYE_NAME>
(1S,3aS,4S,7R,8aS)-7-isopropyl-1,4-dimethyl-1,2,3,3a,4,5,6,7,8,8a-decahydroazulene

>  <PUBCHEM_IUPAC_CAS_NAME>
(1S,3aS,4S,7R,8aS)-1,4-dimethyl-7-propan-2-yl-1,2,3,3a,4,5,6,7,8,8a-decahydroazulene

>  <PUBCHEM_IUPAC_NAME>
(1S,3aS,4S,7R,8aS)-1,4-dimethyl-7-propan-2-yl-1,2,3,3a,4,5,6,7,8,8a-decahydroazulene

>  <PUBCHEM_IUPAC_SYSTEMATIC_NAME>
(1S,3aS,4S,7R,8aS)-1,4-dimethyl-7-propan-2-yl-1,2,3,3a,4,5,6,7,8,8a-decahydroazulene

>  <PUBCHEM_IUPAC_TRADITIONAL_NAME>
(1S,3aS,4S,7R,8aS)-7-isopropyl-1,4-dimethyl-1,2,3,3a,4,5,6,7,8,8a-decahydroazulene

>  <PUBCHEM_IUPAC_INCHI>
InChI=1S/C15H28/c1-10(2)13-7-5-11(3)14-8-6-12(4)15(14)9-13/h10-15H,5-9H2,1-4H3/t11-,12-,13+,14-,15-/m0/s1

>  <PUBCHEM_IUPAC_INCHIKEY>
QAQCPAHQVOKALN-RMEBNNNOSA-N

>  <PUBCHEM_XLOGP3_AA>
6.2

>  <PUBCHEM_EXACT_MASS>
208.219

>  <PUBCHEM_MOLECULAR_FORMULA>
C15H28

>  <PUBCHEM_MOLECULAR_WEIGHT>
208.389

>  <PUBCHEM_OPENEYE_CAN_SMILES>
CC1CCC(CC2C1CCC2C)C(C)C

>  <PUBCHEM_OPENEYE_ISO_SMILES>
C[C@H]1CC[C@H](C[C@@H]2[C@H]1CC[C@@H]2C)C(C)C

>  <PUBCHEM_CACTVS_TPSA>
0

>  <PUBCHEM_MONOISOTOPIC_WEIGHT>
208.219

>  <PUBCHEM_TOTAL_CHARGE>
0

>  <PUBCHEM_HEAVY_ATOM_COUNT>
15

>  <PUBCHEM_ATOM_DEF_STEREO_COUNT>
5

>  <PUBCHEM_ATOM_UDEF_STEREO_COUNT>
0

>  <PUBCHEM_BOND_DEF_STEREO_COUNT>
0

>  <PUBCHEM_BOND_UDEF_STEREO_COUNT>
0

>  <PUBCHEM_ISOTOPIC_ATOM_COUNT>
0

>  <PUBCHEM_COMPONENT_COUNT>
1

>  <PUBCHEM_CACTVS_TAUTO_COUNT>
1

>  <PUBCHEM_COORDINATE_TYPE>
1
5
255

>  <PUBCHEM_BONDANNOTATIONS>
1  16  6
2  17  6
3  12  5
4  13  5
8  11  5

$$$$
