9578164
 OpenBabel06101807152D

 32 32  0  0  0  0  0  0  0  0999 V2000
    4.5981   -1.8100    0.0000 O   0  0  0  0  0  0  0  0  0  0  0  0
    3.7320    2.6900    0.0000 O   0  0  0  0  0  0  0  0  0  0  0  0
    4.5981    4.1900    0.0000 O   0  0  0  0  0  0  0  0  0  0  0  0
    5.4641    3.6900    0.0000 N   0  0  0  0  0  0  0  0  0  0  0  0
    4.5981   -0.8100    0.0000 C   0  0  0  0  0  0  0  0  0  0  0  0
    3.7320   -2.3100    0.0000 C   0  0  0  0  0  0  0  0  0  0  0  0
    2.8660   -3.8100    0.0000 C   0  0  0  0  0  0  0  0  0  0  0  0
    3.7320   -3.3100    0.0000 C   0  0  0  0  0  0  0  0  0  0  0  0
    4.5981    1.1900    0.0000 C   0  0  0  0  0  0  0  0  0  0  0  0
    5.4641   -0.3100    0.0000 C   0  0  0  0  0  0  0  0  0  0  0  0
    3.7320   -0.3100    0.0000 C   0  0  0  0  0  0  0  0  0  0  0  0
    5.4641    0.6900    0.0000 C   0  0  0  0  0  0  0  0  0  0  0  0
    3.7320    0.6900    0.0000 C   0  0  0  0  0  0  0  0  0  0  0  0
    2.8660   -4.8100    0.0000 C   0  0  0  0  0  0  0  0  0  0  0  0
    2.0000   -3.3100    0.0000 C   0  0  0  0  0  0  0  0  0  0  0  0
    4.5981    2.1900    0.0000 C   0  0  0  0  0  0  0  0  0  0  0  0
    5.4641    2.6900    0.0000 C   0  0  0  0  0  0  0  0  0  0  0  0
    3.5200   -1.7274    0.0000 H   0  0  0  0  0  0  0  0  0  0  0  0
    3.1215   -2.4177    0.0000 H   0  0  0  0  0  0  0  0  0  0  0  0
    4.2690   -3.6200    0.0000 H   0  0  0  0  0  0  0  0  0  0  0  0
    6.0010   -0.6200    0.0000 H   0  0  0  0  0  0  0  0  0  0  0  0
    3.1951   -0.6200    0.0000 H   0  0  0  0  0  0  0  0  0  0  0  0
    6.0010    1.0000    0.0000 H   0  0  0  0  0  0  0  0  0  0  0  0
    3.1951    1.0000    0.0000 H   0  0  0  0  0  0  0  0  0  0  0  0
    2.2460   -4.8100    0.0000 H   0  0  0  0  0  0  0  0  0  0  0  0
    2.8660   -5.4300    0.0000 H   0  0  0  0  0  0  0  0  0  0  0  0
    3.4860   -4.8100    0.0000 H   0  0  0  0  0  0  0  0  0  0  0  0
    2.3100   -2.7731    0.0000 H   0  0  0  0  0  0  0  0  0  0  0  0
    1.4631   -3.0000    0.0000 H   0  0  0  0  0  0  0  0  0  0  0  0
    1.6900   -3.8469    0.0000 H   0  0  0  0  0  0  0  0  0  0  0  0
    6.0010    2.3800    0.0000 H   0  0  0  0  0  0  0  0  0  0  0  0
    4.5981    4.8100    0.0000 H   0  0  0  0  0  0  0  0  0  0  0  0
  1  5  1  0  0  0  0
  1  6  1  0  0  0  0
  2 16  2  0  0  0  0
  3  4  1  0  0  0  0
  3 32  1  0  0  0  0
  4 17  2  0  0  0  0
  5 10  2  0  0  0  0
  5 11  1  0  0  0  0
  6  8  1  0  0  0  0
  6 18  1  0  0  0  0
  6 19  1  0  0  0  0
  7  8  2  0  0  0  0
  7 14  1  0  0  0  0
  7 15  1  0  0  0  0
  8 20  1  0  0  0  0
  9 12  2  0  0  0  0
  9 13  1  0  0  0  0
  9 16  1  0  0  0  0
 10 12  1  0  0  0  0
 10 21  1  0  0  0  0
 11 13  2  0  0  0  0
 11 22  1  0  0  0  0
 12 23  1  0  0  0  0
 13 24  1  0  0  0  0
 14 25  1  0  0  0  0
 14 26  1  0  0  0  0
 14 27  1  0  0  0  0
 15 28  1  0  0  0  0
 15 29  1  0  0  0  0
 15 30  1  0  0  0  0
 16 17  1  0  0  0  0
 17 31  1  0  0  0  0
M  END
>  <PUBCHEM_COMPOUND_CID>
9578164

>  <PUBCHEM_COMPOUND_CANONICALIZED>
1

>  <PUBCHEM_CACTVS_COMPLEXITY>
298

>  <PUBCHEM_CACTVS_HBOND_ACCEPTOR>
4

>  <PUBCHEM_CACTVS_HBOND_DONOR>
1

>  <PUBCHEM_CACTVS_ROTATABLE_BOND>
5

>  <PUBCHEM_CACTVS_SUBSKEYS>
AAADccByMAAAAAAAAAAAAAAAAAAAAAAAAAAwAAAAAAAAAAABAAAAHgAECAAADAThmAYyBoAQBACoArBzAAACCAAkIAAIiAEmCMgMJjKENRqCOSCkwBEIqYeIzIDOIAAAAAAAAABAAAAAAAAAAAAAAAAAAA==

>  <PUBCHEM_IUPAC_OPENEYE_NAME>
(1Z)-2-[4-(3-methylbut-2-enoxy)phenyl]-2-oxo-acetaldehyde oxime

>  <PUBCHEM_IUPAC_CAS_NAME>
(1Z)-2-[4-(3-methylbut-2-enoxy)phenyl]-2-oxoacetaldehyde oxime

>  <PUBCHEM_IUPAC_NAME>
(2Z)-2-hydroxyimino-1-[4-(3-methylbut-2-enoxy)phenyl]ethanone

>  <PUBCHEM_IUPAC_SYSTEMATIC_NAME>
(2Z)-2-hydroxyimino-1-[4-(3-methylbut-2-enoxy)phenyl]ethanone

>  <PUBCHEM_IUPAC_TRADITIONAL_NAME>
(1Z)-2-keto-2-[4-(3-methylbut-2-enoxy)phenyl]acetaldoxime

>  <PUBCHEM_IUPAC_INCHI>
InChI=1S/C13H15NO3/c1-10(2)7-8-17-12-5-3-11(4-6-12)13(15)9-14-16/h3-7,9,16H,8H2,1-2H3/b14-9-

>  <PUBCHEM_IUPAC_INCHIKEY>
DIKOBVULVNJCCO-ZROIWOOFSA-N

>  <PUBCHEM_XLOGP3_AA>
3.5

>  <PUBCHEM_EXACT_MASS>
233.105

>  <PUBCHEM_MOLECULAR_FORMULA>
C13H15NO3

>  <PUBCHEM_MOLECULAR_WEIGHT>
233.267

>  <PUBCHEM_OPENEYE_CAN_SMILES>
CC(=CCOC1=CC=C(C=C1)C(=O)C=NO)C

>  <PUBCHEM_OPENEYE_ISO_SMILES>
CC(=CCOC1=CC=C(C=C1)C(=O)/C=N\O)C

>  <PUBCHEM_CACTVS_TPSA>
58.9

>  <PUBCHEM_MONOISOTOPIC_WEIGHT>
233.105

>  <PUBCHEM_TOTAL_CHARGE>
0

>  <PUBCHEM_HEAVY_ATOM_COUNT>
17

>  <PUBCHEM_ATOM_DEF_STEREO_COUNT>
0

>  <PUBCHEM_ATOM_UDEF_STEREO_COUNT>
0

>  <PUBCHEM_BOND_DEF_STEREO_COUNT>
1

>  <PUBCHEM_BOND_UDEF_STEREO_COUNT>
0

>  <PUBCHEM_ISOTOPIC_ATOM_COUNT>
0

>  <PUBCHEM_COMPONENT_COUNT>
1

>  <PUBCHEM_CACTVS_TAUTO_COUNT>
4

>  <PUBCHEM_COORDINATE_TYPE>
1
5
255

>  <PUBCHEM_BONDANNOTATIONS>
10  12  8
11  13  8
5  10  8
5  11  8
9  12  8
9  13  8

$$$$
