969516
 OpenBabel06101807152D

 47 48  0  0  0  0  0  0  0  0999 V2000
   10.6603    3.0950    0.0000 O   0  0  0  0  0  0  0  0  0  0  0  0
    2.8660   -4.4050    0.0000 O   0  0  0  0  0  0  0  0  0  0  0  0
   10.6603    5.0950    0.0000 O   0  0  0  0  0  0  0  0  0  0  0  0
    4.5981   -5.4050    0.0000 O   0  0  0  0  0  0  0  0  0  0  0  0
    5.4641    2.0950    0.0000 O   0  0  0  0  0  0  0  0  0  0  0  0
    4.5981    0.5950    0.0000 O   0  0  0  0  0  0  0  0  0  0  0  0
    4.5981   -2.4050    0.0000 C   0  0  0  0  0  0  0  0  0  0  0  0
    8.0622    3.5950    0.0000 C   0  0  0  0  0  0  0  0  0  0  0  0
    6.3301    0.5950    0.0000 C   0  0  0  0  0  0  0  0  0  0  0  0
    3.7320   -2.9050    0.0000 C   0  0  0  0  0  0  0  0  0  0  0  0
    8.9282    3.0950    0.0000 C   0  0  0  0  0  0  0  0  0  0  0  0
    3.7320   -3.9050    0.0000 C   0  0  0  0  0  0  0  0  0  0  0  0
    9.7942    3.5950    0.0000 C   0  0  0  0  0  0  0  0  0  0  0  0
    8.0622    4.5950    0.0000 C   0  0  0  0  0  0  0  0  0  0  0  0
    5.4641   -2.9050    0.0000 C   0  0  0  0  0  0  0  0  0  0  0  0
    4.5981   -1.4050    0.0000 C   0  0  0  0  0  0  0  0  0  0  0  0
    7.1962    3.0950    0.0000 C   0  0  0  0  0  0  0  0  0  0  0  0
    4.5981   -4.4050    0.0000 C   0  0  0  0  0  0  0  0  0  0  0  0
    9.7942    4.5950    0.0000 C   0  0  0  0  0  0  0  0  0  0  0  0
    5.4641    0.0950    0.0000 C   0  0  0  0  0  0  0  0  0  0  0  0
    6.3301    1.5950    0.0000 C   0  0  0  0  0  0  0  0  0  0  0  0
    8.9282    5.0950    0.0000 C   0  0  0  0  0  0  0  0  0  0  0  0
    5.4641   -3.9050    0.0000 C   0  0  0  0  0  0  0  0  0  0  0  0
    5.4641   -0.9050    0.0000 C   0  0  0  0  0  0  0  0  0  0  0  0
    7.1962    2.0950    0.0000 C   0  0  0  0  0  0  0  0  0  0  0  0
    2.0000   -3.9050    0.0000 C   0  0  0  0  0  0  0  0  0  0  0  0
   11.5263    3.5950    0.0000 C   0  0  0  0  0  0  0  0  0  0  0  0
    6.5422    0.0124    0.0000 H   0  0  0  0  0  0  0  0  0  0  0  0
    6.9407    0.7027    0.0000 H   0  0  0  0  0  0  0  0  0  0  0  0
    3.1951   -2.5950    0.0000 H   0  0  0  0  0  0  0  0  0  0  0  0
    8.9282    2.4750    0.0000 H   0  0  0  0  0  0  0  0  0  0  0  0
    6.0010   -2.5950    0.0000 H   0  0  0  0  0  0  0  0  0  0  0  0
    7.5252    4.9050    0.0000 H   0  0  0  0  0  0  0  0  0  0  0  0
    4.0611   -1.0950    0.0000 H   0  0  0  0  0  0  0  0  0  0  0  0
    6.6592    3.4050    0.0000 H   0  0  0  0  0  0  0  0  0  0  0  0
    6.0010   -4.2150    0.0000 H   0  0  0  0  0  0  0  0  0  0  0  0
    8.9282    5.7150    0.0000 H   0  0  0  0  0  0  0  0  0  0  0  0
    6.0010   -1.2150    0.0000 H   0  0  0  0  0  0  0  0  0  0  0  0
    7.7331    1.7850    0.0000 H   0  0  0  0  0  0  0  0  0  0  0  0
   10.6603    5.7150    0.0000 H   0  0  0  0  0  0  0  0  0  0  0  0
    5.1350   -5.7150    0.0000 H   0  0  0  0  0  0  0  0  0  0  0  0
    2.3100   -3.3681    0.0000 H   0  0  0  0  0  0  0  0  0  0  0  0
    1.4631   -3.5950    0.0000 H   0  0  0  0  0  0  0  0  0  0  0  0
   11.8363    3.0581    0.0000 H   0  0  0  0  0  0  0  0  0  0  0  0
   12.0632    3.9050    0.0000 H   0  0  0  0  0  0  0  0  0  0  0  0
   11.2163    4.1319    0.0000 H   0  0  0  0  0  0  0  0  0  0  0  0
    1.6900   -4.4419    0.0000 H   0  0  0  0  0  0  0  0  0  0  0  0
  1 13  1  0  0  0  0
  1 27  1  0  0  0  0
  2 12  1  0  0  0  0
  2 26  1  0  0  0  0
  3 19  1  0  0  0  0
  3 40  1  0  0  0  0
  4 18  1  0  0  0  0
  4 41  1  0  0  0  0
  5 21  2  0  0  0  0
  6 20  2  0  0  0  0
  7 10  2  0  0  0  0
  7 15  1  0  0  0  0
  7 16  1  0  0  0  0
  8 11  2  0  0  0  0
  8 14  1  0  0  0  0
  8 17  1  0  0  0  0
  9 20  1  0  0  0  0
  9 21  1  0  0  0  0
  9 28  1  0  0  0  0
  9 29  1  0  0  0  0
 10 12  1  0  0  0  0
 10 30  1  0  0  0  0
 11 13  1  0  0  0  0
 11 31  1  0  0  0  0
 12 18  2  0  0  0  0
 13 19  2  0  0  0  0
 14 22  2  0  0  0  0
 14 33  1  0  0  0  0
 15 23  2  0  0  0  0
 15 32  1  0  0  0  0
 16 24  2  0  0  0  0
 16 34  1  0  0  0  0
 17 25  2  0  0  0  0
 17 35  1  0  0  0  0
 18 23  1  0  0  0  0
 19 22  1  0  0  0  0
 20 24  1  0  0  0  0
 21 25  1  0  0  0  0
 22 37  1  0  0  0  0
 23 36  1  0  0  0  0
 24 38  1  0  0  0  0
 25 39  1  0  0  0  0
 26 42  1  0  0  0  0
 26 43  1  0  0  0  0
 26 47  1  0  0  0  0
 27 44  1  0  0  0  0
 27 45  1  0  0  0  0
 27 46  1  0  0  0  0
M  END
>  <PUBCHEM_COMPOUND_CID>
969516

>  <PUBCHEM_COMPOUND_CANONICALIZED>
1

>  <PUBCHEM_CACTVS_COMPLEXITY>
507

>  <PUBCHEM_CACTVS_HBOND_ACCEPTOR>
6

>  <PUBCHEM_CACTVS_HBOND_DONOR>
2

>  <PUBCHEM_CACTVS_ROTATABLE_BOND>
8

>  <PUBCHEM_CACTVS_SUBSKEYS>
AAADceB4OAAAAAAAAAAAAAAAAAAAAAAAAAAwYAAAAAAAAAABQAAAGgAACAAADASAmAIyBoAABgCIAqBSAAACCAAgIAAIiAEGiMgNJjKOMRqAcCMkwBELuYeAwBAOIAABAAAAQABAAAIAAACAAAAAAAAAAA==

>  <PUBCHEM_IUPAC_OPENEYE_NAME>
(1E,6E)-1,7-bis(4-hydroxy-3-methoxy-phenyl)hepta-1,6-diene-3,5-dione

>  <PUBCHEM_IUPAC_CAS_NAME>
(1E,6E)-1,7-bis(4-hydroxy-3-methoxyphenyl)hepta-1,6-diene-3,5-dione

>  <PUBCHEM_IUPAC_NAME>
(1E,6E)-1,7-bis(4-hydroxy-3-methoxyphenyl)hepta-1,6-diene-3,5-dione

>  <PUBCHEM_IUPAC_SYSTEMATIC_NAME>
(1E,6E)-1,7-bis(3-methoxy-4-oxidanyl-phenyl)hepta-1,6-diene-3,5-dione

>  <PUBCHEM_IUPAC_TRADITIONAL_NAME>
(1E,6E)-1,7-bis(4-hydroxy-3-methoxy-phenyl)hepta-1,6-diene-3,5-dione

>  <PUBCHEM_IUPAC_INCHI>
InChI=1S/C21H20O6/c1-26-20-11-14(5-9-18(20)24)3-7-16(22)13-17(23)8-4-15-6-10-19(25)21(12-15)27-2/h3-12,24-25H,13H2,1-2H3/b7-3+,8-4+

>  <PUBCHEM_IUPAC_INCHIKEY>
VFLDPWHFBUODDF-FCXRPNKRSA-N

>  <PUBCHEM_XLOGP3_AA>
3.2

>  <PUBCHEM_EXACT_MASS>
368.126

>  <PUBCHEM_MOLECULAR_FORMULA>
C21H20O6

>  <PUBCHEM_MOLECULAR_WEIGHT>
368.385

>  <PUBCHEM_OPENEYE_CAN_SMILES>
COC1=C(C=CC(=C1)C=CC(=O)CC(=O)C=CC2=CC(=C(C=C2)O)OC)O

>  <PUBCHEM_OPENEYE_ISO_SMILES>
COC1=C(C=CC(=C1)/C=C/C(=O)CC(=O)/C=C/C2=CC(=C(C=C2)O)OC)O

>  <PUBCHEM_CACTVS_TPSA>
93.1

>  <PUBCHEM_MONOISOTOPIC_WEIGHT>
368.126

>  <PUBCHEM_TOTAL_CHARGE>
0

>  <PUBCHEM_HEAVY_ATOM_COUNT>
27

>  <PUBCHEM_ATOM_DEF_STEREO_COUNT>
0

>  <PUBCHEM_ATOM_UDEF_STEREO_COUNT>
0

>  <PUBCHEM_BOND_DEF_STEREO_COUNT>
2

>  <PUBCHEM_BOND_UDEF_STEREO_COUNT>
0

>  <PUBCHEM_ISOTOPIC_ATOM_COUNT>
0

>  <PUBCHEM_COMPONENT_COUNT>
1

>  <PUBCHEM_CACTVS_TAUTO_COUNT>
51

>  <PUBCHEM_COORDINATE_TYPE>
1
5
255

>  <PUBCHEM_BONDANNOTATIONS>
10  12  8
11  13  8
12  18  8
13  19  8
14  22  8
15  23  8
18  23  8
19  22  8
7  10  8
7  15  8
8  11  8
8  14  8

$$$$
