97213
 OpenBabel06101807152D

 39 41  0  0  1  0  0  0  0  0999 V2000
    3.7281   -0.8009    0.0000 O   0  0  0  0  0  0  0  0  0  0  0  0
    5.5176   -1.4994    0.0000 O   0  0  0  0  0  0  0  0  0  0  0  0
    2.0000   -1.1846    0.0000 O   0  0  0  0  0  0  0  0  0  0  0  0
    6.9298   -2.5770    0.0000 O   0  0  0  0  0  0  0  0  0  0  0  0
    4.4807   -0.0807    0.0000 C   0  0  3  0  0  0  0  0  0  0  0  0
    4.2582    0.8942    0.0000 C   0  0  3  0  0  0  0  0  0  0  0  0
    5.3816   -0.5146    0.0000 C   0  0  3  0  0  0  0  0  0  0  0  0
    4.8816    1.6760    0.0000 C   0  0  3  0  0  0  0  0  0  0  0  0
    6.2826   -0.0807    0.0000 C   0  0  3  0  0  0  0  0  0  0  0  0
    5.8816    1.6760    0.0000 C   0  0  0  0  0  0  0  0  0  0  0  0
    6.5051    0.8942    0.0000 C   0  0  0  0  0  0  0  0  0  0  0  0
    3.2676    1.2165    0.0000 C   0  0  0  0  0  0  0  0  0  0  0  0
    4.7032   -1.0557    0.0000 C   0  0  0  0  0  0  0  0  0  0  0  0
    6.9677   -0.8010    0.0000 C   0  0  0  0  0  0  0  0  0  0  0  0
    2.4986    0.5139    0.0000 C   0  0  0  0  0  0  0  0  0  0  0  0
    4.4478    2.5770    0.0000 C   0  0  0  0  0  0  0  0  0  0  0  0
    2.7304   -0.5016    0.0000 C   0  0  0  0  0  0  0  0  0  0  0  0
    6.4959   -1.6760    0.0000 C   0  0  0  0  0  0  0  0  0  0  0  0
    7.9589   -0.6685    0.0000 C   0  0  0  0  0  0  0  0  0  0  0  0
    4.0800    1.4880    0.0000 H   0  0  0  0  0  0  0  0  0  0  0  0
    5.9280   -0.8077    0.0000 H   0  0  0  0  0  0  0  0  0  0  0  0
    5.2115    2.2010    0.0000 H   0  0  0  0  0  0  0  0  0  0  0  0
    6.8805    0.0834    0.0000 H   0  0  0  0  0  0  0  0  0  0  0  0
    6.4402    1.9450    0.0000 H   0  0  0  0  0  0  0  0  0  0  0  0
    5.7437    2.2805    0.0000 H   0  0  0  0  0  0  0  0  0  0  0  0
    7.0637    0.6252    0.0000 H   0  0  0  0  0  0  0  0  0  0  0  0
    6.8917    1.3789    0.0000 H   0  0  0  0  0  0  0  0  0  0  0  0
    3.5576    1.7646    0.0000 H   0  0  0  0  0  0  0  0  0  0  0  0
    2.7773    1.5959    0.0000 H   0  0  0  0  0  0  0  0  0  0  0  0
    4.0987   -1.1936    0.0000 H   0  0  0  0  0  0  0  0  0  0  0  0
    4.8412   -1.6601    0.0000 H   0  0  0  0  0  0  0  0  0  0  0  0
    5.3076   -0.9177    0.0000 H   0  0  0  0  0  0  0  0  0  0  0  0
    2.1649    1.0365    0.0000 H   0  0  0  0  0  0  0  0  0  0  0  0
    1.9267    0.2746    0.0000 H   0  0  0  0  0  0  0  0  0  0  0  0
    5.0064    2.8460    0.0000 H   0  0  0  0  0  0  0  0  0  0  0  0
    4.1788    3.1356    0.0000 H   0  0  0  0  0  0  0  0  0  0  0  0
    3.8892    2.3080    0.0000 H   0  0  0  0  0  0  0  0  0  0  0  0
    8.3373   -1.1596    0.0000 H   0  0  0  0  0  0  0  0  0  0  0  0
    8.1950   -0.0952    0.0000 H   0  0  0  0  0  0  0  0  0  0  0  0
  1  5  1  0  0  0  0
  1 17  1  0  0  0  0
  2  7  1  0  0  0  0
  2 18  1  0  0  0  0
  3 17  2  0  0  0  0
  4 18  2  0  0  0  0
  5  6  1  0  0  0  0
  5  7  1  0  0  0  0
  5 13  1  0  0  0  0
  6  8  1  0  0  0  0
  6 12  1  0  0  0  0
  6 20  1  0  0  0  0
  7  9  1  0  0  0  0
  7 21  1  0  0  0  0
  8 10  1  0  0  0  0
  8 16  1  0  0  0  0
  8 22  1  0  0  0  0
  9 11  1  0  0  0  0
  9 14  1  0  0  0  0
  9 23  1  0  0  0  0
 10 11  1  0  0  0  0
 10 24  1  0  0  0  0
 10 25  1  0  0  0  0
 11 26  1  0  0  0  0
 11 27  1  0  0  0  0
 12 15  1  0  0  0  0
 12 28  1  0  0  0  0
 12 29  1  0  0  0  0
 13 30  1  0  0  0  0
 13 31  1  0  0  0  0
 13 32  1  0  0  0  0
 14 18  1  0  0  0  0
 14 19  2  0  0  0  0
 15 17  1  0  0  0  0
 15 33  1  0  0  0  0
 15 34  1  0  0  0  0
 16 35  1  0  0  0  0
 16 36  1  0  0  0  0
 16 37  1  0  0  0  0
 19 38  1  0  0  0  0
 19 39  1  0  0  0  0
M  END
>  <PUBCHEM_COMPOUND_CID>
97213

>  <PUBCHEM_COMPOUND_CANONICALIZED>
1

>  <PUBCHEM_CACTVS_COMPLEXITY>
455

>  <PUBCHEM_CACTVS_HBOND_ACCEPTOR>
4

>  <PUBCHEM_CACTVS_HBOND_DONOR>
0

>  <PUBCHEM_CACTVS_ROTATABLE_BOND>
0

>  <PUBCHEM_CACTVS_SUBSKEYS>
AAADceBwOAAAAAAAAAAAAAAAAAAAASAAAAAkAAAABgAAAACQAAAAGgAAAAAADVSggAICCAAABACIAgDSCAAAAAAgAAAAAAEAAEgBBBIAIQACAAAEwAACIIGK7PzOgAAAAAAAAAAAAAAAAAAAAAAAAAAAAA==

>  <PUBCHEM_IUPAC_OPENEYE_NAME>
6,10a-dimethyl-3-methylene-3a,4,5,6,6a,7,8,10b-octahydrofuro[5,6]cyclohepta[5,7-c]pyran-2,9-dione

>  <PUBCHEM_IUPAC_CAS_NAME>
6,10a-dimethyl-3-methylene-3a,4,5,6,6a,7,8,10b-octahydrofuro[5,6]cyclohepta[5,7-c]pyran-2,9-dione

>  <PUBCHEM_IUPAC_NAME>
6,10a-dimethyl-3-methylidene-3a,4,5,6,6a,7,8,10b-octahydrofuro[5,6]cyclohepta[5,7-c]pyran-2,9-dione

>  <PUBCHEM_IUPAC_SYSTEMATIC_NAME>
6,10a-dimethyl-3-methylidene-3a,4,5,6,6a,7,8,10b-octahydrofuro[5,6]cyclohepta[5,7-c]pyran-2,9-dione

>  <PUBCHEM_IUPAC_TRADITIONAL_NAME>
6,10a-dimethyl-3-methylene-3a,4,5,6,6a,7,8,10b-octahydrofuro[5,6]cyclohepta[5,7-c]pyran-2,9-quinone

>  <PUBCHEM_IUPAC_INCHI>
InChI=1S/C15H20O4/c1-8-4-5-10-9(2)14(17)18-13(10)15(3)11(8)6-7-12(16)19-15/h8,10-11,13H,2,4-7H2,1,3H3

>  <PUBCHEM_IUPAC_INCHIKEY>
FZYIWDQVFMUXPW-UHFFFAOYSA-N

>  <PUBCHEM_XLOGP3_AA>
2.5

>  <PUBCHEM_EXACT_MASS>
264.136

>  <PUBCHEM_MOLECULAR_FORMULA>
C15H20O4

>  <PUBCHEM_MOLECULAR_WEIGHT>
264.321

>  <PUBCHEM_OPENEYE_CAN_SMILES>
CC1CCC2C(C3(C1CCC(=O)O3)C)OC(=O)C2=C

>  <PUBCHEM_OPENEYE_ISO_SMILES>
CC1CCC2C(C3(C1CCC(=O)O3)C)OC(=O)C2=C

>  <PUBCHEM_CACTVS_TPSA>
52.6

>  <PUBCHEM_MONOISOTOPIC_WEIGHT>
264.136

>  <PUBCHEM_TOTAL_CHARGE>
0

>  <PUBCHEM_HEAVY_ATOM_COUNT>
19

>  <PUBCHEM_ATOM_DEF_STEREO_COUNT>
0

>  <PUBCHEM_ATOM_UDEF_STEREO_COUNT>
5

>  <PUBCHEM_BOND_DEF_STEREO_COUNT>
0

>  <PUBCHEM_BOND_UDEF_STEREO_COUNT>
0

>  <PUBCHEM_ISOTOPIC_ATOM_COUNT>
0

>  <PUBCHEM_COMPONENT_COUNT>
1

>  <PUBCHEM_CACTVS_TAUTO_COUNT>
2

>  <PUBCHEM_COORDINATE_TYPE>
1
5
255

>  <PUBCHEM_BONDANNOTATIONS>
7  2  3
5  13  3
6  12  3
8  16  3
9  14  3

$$$$
