97622
 OpenBabel06101807152D

 34 38  0  0  0  0  0  0  0  0999 V2000
    6.4642    1.5420    0.0000 O   0  0  0  0  0  0  0  0  0  0  0  0
    6.4642    3.1514    0.0000 O   0  0  0  0  0  0  0  0  0  0  0  0
    2.0000   -0.1984    0.0000 O   0  0  0  0  0  0  0  0  0  0  0  0
    4.7052   -2.8500    0.0000 O   0  0  0  0  0  0  0  0  0  0  0  0
    2.0367    1.8681    0.0000 N   0  0  0  0  0  0  0  0  0  0  0  0
    4.6520    1.3467    0.0000 C   0  0  0  0  0  0  0  0  0  0  0  0
    3.7860    1.8467    0.0000 C   0  0  0  0  0  0  0  0  0  0  0  0
    4.6681    0.3052    0.0000 C   0  0  0  0  0  0  0  0  0  0  0  0
    5.5180    1.8467    0.0000 C   0  0  0  0  0  0  0  0  0  0  0  0
    3.7860    2.8467    0.0000 C   0  0  0  0  0  0  0  0  0  0  0  0
    2.8760    1.3398    0.0000 C   0  0  0  0  0  0  0  0  0  0  0  0
    3.7700   -0.2226    0.0000 C   0  0  0  0  0  0  0  0  0  0  0  0
    5.5180    2.8467    0.0000 C   0  0  0  0  0  0  0  0  0  0  0  0
    2.8680    0.2982    0.0000 C   0  0  0  0  0  0  0  0  0  0  0  0
    4.6520    3.3467    0.0000 C   0  0  0  0  0  0  0  0  0  0  0  0
    5.6200   -0.2154    0.0000 C   0  0  0  0  0  0  0  0  0  0  0  0
    2.9278    3.3436    0.0000 C   0  0  0  0  0  0  0  0  0  0  0  0
    3.7617   -1.3075    0.0000 C   0  0  0  0  0  0  0  0  0  0  0  0
    7.0479    2.3467    0.0000 C   0  0  0  0  0  0  0  0  0  0  0  0
    4.7013   -1.8500    0.0000 C   0  0  0  0  0  0  0  0  0  0  0  0
    5.6367   -1.3003    0.0000 C   0  0  0  0  0  0  0  0  0  0  0  0
    2.0623    2.8594    0.0000 C   0  0  0  0  0  0  0  0  0  0  0  0
    5.5731   -3.3467    0.0000 C   0  0  0  0  0  0  0  0  0  0  0  0
    4.6520    3.9667    0.0000 H   0  0  0  0  0  0  0  0  0  0  0  0
    6.1508    0.1048    0.0000 H   0  0  0  0  0  0  0  0  0  0  0  0
    2.9324    3.9636    0.0000 H   0  0  0  0  0  0  0  0  0  0  0  0
    3.2235   -1.6155    0.0000 H   0  0  0  0  0  0  0  0  0  0  0  0
    7.5087    1.9320    0.0000 H   0  0  0  0  0  0  0  0  0  0  0  0
    7.5087    2.7614    0.0000 H   0  0  0  0  0  0  0  0  0  0  0  0
    6.1772   -1.6041    0.0000 H   0  0  0  0  0  0  0  0  0  0  0  0
    1.5316    3.1800    0.0000 H   0  0  0  0  0  0  0  0  0  0  0  0
    5.2652   -3.8848    0.0000 H   0  0  0  0  0  0  0  0  0  0  0  0
    6.1112   -3.6546    0.0000 H   0  0  0  0  0  0  0  0  0  0  0  0
    5.8810   -2.8086    0.0000 H   0  0  0  0  0  0  0  0  0  0  0  0
  1  9  1  0  0  0  0
  1 19  1  0  0  0  0
  2 13  1  0  0  0  0
  2 19  1  0  0  0  0
  3 14  2  0  0  0  0
  4 20  1  0  0  0  0
  4 23  1  0  0  0  0
  5 11  2  0  0  0  0
  5 22  1  0  0  0  0
  6  7  2  0  0  0  0
  6  8  1  0  0  0  0
  6  9  1  0  0  0  0
  7 10  1  0  0  0  0
  7 11  1  0  0  0  0
  8 12  2  0  0  0  0
  8 16  1  0  0  0  0
  9 13  2  0  0  0  0
 10 15  2  0  0  0  0
 10 17  1  0  0  0  0
 11 14  1  0  0  0  0
 12 14  1  0  0  0  0
 12 18  1  0  0  0  0
 13 15  1  0  0  0  0
 15 24  1  0  0  0  0
 16 21  2  0  0  0  0
 16 25  1  0  0  0  0
 17 22  2  0  0  0  0
 17 26  1  0  0  0  0
 18 20  2  0  0  0  0
 18 27  1  0  0  0  0
 19 28  1  0  0  0  0
 19 29  1  0  0  0  0
 20 21  1  0  0  0  0
 21 30  1  0  0  0  0
 22 31  1  0  0  0  0
 23 32  1  0  0  0  0
 23 33  1  0  0  0  0
 23 34  1  0  0  0  0
M  END
>  <PUBCHEM_COMPOUND_CID>
97622

>  <PUBCHEM_COMPOUND_CANONICALIZED>
1

>  <PUBCHEM_CACTVS_COMPLEXITY>
497

>  <PUBCHEM_CACTVS_HBOND_ACCEPTOR>
5

>  <PUBCHEM_CACTVS_HBOND_DONOR>
0

>  <PUBCHEM_CACTVS_ROTATABLE_BOND>
1

>  <PUBCHEM_CACTVS_SUBSKEYS>
AAADccB6OAAAAAAAAAAAAAAAAAAAASAAAAA8YMEAAAAAAEjx9AAAHgAAAAAADAzBngc+jtIIFACoA7R3RACCiCA3IiAI2CG+7NgdJnLEtbukMSpkwBHO6Ye63PPOoAADAAAYQADQAAaAADSAAAAAAAAAAA==

>  <PUBCHEM_IUPAC_INCHI>
InChI=1S/C18H11NO4/c1-21-10-2-3-11-12(7-10)17(20)16-14-9(4-5-19-16)6-13-18(15(11)14)23-8-22-13/h2-7H,8H2,1H3

>  <PUBCHEM_IUPAC_INCHIKEY>
WLXLLQQGGGHOMA-UHFFFAOYSA-N

>  <PUBCHEM_XLOGP3_AA>
3.4

>  <PUBCHEM_EXACT_MASS>
305.069

>  <PUBCHEM_MOLECULAR_FORMULA>
C18H11NO4

>  <PUBCHEM_MOLECULAR_WEIGHT>
305.289

>  <PUBCHEM_OPENEYE_CAN_SMILES>
COC1=CC2=C(C=C1)C3=C4C(=CC5=C3OCO5)C=CN=C4C2=O

>  <PUBCHEM_OPENEYE_ISO_SMILES>
COC1=CC2=C(C=C1)C3=C4C(=CC5=C3OCO5)C=CN=C4C2=O

>  <PUBCHEM_CACTVS_TPSA>
57.6

>  <PUBCHEM_MONOISOTOPIC_WEIGHT>
305.069

>  <PUBCHEM_TOTAL_CHARGE>
0

>  <PUBCHEM_HEAVY_ATOM_COUNT>
23

>  <PUBCHEM_ATOM_DEF_STEREO_COUNT>
0

>  <PUBCHEM_ATOM_UDEF_STEREO_COUNT>
0

>  <PUBCHEM_BOND_DEF_STEREO_COUNT>
0

>  <PUBCHEM_BOND_UDEF_STEREO_COUNT>
0

>  <PUBCHEM_ISOTOPIC_ATOM_COUNT>
0

>  <PUBCHEM_COMPONENT_COUNT>
1

>  <PUBCHEM_CACTVS_TAUTO_COUNT>
1

>  <PUBCHEM_COORDINATE_TYPE>
1
5
255

>  <PUBCHEM_BONDANNOTATIONS>
10  15  8
10  17  8
12  18  8
13  15  8
16  21  8
17  22  8
18  20  8
20  21  8
5  11  8
5  22  8
6  7  8
6  9  8
7  10  8
7  11  8
8  12  8
8  16  8
9  13  8

$$$$
