97679
 OpenBabel06101807152D

 35 40  0  0  0  0  0  0  0  0999 V2000
    4.5732    3.5673    0.0000 O   0  0  0  0  0  0  0  0  0  0  0  0
    3.1278    4.4167    0.0000 O   0  0  0  0  0  0  0  0  0  0  0  0
    5.5740   -3.5278    0.0000 O   0  0  0  0  0  0  0  0  0  0  0  0
    4.0684   -4.4125    0.0000 O   0  0  0  0  0  0  0  0  0  0  0  0
    4.6501    0.3368    0.0000 N   0  0  0  0  0  0  0  0  0  0  0  0
    2.9180    0.3368    0.0000 C   0  0  0  0  0  0  0  0  0  0  0  0
    2.9180    1.3368    0.0000 C   0  0  0  0  0  0  0  0  0  0  0  0
    3.7841   -0.1632    0.0000 C   0  0  0  0  0  0  0  0  0  0  0  0
    3.8001   -1.2047    0.0000 C   0  0  0  0  0  0  0  0  0  0  0  0
    3.7841    1.8368    0.0000 C   0  0  0  0  0  0  0  0  0  0  0  0
    2.9021   -1.7324    0.0000 C   0  0  0  0  0  0  0  0  0  0  0  0
    3.8001    2.8783    0.0000 C   0  0  0  0  0  0  0  0  0  0  0  0
    2.0080   -0.1700    0.0000 C   0  0  0  0  0  0  0  0  0  0  0  0
    4.7520   -1.7253    0.0000 C   0  0  0  0  0  0  0  0  0  0  0  0
    2.0000   -1.2116    0.0000 C   0  0  0  0  0  0  0  0  0  0  0  0
    2.0080    1.8437    0.0000 C   0  0  0  0  0  0  0  0  0  0  0  0
    4.7688   -2.8102    0.0000 C   0  0  0  0  0  0  0  0  0  0  0  0
    2.9021    3.4061    0.0000 C   0  0  0  0  0  0  0  0  0  0  0  0
    2.8937   -2.8174    0.0000 C   0  0  0  0  0  0  0  0  0  0  0  0
    3.8334   -3.3599    0.0000 C   0  0  0  0  0  0  0  0  0  0  0  0
    4.6501    1.3368    0.0000 C   0  0  0  0  0  0  0  0  0  0  0  0
    2.0000    2.8853    0.0000 C   0  0  0  0  0  0  0  0  0  0  0  0
    4.1585    4.5161    0.0000 C   0  0  0  0  0  0  0  0  0  0  0  0
    5.1420   -4.5161    0.0000 C   0  0  0  0  0  0  0  0  0  0  0  0
    1.4747    0.1462    0.0000 H   0  0  0  0  0  0  0  0  0  0  0  0
    5.2829   -1.4050    0.0000 H   0  0  0  0  0  0  0  0  0  0  0  0
    1.4619   -1.5195    0.0000 H   0  0  0  0  0  0  0  0  0  0  0  0
    1.4747    1.5275    0.0000 H   0  0  0  0  0  0  0  0  0  0  0  0
    2.3556   -3.1253    0.0000 H   0  0  0  0  0  0  0  0  0  0  0  0
    5.1870    1.6468    0.0000 H   0  0  0  0  0  0  0  0  0  0  0  0
    1.4619    3.1932    0.0000 H   0  0  0  0  0  0  0  0  0  0  0  0
    4.7495    4.7033    0.0000 H   0  0  0  0  0  0  0  0  0  0  0  0
    4.0344    5.1235    0.0000 H   0  0  0  0  0  0  0  0  0  0  0  0
    5.0180   -5.1235    0.0000 H   0  0  0  0  0  0  0  0  0  0  0  0
    5.7331   -4.7033    0.0000 H   0  0  0  0  0  0  0  0  0  0  0  0
  1 12  1  0  0  0  0
  1 23  1  0  0  0  0
  2 18  1  0  0  0  0
  2 23  1  0  0  0  0
  3 17  1  0  0  0  0
  3 24  1  0  0  0  0
  4 20  1  0  0  0  0
  4 24  1  0  0  0  0
  5  8  2  0  0  0  0
  5 21  1  0  0  0  0
  6  7  2  0  0  0  0
  6  8  1  0  0  0  0
  6 13  1  0  0  0  0
  7 10  1  0  0  0  0
  7 16  1  0  0  0  0
  8  9  1  0  0  0  0
  9 11  1  0  0  0  0
  9 14  2  0  0  0  0
 10 12  1  0  0  0  0
 10 21  2  0  0  0  0
 11 15  1  0  0  0  0
 11 19  2  0  0  0  0
 12 18  2  0  0  0  0
 13 15  2  0  0  0  0
 13 25  1  0  0  0  0
 14 17  1  0  0  0  0
 14 26  1  0  0  0  0
 15 27  1  0  0  0  0
 16 22  2  0  0  0  0
 16 28  1  0  0  0  0
 17 20  2  0  0  0  0
 18 22  1  0  0  0  0
 19 20  1  0  0  0  0
 19 29  1  0  0  0  0
 21 30  1  0  0  0  0
 22 31  1  0  0  0  0
 23 32  1  0  0  0  0
 23 33  1  0  0  0  0
 24 34  1  0  0  0  0
 24 35  1  0  0  0  0
M  END
>  <PUBCHEM_COMPOUND_CID>
97679

>  <PUBCHEM_COMPOUND_CANONICALIZED>
1

>  <PUBCHEM_CACTVS_COMPLEXITY>
502

>  <PUBCHEM_CACTVS_HBOND_ACCEPTOR>
5

>  <PUBCHEM_CACTVS_HBOND_DONOR>
0

>  <PUBCHEM_CACTVS_ROTATABLE_BOND>
0

>  <PUBCHEM_CACTVS_SUBSKEYS>
AAADccB6OAAAAAAAAAAAAAAAAAAAASJAAAA8YMEAAAAAAEjx/AAAHgAAAAAADAzBngc8zvIIFACgAzRnRACCiCAxICAI2CAuzJgdJuLEsZukMCpmwBnO6Aew0PMO4AADQAAaQADAAAaAADSAAAAAAAAAAA==

>  <PUBCHEM_IUPAC_INCHI>
InChI=1S/C19H11NO4/c1-2-12-11-3-4-15-19(24-9-21-15)14(11)7-20-18(12)13-6-17-16(5-10(1)13)22-8-23-17/h1-7H,8-9H2

>  <PUBCHEM_IUPAC_INCHIKEY>
CNXVDVMAYXLWPD-UHFFFAOYSA-N

>  <PUBCHEM_XLOGP3_AA>
4.3

>  <PUBCHEM_EXACT_MASS>
317.069

>  <PUBCHEM_MOLECULAR_FORMULA>
C19H11NO4

>  <PUBCHEM_MOLECULAR_WEIGHT>
317.3

>  <PUBCHEM_OPENEYE_CAN_SMILES>
C1OC2=C(O1)C3=CN=C4C(=C3C=C2)C=CC5=CC6=C(C=C54)OCO6

>  <PUBCHEM_OPENEYE_ISO_SMILES>
C1OC2=C(O1)C3=CN=C4C(=C3C=C2)C=CC5=CC6=C(C=C54)OCO6

>  <PUBCHEM_CACTVS_TPSA>
49.8

>  <PUBCHEM_MONOISOTOPIC_WEIGHT>
317.069

>  <PUBCHEM_TOTAL_CHARGE>
0

>  <PUBCHEM_HEAVY_ATOM_COUNT>
24

>  <PUBCHEM_ATOM_DEF_STEREO_COUNT>
0

>  <PUBCHEM_ATOM_UDEF_STEREO_COUNT>
0

>  <PUBCHEM_BOND_DEF_STEREO_COUNT>
0

>  <PUBCHEM_BOND_UDEF_STEREO_COUNT>
0

>  <PUBCHEM_ISOTOPIC_ATOM_COUNT>
0

>  <PUBCHEM_COMPONENT_COUNT>
1

>  <PUBCHEM_CACTVS_TAUTO_COUNT>
1

>  <PUBCHEM_COORDINATE_TYPE>
1
5
255

>  <PUBCHEM_BONDANNOTATIONS>
10  12  8
10  21  8
11  15  8
11  19  8
12  18  8
13  15  8
14  17  8
16  22  8
17  20  8
18  22  8
19  20  8
5  21  8
5  8  8
6  13  8
6  7  8
6  8  8
7  10  8
7  16  8
8  9  8
9  11  8
9  14  8

$$$$
