9796282
 OpenBabel06101807152D

 40 43  0  0  1  0  0  0  0  0999 V2000
    6.3234   -0.0037    0.0000 O   0  0  0  0  0  0  0  0  0  0  0  0
    3.2547   -0.0037    0.0000 O   0  0  0  0  0  0  0  0  0  0  0  0
    6.9824   -4.6106    0.0000 O   0  0  0  0  0  0  0  0  0  0  0  0
    2.6064    4.6095    0.0000 O   0  0  0  0  0  0  0  0  0  0  0  0
    4.7936    0.4963    0.0000 C   0  0  3  0  0  0  0  0  0  0  0  0
    4.7936   -0.5037    0.0000 C   0  0  3  0  0  0  0  0  0  0  0  0
    5.7398   -0.8085    0.0000 C   0  0  3  0  0  0  0  0  0  0  0  0
    3.8425    0.8053    0.0000 C   0  0  3  0  0  0  0  0  0  0  0  0
    3.8425   -0.8128    0.0000 C   0  0  0  0  0  0  0  0  0  0  0  0
    5.7398    0.8010    0.0000 C   0  0  0  0  0  0  0  0  0  0  0  0
    3.5335    1.7563    0.0000 C   0  0  0  0  0  0  0  0  0  0  0  0
    6.0505   -1.7590    0.0000 C   0  0  0  0  0  0  0  0  0  0  0  0
    5.3826   -2.5033    0.0000 C   0  0  0  0  0  0  0  0  0  0  0  0
    4.2026    2.4995    0.0000 C   0  0  0  0  0  0  0  0  0  0  0  0
    7.0290   -1.9652    0.0000 C   0  0  0  0  0  0  0  0  0  0  0  0
    2.5553    1.9642    0.0000 C   0  0  0  0  0  0  0  0  0  0  0  0
    5.6933   -3.4538    0.0000 C   0  0  0  0  0  0  0  0  0  0  0  0
    3.8936    3.4505    0.0000 C   0  0  0  0  0  0  0  0  0  0  0  0
    7.3396   -2.9157    0.0000 C   0  0  0  0  0  0  0  0  0  0  0  0
    2.2463    2.9153    0.0000 C   0  0  0  0  0  0  0  0  0  0  0  0
    2.9155    3.6584    0.0000 C   0  0  0  0  0  0  0  0  0  0  0  0
    6.6718   -3.6600    0.0000 C   0  0  0  0  0  0  0  0  0  0  0  0
    4.7944   -1.1237    0.0000 H   0  0  0  0  0  0  0  0  0  0  0  0
    4.7944    1.1163    0.0000 H   0  0  0  0  0  0  0  0  0  0  0  0
    3.2302    0.9023    0.0000 H   0  0  0  0  0  0  0  0  0  0  0  0
    6.3523   -0.9047    0.0000 H   0  0  0  0  0  0  0  0  0  0  0  0
    3.3056   -1.1228    0.0000 H   0  0  0  0  0  0  0  0  0  0  0  0
    4.0947   -1.3792    0.0000 H   0  0  0  0  0  0  0  0  0  0  0  0
    6.2772    1.1102    0.0000 H   0  0  0  0  0  0  0  0  0  0  0  0
    5.4888    1.3679    0.0000 H   0  0  0  0  0  0  0  0  0  0  0  0
    4.7759   -2.3754    0.0000 H   0  0  0  0  0  0  0  0  0  0  0  0
    4.8091    2.3706    0.0000 H   0  0  0  0  0  0  0  0  0  0  0  0
    7.4430   -1.5037    0.0000 H   0  0  0  0  0  0  0  0  0  0  0  0
    2.1405    1.5035    0.0000 H   0  0  0  0  0  0  0  0  0  0  0  0
    4.3085    3.9113    0.0000 H   0  0  0  0  0  0  0  0  0  0  0  0
    5.2792   -3.9153    0.0000 H   0  0  0  0  0  0  0  0  0  0  0  0
    1.6399    3.0442    0.0000 H   0  0  0  0  0  0  0  0  0  0  0  0
    7.9463   -3.0436    0.0000 H   0  0  0  0  0  0  0  0  0  0  0  0
    7.5891   -4.7384    0.0000 H   0  0  0  0  0  0  0  0  0  0  0  0
    2.0000    4.7384    0.0000 H   0  0  0  0  0  0  0  0  0  0  0  0
  1  7  1  0  0  0  0
  1 10  1  0  0  0  0
  2  8  1  0  0  0  0
  2  9  1  0  0  0  0
  3 22  1  0  0  0  0
  3 39  1  0  0  0  0
  4 21  1  0  0  0  0
  4 40  1  0  0  0  0
  5  6  1  0  0  0  0
  5  8  1  0  0  0  0
  5 10  1  0  0  0  0
  5 24  1  0  0  0  0
  6  7  1  0  0  0  0
  6  9  1  0  0  0  0
  6 23  1  0  0  0  0
  7 12  1  0  0  0  0
  7 26  1  0  0  0  0
  8 11  1  0  0  0  0
  8 25  1  0  0  0  0
  9 27  1  0  0  0  0
  9 28  1  0  0  0  0
 10 29  1  0  0  0  0
 10 30  1  0  0  0  0
 11 14  2  0  0  0  0
 11 16  1  0  0  0  0
 12 13  2  0  0  0  0
 12 15  1  0  0  0  0
 13 17  1  0  0  0  0
 13 31  1  0  0  0  0
 14 18  1  0  0  0  0
 14 32  1  0  0  0  0
 15 19  2  0  0  0  0
 15 33  1  0  0  0  0
 16 20  2  0  0  0  0
 16 34  1  0  0  0  0
 17 22  2  0  0  0  0
 17 36  1  0  0  0  0
 18 21  2  0  0  0  0
 18 35  1  0  0  0  0
 19 22  1  0  0  0  0
 19 38  1  0  0  0  0
 20 21  1  0  0  0  0
 20 37  1  0  0  0  0
M  END
>  <PUBCHEM_COMPOUND_CID>
9796282

>  <PUBCHEM_COMPOUND_CANONICALIZED>
1

>  <PUBCHEM_CACTVS_COMPLEXITY>
335

>  <PUBCHEM_CACTVS_HBOND_ACCEPTOR>
4

>  <PUBCHEM_CACTVS_HBOND_DONOR>
2

>  <PUBCHEM_CACTVS_ROTATABLE_BOND>
2

>  <PUBCHEM_CACTVS_SUBSKEYS>
AAADceB4OAAAAAAAAAAAAAAAAAAAASJAAAAwYAAAAAASAAABQAAAGgAACAAADRSgmAIwBoAABgCAAiBCAAACAAAgIAAIiAAGCIgIJiKCMRqCcAAlwBEIuAfA4PwOoAAAAAAAAABAAAAAAAAAAAAAAAAAAA==

>  <PUBCHEM_IUPAC_OPENEYE_NAME>
4-[3-(4-hydroxyphenyl)-1,3,3a,4,6,6a-hexahydrofuro[3,4-c]furan-6-yl]phenol

>  <PUBCHEM_IUPAC_CAS_NAME>
4-[3-(4-hydroxyphenyl)-1,3,3a,4,6,6a-hexahydrofuro[3,4-c]furan-6-yl]phenol

>  <PUBCHEM_IUPAC_NAME>
4-[3-(4-hydroxyphenyl)-1,3,3a,4,6,6a-hexahydrofuro[3,4-c]furan-6-yl]phenol

>  <PUBCHEM_IUPAC_SYSTEMATIC_NAME>
4-[3-(4-hydroxyphenyl)-1,3,3a,4,6,6a-hexahydrofuro[3,4-c]furan-6-yl]phenol

>  <PUBCHEM_IUPAC_TRADITIONAL_NAME>
4-[3-(4-hydroxyphenyl)-1,3,3a,4,6,6a-hexahydrofuro[3,4-c]furan-6-yl]phenol

>  <PUBCHEM_IUPAC_INCHI>
InChI=1S/C18H18O4/c19-13-5-1-11(2-6-13)17-15-9-22-18(16(15)10-21-17)12-3-7-14(20)8-4-12/h1-8,15-20H,9-10H2

>  <PUBCHEM_IUPAC_INCHIKEY>
AYMLHOROIXAYPH-UHFFFAOYSA-N

>  <PUBCHEM_XLOGP3_AA>
2.3

>  <PUBCHEM_EXACT_MASS>
298.121

>  <PUBCHEM_MOLECULAR_FORMULA>
C18H18O4

>  <PUBCHEM_MOLECULAR_WEIGHT>
298.338

>  <PUBCHEM_OPENEYE_CAN_SMILES>
C1C2C(COC2C3=CC=C(C=C3)O)C(O1)C4=CC=C(C=C4)O

>  <PUBCHEM_OPENEYE_ISO_SMILES>
C1C2C(COC2C3=CC=C(C=C3)O)C(O1)C4=CC=C(C=C4)O

>  <PUBCHEM_CACTVS_TPSA>
58.9

>  <PUBCHEM_MONOISOTOPIC_WEIGHT>
298.121

>  <PUBCHEM_TOTAL_CHARGE>
0

>  <PUBCHEM_HEAVY_ATOM_COUNT>
22

>  <PUBCHEM_ATOM_DEF_STEREO_COUNT>
0

>  <PUBCHEM_ATOM_UDEF_STEREO_COUNT>
4

>  <PUBCHEM_BOND_DEF_STEREO_COUNT>
0

>  <PUBCHEM_BOND_UDEF_STEREO_COUNT>
0

>  <PUBCHEM_ISOTOPIC_ATOM_COUNT>
0

>  <PUBCHEM_COMPONENT_COUNT>
1

>  <PUBCHEM_CACTVS_TAUTO_COUNT>
3

>  <PUBCHEM_COORDINATE_TYPE>
1
5
255

>  <PUBCHEM_BONDANNOTATIONS>
11  14  8
11  16  8
12  13  8
12  15  8
13  17  8
14  18  8
15  19  8
16  20  8
17  22  8
18  21  8
19  22  8
20  21  8
5  10  3
6  9  3
7  12  3
8  11  3

$$$$
