9843255
 OpenBabel06101807152D

 48 50  0  0  0  0  0  0  0  0999 V2000
    6.3981   -0.2723    0.0000 O   0  0  0  0  0  0  0  0  0  0  0  0
    8.1301    1.7277    0.0000 O   0  0  0  0  0  0  0  0  0  0  0  0
    4.6497    2.7623    0.0000 O   0  0  0  0  0  0  0  0  0  0  0  0
    2.8680    1.7519    0.0000 O   0  0  0  0  0  0  0  0  0  0  0  0
    6.3981    2.7277    0.0000 O   0  0  0  0  0  0  0  0  0  0  0  0
    2.8680   -0.2964    0.0000 O   0  0  0  0  0  0  0  0  0  0  0  0
    8.9962   -2.7723    0.0000 O   0  0  0  0  0  0  0  0  0  0  0  0
   10.7282   -1.7723    0.0000 O   0  0  0  0  0  0  0  0  0  0  0  0
    5.5320    1.2277    0.0000 C   0  0  0  0  0  0  0  0  0  0  0  0
    5.5320    0.2277    0.0000 C   0  0  0  0  0  0  0  0  0  0  0  0
    7.2641    0.2277    0.0000 C   0  0  0  0  0  0  0  0  0  0  0  0
    7.2641    1.2277    0.0000 C   0  0  0  0  0  0  0  0  0  0  0  0
    4.6381    1.7624    0.0000 C   0  0  0  0  0  0  0  0  0  0  0  0
    6.3981    1.7277    0.0000 C   0  0  0  0  0  0  0  0  0  0  0  0
    8.1301   -0.2723    0.0000 C   0  0  0  0  0  0  0  0  0  0  0  0
    4.6381   -0.3069    0.0000 C   0  0  0  0  0  0  0  0  0  0  0  0
    3.7320    1.2485    0.0000 C   0  0  0  0  0  0  0  0  0  0  0  0
    3.7320    0.2069    0.0000 C   0  0  0  0  0  0  0  0  0  0  0  0
    8.1301   -1.2723    0.0000 C   0  0  0  0  0  0  0  0  0  0  0  0
    8.9962    0.2277    0.0000 C   0  0  0  0  0  0  0  0  0  0  0  0
    8.9962   -1.7723    0.0000 C   0  0  0  0  0  0  0  0  0  0  0  0
    9.8622   -1.2723    0.0000 C   0  0  0  0  0  0  0  0  0  0  0  0
    9.8622   -0.2723    0.0000 C   0  0  0  0  0  0  0  0  0  0  0  0
    8.1301    2.7277    0.0000 C   0  0  0  0  0  0  0  0  0  0  0  0
    3.7895    3.2723    0.0000 C   0  0  0  0  0  0  0  0  0  0  0  0
    2.0000    1.2552    0.0000 C   0  0  0  0  0  0  0  0  0  0  0  0
    9.8622   -3.2723    0.0000 C   0  0  0  0  0  0  0  0  0  0  0  0
   11.5942   -1.2723    0.0000 C   0  0  0  0  0  0  0  0  0  0  0  0
    4.6453   -0.9269    0.0000 H   0  0  0  0  0  0  0  0  0  0  0  0
    7.5932   -1.5823    0.0000 H   0  0  0  0  0  0  0  0  0  0  0  0
    8.9962    0.8477    0.0000 H   0  0  0  0  0  0  0  0  0  0  0  0
   10.3991    0.0377    0.0000 H   0  0  0  0  0  0  0  0  0  0  0  0
    2.8703   -0.9164    0.0000 H   0  0  0  0  0  0  0  0  0  0  0  0
    8.7501    2.7277    0.0000 H   0  0  0  0  0  0  0  0  0  0  0  0
    8.1301    3.3477    0.0000 H   0  0  0  0  0  0  0  0  0  0  0  0
    7.5101    2.7277    0.0000 H   0  0  0  0  0  0  0  0  0  0  0  0
    4.1057    3.8056    0.0000 H   0  0  0  0  0  0  0  0  0  0  0  0
    3.2562    3.5885    0.0000 H   0  0  0  0  0  0  0  0  0  0  0  0
    3.4733    2.7390    0.0000 H   0  0  0  0  0  0  0  0  0  0  0  0
    1.6921    1.7933    0.0000 H   0  0  0  0  0  0  0  0  0  0  0  0
    1.4619    0.9473    0.0000 H   0  0  0  0  0  0  0  0  0  0  0  0
    2.3079    0.7171    0.0000 H   0  0  0  0  0  0  0  0  0  0  0  0
    9.5522   -3.8092    0.0000 H   0  0  0  0  0  0  0  0  0  0  0  0
   10.3991   -3.5823    0.0000 H   0  0  0  0  0  0  0  0  0  0  0  0
   10.1722   -2.7354    0.0000 H   0  0  0  0  0  0  0  0  0  0  0  0
   11.9042   -1.8092    0.0000 H   0  0  0  0  0  0  0  0  0  0  0  0
   12.1312   -0.9623    0.0000 H   0  0  0  0  0  0  0  0  0  0  0  0
   11.2842   -0.7354    0.0000 H   0  0  0  0  0  0  0  0  0  0  0  0
  1 10  1  0  0  0  0
  1 11  1  0  0  0  0
  2 12  1  0  0  0  0
  2 24  1  0  0  0  0
  3 13  1  0  0  0  0
  3 25  1  0  0  0  0
  4 17  1  0  0  0  0
  4 26  1  0  0  0  0
  5 14  2  0  0  0  0
  6 18  1  0  0  0  0
  6 33  1  0  0  0  0
  7 21  1  0  0  0  0
  7 27  1  0  0  0  0
  8 22  1  0  0  0  0
  8 28  1  0  0  0  0
  9 10  2  0  0  0  0
  9 13  1  0  0  0  0
  9 14  1  0  0  0  0
 10 16  1  0  0  0  0
 11 12  2  0  0  0  0
 11 15  1  0  0  0  0
 12 14  1  0  0  0  0
 13 17  2  0  0  0  0
 15 19  2  0  0  0  0
 15 20  1  0  0  0  0
 16 18  2  0  0  0  0
 16 29  1  0  0  0  0
 17 18  1  0  0  0  0
 19 21  1  0  0  0  0
 19 30  1  0  0  0  0
 20 23  2  0  0  0  0
 20 31  1  0  0  0  0
 21 22  2  0  0  0  0
 22 23  1  0  0  0  0
 23 32  1  0  0  0  0
 24 34  1  0  0  0  0
 24 35  1  0  0  0  0
 24 36  1  0  0  0  0
 25 37  1  0  0  0  0
 25 38  1  0  0  0  0
 25 39  1  0  0  0  0
 26 40  1  0  0  0  0
 26 41  1  0  0  0  0
 26 42  1  0  0  0  0
 27 43  1  0  0  0  0
 27 44  1  0  0  0  0
 27 45  1  0  0  0  0
 28 46  1  0  0  0  0
 28 47  1  0  0  0  0
 28 48  1  0  0  0  0
M  END
>  <PUBCHEM_COMPOUND_CID>
9843255

>  <PUBCHEM_COMPOUND_CANONICALIZED>
1

>  <PUBCHEM_CACTVS_COMPLEXITY>
591

>  <PUBCHEM_CACTVS_HBOND_ACCEPTOR>
8

>  <PUBCHEM_CACTVS_HBOND_DONOR>
1

>  <PUBCHEM_CACTVS_ROTATABLE_BOND>
6

>  <PUBCHEM_CACTVS_SUBSKEYS>
AAADceB4PAAAAAAAAAAAAAAAAAAAAAAAAAAwYIAAAAAAAACBQAAAGgAACAAADASAmAIyBoAABgCIAqBSAAICCAAkIAAIiAFGiMgNJzaGNR6CeWOl4BULuQfK7LzOIQABCAAIQABCAAIQABCAAAAAAAAAAA==

>  <PUBCHEM_IUPAC_OPENEYE_NAME>
2-(3,4-dimethoxyphenyl)-7-hydroxy-3,5,6-trimethoxy-chromen-4-one

>  <PUBCHEM_IUPAC_CAS_NAME>
2-(3,4-dimethoxyphenyl)-7-hydroxy-3,5,6-trimethoxy-1-benzopyran-4-one

>  <PUBCHEM_IUPAC_NAME>
2-(3,4-dimethoxyphenyl)-7-hydroxy-3,5,6-trimethoxychromen-4-one

>  <PUBCHEM_IUPAC_SYSTEMATIC_NAME>
2-(3,4-dimethoxyphenyl)-3,5,6-trimethoxy-7-oxidanyl-chromen-4-one

>  <PUBCHEM_IUPAC_TRADITIONAL_NAME>
2-(3,4-dimethoxyphenyl)-7-hydroxy-3,5,6-trimethoxy-chromone

>  <PUBCHEM_IUPAC_INCHI>
InChI=1S/C20H20O8/c1-23-12-7-6-10(8-13(12)24-2)17-20(27-5)16(22)15-14(28-17)9-11(21)18(25-3)19(15)26-4/h6-9,21H,1-5H3

>  <PUBCHEM_IUPAC_INCHIKEY>
DFMQEEUDLFLPFL-UHFFFAOYSA-N

>  <PUBCHEM_XLOGP3_AA>
2.9

>  <PUBCHEM_EXACT_MASS>
388.116

>  <PUBCHEM_MOLECULAR_FORMULA>
C20H20O8

>  <PUBCHEM_MOLECULAR_WEIGHT>
388.372

>  <PUBCHEM_OPENEYE_CAN_SMILES>
COC1=C(C=C(C=C1)C2=C(C(=O)C3=C(C(=C(C=C3O2)O)OC)OC)OC)OC

>  <PUBCHEM_OPENEYE_ISO_SMILES>
COC1=C(C=C(C=C1)C2=C(C(=O)C3=C(C(=C(C=C3O2)O)OC)OC)OC)OC

>  <PUBCHEM_CACTVS_TPSA>
92.7

>  <PUBCHEM_MONOISOTOPIC_WEIGHT>
388.116

>  <PUBCHEM_TOTAL_CHARGE>
0

>  <PUBCHEM_HEAVY_ATOM_COUNT>
28

>  <PUBCHEM_ATOM_DEF_STEREO_COUNT>
0

>  <PUBCHEM_ATOM_UDEF_STEREO_COUNT>
0

>  <PUBCHEM_BOND_DEF_STEREO_COUNT>
0

>  <PUBCHEM_BOND_UDEF_STEREO_COUNT>
0

>  <PUBCHEM_ISOTOPIC_ATOM_COUNT>
0

>  <PUBCHEM_COMPONENT_COUNT>
1

>  <PUBCHEM_CACTVS_TAUTO_COUNT>
5

>  <PUBCHEM_COORDINATE_TYPE>
1
5
255

>  <PUBCHEM_BONDANNOTATIONS>
1  10  8
1  11  8
10  16  8
11  12  8
12  14  8
13  17  8
15  19  8
15  20  8
16  18  8
17  18  8
19  21  8
20  23  8
21  22  8
22  23  8
9  10  8
9  13  8
9  14  8

$$$$
