98497
 OpenBabel06101807152D

 27 27  0  0  1  0  0  0  0  0999 V2000
    2.0000   -0.2662    0.0000 O   0  0  0  0  0  0  0  0  0  0  0  0
    5.4543    0.3727    0.0000 C   0  0  0  0  0  0  0  0  0  0  0  0
    4.6453   -0.2151    0.0000 C   0  0  3  0  0  0  0  0  0  0  0  0
    4.9543   -1.1662    0.0000 C   0  0  0  0  0  0  0  0  0  0  0  0
    6.2633   -0.2151    0.0000 C   0  0  0  0  0  0  0  0  0  0  0  0
    5.9543   -1.1662    0.0000 C   0  0  0  0  0  0  0  0  0  0  0  0
    3.6942    0.0939    0.0000 C   0  0  0  0  0  0  0  0  0  0  0  0
    6.0421    1.1817    0.0000 C   0  0  0  0  0  0  0  0  0  0  0  0
    4.8665    1.1817    0.0000 C   0  0  0  0  0  0  0  0  0  0  0  0
    7.2144    0.0939    0.0000 C   0  0  0  0  0  0  0  0  0  0  0  0
    2.9511   -0.5752    0.0000 C   0  0  0  0  0  0  0  0  0  0  0  0
    4.5483    0.3972    0.0000 H   0  0  0  0  0  0  0  0  0  0  0  0
    4.3478   -1.2951    0.0000 H   0  0  0  0  0  0  0  0  0  0  0  0
    5.0191   -1.7828    0.0000 H   0  0  0  0  0  0  0  0  0  0  0  0
    6.3187   -1.6678    0.0000 H   0  0  0  0  0  0  0  0  0  0  0  0
    3.9853    0.6413    0.0000 H   0  0  0  0  0  0  0  0  0  0  0  0
    3.2056    0.4756    0.0000 H   0  0  0  0  0  0  0  0  0  0  0  0
    6.5437    0.8173    0.0000 H   0  0  0  0  0  0  0  0  0  0  0  0
    6.4065    1.6833    0.0000 H   0  0  0  0  0  0  0  0  0  0  0  0
    5.5405    1.5461    0.0000 H   0  0  0  0  0  0  0  0  0  0  0  0
    5.3681    1.5461    0.0000 H   0  0  0  0  0  0  0  0  0  0  0  0
    4.5021    1.6833    0.0000 H   0  0  0  0  0  0  0  0  0  0  0  0
    4.3649    0.8173    0.0000 H   0  0  0  0  0  0  0  0  0  0  0  0
    7.4059   -0.4958    0.0000 H   0  0  0  0  0  0  0  0  0  0  0  0
    7.8040    0.2855    0.0000 H   0  0  0  0  0  0  0  0  0  0  0  0
    7.0228    0.6836    0.0000 H   0  0  0  0  0  0  0  0  0  0  0  0
    3.0800   -1.1817    0.0000 H   0  0  0  0  0  0  0  0  0  0  0  0
  1 11  2  0  0  0  0
  2  3  1  0  0  0  0
  2  5  1  0  0  0  0
  2  8  1  0  0  0  0
  2  9  1  0  0  0  0
  3  4  1  0  0  0  0
  3  7  1  0  0  0  0
  3 12  1  0  0  0  0
  4  6  1  0  0  0  0
  4 13  1  0  0  0  0
  4 14  1  0  0  0  0
  5  6  2  0  0  0  0
  5 10  1  0  0  0  0
  6 15  1  0  0  0  0
  7 11  1  0  0  0  0
  7 16  1  0  0  0  0
  7 17  1  0  0  0  0
  8 18  1  0  0  0  0
  8 19  1  0  0  0  0
  8 20  1  0  0  0  0
  9 21  1  0  0  0  0
  9 22  1  0  0  0  0
  9 23  1  0  0  0  0
 10 24  1  0  0  0  0
 10 25  1  0  0  0  0
 10 26  1  0  0  0  0
 11 27  1  0  0  0  0
M  END
>  <PUBCHEM_COMPOUND_CID>
98497

>  <PUBCHEM_COMPOUND_CANONICALIZED>
1

>  <PUBCHEM_CACTVS_COMPLEXITY>
189

>  <PUBCHEM_CACTVS_HBOND_ACCEPTOR>
1

>  <PUBCHEM_CACTVS_HBOND_DONOR>
0

>  <PUBCHEM_CACTVS_ROTATABLE_BOND>
2

>  <PUBCHEM_CACTVS_SUBSKEYS>
AAADceBwIAAAAAAAAAAAAAAAAAAAAQAAAAAAAAAAAAAAAAAAAAAAGgAAAAAADwCggAICAAAAAACIAihSgAAAAAAgAAAACAEAAAgAABIAAQAAAAAAgAAIAAMICAAPgAAAAAAAAAAAAAAAAAAAAAAAAAAAAA==

>  <PUBCHEM_IUPAC_OPENEYE_NAME>
2-(2,2,3-trimethylcyclopent-3-en-1-yl)acetaldehyde

>  <PUBCHEM_IUPAC_CAS_NAME>
2-(2,2,3-trimethyl-1-cyclopent-3-enyl)acetaldehyde

>  <PUBCHEM_IUPAC_NAME>
2-(2,2,3-trimethylcyclopent-3-en-1-yl)acetaldehyde

>  <PUBCHEM_IUPAC_SYSTEMATIC_NAME>
2-(2,2,3-trimethylcyclopent-3-en-1-yl)ethanal

>  <PUBCHEM_IUPAC_TRADITIONAL_NAME>
2-(2,2,3-trimethylcyclopent-3-en-1-yl)acetaldehyde

>  <PUBCHEM_IUPAC_INCHI>
InChI=1S/C10H16O/c1-8-4-5-9(6-7-11)10(8,2)3/h4,7,9H,5-6H2,1-3H3

>  <PUBCHEM_IUPAC_INCHIKEY>
OGCGGWYLHSJRFY-UHFFFAOYSA-N

>  <PUBCHEM_XLOGP3_AA>
1.9

>  <PUBCHEM_EXACT_MASS>
152.12

>  <PUBCHEM_MOLECULAR_FORMULA>
C10H16O

>  <PUBCHEM_MOLECULAR_WEIGHT>
152.237

>  <PUBCHEM_OPENEYE_CAN_SMILES>
CC1=CCC(C1(C)C)CC=O

>  <PUBCHEM_OPENEYE_ISO_SMILES>
CC1=CCC(C1(C)C)CC=O

>  <PUBCHEM_CACTVS_TPSA>
17.1

>  <PUBCHEM_MONOISOTOPIC_WEIGHT>
152.12

>  <PUBCHEM_TOTAL_CHARGE>
0

>  <PUBCHEM_HEAVY_ATOM_COUNT>
11

>  <PUBCHEM_ATOM_DEF_STEREO_COUNT>
0

>  <PUBCHEM_ATOM_UDEF_STEREO_COUNT>
1

>  <PUBCHEM_BOND_DEF_STEREO_COUNT>
0

>  <PUBCHEM_BOND_UDEF_STEREO_COUNT>
0

>  <PUBCHEM_ISOTOPIC_ATOM_COUNT>
0

>  <PUBCHEM_COMPONENT_COUNT>
1

>  <PUBCHEM_CACTVS_TAUTO_COUNT>
2

>  <PUBCHEM_COORDINATE_TYPE>
1
5
255

>  <PUBCHEM_BONDANNOTATIONS>
3  7  3

$$$$
