9854614
 OpenBabel06101807152D

 69 70  0  0  1  0  0  0  0  0999 V2000
    6.0682   -2.7638    0.0000 O   0  0  0  0  0  0  0  0  0  0  0  0
    2.5381   -0.7396    0.0000 O   0  0  0  0  0  0  0  0  0  0  0  0
    6.9343   -2.2638    0.0000 C   0  0  3  0  0  0  0  0  0  0  0  0
    6.9343   -1.2638    0.0000 C   0  0  0  0  0  0  0  0  0  0  0  0
    7.9343   -2.2638    0.0000 C   0  0  0  0  0  0  0  0  0  0  0  0
    6.0682   -0.7638    0.0000 C   0  0  0  0  0  0  0  0  0  0  0  0
    7.4343   -3.1298    0.0000 C   0  0  0  0  0  0  0  0  0  0  0  0
    5.2022   -1.2638    0.0000 C   0  0  0  0  0  0  0  0  0  0  0  0
    5.2022   -2.2638    0.0000 C   0  0  0  0  0  0  0  0  0  0  0  0
    8.4343   -1.3978    0.0000 C   0  0  0  0  0  0  0  0  0  0  0  0
    4.3083   -2.7984    0.0000 C   0  0  0  0  0  0  0  0  0  0  0  0
    4.3083   -0.7291    0.0000 C   0  0  0  0  0  0  0  0  0  0  0  0
    9.4343   -1.3978    0.0000 C   0  0  0  0  0  0  0  0  0  0  0  0
    3.4022   -2.2846    0.0000 C   0  0  0  0  0  0  0  0  0  0  0  0
    3.4022   -1.2430    0.0000 C   0  0  0  0  0  0  0  0  0  0  0  0
    9.9343   -0.5317    0.0000 C   0  0  0  0  0  0  0  0  0  0  0  0
    4.3198   -3.7984    0.0000 C   0  0  0  0  0  0  0  0  0  0  0  0
   10.9343   -0.5317    0.0000 C   0  0  0  0  0  0  0  0  0  0  0  0
   11.4343    0.3343    0.0000 C   0  0  0  0  0  0  0  0  0  0  0  0
    9.4343    0.3343    0.0000 C   0  0  0  0  0  0  0  0  0  0  0  0
   12.4343    0.3343    0.0000 C   0  0  0  0  0  0  0  0  0  0  0  0
   12.9343    1.2003    0.0000 C   0  0  0  0  0  0  0  0  0  0  0  0
   13.9343    1.2003    0.0000 C   0  0  0  0  0  0  0  0  0  0  0  0
   14.4343    2.0663    0.0000 C   0  0  0  0  0  0  0  0  0  0  0  0
   12.4343    2.0663    0.0000 C   0  0  0  0  0  0  0  0  0  0  0  0
   15.4343    2.0663    0.0000 C   0  0  0  0  0  0  0  0  0  0  0  0
   15.9343    2.9324    0.0000 C   0  0  0  0  0  0  0  0  0  0  0  0
   16.9343    2.9324    0.0000 C   0  0  0  0  0  0  0  0  0  0  0  0
   15.4343    3.7984    0.0000 C   0  0  0  0  0  0  0  0  0  0  0  0
    7.5449   -1.3714    0.0000 H   0  0  0  0  0  0  0  0  0  0  0  0
    7.1463   -0.6812    0.0000 H   0  0  0  0  0  0  0  0  0  0  0  0
    7.8266   -2.8744    0.0000 H   0  0  0  0  0  0  0  0  0  0  0  0
    8.5169   -2.4758    0.0000 H   0  0  0  0  0  0  0  0  0  0  0  0
    6.4668   -0.2888    0.0000 H   0  0  0  0  0  0  0  0  0  0  0  0
    5.6697   -0.2888    0.0000 H   0  0  0  0  0  0  0  0  0  0  0  0
    6.8973   -3.4398    0.0000 H   0  0  0  0  0  0  0  0  0  0  0  0
    7.7443   -3.6668    0.0000 H   0  0  0  0  0  0  0  0  0  0  0  0
    7.9712   -2.8198    0.0000 H   0  0  0  0  0  0  0  0  0  0  0  0
    8.5419   -0.7872    0.0000 H   0  0  0  0  0  0  0  0  0  0  0  0
    7.8517   -1.1857    0.0000 H   0  0  0  0  0  0  0  0  0  0  0  0
    4.3154   -0.1092    0.0000 H   0  0  0  0  0  0  0  0  0  0  0  0
    9.7443   -1.9347    0.0000 H   0  0  0  0  0  0  0  0  0  0  0  0
    2.8665   -2.5967    0.0000 H   0  0  0  0  0  0  0  0  0  0  0  0
    3.6999   -3.8056    0.0000 H   0  0  0  0  0  0  0  0  0  0  0  0
    4.3270   -4.4183    0.0000 H   0  0  0  0  0  0  0  0  0  0  0  0
    4.9398   -3.7912    0.0000 H   0  0  0  0  0  0  0  0  0  0  0  0
   10.8266   -1.1423    0.0000 H   0  0  0  0  0  0  0  0  0  0  0  0
   11.5169   -0.7438    0.0000 H   0  0  0  0  0  0  0  0  0  0  0  0
   11.5419    0.9449    0.0000 H   0  0  0  0  0  0  0  0  0  0  0  0
   10.8517    0.5463    0.0000 H   0  0  0  0  0  0  0  0  0  0  0  0
    9.9712    0.6443    0.0000 H   0  0  0  0  0  0  0  0  0  0  0  0
    9.1243    0.8712    0.0000 H   0  0  0  0  0  0  0  0  0  0  0  0
    8.8973    0.0243    0.0000 H   0  0  0  0  0  0  0  0  0  0  0  0
    2.0000   -1.0476    0.0000 H   0  0  0  0  0  0  0  0  0  0  0  0
   12.7443   -0.2027    0.0000 H   0  0  0  0  0  0  0  0  0  0  0  0
   13.8266    0.5897    0.0000 H   0  0  0  0  0  0  0  0  0  0  0  0
   14.5169    0.9883    0.0000 H   0  0  0  0  0  0  0  0  0  0  0  0
   14.5419    2.6769    0.0000 H   0  0  0  0  0  0  0  0  0  0  0  0
   13.8517    2.2784    0.0000 H   0  0  0  0  0  0  0  0  0  0  0  0
   12.9712    2.3763    0.0000 H   0  0  0  0  0  0  0  0  0  0  0  0
   12.1243    2.6033    0.0000 H   0  0  0  0  0  0  0  0  0  0  0  0
   11.8973    1.7563    0.0000 H   0  0  0  0  0  0  0  0  0  0  0  0
   15.7443    1.5294    0.0000 H   0  0  0  0  0  0  0  0  0  0  0  0
   15.9712    4.1084    0.0000 H   0  0  0  0  0  0  0  0  0  0  0  0
   15.1243    4.3353    0.0000 H   0  0  0  0  0  0  0  0  0  0  0  0
   14.8973    3.4884    0.0000 H   0  0  0  0  0  0  0  0  0  0  0  0
   16.9343    2.3124    0.0000 H   0  0  0  0  0  0  0  0  0  0  0  0
   17.5543    2.9324    0.0000 H   0  0  0  0  0  0  0  0  0  0  0  0
   16.9343    3.5524    0.0000 H   0  0  0  0  0  0  0  0  0  0  0  0
  1  3  1  0  0  0  0
  1  9  1  0  0  0  0
  2 15  1  0  0  0  0
  2 54  1  0  0  0  0
  3  4  1  0  0  0  0
  3  5  1  0  0  0  0
  3  7  1  0  0  0  0
  4  6  1  0  0  0  0
  4 30  1  0  0  0  0
  4 31  1  0  0  0  0
  5 10  1  0  0  0  0
  5 32  1  0  0  0  0
  5 33  1  0  0  0  0
  6  8  1  0  0  0  0
  6 34  1  0  0  0  0
  6 35  1  0  0  0  0
  7 36  1  0  0  0  0
  7 37  1  0  0  0  0
  7 38  1  0  0  0  0
  8  9  2  0  0  0  0
  8 12  1  0  0  0  0
  9 11  1  0  0  0  0
 10 13  1  0  0  0  0
 10 39  1  0  0  0  0
 10 40  1  0  0  0  0
 11 14  2  0  0  0  0
 11 17  1  0  0  0  0
 12 15  2  0  0  0  0
 12 41  1  0  0  0  0
 13 16  2  0  0  0  0
 13 42  1  0  0  0  0
 14 15  1  0  0  0  0
 14 43  1  0  0  0  0
 16 18  1  0  0  0  0
 16 20  1  0  0  0  0
 17 44  1  0  0  0  0
 17 45  1  0  0  0  0
 17 46  1  0  0  0  0
 18 19  1  0  0  0  0
 18 47  1  0  0  0  0
 18 48  1  0  0  0  0
 19 21  1  0  0  0  0
 19 49  1  0  0  0  0
 19 50  1  0  0  0  0
 20 51  1  0  0  0  0
 20 52  1  0  0  0  0
 20 53  1  0  0  0  0
 21 22  2  0  0  0  0
 21 55  1  0  0  0  0
 22 23  1  0  0  0  0
 22 25  1  0  0  0  0
 23 24  1  0  0  0  0
 23 56  1  0  0  0  0
 23 57  1  0  0  0  0
 24 26  1  0  0  0  0
 24 58  1  0  0  0  0
 24 59  1  0  0  0  0
 25 60  1  0  0  0  0
 25 61  1  0  0  0  0
 25 62  1  0  0  0  0
 26 27  2  0  0  0  0
 26 63  1  0  0  0  0
 27 28  1  0  0  0  0
 27 29  1  0  0  0  0
 28 67  1  0  0  0  0
 28 68  1  0  0  0  0
 28 69  1  0  0  0  0
 29 64  1  0  0  0  0
 29 65  1  0  0  0  0
 29 66  1  0  0  0  0
M  END
>  <PUBCHEM_COMPOUND_CID>
9854614

>  <PUBCHEM_COMPOUND_CANONICALIZED>
1

>  <PUBCHEM_CACTVS_COMPLEXITY>
596

>  <PUBCHEM_CACTVS_HBOND_ACCEPTOR>
2

>  <PUBCHEM_CACTVS_HBOND_DONOR>
1

>  <PUBCHEM_CACTVS_ROTATABLE_BOND>
9

>  <PUBCHEM_CACTVS_SUBSKEYS>
AAADcfB4MAAAAAAAAAAAAAAAAAAAAAAAAAA0QAAAAAAAAACRAAAAGgAACAAADESAmAAyBoAABgCAAiBCAAACCAAgIAAAiAAGCIgMJiKGMRqCeCCkwBEIuAfAwPAOAQADAAAIAAACAAYAABAAAAAAAAAAAA==

>  <PUBCHEM_IUPAC_OPENEYE_NAME>
2,8-dimethyl-2-[(3E,7E)-4,8,12-trimethyltrideca-3,7,11-trienyl]chroman-6-ol

>  <PUBCHEM_IUPAC_CAS_NAME>
2,8-dimethyl-2-[(3E,7E)-4,8,12-trimethyltrideca-3,7,11-trienyl]-3,4-dihydro-2H-1-benzopyran-6-ol

>  <PUBCHEM_IUPAC_NAME>
2,8-dimethyl-2-[(3E,7E)-4,8,12-trimethyltrideca-3,7,11-trienyl]-3,4-dihydrochromen-6-ol

>  <PUBCHEM_IUPAC_SYSTEMATIC_NAME>
2,8-dimethyl-2-[(3E,7E)-4,8,12-trimethyltrideca-3,7,11-trienyl]-3,4-dihydrochromen-6-ol

>  <PUBCHEM_IUPAC_TRADITIONAL_NAME>
2,8-dimethyl-2-[(3E,7E)-4,8,12-trimethyltrideca-3,7,11-trienyl]chroman-6-ol

>  <PUBCHEM_IUPAC_INCHI>
InChI=1S/C27H40O2/c1-20(2)10-7-11-21(3)12-8-13-22(4)14-9-16-27(6)17-15-24-19-25(28)18-23(5)26(24)29-27/h10,12,14,18-19,28H,7-9,11,13,15-17H2,1-6H3/b21-12+,22-14+

>  <PUBCHEM_IUPAC_INCHIKEY>
ODADKLYLWWCHNB-QRCIITMISA-N

>  <PUBCHEM_XLOGP3_AA>
8.6

>  <PUBCHEM_EXACT_MASS>
396.303

>  <PUBCHEM_MOLECULAR_FORMULA>
C27H40O2

>  <PUBCHEM_MOLECULAR_WEIGHT>
396.615

>  <PUBCHEM_OPENEYE_CAN_SMILES>
CC1=C2C(=CC(=C1)O)CCC(O2)(C)CCC=C(C)CCC=C(C)CCC=C(C)C

>  <PUBCHEM_OPENEYE_ISO_SMILES>
CC1=C2C(=CC(=C1)O)CCC(O2)(C)CC/C=C(\C)/CC/C=C(\C)/CCC=C(C)C

>  <PUBCHEM_CACTVS_TPSA>
29.5

>  <PUBCHEM_MONOISOTOPIC_WEIGHT>
396.303

>  <PUBCHEM_TOTAL_CHARGE>
0

>  <PUBCHEM_HEAVY_ATOM_COUNT>
29

>  <PUBCHEM_ATOM_DEF_STEREO_COUNT>
0

>  <PUBCHEM_ATOM_UDEF_STEREO_COUNT>
1

>  <PUBCHEM_BOND_DEF_STEREO_COUNT>
2

>  <PUBCHEM_BOND_UDEF_STEREO_COUNT>
0

>  <PUBCHEM_ISOTOPIC_ATOM_COUNT>
0

>  <PUBCHEM_COMPONENT_COUNT>
1

>  <PUBCHEM_CACTVS_TAUTO_COUNT>
9

>  <PUBCHEM_COORDINATE_TYPE>
1
5
255

>  <PUBCHEM_BONDANNOTATIONS>
11  14  8
12  15  8
14  15  8
3  7  3
8  12  8
8  9  8
9  11  8

$$$$
