9866908
 OpenBabel06101807152D

 57 59  0  0  0  0  0  0  0  0999 V2000
    6.0682    0.5746    0.0000 O   0  0  0  0  0  0  0  0  0  0  0  0
    2.5381    0.5505    0.0000 O   0  0  0  0  0  0  0  0  0  0  0  0
    4.3198    3.6092    0.0000 O   0  0  0  0  0  0  0  0  0  0  0  0
    7.8003    2.5746    0.0000 O   0  0  0  0  0  0  0  0  0  0  0  0
    6.0682    3.5746    0.0000 O   0  0  0  0  0  0  0  0  0  0  0  0
   10.3984   -0.9254    0.0000 O   0  0  0  0  0  0  0  0  0  0  0  0
    5.2022    1.0746    0.0000 C   0  0  0  0  0  0  0  0  0  0  0  0
    4.3083    0.5399    0.0000 C   0  0  0  0  0  0  0  0  0  0  0  0
    5.2022    2.0746    0.0000 C   0  0  0  0  0  0  0  0  0  0  0  0
    6.9343    1.0746    0.0000 C   0  0  0  0  0  0  0  0  0  0  0  0
    4.3198   -0.4600    0.0000 C   0  0  0  0  0  0  0  0  0  0  0  0
    7.8003    0.5746    0.0000 C   0  0  0  0  0  0  0  0  0  0  0  0
    3.4022    1.0538    0.0000 C   0  0  0  0  0  0  0  0  0  0  0  0
    6.0682    2.5746    0.0000 C   0  0  0  0  0  0  0  0  0  0  0  0
    4.3083    2.6093    0.0000 C   0  0  0  0  0  0  0  0  0  0  0  0
    6.9343    2.0746    0.0000 C   0  0  0  0  0  0  0  0  0  0  0  0
    8.6663   -0.9254    0.0000 C   0  0  0  0  0  0  0  0  0  0  0  0
    7.8003   -0.4254    0.0000 C   0  0  0  0  0  0  0  0  0  0  0  0
    3.4022    2.0954    0.0000 C   0  0  0  0  0  0  0  0  0  0  0  0
    8.6663   -1.9254    0.0000 C   0  0  0  0  0  0  0  0  0  0  0  0
    8.6663    1.0746    0.0000 C   0  0  0  0  0  0  0  0  0  0  0  0
    3.4597   -0.9700    0.0000 C   0  0  0  0  0  0  0  0  0  0  0  0
    9.5323   -0.4254    0.0000 C   0  0  0  0  0  0  0  0  0  0  0  0
    9.5323    0.5746    0.0000 C   0  0  0  0  0  0  0  0  0  0  0  0
    3.4712   -1.9699    0.0000 C   0  0  0  0  0  0  0  0  0  0  0  0
    9.5323   -2.4254    0.0000 C   0  0  0  0  0  0  0  0  0  0  0  0
    9.5323   -3.4254    0.0000 C   0  0  0  0  0  0  0  0  0  0  0  0
    2.6110   -2.4799    0.0000 C   0  0  0  0  0  0  0  0  0  0  0  0
    4.3430   -2.4598    0.0000 C   0  0  0  0  0  0  0  0  0  0  0  0
   10.3984   -3.9254    0.0000 C   0  0  0  0  0  0  0  0  0  0  0  0
    8.6663   -3.9254    0.0000 C   0  0  0  0  0  0  0  0  0  0  0  0
    4.5386   -1.0401    0.0000 H   0  0  0  0  0  0  0  0  0  0  0  0
    4.9291   -0.3453    0.0000 H   0  0  0  0  0  0  0  0  0  0  0  0
    7.2634   -0.7354    0.0000 H   0  0  0  0  0  0  0  0  0  0  0  0
    2.8665    2.4075    0.0000 H   0  0  0  0  0  0  0  0  0  0  0  0
    8.0558   -1.8177    0.0000 H   0  0  0  0  0  0  0  0  0  0  0  0
    8.4543   -2.5080    0.0000 H   0  0  0  0  0  0  0  0  0  0  0  0
    8.6663    1.6946    0.0000 H   0  0  0  0  0  0  0  0  0  0  0  0
    2.9192   -0.6662    0.0000 H   0  0  0  0  0  0  0  0  0  0  0  0
   10.0693    0.8846    0.0000 H   0  0  0  0  0  0  0  0  0  0  0  0
   10.0693   -2.1154    0.0000 H   0  0  0  0  0  0  0  0  0  0  0  0
    2.0000    0.8584    0.0000 H   0  0  0  0  0  0  0  0  0  0  0  0
    3.7865    3.9254    0.0000 H   0  0  0  0  0  0  0  0  0  0  0  0
    7.8003    3.1946    0.0000 H   0  0  0  0  0  0  0  0  0  0  0  0
    4.0392   -3.0003    0.0000 H   0  0  0  0  0  0  0  0  0  0  0  0
    4.8835   -2.7636    0.0000 H   0  0  0  0  0  0  0  0  0  0  0  0
    4.6468   -1.9194    0.0000 H   0  0  0  0  0  0  0  0  0  0  0  0
    2.2948   -1.9466    0.0000 H   0  0  0  0  0  0  0  0  0  0  0  0
    2.0777   -2.7961    0.0000 H   0  0  0  0  0  0  0  0  0  0  0  0
    2.9272   -3.0132    0.0000 H   0  0  0  0  0  0  0  0  0  0  0  0
   10.9353   -0.6154    0.0000 H   0  0  0  0  0  0  0  0  0  0  0  0
   10.0884   -4.4623    0.0000 H   0  0  0  0  0  0  0  0  0  0  0  0
   10.9353   -4.2354    0.0000 H   0  0  0  0  0  0  0  0  0  0  0  0
   10.7084   -3.3885    0.0000 H   0  0  0  0  0  0  0  0  0  0  0  0
    8.3563   -3.3885    0.0000 H   0  0  0  0  0  0  0  0  0  0  0  0
    8.1294   -4.2354    0.0000 H   0  0  0  0  0  0  0  0  0  0  0  0
    8.9763   -4.4623    0.0000 H   0  0  0  0  0  0  0  0  0  0  0  0
  1  7  1  0  0  0  0
  1 10  1  0  0  0  0
  2 13  1  0  0  0  0
  2 42  1  0  0  0  0
  3 15  1  0  0  0  0
  3 43  1  0  0  0  0
  4 16  1  0  0  0  0
  4 44  1  0  0  0  0
  5 14  2  0  0  0  0
  6 23  1  0  0  0  0
  6 51  1  0  0  0  0
  7  8  1  0  0  0  0
  7  9  2  0  0  0  0
  8 11  1  0  0  0  0
  8 13  2  0  0  0  0
  9 14  1  0  0  0  0
  9 15  1  0  0  0  0
 10 12  1  0  0  0  0
 10 16  2  0  0  0  0
 11 22  1  0  0  0  0
 11 32  1  0  0  0  0
 11 33  1  0  0  0  0
 12 18  2  0  0  0  0
 12 21  1  0  0  0  0
 13 19  1  0  0  0  0
 14 16  1  0  0  0  0
 15 19  2  0  0  0  0
 17 18  1  0  0  0  0
 17 20  1  0  0  0  0
 17 23  2  0  0  0  0
 18 34  1  0  0  0  0
 19 35  1  0  0  0  0
 20 26  1  0  0  0  0
 20 36  1  0  0  0  0
 20 37  1  0  0  0  0
 21 24  2  0  0  0  0
 21 38  1  0  0  0  0
 22 25  2  0  0  0  0
 22 39  1  0  0  0  0
 23 24  1  0  0  0  0
 24 40  1  0  0  0  0
 25 28  1  0  0  0  0
 25 29  1  0  0  0  0
 26 27  2  0  0  0  0
 26 41  1  0  0  0  0
 27 30  1  0  0  0  0
 27 31  1  0  0  0  0
 28 48  1  0  0  0  0
 28 49  1  0  0  0  0
 28 50  1  0  0  0  0
 29 45  1  0  0  0  0
 29 46  1  0  0  0  0
 29 47  1  0  0  0  0
 30 52  1  0  0  0  0
 30 53  1  0  0  0  0
 30 54  1  0  0  0  0
 31 55  1  0  0  0  0
 31 56  1  0  0  0  0
 31 57  1  0  0  0  0
M  END
>  <PUBCHEM_COMPOUND_CID>
9866908

>  <PUBCHEM_COMPOUND_CANONICALIZED>
1

>  <PUBCHEM_CACTVS_COMPLEXITY>
758

>  <PUBCHEM_CACTVS_HBOND_ACCEPTOR>
6

>  <PUBCHEM_CACTVS_HBOND_DONOR>
4

>  <PUBCHEM_CACTVS_ROTATABLE_BOND>
5

>  <PUBCHEM_CACTVS_SUBSKEYS>
AAADceB4OAAAAAAAAAAAAAAAAAAAAAAAAAAwYIAAAAAAAACBQAAAGgAACAAADASAmAAyBoAABgCIAqBSAAICCAAkIAAIiAFGCMgMJzaGNRqCeWCl4BUIuQfI7PzOIAACCAAIAABAAAQQABAAAAAAAAAAAA==

>  <PUBCHEM_IUPAC_OPENEYE_NAME>
3,5,7-trihydroxy-2-[4-hydroxy-3-(3-methylbut-2-enyl)phenyl]-8-(3-methylbut-2-enyl)chromen-4-one

>  <PUBCHEM_IUPAC_CAS_NAME>
3,5,7-trihydroxy-2-[4-hydroxy-3-(3-methylbut-2-enyl)phenyl]-8-(3-methylbut-2-enyl)-1-benzopyran-4-one

>  <PUBCHEM_IUPAC_NAME>
3,5,7-trihydroxy-2-[4-hydroxy-3-(3-methylbut-2-enyl)phenyl]-8-(3-methylbut-2-enyl)chromen-4-one

>  <PUBCHEM_IUPAC_SYSTEMATIC_NAME>
8-(3-methylbut-2-enyl)-2-[3-(3-methylbut-2-enyl)-4-oxidanyl-phenyl]-3,5,7-tris(oxidanyl)chromen-4-one

>  <PUBCHEM_IUPAC_TRADITIONAL_NAME>
3,5,7-trihydroxy-2-[4-hydroxy-3-(3-methylbut-2-enyl)phenyl]-8-(3-methylbut-2-enyl)chromone

>  <PUBCHEM_IUPAC_INCHI>
InChI=1S/C25H26O6/c1-13(2)5-7-15-11-16(8-10-18(15)26)24-23(30)22(29)21-20(28)12-19(27)17(25(21)31-24)9-6-14(3)4/h5-6,8,10-12,26-28,30H,7,9H2,1-4H3

>  <PUBCHEM_IUPAC_INCHIKEY>
KNMMNUQOUANAJS-UHFFFAOYSA-N

>  <PUBCHEM_XLOGP3_AA>
6.4

>  <PUBCHEM_EXACT_MASS>
422.173

>  <PUBCHEM_MOLECULAR_FORMULA>
C25H26O6

>  <PUBCHEM_MOLECULAR_WEIGHT>
422.477

>  <PUBCHEM_OPENEYE_CAN_SMILES>
CC(=CCC1=C(C=CC(=C1)C2=C(C(=O)C3=C(O2)C(=C(C=C3O)O)CC=C(C)C)O)O)C

>  <PUBCHEM_OPENEYE_ISO_SMILES>
CC(=CCC1=C(C=CC(=C1)C2=C(C(=O)C3=C(O2)C(=C(C=C3O)O)CC=C(C)C)O)O)C

>  <PUBCHEM_CACTVS_TPSA>
107

>  <PUBCHEM_MONOISOTOPIC_WEIGHT>
422.173

>  <PUBCHEM_TOTAL_CHARGE>
0

>  <PUBCHEM_HEAVY_ATOM_COUNT>
31

>  <PUBCHEM_ATOM_DEF_STEREO_COUNT>
0

>  <PUBCHEM_ATOM_UDEF_STEREO_COUNT>
0

>  <PUBCHEM_BOND_DEF_STEREO_COUNT>
0

>  <PUBCHEM_BOND_UDEF_STEREO_COUNT>
0

>  <PUBCHEM_ISOTOPIC_ATOM_COUNT>
0

>  <PUBCHEM_COMPONENT_COUNT>
1

>  <PUBCHEM_CACTVS_TAUTO_COUNT>
998

>  <PUBCHEM_COORDINATE_TYPE>
1
5
255

>  <PUBCHEM_BONDANNOTATIONS>
1  10  8
1  7  8
10  16  8
12  18  8
12  21  8
13  19  8
14  16  8
15  19  8
17  18  8
17  23  8
21  24  8
23  24  8
7  8  8
7  9  8
8  13  8
9  14  8
9  15  8

$$$$
