9873131
 OpenBabel06101807152D

 99100  0  0  1  0  0  0  0  0999 V2000
   19.9437    2.4994    0.0000 O   0  0  0  0  0  0  0  0  0  0  0  0
   15.9904    3.8266    0.0000 O   0  0  0  0  0  0  0  0  0  0  0  0
    3.8660   -5.1734    0.0000 O   0  0  0  0  0  0  0  0  0  0  0  0
   18.3916    4.5698    0.0000 C   0  0  0  0  0  0  0  0  0  0  0  0
   17.7224    3.8266    0.0000 C   0  0  3  0  0  0  0  0  0  0  0  0
   19.3051    4.1631    0.0000 C   0  0  0  0  0  0  0  0  0  0  0  0
   18.2224    2.9606    0.0000 C   0  0  0  0  0  0  0  0  0  0  0  0
   19.2006    3.1685    0.0000 C   0  0  3  0  0  0  0  0  0  0  0  0
   18.7983    5.4834    0.0000 C   0  0  0  0  0  0  0  0  0  0  0  0
   17.6484    5.2389    0.0000 C   0  0  0  0  0  0  0  0  0  0  0  0
   16.9793    4.4958    0.0000 C   0  0  0  0  0  0  0  0  0  0  0  0
   16.8564    3.3266    0.0000 C   0  0  0  0  0  0  0  0  0  0  0  0
   16.8564    2.3266    0.0000 C   0  0  0  0  0  0  0  0  0  0  0  0
   15.9904    1.8266    0.0000 C   0  0  0  0  0  0  0  0  0  0  0  0
    3.0000   -2.6734    0.0000 C   0  0  0  0  0  0  0  0  0  0  0  0
    3.0000   -3.6734    0.0000 C   0  0  0  0  0  0  0  0  0  0  0  0
    3.8660   -4.1734    0.0000 C   0  0  3  0  0  0  0  0  0  0  0  0
   15.9904    0.8267    0.0000 C   0  0  0  0  0  0  0  0  0  0  0  0
    3.8660   -2.1734    0.0000 C   0  0  0  0  0  0  0  0  0  0  0  0
    4.7320   -3.6734    0.0000 C   0  0  0  0  0  0  0  0  0  0  0  0
    4.7320   -2.6734    0.0000 C   0  0  0  0  0  0  0  0  0  0  0  0
    2.0000   -2.6734    0.0000 C   0  0  0  0  0  0  0  0  0  0  0  0
    2.5000   -1.8073    0.0000 C   0  0  0  0  0  0  0  0  0  0  0  0
   16.8564    0.3267    0.0000 C   0  0  0  0  0  0  0  0  0  0  0  0
    3.8660   -1.1733    0.0000 C   0  0  0  0  0  0  0  0  0  0  0  0
    5.5981   -2.1734    0.0000 C   0  0  0  0  0  0  0  0  0  0  0  0
   15.1244    0.3267    0.0000 C   0  0  0  0  0  0  0  0  0  0  0  0
    4.7320   -0.6733    0.0000 C   0  0  0  0  0  0  0  0  0  0  0  0
   14.2583    0.8267    0.0000 C   0  0  0  0  0  0  0  0  0  0  0  0
    4.7320    0.3267    0.0000 C   0  0  0  0  0  0  0  0  0  0  0  0
   13.3923    0.3267    0.0000 C   0  0  0  0  0  0  0  0  0  0  0  0
    3.8660    0.8267    0.0000 C   0  0  0  0  0  0  0  0  0  0  0  0
    5.5981    0.8267    0.0000 C   0  0  0  0  0  0  0  0  0  0  0  0
   12.5263    0.8267    0.0000 C   0  0  0  0  0  0  0  0  0  0  0  0
    6.4641    0.3267    0.0000 C   0  0  0  0  0  0  0  0  0  0  0  0
   12.5263    1.8266    0.0000 C   0  0  0  0  0  0  0  0  0  0  0  0
   11.6603    0.3267    0.0000 C   0  0  0  0  0  0  0  0  0  0  0  0
    7.3301    0.8267    0.0000 C   0  0  0  0  0  0  0  0  0  0  0  0
   10.7942    0.8267    0.0000 C   0  0  0  0  0  0  0  0  0  0  0  0
    8.1962    0.3267    0.0000 C   0  0  0  0  0  0  0  0  0  0  0  0
    9.0622    0.8267    0.0000 C   0  0  0  0  0  0  0  0  0  0  0  0
    9.9282    0.3267    0.0000 C   0  0  0  0  0  0  0  0  0  0  0  0
    8.1962   -0.6733    0.0000 C   0  0  0  0  0  0  0  0  0  0  0  0
   19.9116    4.0342    0.0000 H   0  0  0  0  0  0  0  0  0  0  0  0
   19.4967    4.7527    0.0000 H   0  0  0  0  0  0  0  0  0  0  0  0
   17.6560    2.7084    0.0000 H   0  0  0  0  0  0  0  0  0  0  0  0
   18.4140    2.3710    0.0000 H   0  0  0  0  0  0  0  0  0  0  0  0
   18.9806    2.3475    0.0000 H   0  0  0  0  0  0  0  0  0  0  0  0
   19.3647    5.2312    0.0000 H   0  0  0  0  0  0  0  0  0  0  0  0
   19.0505    6.0497    0.0000 H   0  0  0  0  0  0  0  0  0  0  0  0
   18.2319    5.7355    0.0000 H   0  0  0  0  0  0  0  0  0  0  0  0
   18.0633    5.6997    0.0000 H   0  0  0  0  0  0  0  0  0  0  0  0
   17.1877    5.6538    0.0000 H   0  0  0  0  0  0  0  0  0  0  0  0
   17.2336    4.7782    0.0000 H   0  0  0  0  0  0  0  0  0  0  0  0
   17.3941    4.9565    0.0000 H   0  0  0  0  0  0  0  0  0  0  0  0
   16.5185    4.9107    0.0000 H   0  0  0  0  0  0  0  0  0  0  0  0
   16.5644    4.0350    0.0000 H   0  0  0  0  0  0  0  0  0  0  0  0
   20.5334    2.6910    0.0000 H   0  0  0  0  0  0  0  0  0  0  0  0
   17.3933    2.0166    0.0000 H   0  0  0  0  0  0  0  0  0  0  0  0
   15.4534    2.1366    0.0000 H   0  0  0  0  0  0  0  0  0  0  0  0
    2.3894   -3.5657    0.0000 H   0  0  0  0  0  0  0  0  0  0  0  0
    2.7880   -4.2560    0.0000 H   0  0  0  0  0  0  0  0  0  0  0  0
    4.6022   -4.5983    0.0000 H   0  0  0  0  0  0  0  0  0  0  0  0
    4.9441   -4.2560    0.0000 H   0  0  0  0  0  0  0  0  0  0  0  0
    5.3426   -3.5657    0.0000 H   0  0  0  0  0  0  0  0  0  0  0  0
    2.0000   -2.0534    0.0000 H   0  0  0  0  0  0  0  0  0  0  0  0
    1.3800   -2.6734    0.0000 H   0  0  0  0  0  0  0  0  0  0  0  0
    2.0000   -3.2933    0.0000 H   0  0  0  0  0  0  0  0  0  0  0  0
    3.0369   -1.4973    0.0000 H   0  0  0  0  0  0  0  0  0  0  0  0
    2.1900   -1.2704    0.0000 H   0  0  0  0  0  0  0  0  0  0  0  0
    1.9631   -2.1173    0.0000 H   0  0  0  0  0  0  0  0  0  0  0  0
   16.5464   -0.2103    0.0000 H   0  0  0  0  0  0  0  0  0  0  0  0
   17.3933    0.0167    0.0000 H   0  0  0  0  0  0  0  0  0  0  0  0
   17.1664    0.8636    0.0000 H   0  0  0  0  0  0  0  0  0  0  0  0
    3.3291   -0.8633    0.0000 H   0  0  0  0  0  0  0  0  0  0  0  0
    5.9081   -2.7103    0.0000 H   0  0  0  0  0  0  0  0  0  0  0  0
    6.1350   -1.8634    0.0000 H   0  0  0  0  0  0  0  0  0  0  0  0
    5.2881   -1.6364    0.0000 H   0  0  0  0  0  0  0  0  0  0  0  0
   15.1244   -0.2933    0.0000 H   0  0  0  0  0  0  0  0  0  0  0  0
    4.4030   -5.4834    0.0000 H   0  0  0  0  0  0  0  0  0  0  0  0
    5.2690   -0.9833    0.0000 H   0  0  0  0  0  0  0  0  0  0  0  0
   14.2583    1.4466    0.0000 H   0  0  0  0  0  0  0  0  0  0  0  0
   13.3923   -0.2933    0.0000 H   0  0  0  0  0  0  0  0  0  0  0  0
    4.1760    1.3636    0.0000 H   0  0  0  0  0  0  0  0  0  0  0  0
    3.3291    1.1366    0.0000 H   0  0  0  0  0  0  0  0  0  0  0  0
    3.5560    0.2897    0.0000 H   0  0  0  0  0  0  0  0  0  0  0  0
    5.5981    1.4466    0.0000 H   0  0  0  0  0  0  0  0  0  0  0  0
    6.4641   -0.2933    0.0000 H   0  0  0  0  0  0  0  0  0  0  0  0
   13.1463    1.8266    0.0000 H   0  0  0  0  0  0  0  0  0  0  0  0
   12.5263    2.4466    0.0000 H   0  0  0  0  0  0  0  0  0  0  0  0
   11.9063    1.8266    0.0000 H   0  0  0  0  0  0  0  0  0  0  0  0
   11.6603   -0.2933    0.0000 H   0  0  0  0  0  0  0  0  0  0  0  0
    7.3301    1.4466    0.0000 H   0  0  0  0  0  0  0  0  0  0  0  0
   10.7942    1.4466    0.0000 H   0  0  0  0  0  0  0  0  0  0  0  0
    9.0622    1.4466    0.0000 H   0  0  0  0  0  0  0  0  0  0  0  0
    9.9282   -0.2933    0.0000 H   0  0  0  0  0  0  0  0  0  0  0  0
    7.5762   -0.6733    0.0000 H   0  0  0  0  0  0  0  0  0  0  0  0
    8.1962   -1.2934    0.0000 H   0  0  0  0  0  0  0  0  0  0  0  0
    8.8162   -0.6733    0.0000 H   0  0  0  0  0  0  0  0  0  0  0  0
  1  8  1  0  0  0  0
  1 58  1  0  0  0  0
  2 12  2  0  0  0  0
  3 17  1  0  0  0  0
  3 80  1  0  0  0  0
  4  5  1  0  0  0  0
  4  6  1  0  0  0  0
  4  9  1  0  0  0  0
  4 10  1  0  0  0  0
  5  7  1  0  0  0  0
  5 11  1  0  0  0  0
  5 12  1  0  0  0  0
  6  8  1  0  0  0  0
  6 44  1  0  0  0  0
  6 45  1  0  0  0  0
  7  8  1  0  0  0  0
  7 46  1  0  0  0  0
  7 47  1  0  0  0  0
  8 48  1  0  0  0  0
  9 49  1  0  0  0  0
  9 50  1  0  0  0  0
  9 51  1  0  0  0  0
 10 52  1  0  0  0  0
 10 53  1  0  0  0  0
 10 54  1  0  0  0  0
 11 55  1  0  0  0  0
 11 56  1  0  0  0  0
 11 57  1  0  0  0  0
 12 13  1  0  0  0  0
 13 14  2  0  0  0  0
 13 59  1  0  0  0  0
 14 18  1  0  0  0  0
 14 60  1  0  0  0  0
 15 16  1  0  0  0  0
 15 19  1  0  0  0  0
 15 22  1  0  0  0  0
 15 23  1  0  0  0  0
 16 17  1  0  0  0  0
 16 61  1  0  0  0  0
 16 62  1  0  0  0  0
 17 20  1  0  0  0  0
 17 63  1  0  0  0  0
 18 24  1  0  0  0  0
 18 27  2  0  0  0  0
 19 21  2  0  0  0  0
 19 25  1  0  0  0  0
 20 21  1  0  0  0  0
 20 64  1  0  0  0  0
 20 65  1  0  0  0  0
 21 26  1  0  0  0  0
 22 66  1  0  0  0  0
 22 67  1  0  0  0  0
 22 68  1  0  0  0  0
 23 69  1  0  0  0  0
 23 70  1  0  0  0  0
 23 71  1  0  0  0  0
 24 72  1  0  0  0  0
 24 73  1  0  0  0  0
 24 74  1  0  0  0  0
 25 28  2  0  0  0  0
 25 75  1  0  0  0  0
 26 76  1  0  0  0  0
 26 77  1  0  0  0  0
 26 78  1  0  0  0  0
 27 29  1  0  0  0  0
 27 79  1  0  0  0  0
 28 30  1  0  0  0  0
 28 81  1  0  0  0  0
 29 31  2  0  0  0  0
 29 82  1  0  0  0  0
 30 32  1  0  0  0  0
 30 33  2  0  0  0  0
 31 34  1  0  0  0  0
 31 83  1  0  0  0  0
 32 84  1  0  0  0  0
 32 85  1  0  0  0  0
 32 86  1  0  0  0  0
 33 35  1  0  0  0  0
 33 87  1  0  0  0  0
 34 36  1  0  0  0  0
 34 37  2  0  0  0  0
 35 38  2  0  0  0  0
 35 88  1  0  0  0  0
 36 89  1  0  0  0  0
 36 90  1  0  0  0  0
 36 91  1  0  0  0  0
 37 39  1  0  0  0  0
 37 92  1  0  0  0  0
 38 40  1  0  0  0  0
 38 93  1  0  0  0  0
 39 42  2  0  0  0  0
 39 94  1  0  0  0  0
 40 41  2  0  0  0  0
 40 43  1  0  0  0  0
 41 42  1  0  0  0  0
 41 95  1  0  0  0  0
 42 96  1  0  0  0  0
 43 97  1  0  0  0  0
 43 98  1  0  0  0  0
 43 99  1  0  0  0  0
M  END
>  <PUBCHEM_COMPOUND_CID>
9873131

>  <PUBCHEM_COMPOUND_CANONICALIZED>
1

>  <PUBCHEM_CACTVS_COMPLEXITY>
1310

>  <PUBCHEM_CACTVS_HBOND_ACCEPTOR>
3

>  <PUBCHEM_CACTVS_HBOND_DONOR>
2

>  <PUBCHEM_CACTVS_ROTATABLE_BOND>
11

>  <PUBCHEM_CACTVS_SUBSKEYS>
AAADcfB8MAAAAAAAAAAAAAAAAAAAAYAAAAAgAAAAAAAAAAAAAAAAGgAACAAADhSggAICAAAAAgCIAqBSAAAAAAAgAAAICAEAAEgIEBIAAQAAQAAEwAAIgYOKzMDPgAAAAAAAAAAAAAAAAAAAAIAACAAAAA==

>  <PUBCHEM_IUPAC_OPENEYE_NAME>
(2E,4Z,6E,8E,10E,12E,14E,16Z,18E)-19-(4-hydroxy-2,6,6-trimethyl-cyclohexen-1-yl)-1-(4-hydroxy-1,2,2-trimethyl-cyclopentyl)-4,8,13,17-tetramethyl-nonadeca-2,4,6,8,10,12,14,16,18-nonaen-1-one

>  <PUBCHEM_IUPAC_CAS_NAME>
(2E,4Z,6E,8E,10E,12E,14E,16Z,18E)-19-(4-hydroxy-2,6,6-trimethyl-1-cyclohexenyl)-1-(4-hydroxy-1,2,2-trimethylcyclopentyl)-4,8,13,17-tetramethyl-1-nonadeca-2,4,6,8,10,12,14,16,18-nonaenone

>  <PUBCHEM_IUPAC_NAME>
(2E,4Z,6E,8E,10E,12E,14E,16Z,18E)-19-(4-hydroxy-2,6,6-trimethylcyclohexen-1-yl)-1-(4-hydroxy-1,2,2-trimethylcyclopentyl)-4,8,13,17-tetramethylnonadeca-2,4,6,8,10,12,14,16,18-nonaen-1-one

>  <PUBCHEM_IUPAC_SYSTEMATIC_NAME>
(2E,4Z,6E,8E,10E,12E,14E,16Z,18E)-4,8,13,17-tetramethyl-19-(2,6,6-trimethyl-4-oxidanyl-cyclohexen-1-yl)-1-(1,2,2-trimethyl-4-oxidanyl-cyclopentyl)nonadeca-2,4,6,8,10,12,14,16,18-nonaen-1-one

>  <PUBCHEM_IUPAC_TRADITIONAL_NAME>
(2E,4Z,6E,8E,10E,12E,14E,16Z,18E)-19-(4-hydroxy-2,6,6-trimethyl-cyclohexen-1-yl)-1-(4-hydroxy-1,2,2-trimethyl-cyclopentyl)-4,8,13,17-tetramethyl-nonadeca-2,4,6,8,10,12,14,16,18-nonaen-1-one

>  <PUBCHEM_IUPAC_INCHI>
InChI=1S/C40H56O3/c1-29(17-13-19-31(3)21-23-36-33(5)25-34(41)26-38(36,6)7)15-11-12-16-30(2)18-14-20-32(4)22-24-37(43)40(10)28-35(42)27-39(40,8)9/h11-24,34-35,41-42H,25-28H2,1-10H3/b12-11+,17-13+,18-14+,23-21+,24-22+,29-15+,30-16+,31-19-,32-20-

>  <PUBCHEM_IUPAC_INCHIKEY>
VYIRVAXUEZSDNC-QGLVDCRNSA-N

>  <PUBCHEM_XLOGP3_AA>
10.6

>  <PUBCHEM_EXACT_MASS>
584.423

>  <PUBCHEM_MOLECULAR_FORMULA>
C40H56O3

>  <PUBCHEM_MOLECULAR_WEIGHT>
584.885

>  <PUBCHEM_OPENEYE_CAN_SMILES>
CC1=C(C(CC(C1)O)(C)C)C=CC(=CC=CC(=CC=CC=C(C)C=CC=C(C)C=CC(=O)C2(CC(CC2(C)C)O)C)C)C

>  <PUBCHEM_OPENEYE_ISO_SMILES>
CC1=C(C(CC(C1)O)(C)C)/C=C/C(=C\C=C\C(=C\C=C\C=C(/C)\C=C\C=C(\C)/C=C/C(=O)C2(CC(CC2(C)C)O)C)\C)/C

>  <PUBCHEM_CACTVS_TPSA>
57.5

>  <PUBCHEM_MONOISOTOPIC_WEIGHT>
584.423

>  <PUBCHEM_TOTAL_CHARGE>
0

>  <PUBCHEM_HEAVY_ATOM_COUNT>
43

>  <PUBCHEM_ATOM_DEF_STEREO_COUNT>
0

>  <PUBCHEM_ATOM_UDEF_STEREO_COUNT>
3

>  <PUBCHEM_BOND_DEF_STEREO_COUNT>
9

>  <PUBCHEM_BOND_UDEF_STEREO_COUNT>
0

>  <PUBCHEM_ISOTOPIC_ATOM_COUNT>
0

>  <PUBCHEM_COMPONENT_COUNT>
1

>  <PUBCHEM_CACTVS_TAUTO_COUNT>
1

>  <PUBCHEM_COORDINATE_TYPE>
1
5
255

>  <PUBCHEM_BONDANNOTATIONS>
17  63  3
5  11  3
8  48  3

$$$$
