9897871
 OpenBabel06101807152D

145149  0  0  1  0  0  0  0  0999 V2000
    5.7610    1.5853    0.0000 O   0  0  0  0  0  0  0  0  0  0  0  0
   15.0858    6.9212    0.0000 O   0  0  0  0  0  0  0  0  0  0  0  0
    7.1787   16.6779    0.0000 O   0  0  0  0  0  0  0  0  0  0  0  0
    2.2690    3.6200    0.0000 O   0  0  0  0  0  0  0  0  0  0  0  0
   15.1009   10.9627    0.0000 O   0  0  0  0  0  0  0  0  0  0  0  0
    3.6867   18.7126    0.0000 O   0  0  0  0  0  0  0  0  0  0  0  0
    9.1771    4.6876    0.0000 O   0  0  0  0  0  0  0  0  0  0  0  0
   10.6804    5.5478    0.0000 O   0  0  0  0  0  0  0  0  0  0  0  0
   10.5948   19.7802    0.0000 O   0  0  0  0  0  0  0  0  0  0  0  0
    1.4030    2.1200    0.0000 O   0  0  0  0  0  0  0  0  0  0  0  0
   16.8329   10.9493    0.0000 O   0  0  0  0  0  0  0  0  0  0  0  0
   12.0981   20.6405    0.0000 O   0  0  0  0  0  0  0  0  0  0  0  0
    6.6671    2.0992    0.0000 C   0  0  3  0  0  0  0  0  0  0  0  0
   14.1837    6.4004    0.0000 C   0  0  3  0  0  0  0  0  0  0  0  0
    8.0848   17.1918    0.0000 C   0  0  3  0  0  0  0  0  0  0  0  0
   13.2857    6.9281    0.0000 C   0  0  0  0  0  0  0  0  0  0  0  0
    6.6671    3.1408    0.0000 C   0  0  0  0  0  0  0  0  0  0  0  0
    8.0848   18.2334    0.0000 C   0  0  0  0  0  0  0  0  0  0  0  0
    5.7610    3.6547    0.0000 C   0  0  0  0  0  0  0  0  0  0  0  0
   13.3017    7.9696    0.0000 C   0  0  0  0  0  0  0  0  0  0  0  0
    7.1787   18.7473    0.0000 C   0  0  0  0  0  0  0  0  0  0  0  0
    4.8671    3.1200    0.0000 C   0  0  0  0  0  0  0  0  0  0  0  0
   14.2156    8.4694    0.0000 C   0  0  0  0  0  0  0  0  0  0  0  0
    7.6671    2.0953    0.0000 C   0  0  0  0  0  0  0  0  0  0  0  0
   13.6804    5.5363    0.0000 C   0  0  0  0  0  0  0  0  0  0  0  0
    6.2848   18.2126    0.0000 C   0  0  0  0  0  0  0  0  0  0  0  0
    4.8671    2.1200    0.0000 C   0  0  0  0  0  0  0  0  0  0  0  0
   15.0778    7.9628    0.0000 C   0  0  0  0  0  0  0  0  0  0  0  0
    9.0848   17.1879    0.0000 C   0  0  0  0  0  0  0  0  0  0  0  0
    6.2848   17.2126    0.0000 C   0  0  0  0  0  0  0  0  0  0  0  0
   14.6804    5.5324    0.0000 C   0  0  0  0  0  0  0  0  0  0  0  0
    7.1637    1.2312    0.0000 C   0  0  0  0  0  0  0  0  0  0  0  0
    8.5814   16.3238    0.0000 C   0  0  0  0  0  0  0  0  0  0  0  0
    4.0010    3.6200    0.0000 C   0  0  0  0  0  0  0  0  0  0  0  0
   14.2233    9.4694    0.0000 C   0  0  0  0  0  0  0  0  0  0  0  0
   15.9476    8.4561    0.0000 C   0  0  0  0  0  0  0  0  0  0  0  0
    4.0010    1.6200    0.0000 C   0  0  0  0  0  0  0  0  0  0  0  0
    5.4187   18.7126    0.0000 C   0  0  0  0  0  0  0  0  0  0  0  0
    5.4187   16.7126    0.0000 C   0  0  0  0  0  0  0  0  0  0  0  0
    3.1350    2.1200    0.0000 C   0  0  0  0  0  0  0  0  0  0  0  0
   15.9553    9.4561    0.0000 C   0  0  0  0  0  0  0  0  0  0  0  0
   15.0932    9.9627    0.0000 C   0  0  0  0  0  0  0  0  0  0  0  0
    3.1350    3.1200    0.0000 C   0  0  0  0  0  0  0  0  0  0  0  0
    4.5527   17.2126    0.0000 C   0  0  0  0  0  0  0  0  0  0  0  0
    8.1704    2.9594    0.0000 C   0  0  0  0  0  0  0  0  0  0  0  0
   12.6804    5.5401    0.0000 C   0  0  0  0  0  0  0  0  0  0  0  0
    4.5527   18.2126    0.0000 C   0  0  0  0  0  0  0  0  0  0  0  0
    9.5881   18.0520    0.0000 C   0  0  0  0  0  0  0  0  0  0  0  0
    4.0010    4.6200    0.0000 C   0  0  0  0  0  0  0  0  0  0  0  0
   13.3612    9.9761    0.0000 C   0  0  0  0  0  0  0  0  0  0  0  0
   16.8098    7.9494    0.0000 C   0  0  0  0  0  0  0  0  0  0  0  0
    4.0010    0.6200    0.0000 C   0  0  0  0  0  0  0  0  0  0  0  0
    5.4187   19.7126    0.0000 C   0  0  0  0  0  0  0  0  0  0  0  0
    5.4187   15.7126    0.0000 C   0  0  0  0  0  0  0  0  0  0  0  0
    2.2690    1.6200    0.0000 C   0  0  0  0  0  0  0  0  0  0  0  0
   16.8252    9.9494    0.0000 C   0  0  0  0  0  0  0  0  0  0  0  0
    3.6867   16.7126    0.0000 C   0  0  0  0  0  0  0  0  0  0  0  0
    9.1704    2.9556    0.0000 C   0  0  0  0  0  0  0  0  0  0  0  0
   12.1770    4.6760    0.0000 C   0  0  0  0  0  0  0  0  0  0  0  0
   10.5881   18.0482    0.0000 C   0  0  0  0  0  0  0  0  0  0  0  0
   11.1771    4.6799    0.0000 C   0  0  0  0  0  0  0  0  0  0  0  0
    9.6737    3.8197    0.0000 C   0  0  0  0  0  0  0  0  0  0  0  0
   10.6737    3.8158    0.0000 C   0  0  0  0  0  0  0  0  0  0  0  0
   11.0914   18.9123    0.0000 C   0  0  0  0  0  0  0  0  0  0  0  0
    1.4030    3.1200    0.0000 C   0  0  0  0  0  0  0  0  0  0  0  0
   15.9707   11.4560    0.0000 C   0  0  0  0  0  0  0  0  0  0  0  0
   12.0914   18.9084    0.0000 C   0  0  0  0  0  0  0  0  0  0  0  0
    0.5369    3.6200    0.0000 C   0  0  0  0  0  0  0  0  0  0  0  0
   15.9784   12.4560    0.0000 C   0  0  0  0  0  0  0  0  0  0  0  0
   12.5947   19.7725    0.0000 C   0  0  0  0  0  0  0  0  0  0  0  0
   13.5947   19.7687    0.0000 C   0  0  0  0  0  0  0  0  0  0  0  0
    7.2779    3.0347    0.0000 H   0  0  0  0  0  0  0  0  0  0  0  0
    6.8761    3.7245    0.0000 H   0  0  0  0  0  0  0  0  0  0  0  0
   12.6765    7.0436    0.0000 H   0  0  0  0  0  0  0  0  0  0  0  0
   13.0676    6.3477    0.0000 H   0  0  0  0  0  0  0  0  0  0  0  0
    8.6956   18.1273    0.0000 H   0  0  0  0  0  0  0  0  0  0  0  0
    8.2938   18.8171    0.0000 H   0  0  0  0  0  0  0  0  0  0  0  0
   13.1017    8.5565    0.0000 H   0  0  0  0  0  0  0  0  0  0  0  0
   12.6893    7.8730    0.0000 H   0  0  0  0  0  0  0  0  0  0  0  0
    6.1546    4.1337    0.0000 H   0  0  0  0  0  0  0  0  0  0  0  0
    5.3564    4.1245    0.0000 H   0  0  0  0  0  0  0  0  0  0  0  0
    7.5723   19.2263    0.0000 H   0  0  0  0  0  0  0  0  0  0  0  0
    6.7741   19.2171    0.0000 H   0  0  0  0  0  0  0  0  0  0  0  0
   13.5704    4.9261    0.0000 H   0  0  0  0  0  0  0  0  0  0  0  0
   14.2622    5.3220    0.0000 H   0  0  0  0  0  0  0  0  0  0  0  0
    7.5570    1.4852    0.0000 H   0  0  0  0  0  0  0  0  0  0  0  0
    8.2488    1.8810    0.0000 H   0  0  0  0  0  0  0  0  0  0  0  0
    8.9748   16.5778    0.0000 H   0  0  0  0  0  0  0  0  0  0  0  0
    9.6666   16.9736    0.0000 H   0  0  0  0  0  0  0  0  0  0  0  0
    6.6256    0.9233    0.0000 H   0  0  0  0  0  0  0  0  0  0  0  0
    7.4717    0.6931    0.0000 H   0  0  0  0  0  0  0  0  0  0  0  0
    7.7019    1.5392    0.0000 H   0  0  0  0  0  0  0  0  0  0  0  0
   14.1422    5.2245    0.0000 H   0  0  0  0  0  0  0  0  0  0  0  0
   14.9883    4.9943    0.0000 H   0  0  0  0  0  0  0  0  0  0  0  0
   15.2185    5.8404    0.0000 H   0  0  0  0  0  0  0  0  0  0  0  0
    8.0433   16.0159    0.0000 H   0  0  0  0  0  0  0  0  0  0  0  0
    8.8894   15.7857    0.0000 H   0  0  0  0  0  0  0  0  0  0  0  0
    9.1196   16.6318    0.0000 H   0  0  0  0  0  0  0  0  0  0  0  0
    7.8625    3.4976    0.0000 H   0  0  0  0  0  0  0  0  0  0  0  0
   12.3725    6.0783    0.0000 H   0  0  0  0  0  0  0  0  0  0  0  0
    9.2802   18.5902    0.0000 H   0  0  0  0  0  0  0  0  0  0  0  0
    4.6210    4.6200    0.0000 H   0  0  0  0  0  0  0  0  0  0  0  0
    4.0010    5.2400    0.0000 H   0  0  0  0  0  0  0  0  0  0  0  0
    3.3810    4.6200    0.0000 H   0  0  0  0  0  0  0  0  0  0  0  0
   13.6753   10.5106    0.0000 H   0  0  0  0  0  0  0  0  0  0  0  0
   12.8266   10.2902    0.0000 H   0  0  0  0  0  0  0  0  0  0  0  0
   13.0470    9.4416    0.0000 H   0  0  0  0  0  0  0  0  0  0  0  0
    3.3810    0.6200    0.0000 H   0  0  0  0  0  0  0  0  0  0  0  0
    4.0010    0.0000    0.0000 H   0  0  0  0  0  0  0  0  0  0  0  0
    4.6210    0.6200    0.0000 H   0  0  0  0  0  0  0  0  0  0  0  0
   16.4956    7.4149    0.0000 H   0  0  0  0  0  0  0  0  0  0  0  0
   17.3443    7.6353    0.0000 H   0  0  0  0  0  0  0  0  0  0  0  0
   17.1239    8.4840    0.0000 H   0  0  0  0  0  0  0  0  0  0  0  0
    6.0387   19.7126    0.0000 H   0  0  0  0  0  0  0  0  0  0  0  0
    5.4187   20.3326    0.0000 H   0  0  0  0  0  0  0  0  0  0  0  0
    4.7987   19.7126    0.0000 H   0  0  0  0  0  0  0  0  0  0  0  0
    4.7987   15.7126    0.0000 H   0  0  0  0  0  0  0  0  0  0  0  0
    5.4187   15.0926    0.0000 H   0  0  0  0  0  0  0  0  0  0  0  0
    6.0387   15.7126    0.0000 H   0  0  0  0  0  0  0  0  0  0  0  0
    1.9590    2.1569    0.0000 H   0  0  0  0  0  0  0  0  0  0  0  0
    1.7320    1.3100    0.0000 H   0  0  0  0  0  0  0  0  0  0  0  0
    2.5790    1.0831    0.0000 H   0  0  0  0  0  0  0  0  0  0  0  0
   17.1310    9.4101    0.0000 H   0  0  0  0  0  0  0  0  0  0  0  0
   17.3645   10.2552    0.0000 H   0  0  0  0  0  0  0  0  0  0  0  0
   16.5193   10.4887    0.0000 H   0  0  0  0  0  0  0  0  0  0  0  0
    3.3767   17.2495    0.0000 H   0  0  0  0  0  0  0  0  0  0  0  0
    3.1498   16.4026    0.0000 H   0  0  0  0  0  0  0  0  0  0  0  0
    3.9967   16.1757    0.0000 H   0  0  0  0  0  0  0  0  0  0  0  0
    9.4783    2.4174    0.0000 H   0  0  0  0  0  0  0  0  0  0  0  0
   12.4850    4.1379    0.0000 H   0  0  0  0  0  0  0  0  0  0  0  0
   10.8960   17.5100    0.0000 H   0  0  0  0  0  0  0  0  0  0  0  0
   10.5637    3.2056    0.0000 H   0  0  0  0  0  0  0  0  0  0  0  0
   11.2555    3.6015    0.0000 H   0  0  0  0  0  0  0  0  0  0  0  0
    3.1498   18.4026    0.0000 H   0  0  0  0  0  0  0  0  0  0  0  0
   11.9814   18.2983    0.0000 H   0  0  0  0  0  0  0  0  0  0  0  0
   12.6732   18.6941    0.0000 H   0  0  0  0  0  0  0  0  0  0  0  0
    0.8469    4.1569    0.0000 H   0  0  0  0  0  0  0  0  0  0  0  0
    0.0000    3.9300    0.0000 H   0  0  0  0  0  0  0  0  0  0  0  0
    0.2269    3.0831    0.0000 H   0  0  0  0  0  0  0  0  0  0  0  0
   16.5984   12.4512    0.0000 H   0  0  0  0  0  0  0  0  0  0  0  0
   15.9832   13.0760    0.0000 H   0  0  0  0  0  0  0  0  0  0  0  0
   15.3585   12.4608    0.0000 H   0  0  0  0  0  0  0  0  0  0  0  0
   13.5924   19.1487    0.0000 H   0  0  0  0  0  0  0  0  0  0  0  0
   14.2147   19.7663    0.0000 H   0  0  0  0  0  0  0  0  0  0  0  0
   13.5971   20.3886    0.0000 H   0  0  0  0  0  0  0  0  0  0  0  0
  1 13  1  0  0  0  0
  1 27  1  0  0  0  0
  2 14  1  0  0  0  0
  2 28  1  0  0  0  0
  3 15  1  0  0  0  0
  3 30  1  0  0  0  0
  4 43  1  0  0  0  0
  4 65  1  0  0  0  0
  5 42  1  0  0  0  0
  5 66  1  0  0  0  0
  6 47  1  0  0  0  0
  6134  1  0  0  0  0
  7 62  2  0  0  0  0
  8 61  2  0  0  0  0
  9 64  2  0  0  0  0
 10 65  2  0  0  0  0
 11 66  2  0  0  0  0
 12 70  2  0  0  0  0
 13 17  1  0  0  0  0
 13 24  1  0  0  0  0
 13 32  1  0  0  0  0
 14 16  1  0  0  0  0
 14 25  1  0  0  0  0
 14 31  1  0  0  0  0
 15 18  1  0  0  0  0
 15 29  1  0  0  0  0
 15 33  1  0  0  0  0
 16 20  1  0  0  0  0
 16 74  1  0  0  0  0
 16 75  1  0  0  0  0
 17 19  1  0  0  0  0
 17 72  1  0  0  0  0
 17 73  1  0  0  0  0
 18 21  1  0  0  0  0
 18 76  1  0  0  0  0
 18 77  1  0  0  0  0
 19 22  1  0  0  0  0
 19 80  1  0  0  0  0
 19 81  1  0  0  0  0
 20 23  1  0  0  0  0
 20 78  1  0  0  0  0
 20 79  1  0  0  0  0
 21 26  1  0  0  0  0
 21 82  1  0  0  0  0
 21 83  1  0  0  0  0
 22 27  1  0  0  0  0
 22 34  2  0  0  0  0
 23 28  1  0  0  0  0
 23 35  2  0  0  0  0
 24 45  1  0  0  0  0
 24 86  1  0  0  0  0
 24 87  1  0  0  0  0
 25 46  1  0  0  0  0
 25 84  1  0  0  0  0
 25 85  1  0  0  0  0
 26 30  1  0  0  0  0
 26 38  2  0  0  0  0
 27 37  2  0  0  0  0
 28 36  2  0  0  0  0
 29 48  1  0  0  0  0
 29 88  1  0  0  0  0
 29 89  1  0  0  0  0
 30 39  2  0  0  0  0
 31 93  1  0  0  0  0
 31 94  1  0  0  0  0
 31 95  1  0  0  0  0
 32 90  1  0  0  0  0
 32 91  1  0  0  0  0
 32 92  1  0  0  0  0
 33 96  1  0  0  0  0
 33 97  1  0  0  0  0
 33 98  1  0  0  0  0
 34 43  1  0  0  0  0
 34 49  1  0  0  0  0
 35 42  1  0  0  0  0
 35 50  1  0  0  0  0
 36 41  1  0  0  0  0
 36 51  1  0  0  0  0
 37 40  1  0  0  0  0
 37 52  1  0  0  0  0
 38 47  1  0  0  0  0
 38 53  1  0  0  0  0
 39 44  1  0  0  0  0
 39 54  1  0  0  0  0
 40 43  2  0  0  0  0
 40 55  1  0  0  0  0
 41 42  2  0  0  0  0
 41 56  1  0  0  0  0
 44 47  2  0  0  0  0
 44 57  1  0  0  0  0
 45 58  2  0  0  0  0
 45 99  1  0  0  0  0
 46 59  2  0  0  0  0
 46100  1  0  0  0  0
 48 60  2  0  0  0  0
 48101  1  0  0  0  0
 49102  1  0  0  0  0
 49103  1  0  0  0  0
 49104  1  0  0  0  0
 50105  1  0  0  0  0
 50106  1  0  0  0  0
 50107  1  0  0  0  0
 51111  1  0  0  0  0
 51112  1  0  0  0  0
 51113  1  0  0  0  0
 52108  1  0  0  0  0
 52109  1  0  0  0  0
 52110  1  0  0  0  0
 53114  1  0  0  0  0
 53115  1  0  0  0  0
 53116  1  0  0  0  0
 54117  1  0  0  0  0
 54118  1  0  0  0  0
 54119  1  0  0  0  0
 55120  1  0  0  0  0
 55121  1  0  0  0  0
 55122  1  0  0  0  0
 56123  1  0  0  0  0
 56124  1  0  0  0  0
 56125  1  0  0  0  0
 57126  1  0  0  0  0
 57127  1  0  0  0  0
 57128  1  0  0  0  0
 58 62  1  0  0  0  0
 58129  1  0  0  0  0
 59 61  1  0  0  0  0
 59130  1  0  0  0  0
 60 64  1  0  0  0  0
 60131  1  0  0  0  0
 61 63  1  0  0  0  0
 62 63  1  0  0  0  0
 63132  1  0  0  0  0
 63133  1  0  0  0  0
 64 67  1  0  0  0  0
 65 68  1  0  0  0  0
 66 69  1  0  0  0  0
 67 70  1  0  0  0  0
 67135  1  0  0  0  0
 67136  1  0  0  0  0
 68137  1  0  0  0  0
 68138  1  0  0  0  0
 68139  1  0  0  0  0
 69140  1  0  0  0  0
 69141  1  0  0  0  0
 69142  1  0  0  0  0
 70 71  1  0  0  0  0
 71143  1  0  0  0  0
 71144  1  0  0  0  0
 71145  1  0  0  0  0
M  END
>  <PUBCHEM_COMPOUND_CID>
9897871

>  <PUBCHEM_COMPOUND_CANONICALIZED>
1

>  <PUBCHEM_CACTVS_COMPLEXITY>
1640

>  <PUBCHEM_CACTVS_HBOND_ACCEPTOR>
12

>  <PUBCHEM_CACTVS_HBOND_DONOR>
1

>  <PUBCHEM_CACTVS_ROTATABLE_BOND>
17

>  <PUBCHEM_CACTVS_SUBSKEYS>
AAADcfB8PAAAAAAAAAAAAAAAAAAAAAAAAAA0aNECAAAAAACRUAAAGgAACAAADESAmAACDoAABgCIAqDSCAACCAAgIAAIiAEECMgMJjKOMRqCeiCkwBEIuYfAwPAOwQADAAAYAACCAAYAADAAAAAAAAAAAA==

>  <PUBCHEM_IUPAC_OPENEYE_NAME>
[2-[(2E,7E)-9-(6-acetoxy-2,5,7,8-tetramethyl-chroman-2-yl)-4,6-dioxo-nona-2,7-dienyl]-2,5,7,8-tetramethyl-chroman-6-yl] acetate;(E)-7-(6-hydroxy-2,5,7,8-tetramethyl-chroman-2-yl)hept-5-ene-2,4-dione

>  <PUBCHEM_IUPAC_CAS_NAME>
acetic acid [2-[(2E,7E)-9-(6-acetyloxy-2,5,7,8-tetramethyl-3,4-dihydro-2H-1-benzopyran-2-yl)-4,6-dioxonona-2,7-dienyl]-2,5,7,8-tetramethyl-3,4-dihydro-2H-1-benzopyran-6-yl] ester;(E)-7-(6-hydroxy-2,5,7,8-tetramethyl-3,4-dihydro-2H-1-benzopyran-2-yl)-5-heptene-2,4-dione

>  <PUBCHEM_IUPAC_NAME>
[2-[(2E,7E)-9-(6-acetyloxy-2,5,7,8-tetramethyl-3,4-dihydrochromen-2-yl)-4,6-dioxonona-2,7-dienyl]-2,5,7,8-tetramethyl-3,4-dihydrochromen-6-yl] acetate;(E)-7-(6-hydroxy-2,5,7,8-tetramethyl-3,4-dihydrochromen-2-yl)hept-5-ene-2,4-dione

>  <PUBCHEM_IUPAC_SYSTEMATIC_NAME>
[2-[(2E,7E)-9-(6-acetyloxy-2,5,7,8-tetramethyl-3,4-dihydrochromen-2-yl)-4,6-bis(oxidanylidene)nona-2,7-dienyl]-2,5,7,8-tetramethyl-3,4-dihydrochromen-6-yl] ethanoate;(E)-7-(2,5,7,8-tetramethyl-6-oxidanyl-3,4-dihydrochromen-2-yl)hept-5-ene-2,4-dione

>  <PUBCHEM_IUPAC_TRADITIONAL_NAME>
acetic acid [2-[(2E,7E)-9-(6-acetoxy-2,5,7,8-tetramethyl-chroman-2-yl)-4,6-diketo-nona-2,7-dienyl]-2,5,7,8-tetramethyl-chroman-6-yl] ester;(E)-7-(6-hydroxy-2,5,7,8-tetramethyl-chroman-2-yl)hept-5-ene-2,4-dione

>  <PUBCHEM_IUPAC_INCHI>
InChI=1S/C39H48O8.C20H26O4/c1-22-24(3)36-32(26(5)34(22)44-28(7)40)15-19-38(9,46-36)17-11-13-30(42)21-31(43)14-12-18-39(10)20-16-33-27(6)35(45-29(8)41)23(2)25(4)37(33)47-39;1-12(21)11-16(22)7-6-9-20(5)10-8-17-15(4)18(23)13(2)14(3)19(17)24-20/h11-14H,15-21H2,1-10H3;6-7,23H,8-11H2,1-5H3/b13-11+,14-12+;7-6+

>  <PUBCHEM_IUPAC_INCHIKEY>
STEBXSCCMKRNFN-NZCDHXEHSA-N

>  <PUBCHEM_EXACT_MASS>
974.518

>  <PUBCHEM_MOLECULAR_FORMULA>
C59H74O12

>  <PUBCHEM_MOLECULAR_WEIGHT>
975.229

>  <PUBCHEM_OPENEYE_CAN_SMILES>
CC1=C(C(=C2CCC(OC2=C1C)(C)CC=CC(=O)CC(=O)C)C)O.CC1=C2C(=C(C(=C1C)OC(=O)C)C)CCC(O2)(C)CC=CC(=O)CC(=O)C=CCC3(CCC4=C(C(=C(C(=C4O3)C)C)OC(=O)C)C)C

>  <PUBCHEM_OPENEYE_ISO_SMILES>
CC1=C(C(=C2C(=C1C)OC(CC2)(C/C=C/C(=O)CC(=O)C)C)C)O.CC1=C2OC(CCC2=C(C(=C1C)OC(=O)C)C)(C/C=C/C(=O)CC(=O)/C=C/CC3(OC4=C(C(=C(C(=C4CC3)C)OC(=O)C)C)C)C)C

>  <PUBCHEM_CACTVS_TPSA>
169

>  <PUBCHEM_MONOISOTOPIC_WEIGHT>
974.518

>  <PUBCHEM_TOTAL_CHARGE>
0

>  <PUBCHEM_HEAVY_ATOM_COUNT>
71

>  <PUBCHEM_ATOM_DEF_STEREO_COUNT>
0

>  <PUBCHEM_ATOM_UDEF_STEREO_COUNT>
3

>  <PUBCHEM_BOND_DEF_STEREO_COUNT>
3

>  <PUBCHEM_BOND_UDEF_STEREO_COUNT>
0

>  <PUBCHEM_ISOTOPIC_ATOM_COUNT>
0

>  <PUBCHEM_COMPONENT_COUNT>
2

>  <PUBCHEM_CACTVS_TAUTO_COUNT>
996

>  <PUBCHEM_COORDINATE_TYPE>
1
5
255

>  <PUBCHEM_BONDANNOTATIONS>
13  32  3
14  31  3
15  33  3
22  27  8
22  34  8
23  28  8
23  35  8
26  30  8
26  38  8
27  37  8
28  36  8
30  39  8
34  43  8
35  42  8
36  41  8
37  40  8
38  47  8
39  44  8
40  43  8
41  42  8
44  47  8

$$$$
