9900754
 OpenBabel06101807152D

 44 45  0  0  0  0  0  0  0  0999 V2000
    2.8660    1.7500    0.0000 O   0  0  0  0  0  0  0  0  0  0  0  0
    6.3301    1.7500    0.0000 O   0  0  0  0  0  0  0  0  0  0  0  0
    4.5981    1.7500    0.0000 C   0  0  0  0  0  0  0  0  0  0  0  0
    4.5981    2.7500    0.0000 C   0  0  0  0  0  0  0  0  0  0  0  0
    3.7320    1.2500    0.0000 C   0  0  0  0  0  0  0  0  0  0  0  0
    5.4641    1.2500    0.0000 C   0  0  0  0  0  0  0  0  0  0  0  0
    4.5981   -0.2500    0.0000 C   0  0  0  0  0  0  0  0  0  0  0  0
    3.7320    0.2500    0.0000 C   0  0  0  0  0  0  0  0  0  0  0  0
    5.4641    0.2500    0.0000 C   0  0  0  0  0  0  0  0  0  0  0  0
    5.4641    3.2500    0.0000 C   0  0  0  0  0  0  0  0  0  0  0  0
    5.4641    4.2500    0.0000 C   0  0  0  0  0  0  0  0  0  0  0  0
    4.5981   -1.2500    0.0000 C   0  0  0  0  0  0  0  0  0  0  0  0
    3.7320   -1.7500    0.0000 C   0  0  0  0  0  0  0  0  0  0  0  0
    6.3301    4.7500    0.0000 C   0  0  0  0  0  0  0  0  0  0  0  0
    4.5981    4.7500    0.0000 C   0  0  0  0  0  0  0  0  0  0  0  0
    3.7320   -2.7500    0.0000 C   0  0  0  0  0  0  0  0  0  0  0  0
    2.0000    1.2500    0.0000 C   0  0  0  0  0  0  0  0  0  0  0  0
    2.8660   -3.2500    0.0000 C   0  0  0  0  0  0  0  0  0  0  0  0
    4.5981   -3.2500    0.0000 C   0  0  0  0  0  0  0  0  0  0  0  0
    2.8660   -4.2500    0.0000 C   0  0  0  0  0  0  0  0  0  0  0  0
    4.5981   -4.2500    0.0000 C   0  0  0  0  0  0  0  0  0  0  0  0
    3.7320   -4.7500    0.0000 C   0  0  0  0  0  0  0  0  0  0  0  0
    4.3860    3.3326    0.0000 H   0  0  0  0  0  0  0  0  0  0  0  0
    3.9875    2.6423    0.0000 H   0  0  0  0  0  0  0  0  0  0  0  0
    3.1951   -0.0600    0.0000 H   0  0  0  0  0  0  0  0  0  0  0  0
    6.0010   -0.0600    0.0000 H   0  0  0  0  0  0  0  0  0  0  0  0
    6.0010    2.9400    0.0000 H   0  0  0  0  0  0  0  0  0  0  0  0
    5.1350   -1.5600    0.0000 H   0  0  0  0  0  0  0  0  0  0  0  0
    3.1951   -1.4400    0.0000 H   0  0  0  0  0  0  0  0  0  0  0  0
    6.6401    4.2131    0.0000 H   0  0  0  0  0  0  0  0  0  0  0  0
    4.9081    5.2869    0.0000 H   0  0  0  0  0  0  0  0  0  0  0  0
    4.0611    5.0600    0.0000 H   0  0  0  0  0  0  0  0  0  0  0  0
    4.2881    4.2131    0.0000 H   0  0  0  0  0  0  0  0  0  0  0  0
    6.8671    5.0600    0.0000 H   0  0  0  0  0  0  0  0  0  0  0  0
    6.0201    5.2869    0.0000 H   0  0  0  0  0  0  0  0  0  0  0  0
    6.8671    1.4400    0.0000 H   0  0  0  0  0  0  0  0  0  0  0  0
    1.6900    1.7869    0.0000 H   0  0  0  0  0  0  0  0  0  0  0  0
    1.4631    0.9400    0.0000 H   0  0  0  0  0  0  0  0  0  0  0  0
    2.3100    0.7131    0.0000 H   0  0  0  0  0  0  0  0  0  0  0  0
    2.3291   -2.9400    0.0000 H   0  0  0  0  0  0  0  0  0  0  0  0
    5.1350   -2.9400    0.0000 H   0  0  0  0  0  0  0  0  0  0  0  0
    2.3291   -4.5600    0.0000 H   0  0  0  0  0  0  0  0  0  0  0  0
    5.1350   -4.5600    0.0000 H   0  0  0  0  0  0  0  0  0  0  0  0
    3.7320   -5.3700    0.0000 H   0  0  0  0  0  0  0  0  0  0  0  0
  1  5  1  0  0  0  0
  1 17  1  0  0  0  0
  2  6  1  0  0  0  0
  2 36  1  0  0  0  0
  3  4  1  0  0  0  0
  3  5  1  0  0  0  0
  3  6  2  0  0  0  0
  4 10  1  0  0  0  0
  4 23  1  0  0  0  0
  4 24  1  0  0  0  0
  5  8  2  0  0  0  0
  6  9  1  0  0  0  0
  7  8  1  0  0  0  0
  7  9  2  0  0  0  0
  7 12  1  0  0  0  0
  8 25  1  0  0  0  0
  9 26  1  0  0  0  0
 10 11  2  0  0  0  0
 10 27  1  0  0  0  0
 11 14  1  0  0  0  0
 11 15  1  0  0  0  0
 12 13  2  0  0  0  0
 12 28  1  0  0  0  0
 13 16  1  0  0  0  0
 13 29  1  0  0  0  0
 14 30  1  0  0  0  0
 14 34  1  0  0  0  0
 14 35  1  0  0  0  0
 15 31  1  0  0  0  0
 15 32  1  0  0  0  0
 15 33  1  0  0  0  0
 16 18  2  0  0  0  0
 16 19  1  0  0  0  0
 17 37  1  0  0  0  0
 17 38  1  0  0  0  0
 17 39  1  0  0  0  0
 18 20  1  0  0  0  0
 18 40  1  0  0  0  0
 19 21  2  0  0  0  0
 19 41  1  0  0  0  0
 20 22  2  0  0  0  0
 20 42  1  0  0  0  0
 21 22  1  0  0  0  0
 21 43  1  0  0  0  0
 22 44  1  0  0  0  0
M  END
>  <PUBCHEM_COMPOUND_CID>
9900754

>  <PUBCHEM_COMPOUND_CANONICALIZED>
1

>  <PUBCHEM_CACTVS_COMPLEXITY>
375

>  <PUBCHEM_CACTVS_HBOND_ACCEPTOR>
2

>  <PUBCHEM_CACTVS_HBOND_DONOR>
1

>  <PUBCHEM_CACTVS_ROTATABLE_BOND>
5

>  <PUBCHEM_CACTVS_SUBSKEYS>
AAADceB4MAAAAAAAAAAAAAAAAAAAAAAAAAAwYAAAAAAAAAABQAAAGgAACAAADASAmAIyBoAABgCAAiBCAAACCAAgIAAIiAAGCIgMJyKGMRqAcCAlwBUIuAeA4PwOQAABCAAIAACAAAIQABAAAAAAAAAAAA==

>  <PUBCHEM_IUPAC_OPENEYE_NAME>
3-methoxy-2-(3-methylbut-2-enyl)-5-[(E)-styryl]phenol

>  <PUBCHEM_IUPAC_CAS_NAME>
3-methoxy-2-(3-methylbut-2-enyl)-5-[(E)-2-phenylethenyl]phenol

>  <PUBCHEM_IUPAC_NAME>
3-methoxy-2-(3-methylbut-2-enyl)-5-[(E)-2-phenylethenyl]phenol

>  <PUBCHEM_IUPAC_SYSTEMATIC_NAME>
3-methoxy-2-(3-methylbut-2-enyl)-5-[(E)-2-phenylethenyl]phenol

>  <PUBCHEM_IUPAC_TRADITIONAL_NAME>
3-methoxy-2-(3-methylbut-2-enyl)-5-[(E)-styryl]phenol

>  <PUBCHEM_IUPAC_INCHI>
InChI=1S/C20H22O2/c1-15(2)9-12-18-19(21)13-17(14-20(18)22-3)11-10-16-7-5-4-6-8-16/h4-11,13-14,21H,12H2,1-3H3/b11-10+

>  <PUBCHEM_IUPAC_INCHIKEY>
MPDBOKIOROLWQP-ZHACJKMWSA-N

>  <PUBCHEM_XLOGP3_AA>
5.7

>  <PUBCHEM_EXACT_MASS>
294.162

>  <PUBCHEM_MOLECULAR_FORMULA>
C20H22O2

>  <PUBCHEM_MOLECULAR_WEIGHT>
294.394

>  <PUBCHEM_OPENEYE_CAN_SMILES>
CC(=CCC1=C(C=C(C=C1OC)C=CC2=CC=CC=C2)O)C

>  <PUBCHEM_OPENEYE_ISO_SMILES>
CC(=CCC1=C(C=C(C=C1OC)/C=C/C2=CC=CC=C2)O)C

>  <PUBCHEM_CACTVS_TPSA>
29.5

>  <PUBCHEM_MONOISOTOPIC_WEIGHT>
294.162

>  <PUBCHEM_TOTAL_CHARGE>
0

>  <PUBCHEM_HEAVY_ATOM_COUNT>
22

>  <PUBCHEM_ATOM_DEF_STEREO_COUNT>
0

>  <PUBCHEM_ATOM_UDEF_STEREO_COUNT>
0

>  <PUBCHEM_BOND_DEF_STEREO_COUNT>
1

>  <PUBCHEM_BOND_UDEF_STEREO_COUNT>
0

>  <PUBCHEM_ISOTOPIC_ATOM_COUNT>
0

>  <PUBCHEM_COMPONENT_COUNT>
1

>  <PUBCHEM_CACTVS_TAUTO_COUNT>
3

>  <PUBCHEM_COORDINATE_TYPE>
1
5
255

>  <PUBCHEM_BONDANNOTATIONS>
16  18  8
16  19  8
18  20  8
19  21  8
20  22  8
21  22  8
3  5  8
3  6  8
5  8  8
6  9  8
7  8  8
7  9  8

$$$$
