9944143
 OpenBabel06101807152D

 34 36  0  0  0  0  0  0  0  0999 V2000
    5.5301   -1.7379    0.0000 O   0  0  0  0  0  0  0  0  0  0  0  0
    3.7817    1.2967    0.0000 O   0  0  0  0  0  0  0  0  0  0  0  0
    5.5301    1.2621    0.0000 O   0  0  0  0  0  0  0  0  0  0  0  0
    8.1282   -1.2379    0.0000 O   0  0  0  0  0  0  0  0  0  0  0  0
    2.0000   -1.7621    0.0000 O   0  0  0  0  0  0  0  0  0  0  0  0
    9.8602    1.7621    0.0000 O   0  0  0  0  0  0  0  0  0  0  0  0
    4.6641   -0.2379    0.0000 C   0  0  0  0  0  0  0  0  0  0  0  0
    6.3961   -0.2379    0.0000 C   0  0  0  0  0  0  0  0  0  0  0  0
    4.6641   -1.2379    0.0000 C   0  0  0  0  0  0  0  0  0  0  0  0
    5.5301    0.2621    0.0000 C   0  0  0  0  0  0  0  0  0  0  0  0
    7.2622    0.2621    0.0000 C   0  0  0  0  0  0  0  0  0  0  0  0
    3.7702    0.2967    0.0000 C   0  0  0  0  0  0  0  0  0  0  0  0
    6.3961   -1.2379    0.0000 C   0  0  0  0  0  0  0  0  0  0  0  0
    3.7702   -1.7726    0.0000 C   0  0  0  0  0  0  0  0  0  0  0  0
    2.8641   -0.2171    0.0000 C   0  0  0  0  0  0  0  0  0  0  0  0
    8.1282   -0.2379    0.0000 C   0  0  0  0  0  0  0  0  0  0  0  0
    2.8641   -1.2587    0.0000 C   0  0  0  0  0  0  0  0  0  0  0  0
    7.2622    1.2621    0.0000 C   0  0  0  0  0  0  0  0  0  0  0  0
    8.9942    0.2621    0.0000 C   0  0  0  0  0  0  0  0  0  0  0  0
    8.1282    1.7621    0.0000 C   0  0  0  0  0  0  0  0  0  0  0  0
    8.9942    1.2621    0.0000 C   0  0  0  0  0  0  0  0  0  0  0  0
    2.9215    1.8066    0.0000 C   0  0  0  0  0  0  0  0  0  0  0  0
    6.9331   -1.5479    0.0000 H   0  0  0  0  0  0  0  0  0  0  0  0
    3.7773   -2.3926    0.0000 H   0  0  0  0  0  0  0  0  0  0  0  0
    2.3284    0.0950    0.0000 H   0  0  0  0  0  0  0  0  0  0  0  0
    6.7252    1.5721    0.0000 H   0  0  0  0  0  0  0  0  0  0  0  0
    9.5312   -0.0479    0.0000 H   0  0  0  0  0  0  0  0  0  0  0  0
    8.1282    2.3821    0.0000 H   0  0  0  0  0  0  0  0  0  0  0  0
    3.2377    2.3400    0.0000 H   0  0  0  0  0  0  0  0  0  0  0  0
    2.3882    2.1228    0.0000 H   0  0  0  0  0  0  0  0  0  0  0  0
    2.6054    1.2733    0.0000 H   0  0  0  0  0  0  0  0  0  0  0  0
    8.6651   -1.5479    0.0000 H   0  0  0  0  0  0  0  0  0  0  0  0
    2.0024   -2.3821    0.0000 H   0  0  0  0  0  0  0  0  0  0  0  0
    9.8602    2.3821    0.0000 H   0  0  0  0  0  0  0  0  0  0  0  0
  1  9  1  0  0  0  0
  1 13  1  0  0  0  0
  2 12  1  0  0  0  0
  2 22  1  0  0  0  0
  3 10  2  0  0  0  0
  4 16  1  0  0  0  0
  4 32  1  0  0  0  0
  5 17  1  0  0  0  0
  5 33  1  0  0  0  0
  6 21  1  0  0  0  0
  6 34  1  0  0  0  0
  7  9  2  0  0  0  0
  7 10  1  0  0  0  0
  7 12  1  0  0  0  0
  8 10  1  0  0  0  0
  8 11  1  0  0  0  0
  8 13  2  0  0  0  0
  9 14  1  0  0  0  0
 11 16  2  0  0  0  0
 11 18  1  0  0  0  0
 12 15  2  0  0  0  0
 13 23  1  0  0  0  0
 14 17  2  0  0  0  0
 14 24  1  0  0  0  0
 15 17  1  0  0  0  0
 15 25  1  0  0  0  0
 16 19  1  0  0  0  0
 18 20  2  0  0  0  0
 18 26  1  0  0  0  0
 19 21  2  0  0  0  0
 19 27  1  0  0  0  0
 20 21  1  0  0  0  0
 20 28  1  0  0  0  0
 22 29  1  0  0  0  0
 22 30  1  0  0  0  0
 22 31  1  0  0  0  0
M  END
>  <PUBCHEM_COMPOUND_CID>
9944143

>  <PUBCHEM_COMPOUND_CANONICALIZED>
1

>  <PUBCHEM_CACTVS_COMPLEXITY>
462

>  <PUBCHEM_CACTVS_HBOND_ACCEPTOR>
6

>  <PUBCHEM_CACTVS_HBOND_DONOR>
3

>  <PUBCHEM_CACTVS_ROTATABLE_BOND>
2

>  <PUBCHEM_CACTVS_SUBSKEYS>
AAADccB4OAAAAAAAAAAAAAAAAAAAAAAAAAAwYIAAAAAAAACBQAAAGgAACAAADASgmAIyBoAABgCIAqBSAAACCAAkIAAIiAEGCMgMJzaGNRqAcWAl4BUIuYeK7PzOIAAACAAIAABAAAAQABAAAAAAAAAAAA==

>  <PUBCHEM_IUPAC_OPENEYE_NAME>
3-(2,4-dihydroxyphenyl)-7-hydroxy-5-methoxy-chromen-4-one

>  <PUBCHEM_IUPAC_CAS_NAME>
3-(2,4-dihydroxyphenyl)-7-hydroxy-5-methoxy-1-benzopyran-4-one

>  <PUBCHEM_IUPAC_NAME>
3-(2,4-dihydroxyphenyl)-7-hydroxy-5-methoxychromen-4-one

>  <PUBCHEM_IUPAC_SYSTEMATIC_NAME>
3-[2,4-bis(oxidanyl)phenyl]-5-methoxy-7-oxidanyl-chromen-4-one

>  <PUBCHEM_IUPAC_TRADITIONAL_NAME>
3-(2,4-dihydroxyphenyl)-7-hydroxy-5-methoxy-chromone

>  <PUBCHEM_IUPAC_INCHI>
InChI=1S/C16H12O6/c1-21-13-5-9(18)6-14-15(13)16(20)11(7-22-14)10-3-2-8(17)4-12(10)19/h2-7,17-19H,1H3

>  <PUBCHEM_IUPAC_INCHIKEY>
TUTSVLUUGMNALO-UHFFFAOYSA-N

>  <PUBCHEM_XLOGP3_AA>
2.1

>  <PUBCHEM_EXACT_MASS>
300.063

>  <PUBCHEM_MOLECULAR_FORMULA>
C16H12O6

>  <PUBCHEM_MOLECULAR_WEIGHT>
300.266

>  <PUBCHEM_OPENEYE_CAN_SMILES>
COC1=C2C(=CC(=C1)O)OC=C(C2=O)C3=C(C=C(C=C3)O)O

>  <PUBCHEM_OPENEYE_ISO_SMILES>
COC1=C2C(=CC(=C1)O)OC=C(C2=O)C3=C(C=C(C=C3)O)O

>  <PUBCHEM_CACTVS_TPSA>
96.2

>  <PUBCHEM_MONOISOTOPIC_WEIGHT>
300.063

>  <PUBCHEM_TOTAL_CHARGE>
0

>  <PUBCHEM_HEAVY_ATOM_COUNT>
22

>  <PUBCHEM_ATOM_DEF_STEREO_COUNT>
0

>  <PUBCHEM_ATOM_UDEF_STEREO_COUNT>
0

>  <PUBCHEM_BOND_DEF_STEREO_COUNT>
0

>  <PUBCHEM_BOND_UDEF_STEREO_COUNT>
0

>  <PUBCHEM_ISOTOPIC_ATOM_COUNT>
0

>  <PUBCHEM_COMPONENT_COUNT>
1

>  <PUBCHEM_CACTVS_TAUTO_COUNT>
45

>  <PUBCHEM_COORDINATE_TYPE>
1
5
255

>  <PUBCHEM_BONDANNOTATIONS>
1  13  8
1  9  8
11  16  8
11  18  8
12  15  8
14  17  8
15  17  8
16  19  8
18  20  8
19  21  8
20  21  8
7  10  8
7  12  8
7  9  8
8  10  8
8  13  8
9  14  8

$$$$
