9960512
 OpenBabel06101807152D

 73 77  0  0  1  0  0  0  0  0999 V2000
    6.9343    0.0950    0.0000 O   0  0  0  0  0  0  0  0  0  0  0  0
    4.3362   -2.4050    0.0000 O   0  0  0  0  0  0  0  0  0  0  0  0
    6.0682   -2.4050    0.0000 O   0  0  0  0  0  0  0  0  0  0  0  0
    7.8003   -2.4050    0.0000 O   0  0  0  0  0  0  0  0  0  0  0  0
    9.5323   -1.4050    0.0000 O   0  0  0  0  0  0  0  0  0  0  0  0
    7.8003    1.5950    0.0000 O   0  0  0  0  0  0  0  0  0  0  0  0
    6.0682   -4.4050    0.0000 O   0  0  0  0  0  0  0  0  0  0  0  0
    9.5323    0.5950    0.0000 O   0  0  0  0  0  0  0  0  0  0  0  0
    4.3362   -5.4050    0.0000 O   0  0  0  0  0  0  0  0  0  0  0  0
    2.6042   -4.4050    0.0000 O   0  0  0  0  0  0  0  0  0  0  0  0
    2.6042   -1.4050    0.0000 O   0  0  0  0  0  0  0  0  0  0  0  0
    6.0682    3.5950    0.0000 O   0  0  0  0  0  0  0  0  0  0  0  0
    6.0682    0.5950    0.0000 O   0  0  0  0  0  0  0  0  0  0  0  0
    4.3198    0.5604    0.0000 O   0  0  0  0  0  0  0  0  0  0  0  0
    2.5381    3.6192    0.0000 O   0  0  0  0  0  0  0  0  0  0  0  0
   10.3984    5.0950    0.0000 O   0  0  0  0  0  0  0  0  0  0  0  0
    6.9343   -0.9050    0.0000 C   0  0  1  0  0  0  0  0  0  0  0  0
    7.8003   -1.4050    0.0000 C   0  0  2  0  0  0  0  0  0  0  0  0
    8.6663   -0.9050    0.0000 C   0  0  1  0  0  0  0  0  0  0  0  0
    5.2022   -3.9050    0.0000 C   0  0  2  0  0  0  0  0  0  0  0  0
    8.6663    0.0950    0.0000 C   0  0  2  0  0  0  0  0  0  0  0  0
    4.3362   -4.4050    0.0000 C   0  0  2  0  0  0  0  0  0  0  0  0
    5.2022   -2.9050    0.0000 C   0  0  1  0  0  0  0  0  0  0  0  0
    3.4702   -3.9050    0.0000 C   0  0  1  0  0  0  0  0  0  0  0  0
    3.4702   -2.9050    0.0000 C   0  0  1  0  0  0  0  0  0  0  0  0
    7.8003    0.5950    0.0000 C   0  0  1  0  0  0  0  0  0  0  0  0
    6.0682   -1.4050    0.0000 C   0  0  0  0  0  0  0  0  0  0  0  0
    2.6042   -2.4050    0.0000 C   0  0  0  0  0  0  0  0  0  0  0  0
    6.9343    2.0950    0.0000 C   0  0  0  0  0  0  0  0  0  0  0  0
    6.9343    3.0950    0.0000 C   0  0  0  0  0  0  0  0  0  0  0  0
    6.0682    1.5950    0.0000 C   0  0  0  0  0  0  0  0  0  0  0  0
    5.2022    2.0950    0.0000 C   0  0  0  0  0  0  0  0  0  0  0  0
    5.2022    3.0950    0.0000 C   0  0  0  0  0  0  0  0  0  0  0  0
    7.8003    3.5950    0.0000 C   0  0  0  0  0  0  0  0  0  0  0  0
    4.3083    1.5603    0.0000 C   0  0  0  0  0  0  0  0  0  0  0  0
    4.3083    3.6297    0.0000 C   0  0  0  0  0  0  0  0  0  0  0  0
    7.8003    4.5950    0.0000 C   0  0  0  0  0  0  0  0  0  0  0  0
    8.6663    3.0950    0.0000 C   0  0  0  0  0  0  0  0  0  0  0  0
    3.4022    2.0742    0.0000 C   0  0  0  0  0  0  0  0  0  0  0  0
    3.4022    3.1158    0.0000 C   0  0  0  0  0  0  0  0  0  0  0  0
    8.6663    5.0950    0.0000 C   0  0  0  0  0  0  0  0  0  0  0  0
    9.5323    3.5950    0.0000 C   0  0  0  0  0  0  0  0  0  0  0  0
    9.5323    4.5950    0.0000 C   0  0  0  0  0  0  0  0  0  0  0  0
    6.3973   -0.5950    0.0000 H   0  0  0  0  0  0  0  0  0  0  0  0
    8.3372   -1.7150    0.0000 H   0  0  0  0  0  0  0  0  0  0  0  0
    9.2033   -0.5950    0.0000 H   0  0  0  0  0  0  0  0  0  0  0  0
    5.7392   -3.5950    0.0000 H   0  0  0  0  0  0  0  0  0  0  0  0
    8.6663    0.7150    0.0000 H   0  0  0  0  0  0  0  0  0  0  0  0
    3.7993   -4.7150    0.0000 H   0  0  0  0  0  0  0  0  0  0  0  0
    5.2022   -2.2850    0.0000 H   0  0  0  0  0  0  0  0  0  0  0  0
    2.9332   -3.5950    0.0000 H   0  0  0  0  0  0  0  0  0  0  0  0
    3.4702   -2.2850    0.0000 H   0  0  0  0  0  0  0  0  0  0  0  0
    7.2634    0.9050    0.0000 H   0  0  0  0  0  0  0  0  0  0  0  0
    5.8562   -0.8224    0.0000 H   0  0  0  0  0  0  0  0  0  0  0  0
    5.4577   -1.5127    0.0000 H   0  0  0  0  0  0  0  0  0  0  0  0
    1.9936   -2.2973    0.0000 H   0  0  0  0  0  0  0  0  0  0  0  0
    2.3921   -2.9876    0.0000 H   0  0  0  0  0  0  0  0  0  0  0  0
    7.2634   -2.7150    0.0000 H   0  0  0  0  0  0  0  0  0  0  0  0
    9.5323   -2.0250    0.0000 H   0  0  0  0  0  0  0  0  0  0  0  0
    6.6052   -4.0950    0.0000 H   0  0  0  0  0  0  0  0  0  0  0  0
   10.0693    0.2850    0.0000 H   0  0  0  0  0  0  0  0  0  0  0  0
    3.7993   -5.7150    0.0000 H   0  0  0  0  0  0  0  0  0  0  0  0
    2.0672   -4.0950    0.0000 H   0  0  0  0  0  0  0  0  0  0  0  0
    2.0672   -1.0950    0.0000 H   0  0  0  0  0  0  0  0  0  0  0  0
    4.3154    4.2496    0.0000 H   0  0  0  0  0  0  0  0  0  0  0  0
    7.2634    4.9050    0.0000 H   0  0  0  0  0  0  0  0  0  0  0  0
    8.6663    2.4750    0.0000 H   0  0  0  0  0  0  0  0  0  0  0  0
    2.8665    1.7621    0.0000 H   0  0  0  0  0  0  0  0  0  0  0  0
    8.6663    5.7150    0.0000 H   0  0  0  0  0  0  0  0  0  0  0  0
   10.0693    3.2850    0.0000 H   0  0  0  0  0  0  0  0  0  0  0  0
    3.7865    0.2442    0.0000 H   0  0  0  0  0  0  0  0  0  0  0  0
    2.0000    3.3112    0.0000 H   0  0  0  0  0  0  0  0  0  0  0  0
   10.3984    5.7150    0.0000 H   0  0  0  0  0  0  0  0  0  0  0  0
  1 17  1  0  0  0  0
  1 26  1  0  0  0  0
  2 23  1  0  0  0  0
  2 25  1  0  0  0  0
  3 27  1  0  0  0  0
  4 58  1  0  0  0  0
  5 59  1  0  0  0  0
  6 29  1  0  0  0  0
  7 60  1  0  0  0  0
  8 61  1  0  0  0  0
  9 62  1  0  0  0  0
 10 63  1  0  0  0  0
 11 28  1  0  0  0  0
 11 64  1  0  0  0  0
 12 30  1  0  0  0  0
 12 33  1  0  0  0  0
 13 31  2  0  0  0  0
 14 35  1  0  0  0  0
 14 71  1  0  0  0  0
 15 40  1  0  0  0  0
 15 72  1  0  0  0  0
 16 43  1  0  0  0  0
 16 73  1  0  0  0  0
 17 18  1  6  0  0  0
 17 27  1  0  0  0  0
 17 44  1  0  0  0  0
 18  4  1  0  0  0  0
 18 19  1  6  0  0  0
 18 45  1  0  0  0  0
 19  5  1  0  0  0  0
 19 21  1  1  0  0  0
 19 46  1  0  0  0  0
 20  7  1  0  0  0  0
 20 22  1  1  0  0  0
 20 47  1  0  0  0  0
 21  8  1  0  0  0  0
 21 26  1  6  0  0  0
 21 48  1  0  0  0  0
 22  9  1  0  0  0  0
 22 24  1  1  0  0  0
 22 49  1  0  0  0  0
 23  3  1  0  0  0  0
 23 20  1  6  0  0  0
 23 50  1  0  0  0  0
 24 10  1  0  0  0  0
 24 25  1  6  0  0  0
 24 51  1  0  0  0  0
 25 28  1  0  0  0  0
 25 52  1  6  0  0  0
 26  6  1  0  0  0  0
 26 53  1  6  0  0  0
 27 54  1  0  0  0  0
 27 55  1  0  0  0  0
 28 56  1  0  0  0  0
 28 57  1  0  0  0  0
 29 30  2  0  0  0  0
 29 31  1  0  0  0  0
 30 34  1  0  0  0  0
 31 32  1  0  0  0  0
 32 33  1  0  0  0  0
 32 35  2  0  0  0  0
 33 36  2  0  0  0  0
 34 37  2  0  0  0  0
 34 38  1  0  0  0  0
 35 39  1  0  0  0  0
 36 40  1  0  0  0  0
 36 65  1  0  0  0  0
 37 41  1  0  0  0  0
 37 66  1  0  0  0  0
 38 42  2  0  0  0  0
 38 67  1  0  0  0  0
 39 40  2  0  0  0  0
 39 68  1  0  0  0  0
 41 43  2  0  0  0  0
 41 69  1  0  0  0  0
 42 43  1  0  0  0  0
 42 70  1  0  0  0  0
M  END
>  <PUBCHEM_COMPOUND_CID>
9960512

>  <PUBCHEM_COMPOUND_CANONICALIZED>
1

>  <PUBCHEM_CACTVS_COMPLEXITY>
1000

>  <PUBCHEM_CACTVS_HBOND_ACCEPTOR>
16

>  <PUBCHEM_CACTVS_HBOND_DONOR>
10

>  <PUBCHEM_CACTVS_ROTATABLE_BOND>
7

>  <PUBCHEM_CACTVS_SUBSKEYS>
AAADceB4PgAAAAAAAAAAAAAAAAAAAAAAAAA0aIECAAAAAACBQAAAGgAACAAADBSwmAMwDoAABgCIAqBSAAICCAAkIAAIiAFGCMgdNzaGNR6ieWCl4BUPuQfI7KzOIAAACAAIAABAAAAQABAAAAAAAAAAAA==

>  <PUBCHEM_IUPAC_OPENEYE_NAME>
5,7-dihydroxy-2-(4-hydroxyphenyl)-3-[(2S,3R,4S,5S,6R)-3,4,5-trihydroxy-6-[[(2R,3R,4S,5S,6R)-3,4,5-trihydroxy-6-(hydroxymethyl)tetrahydropyran-2-yl]oxymethyl]tetrahydropyran-2-yl]oxy-chromen-4-one

>  <PUBCHEM_IUPAC_CAS_NAME>
5,7-dihydroxy-2-(4-hydroxyphenyl)-3-[[(2S,3R,4S,5S,6R)-3,4,5-trihydroxy-6-[[(2R,3R,4S,5S,6R)-3,4,5-trihydroxy-6-(hydroxymethyl)-2-oxanyl]oxymethyl]-2-oxanyl]oxy]-1-benzopyran-4-one

>  <PUBCHEM_IUPAC_NAME>
5,7-dihydroxy-2-(4-hydroxyphenyl)-3-[(2S,3R,4S,5S,6R)-3,4,5-trihydroxy-6-[[(2R,3R,4S,5S,6R)-3,4,5-trihydroxy-6-(hydroxymethyl)oxan-2-yl]oxymethyl]oxan-2-yl]oxychromen-4-one

>  <PUBCHEM_IUPAC_SYSTEMATIC_NAME>
3-[(2S,3R,4S,5S,6R)-6-[[(2R,3R,4S,5S,6R)-6-(hydroxymethyl)-3,4,5-tris(oxidanyl)oxan-2-yl]oxymethyl]-3,4,5-tris(oxidanyl)oxan-2-yl]oxy-2-(4-hydroxyphenyl)-5,7-bis(oxidanyl)chromen-4-one

>  <PUBCHEM_IUPAC_TRADITIONAL_NAME>
5,7-dihydroxy-2-(4-hydroxyphenyl)-3-[(2S,3R,4S,5S,6R)-3,4,5-trihydroxy-6-[[(2R,3R,4S,5S,6R)-3,4,5-trihydroxy-6-methylol-tetrahydropyran-2-yl]oxymethyl]tetrahydropyran-2-yl]oxy-chromone

>  <PUBCHEM_IUPAC_INCHI>
InChI=1S/C27H30O16/c28-7-14-17(32)20(35)22(37)26(41-14)39-8-15-18(33)21(36)23(38)27(42-15)43-25-19(34)16-12(31)5-11(30)6-13(16)40-24(25)9-1-3-10(29)4-2-9/h1-6,14-15,17-18,20-23,26-33,35-38H,7-8H2/t14-,15-,17-,18-,20+,21+,22-,23-,26-,27+/m1/s1

>  <PUBCHEM_IUPAC_INCHIKEY>
BITPRCODIALMOV-DEFKTLOSSA-N

>  <PUBCHEM_XLOGP3_AA>
-1.4

>  <PUBCHEM_EXACT_MASS>
610.153

>  <PUBCHEM_MOLECULAR_FORMULA>
C27H30O16

>  <PUBCHEM_MOLECULAR_WEIGHT>
610.521

>  <PUBCHEM_OPENEYE_CAN_SMILES>
C1=CC(=CC=C1C2=C(C(=O)C3=C(C=C(C=C3O2)O)O)OC4C(C(C(C(O4)COC5C(C(C(C(O5)CO)O)O)O)O)O)O)O

>  <PUBCHEM_OPENEYE_ISO_SMILES>
C1=CC(=CC=C1C2=C(C(=O)C3=C(C=C(C=C3O2)O)O)O[C@H]4[C@@H]([C@H]([C@@H]([C@H](O4)CO[C@H]5[C@@H]([C@H]([C@@H]([C@H](O5)CO)O)O)O)O)O)O)O

>  <PUBCHEM_CACTVS_TPSA>
266

>  <PUBCHEM_MONOISOTOPIC_WEIGHT>
610.153

>  <PUBCHEM_TOTAL_CHARGE>
0

>  <PUBCHEM_HEAVY_ATOM_COUNT>
43

>  <PUBCHEM_ATOM_DEF_STEREO_COUNT>
10

>  <PUBCHEM_ATOM_UDEF_STEREO_COUNT>
0

>  <PUBCHEM_BOND_DEF_STEREO_COUNT>
0

>  <PUBCHEM_BOND_UDEF_STEREO_COUNT>
0

>  <PUBCHEM_ISOTOPIC_ATOM_COUNT>
0

>  <PUBCHEM_COMPONENT_COUNT>
1

>  <PUBCHEM_CACTVS_TAUTO_COUNT>
57

>  <PUBCHEM_COORDINATE_TYPE>
1
5
255

>  <PUBCHEM_BONDANNOTATIONS>
24  10  6
12  30  8
12  33  8
17  27  5
25  28  5
29  30  8
29  31  8
23  3  5
31  32  8
32  33  8
32  35  8
33  36  8
34  37  8
34  38  8
35  39  8
36  40  8
37  41  8
38  42  8
39  40  8
18  4  6
41  43  8
42  43  8
19  5  5
26  6  5
20  7  6
21  8  6
22  9  5

$$$$
