9972910
 OpenBabel06101807152D

 37 39  0  0  0  0  0  0  0  0999 V2000
    6.0682   -0.9031    0.0000 O   0  0  0  0  0  0  0  0  0  0  0  0
    7.8003    1.0969    0.0000 O   0  0  0  0  0  0  0  0  0  0  0  0
    4.3198   -1.9377    0.0000 O   0  0  0  0  0  0  0  0  0  0  0  0
    4.3198    2.1315    0.0000 O   0  0  0  0  0  0  0  0  0  0  0  0
    6.0682    2.0969    0.0000 O   0  0  0  0  0  0  0  0  0  0  0  0
    2.5381   -0.9273    0.0000 O   0  0  0  0  0  0  0  0  0  0  0  0
    5.2022    0.5969    0.0000 C   0  0  0  0  0  0  0  0  0  0  0  0
    5.2022   -0.4031    0.0000 C   0  0  0  0  0  0  0  0  0  0  0  0
    6.9343   -0.4031    0.0000 C   0  0  0  0  0  0  0  0  0  0  0  0
    6.9343    0.5969    0.0000 C   0  0  0  0  0  0  0  0  0  0  0  0
    6.0682    1.0969    0.0000 C   0  0  0  0  0  0  0  0  0  0  0  0
    4.3083   -0.9378    0.0000 C   0  0  0  0  0  0  0  0  0  0  0  0
    4.3083    1.1316    0.0000 C   0  0  0  0  0  0  0  0  0  0  0  0
    7.8003   -0.9031    0.0000 C   0  0  0  0  0  0  0  0  0  0  0  0
    3.4022   -0.4239    0.0000 C   0  0  0  0  0  0  0  0  0  0  0  0
    3.4022    0.6177    0.0000 C   0  0  0  0  0  0  0  0  0  0  0  0
    7.8003   -1.9031    0.0000 C   0  0  0  0  0  0  0  0  0  0  0  0
    8.6663   -0.4031    0.0000 C   0  0  0  0  0  0  0  0  0  0  0  0
    8.6663   -2.4031    0.0000 C   0  0  0  0  0  0  0  0  0  0  0  0
    9.5323   -0.9031    0.0000 C   0  0  0  0  0  0  0  0  0  0  0  0
    9.5323   -1.9031    0.0000 C   0  0  0  0  0  0  0  0  0  0  0  0
    7.8003    2.0969    0.0000 C   0  0  0  0  0  0  0  0  0  0  0  0
    3.4597   -2.4477    0.0000 C   0  0  0  0  0  0  0  0  0  0  0  0
    2.8665    0.9298    0.0000 H   0  0  0  0  0  0  0  0  0  0  0  0
    7.2634   -2.2131    0.0000 H   0  0  0  0  0  0  0  0  0  0  0  0
    8.6663    0.2169    0.0000 H   0  0  0  0  0  0  0  0  0  0  0  0
    8.6663   -3.0231    0.0000 H   0  0  0  0  0  0  0  0  0  0  0  0
   10.0693   -0.5931    0.0000 H   0  0  0  0  0  0  0  0  0  0  0  0
   10.0693   -2.2131    0.0000 H   0  0  0  0  0  0  0  0  0  0  0  0
    3.7865    2.4477    0.0000 H   0  0  0  0  0  0  0  0  0  0  0  0
    2.0000   -0.6193    0.0000 H   0  0  0  0  0  0  0  0  0  0  0  0
    8.4203    2.0969    0.0000 H   0  0  0  0  0  0  0  0  0  0  0  0
    7.8003    2.7169    0.0000 H   0  0  0  0  0  0  0  0  0  0  0  0
    7.1803    2.0969    0.0000 H   0  0  0  0  0  0  0  0  0  0  0  0
    3.1435   -1.9144    0.0000 H   0  0  0  0  0  0  0  0  0  0  0  0
    2.9263   -2.7639    0.0000 H   0  0  0  0  0  0  0  0  0  0  0  0
    3.7758   -2.9810    0.0000 H   0  0  0  0  0  0  0  0  0  0  0  0
  1  8  1  0  0  0  0
  1  9  1  0  0  0  0
  2 10  1  0  0  0  0
  2 22  1  0  0  0  0
  3 12  1  0  0  0  0
  3 23  1  0  0  0  0
  4 13  1  0  0  0  0
  4 30  1  0  0  0  0
  5 11  2  0  0  0  0
  6 15  1  0  0  0  0
  6 31  1  0  0  0  0
  7  8  2  0  0  0  0
  7 11  1  0  0  0  0
  7 13  1  0  0  0  0
  8 12  1  0  0  0  0
  9 10  2  0  0  0  0
  9 14  1  0  0  0  0
 10 11  1  0  0  0  0
 12 15  2  0  0  0  0
 13 16  2  0  0  0  0
 14 17  2  0  0  0  0
 14 18  1  0  0  0  0
 15 16  1  0  0  0  0
 16 24  1  0  0  0  0
 17 19  1  0  0  0  0
 17 25  1  0  0  0  0
 18 20  2  0  0  0  0
 18 26  1  0  0  0  0
 19 21  2  0  0  0  0
 19 27  1  0  0  0  0
 20 21  1  0  0  0  0
 20 28  1  0  0  0  0
 21 29  1  0  0  0  0
 22 32  1  0  0  0  0
 22 33  1  0  0  0  0
 22 34  1  0  0  0  0
 23 35  1  0  0  0  0
 23 36  1  0  0  0  0
 23 37  1  0  0  0  0
M  END
>  <PUBCHEM_COMPOUND_CID>
9972910

>  <PUBCHEM_COMPOUND_CANONICALIZED>
1

>  <PUBCHEM_CACTVS_COMPLEXITY>
482

>  <PUBCHEM_CACTVS_HBOND_ACCEPTOR>
6

>  <PUBCHEM_CACTVS_HBOND_DONOR>
2

>  <PUBCHEM_CACTVS_ROTATABLE_BOND>
3

>  <PUBCHEM_CACTVS_SUBSKEYS>
AAADccB4OAAAAAAAAAAAAAAAAAAAAAAAAAAwYIAAAAAAAACBQAAAGgAACAAADASAmAIyBoAABgCIAqBSAAICCAAkIAAIiAFGiMgNJzaGNR6CeWOl4BULuQfK7LzOIQABCAAIQABCAAIQABCAAAAAAAAAAA==

>  <PUBCHEM_IUPAC_OPENEYE_NAME>
5,7-dihydroxy-3,8-dimethoxy-2-phenyl-chromen-4-one

>  <PUBCHEM_IUPAC_CAS_NAME>
5,7-dihydroxy-3,8-dimethoxy-2-phenyl-1-benzopyran-4-one

>  <PUBCHEM_IUPAC_NAME>
5,7-dihydroxy-3,8-dimethoxy-2-phenylchromen-4-one

>  <PUBCHEM_IUPAC_SYSTEMATIC_NAME>
3,8-dimethoxy-5,7-bis(oxidanyl)-2-phenyl-chromen-4-one

>  <PUBCHEM_IUPAC_TRADITIONAL_NAME>
5,7-dihydroxy-3,8-dimethoxy-2-phenyl-chromone

>  <PUBCHEM_IUPAC_INCHI>
InChI=1S/C17H14O6/c1-21-15-11(19)8-10(18)12-13(20)17(22-2)14(23-16(12)15)9-6-4-3-5-7-9/h3-8,18-19H,1-2H3

>  <PUBCHEM_IUPAC_INCHIKEY>
OWQLBLNRUZULFV-UHFFFAOYSA-N

>  <PUBCHEM_XLOGP3_AA>
3.2

>  <PUBCHEM_EXACT_MASS>
314.079

>  <PUBCHEM_MOLECULAR_FORMULA>
C17H14O6

>  <PUBCHEM_MOLECULAR_WEIGHT>
314.293

>  <PUBCHEM_OPENEYE_CAN_SMILES>
COC1=C(C=C(C2=C1OC(=C(C2=O)OC)C3=CC=CC=C3)O)O

>  <PUBCHEM_OPENEYE_ISO_SMILES>
COC1=C(C=C(C2=C1OC(=C(C2=O)OC)C3=CC=CC=C3)O)O

>  <PUBCHEM_CACTVS_TPSA>
85.2

>  <PUBCHEM_MONOISOTOPIC_WEIGHT>
314.079

>  <PUBCHEM_TOTAL_CHARGE>
0

>  <PUBCHEM_HEAVY_ATOM_COUNT>
23

>  <PUBCHEM_ATOM_DEF_STEREO_COUNT>
0

>  <PUBCHEM_ATOM_UDEF_STEREO_COUNT>
0

>  <PUBCHEM_BOND_DEF_STEREO_COUNT>
0

>  <PUBCHEM_BOND_UDEF_STEREO_COUNT>
0

>  <PUBCHEM_ISOTOPIC_ATOM_COUNT>
0

>  <PUBCHEM_COMPONENT_COUNT>
1

>  <PUBCHEM_CACTVS_TAUTO_COUNT>
12

>  <PUBCHEM_COORDINATE_TYPE>
1
5
255

>  <PUBCHEM_BONDANNOTATIONS>
1  8  8
1  9  8
10  11  8
12  15  8
13  16  8
14  17  8
14  18  8
15  16  8
17  19  8
18  20  8
19  21  8
20  21  8
7  11  8
7  13  8
7  8  8
8  12  8
9  10  8

$$$$
