9985405
 OpenBabel06101807152D

 64 69  0  0  0  0  0  0  0  0999 V2000
    6.3962    2.7510    0.0000 O   0  0  0  0  0  0  0  0  0  0  0  0
    4.6523   -1.2559    0.0000 O   0  0  0  0  0  0  0  0  0  0  0  0
    6.3683    1.7856    0.0000 O   0  0  0  0  0  0  0  0  0  0  0  0
    2.9042    2.7856    0.0000 O   0  0  0  0  0  0  0  0  0  0  0  0
    2.9042    1.7856    0.0000 O   0  0  0  0  0  0  0  0  0  0  0  0
    4.6362    5.7857    0.0000 O   0  0  0  0  0  0  0  0  0  0  0  0
    6.3846    5.8202    0.0000 O   0  0  0  0  0  0  0  0  0  0  0  0
    2.0000    0.2888    0.0000 O   0  0  0  0  0  0  0  0  0  0  0  0
   10.7586    1.2515    0.0000 O   0  0  0  0  0  0  0  0  0  0  0  0
    3.7696   -5.7836    0.0000 O   0  0  0  0  0  0  0  0  0  0  0  0
    4.6362    2.7856    0.0000 C   0  0  0  0  0  0  0  0  0  0  0  0
    4.6362    1.7856    0.0000 C   0  0  0  0  0  0  0  0  0  0  0  0
    5.5022    3.2856    0.0000 C   0  0  0  0  0  0  0  0  0  0  0  0
    3.7702    1.2856    0.0000 C   0  0  0  0  0  0  0  0  0  0  0  0
    5.5022    4.2857    0.0000 C   0  0  0  0  0  0  0  0  0  0  0  0
    3.7702    0.2856    0.0000 C   0  0  0  0  0  0  0  0  0  0  0  0
    5.5022    1.2856    0.0000 C   0  0  0  0  0  0  0  0  0  0  0  0
    3.7702    3.2856    0.0000 C   0  0  0  0  0  0  0  0  0  0  0  0
    4.6362   -0.2144    0.0000 C   0  0  0  0  0  0  0  0  0  0  0  0
    5.5022    0.2856    0.0000 C   0  0  0  0  0  0  0  0  0  0  0  0
    4.6362    4.7857    0.0000 C   0  0  0  0  0  0  0  0  0  0  0  0
    3.7702    4.2857    0.0000 C   0  0  0  0  0  0  0  0  0  0  0  0
    6.3962    4.8203    0.0000 C   0  0  0  0  0  0  0  0  0  0  0  0
    7.3022    3.2648    0.0000 C   0  0  0  0  0  0  0  0  0  0  0  0
    2.8602   -0.2212    0.0000 C   0  0  0  0  0  0  0  0  0  0  0  0
    7.3022    4.3065    0.0000 C   0  0  0  0  0  0  0  0  0  0  0  0
    3.7542   -1.7836    0.0000 C   0  0  0  0  0  0  0  0  0  0  0  0
    2.8522   -1.2628    0.0000 C   0  0  0  0  0  0  0  0  0  0  0  0
    8.1663    2.7615    0.0000 C   0  0  0  0  0  0  0  0  0  0  0  0
    3.7581   -2.7836    0.0000 C   0  0  0  0  0  0  0  0  0  0  0  0
    8.1625    1.7615    0.0000 C   0  0  0  0  0  0  0  0  0  0  0  0
    9.0343    3.2582    0.0000 C   0  0  0  0  0  0  0  0  0  0  0  0
    2.8940   -3.2869    0.0000 C   0  0  0  0  0  0  0  0  0  0  0  0
    4.6260   -3.2803    0.0000 C   0  0  0  0  0  0  0  0  0  0  0  0
    7.2343    1.2856    0.0000 C   0  0  0  0  0  0  0  0  0  0  0  0
    2.0381    3.2856    0.0000 C   0  0  0  0  0  0  0  0  0  0  0  0
    9.0266    1.2582    0.0000 C   0  0  0  0  0  0  0  0  0  0  0  0
    9.8984    2.7548    0.0000 C   0  0  0  0  0  0  0  0  0  0  0  0
    9.8945    1.7548    0.0000 C   0  0  0  0  0  0  0  0  0  0  0  0
    2.8978   -4.2869    0.0000 C   0  0  0  0  0  0  0  0  0  0  0  0
    4.6299   -4.2802    0.0000 C   0  0  0  0  0  0  0  0  0  0  0  0
    3.7658   -4.7836    0.0000 C   0  0  0  0  0  0  0  0  0  0  0  0
    6.0392   -0.0244    0.0000 H   0  0  0  0  0  0  0  0  0  0  0  0
    3.2332    4.5956    0.0000 H   0  0  0  0  0  0  0  0  0  0  0  0
    7.8380    4.6185    0.0000 H   0  0  0  0  0  0  0  0  0  0  0  0
    2.3140   -1.5707    0.0000 H   0  0  0  0  0  0  0  0  0  0  0  0
    2.3672    1.4756    0.0000 H   0  0  0  0  0  0  0  0  0  0  0  0
    7.6244    1.4536    0.0000 H   0  0  0  0  0  0  0  0  0  0  0  0
    9.0367    3.8782    0.0000 H   0  0  0  0  0  0  0  0  0  0  0  0
    4.0993    6.0956    0.0000 H   0  0  0  0  0  0  0  0  0  0  0  0
    2.3559   -2.9790    0.0000 H   0  0  0  0  0  0  0  0  0  0  0  0
    5.1618   -2.9682    0.0000 H   0  0  0  0  0  0  0  0  0  0  0  0
    6.9243    0.7487    0.0000 H   0  0  0  0  0  0  0  0  0  0  0  0
    7.7712    0.9756    0.0000 H   0  0  0  0  0  0  0  0  0  0  0  0
    7.5443    1.8226    0.0000 H   0  0  0  0  0  0  0  0  0  0  0  0
    2.3481    3.8226    0.0000 H   0  0  0  0  0  0  0  0  0  0  0  0
    1.5012    3.5956    0.0000 H   0  0  0  0  0  0  0  0  0  0  0  0
    1.7281    2.7487    0.0000 H   0  0  0  0  0  0  0  0  0  0  0  0
    9.0242    0.6382    0.0000 H   0  0  0  0  0  0  0  0  0  0  0  0
   10.4365    3.0628    0.0000 H   0  0  0  0  0  0  0  0  0  0  0  0
    2.3621   -4.5990    0.0000 H   0  0  0  0  0  0  0  0  0  0  0  0
    5.1680   -4.5882    0.0000 H   0  0  0  0  0  0  0  0  0  0  0  0
   11.2967    1.5594    0.0000 H   0  0  0  0  0  0  0  0  0  0  0  0
    3.2339   -6.0956    0.0000 H   0  0  0  0  0  0  0  0  0  0  0  0
  1 13  1  0  0  0  0
  1 24  1  0  0  0  0
  2 19  1  0  0  0  0
  2 27  1  0  0  0  0
  3 17  1  0  0  0  0
  3 35  1  0  0  0  0
  4 18  1  0  0  0  0
  4 36  1  0  0  0  0
  5 14  1  0  0  0  0
  5 47  1  0  0  0  0
  6 21  1  0  0  0  0
  6 50  1  0  0  0  0
  7 23  2  0  0  0  0
  8 25  2  0  0  0  0
  9 39  1  0  0  0  0
  9 63  1  0  0  0  0
 10 42  1  0  0  0  0
 10 64  1  0  0  0  0
 11 12  1  0  0  0  0
 11 13  1  0  0  0  0
 11 18  2  0  0  0  0
 12 14  1  0  0  0  0
 12 17  2  0  0  0  0
 13 15  2  0  0  0  0
 14 16  2  0  0  0  0
 15 21  1  0  0  0  0
 15 23  1  0  0  0  0
 16 19  1  0  0  0  0
 16 25  1  0  0  0  0
 17 20  1  0  0  0  0
 18 22  1  0  0  0  0
 19 20  2  0  0  0  0
 20 43  1  0  0  0  0
 21 22  2  0  0  0  0
 22 44  1  0  0  0  0
 23 26  1  0  0  0  0
 24 26  2  0  0  0  0
 24 29  1  0  0  0  0
 25 28  1  0  0  0  0
 26 45  1  0  0  0  0
 27 28  2  0  0  0  0
 27 30  1  0  0  0  0
 28 46  1  0  0  0  0
 29 31  2  0  0  0  0
 29 32  1  0  0  0  0
 30 33  2  0  0  0  0
 30 34  1  0  0  0  0
 31 37  1  0  0  0  0
 31 48  1  0  0  0  0
 32 38  2  0  0  0  0
 32 49  1  0  0  0  0
 33 40  1  0  0  0  0
 33 51  1  0  0  0  0
 34 41  2  0  0  0  0
 34 52  1  0  0  0  0
 35 53  1  0  0  0  0
 35 54  1  0  0  0  0
 35 55  1  0  0  0  0
 36 56  1  0  0  0  0
 36 57  1  0  0  0  0
 36 58  1  0  0  0  0
 37 39  2  0  0  0  0
 37 59  1  0  0  0  0
 38 39  1  0  0  0  0
 38 60  1  0  0  0  0
 40 42  2  0  0  0  0
 40 61  1  0  0  0  0
 41 42  1  0  0  0  0
 41 62  1  0  0  0  0
M  END
>  <PUBCHEM_COMPOUND_CID>
9985405

>  <PUBCHEM_COMPOUND_CANONICALIZED>
1

>  <PUBCHEM_CACTVS_COMPLEXITY>
1070

>  <PUBCHEM_CACTVS_HBOND_ACCEPTOR>
10

>  <PUBCHEM_CACTVS_HBOND_DONOR>
4

>  <PUBCHEM_CACTVS_ROTATABLE_BOND>
5

>  <PUBCHEM_CACTVS_SUBSKEYS>
AAADceB8PAAAAAAAAAAAAAAAAAAAAAAAAAAwYMGCAAAAAACBVAAAGgAACAAADASAmAIyBoAABgCIAqBSAAACCAAkIAAIiAEGCMgMJzaGNRqCeWCl4BUIuQfI7PzOoAACCAAIAABAAAQQABAAAAAAAAAAAA==

>  <PUBCHEM_IUPAC_OPENEYE_NAME>
5-hydroxy-8-[5-hydroxy-2-(4-hydroxyphenyl)-7-methoxy-4-oxo-chromen-6-yl]-2-(4-hydroxyphenyl)-7-methoxy-chromen-4-one

>  <PUBCHEM_IUPAC_CAS_NAME>
5-hydroxy-8-[5-hydroxy-2-(4-hydroxyphenyl)-7-methoxy-4-oxo-1-benzopyran-6-yl]-2-(4-hydroxyphenyl)-7-methoxy-1-benzopyran-4-one

>  <PUBCHEM_IUPAC_NAME>
5-hydroxy-8-[5-hydroxy-2-(4-hydroxyphenyl)-7-methoxy-4-oxochromen-6-yl]-2-(4-hydroxyphenyl)-7-methoxychromen-4-one

>  <PUBCHEM_IUPAC_SYSTEMATIC_NAME>
2-(4-hydroxyphenyl)-8-[2-(4-hydroxyphenyl)-7-methoxy-5-oxidanyl-4-oxidanylidene-chromen-6-yl]-7-methoxy-5-oxidanyl-chromen-4-one

>  <PUBCHEM_IUPAC_TRADITIONAL_NAME>
5-hydroxy-8-[5-hydroxy-2-(4-hydroxyphenyl)-4-keto-7-methoxy-chromen-6-yl]-2-(4-hydroxyphenyl)-7-methoxy-chromone

>  <PUBCHEM_IUPAC_INCHI>
InChI=1S/C32H22O10/c1-39-24-13-20(36)27-19(35)11-23(16-5-9-18(34)10-6-16)42-32(27)30(24)29-25(40-2)14-26-28(31(29)38)21(37)12-22(41-26)15-3-7-17(33)8-4-15/h3-14,33-34,36,38H,1-2H3

>  <PUBCHEM_IUPAC_INCHIKEY>
QPFBVCAQCZYOIT-UHFFFAOYSA-N

>  <PUBCHEM_XLOGP3_AA>
5.7

>  <PUBCHEM_EXACT_MASS>
566.121

>  <PUBCHEM_MOLECULAR_FORMULA>
C32H22O10

>  <PUBCHEM_MOLECULAR_WEIGHT>
566.518

>  <PUBCHEM_OPENEYE_CAN_SMILES>
COC1=C(C2=C(C(=C1)O)C(=O)C=C(O2)C3=CC=C(C=C3)O)C4=C(C=C5C(=C4O)C(=O)C=C(O5)C6=CC=C(C=C6)O)OC

>  <PUBCHEM_OPENEYE_ISO_SMILES>
COC1=C(C2=C(C(=C1)O)C(=O)C=C(O2)C3=CC=C(C=C3)O)C4=C(C=C5C(=C4O)C(=O)C=C(O5)C6=CC=C(C=C6)O)OC

>  <PUBCHEM_CACTVS_TPSA>
152

>  <PUBCHEM_MONOISOTOPIC_WEIGHT>
566.121

>  <PUBCHEM_TOTAL_CHARGE>
0

>  <PUBCHEM_HEAVY_ATOM_COUNT>
42

>  <PUBCHEM_ATOM_DEF_STEREO_COUNT>
0

>  <PUBCHEM_ATOM_UDEF_STEREO_COUNT>
0

>  <PUBCHEM_BOND_DEF_STEREO_COUNT>
0

>  <PUBCHEM_BOND_UDEF_STEREO_COUNT>
0

>  <PUBCHEM_ISOTOPIC_ATOM_COUNT>
0

>  <PUBCHEM_COMPONENT_COUNT>
1

>  <PUBCHEM_CACTVS_TAUTO_COUNT>
576

>  <PUBCHEM_COORDINATE_TYPE>
1
5
255

>  <PUBCHEM_BONDANNOTATIONS>
1  13  8
1  24  8
11  13  8
11  18  8
12  14  8
12  17  8
13  15  8
14  16  8
15  21  8
15  23  8
16  19  8
16  25  8
17  20  8
18  22  8
19  20  8
2  19  8
2  27  8
21  22  8
23  26  8
24  26  8
25  28  8
27  28  8
29  31  8
29  32  8
30  33  8
30  34  8
31  37  8
32  38  8
33  40  8
34  41  8
37  39  8
38  39  8
40  42  8
41  42  8

$$$$
